
     RDKit          3D

 64 67  0  0  0  0  0  0  0  0999 V2000
  142.9970   76.7300  217.3920 C   0  0  0  0  0  0  0  0  0  0  0  0
  142.9080   77.5360  218.6550 C   0  0  0  0  0  0  0  0  0  0  0  0
  142.5520   76.6520  219.8250 C   0  0  0  0  0  0  0  0  0  0  0  0
  143.3940   75.7580  220.0880 O   0  0  0  0  0  0  0  0  0  0  0  0
  141.3460   76.8440  220.5510 N   0  0  0  0  0  0  0  0  0  0  0  0
  141.3390   77.9830  221.4460 C   0  0  0  0  0  0  0  0  0  0  0  0
  141.2310   79.2690  220.9740 C   0  0  0  0  0  0  0  0  0  0  0  0
  141.2290   80.2980  221.8700 C   0  0  0  0  0  0  0  0  0  0  0  0
  141.3370   80.0210  223.2290 C   0  0  0  0  0  0  0  0  0  0  0  0
  141.4450   78.7280  223.6940 C   0  0  0  0  0  0  0  0  0  0  0  0
  141.4480   77.6870  222.7930 C   0  0  0  0  0  0  0  0  0  0  0  0
  140.1870   75.9890  220.4300 C   0  0  0  0  0  0  0  0  0  0  0  0
  140.5170   74.6240  219.9630 C   0  0  0  0  0  0  0  0  0  0  0  0
  140.2720   73.5140  220.9430 C   0  0  0  0  0  0  0  0  0  0  0  0
  138.9570   73.6430  221.5160 N   0  0  0  0  0  0  0  0  0  0  0  0
  138.2910   72.6200  222.2480 C   0  0  0  0  0  0  0  0  0  0  0  0
  137.1010   72.8520  222.6870 O   0  0  0  0  0  0  0  0  0  0  0  0
  138.8330   71.2990  222.5610 C   0  0  2  0  0  0  0  0  0  0  0  0
  137.9920   70.2060  222.1450 N   0  0  0  0  0  0  0  0  0  0  0  0
  139.1940   71.0800  223.9930 C   0  0  2  0  0  0  0  0  0  0  0  0
  140.3790   71.8850  224.4730 C   0  0  0  0  0  0  0  0  0  0  0  0
  140.5470   71.2700  225.8410 C   0  0  0  0  0  0  0  0  0  0  0  0
  141.0560   71.8070  227.0060 C   0  0  0  0  0  0  0  0  0  0  0  0
  141.1000   71.0210  228.1420 C   0  0  0  0  0  0  0  0  0  0  0  0
  140.6340   69.7310  228.0700 C   0  0  0  0  0  0  0  0  0  0  0  0
  140.1230   69.1670  226.9250 C   0  0  0  0  0  0  0  0  0  0  0  0
  139.6300   67.7640  226.8970 C   0  0  0  0  0  0  0  0  0  0  0  0
  140.0780   69.9500  225.7890 C   0  0  0  0  0  0  0  0  0  0  0  0
  139.6020   69.7020  224.3760 C   0  0  0  0  0  0  0  0  0  0  0  0
  138.2340   74.9200  221.3640 C   0  0  0  0  0  0  0  0  0  0  0  0
  139.2790   76.0270  221.6250 C   0  0  0  0  0  0  0  0  0  0  0  0
  143.1145   75.6657  217.6438 H   0  0  0  0  0  0  0  0  0  0  0  0
  142.0781   76.8683  216.8033 H   0  0  0  0  0  0  0  0  0  0  0  0
  143.8636   77.0654  216.8033 H   0  0  0  0  0  0  0  0  0  0  0  0
  143.8790   78.0159  218.8468 H   0  0  0  0  0  0  0  0  0  0  0  0
  142.1240   78.2982  218.5349 H   0  0  0  0  0  0  0  0  0  0  0  0
  141.1478   79.4650  219.8948 H   0  0  0  0  0  0  0  0  0  0  0  0
  141.1427   81.3375  221.5208 H   0  0  0  0  0  0  0  0  0  0  0  0
  141.3362   80.8528  223.9488 H   0  0  0  0  0  0  0  0  0  0  0  0
  141.5279   78.5300  224.7729 H   0  0  0  0  0  0  0  0  0  0  0  0
  141.5349   76.6454  223.1358 H   0  0  0  0  0  0  0  0  0  0  0  0
  139.5844   76.4272  219.6207 H   0  0  0  0  0  0  0  0  0  0  0  0
  139.9131   74.4203  219.0665 H   0  0  0  0  0  0  0  0  0  0  0  0
  141.6025   74.6269  219.7849 H   0  0  0  0  0  0  0  0  0  0  0  0
  140.3501   72.5469  220.4247 H   0  0  0  0  0  0  0  0  0  0  0  0
  141.0222   73.5693  221.7456 H   0  0  0  0  0  0  0  0  0  0  0  0
  139.7595   71.3013  221.9680 H   0  0  0  0  0  0  0  0  0  0  0  0
  137.0040   70.5450  222.1380 H   0  0  0  0  0  0  0  0  0  0  0  0
  138.2760   69.8280  221.1950 H   0  0  0  0  0  0  0  0  0  0  0  0
  138.2338   71.3704  224.4443 H   0  0  0  0  0  0  0  0  0  0  0  0
  141.2654   71.7308  223.8402 H   0  0  0  0  0  0  0  0  0  0  0  0
  140.2448   72.9767  224.4594 H   0  0  0  0  0  0  0  0  0  0  0  0
  141.4210   72.8444  227.0300 H   0  0  0  0  0  0  0  0  0  0  0  0
  141.5004   71.4208  229.0853 H   0  0  0  0  0  0  0  0  0  0  0  0
  140.6718   69.1142  228.9800 H   0  0  0  0  0  0  0  0  0  0  0  0
  139.5020   67.3997  227.9270 H   0  0  0  0  0  0  0  0  0  0  0  0
  138.6644   67.7251  226.3716 H   0  0  0  0  0  0  0  0  0  0  0  0
  140.3591   67.1296  226.3716 H   0  0  0  0  0  0  0  0  0  0  0  0
  140.4106   69.3227  223.7339 H   0  0  0  0  0  0  0  0  0  0  0  0
  138.8120   68.9425  224.2807 H   0  0  0  0  0  0  0  0  0  0  0  0
  137.8256   75.0105  220.3466 H   0  0  0  0  0  0  0  0  0  0  0  0
  137.3855   74.9910  222.0604 H   0  0  0  0  0  0  0  0  0  0  0  0
  138.7902   77.0089  221.7089 H   0  0  0  0  0  0  0  0  0  0  0  0
  139.8256   75.8675  222.5662 H   0  0  0  0  0  0  0  0  0  0  0  0
  1  2  1  0
  2  3  1  0
  3  4  2  0
  3  5  1  0
  5  6  1  0
  6  7  2  0
  7  8  1  0
  8  9  2  0
  9 10  1  0
 10 11  2  0
  5 12  1  0
 12 13  1  0
 13 14  1  0
 14 15  1  0
 15 16  1  0
 16 17  2  0
 16 18  1  0
 18 19  1  0
 18 20  1  0
 20 21  1  0
 21 22  1  0
 22 23  2  0
 23 24  1  0
 24 25  2  0
 25 26  1  0
 26 27  1  0
 26 28  2  0
 28 29  1  0
 15 30  1  0
 30 31  1  0
 11  6  1  0
 31 12  1  0
 29 20  1  0
 28 22  1  0
  1 32  1  0
  1 33  1  0
  1 34  1  0
  2 35  1  0
  2 36  1  0
  7 37  1  0
  8 38  1  0
  9 39  1  0
 10 40  1  0
 11 41  1  0
 12 42  1  0
 13 43  1  0
 13 44  1  0
 14 45  1  0
 14 46  1  0
 18 47  1  6
 19 48  1  0
 19 49  1  0
 20 50  1  1
 21 51  1  0
 21 52  1  0
 23 53  1  0
 24 54  1  0
 25 55  1  0
 27 56  1  0
 27 57  1  0
 27 58  1  0
 29 59  1  0
 29 60  1  0
 30 61  1  0
 30 62  1  0
 31 63  1  0
 31 64  1  0
M  END
>  <smiles>  (1) 
CCC(=O)N(c1ccccc1)C1CCN(C(=O)[C@H](N)C2Cc3cccc(C)c3C2)CC1

>  <score_type>  (1) 
oracle

>  <origin>  (1) 
autodockgpu

>  <m_score__min__energy>  (1) 
-8.7400000000000002

>  <m_primary>  (1) 
energy

>  <rmsd>  (1) 
8.041638551826246

>  <m_score__min__rmsd>  (1) 
8.041638551826246

>  <meeko>  (1) 
{"free_energy": -8.05, "intermolecular_energy": -10.14, "internal_energy": -1.88, "cluster_size": 6, "cluster_id": 4, "rank_in_cluster": 2}

>  <energy>  (1) 
-8.74

>  <cluster_rmsd>  (1) 
0.0

>  <cluster>  (1) 
1

$$$$

     RDKit          3D

 64 67  0  0  0  0  0  0  0  0999 V2000
  134.1410   79.8120  220.6970 C   0  0  0  0  0  0  0  0  0  0  0  0
  133.3700   79.6760  221.9770 C   0  0  0  0  0  0  0  0  0  0  0  0
  133.9730   78.6020  222.8500 C   0  0  0  0  0  0  0  0  0  0  0  0
  133.1490   77.9730  223.5580 O   0  0  0  0  0  0  0  0  0  0  0  0
  135.3710   78.3510  222.8450 N   0  0  0  0  0  0  0  0  0  0  0  0
  136.1820   79.3580  223.4990 C   0  0  0  0  0  0  0  0  0  0  0  0
  137.5080   79.5320  223.1830 C   0  0  0  0  0  0  0  0  0  0  0  0
  138.2160   80.5000  223.8340 C   0  0  0  0  0  0  0  0  0  0  0  0
  137.5820   81.2780  224.7970 C   0  0  0  0  0  0  0  0  0  0  0  0
  136.2510   81.0970  225.1090 C   0  0  0  0  0  0  0  0  0  0  0  0
  135.5340   80.1210  224.4530 C   0  0  0  0  0  0  0  0  0  0  0  0
  135.9790   77.1840  222.2470 C   0  0  0  0  0  0  0  0  0  0  0  0
  136.6780   77.4790  220.9760 C   0  0  0  0  0  0  0  0  0  0  0  0
  138.1670   77.2960  220.9840 C   0  0  0  0  0  0  0  0  0  0  0  0
  138.5050   76.0230  221.5640 N   0  0  0  0  0  0  0  0  0  0  0  0
  139.7830   75.4040  221.4660 C   0  0  0  0  0  0  0  0  0  0  0  0
  139.9500   74.2460  222.0080 O   0  0  0  0  0  0  0  0  0  0  0  0
  140.9560   75.9620  220.7950 C   0  0  2  0  0  0  0  0  0  0  0  0
  142.1000   75.0870  220.7910 N   0  0  0  0  0  0  0  0  0  0  0  0
  141.4010   77.2980  221.2930 C   0  0  2  0  0  0  0  0  0  0  0  0
  141.0550   77.5790  222.7360 C   0  0  0  0  0  0  0  0  0  0  0  0
  141.4720   79.0280  222.8040 C   0  0  0  0  0  0  0  0  0  0  0  0
  141.9230   79.7790  223.8700 C   0  0  0  0  0  0  0  0  0  0  0  0
  142.2450   81.1070  223.6640 C   0  0  0  0  0  0  0  0  0  0  0  0
  142.1050   81.6320  222.4020 C   0  0  0  0  0  0  0  0  0  0  0  0
  141.6590   80.9100  221.3210 C   0  0  0  0  0  0  0  0  0  0  0  0
  141.5240   81.5240  219.9730 C   0  0  0  0  0  0  0  0  0  0  0  0
  141.3360   79.5830  221.5250 C   0  0  0  0  0  0  0  0  0  0  0  0
  140.8240   78.4890  220.6160 C   0  0  0  0  0  0  0  0  0  0  0  0
  137.4790   75.2950  222.3350 C   0  0  0  0  0  0  0  0  0  0  0  0
  136.7790   76.3570  223.2110 C   0  0  0  0  0  0  0  0  0  0  0  0
  135.2007   79.9989  220.9254 H   0  0  0  0  0  0  0  0  0  0  0  0
  134.0498   78.8839  220.1136 H   0  0  0  0  0  0  0  0  0  0  0  0
  133.7378   80.6529  220.1136 H   0  0  0  0  0  0  0  0  0  0  0  0
  133.3925   80.6347  222.5160 H   0  0  0  0  0  0  0  0  0  0  0  0
  132.3330   79.3975  221.7381 H   0  0  0  0  0  0  0  0  0  0  0  0
  137.9895   78.9030  222.4198 H   0  0  0  0  0  0  0  0  0  0  0  0
  139.2782   80.6635  223.5994 H   0  0  0  0  0  0  0  0  0  0  0  0
  138.1558   82.0559  225.3220 H   0  0  0  0  0  0  0  0  0  0  0  0
  135.7678   81.7244  225.8725 H   0  0  0  0  0  0  0  0  0  0  0  0
  134.4715   79.9525  224.6825 H   0  0  0  0  0  0  0  0  0  0  0  0
  135.1407   76.5304  221.9641 H   0  0  0  0  0  0  0  0  0  0  0  0
  136.2621   76.8170  220.2022 H   0  0  0  0  0  0  0  0  0  0  0  0
  136.5129   78.5505  220.7897 H   0  0  0  0  0  0  0  0  0  0  0  0
  138.5443   77.3372  219.9516 H   0  0  0  0  0  0  0  0  0  0  0  0
  138.6254   78.0975  221.5819 H   0  0  0  0  0  0  0  0  0  0  0  0
  140.5792   76.0851  219.7689 H   0  0  0  0  0  0  0  0  0  0  0  0
  142.7520   75.4080  221.5410 H   0  0  0  0  0  0  0  0  0  0  0  0
  141.8230   74.0730  220.9300 H   0  0  0  0  0  0  0  0  0  0  0  0
  142.4779   77.1888  221.0970 H   0  0  0  0  0  0  0  0  0  0  0  0
  139.9809   77.4497  222.9348 H   0  0  0  0  0  0  0  0  0  0  0  0
  141.5310   76.9158  223.4733 H   0  0  0  0  0  0  0  0  0  0  0  0
  142.0247   79.3278  224.8680 H   0  0  0  0  0  0  0  0  0  0  0  0
  142.6063   81.7316  224.4942 H   0  0  0  0  0  0  0  0  0  0  0  0
  142.3645   82.6898  222.2482 H   0  0  0  0  0  0  0  0  0  0  0  0
  141.2889   82.5933  220.0790 H   0  0  0  0  0  0  0  0  0  0  0  0
  142.4688   81.4092  219.4215 H   0  0  0  0  0  0  0  0  0  0  0  0
  140.7144   81.0235  219.4215 H   0  0  0  0  0  0  0  0  0  0  0  0
  139.7247   78.4551  220.5974 H   0  0  0  0  0  0  0  0  0  0  0  0
  141.1015   78.5993  219.5573 H   0  0  0  0  0  0  0  0  0  0  0  0
  136.7549   74.8204  221.6564 H   0  0  0  0  0  0  0  0  0  0  0  0
  137.9231   74.4951  222.9457 H   0  0  0  0  0  0  0  0  0  0  0  0
  136.1198   75.8769  223.9492 H   0  0  0  0  0  0  0  0  0  0  0  0
  137.4979   76.9639  223.7810 H   0  0  0  0  0  0  0  0  0  0  0  0
  1  2  1  0
  2  3  1  0
  3  4  2  0
  3  5  1  0
  5  6  1  0
  6  7  2  0
  7  8  1  0
  8  9  2  0
  9 10  1  0
 10 11  2  0
  5 12  1  0
 12 13  1  0
 13 14  1  0
 14 15  1  0
 15 16  1  0
 16 17  2  0
 16 18  1  0
 18 19  1  0
 18 20  1  0
 20 21  1  0
 21 22  1  0
 22 23  2  0
 23 24  1  0
 24 25  2  0
 25 26  1  0
 26 27  1  0
 26 28  2  0
 28 29  1  0
 15 30  1  0
 30 31  1  0
 11  6  1  0
 31 12  1  0
 29 20  1  0
 28 22  1  0
  1 32  1  0
  1 33  1  0
  1 34  1  0
  2 35  1  0
  2 36  1  0
  7 37  1  0
  8 38  1  0
  9 39  1  0
 10 40  1  0
 11 41  1  0
 12 42  1  0
 13 43  1  0
 13 44  1  0
 14 45  1  0
 14 46  1  0
 18 47  1  6
 19 48  1  0
 19 49  1  0
 20 50  1  1
 21 51  1  0
 21 52  1  0
 23 53  1  0
 24 54  1  0
 25 55  1  0
 27 56  1  0
 27 57  1  0
 27 58  1  0
 29 59  1  0
 29 60  1  0
 30 61  1  0
 30 62  1  0
 31 63  1  0
 31 64  1  0
M  END
>  <smiles>  (2) 
CCC(=O)N(c1ccccc1)C1CCN(C(=O)[C@H](N)C2Cc3cccc(C)c3C2)CC1

>  <score_type>  (2) 
oracle

>  <origin>  (2) 
autodockgpu

>  <m_score__min__energy>  (2) 
-8.7400000000000002

>  <m_primary>  (2) 
energy

>  <rmsd>  (2) 
4.993288304803188

>  <m_score__min__rmsd>  (2) 
4.993288304803188

>  <meeko>  (2) 
{"free_energy": -6.34, "intermolecular_energy": -8.43, "internal_energy": -3.07, "cluster_size": 3, "cluster_id": 11, "rank_in_cluster": 3}

>  <energy>  (2) 
-8.65

>  <cluster_rmsd>  (2) 
0.94

>  <cluster>  (2) 
1

$$$$

     RDKit          3D

 64 67  0  0  0  0  0  0  0  0999 V2000
  144.0370   74.1620  218.4670 C   0  0  0  0  0  0  0  0  0  0  0  0
  143.3810   75.3110  219.1740 C   0  0  0  0  0  0  0  0  0  0  0  0
  142.7460   74.8500  220.4630 C   0  0  0  0  0  0  0  0  0  0  0  0
  143.4520   74.0710  221.1500 O   0  0  0  0  0  0  0  0  0  0  0  0
  141.4460   75.2830  220.8390 N   0  0  0  0  0  0  0  0  0  0  0  0
  141.3690   76.6380  221.3430 C   0  0  0  0  0  0  0  0  0  0  0  0
  141.0670   76.9010  222.6580 C   0  0  0  0  0  0  0  0  0  0  0  0
  141.0100   78.2010  223.0700 C   0  0  0  0  0  0  0  0  0  0  0  0
  141.2560   79.2190  222.1560 C   0  0  0  0  0  0  0  0  0  0  0  0
  141.5580   78.9460  220.8380 C   0  0  0  0  0  0  0  0  0  0  0  0
  141.6160   77.6360  220.4180 C   0  0  0  0  0  0  0  0  0  0  0  0
  140.2620   74.4610  220.7360 C   0  0  0  0  0  0  0  0  0  0  0  0
  140.5460   73.0860  220.2660 C   0  0  0  0  0  0  0  0  0  0  0  0
  140.2840   71.9850  221.2510 C   0  0  0  0  0  0  0  0  0  0  0  0
  138.9820   72.1510  221.8430 N   0  0  0  0  0  0  0  0  0  0  0  0
  138.2980   71.1490  222.5850 C   0  0  0  0  0  0  0  0  0  0  0  0
  137.1220   71.4150  223.0420 O   0  0  0  0  0  0  0  0  0  0  0  0
  138.8070   69.8130  222.8920 C   0  0  2  0  0  0  0  0  0  0  0  0
  137.8060   68.7790  222.8430 N   0  0  0  0  0  0  0  0  0  0  0  0
  139.5320   69.6880  224.1920 C   0  0  2  0  0  0  0  0  0  0  0  0
  138.9610   68.6540  225.1340 C   0  0  0  0  0  0  0  0  0  0  0  0
  139.8000   68.9520  226.3520 C   0  0  0  0  0  0  0  0  0  0  0  0
  140.2030   68.1280  227.3840 C   0  0  0  0  0  0  0  0  0  0  0  0
  140.9810   68.6540  228.3960 C   0  0  0  0  0  0  0  0  0  0  0  0
  141.3280   69.9830  228.3400 C   0  0  0  0  0  0  0  0  0  0  0  0
  140.9420   70.8290  227.3270 C   0  0  0  0  0  0  0  0  0  0  0  0
  141.3430   72.2610  227.3090 C   0  0  0  0  0  0  0  0  0  0  0  0
  140.1650   70.3040  226.3140 C   0  0  0  0  0  0  0  0  0  0  0  0
  139.5570   70.8940  225.0620 C   0  0  0  0  0  0  0  0  0  0  0  0
  138.2930   73.4480  221.6990 C   0  0  0  0  0  0  0  0  0  0  0  0
  139.3730   74.5260  221.9440 C   0  0  0  0  0  0  0  0  0  0  0  0
  144.4397   73.4567  219.2089 H   0  0  0  0  0  0  0  0  0  0  0  0
  143.2962   73.6481  217.8368 H   0  0  0  0  0  0  0  0  0  0  0  0
  144.8561   74.5387  217.8368 H   0  0  0  0  0  0  0  0  0  0  0  0
  144.1379   76.0772  219.3979 H   0  0  0  0  0  0  0  0  0  0  0  0
  142.5984   75.7274  218.5227 H   0  0  0  0  0  0  0  0  0  0  0  0
  140.8750   76.0799  223.3644 H   0  0  0  0  0  0  0  0  0  0  0  0
  140.7714   78.4411  224.1166 H   0  0  0  0  0  0  0  0  0  0  0  0
  141.2088   80.2656  222.4912 H   0  0  0  0  0  0  0  0  0  0  0  0
  141.7504   79.7658  220.1303 H   0  0  0  0  0  0  0  0  0  0  0  0
  141.8529   77.3893  219.3725 H   0  0  0  0  0  0  0  0  0  0  0  0
  139.6608   74.9152  219.9346 H   0  0  0  0  0  0  0  0  0  0  0  0
  139.9233   72.8986  219.3788 H   0  0  0  0  0  0  0  0  0  0  0  0
  141.6283   73.0576  220.0717 H   0  0  0  0  0  0  0  0  0  0  0  0
  140.3274   71.0155  220.7332 H   0  0  0  0  0  0  0  0  0  0  0  0
  141.0469   72.0207  222.0426 H   0  0  0  0  0  0  0  0  0  0  0  0
  139.5322   69.6675  222.0778 H   0  0  0  0  0  0  0  0  0  0  0  0
  136.8720   69.2280  222.9750 H   0  0  0  0  0  0  0  0  0  0  0  0
  137.8460   68.2330  221.9340 H   0  0  0  0  0  0  0  0  0  0  0  0
  140.5274   69.4409  223.7943 H   0  0  0  0  0  0  0  0  0  0  0  0
  137.8893   68.8153  225.3223 H   0  0  0  0  0  0  0  0  0  0  0  0
  139.0016   67.6149  224.7754 H   0  0  0  0  0  0  0  0  0  0  0  0
  139.9086   67.0682  227.3996 H   0  0  0  0  0  0  0  0  0  0  0  0
  141.3168   68.0217  229.2312 H   0  0  0  0  0  0  0  0  0  0  0  0
  141.9489   70.3924  229.1505 H   0  0  0  0  0  0  0  0  0  0  0  0
  141.4453   72.6261  228.3416 H   0  0  0  0  0  0  0  0  0  0  0  0
  142.3051   72.3658  226.7861 H   0  0  0  0  0  0  0  0  0  0  0  0
  140.5753   72.8502  226.7861 H   0  0  0  0  0  0  0  0  0  0  0  0
  138.5456   71.2859  225.2452 H   0  0  0  0  0  0  0  0  0  0  0  0
  140.1008   71.7543  224.6447 H   0  0  0  0  0  0  0  0  0  0  0  0
  137.8733   73.5489  220.6872 H   0  0  0  0  0  0  0  0  0  0  0  0
  137.4565   73.5437  222.4070 H   0  0  0  0  0  0  0  0  0  0  0  0
  138.9134   75.5214  222.0336 H   0  0  0  0  0  0  0  0  0  0  0  0
  139.9283   74.3523  222.8775 H   0  0  0  0  0  0  0  0  0  0  0  0
  1  2  1  0
  2  3  1  0
  3  4  2  0
  3  5  1  0
  5  6  1  0
  6  7  2  0
  7  8  1  0
  8  9  2  0
  9 10  1  0
 10 11  2  0
  5 12  1  0
 12 13  1  0
 13 14  1  0
 14 15  1  0
 15 16  1  0
 16 17  2  0
 16 18  1  0
 18 19  1  0
 18 20  1  0
 20 21  1  0
 21 22  1  0
 22 23  2  0
 23 24  1  0
 24 25  2  0
 25 26  1  0
 26 27  1  0
 26 28  2  0
 28 29  1  0
 15 30  1  0
 30 31  1  0
 11  6  1  0
 31 12  1  0
 29 20  1  0
 28 22  1  0
  1 32  1  0
  1 33  1  0
  1 34  1  0
  2 35  1  0
  2 36  1  0
  7 37  1  0
  8 38  1  0
  9 39  1  0
 10 40  1  0
 11 41  1  0
 12 42  1  0
 13 43  1  0
 13 44  1  0
 14 45  1  0
 14 46  1  0
 18 47  1  6
 19 48  1  0
 19 49  1  0
 20 50  1  6
 21 51  1  0
 21 52  1  0
 23 53  1  0
 24 54  1  0
 25 55  1  0
 27 56  1  0
 27 57  1  0
 27 58  1  0
 29 59  1  0
 29 60  1  0
 30 61  1  0
 30 62  1  0
 31 63  1  0
 31 64  1  0
M  END
>  <smiles>  (3) 
CCC(=O)N(c1ccccc1)C1CCN(C(=O)[C@H](N)C2Cc3cccc(C)c3C2)CC1

>  <score_type>  (3) 
oracle

>  <origin>  (3) 
autodockgpu

>  <m_score__min__energy>  (3) 
-8.7400000000000002

>  <m_primary>  (3) 
energy

>  <rmsd>  (3) 
9.968246658408148

>  <m_score__min__rmsd>  (3) 
9.968246658408148

>  <meeko>  (3) 
{"free_energy": -7.74, "intermolecular_energy": -9.83, "internal_energy": -2.14, "cluster_size": 6, "cluster_id": 4, "rank_in_cluster": 5}

>  <energy>  (3) 
-8.58

>  <cluster_rmsd>  (3) 
0.7

>  <cluster>  (3) 
1

$$$$

     RDKit          3D

 64 67  0  0  0  0  0  0  0  0999 V2000
  146.7600   73.3820  221.7770 C   0  0  0  0  0  0  0  0  0  0  0  0
  145.3720   73.4130  221.2080 C   0  0  0  0  0  0  0  0  0  0  0  0
  145.3280   72.7080  219.8750 C   0  0  0  0  0  0  0  0  0  0  0  0
  146.2990   72.9520  219.1160 O   0  0  0  0  0  0  0  0  0  0  0  0
  144.2550   71.8410  219.5360 N   0  0  0  0  0  0  0  0  0  0  0  0
  144.6410   70.4970  219.1600 C   0  0  0  0  0  0  0  0  0  0  0  0
  145.2610   70.2330  217.9620 C   0  0  0  0  0  0  0  0  0  0  0  0
  145.6000   68.9450  217.6690 C   0  0  0  0  0  0  0  0  0  0  0  0
  145.3100   67.9370  218.5830 C   0  0  0  0  0  0  0  0  0  0  0  0
  144.6880   68.2100  219.7820 C   0  0  0  0  0  0  0  0  0  0  0  0
  144.3440   69.5090  220.0810 C   0  0  0  0  0  0  0  0  0  0  0  0
  142.8640   72.2340  219.5570 C   0  0  0  0  0  0  0  0  0  0  0  0
  141.9330   71.0870  219.4690 C   0  0  0  0  0  0  0  0  0  0  0  0
  141.0800   70.8350  220.6780 C   0  0  0  0  0  0  0  0  0  0  0  0
  140.4670   72.0630  221.1130 N   0  0  0  0  0  0  0  0  0  0  0  0
  139.3840   72.1440  222.0320 C   0  0  0  0  0  0  0  0  0  0  0  0
  138.9050   73.3060  222.3210 O   0  0  0  0  0  0  0  0  0  0  0  0
  138.7410   71.0130  222.7000 C   0  0  2  0  0  0  0  0  0  0  0  0
  137.3770   71.2600  223.0890 N   0  0  0  0  0  0  0  0  0  0  0  0
  139.4670   70.4780  223.8900 C   0  0  2  0  0  0  0  0  0  0  0  0
  138.9460   69.1560  224.4030 C   0  0  0  0  0  0  0  0  0  0  0  0
  139.7650   69.0490  225.6660 C   0  0  0  0  0  0  0  0  0  0  0  0
  140.2050   67.9370  226.3550 C   0  0  0  0  0  0  0  0  0  0  0  0
  140.9530   68.1130  227.5030 C   0  0  0  0  0  0  0  0  0  0  0  0
  141.2330   69.3930  227.9180 C   0  0  0  0  0  0  0  0  0  0  0  0
  140.8100   70.5200  227.2540 C   0  0  0  0  0  0  0  0  0  0  0  0
  141.1390   71.8860  227.7430 C   0  0  0  0  0  0  0  0  0  0  0  0
  140.0620   70.3460  226.1070 C   0  0  0  0  0  0  0  0  0  0  0  0
  139.4300   71.3060  225.1250 C   0  0  0  0  0  0  0  0  0  0  0  0
  140.9900   73.3430  220.5990 C   0  0  0  0  0  0  0  0  0  0  0  0
  142.5290   73.2160  220.6420 C   0  0  0  0  0  0  0  0  0  0  0  0
  146.7060   73.3832  222.8757 H   0  0  0  0  0  0  0  0  0  0  0  0
  147.2757   72.4721  221.4362 H   0  0  0  0  0  0  0  0  0  0  0  0
  147.3158   74.2680  221.4362 H   0  0  0  0  0  0  0  0  0  0  0  0
  144.6844   72.9115  221.9049 H   0  0  0  0  0  0  0  0  0  0  0  0
  145.0712   74.4613  221.0645 H   0  0  0  0  0  0  0  0  0  0  0  0
  145.4796   71.0452  217.2531 H   0  0  0  0  0  0  0  0  0  0  0  0
  146.0985   68.7051  216.7182 H   0  0  0  0  0  0  0  0  0  0  0  0
  145.5833   66.8988  218.3432 H   0  0  0  0  0  0  0  0  0  0  0  0
  144.4689   67.3991  220.4922 H   0  0  0  0  0  0  0  0  0  0  0  0
  143.8448   69.7552  221.0298 H   0  0  0  0  0  0  0  0  0  0  0  0
  142.7061   72.7978  218.6258 H   0  0  0  0  0  0  0  0  0  0  0  0
  141.2622   71.2633  218.6152 H   0  0  0  0  0  0  0  0  0  0  0  0
  142.5702   70.1963  219.3659 H   0  0  0  0  0  0  0  0  0  0  0  0
  140.2959   70.1061  220.4251 H   0  0  0  0  0  0  0  0  0  0  0  0
  141.7100   70.4392  221.4882 H   0  0  0  0  0  0  0  0  0  0  0  0
  138.7689   70.2511  221.9071 H   0  0  0  0  0  0  0  0  0  0  0  0
  137.3100   72.2500  223.4170 H   0  0  0  0  0  0  0  0  0  0  0  0
  136.6990   71.0700  222.2950 H   0  0  0  0  0  0  0  0  0  0  0  0
  140.4745   70.4310  223.4510 H   0  0  0  0  0  0  0  0  0  0  0  0
  137.8670   69.1924  224.6137 H   0  0  0  0  0  0  0  0  0  0  0  0
  139.0404   68.3097  223.7067 H   0  0  0  0  0  0  0  0  0  0  0  0
  139.9637   66.9258  225.9954 H   0  0  0  0  0  0  0  0  0  0  0  0
  141.3173   67.2460  228.0736 H   0  0  0  0  0  0  0  0  0  0  0  0
  141.8293   69.5230  228.8332 H   0  0  0  0  0  0  0  0  0  0  0  0
  141.1403   71.8913  228.8430 H   0  0  0  0  0  0  0  0  0  0  0  0
  142.1332   72.1781  227.3738 H   0  0  0  0  0  0  0  0  0  0  0  0
  140.3868   72.5987  227.3738 H   0  0  0  0  0  0  0  0  0  0  0  0
  138.4000   71.5639  225.4123 H   0  0  0  0  0  0  0  0  0  0  0  0
  139.9326   72.2810  225.0431 H   0  0  0  0  0  0  0  0  0  0  0  0
  140.6480   73.5098  219.5669 H   0  0  0  0  0  0  0  0  0  0  0  0
  140.6370   74.1949  221.1987 H   0  0  0  0  0  0  0  0  0  0  0  0
  143.0036   74.1885  220.4443 H   0  0  0  0  0  0  0  0  0  0  0  0
  142.8907   72.8855  221.6269 H   0  0  0  0  0  0  0  0  0  0  0  0
  1  2  1  0
  2  3  1  0
  3  4  2  0
  3  5  1  0
  5  6  1  0
  6  7  2  0
  7  8  1  0
  8  9  2  0
  9 10  1  0
 10 11  2  0
  5 12  1  0
 12 13  1  0
 13 14  1  0
 14 15  1  0
 15 16  1  0
 16 17  2  0
 16 18  1  0
 18 19  1  0
 18 20  1  0
 20 21  1  0
 21 22  1  0
 22 23  2  0
 23 24  1  0
 24 25  2  0
 25 26  1  0
 26 27  1  0
 26 28  2  0
 28 29  1  0
 15 30  1  0
 30 31  1  0
 11  6  1  0
 31 12  1  0
 29 20  1  0
 28 22  1  0
  1 32  1  0
  1 33  1  0
  1 34  1  0
  2 35  1  0
  2 36  1  0
  7 37  1  0
  8 38  1  0
  9 39  1  0
 10 40  1  0
 11 41  1  0
 12 42  1  0
 13 43  1  0
 13 44  1  0
 14 45  1  0
 14 46  1  0
 18 47  1  6
 19 48  1  0
 19 49  1  0
 20 50  1  6
 21 51  1  0
 21 52  1  0
 23 53  1  0
 24 54  1  0
 25 55  1  0
 27 56  1  0
 27 57  1  0
 27 58  1  0
 29 59  1  0
 29 60  1  0
 30 61  1  0
 30 62  1  0
 31 63  1  0
 31 64  1  0
M  END
>  <smiles>  (4) 
CCC(=O)N(c1ccccc1)C1CCN(C(=O)[C@H](N)C2Cc3cccc(C)c3C2)CC1

>  <score_type>  (4) 
oracle

>  <origin>  (4) 
autodockgpu

>  <m_score__min__energy>  (4) 
-8.7400000000000002

>  <m_primary>  (4) 
energy

>  <rmsd>  (4) 
9.800444889191

>  <m_score__min__rmsd>  (4) 
9.800444889191

>  <meeko>  (4) 
{"free_energy": -8.65, "intermolecular_energy": -10.73, "internal_energy": -1.89, "cluster_size": 10, "cluster_id": 1, "rank_in_cluster": 2}

>  <energy>  (4) 
-8.56

>  <cluster_rmsd>  (4) 
0.62

>  <cluster>  (4) 
1

$$$$

     RDKit          3D

 64 67  0  0  0  0  0  0  0  0999 V2000
  142.4950   80.1040  223.5610 C   0  0  0  0  0  0  0  0  0  0  0  0
  141.8690   78.7540  223.7530 C   0  0  0  0  0  0  0  0  0  0  0  0
  140.4990   78.7090  223.1200 C   0  0  0  0  0  0  0  0  0  0  0  0
  139.5580   79.0580  223.8750 O   0  0  0  0  0  0  0  0  0  0  0  0
  140.3250   78.2970  221.7720 N   0  0  0  0  0  0  0  0  0  0  0  0
  140.8370   79.2150  220.7750 C   0  0  0  0  0  0  0  0  0  0  0  0
  140.4840   80.5440  220.7710 C   0  0  0  0  0  0  0  0  0  0  0  0
  141.0020   81.3560  219.8050 C   0  0  0  0  0  0  0  0  0  0  0  0
  141.8670   80.8230  218.8540 C   0  0  0  0  0  0  0  0  0  0  0  0
  142.2150   79.4890  218.8660 C   0  0  0  0  0  0  0  0  0  0  0  0
  141.6940   78.6660  219.8390 C   0  0  0  0  0  0  0  0  0  0  0  0
  139.6930   77.0580  221.3830 C   0  0  0  0  0  0  0  0  0  0  0  0
  140.6180   76.1180  220.7100 C   0  0  0  0  0  0  0  0  0  0  0  0
  140.9110   74.8410  221.4410 C   0  0  0  0  0  0  0  0  0  0  0  0
  139.6840   74.2400  221.8950 N   0  0  0  0  0  0  0  0  0  0  0  0
  139.5640   72.9010  222.3590 C   0  0  0  0  0  0  0  0  0  0  0  0
  138.4000   72.4730  222.7140 O   0  0  0  0  0  0  0  0  0  0  0  0
  140.6540   71.9340  222.4770 C   0  0  2  0  0  0  0  0  0  0  0  0
  140.7440   71.0120  221.3750 N   0  0  0  0  0  0  0  0  0  0  0  0
  140.6690   71.1390  223.7420 C   0  0  2  0  0  0  0  0  0  0  0  0
  139.6110   70.0640  223.8210 C   0  0  0  0  0  0  0  0  0  0  0  0
  139.8120   69.6360  225.2550 C   0  0  0  0  0  0  0  0  0  0  0  0
  139.5890   68.4180  225.8630 C   0  0  0  0  0  0  0  0  0  0  0  0
  139.8590   68.2850  227.2120 C   0  0  0  0  0  0  0  0  0  0  0  0
  140.3400   69.3730  227.9000 C   0  0  0  0  0  0  0  0  0  0  0  0
  140.5720   70.5980  227.3220 C   0  0  0  0  0  0  0  0  0  0  0  0
  141.0950   71.7470  228.1080 C   0  0  0  0  0  0  0  0  0  0  0  0
  140.3030   70.7330  225.9740 C   0  0  0  0  0  0  0  0  0  0  0  0
  140.4220   71.8860  225.0040 C   0  0  0  0  0  0  0  0  0  0  0  0
  138.4530   75.0540  221.9080 C   0  0  0  0  0  0  0  0  0  0  0  0
  138.8670   76.4320  222.4690 C   0  0  0  0  0  0  0  0  0  0  0  0
  142.7038   80.5543  224.5426 H   0  0  0  0  0  0  0  0  0  0  0  0
  143.4349   79.9959  222.9998 H   0  0  0  0  0  0  0  0  0  0  0  0
  141.8053   80.7515  222.9998 H   0  0  0  0  0  0  0  0  0  0  0  0
  142.5080   77.9895  223.2868 H   0  0  0  0  0  0  0  0  0  0  0  0
  141.7683   78.5597  224.8310 H   0  0  0  0  0  0  0  0  0  0  0  0
  139.7976   80.9444  221.5316 H   0  0  0  0  0  0  0  0  0  0  0  0
  140.7381   82.4235  219.7779 H   0  0  0  0  0  0  0  0  0  0  0  0
  142.2821   81.4803  218.0758 H   0  0  0  0  0  0  0  0  0  0  0  0
  142.9014   79.0866  218.1065 H   0  0  0  0  0  0  0  0  0  0  0  0
  141.9533   77.5975  219.8710 H   0  0  0  0  0  0  0  0  0  0  0  0
  138.9594   77.3359  220.6119 H   0  0  0  0  0  0  0  0  0  0  0  0
  140.1792   75.8545  219.7363 H   0  0  0  0  0  0  0  0  0  0  0  0
  141.5800   76.6474  220.6443 H   0  0  0  0  0  0  0  0  0  0  0  0
  141.4290   74.1450  220.7648 H   0  0  0  0  0  0  0  0  0  0  0  0
  141.5482   75.0610  222.3102 H   0  0  0  0  0  0  0  0  0  0  0  0
  141.5301   72.5992  222.4764 H   0  0  0  0  0  0  0  0  0  0  0  0
  139.7970   70.9370  220.9410 H   0  0  0  0  0  0  0  0  0  0  0  0
  141.4700   71.3150  220.6640 H   0  0  0  0  0  0  0  0  0  0  0  0
  141.6996   70.7597  223.6782 H   0  0  0  0  0  0  0  0  0  0  0  0
  138.6016   70.4658  223.6486 H   0  0  0  0  0  0  0  0  0  0  0  0
  139.6958   69.2622  223.0727 H   0  0  0  0  0  0  0  0  0  0  0  0
  139.2026   67.5665  225.2837 H   0  0  0  0  0  0  0  0  0  0  0  0
  139.6920   67.3265  227.7252 H   0  0  0  0  0  0  0  0  0  0  0  0
  140.5511   69.2569  228.9733 H   0  0  0  0  0  0  0  0  0  0  0  0
  140.9969   71.5314  229.1822 H   0  0  0  0  0  0  0  0  0  0  0  0
  142.1549   71.9077  227.8616 H   0  0  0  0  0  0  0  0  0  0  0  0
  140.5200   72.6518  227.8616 H   0  0  0  0  0  0  0  0  0  0  0  0
  139.4943   72.4750  224.9546 H   0  0  0  0  0  0  0  0  0  0  0  0
  141.1917   72.6289  225.2603 H   0  0  0  0  0  0  0  0  0  0  0  0
  138.0527   75.1597  220.8889 H   0  0  0  0  0  0  0  0  0  0  0  0
  137.6654   74.5880  222.5183 H   0  0  0  0  0  0  0  0  0  0  0  0
  137.9794   77.0456  222.6827 H   0  0  0  0  0  0  0  0  0  0  0  0
  139.4228   76.3446  223.4142 H   0  0  0  0  0  0  0  0  0  0  0  0
  1  2  1  0
  2  3  1  0
  3  4  2  0
  3  5  1  0
  5  6  1  0
  6  7  2  0
  7  8  1  0
  8  9  2  0
  9 10  1  0
 10 11  2  0
  5 12  1  0
 12 13  1  0
 13 14  1  0
 14 15  1  0
 15 16  1  0
 16 17  2  0
 16 18  1  0
 18 19  1  0
 18 20  1  0
 20 21  1  0
 21 22  1  0
 22 23  2  0
 23 24  1  0
 24 25  2  0
 25 26  1  0
 26 27  1  0
 26 28  2  0
 28 29  1  0
 15 30  1  0
 30 31  1  0
 11  6  1  0
 31 12  1  0
 29 20  1  0
 28 22  1  0
  1 32  1  0
  1 33  1  0
  1 34  1  0
  2 35  1  0
  2 36  1  0
  7 37  1  0
  8 38  1  0
  9 39  1  0
 10 40  1  0
 11 41  1  0
 12 42  1  0
 13 43  1  0
 13 44  1  0
 14 45  1  0
 14 46  1  0
 18 47  1  1
 19 48  1  0
 19 49  1  0
 20 50  1  1
 21 51  1  0
 21 52  1  0
 23 53  1  0
 24 54  1  0
 25 55  1  0
 27 56  1  0
 27 57  1  0
 27 58  1  0
 29 59  1  0
 29 60  1  0
 30 61  1  0
 30 62  1  0
 31 63  1  0
 31 64  1  0
M  END
>  <smiles>  (5) 
CCC(=O)N(c1ccccc1)C1CCN(C(=O)[C@H](N)C2Cc3cccc(C)c3C2)CC1

>  <score_type>  (5) 
oracle

>  <origin>  (5) 
autodockgpu

>  <m_score__min__energy>  (5) 
-8.7400000000000002

>  <m_primary>  (5) 
energy

>  <rmsd>  (5) 
8.916907123007352

>  <m_score__min__rmsd>  (5) 
8.916907123007352

>  <meeko>  (5) 
{"free_energy": -8.11, "intermolecular_energy": -10.19, "internal_energy": -1.51, "cluster_size": 16, "cluster_id": 2, "rank_in_cluster": 10}

>  <energy>  (5) 
-8.44

>  <cluster_rmsd>  (5) 
1.06

>  <cluster>  (5) 
1

$$$$

     RDKit          3D

 64 67  0  0  0  0  0  0  0  0999 V2000
  142.6120   77.7470  218.0170 C   0  0  0  0  0  0  0  0  0  0  0  0
  142.0960   78.1720  219.3600 C   0  0  0  0  0  0  0  0  0  0  0  0
  141.8510   76.9710  220.2400 C   0  0  0  0  0  0  0  0  0  0  0  0
  142.7300   76.0770  220.1690 O   0  0  0  0  0  0  0  0  0  0  0  0
  140.7020   76.8910  221.0720 N   0  0  0  0  0  0  0  0  0  0  0  0
  140.5800   77.9440  222.0590 C   0  0  0  0  0  0  0  0  0  0  0  0
  141.4580   78.0510  223.1110 C   0  0  0  0  0  0  0  0  0  0  0  0
  141.2890   79.0660  224.0060 C   0  0  0  0  0  0  0  0  0  0  0  0
  140.2370   79.9610  223.8340 C   0  0  0  0  0  0  0  0  0  0  0  0
  139.3610   79.8470  222.7760 C   0  0  0  0  0  0  0  0  0  0  0  0
  139.5280   78.8230  221.8710 C   0  0  0  0  0  0  0  0  0  0  0  0
  139.7020   75.8530  220.9680 C   0  0  0  0  0  0  0  0  0  0  0  0
  140.1920   74.6400  220.2740 C   0  0  0  0  0  0  0  0  0  0  0  0
  140.2850   73.3950  221.1060 C   0  0  0  0  0  0  0  0  0  0  0  0
  139.0640   73.2020  221.8440 N   0  0  0  0  0  0  0  0  0  0  0  0
  138.6970   71.9920  222.4950 C   0  0  0  0  0  0  0  0  0  0  0  0
  137.5610   71.9390  223.1020 O   0  0  0  0  0  0  0  0  0  0  0  0
  139.4970   70.7700  222.5480 C   0  0  2  0  0  0  0  0  0  0  0  0
  138.8570   69.6230  221.9570 N   0  0  0  0  0  0  0  0  0  0  0  0
  139.9760   70.3780  223.9070 C   0  0  2  0  0  0  0  0  0  0  0  0
  139.1770   69.2760  224.5620 C   0  0  0  0  0  0  0  0  0  0  0  0
  139.8130   69.3000  225.9300 C   0  0  0  0  0  0  0  0  0  0  0  0
  139.9700   68.2920  226.8610 C   0  0  0  0  0  0  0  0  0  0  0  0
  140.5980   68.5790  228.0570 C   0  0  0  0  0  0  0  0  0  0  0  0
  141.0470   69.8590  228.2780 C   0  0  0  0  0  0  0  0  0  0  0  0
  140.9050   70.8830  227.3710 C   0  0  0  0  0  0  0  0  0  0  0  0
  141.4080   72.2540  227.6550 C   0  0  0  0  0  0  0  0  0  0  0  0
  140.2770   70.5990  226.1750 C   0  0  0  0  0  0  0  0  0  0  0  0
  139.9400   71.4290  224.9580 C   0  0  0  0  0  0  0  0  0  0  0  0
  138.1180   74.3280  221.9650 C   0  0  0  0  0  0  0  0  0  0  0  0
  138.9830   75.5740  222.2560 C   0  0  0  0  0  0  0  0  0  0  0  0
  143.4548   77.0529  218.1509 H   0  0  0  0  0  0  0  0  0  0  0  0
  141.8088   77.2450  217.4577 H   0  0  0  0  0  0  0  0  0  0  0  0
  142.9508   78.6315  217.4577 H   0  0  0  0  0  0  0  0  0  0  0  0
  142.8371   78.8273  219.8410 H   0  0  0  0  0  0  0  0  0  0  0  0
  141.1461   78.7090  219.2209 H   0  0  0  0  0  0  0  0  0  0  0  0
  142.2816   77.3314  223.2288 H   0  0  0  0  0  0  0  0  0  0  0  0
  141.9780   79.1764  224.8563 H   0  0  0  0  0  0  0  0  0  0  0  0
  140.1017   80.7775  224.5586 H   0  0  0  0  0  0  0  0  0  0  0  0
  138.5375   80.5663  222.6560 H   0  0  0  0  0  0  0  0  0  0  0  0
  138.8418   78.7064  221.0192 H   0  0  0  0  0  0  0  0  0  0  0  0
  138.9236   76.2632  220.3079 H   0  0  0  0  0  0  0  0  0  0  0  0
  139.5100   74.4338  219.4359 H   0  0  0  0  0  0  0  0  0  0  0  0
  141.2240   74.8701  219.9706 H   0  0  0  0  0  0  0  0  0  0  0  0
  140.4536   72.5295  220.4484 H   0  0  0  0  0  0  0  0  0  0  0  0
  141.1216   73.4956  221.8131 H   0  0  0  0  0  0  0  0  0  0  0  0
  140.3701   71.0599  221.9449 H   0  0  0  0  0  0  0  0  0  0  0  0
  137.8250   69.7630  222.0200 H   0  0  0  0  0  0  0  0  0  0  0  0
  139.1650   69.4730  220.9520 H   0  0  0  0  0  0  0  0  0  0  0  0
  141.0040   70.0958  223.6359 H   0  0  0  0  0  0  0  0  0  0  0  0
  138.1037   69.5136  224.6025 H   0  0  0  0  0  0  0  0  0  0  0  0
  139.2025   68.3045  224.0468 H   0  0  0  0  0  0  0  0  0  0  0  0
  139.6008   67.2769  226.6532 H   0  0  0  0  0  0  0  0  0  0  0  0
  140.7363   67.7975  228.8187 H   0  0  0  0  0  0  0  0  0  0  0  0
  141.5476   70.0765  229.2331 H   0  0  0  0  0  0  0  0  0  0  0  0
  141.4638   72.4060  228.7430 H   0  0  0  0  0  0  0  0  0  0  0  0
  142.4093   72.3755  227.2160 H   0  0  0  0  0  0  0  0  0  0  0  0
  140.7229   72.9942  227.2160 H   0  0  0  0  0  0  0  0  0  0  0  0
  138.9441   71.8887  225.0410 H   0  0  0  0  0  0  0  0  0  0  0  0
  140.6104   72.2829  224.7808 H   0  0  0  0  0  0  0  0  0  0  0  0
  137.5582   74.4606  221.0274 H   0  0  0  0  0  0  0  0  0  0  0  0
  137.3793   74.1528  222.7610 H   0  0  0  0  0  0  0  0  0  0  0  0
  138.3495   76.4277  222.5386 H   0  0  0  0  0  0  0  0  0  0  0  0
  139.6788   75.4096  223.0920 H   0  0  0  0  0  0  0  0  0  0  0  0
  1  2  1  0
  2  3  1  0
  3  4  2  0
  3  5  1  0
  5  6  1  0
  6  7  2  0
  7  8  1  0
  8  9  2  0
  9 10  1  0
 10 11  2  0
  5 12  1  0
 12 13  1  0
 13 14  1  0
 14 15  1  0
 15 16  1  0
 16 17  2  0
 16 18  1  0
 18 19  1  0
 18 20  1  0
 20 21  1  0
 21 22  1  0
 22 23  2  0
 23 24  1  0
 24 25  2  0
 25 26  1  0
 26 27  1  0
 26 28  2  0
 28 29  1  0
 15 30  1  0
 30 31  1  0
 11  6  1  0
 31 12  1  0
 29 20  1  0
 28 22  1  0
  1 32  1  0
  1 33  1  0
  1 34  1  0
  2 35  1  0
  2 36  1  0
  7 37  1  0
  8 38  1  0
  9 39  1  0
 10 40  1  0
 11 41  1  0
 12 42  1  0
 13 43  1  0
 13 44  1  0
 14 45  1  0
 14 46  1  0
 18 47  1  6
 19 48  1  0
 19 49  1  0
 20 50  1  6
 21 51  1  0
 21 52  1  0
 23 53  1  0
 24 54  1  0
 25 55  1  0
 27 56  1  0
 27 57  1  0
 27 58  1  0
 29 59  1  0
 29 60  1  0
 30 61  1  0
 30 62  1  0
 31 63  1  0
 31 64  1  0
M  END
>  <smiles>  (6) 
CCC(=O)N(c1ccccc1)C1CCN(C(=O)[C@H](N)C2Cc3cccc(C)c3C2)CC1

>  <score_type>  (6) 
oracle

>  <origin>  (6) 
autodockgpu

>  <m_score__min__energy>  (6) 
-8.7400000000000002

>  <m_primary>  (6) 
energy

>  <rmsd>  (6) 
9.419397750483379

>  <m_score__min__rmsd>  (6) 
9.419397750483379

>  <meeko>  (6) 
{"free_energy": -8.13, "intermolecular_energy": -10.22, "internal_energy": -1.95, "cluster_size": 16, "cluster_id": 2, "rank_in_cluster": 9}

>  <energy>  (6) 
-8.44

>  <cluster_rmsd>  (6) 
1.05

>  <cluster>  (6) 
1

$$$$

     RDKit          3D

 64 67  0  0  0  0  0  0  0  0999 V2000
  146.6820   73.8320  216.3770 C   0  0  0  0  0  0  0  0  0  0  0  0
  145.4980   72.9440  216.6240 C   0  0  0  0  0  0  0  0  0  0  0  0
  145.3670   72.6280  218.0940 C   0  0  0  0  0  0  0  0  0  0  0  0
  146.3150   73.0380  218.8080 O   0  0  0  0  0  0  0  0  0  0  0  0
  144.2440   71.9180  218.5970 N   0  0  0  0  0  0  0  0  0  0  0  0
  144.4120   70.4830  218.6920 C   0  0  0  0  0  0  0  0  0  0  0  0
  144.7470   69.7230  217.5960 C   0  0  0  0  0  0  0  0  0  0  0  0
  144.8910   68.3750  217.7530 C   0  0  0  0  0  0  0  0  0  0  0  0
  144.6970   67.8080  219.0080 C   0  0  0  0  0  0  0  0  0  0  0  0
  144.3620   68.5780  220.1020 C   0  0  0  0  0  0  0  0  0  0  0  0
  144.2140   69.9380  219.9480 C   0  0  0  0  0  0  0  0  0  0  0  0
  143.0070   72.5480  219.0000 C   0  0  0  0  0  0  0  0  0  0  0  0
  141.8330   71.6530  218.8830 C   0  0  0  0  0  0  0  0  0  0  0  0
  141.1600   71.2750  220.1700 C   0  0  0  0  0  0  0  0  0  0  0  0
  140.9320   72.4500  220.9700 N   0  0  0  0  0  0  0  0  0  0  0  0
  140.0670   72.5020  222.0990 C   0  0  0  0  0  0  0  0  0  0  0  0
  139.9280   73.6250  222.7170 O   0  0  0  0  0  0  0  0  0  0  0  0
  139.3010   71.3830  222.6440 C   0  0  2  0  0  0  0  0  0  0  0  0
  137.9170   71.6880  222.8990 N   0  0  0  0  0  0  0  0  0  0  0  0
  139.8680   70.7610  223.8790 C   0  0  2  0  0  0  0  0  0  0  0  0
  139.2640   69.4260  224.2440 C   0  0  0  0  0  0  0  0  0  0  0  0
  139.9230   69.2260  225.5880 C   0  0  0  0  0  0  0  0  0  0  0  0
  140.2550   68.0650  226.2560 C   0  0  0  0  0  0  0  0  0  0  0  0
  140.8620   68.1560  227.4940 C   0  0  0  0  0  0  0  0  0  0  0  0
  141.1130   69.4020  228.0160 C   0  0  0  0  0  0  0  0  0  0  0  0
  140.7940   70.5760  227.3750 C   0  0  0  0  0  0  0  0  0  0  0  0
  141.0860   71.9020  227.9810 C   0  0  0  0  0  0  0  0  0  0  0  0
  140.1870   70.4870  226.1380 C   0  0  0  0  0  0  0  0  0  0  0  0
  139.6960   71.5180  225.1470 C   0  0  0  0  0  0  0  0  0  0  0  0
  141.6440   73.6950  220.6290 C   0  0  0  0  0  0  0  0  0  0  0  0
  143.0960   73.2750  220.3100 C   0  0  0  0  0  0  0  0  0  0  0  0
  147.1079   74.1514  217.3396 H   0  0  0  0  0  0  0  0  0  0  0  0
  147.4419   73.2793  215.8052 H   0  0  0  0  0  0  0  0  0  0  0  0
  146.3642   74.7163  215.8052 H   0  0  0  0  0  0  0  0  0  0  0  0
  144.5858   73.4545  216.2815 H   0  0  0  0  0  0  0  0  0  0  0  0
  145.6390   72.0037  216.0708 H   0  0  0  0  0  0  0  0  0  0  0  0
  144.8959   70.1922  216.6123 H   0  0  0  0  0  0  0  0  0  0  0  0
  145.1583   67.7421  216.8939 H   0  0  0  0  0  0  0  0  0  0  0  0
  144.8134   66.7211  219.1308 H   0  0  0  0  0  0  0  0  0  0  0  0
  144.2147   68.1106  221.0868 H   0  0  0  0  0  0  0  0  0  0  0  0
  143.9449   70.5758  220.8028 H   0  0  0  0  0  0  0  0  0  0  0  0
  142.8318   73.3445  218.2619 H   0  0  0  0  0  0  0  0  0  0  0  0
  141.0881   72.1569  218.2496 H   0  0  0  0  0  0  0  0  0  0  0  0
  142.2194   70.7121  218.4642 H   0  0  0  0  0  0  0  0  0  0  0  0
  140.1967   70.7921  219.9492 H   0  0  0  0  0  0  0  0  0  0  0  0
  141.8071   70.5801  220.7253 H   0  0  0  0  0  0  0  0  0  0  0  0
  139.3759   70.6533  221.8243 H   0  0  0  0  0  0  0  0  0  0  0  0
  137.8530   72.6970  223.1590 H   0  0  0  0  0  0  0  0  0  0  0  0
  137.3030   71.4660  222.0620 H   0  0  0  0  0  0  0  0  0  0  0  0
  140.9207   70.7125  223.5635 H   0  0  0  0  0  0  0  0  0  0  0  0
  138.1683   69.4779  224.3259 H   0  0  0  0  0  0  0  0  0  0  0  0
  139.4254   68.6191  223.5140 H   0  0  0  0  0  0  0  0  0  0  0  0
  140.0399   67.0827  225.8100 H   0  0  0  0  0  0  0  0  0  0  0  0
  141.1389   67.2486  228.0508 H   0  0  0  0  0  0  0  0  0  0  0  0
  141.5963   69.4638  229.0022 H   0  0  0  0  0  0  0  0  0  0  0  0
  141.0671   71.8162  229.0775 H   0  0  0  0  0  0  0  0  0  0  0  0
  142.0806   72.2422  227.6569 H   0  0  0  0  0  0  0  0  0  0  0  0
  140.3263   72.6285  227.6569 H   0  0  0  0  0  0  0  0  0  0  0  0
  138.6435   71.7848  225.3234 H   0  0  0  0  0  0  0  0  0  0  0  0
  140.2217   72.4835  225.1847 H   0  0  0  0  0  0  0  0  0  0  0  0
  141.1820   74.1728  219.7525 H   0  0  0  0  0  0  0  0  0  0  0  0
  141.6046   74.4228  221.4528 H   0  0  0  0  0  0  0  0  0  0  0  0
  143.7438   74.1593  220.2189 H   0  0  0  0  0  0  0  0  0  0  0  0
  143.5304   72.6488  221.1032 H   0  0  0  0  0  0  0  0  0  0  0  0
  1  2  1  0
  2  3  1  0
  3  4  2  0
  3  5  1  0
  5  6  1  0
  6  7  2  0
  7  8  1  0
  8  9  2  0
  9 10  1  0
 10 11  2  0
  5 12  1  0
 12 13  1  0
 13 14  1  0
 14 15  1  0
 15 16  1  0
 16 17  2  0
 16 18  1  0
 18 19  1  0
 18 20  1  0
 20 21  1  0
 21 22  1  0
 22 23  2  0
 23 24  1  0
 24 25  2  0
 25 26  1  0
 26 27  1  0
 26 28  2  0
 28 29  1  0
 15 30  1  0
 30 31  1  0
 11  6  1  0
 31 12  1  0
 29 20  1  0
 28 22  1  0
  1 32  1  0
  1 33  1  0
  1 34  1  0
  2 35  1  0
  2 36  1  0
  7 37  1  0
  8 38  1  0
  9 39  1  0
 10 40  1  0
 11 41  1  0
 12 42  1  0
 13 43  1  0
 13 44  1  0
 14 45  1  0
 14 46  1  0
 18 47  1  6
 19 48  1  0
 19 49  1  0
 20 50  1  6
 21 51  1  0
 21 52  1  0
 23 53  1  0
 24 54  1  0
 25 55  1  0
 27 56  1  0
 27 57  1  0
 27 58  1  0
 29 59  1  0
 29 60  1  0
 30 61  1  0
 30 62  1  0
 31 63  1  0
 31 64  1  0
M  END
>  <smiles>  (7) 
CCC(=O)N(c1ccccc1)C1CCN(C(=O)[C@H](N)C2Cc3cccc(C)c3C2)CC1

>  <score_type>  (7) 
oracle

>  <origin>  (7) 
autodockgpu

>  <m_score__min__energy>  (7) 
-8.7400000000000002

>  <m_primary>  (7) 
energy

>  <rmsd>  (7) 
9.525336310216186

>  <m_score__min__rmsd>  (7) 
9.525336310216186

>  <meeko>  (7) 
{"free_energy": -8.34, "intermolecular_energy": -10.43, "internal_energy": -2.04, "cluster_size": 10, "cluster_id": 1, "rank_in_cluster": 9}

>  <energy>  (7) 
-8.41

>  <cluster_rmsd>  (7) 
1.61

>  <cluster>  (7) 
1

$$$$

     RDKit          3D

 64 67  0  0  0  0  0  0  0  0999 V2000
  141.0850   68.1550  228.6550 C   0  0  0  0  0  0  0  0  0  0  0  0
  141.1660   67.7680  227.2070 C   0  0  0  0  0  0  0  0  0  0  0  0
  139.8560   68.0400  226.5100 C   0  0  0  0  0  0  0  0  0  0  0  0
  139.0570   67.0720  226.4910 O   0  0  0  0  0  0  0  0  0  0  0  0
  139.5820   69.3070  225.9290 N   0  0  0  0  0  0  0  0  0  0  0  0
  140.2030   70.4370  226.5900 C   0  0  0  0  0  0  0  0  0  0  0  0
  139.8020   70.8500  227.8380 C   0  0  0  0  0  0  0  0  0  0  0  0
  140.4280   71.9210  228.4060 C   0  0  0  0  0  0  0  0  0  0  0  0
  141.4480   72.5640  227.7120 C   0  0  0  0  0  0  0  0  0  0  0  0
  141.8440   72.1430  226.4610 C   0  0  0  0  0  0  0  0  0  0  0  0
  141.2140   71.0630  225.8840 C   0  0  0  0  0  0  0  0  0  0  0  0
  138.7530   69.4960  224.7600 C   0  0  0  0  0  0  0  0  0  0  0  0
  138.5810   70.9200  224.3920 C   0  0  0  0  0  0  0  0  0  0  0  0
  139.1810   71.3400  223.0820 C   0  0  0  0  0  0  0  0  0  0  0  0
  138.8060   70.4120  222.0480 N   0  0  0  0  0  0  0  0  0  0  0  0
  138.9500   70.6550  220.6530 C   0  0  0  0  0  0  0  0  0  0  0  0
  138.5500   69.7510  219.8250 O   0  0  0  0  0  0  0  0  0  0  0  0
  139.5190   71.8580  220.0480 C   0  0  2  0  0  0  0  0  0  0  0  0
  138.8720   72.2620  218.8260 N   0  0  0  0  0  0  0  0  0  0  0  0
  140.9900   71.8100  219.7940 C   0  0  2  0  0  0  0  0  0  0  0  0
  141.6120   70.4430  219.9530 C   0  0  0  0  0  0  0  0  0  0  0  0
  143.0660   70.8240  219.8170 C   0  0  0  0  0  0  0  0  0  0  0  0
  144.1420   70.0940  219.3540 C   0  0  0  0  0  0  0  0  0  0  0  0
  145.3910   70.6850  219.3300 C   0  0  0  0  0  0  0  0  0  0  0  0
  145.5160   71.9810  219.7680 C   0  0  0  0  0  0  0  0  0  0  0  0
  144.4640   72.7340  220.2350 C   0  0  0  0  0  0  0  0  0  0  0  0
  144.6500   74.1340  220.6990 C   0  0  0  0  0  0  0  0  0  0  0  0
  143.2160   72.1450  220.2590 C   0  0  0  0  0  0  0  0  0  0  0  0
  141.8490   72.6290  220.6900 C   0  0  0  0  0  0  0  0  0  0  0  0
  138.2490   69.1010  222.4330 C   0  0  0  0  0  0  0  0  0  0  0  0
  139.1180   68.6040  223.6090 C   0  0  0  0  0  0  0  0  0  0  0  0
  141.2702   67.2703  229.2819 H   0  0  0  0  0  0  0  0  0  0  0  0
  141.8418   68.9231  228.8721 H   0  0  0  0  0  0  0  0  0  0  0  0
  140.0837   68.5552  228.8721 H   0  0  0  0  0  0  0  0  0  0  0  0
  141.9619   68.3514  226.7210 H   0  0  0  0  0  0  0  0  0  0  0  0
  141.3867   66.6925  227.1395 H   0  0  0  0  0  0  0  0  0  0  0  0
  138.9924   70.3274  228.3684 H   0  0  0  0  0  0  0  0  0  0  0  0
  140.1287   72.2731  229.4042 H   0  0  0  0  0  0  0  0  0  0  0  0
  141.9497   73.4280  228.1722 H   0  0  0  0  0  0  0  0  0  0  0  0
  142.6541   72.6637  225.9294 H   0  0  0  0  0  0  0  0  0  0  0  0
  141.5078   70.7068  224.8856 H   0  0  0  0  0  0  0  0  0  0  0  0
  137.7493   69.1568  225.0559 H   0  0  0  0  0  0  0  0  0  0  0  0
  137.5017   71.1283  224.3496 H   0  0  0  0  0  0  0  0  0  0  0  0
  139.1209   71.4915  225.1613 H   0  0  0  0  0  0  0  0  0  0  0  0
  138.8164   72.3442  222.8198 H   0  0  0  0  0  0  0  0  0  0  0  0
  140.2770   71.3531  223.1749 H   0  0  0  0  0  0  0  0  0  0  0  0
  139.3287   72.6044  220.8333 H   0  0  0  0  0  0  0  0  0  0  0  0
  138.3980   71.4240  218.4210 H   0  0  0  0  0  0  0  0  0  0  0  0
  138.1850   73.0540  218.9860 H   0  0  0  0  0  0  0  0  0  0  0  0
  140.9846   72.1891  218.7614 H   0  0  0  0  0  0  0  0  0  0  0  0
  141.3920   70.0022  220.9365 H   0  0  0  0  0  0  0  0  0  0  0  0
  141.2567   69.6781  219.2469 H   0  0  0  0  0  0  0  0  0  0  0  0
  144.0075   69.0580  219.0095 H   0  0  0  0  0  0  0  0  0  0  0  0
  146.2678   70.1286  218.9673 H   0  0  0  0  0  0  0  0  0  0  0  0
  146.5141   72.4428  219.7439 H   0  0  0  0  0  0  0  0  0  0  0  0
  144.6532   74.1584  221.7987 H   0  0  0  0  0  0  0  0  0  0  0  0
  145.6075   74.5215  220.3208 H   0  0  0  0  0  0  0  0  0  0  0  0
  143.8269   74.7580  220.3208 H   0  0  0  0  0  0  0  0  0  0  0  0
  141.6552   72.4126  221.7510 H   0  0  0  0  0  0  0  0  0  0  0  0
  141.6965   73.7155  220.6115 H   0  0  0  0  0  0  0  0  0  0  0  0
  137.2010   69.2080  222.7495 H   0  0  0  0  0  0  0  0  0  0  0  0
  138.2624   68.3924  221.5917 H   0  0  0  0  0  0  0  0  0  0  0  0
  138.8879   67.5544  223.8442 H   0  0  0  0  0  0  0  0  0  0  0  0
  140.1925   68.6445  223.3771 H   0  0  0  0  0  0  0  0  0  0  0  0
  1  2  1  0
  2  3  1  0
  3  4  2  0
  3  5  1  0
  5  6  1  0
  6  7  2  0
  7  8  1  0
  8  9  2  0
  9 10  1  0
 10 11  2  0
  5 12  1  0
 12 13  1  0
 13 14  1  0
 14 15  1  0
 15 16  1  0
 16 17  2  0
 16 18  1  0
 18 19  1  0
 18 20  1  0
 20 21  1  0
 21 22  1  0
 22 23  2  0
 23 24  1  0
 24 25  2  0
 25 26  1  0
 26 27  1  0
 26 28  2  0
 28 29  1  0
 15 30  1  0
 30 31  1  0
 11  6  1  0
 31 12  1  0
 29 20  1  0
 28 22  1  0
  1 32  1  0
  1 33  1  0
  1 34  1  0
  2 35  1  0
  2 36  1  0
  7 37  1  0
  8 38  1  0
  9 39  1  0
 10 40  1  0
 11 41  1  0
 12 42  1  0
 13 43  1  0
 13 44  1  0
 14 45  1  0
 14 46  1  0
 18 47  1  1
 19 48  1  0
 19 49  1  0
 20 50  1  6
 21 51  1  0
 21 52  1  0
 23 53  1  0
 24 54  1  0
 25 55  1  0
 27 56  1  0
 27 57  1  0
 27 58  1  0
 29 59  1  0
 29 60  1  0
 30 61  1  0
 30 62  1  0
 31 63  1  0
 31 64  1  0
M  END
>  <smiles>  (8) 
CCC(=O)N(c1ccccc1)C1CCN(C(=O)[C@H](N)C2Cc3cccc(C)c3C2)CC1

>  <score_type>  (8) 
oracle

>  <origin>  (8) 
autodockgpu

>  <m_score__min__energy>  (8) 
-8.7400000000000002

>  <m_primary>  (8) 
energy

>  <rmsd>  (8) 
10.214729298099712

>  <m_score__min__rmsd>  (8) 
10.214729298099712

>  <meeko>  (8) 
{"free_energy": -7.63, "intermolecular_energy": -9.71, "internal_energy": -2.31, "cluster_size": 3, "cluster_id": 6, "rank_in_cluster": 3}

>  <energy>  (8) 
-8.35

>  <cluster_rmsd>  (8) 
0.9

>  <cluster>  (8) 
1

$$$$

     RDKit          3D

 64 67  0  0  0  0  0  0  0  0999 V2000
  142.2830   78.9750  218.6630 C   0  0  0  0  0  0  0  0  0  0  0  0
  142.1820   77.4910  218.4620 C   0  0  0  0  0  0  0  0  0  0  0  0
  142.1470   76.7760  219.7910 C   0  0  0  0  0  0  0  0  0  0  0  0
  143.2150   76.1940  220.1050 O   0  0  0  0  0  0  0  0  0  0  0  0
  140.9780   76.7800  220.5980 N   0  0  0  0  0  0  0  0  0  0  0  0
  140.9220   77.8270  221.5980 C   0  0  0  0  0  0  0  0  0  0  0  0
  141.4590   77.6550  222.8510 C   0  0  0  0  0  0  0  0  0  0  0  0
  141.3740   78.6800  223.7470 C   0  0  0  0  0  0  0  0  0  0  0  0
  140.7490   79.8650  223.3720 C   0  0  0  0  0  0  0  0  0  0  0  0
  140.2130   80.0290  222.1130 C   0  0  0  0  0  0  0  0  0  0  0  0
  140.2970   78.9970  221.2060 C   0  0  0  0  0  0  0  0  0  0  0  0
  139.8990   75.8300  220.4580 C   0  0  0  0  0  0  0  0  0  0  0  0
  140.3600   74.4790  220.0660 C   0  0  0  0  0  0  0  0  0  0  0  0
  140.1550   73.3910  221.0800 C   0  0  0  0  0  0  0  0  0  0  0  0
  138.8070   73.4340  221.5840 N   0  0  0  0  0  0  0  0  0  0  0  0
  138.1890   72.3890  222.3270 C   0  0  0  0  0  0  0  0  0  0  0  0
  136.9640   72.5400  222.7000 O   0  0  0  0  0  0  0  0  0  0  0  0
  138.8180   71.1300  222.7210 C   0  0  2  0  0  0  0  0  0  0  0  0
  138.0230   69.9630  222.4390 N   0  0  0  0  0  0  0  0  0  0  0  0
  139.2560   71.0530  224.1470 C   0  0  2  0  0  0  0  0  0  0  0  0
  140.4650   71.8950  224.4800 C   0  0  0  0  0  0  0  0  0  0  0  0
  140.7060   71.4190  225.8920 C   0  0  0  0  0  0  0  0  0  0  0  0
  141.2770   72.0680  226.9680 C   0  0  0  0  0  0  0  0  0  0  0  0
  141.3810   71.3990  228.1730 C   0  0  0  0  0  0  0  0  0  0  0  0
  140.9120   70.1110  228.2560 C   0  0  0  0  0  0  0  0  0  0  0  0
  140.3390   69.4380  227.2020 C   0  0  0  0  0  0  0  0  0  0  0  0
  139.8450   68.0420  227.3420 C   0  0  0  0  0  0  0  0  0  0  0  0
  140.2340   70.1040  225.9980 C   0  0  0  0  0  0  0  0  0  0  0  0
  139.6830   69.7180  224.6440 C   0  0  0  0  0  0  0  0  0  0  0  0
  137.9930   74.6410  221.3440 C   0  0  0  0  0  0  0  0  0  0  0  0
  138.9320   75.8390  221.6070 C   0  0  0  0  0  0  0  0  0  0  0  0
  142.2982   79.1990  219.7398 H   0  0  0  0  0  0  0  0  0  0  0  0
  143.2085   79.3458  218.1982 H   0  0  0  0  0  0  0  0  0  0  0  0
  141.4163   79.4678  218.1982 H   0  0  0  0  0  0  0  0  0  0  0  0
  141.2613   77.2635  217.9047 H   0  0  0  0  0  0  0  0  0  0  0  0
  143.0624   77.1488  217.8983 H   0  0  0  0  0  0  0  0  0  0  0  0
  141.9480   76.7089  223.1263 H   0  0  0  0  0  0  0  0  0  0  0  0
  141.7958   78.5706  224.7570 H   0  0  0  0  0  0  0  0  0  0  0  0
  140.6811   80.6897  224.0968 H   0  0  0  0  0  0  0  0  0  0  0  0
  139.7234   80.9743  221.8360 H   0  0  0  0  0  0  0  0  0  0  0  0
  139.8774   79.1002  220.1944 H   0  0  0  0  0  0  0  0  0  0  0  0
  139.3056   76.1864  219.6031 H   0  0  0  0  0  0  0  0  0  0  0  0
  139.8204   74.1920  219.1514 H   0  0  0  0  0  0  0  0  0  0  0  0
  141.4494   74.5637  219.9397 H   0  0  0  0  0  0  0  0  0  0  0  0
  140.3361   72.4142  220.6077 H   0  0  0  0  0  0  0  0  0  0  0  0
  140.8568   73.5384  221.9141 H   0  0  0  0  0  0  0  0  0  0  0  0
  139.7150   71.1307  222.0843 H   0  0  0  0  0  0  0  0  0  0  0  0
  137.0240   70.2620  222.3820 H   0  0  0  0  0  0  0  0  0  0  0  0
  138.3330   69.4800  221.5470 H   0  0  0  0  0  0  0  0  0  0  0  0
  138.3215   71.3927  224.6176 H   0  0  0  0  0  0  0  0  0  0  0  0
  141.3162   71.6732  223.8195 H   0  0  0  0  0  0  0  0  0  0  0  0
  140.3306   72.9806  224.3643 H   0  0  0  0  0  0  0  0  0  0  0  0
  141.6432   73.1004  226.8682 H   0  0  0  0  0  0  0  0  0  0  0  0
  141.8310   71.8891  229.0490 H   0  0  0  0  0  0  0  0  0  0  0  0
  140.9995   69.5879  229.2197 H   0  0  0  0  0  0  0  0  0  0  0  0
  139.7558   67.7899  228.4090 H   0  0  0  0  0  0  0  0  0  0  0  0
  138.8602   67.9515  226.8603 H   0  0  0  0  0  0  0  0  0  0  0  0
  140.5536   67.3522  226.8603 H   0  0  0  0  0  0  0  0  0  0  0  0
  140.4559   69.2715  224.0012 H   0  0  0  0  0  0  0  0  0  0  0  0
  138.8888   68.9573  224.6674 H   0  0  0  0  0  0  0  0  0  0  0  0
  137.6306   74.6587  220.3055 H   0  0  0  0  0  0  0  0  0  0  0  0
  137.1074   74.6691  221.9959 H   0  0  0  0  0  0  0  0  0  0  0  0
  138.3628   76.7801  221.6267 H   0  0  0  0  0  0  0  0  0  0  0  0
  139.4418   75.7606  222.5786 H   0  0  0  0  0  0  0  0  0  0  0  0
  1  2  1  0
  2  3  1  0
  3  4  2  0
  3  5  1  0
  5  6  1  0
  6  7  2  0
  7  8  1  0
  8  9  2  0
  9 10  1  0
 10 11  2  0
  5 12  1  0
 12 13  1  0
 13 14  1  0
 14 15  1  0
 15 16  1  0
 16 17  2  0
 16 18  1  0
 18 19  1  0
 18 20  1  0
 20 21  1  0
 21 22  1  0
 22 23  2  0
 23 24  1  0
 24 25  2  0
 25 26  1  0
 26 27  1  0
 26 28  2  0
 28 29  1  0
 15 30  1  0
 30 31  1  0
 11  6  1  0
 31 12  1  0
 29 20  1  0
 28 22  1  0
  1 32  1  0
  1 33  1  0
  1 34  1  0
  2 35  1  0
  2 36  1  0
  7 37  1  0
  8 38  1  0
  9 39  1  0
 10 40  1  0
 11 41  1  0
 12 42  1  0
 13 43  1  0
 13 44  1  0
 14 45  1  0
 14 46  1  0
 18 47  1  6
 19 48  1  0
 19 49  1  0
 20 50  1  1
 21 51  1  0
 21 52  1  0
 23 53  1  0
 24 54  1  0
 25 55  1  0
 27 56  1  0
 27 57  1  0
 27 58  1  0
 29 59  1  0
 29 60  1  0
 30 61  1  0
 30 62  1  0
 31 63  1  0
 31 64  1  0
M  END
>  <smiles>  (9) 
CCC(=O)N(c1ccccc1)C1CCN(C(=O)[C@H](N)C2Cc3cccc(C)c3C2)CC1

>  <score_type>  (9) 
oracle

>  <origin>  (9) 
autodockgpu

>  <m_score__min__energy>  (9) 
-8.7400000000000002

>  <m_primary>  (9) 
energy

>  <rmsd>  (9) 
8.065084938582988

>  <m_score__min__rmsd>  (9) 
8.065084938582988

>  <meeko>  (9) 
{"free_energy": -7.62, "intermolecular_energy": -9.71, "internal_energy": -2.16, "cluster_size": 6, "cluster_id": 4, "rank_in_cluster": 6}

>  <energy>  (9) 
-8.34

>  <cluster_rmsd>  (9) 
1.11

>  <cluster>  (9) 
1

$$$$

     RDKit          3D

 64 67  0  0  0  0  0  0  0  0999 V2000
  145.3680   73.1960  217.0510 C   0  0  0  0  0  0  0  0  0  0  0  0
  145.7450   73.3790  218.4920 C   0  0  0  0  0  0  0  0  0  0  0  0
  145.5220   72.1030  219.2660 C   0  0  0  0  0  0  0  0  0  0  0  0
  146.4930   71.7380  219.9750 O   0  0  0  0  0  0  0  0  0  0  0  0
  144.2950   71.3930  219.1760 N   0  0  0  0  0  0  0  0  0  0  0  0
  144.4190   69.9810  218.8790 C   0  0  0  0  0  0  0  0  0  0  0  0
  144.5260   69.5220  217.5880 C   0  0  0  0  0  0  0  0  0  0  0  0
  144.6410   68.1790  217.3760 C   0  0  0  0  0  0  0  0  0  0  0  0
  144.6460   67.3140  218.4650 C   0  0  0  0  0  0  0  0  0  0  0  0
  144.5390   67.7820  219.7570 C   0  0  0  0  0  0  0  0  0  0  0  0
  144.4220   69.1360  219.9750 C   0  0  0  0  0  0  0  0  0  0  0  0
  142.9970   71.9990  219.3640 C   0  0  0  0  0  0  0  0  0  0  0  0
  141.8850   71.0230  219.3140 C   0  0  0  0  0  0  0  0  0  0  0  0
  141.1210   70.8260  220.5900 C   0  0  0  0  0  0  0  0  0  0  0  0
  140.7630   72.1020  221.1530 N   0  0  0  0  0  0  0  0  0  0  0  0
  139.8010   72.2890  222.1840 C   0  0  0  0  0  0  0  0  0  0  0  0
  139.5510   73.4890  222.5830 O   0  0  0  0  0  0  0  0  0  0  0  0
  139.0480   71.2310  222.8550 C   0  0  2  0  0  0  0  0  0  0  0  0
  137.7080   71.6090  223.2270 N   0  0  0  0  0  0  0  0  0  0  0  0
  139.7080   70.6410  224.0580 C   0  0  2  0  0  0  0  0  0  0  0  0
  139.1770   69.2860  224.4650 C   0  0  0  0  0  0  0  0  0  0  0  0
  139.9180   69.1220  225.7690 C   0  0  0  0  0  0  0  0  0  0  0  0
  140.3330   67.9790  226.4240 C   0  0  0  0  0  0  0  0  0  0  0  0
  141.0050   68.1030  227.6240 C   0  0  0  0  0  0  0  0  0  0  0  0
  141.2390   69.3620  228.1240 C   0  0  0  0  0  0  0  0  0  0  0  0
  140.8390   70.5170  227.4960 C   0  0  0  0  0  0  0  0  0  0  0  0
  141.1150   71.8580  228.0770 C   0  0  0  0  0  0  0  0  0  0  0  0
  140.1660   70.3960  226.2970 C   0  0  0  0  0  0  0  0  0  0  0  0
  139.5800   71.4000  225.3300 C   0  0  0  0  0  0  0  0  0  0  0  0
  141.4390   73.3160  220.6560 C   0  0  0  0  0  0  0  0  0  0  0  0
  142.9330   72.9430  220.5300 C   0  0  0  0  0  0  0  0  0  0  0  0
  144.3800   72.7164  216.9885 H   0  0  0  0  0  0  0  0  0  0  0  0
  145.3316   74.1767  216.5541 H   0  0  0  0  0  0  0  0  0  0  0  0
  146.1160   72.5607  216.5541 H   0  0  0  0  0  0  0  0  0  0  0  0
  146.8069   73.6590  218.5550 H   0  0  0  0  0  0  0  0  0  0  0  0
  145.1161   74.1707  218.9251 H   0  0  0  0  0  0  0  0  0  0  0  0
  144.5191   70.2242  216.7414 H   0  0  0  0  0  0  0  0  0  0  0  0
  144.7290   67.7841  216.3531 H   0  0  0  0  0  0  0  0  0  0  0  0
  144.7374   66.2317  218.2912 H   0  0  0  0  0  0  0  0  0  0  0  0
  144.5470   67.0810  220.6047 H   0  0  0  0  0  0  0  0  0  0  0  0
  144.3330   69.5367  220.9956 H   0  0  0  0  0  0  0  0  0  0  0  0
  142.8470   72.6442  218.4858 H   0  0  0  0  0  0  0  0  0  0  0  0
  141.1744   71.3624  218.5460 H   0  0  0  0  0  0  0  0  0  0  0  0
  142.3542   70.0518  219.0979 H   0  0  0  0  0  0  0  0  0  0  0  0
  140.2069   70.2505  220.3819 H   0  0  0  0  0  0  0  0  0  0  0  0
  141.7514   70.2796  221.3070 H   0  0  0  0  0  0  0  0  0  0  0  0
  139.0126   70.4624  222.0689 H   0  0  0  0  0  0  0  0  0  0  0  0
  137.7120   72.6300  223.4450 H   0  0  0  0  0  0  0  0  0  0  0  0
  137.0070   71.3810  222.4630 H   0  0  0  0  0  0  0  0  0  0  0  0
  140.7418   70.6306  223.6824 H   0  0  0  0  0  0  0  0  0  0  0  0
  138.0865   69.2970  224.6092 H   0  0  0  0  0  0  0  0  0  0  0  0
  139.3273   68.4800  223.7317 H   0  0  0  0  0  0  0  0  0  0  0  0
  140.1314   66.9857  225.9966 H   0  0  0  0  0  0  0  0  0  0  0  0
  141.3467   67.2110  228.1696 H   0  0  0  0  0  0  0  0  0  0  0  0
  141.7763   69.4497  229.0798 H   0  0  0  0  0  0  0  0  0  0  0  0
  141.1014   71.7918  229.1749 H   0  0  0  0  0  0  0  0  0  0  0  0
  142.1036   72.2060  227.7429 H   0  0  0  0  0  0  0  0  0  0  0  0
  140.3442   72.5681  227.7429 H   0  0  0  0  0  0  0  0  0  0  0  0
  138.5299   71.6279  225.5651 H   0  0  0  0  0  0  0  0  0  0  0  0
  140.0698   72.3849  225.3323 H   0  0  0  0  0  0  0  0  0  0  0  0
  141.0327   73.6069  219.6761 H   0  0  0  0  0  0  0  0  0  0  0  0
  141.2901   74.1692  221.3342 H   0  0  0  0  0  0  0  0  0  0  0  0
  143.5409   73.8391  220.3366 H   0  0  0  0  0  0  0  0  0  0  0  0
  143.3266   72.4904  221.4521 H   0  0  0  0  0  0  0  0  0  0  0  0
  1  2  1  0
  2  3  1  0
  3  4  2  0
  3  5  1  0
  5  6  1  0
  6  7  2  0
  7  8  1  0
  8  9  2  0
  9 10  1  0
 10 11  2  0
  5 12  1  0
 12 13  1  0
 13 14  1  0
 14 15  1  0
 15 16  1  0
 16 17  2  0
 16 18  1  0
 18 19  1  0
 18 20  1  0
 20 21  1  0
 21 22  1  0
 22 23  2  0
 23 24  1  0
 24 25  2  0
 25 26  1  0
 26 27  1  0
 26 28  2  0
 28 29  1  0
 15 30  1  0
 30 31  1  0
 11  6  1  0
 31 12  1  0
 29 20  1  0
 28 22  1  0
  1 32  1  0
  1 33  1  0
  1 34  1  0
  2 35  1  0
  2 36  1  0
  7 37  1  0
  8 38  1  0
  9 39  1  0
 10 40  1  0
 11 41  1  0
 12 42  1  0
 13 43  1  0
 13 44  1  0
 14 45  1  0
 14 46  1  0
 18 47  1  6
 19 48  1  0
 19 49  1  0
 20 50  1  6
 21 51  1  0
 21 52  1  0
 23 53  1  0
 24 54  1  0
 25 55  1  0
 27 56  1  0
 27 57  1  0
 27 58  1  0
 29 59  1  0
 29 60  1  0
 30 61  1  0
 30 62  1  0
 31 63  1  0
 31 64  1  0
M  END
>  <smiles>  (10) 
CCC(=O)N(c1ccccc1)C1CCN(C(=O)[C@H](N)C2Cc3cccc(C)c3C2)CC1

>  <score_type>  (10) 
oracle

>  <origin>  (10) 
autodockgpu

>  <m_score__min__energy>  (10) 
-8.7400000000000002

>  <m_primary>  (10) 
energy

>  <rmsd>  (10) 
9.768370264608839

>  <m_score__min__rmsd>  (10) 
9.768370264608839

>  <meeko>  (10) 
{"free_energy": -7.78, "intermolecular_energy": -9.87, "internal_energy": -2.28, "cluster_size": 10, "cluster_id": 1, "rank_in_cluster": 10}

>  <energy>  (10) 
-7.78

>  <cluster_rmsd>  (10) 
1.11

>  <cluster>  (10) 
1

$$$$

     RDKit          3D

 64 67  0  0  0  0  0  0  0  0999 V2000
  142.5030   80.5450  223.0670 C   0  0  0  0  0  0  0  0  0  0  0  0
  142.0720   79.4300  222.1590 C   0  0  0  0  0  0  0  0  0  0  0  0
  141.2270   78.4300  222.9100 C   0  0  0  0  0  0  0  0  0  0  0  0
  141.8220   77.8240  223.8350 O   0  0  0  0  0  0  0  0  0  0  0  0
  139.8650   78.2150  222.5670 N   0  0  0  0  0  0  0  0  0  0  0  0
  138.9570   79.2750  222.9540 C   0  0  0  0  0  0  0  0  0  0  0  0
  139.0850   79.9320  224.1550 C   0  0  0  0  0  0  0  0  0  0  0  0
  138.1970   80.9220  224.4580 C   0  0  0  0  0  0  0  0  0  0  0  0
  137.1900   81.2390  223.5520 C   0  0  0  0  0  0  0  0  0  0  0  0
  137.0690   80.5760  222.3500 C   0  0  0  0  0  0  0  0  0  0  0  0
  137.9630   79.5750  222.0400 C   0  0  0  0  0  0  0  0  0  0  0  0
  139.3820   77.0400  221.8800 C   0  0  0  0  0  0  0  0  0  0  0  0
  140.4580   76.2730  221.2120 C   0  0  0  0  0  0  0  0  0  0  0  0
  140.7240   74.8990  221.7540 C   0  0  0  0  0  0  0  0  0  0  0  0
  139.4860   74.1780  221.9010 N   0  0  0  0  0  0  0  0  0  0  0  0
  139.3890   72.7740  222.1060 C   0  0  0  0  0  0  0  0  0  0  0  0
  138.2170   72.2440  222.1950 O   0  0  0  0  0  0  0  0  0  0  0  0
  140.5120   71.8460  222.2300 C   0  0  2  0  0  0  0  0  0  0  0  0
  140.6070   70.8920  221.1550 N   0  0  0  0  0  0  0  0  0  0  0  0
  140.5800   71.0930  223.5180 C   0  0  2  0  0  0  0  0  0  0  0  0
  139.5650   69.9830  223.6520 C   0  0  0  0  0  0  0  0  0  0  0  0
  139.8080   69.6100  225.0940 C   0  0  0  0  0  0  0  0  0  0  0  0
  139.6430   68.4040  225.7450 C   0  0  0  0  0  0  0  0  0  0  0  0
  139.9420   68.3240  227.0920 C   0  0  0  0  0  0  0  0  0  0  0  0
  140.3960   69.4500  227.7350 C   0  0  0  0  0  0  0  0  0  0  0  0
  140.5700   70.6650  227.1150 C   0  0  0  0  0  0  0  0  0  0  0  0
  141.0640   71.8570  227.8540 C   0  0  0  0  0  0  0  0  0  0  0  0
  140.2710   70.7460  225.7690 C   0  0  0  0  0  0  0  0  0  0  0  0
  140.3290   71.8710  224.7610 C   0  0  0  0  0  0  0  0  0  0  0  0
  138.2150   74.9260  221.8570 C   0  0  0  0  0  0  0  0  0  0  0  0
  138.4480   76.1990  222.7010 C   0  0  0  0  0  0  0  0  0  0  0  0
  142.3821   80.2322  224.1146 H   0  0  0  0  0  0  0  0  0  0  0  0
  143.5591   80.7861  222.8759 H   0  0  0  0  0  0  0  0  0  0  0  0
  141.8836   81.4337  222.8759 H   0  0  0  0  0  0  0  0  0  0  0  0
  141.4850   79.8473  221.3275 H   0  0  0  0  0  0  0  0  0  0  0  0
  142.9673   78.9198  221.7742 H   0  0  0  0  0  0  0  0  0  0  0  0
  139.8879   79.6645  224.8578 H   0  0  0  0  0  0  0  0  0  0  0  0
  138.2765   81.4654  225.4111 H   0  0  0  0  0  0  0  0  0  0  0  0
  136.4745   82.0366  223.8006 H   0  0  0  0  0  0  0  0  0  0  0  0
  136.2673   80.8432  221.6458 H   0  0  0  0  0  0  0  0  0  0  0  0
  137.8883   79.0275  221.0888 H   0  0  0  0  0  0  0  0  0  0  0  0
  138.7529   77.4193  221.0612 H   0  0  0  0  0  0  0  0  0  0  0  0
  140.1875   76.1691  220.1509 H   0  0  0  0  0  0  0  0  0  0  0  0
  141.3813   76.8441  221.3889 H   0  0  0  0  0  0  0  0  0  0  0  0
  141.3819   74.3551  221.0602 H   0  0  0  0  0  0  0  0  0  0  0  0
  141.2090   74.9870  222.7374 H   0  0  0  0  0  0  0  0  0  0  0  0
  141.3662   72.5378  222.1893 H   0  0  0  0  0  0  0  0  0  0  0  0
  139.6400   70.6960  220.8140 H   0  0  0  0  0  0  0  0  0  0  0  0
  141.2290   71.2420  220.3700 H   0  0  0  0  0  0  0  0  0  0  0  0
  141.6225   70.7495  223.4453 H   0  0  0  0  0  0  0  0  0  0  0  0
  138.5383   70.3414  223.4865 H   0  0  0  0  0  0  0  0  0  0  0  0
  139.6663   69.1609  222.9282 H   0  0  0  0  0  0  0  0  0  0  0  0
  139.2792   67.5204  225.2002 H   0  0  0  0  0  0  0  0  0  0  0  0
  139.8189   67.3773  227.6385 H   0  0  0  0  0  0  0  0  0  0  0  0
  140.6337   69.3754  228.8064 H   0  0  0  0  0  0  0  0  0  0  0  0
  140.9885   71.6748  228.9362 H   0  0  0  0  0  0  0  0  0  0  0  0
  142.1142   72.0452  227.5863 H   0  0  0  0  0  0  0  0  0  0  0  0
  140.4548   72.7329  227.5863 H   0  0  0  0  0  0  0  0  0  0  0  0
  139.3793   72.4239  224.7115 H   0  0  0  0  0  0  0  0  0  0  0  0
  141.0752   72.6494  224.9785 H   0  0  0  0  0  0  0  0  0  0  0  0
  137.9638   75.1942  220.8202 H   0  0  0  0  0  0  0  0  0  0  0  0
  137.3788   74.3278  222.2479 H   0  0  0  0  0  0  0  0  0  0  0  0
  137.4994   76.7288  222.8725 H   0  0  0  0  0  0  0  0  0  0  0  0
  138.8621   75.9682  223.6936 H   0  0  0  0  0  0  0  0  0  0  0  0
  1  2  1  0
  2  3  1  0
  3  4  2  0
  3  5  1  0
  5  6  1  0
  6  7  2  0
  7  8  1  0
  8  9  2  0
  9 10  1  0
 10 11  2  0
  5 12  1  0
 12 13  1  0
 13 14  1  0
 14 15  1  0
 15 16  1  0
 16 17  2  0
 16 18  1  0
 18 19  1  0
 18 20  1  0
 20 21  1  0
 21 22  1  0
 22 23  2  0
 23 24  1  0
 24 25  2  0
 25 26  1  0
 26 27  1  0
 26 28  2  0
 28 29  1  0
 15 30  1  0
 30 31  1  0
 11  6  1  0
 31 12  1  0
 29 20  1  0
 28 22  1  0
  1 32  1  0
  1 33  1  0
  1 34  1  0
  2 35  1  0
  2 36  1  0
  7 37  1  0
  8 38  1  0
  9 39  1  0
 10 40  1  0
 11 41  1  0
 12 42  1  0
 13 43  1  0
 13 44  1  0
 14 45  1  0
 14 46  1  0
 18 47  1  1
 19 48  1  0
 19 49  1  0
 20 50  1  1
 21 51  1  0
 21 52  1  0
 23 53  1  0
 24 54  1  0
 25 55  1  0
 27 56  1  0
 27 57  1  0
 27 58  1  0
 29 59  1  0
 29 60  1  0
 30 61  1  0
 30 62  1  0
 31 63  1  0
 31 64  1  0
M  END
>  <smiles>  (11) 
CCC(=O)N(c1ccccc1)C1CCN(C(=O)[C@H](N)C2Cc3cccc(C)c3C2)CC1

>  <score_type>  (11) 
oracle

>  <origin>  (11) 
autodockgpu

>  <m_score__min__energy>  (11) 
-8.7400000000000002

>  <m_primary>  (11) 
energy

>  <rmsd>  (11) 
8.995406783150486

>  <m_score__min__rmsd>  (11) 
8.995406783150486

>  <meeko>  (11) 
{"free_energy": -8.22, "intermolecular_energy": -10.31, "internal_energy": -1.93, "cluster_size": 16, "cluster_id": 2, "rank_in_cluster": 4}

>  <energy>  (11) 
-8.26

>  <cluster_rmsd>  (11) 
0.0

>  <cluster>  (11) 
2

$$$$

     RDKit          3D

 64 67  0  0  0  0  0  0  0  0999 V2000
  141.9720   79.6950  219.2000 C   0  0  0  0  0  0  0  0  0  0  0  0
  141.7610   78.2730  218.7680 C   0  0  0  0  0  0  0  0  0  0  0  0
  141.8470   77.3400  219.9500 C   0  0  0  0  0  0  0  0  0  0  0  0
  142.9520   76.7590  220.0850 O   0  0  0  0  0  0  0  0  0  0  0  0
  140.7420   77.1550  220.8240 N   0  0  0  0  0  0  0  0  0  0  0  0
  140.5850   78.1720  221.8430 C   0  0  0  0  0  0  0  0  0  0  0  0
  139.6550   79.1770  221.7220 C   0  0  0  0  0  0  0  0  0  0  0  0
  139.5570   80.1030  222.7190 C   0  0  0  0  0  0  0  0  0  0  0  0
  140.3950   80.0090  223.8250 C   0  0  0  0  0  0  0  0  0  0  0  0
  141.3250   78.9970  223.9390 C   0  0  0  0  0  0  0  0  0  0  0  0
  141.4270   78.0610  222.9350 C   0  0  0  0  0  0  0  0  0  0  0  0
  139.8160   76.0500  220.7310 C   0  0  0  0  0  0  0  0  0  0  0  0
  140.3990   74.8550  220.0780 C   0  0  0  0  0  0  0  0  0  0  0  0
  140.5610   73.6410  220.9450 C   0  0  0  0  0  0  0  0  0  0  0  0
  139.3410   73.3860  221.6670 N   0  0  0  0  0  0  0  0  0  0  0  0
  139.0440   72.1700  222.3440 C   0  0  0  0  0  0  0  0  0  0  0  0
  137.9020   72.0560  222.9330 O   0  0  0  0  0  0  0  0  0  0  0  0
  139.9230   71.0070  222.4440 C   0  0  2  0  0  0  0  0  0  0  0  0
  139.4720   69.8640  221.6930 N   0  0  0  0  0  0  0  0  0  0  0  0
  140.2260   70.5520  223.8340 C   0  0  2  0  0  0  0  0  0  0  0  0
  139.2840   69.5010  224.3720 C   0  0  0  0  0  0  0  0  0  0  0  0
  139.7730   69.4490  225.7990 C   0  0  0  0  0  0  0  0  0  0  0  0
  139.7560   68.4150  226.7120 C   0  0  0  0  0  0  0  0  0  0  0  0
  140.2750   68.6280  227.9740 C   0  0  0  0  0  0  0  0  0  0  0  0
  140.7910   69.8660  228.2750 C   0  0  0  0  0  0  0  0  0  0  0  0
  140.8220   70.9160  227.3880 C   0  0  0  0  0  0  0  0  0  0  0  0
  141.3910   72.2380  227.7610 C   0  0  0  0  0  0  0  0  0  0  0  0
  140.3030   70.7040  226.1260 C   0  0  0  0  0  0  0  0  0  0  0  0
  140.1570   71.5820  224.9040 C   0  0  0  0  0  0  0  0  0  0  0  0
  138.3190   74.4470  221.7410 C   0  0  0  0  0  0  0  0  0  0  0  0
  139.0930   75.7560  222.0130 C   0  0  0  0  0  0  0  0  0  0  0  0
  141.9797   79.7471  220.2987 H   0  0  0  0  0  0  0  0  0  0  0  0
  142.9339   80.0581  218.8089 H   0  0  0  0  0  0  0  0  0  0  0  0
  141.1570   80.3218  218.8089 H   0  0  0  0  0  0  0  0  0  0  0  0
  140.7674   78.1795  218.3054 H   0  0  0  0  0  0  0  0  0  0  0  0
  142.5447   78.0023  218.0452 H   0  0  0  0  0  0  0  0  0  0  0  0
  139.0024   79.2335  220.8383 H   0  0  0  0  0  0  0  0  0  0  0  0
  138.8211   80.9175  222.6487 H   0  0  0  0  0  0  0  0  0  0  0  0
  140.3143   80.7582  224.6263 H   0  0  0  0  0  0  0  0  0  0  0  0
  141.9779   78.9385  224.8223 H   0  0  0  0  0  0  0  0  0  0  0  0
  142.1607   77.2440  222.9994 H   0  0  0  0  0  0  0  0  0  0  0  0
  139.0245   76.3904  220.0471 H   0  0  0  0  0  0  0  0  0  0  0  0
  139.7474   74.5813  219.2351 H   0  0  0  0  0  0  0  0  0  0  0  0
  141.4184   75.1466  219.7850 H   0  0  0  0  0  0  0  0  0  0  0  0
  140.7997   72.7719  220.3143 H   0  0  0  0  0  0  0  0  0  0  0  0
  141.3761   73.8156  221.6628 H   0  0  0  0  0  0  0  0  0  0  0  0
  140.8495   71.4006  222.0006 H   0  0  0  0  0  0  0  0  0  0  0  0
  138.4300   69.9080  221.6360 H   0  0  0  0  0  0  0  0  0  0  0  0
  139.9100   69.8270  220.7280 H   0  0  0  0  0  0  0  0  0  0  0  0
  141.2531   70.1972  223.6631 H   0  0  0  0  0  0  0  0  0  0  0  0
  138.2328   69.8185  224.3081 H   0  0  0  0  0  0  0  0  0  0  0  0
  139.2921   68.5409  223.8352 H   0  0  0  0  0  0  0  0  0  0  0  0
  139.3355   67.4359  226.4391 H   0  0  0  0  0  0  0  0  0  0  0  0
  140.2754   67.8229  228.7235 H   0  0  0  0  0  0  0  0  0  0  0  0
  141.2024   70.0256  229.2826 H   0  0  0  0  0  0  0  0  0  0  0  0
  141.4285   72.3250  228.8569 H   0  0  0  0  0  0  0  0  0  0  0  0
  142.4077   72.3284  227.3510 H   0  0  0  0  0  0  0  0  0  0  0  0
  140.7578   73.0386  227.3510 H   0  0  0  0  0  0  0  0  0  0  0  0
  139.1942   72.1140  224.8966 H   0  0  0  0  0  0  0  0  0  0  0  0
  140.9027   72.3864  224.8206 H   0  0  0  0  0  0  0  0  0  0  0  0
  137.7695   74.5169  220.7907 H   0  0  0  0  0  0  0  0  0  0  0  0
  137.5784   74.2426  222.5282 H   0  0  0  0  0  0  0  0  0  0  0  0
  138.3984   76.5719  222.2616 H   0  0  0  0  0  0  0  0  0  0  0  0
  139.7823   75.6604  222.8649 H   0  0  0  0  0  0  0  0  0  0  0  0
  1  2  1  0
  2  3  1  0
  3  4  2  0
  3  5  1  0
  5  6  1  0
  6  7  2  0
  7  8  1  0
  8  9  2  0
  9 10  1  0
 10 11  2  0
  5 12  1  0
 12 13  1  0
 13 14  1  0
 14 15  1  0
 15 16  1  0
 16 17  2  0
 16 18  1  0
 18 19  1  0
 18 20  1  0
 20 21  1  0
 21 22  1  0
 22 23  2  0
 23 24  1  0
 24 25  2  0
 25 26  1  0
 26 27  1  0
 26 28  2  0
 28 29  1  0
 15 30  1  0
 30 31  1  0
 11  6  1  0
 31 12  1  0
 29 20  1  0
 28 22  1  0
  1 32  1  0
  1 33  1  0
  1 34  1  0
  2 35  1  0
  2 36  1  0
  7 37  1  0
  8 38  1  0
  9 39  1  0
 10 40  1  0
 11 41  1  0
 12 42  1  0
 13 43  1  0
 13 44  1  0
 14 45  1  0
 14 46  1  0
 18 47  1  6
 19 48  1  0
 19 49  1  0
 20 50  1  6
 21 51  1  0
 21 52  1  0
 23 53  1  0
 24 54  1  0
 25 55  1  0
 27 56  1  0
 27 57  1  0
 27 58  1  0
 29 59  1  0
 29 60  1  0
 30 61  1  0
 30 62  1  0
 31 63  1  0
 31 64  1  0
M  END
>  <smiles>  (12) 
CCC(=O)N(c1ccccc1)C1CCN(C(=O)[C@H](N)C2Cc3cccc(C)c3C2)CC1

>  <score_type>  (12) 
oracle

>  <origin>  (12) 
autodockgpu

>  <m_score__min__energy>  (12) 
-8.7400000000000002

>  <m_primary>  (12) 
energy

>  <rmsd>  (12) 
9.22895496077567

>  <m_score__min__rmsd>  (12) 
9.22895496077567

>  <meeko>  (12) 
{"free_energy": -7.88, "intermolecular_energy": -9.97, "internal_energy": -1.92, "cluster_size": 16, "cluster_id": 2, "rank_in_cluster": 16}

>  <energy>  (12) 
-8.26

>  <cluster_rmsd>  (12) 
0.14

>  <cluster>  (12) 
2

$$$$

     RDKit          3D

 64 67  0  0  0  0  0  0  0  0999 V2000
  142.5630   78.2010  217.8740 C   0  0  0  0  0  0  0  0  0  0  0  0
  141.0770   78.3650  217.7470 C   0  0  0  0  0  0  0  0  0  0  0  0
  140.3710   77.7540  218.9320 C   0  0  0  0  0  0  0  0  0  0  0  0
  139.2000   77.3600  218.7040 O   0  0  0  0  0  0  0  0  0  0  0  0
  141.0120   77.6500  220.1960 N   0  0  0  0  0  0  0  0  0  0  0  0
  141.1420   78.8940  220.9270 C   0  0  0  0  0  0  0  0  0  0  0  0
  140.3040   79.9580  220.6930 C   0  0  0  0  0  0  0  0  0  0  0  0
  140.4780   81.1020  221.4160 C   0  0  0  0  0  0  0  0  0  0  0  0
  141.4940   81.1620  222.3650 C   0  0  0  0  0  0  0  0  0  0  0  0
  142.3300   80.0900  222.5930 C   0  0  0  0  0  0  0  0  0  0  0  0
  142.1570   78.9340  221.8650 C   0  0  0  0  0  0  0  0  0  0  0  0
  141.5070   76.4110  220.7490 C   0  0  0  0  0  0  0  0  0  0  0  0
  140.8390   76.0290  222.0140 C   0  0  0  0  0  0  0  0  0  0  0  0
  140.0090   74.7790  221.9710 C   0  0  0  0  0  0  0  0  0  0  0  0
  140.7520   73.7140  221.3480 N   0  0  0  0  0  0  0  0  0  0  0  0
  140.3910   72.3390  221.4030 C   0  0  0  0  0  0  0  0  0  0  0  0
  141.1570   71.4780  220.8250 O   0  0  0  0  0  0  0  0  0  0  0  0
  139.2100   71.7890  222.0650 C   0  0  2  0  0  0  0  0  0  0  0  0
  138.0530   72.6450  222.0090 N   0  0  0  0  0  0  0  0  0  0  0  0
  139.4080   71.3770  223.4870 C   0  0  2  0  0  0  0  0  0  0  0  0
  140.6400   71.9540  224.1430 C   0  0  0  0  0  0  0  0  0  0  0  0
  140.6000   71.1870  225.4420 C   0  0  0  0  0  0  0  0  0  0  0  0
  141.0670   71.5270  226.6960 C   0  0  0  0  0  0  0  0  0  0  0  0
  140.9040   70.6320  227.7360 C   0  0  0  0  0  0  0  0  0  0  0  0
  140.2810   69.4340  227.4840 C   0  0  0  0  0  0  0  0  0  0  0  0
  139.8060   69.0660  226.2470 C   0  0  0  0  0  0  0  0  0  0  0  0
  139.1380   67.7560  226.0240 C   0  0  0  0  0  0  0  0  0  0  0  0
  139.9680   69.9590  225.2070 C   0  0  0  0  0  0  0  0  0  0  0  0
  139.5940   69.9240  223.7420 C   0  0  0  0  0  0  0  0  0  0  0  0
  141.9650   74.0460  220.5780 C   0  0  0  0  0  0  0  0  0  0  0  0
  141.6060   75.2980  219.7460 C   0  0  0  0  0  0  0  0  0  0  0  0
  142.8389   78.1705  218.9384 H   0  0  0  0  0  0  0  0  0  0  0  0
  142.8713   77.2634  217.3883 H   0  0  0  0  0  0  0  0  0  0  0  0
  143.0683   79.0488  217.3883 H   0  0  0  0  0  0  0  0  0  0  0  0
  140.8349   79.4368  217.6954 H   0  0  0  0  0  0  0  0  0  0  0  0
  140.7412   77.8540  216.8326 H   0  0  0  0  0  0  0  0  0  0  0  0
  139.5080   79.8886  219.9370 H   0  0  0  0  0  0  0  0  0  0  0  0
  139.8213   81.9687  221.2503 H   0  0  0  0  0  0  0  0  0  0  0  0
  141.6331   82.0855  222.9462 H   0  0  0  0  0  0  0  0  0  0  0  0
  143.1268   80.1572  223.3484 H   0  0  0  0  0  0  0  0  0  0  0  0
  142.8103   78.0637  222.0258 H   0  0  0  0  0  0  0  0  0  0  0  0
  142.5508   76.6137  221.0308 H   0  0  0  0  0  0  0  0  0  0  0  0
  141.6190   75.8885  222.7769 H   0  0  0  0  0  0  0  0  0  0  0  0
  140.1342   76.8444  222.2340 H   0  0  0  0  0  0  0  0  0  0  0  0
  139.7410   74.4845  222.9964 H   0  0  0  0  0  0  0  0  0  0  0  0
  139.0969   74.9718  221.3871 H   0  0  0  0  0  0  0  0  0  0  0  0
  139.0310   70.8841  221.4658 H   0  0  0  0  0  0  0  0  0  0  0  0
  138.1580   73.3760  222.7480 H   0  0  0  0  0  0  0  0  0  0  0  0
  137.9300   73.0810  221.0500 H   0  0  0  0  0  0  0  0  0  0  0  0
  138.4576   71.7525  223.8941 H   0  0  0  0  0  0  0  0  0  0  0  0
  141.5521   71.7406  223.5664 H   0  0  0  0  0  0  0  0  0  0  0  0
  140.6531   73.0495  224.2418 H   0  0  0  0  0  0  0  0  0  0  0  0
  141.5611   72.4952  226.8645 H   0  0  0  0  0  0  0  0  0  0  0  0
  141.2661   70.8741  228.7461 H   0  0  0  0  0  0  0  0  0  0  0  0
  140.1549   68.7290  228.3189 H   0  0  0  0  0  0  0  0  0  0  0  0
  138.9027   67.2945  226.9944 H   0  0  0  0  0  0  0  0  0  0  0  0
  138.2085   67.9103  225.4563 H   0  0  0  0  0  0  0  0  0  0  0  0
  139.8088   67.0943  225.4563 H   0  0  0  0  0  0  0  0  0  0  0  0
  140.4006   69.5014  223.1249 H   0  0  0  0  0  0  0  0  0  0  0  0
  138.7230   69.2967  223.5015 H   0  0  0  0  0  0  0  0  0  0  0  0
  142.8021   74.2646  221.2573 H   0  0  0  0  0  0  0  0  0  0  0  0
  142.2787   73.2096  219.9361 H   0  0  0  0  0  0  0  0  0  0  0  0
  142.3929   75.5110  219.0075 H   0  0  0  0  0  0  0  0  0  0  0  0
  140.6724   75.1659  219.1796 H   0  0  0  0  0  0  0  0  0  0  0  0
  1  2  1  0
  2  3  1  0
  3  4  2  0
  3  5  1  0
  5  6  1  0
  6  7  2  0
  7  8  1  0
  8  9  2  0
  9 10  1  0
 10 11  2  0
  5 12  1  0
 12 13  1  0
 13 14  1  0
 14 15  1  0
 15 16  1  0
 16 17  2  0
 16 18  1  0
 18 19  1  0
 18 20  1  0
 20 21  1  0
 21 22  1  0
 22 23  2  0
 23 24  1  0
 24 25  2  0
 25 26  1  0
 26 27  1  0
 26 28  2  0
 28 29  1  0
 15 30  1  0
 30 31  1  0
 11  6  1  0
 31 12  1  0
 29 20  1  0
 28 22  1  0
  1 32  1  0
  1 33  1  0
  1 34  1  0
  2 35  1  0
  2 36  1  0
  7 37  1  0
  8 38  1  0
  9 39  1  0
 10 40  1  0
 11 41  1  0
 12 42  1  0
 13 43  1  0
 13 44  1  0
 14 45  1  0
 14 46  1  0
 18 47  1  6
 19 48  1  0
 19 49  1  0
 20 50  1  1
 21 51  1  0
 21 52  1  0
 23 53  1  0
 24 54  1  0
 25 55  1  0
 27 56  1  0
 27 57  1  0
 27 58  1  0
 29 59  1  0
 29 60  1  0
 30 61  1  0
 30 62  1  0
 31 63  1  0
 31 64  1  0
M  END
>  <smiles>  (13) 
CCC(=O)N(c1ccccc1)C1CCN(C(=O)[C@H](N)C2Cc3cccc(C)c3C2)CC1

>  <score_type>  (13) 
oracle

>  <origin>  (13) 
autodockgpu

>  <m_score__min__energy>  (13) 
-8.7400000000000002

>  <m_primary>  (13) 
energy

>  <rmsd>  (13) 
8.083327370274773

>  <m_score__min__rmsd>  (13) 
8.083327370274773

>  <meeko>  (13) 
{"free_energy": -7.73, "intermolecular_energy": -9.82, "internal_energy": -1.65, "cluster_size": 1, "cluster_id": 8, "rank_in_cluster": 1}

>  <energy>  (13) 
-8.25

>  <cluster_rmsd>  (13) 
2.0

>  <cluster>  (13) 
2

$$$$

     RDKit          3D

 64 67  0  0  0  0  0  0  0  0999 V2000
  144.0400   74.9700  220.1010 C   0  0  0  0  0  0  0  0  0  0  0  0
  144.8190   73.7690  220.5500 C   0  0  0  0  0  0  0  0  0  0  0  0
  144.7920   72.6920  219.4940 C   0  0  0  0  0  0  0  0  0  0  0  0
  145.5880   72.8680  218.5390 O   0  0  0  0  0  0  0  0  0  0  0  0
  143.9180   71.5770  219.6040 N   0  0  0  0  0  0  0  0  0  0  0  0
  144.5610   70.2800  219.5370 C   0  0  0  0  0  0  0  0  0  0  0  0
  143.8510   69.1150  219.7040 C   0  0  0  0  0  0  0  0  0  0  0  0
  144.5160   67.9260  219.6280 C   0  0  0  0  0  0  0  0  0  0  0  0
  145.8860   67.9230  219.3860 C   0  0  0  0  0  0  0  0  0  0  0  0
  146.5900   69.0960  219.2190 C   0  0  0  0  0  0  0  0  0  0  0  0
  145.9230   70.2980  219.2960 C   0  0  0  0  0  0  0  0  0  0  0  0
  142.4880   71.6870  219.7760 C   0  0  0  0  0  0  0  0  0  0  0  0
  142.0840   71.8780  221.1870 C   0  0  0  0  0  0  0  0  0  0  0  0
  141.4470   73.1950  221.5200 C   0  0  0  0  0  0  0  0  0  0  0  0
  140.4160   73.5010  220.5620 N   0  0  0  0  0  0  0  0  0  0  0  0
  139.4270   74.5080  220.7350 C   0  0  0  0  0  0  0  0  0  0  0  0
  138.5400   74.6650  219.8120 O   0  0  0  0  0  0  0  0  0  0  0  0
  139.3100   75.4070  221.8810 C   0  0  2  0  0  0  0  0  0  0  0  0
  137.9640   75.5640  222.3700 N   0  0  0  0  0  0  0  0  0  0  0  0
  139.8880   76.7710  221.6860 C   0  0  2  0  0  0  0  0  0  0  0  0
  140.6090   76.9660  220.3720 C   0  0  0  0  0  0  0  0  0  0  0  0
  141.1940   78.3350  220.6220 C   0  0  0  0  0  0  0  0  0  0  0  0
  141.5190   79.3420  219.7360 C   0  0  0  0  0  0  0  0  0  0  0  0
  142.0490   80.5200  220.2280 C   0  0  0  0  0  0  0  0  0  0  0  0
  142.2310   80.6450  221.5850 C   0  0  0  0  0  0  0  0  0  0  0  0
  141.9170   79.6610  222.4910 C   0  0  0  0  0  0  0  0  0  0  0  0
  142.1330   79.8440  223.9510 C   0  0  0  0  0  0  0  0  0  0  0  0
  141.3880   78.4830  222.0010 C   0  0  0  0  0  0  0  0  0  0  0  0
  140.9290   77.2010  222.6570 C   0  0  0  0  0  0  0  0  0  0  0  0
  140.3700   72.7430  219.2970 C   0  0  0  0  0  0  0  0  0  0  0  0
  141.8350   72.6390  218.8160 C   0  0  0  0  0  0  0  0  0  0  0  0
  143.6807   75.5239  220.9808 H   0  0  0  0  0  0  0  0  0  0  0  0
  144.6876   75.6221  219.4965 H   0  0  0  0  0  0  0  0  0  0  0  0
  143.1805   74.6446  219.4965 H   0  0  0  0  0  0  0  0  0  0  0  0
  145.8617   74.0644  220.7382 H   0  0  0  0  0  0  0  0  0  0  0  0
  144.3627   73.3745  221.4699 H   0  0  0  0  0  0  0  0  0  0  0  0
  142.7680   69.1407  219.8951 H   0  0  0  0  0  0  0  0  0  0  0  0
  143.9735   66.9778  219.7570 H   0  0  0  0  0  0  0  0  0  0  0  0
  146.4193   66.9628  219.3266 H   0  0  0  0  0  0  0  0  0  0  0  0
  147.6727   69.0722  219.0263 H   0  0  0  0  0  0  0  0  0  0  0  0
  146.4601   71.2495  219.1690 H   0  0  0  0  0  0  0  0  0  0  0  0
  142.0839   70.7028  219.4968 H   0  0  0  0  0  0  0  0  0  0  0  0
  141.3664   71.0840  221.4413 H   0  0  0  0  0  0  0  0  0  0  0  0
  143.0176   71.8467  221.7679 H   0  0  0  0  0  0  0  0  0  0  0  0
  141.0051   73.1417  222.5259 H   0  0  0  0  0  0  0  0  0  0  0  0
  142.2130   73.9839  221.4898 H   0  0  0  0  0  0  0  0  0  0  0  0
  139.9181   74.8780  222.6295 H   0  0  0  0  0  0  0  0  0  0  0  0
  137.3110   75.3810  221.5770 H   0  0  0  0  0  0  0  0  0  0  0  0
  137.7650   74.9210  223.1900 H   0  0  0  0  0  0  0  0  0  0  0  0
  138.9596   77.3522  221.7870 H   0  0  0  0  0  0  0  0  0  0  0  0
  141.3893   76.2071  220.2135 H   0  0  0  0  0  0  0  0  0  0  0  0
  139.9828   76.8772  219.4720 H   0  0  0  0  0  0  0  0  0  0  0  0
  141.3589   79.2093  218.6558 H   0  0  0  0  0  0  0  0  0  0  0  0
  142.3197   81.3408  219.5476 H   0  0  0  0  0  0  0  0  0  0  0  0
  142.6521   81.5866  221.9672 H   0  0  0  0  0  0  0  0  0  0  0  0
  141.4094   79.2310  224.5084 H   0  0  0  0  0  0  0  0  0  0  0  0
  143.1552   79.5329  224.2123 H   0  0  0  0  0  0  0  0  0  0  0  0
  141.9941   80.9035  224.2123 H   0  0  0  0  0  0  0  0  0  0  0  0
  141.7445   76.4667  222.7327 H   0  0  0  0  0  0  0  0  0  0  0  0
  140.5777   77.3115  223.6935 H   0  0  0  0  0  0  0  0  0  0  0  0
  139.9501   71.7404  219.4661 H   0  0  0  0  0  0  0  0  0  0  0  0
  139.7326   73.2391  218.5503 H   0  0  0  0  0  0  0  0  0  0  0  0
  141.8788   72.2452  217.7898 H   0  0  0  0  0  0  0  0  0  0  0  0
  142.3360   73.6181  218.7972 H   0  0  0  0  0  0  0  0  0  0  0  0
  1  2  1  0
  2  3  1  0
  3  4  2  0
  3  5  1  0
  5  6  1  0
  6  7  2  0
  7  8  1  0
  8  9  2  0
  9 10  1  0
 10 11  2  0
  5 12  1  0
 12 13  1  0
 13 14  1  0
 14 15  1  0
 15 16  1  0
 16 17  2  0
 16 18  1  0
 18 19  1  0
 18 20  1  0
 20 21  1  0
 21 22  1  0
 22 23  2  0
 23 24  1  0
 24 25  2  0
 25 26  1  0
 26 27  1  0
 26 28  2  0
 28 29  1  0
 15 30  1  0
 30 31  1  0
 11  6  1  0
 31 12  1  0
 29 20  1  0
 28 22  1  0
  1 32  1  0
  1 33  1  0
  1 34  1  0
  2 35  1  0
  2 36  1  0
  7 37  1  0
  8 38  1  0
  9 39  1  0
 10 40  1  0
 11 41  1  0
 12 42  1  0
 13 43  1  0
 13 44  1  0
 14 45  1  0
 14 46  1  0
 18 47  1  1
 19 48  1  0
 19 49  1  0
 20 50  1  6
 21 51  1  0
 21 52  1  0
 23 53  1  0
 24 54  1  0
 25 55  1  0
 27 56  1  0
 27 57  1  0
 27 58  1  0
 29 59  1  0
 29 60  1  0
 30 61  1  0
 30 62  1  0
 31 63  1  0
 31 64  1  0
M  END
>  <smiles>  (14) 
CCC(=O)N(c1ccccc1)C1CCN(C(=O)[C@H](N)C2Cc3cccc(C)c3C2)CC1

>  <score_type>  (14) 
oracle

>  <origin>  (14) 
autodockgpu

>  <m_score__min__energy>  (14) 
-8.7400000000000002

>  <m_primary>  (14) 
energy

>  <rmsd>  (14) 
5.331000875096102

>  <m_score__min__rmsd>  (14) 
5.331000875096102

>  <meeko>  (14) 
{"free_energy": -7.02, "intermolecular_energy": -9.11, "internal_energy": -2.38, "cluster_size": 5, "cluster_id": 5, "rank_in_cluster": 5}

>  <energy>  (14) 
-8.22

>  <cluster_rmsd>  (14) 
0.13

>  <cluster>  (14) 
2

$$$$

     RDKit          3D

 64 67  0  0  0  0  0  0  0  0999 V2000
  143.3120   75.8260  218.7000 C   0  0  0  0  0  0  0  0  0  0  0  0
  142.7590   76.0070  220.0830 C   0  0  0  0  0  0  0  0  0  0  0  0
  141.6540   77.0340  220.0830 C   0  0  0  0  0  0  0  0  0  0  0  0
  141.8070   77.9750  219.2650 O   0  0  0  0  0  0  0  0  0  0  0  0
  140.5390   76.9150  220.9560 N   0  0  0  0  0  0  0  0  0  0  0  0
  140.4220   77.9580  221.9530 C   0  0  0  0  0  0  0  0  0  0  0  0
  139.3360   78.8000  221.9910 C   0  0  0  0  0  0  0  0  0  0  0  0
  139.2860   79.7630  222.9560 C   0  0  0  0  0  0  0  0  0  0  0  0
  140.3280   79.8670  223.8720 C   0  0  0  0  0  0  0  0  0  0  0  0
  141.4130   79.0180  223.8280 C   0  0  0  0  0  0  0  0  0  0  0  0
  141.4680   78.0470  222.8540 C   0  0  0  0  0  0  0  0  0  0  0  0
  139.5690   75.8470  220.8830 C   0  0  0  0  0  0  0  0  0  0  0  0
  140.0800   74.6410  220.1930 C   0  0  0  0  0  0  0  0  0  0  0  0
  140.2260   73.4080  221.0380 C   0  0  0  0  0  0  0  0  0  0  0  0
  139.0250   73.1890  221.8010 N   0  0  0  0  0  0  0  0  0  0  0  0
  138.7050   71.9770  222.4730 C   0  0  0  0  0  0  0  0  0  0  0  0
  137.5820   71.8980  223.1020 O   0  0  0  0  0  0  0  0  0  0  0  0
  139.5420   70.7790  222.5240 C   0  0  2  0  0  0  0  0  0  0  0  0
  138.9450   69.6190  221.9140 N   0  0  0  0  0  0  0  0  0  0  0  0
  140.0150   70.3880  223.8860 C   0  0  2  0  0  0  0  0  0  0  0  0
  139.2180   69.2820  224.5350 C   0  0  0  0  0  0  0  0  0  0  0  0
  139.8470   69.3080  225.9070 C   0  0  0  0  0  0  0  0  0  0  0  0
  140.0030   68.3010  226.8380 C   0  0  0  0  0  0  0  0  0  0  0  0
  140.6240   68.5900  228.0380 C   0  0  0  0  0  0  0  0  0  0  0  0
  141.0660   69.8720  228.2610 C   0  0  0  0  0  0  0  0  0  0  0  0
  140.9250   70.8950  227.3540 C   0  0  0  0  0  0  0  0  0  0  0  0
  141.4200   72.2680  227.6420 C   0  0  0  0  0  0  0  0  0  0  0  0
  140.3040   70.6090  226.1550 C   0  0  0  0  0  0  0  0  0  0  0  0
  139.9690   71.4390  224.9370 C   0  0  0  0  0  0  0  0  0  0  0  0
  138.0490   74.2880  221.9270 C   0  0  0  0  0  0  0  0  0  0  0  0
  138.8820   75.5630  222.1880 C   0  0  0  0  0  0  0  0  0  0  0  0
  144.3556   75.4844  218.7642 H   0  0  0  0  0  0  0  0  0  0  0  0
  142.7135   75.0769  218.1609 H   0  0  0  0  0  0  0  0  0  0  0  0
  143.2723   76.7840  218.1609 H   0  0  0  0  0  0  0  0  0  0  0  0
  142.3599   75.0466  220.4413 H   0  0  0  0  0  0  0  0  0  0  0  0
  143.5660   76.3545  220.7448 H   0  0  0  0  0  0  0  0  0  0  0  0
  138.5227   78.6992  221.2572 H   0  0  0  0  0  0  0  0  0  0  0  0
  138.4295   80.4511  223.0094 H   0  0  0  0  0  0  0  0  0  0  0  0
  140.2850   80.6444  224.6490 H   0  0  0  0  0  0  0  0  0  0  0  0
  142.2256   79.1154  224.5629 H   0  0  0  0  0  0  0  0  0  0  0  0
  142.3234   77.3581  222.7935 H   0  0  0  0  0  0  0  0  0  0  0  0
  138.7669   76.2263  220.2327 H   0  0  0  0  0  0  0  0  0  0  0  0
  139.3877   74.4052  219.3714 H   0  0  0  0  0  0  0  0  0  0  0  0
  141.0985   74.8972  219.8659 H   0  0  0  0  0  0  0  0  0  0  0  0
  140.4076   72.5399  220.3873 H   0  0  0  0  0  0  0  0  0  0  0  0
  141.0727   73.5410  221.7275 H   0  0  0  0  0  0  0  0  0  0  0  0
  140.4132   71.1013  221.9348 H   0  0  0  0  0  0  0  0  0  0  0  0
  137.9070   69.7330  221.9540 H   0  0  0  0  0  0  0  0  0  0  0  0
  139.2790   69.4810  220.9160 H   0  0  0  0  0  0  0  0  0  0  0  0
  141.0459   70.1101  223.6212 H   0  0  0  0  0  0  0  0  0  0  0  0
  138.1434   69.5144  224.5699 H   0  0  0  0  0  0  0  0  0  0  0  0
  139.2507   68.3111  224.0190 H   0  0  0  0  0  0  0  0  0  0  0  0
  139.6387   67.2845  226.6280 H   0  0  0  0  0  0  0  0  0  0  0  0
  140.7619   67.8089  228.8002 H   0  0  0  0  0  0  0  0  0  0  0  0
  141.5602   70.0917  229.2189 H   0  0  0  0  0  0  0  0  0  0  0  0
  141.4739   72.4175  228.7305 H   0  0  0  0  0  0  0  0  0  0  0  0
  142.4210   72.3962  227.2042 H   0  0  0  0  0  0  0  0  0  0  0  0
  140.7311   73.0055  227.2042 H   0  0  0  0  0  0  0  0  0  0  0  0
  138.9706   71.8941  225.0154 H   0  0  0  0  0  0  0  0  0  0  0  0
  140.6359   72.2964  224.7636 H   0  0  0  0  0  0  0  0  0  0  0  0
  137.4685   74.3931  220.9986 H   0  0  0  0  0  0  0  0  0  0  0  0
  137.3307   74.1005  222.7387 H   0  0  0  0  0  0  0  0  0  0  0  0
  138.2287   76.4011  222.4723 H   0  0  0  0  0  0  0  0  0  0  0  0
  139.5972   75.4298  223.0131 H   0  0  0  0  0  0  0  0  0  0  0  0
  1  2  1  0
  2  3  1  0
  3  4  2  0
  3  5  1  0
  5  6  1  0
  6  7  2  0
  7  8  1  0
  8  9  2  0
  9 10  1  0
 10 11  2  0
  5 12  1  0
 12 13  1  0
 13 14  1  0
 14 15  1  0
 15 16  1  0
 16 17  2  0
 16 18  1  0
 18 19  1  0
 18 20  1  0
 20 21  1  0
 21 22  1  0
 22 23  2  0
 23 24  1  0
 24 25  2  0
 25 26  1  0
 26 27  1  0
 26 28  2  0
 28 29  1  0
 15 30  1  0
 30 31  1  0
 11  6  1  0
 31 12  1  0
 29 20  1  0
 28 22  1  0
  1 32  1  0
  1 33  1  0
  1 34  1  0
  2 35  1  0
  2 36  1  0
  7 37  1  0
  8 38  1  0
  9 39  1  0
 10 40  1  0
 11 41  1  0
 12 42  1  0
 13 43  1  0
 13 44  1  0
 14 45  1  0
 14 46  1  0
 18 47  1  6
 19 48  1  0
 19 49  1  0
 20 50  1  6
 21 51  1  0
 21 52  1  0
 23 53  1  0
 24 54  1  0
 25 55  1  0
 27 56  1  0
 27 57  1  0
 27 58  1  0
 29 59  1  0
 29 60  1  0
 30 61  1  0
 30 62  1  0
 31 63  1  0
 31 64  1  0
M  END
>  <smiles>  (15) 
CCC(=O)N(c1ccccc1)C1CCN(C(=O)[C@H](N)C2Cc3cccc(C)c3C2)CC1

>  <score_type>  (15) 
oracle

>  <origin>  (15) 
autodockgpu

>  <m_score__min__energy>  (15) 
-8.7400000000000002

>  <m_primary>  (15) 
energy

>  <rmsd>  (15) 
9.40795941318343

>  <m_score__min__rmsd>  (15) 
9.40795941318343

>  <meeko>  (15) 
{"free_energy": -7.99, "intermolecular_energy": -10.08, "internal_energy": -1.81, "cluster_size": 16, "cluster_id": 2, "rank_in_cluster": 14}

>  <energy>  (15) 
-8.21

>  <cluster_rmsd>  (15) 
0.45

>  <cluster>  (15) 
2

$$$$

     RDKit          3D

 64 67  0  0  0  0  0  0  0  0999 V2000
  142.1400   80.2490  221.5360 C   0  0  0  0  0  0  0  0  0  0  0  0
  142.0490   79.8880  222.9890 C   0  0  0  0  0  0  0  0  0  0  0  0
  141.2550   78.6180  223.1730 C   0  0  0  0  0  0  0  0  0  0  0  0
  141.8410   77.7180  223.8250 O   0  0  0  0  0  0  0  0  0  0  0  0
  139.9470   78.4840  222.6350 N   0  0  0  0  0  0  0  0  0  0  0  0
  139.0830   79.6310  222.8190 C   0  0  0  0  0  0  0  0  0  0  0  0
  138.6030   80.3510  221.7500 C   0  0  0  0  0  0  0  0  0  0  0  0
  137.7930   81.4210  221.9920 C   0  0  0  0  0  0  0  0  0  0  0  0
  137.4750   81.7560  223.3040 C   0  0  0  0  0  0  0  0  0  0  0  0
  137.9610   81.0290  224.3700 C   0  0  0  0  0  0  0  0  0  0  0  0
  138.7800   79.9490  224.1310 C   0  0  0  0  0  0  0  0  0  0  0  0
  139.4770   77.3060  221.9430 C   0  0  0  0  0  0  0  0  0  0  0  0
  140.5630   76.5440  221.2840 C   0  0  0  0  0  0  0  0  0  0  0  0
  140.8320   75.1720  221.8290 C   0  0  0  0  0  0  0  0  0  0  0  0
  139.5970   74.4450  221.9650 N   0  0  0  0  0  0  0  0  0  0  0  0
  139.5060   73.0400  222.1700 C   0  0  0  0  0  0  0  0  0  0  0  0
  138.3360   72.5030  222.2480 O   0  0  0  0  0  0  0  0  0  0  0  0
  140.6320   72.1180  222.3030 C   0  0  2  0  0  0  0  0  0  0  0  0
  140.8580   71.2940  221.1440 N   0  0  0  0  0  0  0  0  0  0  0  0
  140.5890   71.2250  223.5000 C   0  0  2  0  0  0  0  0  0  0  0  0
  139.4900   70.1880  223.4710 C   0  0  0  0  0  0  0  0  0  0  0  0
  139.6420   69.6400  224.8690 C   0  0  0  0  0  0  0  0  0  0  0  0
  139.3610   68.3870  225.3730 C   0  0  0  0  0  0  0  0  0  0  0  0
  139.5940   68.1360  226.7110 C   0  0  0  0  0  0  0  0  0  0  0  0
  140.1000   69.1460  227.4940 C   0  0  0  0  0  0  0  0  0  0  0  0
  140.3910   70.4040  227.0210 C   0  0  0  0  0  0  0  0  0  0  0  0
  140.9380   71.4650  227.9090 C   0  0  0  0  0  0  0  0  0  0  0  0
  140.1580   70.6560  225.6840 C   0  0  0  0  0  0  0  0  0  0  0  0
  140.3410   71.8780  224.8120 C   0  0  0  0  0  0  0  0  0  0  0  0
  138.3220   75.1860  221.9090 C   0  0  0  0  0  0  0  0  0  0  0  0
  138.5400   76.4600  222.7550 C   0  0  0  0  0  0  0  0  0  0  0  0
  142.4078   81.3114  221.4382 H   0  0  0  0  0  0  0  0  0  0  0  0
  142.9104   79.6306  221.0521 H   0  0  0  0  0  0  0  0  0  0  0  0
  141.1686   80.0697  221.0521 H   0  0  0  0  0  0  0  0  0  0  0  0
  143.0631   79.7413  223.3891 H   0  0  0  0  0  0  0  0  0  0  0  0
  141.5420   80.7036  223.5255 H   0  0  0  0  0  0  0  0  0  0  0  0
  138.8673   80.0693  220.7201 H   0  0  0  0  0  0  0  0  0  0  0  0
  137.3942   82.0146  221.1562 H   0  0  0  0  0  0  0  0  0  0  0  0
  136.8215   82.6199  223.4953 H   0  0  0  0  0  0  0  0  0  0  0  0
  137.6970   81.3092  225.4004 H   0  0  0  0  0  0  0  0  0  0  0  0
  139.1838   79.3532  224.9628 H   0  0  0  0  0  0  0  0  0  0  0  0
  138.8543   77.6828  221.1182 H   0  0  0  0  0  0  0  0  0  0  0  0
  140.3017   76.4379  220.2208 H   0  0  0  0  0  0  0  0  0  0  0  0
  141.4818   77.1202  221.4680 H   0  0  0  0  0  0  0  0  0  0  0  0
  141.4991   74.6313  221.1415 H   0  0  0  0  0  0  0  0  0  0  0  0
  141.3080   75.2628  222.8165 H   0  0  0  0  0  0  0  0  0  0  0  0
  141.4693   72.8207  222.4265 H   0  0  0  0  0  0  0  0  0  0  0  0
  139.9520   71.2070  220.6310 H   0  0  0  0  0  0  0  0  0  0  0  0
  141.6180   71.6900  220.5190 H   0  0  0  0  0  0  0  0  0  0  0  0
  141.6061   70.8125  223.4268 H   0  0  0  0  0  0  0  0  0  0  0  0
  138.5003   70.6408  223.3113 H   0  0  0  0  0  0  0  0  0  0  0  0
  139.5625   69.4457  222.6625 H   0  0  0  0  0  0  0  0  0  0  0  0
  138.9575   67.5998  224.7192 H   0  0  0  0  0  0  0  0  0  0  0  0
  139.3788   67.1470  227.1417 H   0  0  0  0  0  0  0  0  0  0  0  0
  140.2823   68.9363  228.5583 H   0  0  0  0  0  0  0  0  0  0  0  0
  140.7892   71.1763  228.9599 H   0  0  0  0  0  0  0  0  0  0  0  0
  142.0129   71.5900  227.7118 H   0  0  0  0  0  0  0  0  0  0  0  0
  140.4163   72.4131  227.7118 H   0  0  0  0  0  0  0  0  0  0  0  0
  139.4368   72.5041  224.7918 H   0  0  0  0  0  0  0  0  0  0  0  0
  141.1311   72.5684  225.1423 H   0  0  0  0  0  0  0  0  0  0  0  0
  138.0790   75.4528  220.8699 H   0  0  0  0  0  0  0  0  0  0  0  0
  137.4855   74.5831  222.2920 H   0  0  0  0  0  0  0  0  0  0  0  0
  137.5869   76.9846  222.9175 H   0  0  0  0  0  0  0  0  0  0  0  0
  138.9459   76.2314  223.7515 H   0  0  0  0  0  0  0  0  0  0  0  0
  1  2  1  0
  2  3  1  0
  3  4  2  0
  3  5  1  0
  5  6  1  0
  6  7  2  0
  7  8  1  0
  8  9  2  0
  9 10  1  0
 10 11  2  0
  5 12  1  0
 12 13  1  0
 13 14  1  0
 14 15  1  0
 15 16  1  0
 16 17  2  0
 16 18  1  0
 18 19  1  0
 18 20  1  0
 20 21  1  0
 21 22  1  0
 22 23  2  0
 23 24  1  0
 24 25  2  0
 25 26  1  0
 26 27  1  0
 26 28  2  0
 28 29  1  0
 15 30  1  0
 30 31  1  0
 11  6  1  0
 31 12  1  0
 29 20  1  0
 28 22  1  0
  1 32  1  0
  1 33  1  0
  1 34  1  0
  2 35  1  0
  2 36  1  0
  7 37  1  0
  8 38  1  0
  9 39  1  0
 10 40  1  0
 11 41  1  0
 12 42  1  0
 13 43  1  0
 13 44  1  0
 14 45  1  0
 14 46  1  0
 18 47  1  1
 19 48  1  0
 19 49  1  0
 20 50  1  1
 21 51  1  0
 21 52  1  0
 23 53  1  0
 24 54  1  0
 25 55  1  0
 27 56  1  0
 27 57  1  0
 27 58  1  0
 29 59  1  0
 29 60  1  0
 30 61  1  0
 30 62  1  0
 31 63  1  0
 31 64  1  0
M  END
>  <smiles>  (16) 
CCC(=O)N(c1ccccc1)C1CCN(C(=O)[C@H](N)C2Cc3cccc(C)c3C2)CC1

>  <score_type>  (16) 
oracle

>  <origin>  (16) 
autodockgpu

>  <m_score__min__energy>  (16) 
-8.7400000000000002

>  <m_primary>  (16) 
energy

>  <rmsd>  (16) 
8.893651948588778

>  <m_score__min__rmsd>  (16) 
8.893651948588778

>  <meeko>  (16) 
{"free_energy": -7.93, "intermolecular_energy": -10.02, "internal_energy": -1.83, "cluster_size": 16, "cluster_id": 2, "rank_in_cluster": 15}

>  <energy>  (16) 
-8.18

>  <cluster_rmsd>  (16) 
1.87

>  <cluster>  (16) 
2

$$$$

     RDKit          3D

 64 67  0  0  0  0  0  0  0  0999 V2000
  142.9560   77.2070  218.3640 C   0  0  0  0  0  0  0  0  0  0  0  0
  142.1810   77.6920  219.5540 C   0  0  0  0  0  0  0  0  0  0  0  0
  141.7790   76.5350  220.4350 C   0  0  0  0  0  0  0  0  0  0  0  0
  142.6020   75.5860  220.4680 O   0  0  0  0  0  0  0  0  0  0  0  0
  140.5560   76.5500  221.1570 N   0  0  0  0  0  0  0  0  0  0  0  0
  140.3890   77.6660  222.0650 C   0  0  0  0  0  0  0  0  0  0  0  0
  139.2410   78.4220  222.0740 C   0  0  0  0  0  0  0  0  0  0  0  0
  139.1460   79.4590  222.9560 C   0  0  0  0  0  0  0  0  0  0  0  0
  140.2070   79.7240  223.8160 C   0  0  0  0  0  0  0  0  0  0  0  0
  141.3550   78.9600  223.8000 C   0  0  0  0  0  0  0  0  0  0  0  0
  141.4540   77.9130  222.9120 C   0  0  0  0  0  0  0  0  0  0  0  0
  139.5260   75.5460  221.0190 C   0  0  0  0  0  0  0  0  0  0  0  0
  139.9940   74.3210  220.3330 C   0  0  0  0  0  0  0  0  0  0  0  0
  140.0220   73.0700  221.1620 C   0  0  0  0  0  0  0  0  0  0  0  0
  138.7740   72.9150  221.8630 N   0  0  0  0  0  0  0  0  0  0  0  0
  138.3480   71.7150  222.4970 C   0  0  0  0  0  0  0  0  0  0  0  0
  137.1930   71.6980  223.0710 O   0  0  0  0  0  0  0  0  0  0  0  0
  139.1050   70.4670  222.5670 C   0  0  2  0  0  0  0  0  0  0  0  0
  138.3740   69.3110  222.1170 N   0  0  0  0  0  0  0  0  0  0  0  0
  139.6890   70.1480  223.9050 C   0  0  2  0  0  0  0  0  0  0  0  0
  139.0450   68.9780  224.6090 C   0  0  0  0  0  0  0  0  0  0  0  0
  139.7410   69.0900  225.9440 C   0  0  0  0  0  0  0  0  0  0  0  0
  140.0490   68.1190  226.8750 C   0  0  0  0  0  0  0  0  0  0  0  0
  140.7020   68.4880  228.0350 C   0  0  0  0  0  0  0  0  0  0  0  0
  141.0230   69.8120  228.2200 C   0  0  0  0  0  0  0  0  0  0  0  0
  140.7290   70.8010  227.3120 C   0  0  0  0  0  0  0  0  0  0  0  0
  141.0970   72.2210  227.5570 C   0  0  0  0  0  0  0  0  0  0  0  0
  140.0770   70.4340  226.1520 C   0  0  0  0  0  0  0  0  0  0  0  0
  139.5930   71.2060  224.9450 C   0  0  0  0  0  0  0  0  0  0  0  0
  137.8630   74.0710  221.9610 C   0  0  0  0  0  0  0  0  0  0  0  0
  138.7600   75.2870  222.2840 C   0  0  0  0  0  0  0  0  0  0  0  0
  143.8425   76.6522  218.7051 H   0  0  0  0  0  0  0  0  0  0  0  0
  142.3203   76.5453  217.7573 H   0  0  0  0  0  0  0  0  0  0  0  0
  143.2732   78.0680  217.7573 H   0  0  0  0  0  0  0  0  0  0  0  0
  142.8063   78.3871  220.1335 H   0  0  0  0  0  0  0  0  0  0  0  0
  141.2719   78.2009  219.2011 H   0  0  0  0  0  0  0  0  0  0  0  0
  138.4150   78.1955  221.3837 H   0  0  0  0  0  0  0  0  0  0  0  0
  138.2385   80.0799  222.9867 H   0  0  0  0  0  0  0  0  0  0  0  0
  140.1285   80.5617  224.5246 H   0  0  0  0  0  0  0  0  0  0  0  0
  142.1823   79.1848  224.4892 H   0  0  0  0  0  0  0  0  0  0  0  0
  142.3584   77.2878  222.8769 H   0  0  0  0  0  0  0  0  0  0  0  0
  138.7815   75.9842  220.3381 H   0  0  0  0  0  0  0  0  0  0  0  0
  139.3290   74.1411  219.4754 H   0  0  0  0  0  0  0  0  0  0  0  0
  141.0410   74.5174  220.0588 H   0  0  0  0  0  0  0  0  0  0  0  0
  140.1813   72.2017  220.5057 H   0  0  0  0  0  0  0  0  0  0  0  0
  140.8404   73.1402  221.8936 H   0  0  0  0  0  0  0  0  0  0  0  0
  139.9306   70.6781  221.8714 H   0  0  0  0  0  0  0  0  0  0  0  0
  137.3550   69.5270  222.1870 H   0  0  0  0  0  0  0  0  0  0  0  0
  138.6420   69.0340  221.1280 H   0  0  0  0  0  0  0  0  0  0  0  0
  140.7270   69.9713  223.5867 H   0  0  0  0  0  0  0  0  0  0  0  0
  137.9557   69.1010  224.7006 H   0  0  0  0  0  0  0  0  0  0  0  0
  139.1487   68.0070  224.1025 H   0  0  0  0  0  0  0  0  0  0  0  0
  139.7788   67.0678  226.6962 H   0  0  0  0  0  0  0  0  0  0  0  0
  140.9602   67.7370  228.7961 H   0  0  0  0  0  0  0  0  0  0  0  0
  141.5441   70.0956  229.1463 H   0  0  0  0  0  0  0  0  0  0  0  0
  141.1449   72.4057  228.6403 H   0  0  0  0  0  0  0  0  0  0  0  0
  142.0786   72.4285  227.1060 H   0  0  0  0  0  0  0  0  0  0  0  0
  140.3397   72.8791  227.1060 H   0  0  0  0  0  0  0  0  0  0  0  0
  138.5591   71.5588  225.0740 H   0  0  0  0  0  0  0  0  0  0  0  0
  140.1583   72.1237  224.7253 H   0  0  0  0  0  0  0  0  0  0  0  0
  137.3365   74.2258  221.0077 H   0  0  0  0  0  0  0  0  0  0  0  0
  137.0953   73.9174  222.7336 H   0  0  0  0  0  0  0  0  0  0  0  0
  138.1471   76.1604  222.5514 H   0  0  0  0  0  0  0  0  0  0  0  0
  139.4243   75.0970  223.1399 H   0  0  0  0  0  0  0  0  0  0  0  0
  1  2  1  0
  2  3  1  0
  3  4  2  0
  3  5  1  0
  5  6  1  0
  6  7  2  0
  7  8  1  0
  8  9  2  0
  9 10  1  0
 10 11  2  0
  5 12  1  0
 12 13  1  0
 13 14  1  0
 14 15  1  0
 15 16  1  0
 16 17  2  0
 16 18  1  0
 18 19  1  0
 18 20  1  0
 20 21  1  0
 21 22  1  0
 22 23  2  0
 23 24  1  0
 24 25  2  0
 25 26  1  0
 26 27  1  0
 26 28  2  0
 28 29  1  0
 15 30  1  0
 30 31  1  0
 11  6  1  0
 31 12  1  0
 29 20  1  0
 28 22  1  0
  1 32  1  0
  1 33  1  0
  1 34  1  0
  2 35  1  0
  2 36  1  0
  7 37  1  0
  8 38  1  0
  9 39  1  0
 10 40  1  0
 11 41  1  0
 12 42  1  0
 13 43  1  0
 13 44  1  0
 14 45  1  0
 14 46  1  0
 18 47  1  6
 19 48  1  0
 19 49  1  0
 20 50  1  6
 21 51  1  0
 21 52  1  0
 23 53  1  0
 24 54  1  0
 25 55  1  0
 27 56  1  0
 27 57  1  0
 27 58  1  0
 29 59  1  0
 29 60  1  0
 30 61  1  0
 30 62  1  0
 31 63  1  0
 31 64  1  0
M  END
>  <smiles>  (17) 
CCC(=O)N(c1ccccc1)C1CCN(C(=O)[C@H](N)C2Cc3cccc(C)c3C2)CC1

>  <score_type>  (17) 
oracle

>  <origin>  (17) 
autodockgpu

>  <m_score__min__energy>  (17) 
-8.7400000000000002

>  <m_primary>  (17) 
energy

>  <rmsd>  (17) 
9.625316213176028

>  <m_score__min__rmsd>  (17) 
9.625316213176028

>  <meeko>  (17) 
{"free_energy": -8.09, "intermolecular_energy": -10.18, "internal_energy": -2.02, "cluster_size": 16, "cluster_id": 2, "rank_in_cluster": 11}

>  <energy>  (17) 
-8.14

>  <cluster_rmsd>  (17) 
0.6

>  <cluster>  (17) 
2

$$$$

     RDKit          3D

 64 67  0  0  0  0  0  0  0  0999 V2000
  142.5520   80.4990  223.0560 C   0  0  0  0  0  0  0  0  0  0  0  0
  142.0060   79.4430  222.1410 C   0  0  0  0  0  0  0  0  0  0  0  0
  141.1910   78.4380  222.9170 C   0  0  0  0  0  0  0  0  0  0  0  0
  141.8120   77.8500  223.8370 O   0  0  0  0  0  0  0  0  0  0  0  0
  139.8260   78.1990  222.6030 N   0  0  0  0  0  0  0  0  0  0  0  0
  138.9030   79.2270  223.0370 C   0  0  0  0  0  0  0  0  0  0  0  0
  139.1320   79.9680  224.1710 C   0  0  0  0  0  0  0  0  0  0  0  0
  138.2240   80.9230  224.5250 C   0  0  0  0  0  0  0  0  0  0  0  0
  137.0960   81.1200  223.7340 C   0  0  0  0  0  0  0  0  0  0  0  0
  136.8750   80.3730  222.5980 C   0  0  0  0  0  0  0  0  0  0  0  0
  137.7880   79.4080  222.2380 C   0  0  0  0  0  0  0  0  0  0  0  0
  139.3540   77.0290  221.8980 C   0  0  0  0  0  0  0  0  0  0  0  0
  140.4390   76.2710  221.2340 C   0  0  0  0  0  0  0  0  0  0  0  0
  140.7030   74.8930  221.7660 C   0  0  0  0  0  0  0  0  0  0  0  0
  139.4660   74.1670  221.8920 N   0  0  0  0  0  0  0  0  0  0  0  0
  139.3710   72.7610  222.0830 C   0  0  0  0  0  0  0  0  0  0  0  0
  138.1990   72.2260  222.1550 O   0  0  0  0  0  0  0  0  0  0  0  0
  140.4950   71.8350  222.2100 C   0  0  2  0  0  0  0  0  0  0  0  0
  140.5860   70.8720  221.1420 N   0  0  0  0  0  0  0  0  0  0  0  0
  140.5690   71.0930  223.5040 C   0  0  2  0  0  0  0  0  0  0  0  0
  139.5490   69.9890  223.6550 C   0  0  0  0  0  0  0  0  0  0  0  0
  139.8010   69.6260  225.0980 C   0  0  0  0  0  0  0  0  0  0  0  0
  139.6340   68.4270  225.7610 C   0  0  0  0  0  0  0  0  0  0  0  0
  139.9440   68.3570  227.1050 C   0  0  0  0  0  0  0  0  0  0  0  0
  140.4100   69.4860  227.7350 C   0  0  0  0  0  0  0  0  0  0  0  0
  140.5860   70.6940  227.1030 C   0  0  0  0  0  0  0  0  0  0  0  0
  141.0930   71.8890  227.8290 C   0  0  0  0  0  0  0  0  0  0  0  0
  140.2770   70.7660  225.7600 C   0  0  0  0  0  0  0  0  0  0  0  0
  140.3330   71.8820  224.7410 C   0  0  0  0  0  0  0  0  0  0  0  0
  138.1930   74.9120  221.8420 C   0  0  0  0  0  0  0  0  0  0  0  0
  138.4130   76.1770  222.7010 C   0  0  0  0  0  0  0  0  0  0  0  0
  142.3949   80.1952  224.1015 H   0  0  0  0  0  0  0  0  0  0  0  0
  143.6285   80.6255  222.8687 H   0  0  0  0  0  0  0  0  0  0  0  0
  142.0329   81.4506  222.8687 H   0  0  0  0  0  0  0  0  0  0  0  0
  141.3671   79.9176  221.3817 H   0  0  0  0  0  0  0  0  0  0  0  0
  142.8465   78.9220  221.6592 H   0  0  0  0  0  0  0  0  0  0  0  0
  140.0302   79.7947  224.7819 H   0  0  0  0  0  0  0  0  0  0  0  0
  138.3821   81.5317  225.4275 H   0  0  0  0  0  0  0  0  0  0  0  0
  136.3646   81.8894  224.0224 H   0  0  0  0  0  0  0  0  0  0  0  0
  135.9782   80.5459  221.9849 H   0  0  0  0  0  0  0  0  0  0  0  0
  137.6350   78.7956  221.3371 H   0  0  0  0  0  0  0  0  0  0  0  0
  138.7339   77.4152  221.0756 H   0  0  0  0  0  0  0  0  0  0  0  0
  140.1797   76.1762  220.1692 H   0  0  0  0  0  0  0  0  0  0  0  0
  141.3589   76.8429  221.4256 H   0  0  0  0  0  0  0  0  0  0  0  0
  141.3705   74.3576  221.0748 H   0  0  0  0  0  0  0  0  0  0  0  0
  141.1763   74.9732  222.7557 H   0  0  0  0  0  0  0  0  0  0  0  0
  141.3488   72.5268  222.1601 H   0  0  0  0  0  0  0  0  0  0  0  0
  139.6210   70.6970  220.7850 H   0  0  0  0  0  0  0  0  0  0  0  0
  141.2300   71.2030  220.3660 H   0  0  0  0  0  0  0  0  0  0  0  0
  141.6091   70.7435  223.4264 H   0  0  0  0  0  0  0  0  0  0  0  0
  138.5229   70.3514  223.4946 H   0  0  0  0  0  0  0  0  0  0  0  0
  139.6406   69.1606  222.9371 H   0  0  0  0  0  0  0  0  0  0  0  0
  139.2598   67.5410  225.2272 H   0  0  0  0  0  0  0  0  0  0  0  0
  139.8203   67.4157  227.6605 H   0  0  0  0  0  0  0  0  0  0  0  0
  140.6560   69.4193  228.8051 H   0  0  0  0  0  0  0  0  0  0  0  0
  141.0203   71.7176  228.9131 H   0  0  0  0  0  0  0  0  0  0  0  0
  142.1437   72.0658  227.5554 H   0  0  0  0  0  0  0  0  0  0  0  0
  140.4900   72.7674  227.5554 H   0  0  0  0  0  0  0  0  0  0  0  0
  139.3861   72.4399  224.6946 H   0  0  0  0  0  0  0  0  0  0  0  0
  141.0856   72.6577  224.9455 H   0  0  0  0  0  0  0  0  0  0  0  0
  137.9520   75.1899  220.8053 H   0  0  0  0  0  0  0  0  0  0  0  0
  137.3545   74.3074  222.2181 H   0  0  0  0  0  0  0  0  0  0  0  0
  137.4611   76.7025  222.8674 H   0  0  0  0  0  0  0  0  0  0  0  0
  138.8168   75.9376  223.6958 H   0  0  0  0  0  0  0  0  0  0  0  0
  1  2  1  0
  2  3  1  0
  3  4  2  0
  3  5  1  0
  5  6  1  0
  6  7  2  0
  7  8  1  0
  8  9  2  0
  9 10  1  0
 10 11  2  0
  5 12  1  0
 12 13  1  0
 13 14  1  0
 14 15  1  0
 15 16  1  0
 16 17  2  0
 16 18  1  0
 18 19  1  0
 18 20  1  0
 20 21  1  0
 21 22  1  0
 22 23  2  0
 23 24  1  0
 24 25  2  0
 25 26  1  0
 26 27  1  0
 26 28  2  0
 28 29  1  0
 15 30  1  0
 30 31  1  0
 11  6  1  0
 31 12  1  0
 29 20  1  0
 28 22  1  0
  1 32  1  0
  1 33  1  0
  1 34  1  0
  2 35  1  0
  2 36  1  0
  7 37  1  0
  8 38  1  0
  9 39  1  0
 10 40  1  0
 11 41  1  0
 12 42  1  0
 13 43  1  0
 13 44  1  0
 14 45  1  0
 14 46  1  0
 18 47  1  6
 19 48  1  0
 19 49  1  0
 20 50  1  1
 21 51  1  0
 21 52  1  0
 23 53  1  0
 24 54  1  0
 25 55  1  0
 27 56  1  0
 27 57  1  0
 27 58  1  0
 29 59  1  0
 29 60  1  0
 30 61  1  0
 30 62  1  0
 31 63  1  0
 31 64  1  0
M  END
>  <smiles>  (18) 
CCC(=O)N(c1ccccc1)C1CCN(C(=O)[C@H](N)C2Cc3cccc(C)c3C2)CC1

>  <score_type>  (18) 
oracle

>  <origin>  (18) 
autodockgpu

>  <m_score__min__energy>  (18) 
-8.7400000000000002

>  <m_primary>  (18) 
energy

>  <rmsd>  (18) 
8.993728468060691

>  <m_score__min__rmsd>  (18) 
8.993728468060691

>  <meeko>  (18) 
{"free_energy": -8.26, "intermolecular_energy": -10.35, "internal_energy": -1.93, "cluster_size": 16, "cluster_id": 2, "rank_in_cluster": 2}

>  <energy>  (18) 
-8.14

>  <cluster_rmsd>  (18) 
0.34

>  <cluster>  (18) 
2

$$$$

     RDKit          3D

 64 67  0  0  0  0  0  0  0  0999 V2000
  144.8090   74.1290  220.4840 C   0  0  0  0  0  0  0  0  0  0  0  0
  143.3500   74.0780  220.8320 C   0  0  0  0  0  0  0  0  0  0  0  0
  142.6240   75.2690  220.2560 C   0  0  0  0  0  0  0  0  0  0  0  0
  143.2250   75.8510  219.3190 O   0  0  0  0  0  0  0  0  0  0  0  0
  141.3590   75.6720  220.7600 N   0  0  0  0  0  0  0  0  0  0  0  0
  141.3220   76.9960  221.3460 C   0  0  0  0  0  0  0  0  0  0  0  0
  141.0720   77.1850  222.6840 C   0  0  0  0  0  0  0  0  0  0  0  0
  141.0520   78.4580  223.1740 C   0  0  0  0  0  0  0  0  0  0  0  0
  141.2810   79.5260  222.3120 C   0  0  0  0  0  0  0  0  0  0  0  0
  141.5310   79.3280  220.9710 C   0  0  0  0  0  0  0  0  0  0  0  0
  141.5510   78.0450  220.4730 C   0  0  0  0  0  0  0  0  0  0  0  0
  140.1700   74.8520  220.7050 C   0  0  0  0  0  0  0  0  0  0  0  0
  140.4200   73.5010  220.1560 C   0  0  0  0  0  0  0  0  0  0  0  0
  140.2310   72.3550  221.1070 C   0  0  0  0  0  0  0  0  0  0  0  0
  138.9750   72.4910  221.7980 N   0  0  0  0  0  0  0  0  0  0  0  0
  138.3470   71.4540  222.5420 C   0  0  0  0  0  0  0  0  0  0  0  0
  137.2070   71.6950  223.0940 O   0  0  0  0  0  0  0  0  0  0  0  0
  138.8770   70.1070  222.7510 C   0  0  2  0  0  0  0  0  0  0  0  0
  137.9140   69.0580  222.5380 N   0  0  0  0  0  0  0  0  0  0  0  0
  139.5230   69.8740  224.0770 C   0  0  2  0  0  0  0  0  0  0  0  0
  138.8780   68.7920  224.9100 C   0  0  0  0  0  0  0  0  0  0  0  0
  139.6520   68.9830  226.1920 C   0  0  0  0  0  0  0  0  0  0  0  0
  139.9760   68.0780  227.1830 C   0  0  0  0  0  0  0  0  0  0  0  0
  140.7070   68.5130  228.2720 C   0  0  0  0  0  0  0  0  0  0  0  0
  141.0850   69.8330  228.3290 C   0  0  0  0  0  0  0  0  0  0  0  0
  140.7770   70.7570  227.3580 C   0  0  0  0  0  0  0  0  0  0  0  0
  141.2090   72.1760  227.4650 C   0  0  0  0  0  0  0  0  0  0  0  0
  140.0470   70.3240  226.2700 C   0  0  0  0  0  0  0  0  0  0  0  0
  139.5240   71.0150  225.0300 C   0  0  0  0  0  0  0  0  0  0  0  0
  138.2770   73.7900  221.7630 C   0  0  0  0  0  0  0  0  0  0  0  0
  139.3710   74.8600  221.9760 C   0  0  0  0  0  0  0  0  0  0  0  0
  145.4058   74.1499  221.4078 H   0  0  0  0  0  0  0  0  0  0  0  0
  145.0767   73.2397  219.8946 H   0  0  0  0  0  0  0  0  0  0  0  0
  145.0139   75.0349  219.8946 H   0  0  0  0  0  0  0  0  0  0  0  0
  142.9128   73.1555  220.4224 H   0  0  0  0  0  0  0  0  0  0  0  0
  143.2461   74.0952  221.9269 H   0  0  0  0  0  0  0  0  0  0  0  0
  140.8915   76.3262  223.3473 H   0  0  0  0  0  0  0  0  0  0  0  0
  140.8565   78.6386  224.2413 H   0  0  0  0  0  0  0  0  0  0  0  0
  141.2621   80.5514  222.7097 H   0  0  0  0  0  0  0  0  0  0  0  0
  141.7125   80.1856  220.3064 H   0  0  0  0  0  0  0  0  0  0  0  0
  141.7444   77.8579  219.4064 H   0  0  0  0  0  0  0  0  0  0  0  0
  139.5125   75.3393  219.9699 H   0  0  0  0  0  0  0  0  0  0  0  0
  139.7348   73.3507  219.3087 H   0  0  0  0  0  0  0  0  0  0  0  0
  141.4857   73.4858  219.8840 H   0  0  0  0  0  0  0  0  0  0  0  0
  140.2368   71.4098  220.5443 H   0  0  0  0  0  0  0  0  0  0  0  0
  141.0496   72.3565  221.8418 H   0  0  0  0  0  0  0  0  0  0  0  0
  139.6550   70.0597  221.9749 H   0  0  0  0  0  0  0  0  0  0  0  0
  136.9600   69.4720  222.6350 H   0  0  0  0  0  0  0  0  0  0  0  0
  138.0380   68.5930  221.5930 H   0  0  0  0  0  0  0  0  0  0  0  0
  140.5340   69.6303  223.7184 H   0  0  0  0  0  0  0  0  0  0  0  0
  137.8009   68.9664  225.0493 H   0  0  0  0  0  0  0  0  0  0  0  0
  138.9178   67.7798  224.4813 H   0  0  0  0  0  0  0  0  0  0  0  0
  139.6575   67.0279  227.1069 H   0  0  0  0  0  0  0  0  0  0  0  0
  140.9811   67.8161  229.0778 H   0  0  0  0  0  0  0  0  0  0  0  0
  141.6665   70.1694  229.2000 H   0  0  0  0  0  0  0  0  0  0  0  0
  141.2938   72.4545  228.5258 H   0  0  0  0  0  0  0  0  0  0  0  0
  142.1856   72.3000  226.9742 H   0  0  0  0  0  0  0  0  0  0  0  0
  140.4672   72.8231  226.9742 H   0  0  0  0  0  0  0  0  0  0  0  0
  138.5124   71.4187  225.1840 H   0  0  0  0  0  0  0  0  0  0  0  0
  140.1092   71.8881  224.7055 H   0  0  0  0  0  0  0  0  0  0  0  0
  137.7841   73.9342  220.7902 H   0  0  0  0  0  0  0  0  0  0  0  0
  137.4948   73.8508  222.5340 H   0  0  0  0  0  0  0  0  0  0  0  0
  138.9185   75.8487  222.1427 H   0  0  0  0  0  0  0  0  0  0  0  0
  139.9929   74.6473  222.8580 H   0  0  0  0  0  0  0  0  0  0  0  0
  1  2  1  0
  2  3  1  0
  3  4  2  0
  3  5  1  0
  5  6  1  0
  6  7  2  0
  7  8  1  0
  8  9  2  0
  9 10  1  0
 10 11  2  0
  5 12  1  0
 12 13  1  0
 13 14  1  0
 14 15  1  0
 15 16  1  0
 16 17  2  0
 16 18  1  0
 18 19  1  0
 18 20  1  0
 20 21  1  0
 21 22  1  0
 22 23  2  0
 23 24  1  0
 24 25  2  0
 25 26  1  0
 26 27  1  0
 26 28  2  0
 28 29  1  0
 15 30  1  0
 30 31  1  0
 11  6  1  0
 31 12  1  0
 29 20  1  0
 28 22  1  0
  1 32  1  0
  1 33  1  0
  1 34  1  0
  2 35  1  0
  2 36  1  0
  7 37  1  0
  8 38  1  0
  9 39  1  0
 10 40  1  0
 11 41  1  0
 12 42  1  0
 13 43  1  0
 13 44  1  0
 14 45  1  0
 14 46  1  0
 18 47  1  6
 19 48  1  0
 19 49  1  0
 20 50  1  6
 21 51  1  0
 21 52  1  0
 23 53  1  0
 24 54  1  0
 25 55  1  0
 27 56  1  0
 27 57  1  0
 27 58  1  0
 29 59  1  0
 29 60  1  0
 30 61  1  0
 30 62  1  0
 31 63  1  0
 31 64  1  0
M  END
>  <smiles>  (19) 
CCC(=O)N(c1ccccc1)C1CCN(C(=O)[C@H](N)C2Cc3cccc(C)c3C2)CC1

>  <score_type>  (19) 
oracle

>  <origin>  (19) 
autodockgpu

>  <m_score__min__energy>  (19) 
-8.7400000000000002

>  <m_primary>  (19) 
energy

>  <rmsd>  (19) 
9.804811388925245

>  <m_score__min__rmsd>  (19) 
9.804811388925245

>  <meeko>  (19) 
{"free_energy": -8.15, "intermolecular_energy": -10.24, "internal_energy": -1.93, "cluster_size": 6, "cluster_id": 4, "rank_in_cluster": 1}

>  <energy>  (19) 
-8.13

>  <cluster_rmsd>  (19) 
1.77

>  <cluster>  (19) 
2

$$$$

     RDKit          3D

 64 67  0  0  0  0  0  0  0  0999 V2000
  130.8600   71.7260  227.2540 C   0  0  0  0  0  0  0  0  0  0  0  0
  131.9870   70.8490  226.7940 C   0  0  0  0  0  0  0  0  0  0  0  0
  133.2880   71.6130  226.7890 C   0  0  0  0  0  0  0  0  0  0  0  0
  134.0000   71.4500  227.8110 O   0  0  0  0  0  0  0  0  0  0  0  0
  133.6490   72.4440  225.6950 N   0  0  0  0  0  0  0  0  0  0  0  0
  133.4980   73.8660  225.9250 C   0  0  0  0  0  0  0  0  0  0  0  0
  134.5870   74.6940  226.0580 C   0  0  0  0  0  0  0  0  0  0  0  0
  134.3770   76.0250  226.2720 C   0  0  0  0  0  0  0  0  0  0  0  0
  133.0750   76.5070  226.3510 C   0  0  0  0  0  0  0  0  0  0  0  0
  131.9880   75.6700  226.2160 C   0  0  0  0  0  0  0  0  0  0  0  0
  132.1960   74.3260  226.0010 C   0  0  0  0  0  0  0  0  0  0  0  0
  134.1390   71.9460  224.4300 C   0  0  0  0  0  0  0  0  0  0  0  0
  135.2900   72.7160  223.9070 C   0  0  0  0  0  0  0  0  0  0  0  0
  136.5940   71.9790  223.8230 C   0  0  0  0  0  0  0  0  0  0  0  0
  136.3990   70.7020  223.1880 N   0  0  0  0  0  0  0  0  0  0  0  0
  137.4470   69.8800  222.6870 C   0  0  0  0  0  0  0  0  0  0  0  0
  137.1380   68.7670  222.1150 O   0  0  0  0  0  0  0  0  0  0  0  0
  138.8770   70.1770  222.7580 C   0  0  2  0  0  0  0  0  0  0  0  0
  139.6660   69.5050  221.7580 N   0  0  0  0  0  0  0  0  0  0  0  0
  139.5150   69.9330  224.0860 C   0  0  2  0  0  0  0  0  0  0  0  0
  138.8430   68.8690  224.9210 C   0  0  0  0  0  0  0  0  0  0  0  0
  139.6190   69.0460  226.2030 C   0  0  0  0  0  0  0  0  0  0  0  0
  139.9200   68.1370  227.1980 C   0  0  0  0  0  0  0  0  0  0  0  0
  140.6590   68.5590  228.2870 C   0  0  0  0  0  0  0  0  0  0  0  0
  141.0670   69.8700  228.3410 C   0  0  0  0  0  0  0  0  0  0  0  0
  140.7830   70.7970  227.3670 C   0  0  0  0  0  0  0  0  0  0  0  0
  141.2480   72.2060  227.4690 C   0  0  0  0  0  0  0  0  0  0  0  0
  140.0450   70.3780  226.2780 C   0  0  0  0  0  0  0  0  0  0  0  0
  139.5410   71.0770  225.0350 C   0  0  0  0  0  0  0  0  0  0  0  0
  135.0270   70.1750  223.0500 C   0  0  0  0  0  0  0  0  0  0  0  0
  134.3320   70.4570  224.4010 C   0  0  0  0  0  0  0  0  0  0  0  0
  130.8355   71.7451  228.3536 H   0  0  0  0  0  0  0  0  0  0  0  0
  131.0107   72.7468  226.8728 H   0  0  0  0  0  0  0  0  0  0  0  0
  129.9075   71.3292  226.8728 H   0  0  0  0  0  0  0  0  0  0  0  0
  132.0759   69.9887  227.4737 H   0  0  0  0  0  0  0  0  0  0  0  0
  131.7738   70.5060  225.7708 H   0  0  0  0  0  0  0  0  0  0  0  0
  135.6085   74.2912  225.9931 H   0  0  0  0  0  0  0  0  0  0  0  0
  135.2301   76.7108  226.3811 H   0  0  0  0  0  0  0  0  0  0  0  0
  132.9087   77.5803  226.5251 H   0  0  0  0  0  0  0  0  0  0  0  0
  130.9658   76.0714  226.2793 H   0  0  0  0  0  0  0  0  0  0  0  0
  131.3471   73.6349  225.8923 H   0  0  0  0  0  0  0  0  0  0  0  0
  133.3272   72.1274  223.7102 H   0  0  0  0  0  0  0  0  0  0  0  0
  135.0322   73.0594  222.8943 H   0  0  0  0  0  0  0  0  0  0  0  0
  135.4556   73.5278  224.6306 H   0  0  0  0  0  0  0  0  0  0  0  0
  137.3102   72.5721  223.2355 H   0  0  0  0  0  0  0  0  0  0  0  0
  136.9847   71.8206  224.8390 H   0  0  0  0  0  0  0  0  0  0  0  0
  138.8807   71.2604  222.5677 H   0  0  0  0  0  0  0  0  0  0  0  0
  139.2270   68.5750  221.5740 H   0  0  0  0  0  0  0  0  0  0  0  0
  139.7450   70.0760  220.8670 H   0  0  0  0  0  0  0  0  0  0  0  0
  140.5207   69.6642  223.7306 H   0  0  0  0  0  0  0  0  0  0  0  0
  137.7701   69.0692  225.0579 H   0  0  0  0  0  0  0  0  0  0  0  0
  138.8594   67.8548  224.4955 H   0  0  0  0  0  0  0  0  0  0  0  0
  139.5773   67.0943  227.1251 H   0  0  0  0  0  0  0  0  0  0  0  0
  140.9157   67.8585  229.0953 H   0  0  0  0  0  0  0  0  0  0  0  0
  141.6537   70.1957  229.2126 H   0  0  0  0  0  0  0  0  0  0  0  0
  141.3404   72.4858  228.5288 H   0  0  0  0  0  0  0  0  0  0  0  0
  142.2267   72.3057  226.9768 H   0  0  0  0  0  0  0  0  0  0  0  0
  140.5209   72.8686  226.9768 H   0  0  0  0  0  0  0  0  0  0  0  0
  138.5389   71.5050  225.1856 H   0  0  0  0  0  0  0  0  0  0  0  0
  140.1471   71.9350  224.7088 H   0  0  0  0  0  0  0  0  0  0  0  0
  134.4994   70.6887  222.2328 H   0  0  0  0  0  0  0  0  0  0  0  0
  135.0270   69.1015  222.8101 H   0  0  0  0  0  0  0  0  0  0  0  0
  133.3627   69.9396  224.4535 H   0  0  0  0  0  0  0  0  0  0  0  0
  134.9247   70.0985  225.2555 H   0  0  0  0  0  0  0  0  0  0  0  0
  1  2  1  0
  2  3  1  0
  3  4  2  0
  3  5  1  0
  5  6  1  0
  6  7  2  0
  7  8  1  0
  8  9  2  0
  9 10  1  0
 10 11  2  0
  5 12  1  0
 12 13  1  0
 13 14  1  0
 14 15  1  0
 15 16  1  0
 16 17  2  0
 16 18  1  0
 18 19  1  0
 18 20  1  0
 20 21  1  0
 21 22  1  0
 22 23  2  0
 23 24  1  0
 24 25  2  0
 25 26  1  0
 26 27  1  0
 26 28  2  0
 28 29  1  0
 15 30  1  0
 30 31  1  0
 11  6  1  0
 31 12  1  0
 29 20  1  0
 28 22  1  0
  1 32  1  0
  1 33  1  0
  1 34  1  0
  2 35  1  0
  2 36  1  0
  7 37  1  0
  8 38  1  0
  9 39  1  0
 10 40  1  0
 11 41  1  0
 12 42  1  0
 13 43  1  0
 13 44  1  0
 14 45  1  0
 14 46  1  0
 18 47  1  6
 19 48  1  0
 19 49  1  0
 20 50  1  6
 21 51  1  0
 21 52  1  0
 23 53  1  0
 24 54  1  0
 25 55  1  0
 27 56  1  0
 27 57  1  0
 27 58  1  0
 29 59  1  0
 29 60  1  0
 30 61  1  0
 30 62  1  0
 31 63  1  0
 31 64  1  0
M  END
>  <smiles>  (20) 
CCC(=O)N(c1ccccc1)C1CCN(C(=O)[C@H](N)C2Cc3cccc(C)c3C2)CC1

>  <score_type>  (20) 
oracle

>  <origin>  (20) 
autodockgpu

>  <m_score__min__energy>  (20) 
-8.7400000000000002

>  <m_primary>  (20) 
energy

>  <rmsd>  (20) 
11.438343207290053

>  <m_score__min__rmsd>  (20) 
11.438343207290053

>  <meeko>  (20) 
{"free_energy": -7.27, "intermolecular_energy": -9.35, "internal_energy": -2.34, "cluster_size": 3, "cluster_id": 9, "rank_in_cluster": 3}

>  <energy>  (20) 
-8.11

>  <cluster_rmsd>  (20) 
1.9

>  <cluster>  (20) 
2

$$$$

     RDKit          3D

 64 67  0  0  0  0  0  0  0  0999 V2000
  145.9790   74.1310  221.2240 C   0  0  0  0  0  0  0  0  0  0  0  0
  146.0530   72.6790  220.8490 C   0  0  0  0  0  0  0  0  0  0  0  0
  145.5700   72.4700  219.4340 C   0  0  0  0  0  0  0  0  0  0  0  0
  146.2650   73.0310  218.5510 O   0  0  0  0  0  0  0  0  0  0  0  0
  144.4130   71.6940  219.1600 N   0  0  0  0  0  0  0  0  0  0  0  0
  144.6690   70.3340  218.7310 C   0  0  0  0  0  0  0  0  0  0  0  0
  144.9530   70.0330  217.4200 C   0  0  0  0  0  0  0  0  0  0  0  0
  145.1850   68.7330  217.0820 C   0  0  0  0  0  0  0  0  0  0  0  0
  145.1280   67.7500  218.0650 C   0  0  0  0  0  0  0  0  0  0  0  0
  144.8420   68.0600  219.3770 C   0  0  0  0  0  0  0  0  0  0  0  0
  144.6060   69.3720  219.7230 C   0  0  0  0  0  0  0  0  0  0  0  0
  143.0610   72.1870  219.2910 C   0  0  0  0  0  0  0  0  0  0  0  0
  142.0430   71.1130  219.2600 C   0  0  0  0  0  0  0  0  0  0  0  0
  141.2660   70.9020  220.5270 C   0  0  0  0  0  0  0  0  0  0  0  0
  140.7810   72.1640  221.0230 N   0  0  0  0  0  0  0  0  0  0  0  0
  139.7790   72.3060  222.0230 C   0  0  0  0  0  0  0  0  0  0  0  0
  139.4110   73.4950  222.3620 O   0  0  0  0  0  0  0  0  0  0  0  0
  139.1050   71.2140  222.7240 C   0  0  2  0  0  0  0  0  0  0  0  0
  137.6690   71.2460  222.6180 N   0  0  0  0  0  0  0  0  0  0  0  0
  139.4560   71.0690  224.1680 C   0  0  2  0  0  0  0  0  0  0  0  0
  140.6400   71.8950  224.6140 C   0  0  0  0  0  0  0  0  0  0  0  0
  140.7970   71.3520  226.0130 C   0  0  0  0  0  0  0  0  0  0  0  0
  141.2990   71.9490  227.1520 C   0  0  0  0  0  0  0  0  0  0  0  0
  141.3320   71.2230  228.3280 C   0  0  0  0  0  0  0  0  0  0  0  0
  140.8630   69.9320  228.3200 C   0  0  0  0  0  0  0  0  0  0  0  0
  140.3580   69.3100  227.2030 C   0  0  0  0  0  0  0  0  0  0  0  0
  139.8610   67.9090  227.2450 C   0  0  0  0  0  0  0  0  0  0  0  0
  140.3240   70.0330  226.0270 C   0  0  0  0  0  0  0  0  0  0  0  0
  139.8570   69.7120  224.6260 C   0  0  0  0  0  0  0  0  0  0  0  0
  141.3580   73.4110  220.4880 C   0  0  0  0  0  0  0  0  0  0  0  0
  142.8820   73.1700  220.4120 C   0  0  0  0  0  0  0  0  0  0  0  0
  145.9741   74.2269  222.3198 H   0  0  0  0  0  0  0  0  0  0  0  0
  146.8513   74.6606  220.8135 H   0  0  0  0  0  0  0  0  0  0  0  0
  145.0574   74.5692  220.8135 H   0  0  0  0  0  0  0  0  0  0  0  0
  147.0956   72.3377  220.9292 H   0  0  0  0  0  0  0  0  0  0  0  0
  145.4104   72.1034  221.5315 H   0  0  0  0  0  0  0  0  0  0  0  0
  144.9923   70.8259  216.6585 H   0  0  0  0  0  0  0  0  0  0  0  0
  145.4154   68.4633  216.0407 H   0  0  0  0  0  0  0  0  0  0  0  0
  145.3154   66.7019  217.7888 H   0  0  0  0  0  0  0  0  0  0  0  0
  144.8026   67.2682  220.1395 H   0  0  0  0  0  0  0  0  0  0  0  0
  144.3733   69.6480  220.7621 H   0  0  0  0  0  0  0  0  0  0  0  0
  142.8767   72.7775  218.3814 H   0  0  0  0  0  0  0  0  0  0  0  0
  141.3253   71.3533  218.4618 H   0  0  0  0  0  0  0  0  0  0  0  0
  142.6029   70.1801  219.0982 H   0  0  0  0  0  0  0  0  0  0  0  0
  140.4128   70.2378  220.3248 H   0  0  0  0  0  0  0  0  0  0  0  0
  141.9231   70.4457  221.2819 H   0  0  0  0  0  0  0  0  0  0  0  0
  139.4970   70.3390  222.1847 H   0  0  0  0  0  0  0  0  0  0  0  0
  137.2740   70.8360  223.4930 H   0  0  0  0  0  0  0  0  0  0  0  0
  137.3070   72.2300  222.4560 H   0  0  0  0  0  0  0  0  0  0  0  0
  138.4934   71.3851  224.5963 H   0  0  0  0  0  0  0  0  0  0  0  0
  141.5304   71.7058  223.9964 H   0  0  0  0  0  0  0  0  0  0  0  0
  140.5088   72.9848  224.5427 H   0  0  0  0  0  0  0  0  0  0  0  0
  141.6667   72.9853  227.1243 H   0  0  0  0  0  0  0  0  0  0  0  0
  141.7262   71.6706  229.2523 H   0  0  0  0  0  0  0  0  0  0  0  0
  140.8933   69.3634  229.2612 H   0  0  0  0  0  0  0  0  0  0  0  0
  139.7482   67.5912  228.2920 H   0  0  0  0  0  0  0  0  0  0  0  0
  138.8871   67.8501  226.7370 H   0  0  0  0  0  0  0  0  0  0  0  0
  140.5800   67.2495  226.7370 H   0  0  0  0  0  0  0  0  0  0  0  0
  140.6688   69.2971  224.0105 H   0  0  0  0  0  0  0  0  0  0  0  0
  139.0653   68.9507  224.5654 H   0  0  0  0  0  0  0  0  0  0  0  0
  140.9531   73.6221  219.4873 H   0  0  0  0  0  0  0  0  0  0  0  0
  141.1157   74.2751  221.1241 H   0  0  0  0  0  0  0  0  0  0  0  0
  143.4120   74.1085  220.1924 H   0  0  0  0  0  0  0  0  0  0  0  0
  143.2903   72.7945  221.3619 H   0  0  0  0  0  0  0  0  0  0  0  0
  1  2  1  0
  2  3  1  0
  3  4  2  0
  3  5  1  0
  5  6  1  0
  6  7  2  0
  7  8  1  0
  8  9  2  0
  9 10  1  0
 10 11  2  0
  5 12  1  0
 12 13  1  0
 13 14  1  0
 14 15  1  0
 15 16  1  0
 16 17  2  0
 16 18  1  0
 18 19  1  0
 18 20  1  0
 20 21  1  0
 21 22  1  0
 22 23  2  0
 23 24  1  0
 24 25  2  0
 25 26  1  0
 26 27  1  0
 26 28  2  0
 28 29  1  0
 15 30  1  0
 30 31  1  0
 11  6  1  0
 31 12  1  0
 29 20  1  0
 28 22  1  0
  1 32  1  0
  1 33  1  0
  1 34  1  0
  2 35  1  0
  2 36  1  0
  7 37  1  0
  8 38  1  0
  9 39  1  0
 10 40  1  0
 11 41  1  0
 12 42  1  0
 13 43  1  0
 13 44  1  0
 14 45  1  0
 14 46  1  0
 18 47  1  6
 19 48  1  0
 19 49  1  0
 20 50  1  1
 21 51  1  0
 21 52  1  0
 23 53  1  0
 24 54  1  0
 25 55  1  0
 27 56  1  0
 27 57  1  0
 27 58  1  0
 29 59  1  0
 29 60  1  0
 30 61  1  0
 30 62  1  0
 31 63  1  0
 31 64  1  0
M  END
>  <smiles>  (21) 
CCC(=O)N(c1ccccc1)C1CCN(C(=O)[C@H](N)C2Cc3cccc(C)c3C2)CC1

>  <score_type>  (21) 
oracle

>  <origin>  (21) 
autodockgpu

>  <m_score__min__energy>  (21) 
-8.7400000000000002

>  <m_primary>  (21) 
energy

>  <rmsd>  (21) 
8.526179236055116

>  <m_score__min__rmsd>  (21) 
8.526179236055116

>  <meeko>  (21) 
{"free_energy": -8.56, "intermolecular_energy": -10.65, "internal_energy": -1.93, "cluster_size": 10, "cluster_id": 1, "rank_in_cluster": 4}

>  <energy>  (21) 
-8.09

>  <cluster_rmsd>  (21) 
1.85

>  <cluster>  (21) 
2

$$$$

     RDKit          3D

 64 67  0  0  0  0  0  0  0  0999 V2000
  131.5690   71.9850  227.1610 C   0  0  0  0  0  0  0  0  0  0  0  0
  133.0200   72.1920  226.8420 C   0  0  0  0  0  0  0  0  0  0  0  0
  133.7480   70.8710  226.7960 C   0  0  0  0  0  0  0  0  0  0  0  0
  134.3290   70.5510  227.8620 O   0  0  0  0  0  0  0  0  0  0  0  0
  133.7560   70.0770  225.6180 N   0  0  0  0  0  0  0  0  0  0  0  0
  133.1230   68.7810  225.7430 C   0  0  0  0  0  0  0  0  0  0  0  0
  133.8480   67.6490  226.0290 C   0  0  0  0  0  0  0  0  0  0  0  0
  133.1900   66.4580  226.1350 C   0  0  0  0  0  0  0  0  0  0  0  0
  131.8120   66.4200  225.9500 C   0  0  0  0  0  0  0  0  0  0  0  0
  131.0920   67.5600  225.6630 C   0  0  0  0  0  0  0  0  0  0  0  0
  131.7520   68.7630  225.5550 C   0  0  0  0  0  0  0  0  0  0  0  0
  134.3400   70.4990  224.3650 C   0  0  0  0  0  0  0  0  0  0  0  0
  135.2480   71.6590  224.5070 C   0  0  0  0  0  0  0  0  0  0  0  0
  136.6970   71.4050  224.2080 C   0  0  0  0  0  0  0  0  0  0  0  0
  136.8260   70.7020  222.9590 N   0  0  0  0  0  0  0  0  0  0  0  0
  138.0430   70.5580  222.2350 C   0  0  0  0  0  0  0  0  0  0  0  0
  138.0210   69.9260  221.1120 O   0  0  0  0  0  0  0  0  0  0  0  0
  139.3500   71.0680  222.6460 C   0  0  2  0  0  0  0  0  0  0  0  0
  140.3760   70.9260  221.6460 N   0  0  0  0  0  0  0  0  0  0  0  0
  139.8780   70.5120  223.9280 C   0  0  2  0  0  0  0  0  0  0  0  0
  139.2200   69.2280  224.3750 C   0  0  0  0  0  0  0  0  0  0  0  0
  139.8550   69.0970  225.7380 C   0  0  0  0  0  0  0  0  0  0  0  0
  140.1360   67.9730  226.4890 C   0  0  0  0  0  0  0  0  0  0  0  0
  140.7310   68.1270  227.7270 C   0  0  0  0  0  0  0  0  0  0  0  0
  141.0230   69.3960  228.1660 C   0  0  0  0  0  0  0  0  0  0  0  0
  140.7560   70.5340  227.4420 C   0  0  0  0  0  0  0  0  0  0  0  0
  141.0910   71.8870  227.9600 C   0  0  0  0  0  0  0  0  0  0  0  0
  140.1610   70.3820  226.2050 C   0  0  0  0  0  0  0  0  0  0  0  0
  139.7200   71.3600  225.1390 C   0  0  0  0  0  0  0  0  0  0  0  0
  135.6340   70.0590  222.3750 C   0  0  0  0  0  0  0  0  0  0  0  0
  134.9070   69.3720  223.5520 C   0  0  0  0  0  0  0  0  0  0  0  0
  131.4327   71.9656  228.2523 H   0  0  0  0  0  0  0  0  0  0  0  0
  130.9783   72.8080  226.7323 H   0  0  0  0  0  0  0  0  0  0  0  0
  131.2320   71.0297  226.7323 H   0  0  0  0  0  0  0  0  0  0  0  0
  133.1079   72.6873  225.8638 H   0  0  0  0  0  0  0  0  0  0  0  0
  133.4698   72.8173  227.6273 H   0  0  0  0  0  0  0  0  0  0  0  0
  134.9377   67.7019  226.1698 H   0  0  0  0  0  0  0  0  0  0  0  0
  133.7446   65.5362  226.3647 H   0  0  0  0  0  0  0  0  0  0  0  0
  131.2847   65.4583  226.0346 H   0  0  0  0  0  0  0  0  0  0  0  0
  130.0023   67.5088  225.5219 H   0  0  0  0  0  0  0  0  0  0  0  0
  131.2029   69.6879  225.3248 H   0  0  0  0  0  0  0  0  0  0  0  0
  133.4985   70.8702  223.7616 H   0  0  0  0  0  0  0  0  0  0  0  0
  134.8969   72.4461  223.8234 H   0  0  0  0  0  0  0  0  0  0  0  0
  135.2102   71.9348  225.5712 H   0  0  0  0  0  0  0  0  0  0  0  0
  137.2291   72.3655  224.1420 H   0  0  0  0  0  0  0  0  0  0  0  0
  137.1299   70.7931  225.0131 H   0  0  0  0  0  0  0  0  0  0  0  0
  139.1262   72.1341  222.7988 H   0  0  0  0  0  0  0  0  0  0  0  0
  141.2870   70.7880  222.1380 H   0  0  0  0  0  0  0  0  0  0  0  0
  140.1720   70.1250  220.9810 H   0  0  0  0  0  0  0  0  0  0  0  0
  140.9316   70.4032  223.6312 H   0  0  0  0  0  0  0  0  0  0  0  0
  138.1261   69.3255  224.4376 H   0  0  0  0  0  0  0  0  0  0  0  0
  139.3595   68.3674  223.7043 H   0  0  0  0  0  0  0  0  0  0  0  0
  139.8902   66.9708  226.1081 H   0  0  0  0  0  0  0  0  0  0  0  0
  140.9663   67.2507  228.3489 H   0  0  0  0  0  0  0  0  0  0  0  0
  141.4971   69.5077  229.1523 H   0  0  0  0  0  0  0  0  0  0  0  0
  141.0868   71.8699  229.0599 H   0  0  0  0  0  0  0  0  0  0  0  0
  142.0888   72.1801  227.6017 H   0  0  0  0  0  0  0  0  0  0  0  0
  140.3452   72.6118  227.6017 H   0  0  0  0  0  0  0  0  0  0  0  0
  138.6763   71.6765  225.2822 H   0  0  0  0  0  0  0  0  0  0  0  0
  140.2809   72.3060  225.1181 H   0  0  0  0  0  0  0  0  0  0  0  0
  134.9818   70.8125  221.9093 H   0  0  0  0  0  0  0  0  0  0  0  0
  135.9066   69.3373  221.5909 H   0  0  0  0  0  0  0  0  0  0  0  0
  134.1030   68.7187  223.1822 H   0  0  0  0  0  0  0  0  0  0  0  0
  135.5827   68.7347  224.1414 H   0  0  0  0  0  0  0  0  0  0  0  0
  1  2  1  0
  2  3  1  0
  3  4  2  0
  3  5  1  0
  5  6  1  0
  6  7  2  0
  7  8  1  0
  8  9  2  0
  9 10  1  0
 10 11  2  0
  5 12  1  0
 12 13  1  0
 13 14  1  0
 14 15  1  0
 15 16  1  0
 16 17  2  0
 16 18  1  0
 18 19  1  0
 18 20  1  0
 20 21  1  0
 21 22  1  0
 22 23  2  0
 23 24  1  0
 24 25  2  0
 25 26  1  0
 26 27  1  0
 26 28  2  0
 28 29  1  0
 15 30  1  0
 30 31  1  0
 11  6  1  0
 31 12  1  0
 29 20  1  0
 28 22  1  0
  1 32  1  0
  1 33  1  0
  1 34  1  0
  2 35  1  0
  2 36  1  0
  7 37  1  0
  8 38  1  0
  9 39  1  0
 10 40  1  0
 11 41  1  0
 12 42  1  0
 13 43  1  0
 13 44  1  0
 14 45  1  0
 14 46  1  0
 18 47  1  1
 19 48  1  0
 19 49  1  0
 20 50  1  6
 21 51  1  0
 21 52  1  0
 23 53  1  0
 24 54  1  0
 25 55  1  0
 27 56  1  0
 27 57  1  0
 27 58  1  0
 29 59  1  0
 29 60  1  0
 30 61  1  0
 30 62  1  0
 31 63  1  0
 31 64  1  0
M  END
>  <smiles>  (22) 
CCC(=O)N(c1ccccc1)C1CCN(C(=O)[C@H](N)C2Cc3cccc(C)c3C2)CC1

>  <score_type>  (22) 
oracle

>  <origin>  (22) 
autodockgpu

>  <m_score__min__energy>  (22) 
-8.7400000000000002

>  <m_primary>  (22) 
energy

>  <rmsd>  (22) 
11.367783739861702

>  <m_score__min__rmsd>  (22) 
11.367783739861702

>  <meeko>  (22) 
{"free_energy": -7.16, "intermolecular_energy": -9.24, "internal_energy": -2.5, "cluster_size": 1, "cluster_id": 10, "rank_in_cluster": 1}

>  <energy>  (22) 
-8.08

>  <cluster_rmsd>  (22) 
0.67

>  <cluster>  (22) 
2

$$$$

     RDKit          3D

 64 67  0  0  0  0  0  0  0  0999 V2000
  141.0780   68.0820  228.3960 C   0  0  0  0  0  0  0  0  0  0  0  0
  141.2010   67.7580  226.9360 C   0  0  0  0  0  0  0  0  0  0  0  0
  139.9160   68.0740  226.2110 C   0  0  0  0  0  0  0  0  0  0  0  0
  139.1320   67.1030  226.0780 O   0  0  0  0  0  0  0  0  0  0  0  0
  139.6480   69.3830  225.7270 N   0  0  0  0  0  0  0  0  0  0  0  0
  140.2350   70.4590  226.4990 C   0  0  0  0  0  0  0  0  0  0  0  0
  139.7870   70.7670  227.7620 C   0  0  0  0  0  0  0  0  0  0  0  0
  140.3830   71.7920  228.4370 C   0  0  0  0  0  0  0  0  0  0  0  0
  141.4210   72.4950  227.8340 C   0  0  0  0  0  0  0  0  0  0  0  0
  141.8650   72.1790  226.5680 C   0  0  0  0  0  0  0  0  0  0  0  0
  141.2650   71.1460  225.8830 C   0  0  0  0  0  0  0  0  0  0  0  0
  138.8560   69.6610  224.5510 C   0  0  0  0  0  0  0  0  0  0  0  0
  138.7750   71.1050  224.2320 C   0  0  0  0  0  0  0  0  0  0  0  0
  139.4250   71.5350  222.9500 C   0  0  0  0  0  0  0  0  0  0  0  0
  139.0180   70.6670  221.8750 N   0  0  0  0  0  0  0  0  0  0  0  0
  139.2040   70.9510  220.4940 C   0  0  0  0  0  0  0  0  0  0  0  0
  138.7700   70.1010  219.6260 O   0  0  0  0  0  0  0  0  0  0  0  0
  139.8550   72.1380  219.9420 C   0  0  2  0  0  0  0  0  0  0  0  0
  139.6490   72.3170  218.5280 N   0  0  0  0  0  0  0  0  0  0  0  0
  141.3200   72.2460  220.2100 C   0  0  2  0  0  0  0  0  0  0  0  0
  141.8610   73.6560  220.1880 C   0  0  0  0  0  0  0  0  0  0  0  0
  143.3350   73.3480  220.2960 C   0  0  0  0  0  0  0  0  0  0  0  0
  144.3660   74.0920  220.8350 C   0  0  0  0  0  0  0  0  0  0  0  0
  145.6470   73.5750  220.8100 C   0  0  0  0  0  0  0  0  0  0  0  0
  145.8480   72.3360  220.2500 C   0  0  0  0  0  0  0  0  0  0  0  0
  144.8430   71.5730  219.7060 C   0  0  0  0  0  0  0  0  0  0  0  0
  145.1110   70.2360  219.1100 C   0  0  0  0  0  0  0  0  0  0  0  0
  143.5620   72.0870  219.7290 C   0  0  0  0  0  0  0  0  0  0  0  0
  142.2270   71.5690  219.2450 C   0  0  0  0  0  0  0  0  0  0  0  0
  138.3780   69.3790  222.2020 C   0  0  0  0  0  0  0  0  0  0  0  0
  139.1920   68.7900  223.3750 C   0  0  0  0  0  0  0  0  0  0  0  0
  141.4061   67.2178  228.9923 H   0  0  0  0  0  0  0  0  0  0  0  0
  141.7086   68.9516  228.6330 H   0  0  0  0  0  0  0  0  0  0  0  0
  140.0292   68.3141  228.6330 H   0  0  0  0  0  0  0  0  0  0  0  0
  142.0171   68.3537  226.5012 H   0  0  0  0  0  0  0  0  0  0  0  0
  141.4139   66.6842  226.8281 H   0  0  0  0  0  0  0  0  0  0  0  0
  138.9641   70.1980  228.2193 H   0  0  0  0  0  0  0  0  0  0  0  0
  140.0457   72.0602  229.4491 H   0  0  0  0  0  0  0  0  0  0  0  0
  141.8984   73.3220  228.3801 H   0  0  0  0  0  0  0  0  0  0  0  0
  142.6892   72.7455  226.1100 H   0  0  0  0  0  0  0  0  0  0  0  0
  141.5970   70.8739  224.8702 H   0  0  0  0  0  0  0  0  0  0  0  0
  137.8285   69.3709  224.8155 H   0  0  0  0  0  0  0  0  0  0  0  0
  137.7108   71.3780  224.1773 H   0  0  0  0  0  0  0  0  0  0  0  0
  139.3315   71.6160  225.0315 H   0  0  0  0  0  0  0  0  0  0  0  0
  139.1247   72.5675  222.7179 H   0  0  0  0  0  0  0  0  0  0  0  0
  140.5178   71.4805  223.0636 H   0  0  0  0  0  0  0  0  0  0  0  0
  139.3434   72.9393  220.4953 H   0  0  0  0  0  0  0  0  0  0  0  0
  139.5910   71.3720  218.0900 H   0  0  0  0  0  0  0  0  0  0  0  0
  138.7790   72.8910  218.3250 H   0  0  0  0  0  0  0  0  0  0  0  0
  141.3354   71.7686  221.2009 H   0  0  0  0  0  0  0  0  0  0  0  0
  141.6165   74.1765  219.2503 H   0  0  0  0  0  0  0  0  0  0  0  0
  141.4610   74.3272  220.9623 H   0  0  0  0  0  0  0  0  0  0  0  0
  144.1705   75.0801  221.2770 H   0  0  0  0  0  0  0  0  0  0  0  0
  146.4896   74.1439  221.2301 H   0  0  0  0  0  0  0  0  0  0  0  0
  146.8712   71.9324  220.2366 H   0  0  0  0  0  0  0  0  0  0  0  0
  145.2587   69.4993  219.9134 H   0  0  0  0  0  0  0  0  0  0  0  0
  144.2556   69.9337  218.4880 H   0  0  0  0  0  0  0  0  0  0  0  0
  146.0168   70.2867  218.4880 H   0  0  0  0  0  0  0  0  0  0  0  0
  142.0220   71.8754  218.2086 H   0  0  0  0  0  0  0  0  0  0  0  0
  142.1384   70.4729  219.2177 H   0  0  0  0  0  0  0  0  0  0  0  0
  137.3318   69.5367  222.5029 H   0  0  0  0  0  0  0  0  0  0  0  0
  138.3675   68.7009  221.3359 H   0  0  0  0  0  0  0  0  0  0  0  0
  138.8960   67.7482  223.5674 H   0  0  0  0  0  0  0  0  0  0  0  0
  140.2716   68.7748  223.1647 H   0  0  0  0  0  0  0  0  0  0  0  0
  1  2  1  0
  2  3  1  0
  3  4  2  0
  3  5  1  0
  5  6  1  0
  6  7  2  0
  7  8  1  0
  8  9  2  0
  9 10  1  0
 10 11  2  0
  5 12  1  0
 12 13  1  0
 13 14  1  0
 14 15  1  0
 15 16  1  0
 16 17  2  0
 16 18  1  0
 18 19  1  0
 18 20  1  0
 20 21  1  0
 21 22  1  0
 22 23  2  0
 23 24  1  0
 24 25  2  0
 25 26  1  0
 26 27  1  0
 26 28  2  0
 28 29  1  0
 15 30  1  0
 30 31  1  0
 11  6  1  0
 31 12  1  0
 29 20  1  0
 28 22  1  0
  1 32  1  0
  1 33  1  0
  1 34  1  0
  2 35  1  0
  2 36  1  0
  7 37  1  0
  8 38  1  0
  9 39  1  0
 10 40  1  0
 11 41  1  0
 12 42  1  0
 13 43  1  0
 13 44  1  0
 14 45  1  0
 14 46  1  0
 18 47  1  1
 19 48  1  0
 19 49  1  0
 20 50  1  1
 21 51  1  0
 21 52  1  0
 23 53  1  0
 24 54  1  0
 25 55  1  0
 27 56  1  0
 27 57  1  0
 27 58  1  0
 29 59  1  0
 29 60  1  0
 30 61  1  0
 30 62  1  0
 31 63  1  0
 31 64  1  0
M  END
>  <smiles>  (23) 
CCC(=O)N(c1ccccc1)C1CCN(C(=O)[C@H](N)C2Cc3cccc(C)c3C2)CC1

>  <score_type>  (23) 
oracle

>  <origin>  (23) 
autodockgpu

>  <m_score__min__energy>  (23) 
-8.7400000000000002

>  <m_primary>  (23) 
energy

>  <rmsd>  (23) 
8.853442077155321

>  <m_score__min__rmsd>  (23) 
8.853442077155321

>  <meeko>  (23) 
{"free_energy": -8.06, "intermolecular_energy": -10.15, "internal_energy": -2.15, "cluster_size": 3, "cluster_id": 6, "rank_in_cluster": 1}

>  <energy>  (23) 
-8.05

>  <cluster_rmsd>  (23) 
0.52

>  <cluster>  (23) 
2

$$$$

     RDKit          3D

 64 67  0  0  0  0  0  0  0  0999 V2000
  146.7210   73.3510  221.8350 C   0  0  0  0  0  0  0  0  0  0  0  0
  145.3460   73.3870  221.2340 C   0  0  0  0  0  0  0  0  0  0  0  0
  145.3400   72.7150  219.8820 C   0  0  0  0  0  0  0  0  0  0  0  0
  146.3090   73.0110  219.1410 O   0  0  0  0  0  0  0  0  0  0  0  0
  144.2990   71.8230  219.5100 N   0  0  0  0  0  0  0  0  0  0  0  0
  144.7280   70.4810  219.1720 C   0  0  0  0  0  0  0  0  0  0  0  0
  145.4230   70.2170  218.0160 C   0  0  0  0  0  0  0  0  0  0  0  0
  145.7990   68.9310  217.7570 C   0  0  0  0  0  0  0  0  0  0  0  0
  145.4700   67.9270  218.6620 C   0  0  0  0  0  0  0  0  0  0  0  0
  144.7720   68.2010  219.8190 C   0  0  0  0  0  0  0  0  0  0  0  0
  144.3910   69.4970  220.0840 C   0  0  0  0  0  0  0  0  0  0  0  0
  142.9020   72.1880  219.4640 C   0  0  0  0  0  0  0  0  0  0  0  0
  141.9940   71.0180  219.4430 C   0  0  0  0  0  0  0  0  0  0  0  0
  141.1130   70.8440  220.6450 C   0  0  0  0  0  0  0  0  0  0  0  0
  140.4660   72.0900  220.9660 N   0  0  0  0  0  0  0  0  0  0  0  0
  139.3570   72.2190  221.8480 C   0  0  0  0  0  0  0  0  0  0  0  0
  138.8500   73.3910  222.0320 O   0  0  0  0  0  0  0  0  0  0  0  0
  138.7170   71.1320  222.5860 C   0  0  2  0  0  0  0  0  0  0  0  0
  137.2780   71.1730  222.5610 N   0  0  0  0  0  0  0  0  0  0  0  0
  139.1470   70.9860  224.0090 C   0  0  2  0  0  0  0  0  0  0  0  0
  140.3350   71.8340  224.3980 C   0  0  0  0  0  0  0  0  0  0  0  0
  140.5770   71.2860  225.7830 C   0  0  0  0  0  0  0  0  0  0  0  0
  141.1260   71.8870  226.8980 C   0  0  0  0  0  0  0  0  0  0  0  0
  141.2370   71.1550  228.0650 C   0  0  0  0  0  0  0  0  0  0  0  0
  140.7970   69.8530  228.0730 C   0  0  0  0  0  0  0  0  0  0  0  0
  140.2460   69.2280  226.9790 C   0  0  0  0  0  0  0  0  0  0  0  0
  139.7830   67.8160  227.0370 C   0  0  0  0  0  0  0  0  0  0  0  0
  140.1340   69.9570  225.8120 C   0  0  0  0  0  0  0  0  0  0  0  0
  139.6010   69.6350  224.4350 C   0  0  0  0  0  0  0  0  0  0  0  0
  140.9800   73.3360  220.3670 C   0  0  0  0  0  0  0  0  0  0  0  0
  142.5190   73.2440  220.4600 C   0  0  0  0  0  0  0  0  0  0  0  0
  146.6418   73.3531  222.9321 H   0  0  0  0  0  0  0  0  0  0  0  0
  147.2409   72.4389  221.5067 H   0  0  0  0  0  0  0  0  0  0  0  0
  147.2879   74.2346  221.5067 H   0  0  0  0  0  0  0  0  0  0  0  0
  144.6458   72.8632  221.9013 H   0  0  0  0  0  0  0  0  0  0  0  0
  145.0401   74.4363  221.1101 H   0  0  0  0  0  0  0  0  0  0  0  0
  145.6712   71.0263  217.3135 H   0  0  0  0  0  0  0  0  0  0  0  0
  146.3575   68.6903  216.8404 H   0  0  0  0  0  0  0  0  0  0  0  0
  145.7736   66.8912  218.4497 H   0  0  0  0  0  0  0  0  0  0  0  0
  144.5224   67.3930  220.5225 H   0  0  0  0  0  0  0  0  0  0  0  0
  143.8322   69.7441  220.9987 H   0  0  0  0  0  0  0  0  0  0  0  0
  142.7602   72.6743  218.4876 H   0  0  0  0  0  0  0  0  0  0  0  0
  141.3438   71.1131  218.5608 H   0  0  0  0  0  0  0  0  0  0  0  0
  142.6502   70.1353  219.4275 H   0  0  0  0  0  0  0  0  0  0  0  0
  140.3495   70.0819  220.4298 H   0  0  0  0  0  0  0  0  0  0  0  0
  141.7275   70.5255  221.5000 H   0  0  0  0  0  0  0  0  0  0  0  0
  139.0730   70.2546  222.0262 H   0  0  0  0  0  0  0  0  0  0  0  0
  136.9870   72.1620  222.3970 H   0  0  0  0  0  0  0  0  0  0  0  0
  136.8770   70.5260  221.8220 H   0  0  0  0  0  0  0  0  0  0  0  0
  138.2019   71.2789  224.4896 H   0  0  0  0  0  0  0  0  0  0  0  0
  141.1953   71.6676  223.7330 H   0  0  0  0  0  0  0  0  0  0  0  0
  140.1774   72.9212  224.3416 H   0  0  0  0  0  0  0  0  0  0  0  0
  141.4695   72.9313  226.8582 H   0  0  0  0  0  0  0  0  0  0  0  0
  141.6694   71.6060  228.9704 H   0  0  0  0  0  0  0  0  0  0  0  0
  140.8908   69.2788  229.0066 H   0  0  0  0  0  0  0  0  0  0  0  0
  139.6814   67.5063  228.0876 H   0  0  0  0  0  0  0  0  0  0  0  0
  138.8091   67.7285  226.5332 H   0  0  0  0  0  0  0  0  0  0  0  0
  140.5160   67.1688  226.5332 H   0  0  0  0  0  0  0  0  0  0  0  0
  140.3881   69.2421  223.7746 H   0  0  0  0  0  0  0  0  0  0  0  0
  138.8239   68.8568  224.4102 H   0  0  0  0  0  0  0  0  0  0  0  0
  140.6638   73.4148  219.3164 H   0  0  0  0  0  0  0  0  0  0  0  0
  140.5953   74.2247  220.8887 H   0  0  0  0  0  0  0  0  0  0  0  0
  142.9810   74.2077  220.1997 H   0  0  0  0  0  0  0  0  0  0  0  0
  142.8591   72.9981  221.4768 H   0  0  0  0  0  0  0  0  0  0  0  0
  1  2  1  0
  2  3  1  0
  3  4  2  0
  3  5  1  0
  5  6  1  0
  6  7  2  0
  7  8  1  0
  8  9  2  0
  9 10  1  0
 10 11  2  0
  5 12  1  0
 12 13  1  0
 13 14  1  0
 14 15  1  0
 15 16  1  0
 16 17  2  0
 16 18  1  0
 18 19  1  0
 18 20  1  0
 20 21  1  0
 21 22  1  0
 22 23  2  0
 23 24  1  0
 24 25  2  0
 25 26  1  0
 26 27  1  0
 26 28  2  0
 28 29  1  0
 15 30  1  0
 30 31  1  0
 11  6  1  0
 31 12  1  0
 29 20  1  0
 28 22  1  0
  1 32  1  0
  1 33  1  0
  1 34  1  0
  2 35  1  0
  2 36  1  0
  7 37  1  0
  8 38  1  0
  9 39  1  0
 10 40  1  0
 11 41  1  0
 12 42  1  0
 13 43  1  0
 13 44  1  0
 14 45  1  0
 14 46  1  0
 18 47  1  6
 19 48  1  0
 19 49  1  0
 20 50  1  1
 21 51  1  0
 21 52  1  0
 23 53  1  0
 24 54  1  0
 25 55  1  0
 27 56  1  0
 27 57  1  0
 27 58  1  0
 29 59  1  0
 29 60  1  0
 30 61  1  0
 30 62  1  0
 31 63  1  0
 31 64  1  0
M  END
>  <smiles>  (24) 
CCC(=O)N(c1ccccc1)C1CCN(C(=O)[C@H](N)C2Cc3cccc(C)c3C2)CC1

>  <score_type>  (24) 
oracle

>  <origin>  (24) 
autodockgpu

>  <m_score__min__energy>  (24) 
-8.7400000000000002

>  <m_primary>  (24) 
energy

>  <rmsd>  (24) 
8.528881728547304

>  <m_score__min__rmsd>  (24) 
8.528881728547304

>  <meeko>  (24) 
{"free_energy": -8.58, "intermolecular_energy": -10.67, "internal_energy": -1.9, "cluster_size": 10, "cluster_id": 1, "rank_in_cluster": 3}

>  <energy>  (24) 
-7.99

>  <cluster_rmsd>  (24) 
1.76

>  <cluster>  (24) 
2

$$$$

     RDKit          3D

 64 67  0  0  0  0  0  0  0  0999 V2000
  142.5250   80.1680  222.8660 C   0  0  0  0  0  0  0  0  0  0  0  0
  141.9580   79.0450  222.0480 C   0  0  0  0  0  0  0  0  0  0  0  0
  141.1280   78.1250  222.9090 C   0  0  0  0  0  0  0  0  0  0  0  0
  141.7510   77.5860  223.8580 O   0  0  0  0  0  0  0  0  0  0  0  0
  139.7510   77.9090  222.6390 N   0  0  0  0  0  0  0  0  0  0  0  0
  138.8530   78.9170  223.1610 C   0  0  0  0  0  0  0  0  0  0  0  0
  139.2500   79.8010  224.1360 C   0  0  0  0  0  0  0  0  0  0  0  0
  138.3560   80.7280  224.5850 C   0  0  0  0  0  0  0  0  0  0  0  0
  137.0720   80.7550  224.0500 C   0  0  0  0  0  0  0  0  0  0  0  0
  136.6810   79.8650  223.0720 C   0  0  0  0  0  0  0  0  0  0  0  0
  137.5810   78.9280  222.6170 C   0  0  0  0  0  0  0  0  0  0  0  0
  139.2430   76.7780  221.8950 C   0  0  0  0  0  0  0  0  0  0  0  0
  140.3060   76.0020  221.2170 C   0  0  0  0  0  0  0  0  0  0  0  0
  140.5160   74.6000  221.7090 C   0  0  0  0  0  0  0  0  0  0  0  0
  139.2530   73.9160  221.8030 N   0  0  0  0  0  0  0  0  0  0  0  0
  139.1060   72.5090  221.9500 C   0  0  0  0  0  0  0  0  0  0  0  0
  137.9150   72.0150  221.9960 O   0  0  0  0  0  0  0  0  0  0  0  0
  140.1950   71.5400  222.0570 C   0  0  2  0  0  0  0  0  0  0  0  0
  140.1180   70.4620  221.1040 N   0  0  0  0  0  0  0  0  0  0  0  0
  140.3860   70.9410  223.4120 C   0  0  2  0  0  0  0  0  0  0  0  0
  139.3640   69.8940  223.7870 C   0  0  0  0  0  0  0  0  0  0  0  0
  139.7560   69.6830  225.2290 C   0  0  0  0  0  0  0  0  0  0  0  0
  139.6330   68.5690  226.0350 C   0  0  0  0  0  0  0  0  0  0  0  0
  140.0790   68.6350  227.3410 C   0  0  0  0  0  0  0  0  0  0  0  0
  140.6300   69.8110  227.7910 C   0  0  0  0  0  0  0  0  0  0  0  0
  140.7650   70.9370  227.0140 C   0  0  0  0  0  0  0  0  0  0  0  0
  141.3690   72.1870  227.5470 C   0  0  0  0  0  0  0  0  0  0  0  0
  140.3210   70.8720  225.7080 C   0  0  0  0  0  0  0  0  0  0  0  0
  140.2950   71.8680  224.5710 C   0  0  0  0  0  0  0  0  0  0  0  0
  138.0080   74.7080  221.7650 C   0  0  0  0  0  0  0  0  0  0  0  0
  138.2660   75.9380  222.6640 C   0  0  0  0  0  0  0  0  0  0  0  0
  142.4087   79.9377  223.9353 H   0  0  0  0  0  0  0  0  0  0  0  0
  143.5927   80.2899  222.6311 H   0  0  0  0  0  0  0  0  0  0  0  0
  141.9892   81.0995  222.6311 H   0  0  0  0  0  0  0  0  0  0  0  0
  141.3251   79.4624  221.2510 H   0  0  0  0  0  0  0  0  0  0  0  0
  142.7885   78.4694  221.6134 H   0  0  0  0  0  0  0  0  0  0  0  0
  140.2698   79.7615  224.5464 H   0  0  0  0  0  0  0  0  0  0  0  0
  138.6477   81.4482  225.3636 H   0  0  0  0  0  0  0  0  0  0  0  0
  136.3528   81.5029  224.4153 H   0  0  0  0  0  0  0  0  0  0  0  0
  135.6617   79.9033  222.6602 H   0  0  0  0  0  0  0  0  0  0  0  0
  137.2954   78.2048  221.8389 H   0  0  0  0  0  0  0  0  0  0  0  0
  138.6440   77.2102  221.0799 H   0  0  0  0  0  0  0  0  0  0  0  0
  140.0531   75.9486  220.1478 H   0  0  0  0  0  0  0  0  0  0  0  0
  141.2440   76.5345  221.4331 H   0  0  0  0  0  0  0  0  0  0  0  0
  141.1701   74.0620  221.0071 H   0  0  0  0  0  0  0  0  0  0  0  0
  140.9832   74.6332  222.7043 H   0  0  0  0  0  0  0  0  0  0  0  0
  141.0669   72.1721  221.8327 H   0  0  0  0  0  0  0  0  0  0  0  0
  140.4380   69.5890  221.5800 H   0  0  0  0  0  0  0  0  0  0  0  0
  139.1370   70.3500  220.7140 H   0  0  0  0  0  0  0  0  0  0  0  0
  141.4048   70.5512  223.2700 H   0  0  0  0  0  0  0  0  0  0  0  0
  138.3347   70.2699  223.6906 H   0  0  0  0  0  0  0  0  0  0  0  0
  139.3633   68.9896  223.1609 H   0  0  0  0  0  0  0  0  0  0  0  0
  139.1867   67.6430  225.6434 H   0  0  0  0  0  0  0  0  0  0  0  0
  139.9948   67.7638  228.0073 H   0  0  0  0  0  0  0  0  0  0  0  0
  140.9830   69.8536  228.8319 H   0  0  0  0  0  0  0  0  0  0  0  0
  141.3562   72.1605  228.6466 H   0  0  0  0  0  0  0  0  0  0  0  0
  142.4075   72.2718  227.1943 H   0  0  0  0  0  0  0  0  0  0  0  0
  140.7901   73.0533  227.1943 H   0  0  0  0  0  0  0  0  0  0  0  0
  139.3601   72.4475  224.5575 H   0  0  0  0  0  0  0  0  0  0  0  0
  141.0804   72.6371  224.6113 H   0  0  0  0  0  0  0  0  0  0  0  0
  137.7869   75.0254  220.7353 H   0  0  0  0  0  0  0  0  0  0  0  0
  137.1446   74.1234  222.1155 H   0  0  0  0  0  0  0  0  0  0  0  0
  137.3322   76.4925  222.8391 H   0  0  0  0  0  0  0  0  0  0  0  0
  138.6522   75.6544  223.6542 H   0  0  0  0  0  0  0  0  0  0  0  0
  1  2  1  0
  2  3  1  0
  3  4  2  0
  3  5  1  0
  5  6  1  0
  6  7  2  0
  7  8  1  0
  8  9  2  0
  9 10  1  0
 10 11  2  0
  5 12  1  0
 12 13  1  0
 13 14  1  0
 14 15  1  0
 15 16  1  0
 16 17  2  0
 16 18  1  0
 18 19  1  0
 18 20  1  0
 20 21  1  0
 21 22  1  0
 22 23  2  0
 23 24  1  0
 24 25  2  0
 25 26  1  0
 26 27  1  0
 26 28  2  0
 28 29  1  0
 15 30  1  0
 30 31  1  0
 11  6  1  0
 31 12  1  0
 29 20  1  0
 28 22  1  0
  1 32  1  0
  1 33  1  0
  1 34  1  0
  2 35  1  0
  2 36  1  0
  7 37  1  0
  8 38  1  0
  9 39  1  0
 10 40  1  0
 11 41  1  0
 12 42  1  0
 13 43  1  0
 13 44  1  0
 14 45  1  0
 14 46  1  0
 18 47  1  6
 19 48  1  0
 19 49  1  0
 20 50  1  6
 21 51  1  0
 21 52  1  0
 23 53  1  0
 24 54  1  0
 25 55  1  0
 27 56  1  0
 27 57  1  0
 27 58  1  0
 29 59  1  0
 29 60  1  0
 30 61  1  0
 30 62  1  0
 31 63  1  0
 31 64  1  0
M  END
>  <smiles>  (25) 
CCC(=O)N(c1ccccc1)C1CCN(C(=O)[C@H](N)C2Cc3cccc(C)c3C2)CC1

>  <score_type>  (25) 
oracle

>  <origin>  (25) 
autodockgpu

>  <m_score__min__energy>  (25) 
-8.7400000000000002

>  <m_primary>  (25) 
energy

>  <rmsd>  (25) 
9.047057807035342

>  <m_score__min__rmsd>  (25) 
9.047057807035342

>  <meeko>  (25) 
{"free_energy": -8.05, "intermolecular_energy": -10.14, "internal_energy": -1.95, "cluster_size": 16, "cluster_id": 2, "rank_in_cluster": 13}

>  <energy>  (25) 
-7.93

>  <cluster_rmsd>  (25) 
0.53

>  <cluster>  (25) 
2

$$$$

     RDKit          3D

 64 67  0  0  0  0  0  0  0  0999 V2000
  142.4930   80.5750  223.5240 C   0  0  0  0  0  0  0  0  0  0  0  0
  142.2770   79.5120  222.4860 C   0  0  0  0  0  0  0  0  0  0  0  0
  141.3280   78.4560  222.9960 C   0  0  0  0  0  0  0  0  0  0  0  0
  141.8070   77.6950  223.8730 O   0  0  0  0  0  0  0  0  0  0  0  0
  140.0000   78.3580  222.5000 N   0  0  0  0  0  0  0  0  0  0  0  0
  139.1850   79.5410  222.6790 C   0  0  0  0  0  0  0  0  0  0  0  0
  138.7710   80.3000  221.6110 C   0  0  0  0  0  0  0  0  0  0  0  0
  138.0040   81.4030  221.8480 C   0  0  0  0  0  0  0  0  0  0  0  0
  137.6630   81.7300  223.1570 C   0  0  0  0  0  0  0  0  0  0  0  0
  138.0820   80.9630  224.2230 C   0  0  0  0  0  0  0  0  0  0  0  0
  138.8570   79.8500  223.9870 C   0  0  0  0  0  0  0  0  0  0  0  0
  139.4670   77.1820  221.8510 C   0  0  0  0  0  0  0  0  0  0  0  0
  140.4980   76.3860  221.1480 C   0  0  0  0  0  0  0  0  0  0  0  0
  140.7640   75.0150  221.6990 C   0  0  0  0  0  0  0  0  0  0  0  0
  139.5210   74.3190  221.9110 N   0  0  0  0  0  0  0  0  0  0  0  0
  139.4090   72.9200  222.1410 C   0  0  0  0  0  0  0  0  0  0  0  0
  138.2330   72.4130  222.2900 O   0  0  0  0  0  0  0  0  0  0  0  0
  140.5200   71.9740  222.2300 C   0  0  2  0  0  0  0  0  0  0  0  0
  140.6020   71.0600  221.1190 N   0  0  0  0  0  0  0  0  0  0  0  0
  140.5780   71.1720  223.4880 C   0  0  2  0  0  0  0  0  0  0  0  0
  139.5580   70.0610  223.5740 C   0  0  0  0  0  0  0  0  0  0  0  0
  139.7920   69.6320  225.0020 C   0  0  0  0  0  0  0  0  0  0  0  0
  139.6190   68.4030  225.6050 C   0  0  0  0  0  0  0  0  0  0  0  0
  139.9110   68.2700  226.9490 C   0  0  0  0  0  0  0  0  0  0  0  0
  140.3650   69.3700  227.6380 C   0  0  0  0  0  0  0  0  0  0  0  0
  140.5470   70.6060  227.0650 C   0  0  0  0  0  0  0  0  0  0  0  0
  141.0410   71.7670  227.8530 C   0  0  0  0  0  0  0  0  0  0  0  0
  140.2560   70.7400  225.7230 C   0  0  0  0  0  0  0  0  0  0  0  0
  140.3230   71.9030  224.7580 C   0  0  0  0  0  0  0  0  0  0  0  0
  138.2630   75.0900  221.9120 C   0  0  0  0  0  0  0  0  0  0  0  0
  138.5550   76.3700  222.7250 C   0  0  0  0  0  0  0  0  0  0  0  0
  142.4030   80.1319  224.5268 H   0  0  0  0  0  0  0  0  0  0  0  0
  143.4973   81.0071  223.4029 H   0  0  0  0  0  0  0  0  0  0  0  0
  141.7370   81.3648  223.4029 H   0  0  0  0  0  0  0  0  0  0  0  0
  141.8536   79.9716  221.5807 H   0  0  0  0  0  0  0  0  0  0  0  0
  143.2433   79.0391  222.2567 H   0  0  0  0  0  0  0  0  0  0  0  0
  139.0527   80.0234  220.5843 H   0  0  0  0  0  0  0  0  0  0  0  0
  137.6581   82.0284  221.0118 H   0  0  0  0  0  0  0  0  0  0  0  0
  137.0453   82.6205  223.3452 H   0  0  0  0  0  0  0  0  0  0  0  0
  137.8003   81.2371  225.2504 H   0  0  0  0  0  0  0  0  0  0  0  0
  139.2072   79.2212  224.8188 H   0  0  0  0  0  0  0  0  0  0  0  0
  138.8106   77.5614  221.0540 H   0  0  0  0  0  0  0  0  0  0  0  0
  140.1785   76.2714  220.1017 H   0  0  0  0  0  0  0  0  0  0  0  0
  141.4382   76.9427  221.2748 H   0  0  0  0  0  0  0  0  0  0  0  0
  141.3811   74.4492  220.9855 H   0  0  0  0  0  0  0  0  0  0  0  0
  141.2935   75.1083  222.6586 H   0  0  0  0  0  0  0  0  0  0  0  0
  141.3833   72.6555  222.2161 H   0  0  0  0  0  0  0  0  0  0  0  0
  139.6290   70.8500  220.8030 H   0  0  0  0  0  0  0  0  0  0  0  0
  141.1880   71.4530  220.3270 H   0  0  0  0  0  0  0  0  0  0  0  0
  141.6195   70.8272  223.4078 H   0  0  0  0  0  0  0  0  0  0  0  0
  138.5334   70.4293  223.4171 H   0  0  0  0  0  0  0  0  0  0  0  0
  139.6602   69.2669  222.8197 H   0  0  0  0  0  0  0  0  0  0  0  0
  139.2543   67.5425  225.0248 H   0  0  0  0  0  0  0  0  0  0  0  0
  139.7828   67.3032  227.4578 H   0  0  0  0  0  0  0  0  0  0  0  0
  140.5954   69.2543  228.7074 H   0  0  0  0  0  0  0  0  0  0  0  0
  140.9477   71.5477  228.9269 H   0  0  0  0  0  0  0  0  0  0  0  0
  142.0968   71.9543  227.6074 H   0  0  0  0  0  0  0  0  0  0  0  0
  140.4439   72.6576  227.6074 H   0  0  0  0  0  0  0  0  0  0  0  0
  139.3754   72.4606  224.7246 H   0  0  0  0  0  0  0  0  0  0  0  0
  141.0706   72.6700  225.0087 H   0  0  0  0  0  0  0  0  0  0  0  0
  137.9709   75.3478  220.8833 H   0  0  0  0  0  0  0  0  0  0  0  0
  137.4347   74.5129  222.3489 H   0  0  0  0  0  0  0  0  0  0  0  0
  137.6243   76.9195  222.9296 H   0  0  0  0  0  0  0  0  0  0  0  0
  139.0081   76.1461  223.7020 H   0  0  0  0  0  0  0  0  0  0  0  0
  1  2  1  0
  2  3  1  0
  3  4  2  0
  3  5  1  0
  5  6  1  0
  6  7  2  0
  7  8  1  0
  8  9  2  0
  9 10  1  0
 10 11  2  0
  5 12  1  0
 12 13  1  0
 13 14  1  0
 14 15  1  0
 15 16  1  0
 16 17  2  0
 16 18  1  0
 18 19  1  0
 18 20  1  0
 20 21  1  0
 21 22  1  0
 22 23  2  0
 23 24  1  0
 24 25  2  0
 25 26  1  0
 26 27  1  0
 26 28  2  0
 28 29  1  0
 15 30  1  0
 30 31  1  0
 11  6  1  0
 31 12  1  0
 29 20  1  0
 28 22  1  0
  1 32  1  0
  1 33  1  0
  1 34  1  0
  2 35  1  0
  2 36  1  0
  7 37  1  0
  8 38  1  0
  9 39  1  0
 10 40  1  0
 11 41  1  0
 12 42  1  0
 13 43  1  0
 13 44  1  0
 14 45  1  0
 14 46  1  0
 18 47  1  1
 19 48  1  0
 19 49  1  0
 20 50  1  1
 21 51  1  0
 21 52  1  0
 23 53  1  0
 24 54  1  0
 25 55  1  0
 27 56  1  0
 27 57  1  0
 27 58  1  0
 29 59  1  0
 29 60  1  0
 30 61  1  0
 30 62  1  0
 31 63  1  0
 31 64  1  0
M  END
>  <smiles>  (26) 
CCC(=O)N(c1ccccc1)C1CCN(C(=O)[C@H](N)C2Cc3cccc(C)c3C2)CC1

>  <score_type>  (26) 
oracle

>  <origin>  (26) 
autodockgpu

>  <m_score__min__energy>  (26) 
-8.7400000000000002

>  <m_primary>  (26) 
energy

>  <rmsd>  (26) 
8.935077308632465

>  <m_score__min__rmsd>  (26) 
8.935077308632465

>  <meeko>  (26) 
{"free_energy": -8.21, "intermolecular_energy": -10.3, "internal_energy": -1.91, "cluster_size": 16, "cluster_id": 2, "rank_in_cluster": 5}

>  <energy>  (26) 
-7.88

>  <cluster_rmsd>  (26) 
1.65

>  <cluster>  (26) 
2

$$$$

     RDKit          3D

 64 67  0  0  0  0  0  0  0  0999 V2000
  131.0370   71.8330  226.5200 C   0  0  0  0  0  0  0  0  0  0  0  0
  132.0340   72.4770  227.4380 C   0  0  0  0  0  0  0  0  0  0  0  0
  133.4270   72.3720  226.8680 C   0  0  0  0  0  0  0  0  0  0  0  0
  134.2660   71.8210  227.6220 O   0  0  0  0  0  0  0  0  0  0  0  0
  133.7310   72.8710  225.5730 N   0  0  0  0  0  0  0  0  0  0  0  0
  133.6650   74.3110  225.4340 C   0  0  0  0  0  0  0  0  0  0  0  0
  134.0140   75.1510  226.4650 C   0  0  0  0  0  0  0  0  0  0  0  0
  133.9300   76.4980  226.2700 C   0  0  0  0  0  0  0  0  0  0  0  0
  133.4950   76.9850  225.0420 C   0  0  0  0  0  0  0  0  0  0  0  0
  133.1470   76.1360  224.0130 C   0  0  0  0  0  0  0  0  0  0  0  0
  133.2300   74.7750  224.2060 C   0  0  0  0  0  0  0  0  0  0  0  0
  134.0900   72.0340  224.4500 C   0  0  0  0  0  0  0  0  0  0  0  0
  135.3970   72.3900  223.8530 C   0  0  0  0  0  0  0  0  0  0  0  0
  136.4810   71.3590  223.9760 C   0  0  0  0  0  0  0  0  0  0  0  0
  135.9810   70.0680  223.5810 N   0  0  0  0  0  0  0  0  0  0  0  0
  136.7980   68.9380  223.2970 C   0  0  0  0  0  0  0  0  0  0  0  0
  136.2280   67.8430  222.9270 O   0  0  0  0  0  0  0  0  0  0  0  0
  138.2560   68.8910  223.3850 C   0  0  2  0  0  0  0  0  0  0  0  0
  138.8090   67.5660  223.2700 N   0  0  0  0  0  0  0  0  0  0  0  0
  138.8440   69.5290  224.6020 C   0  0  2  0  0  0  0  0  0  0  0  0
  139.8890   70.5820  224.3170 C   0  0  0  0  0  0  0  0  0  0  0  0
  140.3630   70.8360  225.7270 C   0  0  0  0  0  0  0  0  0  0  0  0
  140.8990   71.9720  226.2990 C   0  0  0  0  0  0  0  0  0  0  0  0
  141.2570   71.9440  227.6330 C   0  0  0  0  0  0  0  0  0  0  0  0
  141.0650   70.7830  228.3440 C   0  0  0  0  0  0  0  0  0  0  0  0
  140.5340   69.6370  227.8030 C   0  0  0  0  0  0  0  0  0  0  0  0
  140.3460   68.4040  228.6140 C   0  0  0  0  0  0  0  0  0  0  0  0
  140.1760   69.6630  226.4700 C   0  0  0  0  0  0  0  0  0  0  0  0
  139.5770   68.6350  225.5370 C   0  0  0  0  0  0  0  0  0  0  0  0
  134.5230   69.8700  223.4730 C   0  0  0  0  0  0  0  0  0  0  0  0
  133.9120   70.5660  224.7090 C   0  0  0  0  0  0  0  0  0  0  0  0
  130.2604   71.3314  227.1160 H   0  0  0  0  0  0  0  0  0  0  0  0
  130.5725   72.6022  225.8855 H   0  0  0  0  0  0  0  0  0  0  0  0
  131.5472   71.0933  225.8855 H   0  0  0  0  0  0  0  0  0  0  0  0
  131.7748   73.5384  227.5656 H   0  0  0  0  0  0  0  0  0  0  0  0
  132.0082   71.9593  228.4082 H   0  0  0  0  0  0  0  0  0  0  0  0
  134.3545   74.7443  227.4287 H   0  0  0  0  0  0  0  0  0  0  0  0
  134.2039   77.1935  227.0770 H   0  0  0  0  0  0  0  0  0  0  0  0
  133.4271   78.0721  224.8883 H   0  0  0  0  0  0  0  0  0  0  0  0
  132.8069   76.5412  223.0486 H   0  0  0  0  0  0  0  0  0  0  0  0
  132.9570   74.0743  223.4032 H   0  0  0  0  0  0  0  0  0  0  0  0
  133.3506   72.2610  223.6678 H   0  0  0  0  0  0  0  0  0  0  0  0
  135.2362   72.5827  222.7820 H   0  0  0  0  0  0  0  0  0  0  0  0
  135.7532   73.2629  224.4198 H   0  0  0  0  0  0  0  0  0  0  0  0
  137.3238   71.6375  223.3262 H   0  0  0  0  0  0  0  0  0  0  0  0
  136.8162   71.3112  225.0226 H   0  0  0  0  0  0  0  0  0  0  0  0
  138.5425   69.4903  222.5082 H   0  0  0  0  0  0  0  0  0  0  0  0
  138.0270   66.9090  223.0550 H   0  0  0  0  0  0  0  0  0  0  0  0
  139.5680   67.5170  222.5300 H   0  0  0  0  0  0  0  0  0  0  0  0
  137.9138   69.9182  225.0417 H   0  0  0  0  0  0  0  0  0  0  0  0
  140.6952   70.1990  223.6740 H   0  0  0  0  0  0  0  0  0  0  0  0
  139.5301   71.4681  223.7729 H   0  0  0  0  0  0  0  0  0  0  0  0
  141.0389   72.8853  225.7021 H   0  0  0  0  0  0  0  0  0  0  0  0
  141.6873   72.8332  228.1169 H   0  0  0  0  0  0  0  0  0  0  0  0
  141.3527   70.7709  229.4056 H   0  0  0  0  0  0  0  0  0  0  0  0
  140.3849   68.6590  229.6833 H   0  0  0  0  0  0  0  0  0  0  0  0
  139.3692   67.9561  228.3792 H   0  0  0  0  0  0  0  0  0  0  0  0
  141.1449   67.6853  228.3792 H   0  0  0  0  0  0  0  0  0  0  0  0
  140.3533   68.0520  225.0198 H   0  0  0  0  0  0  0  0  0  0  0  0
  138.9571   67.8702  226.0277 H   0  0  0  0  0  0  0  0  0  0  0  0
  134.1416   70.3273  222.5481 H   0  0  0  0  0  0  0  0  0  0  0  0
  134.2606   68.8023  223.4382 H   0  0  0  0  0  0  0  0  0  0  0  0
  132.8451   70.3163  224.8063 H   0  0  0  0  0  0  0  0  0  0  0  0
  134.3944   70.2482  225.6451 H   0  0  0  0  0  0  0  0  0  0  0  0
  1  2  1  0
  2  3  1  0
  3  4  2  0
  3  5  1  0
  5  6  1  0
  6  7  2  0
  7  8  1  0
  8  9  2  0
  9 10  1  0
 10 11  2  0
  5 12  1  0
 12 13  1  0
 13 14  1  0
 14 15  1  0
 15 16  1  0
 16 17  2  0
 16 18  1  0
 18 19  1  0
 18 20  1  0
 20 21  1  0
 21 22  1  0
 22 23  2  0
 23 24  1  0
 24 25  2  0
 25 26  1  0
 26 27  1  0
 26 28  2  0
 28 29  1  0
 15 30  1  0
 30 31  1  0
 11  6  1  0
 31 12  1  0
 29 20  1  0
 28 22  1  0
  1 32  1  0
  1 33  1  0
  1 34  1  0
  2 35  1  0
  2 36  1  0
  7 37  1  0
  8 38  1  0
  9 39  1  0
 10 40  1  0
 11 41  1  0
 12 42  1  0
 13 43  1  0
 13 44  1  0
 14 45  1  0
 14 46  1  0
 18 47  1  6
 19 48  1  0
 19 49  1  0
 20 50  1  1
 21 51  1  0
 21 52  1  0
 23 53  1  0
 24 54  1  0
 25 55  1  0
 27 56  1  0
 27 57  1  0
 27 58  1  0
 29 59  1  0
 29 60  1  0
 30 61  1  0
 30 62  1  0
 31 63  1  0
 31 64  1  0
M  END
>  <smiles>  (27) 
CCC(=O)N(c1ccccc1)C1CCN(C(=O)[C@H](N)C2Cc3cccc(C)c3C2)CC1

>  <score_type>  (27) 
oracle

>  <origin>  (27) 
autodockgpu

>  <m_score__min__energy>  (27) 
-8.7400000000000002

>  <m_primary>  (27) 
energy

>  <rmsd>  (27) 
10.727838370734315

>  <m_score__min__rmsd>  (27) 
10.727838370734315

>  <meeko>  (27) 
{"free_energy": -7.5, "intermolecular_energy": -9.59, "internal_energy": -2.32, "cluster_size": 3, "cluster_id": 9, "rank_in_cluster": 1}

>  <energy>  (27) 
-8.25

>  <cluster_rmsd>  (27) 
0.0

>  <cluster>  (27) 
3

$$$$

     RDKit          3D

 64 67  0  0  0  0  0  0  0  0999 V2000
  146.3110   73.1760  221.6830 C   0  0  0  0  0  0  0  0  0  0  0  0
  145.3520   73.8150  220.7210 C   0  0  0  0  0  0  0  0  0  0  0  0
  145.1540   72.9400  219.5070 C   0  0  0  0  0  0  0  0  0  0  0  0
  145.9740   73.1360  218.5760 O   0  0  0  0  0  0  0  0  0  0  0  0
  144.1090   71.9790  219.4560 N   0  0  0  0  0  0  0  0  0  0  0  0
  144.5410   70.5970  219.4430 C   0  0  0  0  0  0  0  0  0  0  0  0
  143.6870   69.5710  219.7700 C   0  0  0  0  0  0  0  0  0  0  0  0
  144.1560   68.2910  219.7370 C   0  0  0  0  0  0  0  0  0  0  0  0
  145.4790   68.0570  219.3760 C   0  0  0  0  0  0  0  0  0  0  0  0
  146.3300   69.0920  219.0490 C   0  0  0  0  0  0  0  0  0  0  0  0
  145.8600   70.3850  219.0820 C   0  0  0  0  0  0  0  0  0  0  0  0
  142.7050   72.3170  219.4240 C   0  0  0  0  0  0  0  0  0  0  0  0
  142.0500   72.2150  220.7480 C   0  0  0  0  0  0  0  0  0  0  0  0
  141.5530   73.5020  221.3390 C   0  0  0  0  0  0  0  0  0  0  0  0
  140.7950   74.2350  220.3590 N   0  0  0  0  0  0  0  0  0  0  0  0
  139.9450   75.3370  220.6550 C   0  0  0  0  0  0  0  0  0  0  0  0
  139.2990   75.8930  219.6880 O   0  0  0  0  0  0  0  0  0  0  0  0
  139.7250   75.9190  221.9780 C   0  0  2  0  0  0  0  0  0  0  0  0
  138.3510   75.8940  222.4080 N   0  0  0  0  0  0  0  0  0  0  0  0
  140.2360   77.3100  222.1570 C   0  0  2  0  0  0  0  0  0  0  0  0
  141.4110   77.4320  223.0990 C   0  0  0  0  0  0  0  0  0  0  0  0
  141.5060   78.9370  223.1690 C   0  0  0  0  0  0  0  0  0  0  0  0
  142.5950   79.7540  223.3980 C   0  0  0  0  0  0  0  0  0  0  0  0
  142.4130   81.1230  223.4110 C   0  0  0  0  0  0  0  0  0  0  0  0
  141.1510   81.6230  223.1950 C   0  0  0  0  0  0  0  0  0  0  0  0
  140.0480   80.8360  222.9650 C   0  0  0  0  0  0  0  0  0  0  0  0
  138.7010   81.4250  222.7360 C   0  0  0  0  0  0  0  0  0  0  0  0
  140.2280   79.4670  222.9510 C   0  0  0  0  0  0  0  0  0  0  0  0
  139.2910   78.3000  222.7390 C   0  0  0  0  0  0  0  0  0  0  0  0
  140.9030   73.8500  218.9390 C   0  0  0  0  0  0  0  0  0  0  0  0
  142.4050   73.5900  218.6870 C   0  0  0  0  0  0  0  0  0  0  0  0
  145.9922   73.3885  222.7141 H   0  0  0  0  0  0  0  0  0  0  0  0
  146.3238   72.0882  221.5199 H   0  0  0  0  0  0  0  0  0  0  0  0
  147.3198   73.5831  221.5199 H   0  0  0  0  0  0  0  0  0  0  0  0
  144.3836   73.9636  221.2212 H   0  0  0  0  0  0  0  0  0  0  0  0
  145.7659   74.7815  220.3975 H   0  0  0  0  0  0  0  0  0  0  0  0
  142.6445   69.7785  220.0531 H   0  0  0  0  0  0  0  0  0  0  0  0
  143.4940   67.4508  219.9936 H   0  0  0  0  0  0  0  0  0  0  0  0
  145.8548   67.0235  219.3508 H   0  0  0  0  0  0  0  0  0  0  0  0
  147.3726   68.8862  218.7650 H   0  0  0  0  0  0  0  0  0  0  0  0
  146.5170   71.2297  218.8275 H   0  0  0  0  0  0  0  0  0  0  0  0
  142.2315   71.5343  218.8131 H   0  0  0  0  0  0  0  0  0  0  0  0
  141.1895   71.5374  220.6461 H   0  0  0  0  0  0  0  0  0  0  0  0
  142.8288   71.8548  221.4363 H   0  0  0  0  0  0  0  0  0  0  0  0
  140.9114   73.2812  222.2048 H   0  0  0  0  0  0  0  0  0  0  0  0
  142.4137   74.1089  221.6567 H   0  0  0  0  0  0  0  0  0  0  0  0
  140.3247   75.2477  222.6102 H   0  0  0  0  0  0  0  0  0  0  0  0
  137.7500   75.7920  221.5600 H   0  0  0  0  0  0  0  0  0  0  0  0
  138.1690   75.1140  223.1050 H   0  0  0  0  0  0  0  0  0  0  0  0
  140.4712   77.5281  221.1048 H   0  0  0  0  0  0  0  0  0  0  0  0
  141.1989   76.9864  224.0821 H   0  0  0  0  0  0  0  0  0  0  0  0
  142.3280   76.9156  222.7791 H   0  0  0  0  0  0  0  0  0  0  0  0
  143.5921   79.3214  223.5674 H   0  0  0  0  0  0  0  0  0  0  0  0
  143.2613   81.7999  223.5907 H   0  0  0  0  0  0  0  0  0  0  0  0
  141.0162   82.7147  223.2069 H   0  0  0  0  0  0  0  0  0  0  0  0
  138.2228   81.6341  223.7043 H   0  0  0  0  0  0  0  0  0  0  0  0
  138.8020   82.3611  222.1672 H   0  0  0  0  0  0  0  0  0  0  0  0
  138.0823   80.7153  222.1672 H   0  0  0  0  0  0  0  0  0  0  0  0
  138.8608   77.9448  223.6870 H   0  0  0  0  0  0  0  0  0  0  0  0
  138.4109   78.5205  222.1170 H   0  0  0  0  0  0  0  0  0  0  0  0
  140.3184   72.9390  218.7435 H   0  0  0  0  0  0  0  0  0  0  0  0
  140.5109   74.6349  218.2755 H   0  0  0  0  0  0  0  0  0  0  0  0
  142.6020   73.4703  217.6114 H   0  0  0  0  0  0  0  0  0  0  0  0
  143.0333   74.4252  219.0299 H   0  0  0  0  0  0  0  0  0  0  0  0
  1  2  1  0
  2  3  1  0
  3  4  2  0
  3  5  1  0
  5  6  1  0
  6  7  2  0
  7  8  1  0
  8  9  2  0
  9 10  1  0
 10 11  2  0
  5 12  1  0
 12 13  1  0
 13 14  1  0
 14 15  1  0
 15 16  1  0
 16 17  2  0
 16 18  1  0
 18 19  1  0
 18 20  1  0
 20 21  1  0
 21 22  1  0
 22 23  2  0
 23 24  1  0
 24 25  2  0
 25 26  1  0
 26 27  1  0
 26 28  2  0
 28 29  1  0
 15 30  1  0
 30 31  1  0
 11  6  1  0
 31 12  1  0
 29 20  1  0
 28 22  1  0
  1 32  1  0
  1 33  1  0
  1 34  1  0
  2 35  1  0
  2 36  1  0
  7 37  1  0
  8 38  1  0
  9 39  1  0
 10 40  1  0
 11 41  1  0
 12 42  1  0
 13 43  1  0
 13 44  1  0
 14 45  1  0
 14 46  1  0
 18 47  1  1
 19 48  1  0
 19 49  1  0
 20 50  1  6
 21 51  1  0
 21 52  1  0
 23 53  1  0
 24 54  1  0
 25 55  1  0
 27 56  1  0
 27 57  1  0
 27 58  1  0
 29 59  1  0
 29 60  1  0
 30 61  1  0
 30 62  1  0
 31 63  1  0
 31 64  1  0
M  END
>  <smiles>  (28) 
CCC(=O)N(c1ccccc1)C1CCN(C(=O)[C@H](N)C2Cc3cccc(C)c3C2)CC1

>  <score_type>  (28) 
oracle

>  <origin>  (28) 
autodockgpu

>  <m_score__min__energy>  (28) 
-8.7400000000000002

>  <m_primary>  (28) 
energy

>  <rmsd>  (28) 
5.080553946179224

>  <m_score__min__rmsd>  (28) 
5.080553946179224

>  <meeko>  (28) 
{"free_energy": -8.05, "intermolecular_energy": -10.13, "internal_energy": -1.87, "cluster_size": 5, "cluster_id": 5, "rank_in_cluster": 3}

>  <energy>  (28) 
-8.15

>  <cluster_rmsd>  (28) 
0.0

>  <cluster>  (28) 
4

$$$$

     RDKit          3D

 64 67  0  0  0  0  0  0  0  0999 V2000
  144.8260   74.2570  216.5050 C   0  0  0  0  0  0  0  0  0  0  0  0
  145.6000   73.0260  216.8780 C   0  0  0  0  0  0  0  0  0  0  0  0
  145.4230   72.7100  218.3430 C   0  0  0  0  0  0  0  0  0  0  0  0
  146.3350   73.1440  219.0900 O   0  0  0  0  0  0  0  0  0  0  0  0
  144.3000   71.9750  218.8060 N   0  0  0  0  0  0  0  0  0  0  0  0
  144.5040   70.5470  218.9300 C   0  0  0  0  0  0  0  0  0  0  0  0
  144.1010   69.8550  220.0460 C   0  0  0  0  0  0  0  0  0  0  0  0
  144.3220   68.5100  220.1000 C   0  0  0  0  0  0  0  0  0  0  0  0
  144.9480   67.8770  219.0310 C   0  0  0  0  0  0  0  0  0  0  0  0
  145.3490   68.5790  217.9140 C   0  0  0  0  0  0  0  0  0  0  0  0
  145.1280   69.9360  217.8570 C   0  0  0  0  0  0  0  0  0  0  0  0
  143.0290   72.5740  219.1450 C   0  0  0  0  0  0  0  0  0  0  0  0
  141.8890   71.6400  219.0040 C   0  0  0  0  0  0  0  0  0  0  0  0
  141.1770   71.2710  220.2730 C   0  0  0  0  0  0  0  0  0  0  0  0
  140.8810   72.4560  221.0350 N   0  0  0  0  0  0  0  0  0  0  0  0
  139.9720   72.5060  222.1280 C   0  0  0  0  0  0  0  0  0  0  0  0
  139.7730   73.6380  222.7130 O   0  0  0  0  0  0  0  0  0  0  0  0
  139.2190   71.3760  222.6700 C   0  0  2  0  0  0  0  0  0  0  0  0
  137.8330   71.6660  222.9340 N   0  0  0  0  0  0  0  0  0  0  0  0
  139.7990   70.7530  223.8980 C   0  0  2  0  0  0  0  0  0  0  0  0
  139.1960   69.4190  224.2700 C   0  0  0  0  0  0  0  0  0  0  0  0
  139.8690   69.2170  225.6050 C   0  0  0  0  0  0  0  0  0  0  0  0
  140.2060   68.0540  226.2690 C   0  0  0  0  0  0  0  0  0  0  0  0
  140.8270   68.1440  227.5000 C   0  0  0  0  0  0  0  0  0  0  0  0
  141.0880   69.3890  228.0200 C   0  0  0  0  0  0  0  0  0  0  0  0
  140.7640   70.5640  227.3830 C   0  0  0  0  0  0  0  0  0  0  0  0
  141.0670   71.8890  227.9860 C   0  0  0  0  0  0  0  0  0  0  0  0
  140.1430   70.4770  226.1530 C   0  0  0  0  0  0  0  0  0  0  0  0
  139.6430   71.5090  225.1680 C   0  0  0  0  0  0  0  0  0  0  0  0
  141.5680   73.7150  220.6920 C   0  0  0  0  0  0  0  0  0  0  0  0
  143.0440   73.3340  220.4400 C   0  0  0  0  0  0  0  0  0  0  0  0
  144.4998   74.7758  217.4185 H   0  0  0  0  0  0  0  0  0  0  0  0
  145.4659   74.9267  215.9116 H   0  0  0  0  0  0  0  0  0  0  0  0
  143.9452   73.9705  215.9116 H   0  0  0  0  0  0  0  0  0  0  0  0
  145.2391   72.1769  216.2790 H   0  0  0  0  0  0  0  0  0  0  0  0
  146.6672   73.2051  216.6806 H   0  0  0  0  0  0  0  0  0  0  0  0
  143.6091   70.3758  220.8808 H   0  0  0  0  0  0  0  0  0  0  0  0
  144.0080   67.9310  220.9810 H   0  0  0  0  0  0  0  0  0  0  0  0
  145.1270   66.7927  219.0779 H   0  0  0  0  0  0  0  0  0  0  0  0
  145.8401   68.0600  217.0777 H   0  0  0  0  0  0  0  0  0  0  0  0
  145.4400   70.5210  216.9793 H   0  0  0  0  0  0  0  0  0  0  0  0
  142.8579   73.3470  218.3814 H   0  0  0  0  0  0  0  0  0  0  0  0
  141.1548   72.1051  218.3297 H   0  0  0  0  0  0  0  0  0  0  0  0
  142.3204   70.7023  218.6238 H   0  0  0  0  0  0  0  0  0  0  0  0
  140.2386   70.7528  220.0265 H   0  0  0  0  0  0  0  0  0  0  0  0
  141.8229   70.6103  220.8699 H   0  0  0  0  0  0  0  0  0  0  0  0
  139.2957   70.6519  221.8455 H   0  0  0  0  0  0  0  0  0  0  0  0
  137.7580   72.6770  223.1840 H   0  0  0  0  0  0  0  0  0  0  0  0
  137.2150   71.4280  222.1050 H   0  0  0  0  0  0  0  0  0  0  0  0
  140.8478   70.7031  223.5701 H   0  0  0  0  0  0  0  0  0  0  0  0
  138.1014   69.4735  224.3644 H   0  0  0  0  0  0  0  0  0  0  0  0
  139.3473   68.6119  223.5381 H   0  0  0  0  0  0  0  0  0  0  0  0
  139.9837   67.0723  225.8253 H   0  0  0  0  0  0  0  0  0  0  0  0
  141.1073   67.2358  228.0536 H   0  0  0  0  0  0  0  0  0  0  0  0
  141.5836   69.4491  229.0002 H   0  0  0  0  0  0  0  0  0  0  0  0
  141.0480   71.8057  229.0827 H   0  0  0  0  0  0  0  0  0  0  0  0
  142.0641   72.2205  227.6607 H   0  0  0  0  0  0  0  0  0  0  0  0
  140.3130   72.6209  227.6607 H   0  0  0  0  0  0  0  0  0  0  0  0
  138.5931   71.7778  225.3564 H   0  0  0  0  0  0  0  0  0  0  0  0
  140.1712   72.4733  225.2002 H   0  0  0  0  0  0  0  0  0  0  0  0
  141.1268   74.1578  219.7869 H   0  0  0  0  0  0  0  0  0  0  0  0
  141.4737   74.4597  221.4960 H   0  0  0  0  0  0  0  0  0  0  0  0
  143.6674   74.2361  220.3526 H   0  0  0  0  0  0  0  0  0  0  0  0
  143.4659   72.7406  221.2645 H   0  0  0  0  0  0  0  0  0  0  0  0
  1  2  1  0
  2  3  1  0
  3  4  2  0
  3  5  1  0
  5  6  1  0
  6  7  2  0
  7  8  1  0
  8  9  2  0
  9 10  1  0
 10 11  2  0
  5 12  1  0
 12 13  1  0
 13 14  1  0
 14 15  1  0
 15 16  1  0
 16 17  2  0
 16 18  1  0
 18 19  1  0
 18 20  1  0
 20 21  1  0
 21 22  1  0
 22 23  2  0
 23 24  1  0
 24 25  2  0
 25 26  1  0
 26 27  1  0
 26 28  2  0
 28 29  1  0
 15 30  1  0
 30 31  1  0
 11  6  1  0
 31 12  1  0
 29 20  1  0
 28 22  1  0
  1 32  1  0
  1 33  1  0
  1 34  1  0
  2 35  1  0
  2 36  1  0
  7 37  1  0
  8 38  1  0
  9 39  1  0
 10 40  1  0
 11 41  1  0
 12 42  1  0
 13 43  1  0
 13 44  1  0
 14 45  1  0
 14 46  1  0
 18 47  1  6
 19 48  1  0
 19 49  1  0
 20 50  1  6
 21 51  1  0
 21 52  1  0
 23 53  1  0
 24 54  1  0
 25 55  1  0
 27 56  1  0
 27 57  1  0
 27 58  1  0
 29 59  1  0
 29 60  1  0
 30 61  1  0
 30 62  1  0
 31 63  1  0
 31 64  1  0
M  END
>  <smiles>  (29) 
CCC(=O)N(c1ccccc1)C1CCN(C(=O)[C@H](N)C2Cc3cccc(C)c3C2)CC1

>  <score_type>  (29) 
oracle

>  <origin>  (29) 
autodockgpu

>  <m_score__min__energy>  (29) 
-8.7400000000000002

>  <m_primary>  (29) 
energy

>  <rmsd>  (29) 
9.538749097309797

>  <m_score__min__rmsd>  (29) 
9.538749097309797

>  <meeko>  (29) 
{"free_energy": -8.44, "intermolecular_energy": -10.53, "internal_energy": -2.05, "cluster_size": 10, "cluster_id": 1, "rank_in_cluster": 5}

>  <energy>  (29) 
-8.05

>  <cluster_rmsd>  (29) 
1.29

>  <cluster>  (29) 
4

$$$$

     RDKit          3D

 64 67  0  0  0  0  0  0  0  0999 V2000
  146.3540   73.3810  221.6940 C   0  0  0  0  0  0  0  0  0  0  0  0
  145.2650   73.8730  220.7870 C   0  0  0  0  0  0  0  0  0  0  0  0
  145.1310   72.9760  219.5810 C   0  0  0  0  0  0  0  0  0  0  0  0
  145.9930   73.1610  218.6870 O   0  0  0  0  0  0  0  0  0  0  0  0
  144.0950   72.0070  219.4970 N   0  0  0  0  0  0  0  0  0  0  0  0
  144.5410   70.6300  219.4400 C   0  0  0  0  0  0  0  0  0  0  0  0
  143.6970   69.5860  219.7370 C   0  0  0  0  0  0  0  0  0  0  0  0
  144.1790   68.3120  219.6630 C   0  0  0  0  0  0  0  0  0  0  0  0
  145.5040   68.1020  219.2950 C   0  0  0  0  0  0  0  0  0  0  0  0
  146.3440   69.1550  218.9990 C   0  0  0  0  0  0  0  0  0  0  0  0
  145.8610   70.4420  219.0720 C   0  0  0  0  0  0  0  0  0  0  0  0
  142.6880   72.3320  219.4720 C   0  0  0  0  0  0  0  0  0  0  0  0
  142.0470   72.2480  220.8040 C   0  0  0  0  0  0  0  0  0  0  0  0
  141.5440   73.5410  221.3770 C   0  0  0  0  0  0  0  0  0  0  0  0
  140.7710   74.2500  220.3910 N   0  0  0  0  0  0  0  0  0  0  0  0
  139.9140   75.3500  220.6750 C   0  0  0  0  0  0  0  0  0  0  0  0
  139.2530   75.8830  219.7040 O   0  0  0  0  0  0  0  0  0  0  0  0
  139.7010   75.9530  221.9890 C   0  0  2  0  0  0  0  0  0  0  0  0
  138.3240   75.9690  222.4110 N   0  0  0  0  0  0  0  0  0  0  0  0
  140.2470   77.3340  222.1540 C   0  0  2  0  0  0  0  0  0  0  0  0
  141.4230   77.4360  223.0960 C   0  0  0  0  0  0  0  0  0  0  0  0
  141.5560   78.9380  223.1510 C   0  0  0  0  0  0  0  0  0  0  0  0
  142.6640   79.7300  223.3730 C   0  0  0  0  0  0  0  0  0  0  0  0
  142.5160   81.1040  223.3710 C   0  0  0  0  0  0  0  0  0  0  0  0
  141.2680   81.6330  223.1470 C   0  0  0  0  0  0  0  0  0  0  0  0
  140.1460   80.8710  222.9240 C   0  0  0  0  0  0  0  0  0  0  0  0
  138.8150   81.4910  222.6860 C   0  0  0  0  0  0  0  0  0  0  0  0
  140.2920   79.4980  222.9250 C   0  0  0  0  0  0  0  0  0  0  0  0
  139.3260   78.3530  222.7240 C   0  0  0  0  0  0  0  0  0  0  0  0
  140.8680   73.8400  218.9770 C   0  0  0  0  0  0  0  0  0  0  0  0
  142.3700   73.5890  218.7150 C   0  0  0  0  0  0  0  0  0  0  0  0
  146.0488   73.5189  222.7418 H   0  0  0  0  0  0  0  0  0  0  0  0
  146.5361   72.3132  221.5026 H   0  0  0  0  0  0  0  0  0  0  0  0
  147.2757   73.9502  221.5026 H   0  0  0  0  0  0  0  0  0  0  0  0
  144.3129   73.8825  221.3378 H   0  0  0  0  0  0  0  0  0  0  0  0
  145.5188   74.8879  220.4471 H   0  0  0  0  0  0  0  0  0  0  0  0
  142.6533   69.7744  220.0287 H   0  0  0  0  0  0  0  0  0  0  0  0
  143.5252   67.4576  219.8925 H   0  0  0  0  0  0  0  0  0  0  0  0
  145.8902   67.0736  219.2389 H   0  0  0  0  0  0  0  0  0  0  0  0
  147.3882   68.9685  218.7078 H   0  0  0  0  0  0  0  0  0  0  0  0
  146.5094   71.3006  218.8431 H   0  0  0  0  0  0  0  0  0  0  0  0
  142.2152   71.5348  218.8796 H   0  0  0  0  0  0  0  0  0  0  0  0
  141.1917   71.5610  220.7228 H   0  0  0  0  0  0  0  0  0  0  0  0
  142.8358   71.9072  221.4908 H   0  0  0  0  0  0  0  0  0  0  0  0
  140.9120   73.3299  222.2523 H   0  0  0  0  0  0  0  0  0  0  0  0
  142.4021   74.1607  221.6765 H   0  0  0  0  0  0  0  0  0  0  0  0
  140.2790   75.2739  222.6330 H   0  0  0  0  0  0  0  0  0  0  0  0
  137.7250   75.8910  221.5590 H   0  0  0  0  0  0  0  0  0  0  0  0
  138.1140   75.1920  223.1020 H   0  0  0  0  0  0  0  0  0  0  0  0
  140.4892   77.5356  221.1001 H   0  0  0  0  0  0  0  0  0  0  0  0
  141.1985   77.0059  224.0832 H   0  0  0  0  0  0  0  0  0  0  0  0
  142.3271   76.8934  222.7825 H   0  0  0  0  0  0  0  0  0  0  0  0
  143.6498   79.2747  223.5488 H   0  0  0  0  0  0  0  0  0  0  0  0
  143.3806   81.7613  223.5454 H   0  0  0  0  0  0  0  0  0  0  0  0
  141.1607   82.7278  223.1461 H   0  0  0  0  0  0  0  0  0  0  0  0
  138.3365   81.7139  223.6511 H   0  0  0  0  0  0  0  0  0  0  0  0
  138.9414   82.4229  222.1155 H   0  0  0  0  0  0  0  0  0  0  0  0
  138.1829   80.7946  222.1155 H   0  0  0  0  0  0  0  0  0  0  0  0
  138.8858   78.0187  223.6750 H   0  0  0  0  0  0  0  0  0  0  0  0
  138.4523   78.5888  222.0987 H   0  0  0  0  0  0  0  0  0  0  0  0
  140.2898   72.9203  218.8041 H   0  0  0  0  0  0  0  0  0  0  0  0
  140.4619   74.6088  218.3032 H   0  0  0  0  0  0  0  0  0  0  0  0
  142.5579   73.4516  217.6399 H   0  0  0  0  0  0  0  0  0  0  0  0
  142.9942   74.4358  219.0365 H   0  0  0  0  0  0  0  0  0  0  0  0
  1  2  1  0
  2  3  1  0
  3  4  2  0
  3  5  1  0
  5  6  1  0
  6  7  2  0
  7  8  1  0
  8  9  2  0
  9 10  1  0
 10 11  2  0
  5 12  1  0
 12 13  1  0
 13 14  1  0
 14 15  1  0
 15 16  1  0
 16 17  2  0
 16 18  1  0
 18 19  1  0
 18 20  1  0
 20 21  1  0
 21 22  1  0
 22 23  2  0
 23 24  1  0
 24 25  2  0
 25 26  1  0
 26 27  1  0
 26 28  2  0
 28 29  1  0
 15 30  1  0
 30 31  1  0
 11  6  1  0
 31 12  1  0
 29 20  1  0
 28 22  1  0
  1 32  1  0
  1 33  1  0
  1 34  1  0
  2 35  1  0
  2 36  1  0
  7 37  1  0
  8 38  1  0
  9 39  1  0
 10 40  1  0
 11 41  1  0
 12 42  1  0
 13 43  1  0
 13 44  1  0
 14 45  1  0
 14 46  1  0
 18 47  1  1
 19 48  1  0
 19 49  1  0
 20 50  1  6
 21 51  1  0
 21 52  1  0
 23 53  1  0
 24 54  1  0
 25 55  1  0
 27 56  1  0
 27 57  1  0
 27 58  1  0
 29 59  1  0
 29 60  1  0
 30 61  1  0
 30 62  1  0
 31 63  1  0
 31 64  1  0
M  END
>  <smiles>  (30) 
CCC(=O)N(c1ccccc1)C1CCN(C(=O)[C@H](N)C2Cc3cccc(C)c3C2)CC1

>  <score_type>  (30) 
oracle

>  <origin>  (30) 
autodockgpu

>  <m_score__min__energy>  (30) 
-8.7400000000000002

>  <m_primary>  (30) 
energy

>  <rmsd>  (30) 
5.0875950971645105

>  <m_score__min__rmsd>  (30) 
5.0875950971645105

>  <meeko>  (30) 
{"free_energy": -8.09, "intermolecular_energy": -10.17, "internal_energy": -1.88, "cluster_size": 5, "cluster_id": 5, "rank_in_cluster": 2}

>  <energy>  (30) 
-7.82

>  <cluster_rmsd>  (30) 
1.18

>  <cluster>  (30) 
4

$$$$

     RDKit          3D

 64 67  0  0  0  0  0  0  0  0999 V2000
  141.0150   68.1110  228.5600 C   0  0  0  0  0  0  0  0  0  0  0  0
  141.1230   67.7590  227.1060 C   0  0  0  0  0  0  0  0  0  0  0  0
  139.8260   68.0500  226.3910 C   0  0  0  0  0  0  0  0  0  0  0  0
  139.0290   67.0810  226.3280 O   0  0  0  0  0  0  0  0  0  0  0  0
  139.5600   69.3330  225.8420 N   0  0  0  0  0  0  0  0  0  0  0  0
  140.1740   70.4430  226.5410 C   0  0  0  0  0  0  0  0  0  0  0  0
  139.7630   70.8190  227.7970 C   0  0  0  0  0  0  0  0  0  0  0  0
  140.3830   71.8730  228.4020 C   0  0  0  0  0  0  0  0  0  0  0  0
  141.4090   72.5360  227.7360 C   0  0  0  0  0  0  0  0  0  0  0  0
  141.8160   72.1520  226.4760 C   0  0  0  0  0  0  0  0  0  0  0  0
  141.1910   71.0890  225.8620 C   0  0  0  0  0  0  0  0  0  0  0  0
  138.7450   69.5550  224.6700 C   0  0  0  0  0  0  0  0  0  0  0  0
  138.6060   70.9870  224.3200 C   0  0  0  0  0  0  0  0  0  0  0  0
  139.2250   71.4120  223.0200 C   0  0  0  0  0  0  0  0  0  0  0  0
  138.8390   70.5060  221.9700 N   0  0  0  0  0  0  0  0  0  0  0  0
  139.0000   70.7650  220.5810 C   0  0  0  0  0  0  0  0  0  0  0  0
  138.5880   69.8810  219.7370 O   0  0  0  0  0  0  0  0  0  0  0  0
  139.5990   71.9630  219.9960 C   0  0  2  0  0  0  0  0  0  0  0  0
  139.4000   72.0860  218.5750 N   0  0  0  0  0  0  0  0  0  0  0  0
  141.0550   72.1490  220.2720 C   0  0  2  0  0  0  0  0  0  0  0  0
  141.5340   73.5790  220.1880 C   0  0  0  0  0  0  0  0  0  0  0  0
  143.0180   73.3430  220.3250 C   0  0  0  0  0  0  0  0  0  0  0  0
  144.0090   74.1560  220.8380 C   0  0  0  0  0  0  0  0  0  0  0  0
  145.3120   73.6960  220.8500 C   0  0  0  0  0  0  0  0  0  0  0  0
  145.5740   72.4420  220.3510 C   0  0  0  0  0  0  0  0  0  0  0  0
  144.6100   71.6100  219.8340 C   0  0  0  0  0  0  0  0  0  0  0  0
  144.9440   70.2610  219.3050 C   0  0  0  0  0  0  0  0  0  0  0  0
  143.3080   72.0680  219.8210 C   0  0  0  0  0  0  0  0  0  0  0  0
  142.0020   71.4690  219.3490 C   0  0  0  0  0  0  0  0  0  0  0  0
  138.2510   69.2030  222.3330 C   0  0  0  0  0  0  0  0  0  0  0  0
  139.1000   68.6710  223.5090 C   0  0  0  0  0  0  0  0  0  0  0  0
  141.2835   67.2359  229.1700 H   0  0  0  0  0  0  0  0  0  0  0  0
  141.6998   68.9411  228.7882 H   0  0  0  0  0  0  0  0  0  0  0  0
  139.9825   68.4142  228.7882 H   0  0  0  0  0  0  0  0  0  0  0  0
  141.9286   68.3526  226.6493 H   0  0  0  0  0  0  0  0  0  0  0  0
  141.3439   66.6851  227.0167 H   0  0  0  0  0  0  0  0  0  0  0  0
  138.9495   70.2804  228.3051 H   0  0  0  0  0  0  0  0  0  0  0  0
  140.0745   72.1957  229.4073 H   0  0  0  0  0  0  0  0  0  0  0  0
  141.9067   73.3859  228.2259 H   0  0  0  0  0  0  0  0  0  0  0  0
  142.6304   72.6882  225.9669 H   0  0  0  0  0  0  0  0  0  0  0  0
  141.4934   70.7620  224.8562 H   0  0  0  0  0  0  0  0  0  0  0  0
  137.7323   69.2328  224.9540 H   0  0  0  0  0  0  0  0  0  0  0  0
  137.5317   71.2186  224.2724 H   0  0  0  0  0  0  0  0  0  0  0  0
  139.1520   71.5365  225.1010 H   0  0  0  0  0  0  0  0  0  0  0  0
  138.8835   72.4270  222.7688 H   0  0  0  0  0  0  0  0  0  0  0  0
  140.3203   71.4006  223.1215 H   0  0  0  0  0  0  0  0  0  0  0  0
  139.0438   72.7560  220.5184 H   0  0  0  0  0  0  0  0  0  0  0  0
  139.3870   71.1240  218.1680 H   0  0  0  0  0  0  0  0  0  0  0  0
  138.5080   72.6130  218.3450 H   0  0  0  0  0  0  0  0  0  0  0  0
  141.0795   71.7199  221.2846 H   0  0  0  0  0  0  0  0  0  0  0  0
  141.2780   74.0432  219.2242 H   0  0  0  0  0  0  0  0  0  0  0  0
  141.0957   74.2674  220.9256 H   0  0  0  0  0  0  0  0  0  0  0  0
  143.7652   75.1541  221.2309 H   0  0  0  0  0  0  0  0  0  0  0  0
  146.1236   74.3209  221.2509 H   0  0  0  0  0  0  0  0  0  0  0  0
  146.6141   72.0843  220.3664 H   0  0  0  0  0  0  0  0  0  0  0  0
  145.1150   69.5702  220.1438 H   0  0  0  0  0  0  0  0  0  0  0  0
  144.1102   69.8916  218.6899 H   0  0  0  0  0  0  0  0  0  0  0  0
  145.8538   70.3233  218.6899 H   0  0  0  0  0  0  0  0  0  0  0  0
  141.7958   71.7174  218.2974 H   0  0  0  0  0  0  0  0  0  0  0  0
  141.9620   70.3700  219.3726 H   0  0  0  0  0  0  0  0  0  0  0  0
  137.2031   69.3287  222.6431 H   0  0  0  0  0  0  0  0  0  0  0  0
  138.2557   68.5057  221.4823 H   0  0  0  0  0  0  0  0  0  0  0  0
  138.8455   67.6234  223.7277 H   0  0  0  0  0  0  0  0  0  0  0  0
  140.1770   68.6915  223.2859 H   0  0  0  0  0  0  0  0  0  0  0  0
  1  2  1  0
  2  3  1  0
  3  4  2  0
  3  5  1  0
  5  6  1  0
  6  7  2  0
  7  8  1  0
  8  9  2  0
  9 10  1  0
 10 11  2  0
  5 12  1  0
 12 13  1  0
 13 14  1  0
 14 15  1  0
 15 16  1  0
 16 17  2  0
 16 18  1  0
 18 19  1  0
 18 20  1  0
 20 21  1  0
 21 22  1  0
 22 23  2  0
 23 24  1  0
 24 25  2  0
 25 26  1  0
 26 27  1  0
 26 28  2  0
 28 29  1  0
 15 30  1  0
 30 31  1  0
 11  6  1  0
 31 12  1  0
 29 20  1  0
 28 22  1  0
  1 32  1  0
  1 33  1  0
  1 34  1  0
  2 35  1  0
  2 36  1  0
  7 37  1  0
  8 38  1  0
  9 39  1  0
 10 40  1  0
 11 41  1  0
 12 42  1  0
 13 43  1  0
 13 44  1  0
 14 45  1  0
 14 46  1  0
 18 47  1  1
 19 48  1  0
 19 49  1  0
 20 50  1  1
 21 51  1  0
 21 52  1  0
 23 53  1  0
 24 54  1  0
 25 55  1  0
 27 56  1  0
 27 57  1  0
 27 58  1  0
 29 59  1  0
 29 60  1  0
 30 61  1  0
 30 62  1  0
 31 63  1  0
 31 64  1  0
M  END
>  <smiles>  (31) 
CCC(=O)N(c1ccccc1)C1CCN(C(=O)[C@H](N)C2Cc3cccc(C)c3C2)CC1

>  <score_type>  (31) 
oracle

>  <origin>  (31) 
autodockgpu

>  <m_score__min__energy>  (31) 
-8.7400000000000002

>  <m_primary>  (31) 
energy

>  <rmsd>  (31) 
8.916377583257422

>  <m_score__min__rmsd>  (31) 
8.916377583257422

>  <meeko>  (31) 
{"free_energy": -7.94, "intermolecular_energy": -10.03, "internal_energy": -2.21, "cluster_size": 3, "cluster_id": 6, "rank_in_cluster": 2}

>  <energy>  (31) 
-7.81

>  <cluster_rmsd>  (31) 
0.62

>  <cluster>  (31) 
4

$$$$

     RDKit          3D

 64 67  0  0  0  0  0  0  0  0999 V2000
  133.9000   77.0860  225.0050 C   0  0  0  0  0  0  0  0  0  0  0  0
  133.1110   77.6650  223.8670 C   0  0  0  0  0  0  0  0  0  0  0  0
  133.9950   78.5090  222.9820 C   0  0  0  0  0  0  0  0  0  0  0  0
  133.3940   79.3990  222.3310 O   0  0  0  0  0  0  0  0  0  0  0  0
  135.3970   78.2850  222.9150 N   0  0  0  0  0  0  0  0  0  0  0  0
  136.2160   79.3110  223.5270 C   0  0  0  0  0  0  0  0  0  0  0  0
  137.5520   79.4390  223.2300 C   0  0  0  0  0  0  0  0  0  0  0  0
  138.2670   80.4270  223.8400 C   0  0  0  0  0  0  0  0  0  0  0  0
  137.6320   81.2740  224.7420 C   0  0  0  0  0  0  0  0  0  0  0  0
  136.2910   81.1390  225.0340 C   0  0  0  0  0  0  0  0  0  0  0  0
  135.5660   80.1430  224.4210 C   0  0  0  0  0  0  0  0  0  0  0  0
  135.9990   77.1280  222.2940 C   0  0  0  0  0  0  0  0  0  0  0  0
  136.6860   77.4420  221.0200 C   0  0  0  0  0  0  0  0  0  0  0  0
  138.1760   77.2610  221.0110 C   0  0  0  0  0  0  0  0  0  0  0  0
  138.5200   75.9790  221.5700 N   0  0  0  0  0  0  0  0  0  0  0  0
  139.7970   75.3630  221.4500 C   0  0  0  0  0  0  0  0  0  0  0  0
  139.9700   74.1980  221.9740 O   0  0  0  0  0  0  0  0  0  0  0  0
  140.9630   75.9320  220.7770 C   0  0  2  0  0  0  0  0  0  0  0  0
  142.1120   75.0630  220.7580 N   0  0  0  0  0  0  0  0  0  0  0  0
  141.4060   77.2660  221.2830 C   0  0  2  0  0  0  0  0  0  0  0  0
  141.0620   77.5360  222.7290 C   0  0  0  0  0  0  0  0  0  0  0  0
  141.4750   78.9850  222.8060 C   0  0  0  0  0  0  0  0  0  0  0  0
  141.9260   79.7300  223.8760 C   0  0  0  0  0  0  0  0  0  0  0  0
  142.2440   81.0600  223.6790 C   0  0  0  0  0  0  0  0  0  0  0  0
  142.1000   81.5940  222.4210 C   0  0  0  0  0  0  0  0  0  0  0  0
  141.6530   80.8780  221.3360 C   0  0  0  0  0  0  0  0  0  0  0  0
  141.5130   81.5010  219.9920 C   0  0  0  0  0  0  0  0  0  0  0  0
  141.3350   79.5490  221.5310 C   0  0  0  0  0  0  0  0  0  0  0  0
  140.8240   78.4600  220.6150 C   0  0  0  0  0  0  0  0  0  0  0  0
  137.5020   75.2390  222.3390 C   0  0  0  0  0  0  0  0  0  0  0  0
  136.8100   76.2880  223.2380 C   0  0  0  0  0  0  0  0  0  0  0  0
  133.4588   77.4098  225.9592 H   0  0  0  0  0  0  0  0  0  0  0  0
  133.8783   75.9879  224.9449 H   0  0  0  0  0  0  0  0  0  0  0  0
  134.9411   77.4360  224.9449 H   0  0  0  0  0  0  0  0  0  0  0  0
  132.6806   76.8460  223.2721 H   0  0  0  0  0  0  0  0  0  0  0  0
  132.3111   78.2992  224.2769 H   0  0  0  0  0  0  0  0  0  0  0  0
  138.0350   78.7576  222.5141 H   0  0  0  0  0  0  0  0  0  0  0  0
  139.3375   80.5531  223.6204 H   0  0  0  0  0  0  0  0  0  0  0  0
  138.2121   82.0690  225.2333 H   0  0  0  0  0  0  0  0  0  0  0  0
  135.8063   81.8200  225.7490 H   0  0  0  0  0  0  0  0  0  0  0  0
  134.4954   80.0115  224.6366 H   0  0  0  0  0  0  0  0  0  0  0  0
  135.1579   76.4785  222.0098 H   0  0  0  0  0  0  0  0  0  0  0  0
  136.2636   76.7903  220.2409 H   0  0  0  0  0  0  0  0  0  0  0  0
  136.5179   78.5158  220.8506 H   0  0  0  0  0  0  0  0  0  0  0  0
  138.5435   77.3174  219.9758 H   0  0  0  0  0  0  0  0  0  0  0  0
  138.6397   78.0545  221.6154 H   0  0  0  0  0  0  0  0  0  0  0  0
  140.5777   76.0614  219.7548 H   0  0  0  0  0  0  0  0  0  0  0  0
  142.7720   75.3870  221.4990 H   0  0  0  0  0  0  0  0  0  0  0  0
  141.8410   74.0470  220.9020 H   0  0  0  0  0  0  0  0  0  0  0  0
  142.4828   77.1615  221.0841 H   0  0  0  0  0  0  0  0  0  0  0  0
  139.9886   77.4023  222.9291 H   0  0  0  0  0  0  0  0  0  0  0  0
  141.5412   76.8690  223.4608 H   0  0  0  0  0  0  0  0  0  0  0  0
  142.0308   79.2722  224.8707 H   0  0  0  0  0  0  0  0  0  0  0  0
  142.6055   81.6795  224.5130 H   0  0  0  0  0  0  0  0  0  0  0  0
  142.3568   82.6535  222.2740 H   0  0  0  0  0  0  0  0  0  0  0  0
  141.2731   82.5685  220.1059 H   0  0  0  0  0  0  0  0  0  0  0  0
  142.4575   81.3945  219.4383 H   0  0  0  0  0  0  0  0  0  0  0  0
  140.7049   81.0006  219.4383 H   0  0  0  0  0  0  0  0  0  0  0  0
  139.7247   78.4231  220.5984 H   0  0  0  0  0  0  0  0  0  0  0  0
  141.0987   78.5784  219.5565 H   0  0  0  0  0  0  0  0  0  0  0  0
  136.7716   74.7745  221.6602 H   0  0  0  0  0  0  0  0  0  0  0  0
  137.9518   74.4298  222.9330 H   0  0  0  0  0  0  0  0  0  0  0  0
  136.1591   75.7966  223.9761 H   0  0  0  0  0  0  0  0  0  0  0  0
  137.5342   76.8874  223.8092 H   0  0  0  0  0  0  0  0  0  0  0  0
  1  2  1  0
  2  3  1  0
  3  4  2  0
  3  5  1  0
  5  6  1  0
  6  7  2  0
  7  8  1  0
  8  9  2  0
  9 10  1  0
 10 11  2  0
  5 12  1  0
 12 13  1  0
 13 14  1  0
 14 15  1  0
 15 16  1  0
 16 17  2  0
 16 18  1  0
 18 19  1  0
 18 20  1  0
 20 21  1  0
 21 22  1  0
 22 23  2  0
 23 24  1  0
 24 25  2  0
 25 26  1  0
 26 27  1  0
 26 28  2  0
 28 29  1  0
 15 30  1  0
 30 31  1  0
 11  6  1  0
 31 12  1  0
 29 20  1  0
 28 22  1  0
  1 32  1  0
  1 33  1  0
  1 34  1  0
  2 35  1  0
  2 36  1  0
  7 37  1  0
  8 38  1  0
  9 39  1  0
 10 40  1  0
 11 41  1  0
 12 42  1  0
 13 43  1  0
 13 44  1  0
 14 45  1  0
 14 46  1  0
 18 47  1  6
 19 48  1  0
 19 49  1  0
 20 50  1  1
 21 51  1  0
 21 52  1  0
 23 53  1  0
 24 54  1  0
 25 55  1  0
 27 56  1  0
 27 57  1  0
 27 58  1  0
 29 59  1  0
 29 60  1  0
 30 61  1  0
 30 62  1  0
 31 63  1  0
 31 64  1  0
M  END
>  <smiles>  (32) 
CCC(=O)N(c1ccccc1)C1CCN(C(=O)[C@H](N)C2Cc3cccc(C)c3C2)CC1

>  <score_type>  (32) 
oracle

>  <origin>  (32) 
autodockgpu

>  <m_score__min__energy>  (32) 
-8.7400000000000002

>  <m_primary>  (32) 
energy

>  <rmsd>  (32) 
5.011048240460302

>  <m_score__min__rmsd>  (32) 
5.011048240460302

>  <meeko>  (32) 
{"free_energy": -6.56, "intermolecular_energy": -8.65, "internal_energy": -3.04, "cluster_size": 3, "cluster_id": 11, "rank_in_cluster": 2}

>  <energy>  (32) 
-7.74

>  <cluster_rmsd>  (32) 
0.71

>  <cluster>  (32) 
4

$$$$

     RDKit          3D

 64 67  0  0  0  0  0  0  0  0999 V2000
  145.9530   72.9980  221.5840 C   0  0  0  0  0  0  0  0  0  0  0  0
  146.0330   73.7990  220.3170 C   0  0  0  0  0  0  0  0  0  0  0  0
  145.5450   72.9860  219.1430 C   0  0  0  0  0  0  0  0  0  0  0  0
  146.2750   73.0410  218.1230 O   0  0  0  0  0  0  0  0  0  0  0  0
  144.3450   72.2300  219.2200 N   0  0  0  0  0  0  0  0  0  0  0  0
  144.5060   70.7990  219.0630 C   0  0  0  0  0  0  0  0  0  0  0  0
  145.0260   70.2540  217.9130 C   0  0  0  0  0  0  0  0  0  0  0  0
  145.1530   68.8990  217.8290 C   0  0  0  0  0  0  0  0  0  0  0  0
  144.7530   68.1070  218.9000 C   0  0  0  0  0  0  0  0  0  0  0  0
  144.2320   68.6610  220.0500 C   0  0  0  0  0  0  0  0  0  0  0  0
  144.1020   70.0290  220.1390 C   0  0  0  0  0  0  0  0  0  0  0  0
  143.0400   72.8080  219.4440 C   0  0  0  0  0  0  0  0  0  0  0  0
  141.9330   71.8490  219.2310 C   0  0  0  0  0  0  0  0  0  0  0  0
  141.1280   71.4890  220.4450 C   0  0  0  0  0  0  0  0  0  0  0  0
  140.7490   72.6820  221.1570 N   0  0  0  0  0  0  0  0  0  0  0  0
  139.7540   72.7340  222.1720 C   0  0  0  0  0  0  0  0  0  0  0  0
  139.4870   73.8720  222.7160 O   0  0  0  0  0  0  0  0  0  0  0  0
  138.9810   71.5990  222.6750 C   0  0  2  0  0  0  0  0  0  0  0  0
  137.5550   71.7740  222.5860 N   0  0  0  0  0  0  0  0  0  0  0  0
  139.3050   71.1740  224.0700 C   0  0  2  0  0  0  0  0  0  0  0  0
  140.5010   71.8680  224.6780 C   0  0  0  0  0  0  0  0  0  0  0  0
  140.6210   71.0660  225.9500 C   0  0  0  0  0  0  0  0  0  0  0  0
  141.1180   71.4220  227.1880 C   0  0  0  0  0  0  0  0  0  0  0  0
  141.1150   70.4870  228.2040 C   0  0  0  0  0  0  0  0  0  0  0  0
  140.6160   69.2330  227.9460 C   0  0  0  0  0  0  0  0  0  0  0  0
  140.1140   68.8480  226.7250 C   0  0  0  0  0  0  0  0  0  0  0  0
  139.5840   67.4780  226.4950 C   0  0  0  0  0  0  0  0  0  0  0  0
  140.1170   69.7810  225.7080 C   0  0  0  0  0  0  0  0  0  0  0  0
  139.6650   69.7450  224.2660 C   0  0  0  0  0  0  0  0  0  0  0  0
  141.4380   73.9480  220.8450 C   0  0  0  0  0  0  0  0  0  0  0  0
  142.9360   73.5920  220.7200 C   0  0  0  0  0  0  0  0  0  0  0  0
  146.0205   73.6734  222.4496 H   0  0  0  0  0  0  0  0  0  0  0  0
  144.9963   72.4561  221.6154 H   0  0  0  0  0  0  0  0  0  0  0  0
  146.7837   72.2776  221.6154 H   0  0  0  0  0  0  0  0  0  0  0  0
  145.4085   74.6989  220.4181 H   0  0  0  0  0  0  0  0  0  0  0  0
  147.0816   74.0813  220.1415 H   0  0  0  0  0  0  0  0  0  0  0  0
  145.3337   70.8987  217.0766 H   0  0  0  0  0  0  0  0  0  0  0  0
  145.5684   68.4361  216.9217 H   0  0  0  0  0  0  0  0  0  0  0  0
  144.8546   67.0141  218.8279 H   0  0  0  0  0  0  0  0  0  0  0  0
  143.9236   68.0174  220.8871 H   0  0  0  0  0  0  0  0  0  0  0  0
  143.6872   70.4980  221.0434 H   0  0  0  0  0  0  0  0  0  0  0  0
  142.9165   73.5626  218.6532 H   0  0  0  0  0  0  0  0  0  0  0  0
  141.2471   72.2867  218.4907 H   0  0  0  0  0  0  0  0  0  0  0  0
  142.4114   70.9134  218.9059 H   0  0  0  0  0  0  0  0  0  0  0  0
  140.2225   70.9473  220.1340 H   0  0  0  0  0  0  0  0  0  0  0  0
  141.7356   70.8526  221.1051 H   0  0  0  0  0  0  0  0  0  0  0  0
  139.3000   70.8013  221.9881 H   0  0  0  0  0  0  0  0  0  0  0  0
  137.1020   71.0120  223.1370 H   0  0  0  0  0  0  0  0  0  0  0  0
  137.2520   72.7310  222.9310 H   0  0  0  0  0  0  0  0  0  0  0  0
  138.3438   71.4296  224.5399 H   0  0  0  0  0  0  0  0  0  0  0  0
  141.3966   71.7749  224.0462 H   0  0  0  0  0  0  0  0  0  0  0  0
  140.3980   72.9548  224.8130 H   0  0  0  0  0  0  0  0  0  0  0  0
  141.5103   72.4348  227.3622 H   0  0  0  0  0  0  0  0  0  0  0  0
  141.5046   70.7411  229.2008 H   0  0  0  0  0  0  0  0  0  0  0  0
  140.6182   68.4955  228.7622 H   0  0  0  0  0  0  0  0  0  0  0  0
  139.3954   66.9905  227.4629 H   0  0  0  0  0  0  0  0  0  0  0  0
  138.6446   67.5390  225.9260 H   0  0  0  0  0  0  0  0  0  0  0  0
  140.3199   66.8909  225.9260 H   0  0  0  0  0  0  0  0  0  0  0  0
  140.4763   69.4327  223.5920 H   0  0  0  0  0  0  0  0  0  0  0  0
  138.8559   69.0309  224.0528 H   0  0  0  0  0  0  0  0  0  0  0  0
  141.0631   74.3650  219.8987 H   0  0  0  0  0  0  0  0  0  0  0  0
  141.2654   74.7055  221.6237 H   0  0  0  0  0  0  0  0  0  0  0  0
  143.5476   74.5046  220.6647 H   0  0  0  0  0  0  0  0  0  0  0  0
  143.3007   73.0225  221.5875 H   0  0  0  0  0  0  0  0  0  0  0  0
  1  2  1  0
  2  3  1  0
  3  4  2  0
  3  5  1  0
  5  6  1  0
  6  7  2  0
  7  8  1  0
  8  9  2  0
  9 10  1  0
 10 11  2  0
  5 12  1  0
 12 13  1  0
 13 14  1  0
 14 15  1  0
 15 16  1  0
 16 17  2  0
 16 18  1  0
 18 19  1  0
 18 20  1  0
 20 21  1  0
 21 22  1  0
 22 23  2  0
 23 24  1  0
 24 25  2  0
 25 26  1  0
 26 27  1  0
 26 28  2  0
 28 29  1  0
 15 30  1  0
 30 31  1  0
 11  6  1  0
 31 12  1  0
 29 20  1  0
 28 22  1  0
  1 32  1  0
  1 33  1  0
  1 34  1  0
  2 35  1  0
  2 36  1  0
  7 37  1  0
  8 38  1  0
  9 39  1  0
 10 40  1  0
 11 41  1  0
 12 42  1  0
 13 43  1  0
 13 44  1  0
 14 45  1  0
 14 46  1  0
 18 47  1  6
 19 48  1  0
 19 49  1  0
 20 50  1  1
 21 51  1  0
 21 52  1  0
 23 53  1  0
 24 54  1  0
 25 55  1  0
 27 56  1  0
 27 57  1  0
 27 58  1  0
 29 59  1  0
 29 60  1  0
 30 61  1  0
 30 62  1  0
 31 63  1  0
 31 64  1  0
M  END
>  <smiles>  (33) 
CCC(=O)N(c1ccccc1)C1CCN(C(=O)[C@H](N)C2Cc3cccc(C)c3C2)CC1

>  <score_type>  (33) 
oracle

>  <origin>  (33) 
autodockgpu

>  <m_score__min__energy>  (33) 
-8.7400000000000002

>  <m_primary>  (33) 
energy

>  <rmsd>  (33) 
8.435008154374652

>  <m_score__min__rmsd>  (33) 
8.435008154374652

>  <meeko>  (33) 
{"free_energy": -8.74, "intermolecular_energy": -10.83, "internal_energy": -1.8, "cluster_size": 10, "cluster_id": 1, "rank_in_cluster": 1}

>  <energy>  (33) 
-7.62

>  <cluster_rmsd>  (33) 
1.4

>  <cluster>  (33) 
4

$$$$

     RDKit          3D

 64 67  0  0  0  0  0  0  0  0999 V2000
  146.3330   73.3230  221.6510 C   0  0  0  0  0  0  0  0  0  0  0  0
  145.4120   73.8670  220.5980 C   0  0  0  0  0  0  0  0  0  0  0  0
  145.3020   72.9050  219.4400 C   0  0  0  0  0  0  0  0  0  0  0  0
  146.1940   73.0300  218.5640 O   0  0  0  0  0  0  0  0  0  0  0  0
  144.2570   71.9460  219.3770 N   0  0  0  0  0  0  0  0  0  0  0  0
  144.6880   70.5640  219.3470 C   0  0  0  0  0  0  0  0  0  0  0  0
  145.9720   70.2170  219.0000 C   0  0  0  0  0  0  0  0  0  0  0  0
  146.3160   68.8960  218.9930 C   0  0  0  0  0  0  0  0  0  0  0  0
  145.3640   67.9410  219.3340 C   0  0  0  0  0  0  0  0  0  0  0  0
  144.0780   68.2970  219.6800 C   0  0  0  0  0  0  0  0  0  0  0  0
  143.7280   69.6290  219.6880 C   0  0  0  0  0  0  0  0  0  0  0  0
  142.8520   72.2840  219.3470 C   0  0  0  0  0  0  0  0  0  0  0  0
  142.2030   72.1940  220.6750 C   0  0  0  0  0  0  0  0  0  0  0  0
  141.7100   73.4860  221.2580 C   0  0  0  0  0  0  0  0  0  0  0  0
  140.9490   74.2120  220.2750 N   0  0  0  0  0  0  0  0  0  0  0  0
  140.1010   75.3170  220.5650 C   0  0  0  0  0  0  0  0  0  0  0  0
  139.4510   75.8660  219.5970 O   0  0  0  0  0  0  0  0  0  0  0  0
  139.8870   75.9090  221.8840 C   0  0  2  0  0  0  0  0  0  0  0  0
  138.5140   75.8920  222.3190 N   0  0  0  0  0  0  0  0  0  0  0  0
  140.4030   77.3010  222.0520 C   0  0  2  0  0  0  0  0  0  0  0  0
  141.4480   77.4580  223.1320 C   0  0  0  0  0  0  0  0  0  0  0  0
  141.5690   78.9620  223.1300 C   0  0  0  0  0  0  0  0  0  0  0  0
  142.6370   79.7730  223.4550 C   0  0  0  0  0  0  0  0  0  0  0  0
  142.4870   81.1440  223.3680 C   0  0  0  0  0  0  0  0  0  0  0  0
  141.2770   81.6510  222.9590 C   0  0  0  0  0  0  0  0  0  0  0  0
  140.1950   80.8700  222.6300 C   0  0  0  0  0  0  0  0  0  0  0  0
  138.9040   81.4660  222.1930 C   0  0  0  0  0  0  0  0  0  0  0  0
  140.3430   79.5000  222.7160 C   0  0  0  0  0  0  0  0  0  0  0  0
  139.4140   78.3380  222.4480 C   0  0  0  0  0  0  0  0  0  0  0  0
  141.0500   73.8150  218.8580 C   0  0  0  0  0  0  0  0  0  0  0  0
  142.5510   73.5520  218.6020 C   0  0  0  0  0  0  0  0  0  0  0  0
  145.9315   73.5601  222.6473 H   0  0  0  0  0  0  0  0  0  0  0  0
  146.4144   72.2318  221.5387 H   0  0  0  0  0  0  0  0  0  0  0  0
  147.3280   73.7784  221.5387 H   0  0  0  0  0  0  0  0  0  0  0  0
  144.4146   74.0221  221.0352 H   0  0  0  0  0  0  0  0  0  0  0  0
  145.8184   74.8205  220.2296 H   0  0  0  0  0  0  0  0  0  0  0  0
  146.7084   70.9893  218.7330 H   0  0  0  0  0  0  0  0  0  0  0  0
  147.3366   68.5896  218.7202 H   0  0  0  0  0  0  0  0  0  0  0  0
  145.6437   66.8772  219.3274 H   0  0  0  0  0  0  0  0  0  0  0  0
  143.3399   67.5262  219.9466 H   0  0  0  0  0  0  0  0  0  0  0  0
  142.7089   69.9417  219.9593 H   0  0  0  0  0  0  0  0  0  0  0  0
  142.3752   71.4970  218.7443 H   0  0  0  0  0  0  0  0  0  0  0  0
  141.3413   71.5165  220.5827 H   0  0  0  0  0  0  0  0  0  0  0  0
  142.9849   71.8390  221.3625 H   0  0  0  0  0  0  0  0  0  0  0  0
  141.0716   73.2728  222.1280 H   0  0  0  0  0  0  0  0  0  0  0  0
  142.5725   74.0943  221.5678 H   0  0  0  0  0  0  0  0  0  0  0  0
  140.4868   75.2398  222.5184 H   0  0  0  0  0  0  0  0  0  0  0  0
  137.9130   75.7280  221.4810 H   0  0  0  0  0  0  0  0  0  0  0  0
  138.3440   75.1560  223.0650 H   0  0  0  0  0  0  0  0  0  0  0  0
  140.7785   77.4544  221.0295 H   0  0  0  0  0  0  0  0  0  0  0  0
  141.0991   77.0740  224.1019 H   0  0  0  0  0  0  0  0  0  0  0  0
  142.3862   76.9086  222.9646 H   0  0  0  0  0  0  0  0  0  0  0  0
  143.5929   79.3351  223.7783 H   0  0  0  0  0  0  0  0  0  0  0  0
  143.3199   81.8164  223.6212 H   0  0  0  0  0  0  0  0  0  0  0  0
  141.1683   82.7435  222.8911 H   0  0  0  0  0  0  0  0  0  0  0  0
  138.3092   81.7406  223.0766 H   0  0  0  0  0  0  0  0  0  0  0  0
  139.1006   82.3645  221.5896 H   0  0  0  0  0  0  0  0  0  0  0  0
  138.3476   80.7336  221.5896 H   0  0  0  0  0  0  0  0  0  0  0  0
  138.8554   78.0459  223.3495 H   0  0  0  0  0  0  0  0  0  0  0  0
  138.6280   78.5359  221.7043 H   0  0  0  0  0  0  0  0  0  0  0  0
  140.4640   72.9027  218.6728 H   0  0  0  0  0  0  0  0  0  0  0  0
  140.6551   74.5942  218.1895 H   0  0  0  0  0  0  0  0  0  0  0  0
  142.7439   73.4244  217.5266 H   0  0  0  0  0  0  0  0  0  0  0  0
  143.1816   74.3890  218.9363 H   0  0  0  0  0  0  0  0  0  0  0  0
  1  2  1  0
  2  3  1  0
  3  4  2  0
  3  5  1  0
  5  6  1  0
  6  7  2  0
  7  8  1  0
  8  9  2  0
  9 10  1  0
 10 11  2  0
  5 12  1  0
 12 13  1  0
 13 14  1  0
 14 15  1  0
 15 16  1  0
 16 17  2  0
 16 18  1  0
 18 19  1  0
 18 20  1  0
 20 21  1  0
 21 22  1  0
 22 23  2  0
 23 24  1  0
 24 25  2  0
 25 26  1  0
 26 27  1  0
 26 28  2  0
 28 29  1  0
 15 30  1  0
 30 31  1  0
 11  6  1  0
 31 12  1  0
 29 20  1  0
 28 22  1  0
  1 32  1  0
  1 33  1  0
  1 34  1  0
  2 35  1  0
  2 36  1  0
  7 37  1  0
  8 38  1  0
  9 39  1  0
 10 40  1  0
 11 41  1  0
 12 42  1  0
 13 43  1  0
 13 44  1  0
 14 45  1  0
 14 46  1  0
 18 47  1  1
 19 48  1  0
 19 49  1  0
 20 50  1  6
 21 51  1  0
 21 52  1  0
 23 53  1  0
 24 54  1  0
 25 55  1  0
 27 56  1  0
 27 57  1  0
 27 58  1  0
 29 59  1  0
 29 60  1  0
 30 61  1  0
 30 62  1  0
 31 63  1  0
 31 64  1  0
M  END
>  <smiles>  (34) 
CCC(=O)N(c1ccccc1)C1CCN(C(=O)[C@H](N)C2Cc3cccc(C)c3C2)CC1

>  <score_type>  (34) 
oracle

>  <origin>  (34) 
autodockgpu

>  <m_score__min__energy>  (34) 
-8.7400000000000002

>  <m_primary>  (34) 
energy

>  <rmsd>  (34) 
5.107123532990575

>  <m_score__min__rmsd>  (34) 
5.107123532990575

>  <meeko>  (34) 
{"free_energy": -8.13, "intermolecular_energy": -10.22, "internal_energy": -1.85, "cluster_size": 5, "cluster_id": 5, "rank_in_cluster": 1}

>  <energy>  (34) 
-8.13

>  <cluster_rmsd>  (34) 
0.0

>  <cluster>  (34) 
5

$$$$

     RDKit          3D

 64 67  0  0  0  0  0  0  0  0999 V2000
  142.9840   67.1590  217.9010 C   0  0  0  0  0  0  0  0  0  0  0  0
  143.4690   67.2370  219.3190 C   0  0  0  0  0  0  0  0  0  0  0  0
  144.4760   68.3500  219.4760 C   0  0  0  0  0  0  0  0  0  0  0  0
  145.3390   68.1590  220.3680 O   0  0  0  0  0  0  0  0  0  0  0  0
  144.4210   69.5120  218.6600 N   0  0  0  0  0  0  0  0  0  0  0  0
  145.3560   69.5350  217.5550 C   0  0  0  0  0  0  0  0  0  0  0  0
  145.7240   70.7110  216.9460 C   0  0  0  0  0  0  0  0  0  0  0  0
  146.6100   70.6640  215.9100 C   0  0  0  0  0  0  0  0  0  0  0  0
  147.1150   69.4350  215.4980 C   0  0  0  0  0  0  0  0  0  0  0  0
  146.7420   68.2590  216.1140 C   0  0  0  0  0  0  0  0  0  0  0  0
  145.8470   68.3030  217.1600 C   0  0  0  0  0  0  0  0  0  0  0  0
  143.5090   70.6100  218.8820 C   0  0  0  0  0  0  0  0  0  0  0  0
  142.0860   70.2050  218.8300 C   0  0  0  0  0  0  0  0  0  0  0  0
  141.3180   70.3220  220.1140 C   0  0  0  0  0  0  0  0  0  0  0  0
  141.5450   71.6140  220.7080 N   0  0  0  0  0  0  0  0  0  0  0  0
  140.7610   72.1680  221.7590 C   0  0  0  0  0  0  0  0  0  0  0  0
  141.0520   73.3490  222.1860 O   0  0  0  0  0  0  0  0  0  0  0  0
  139.6310   71.5180  222.4200 C   0  0  2  0  0  0  0  0  0  0  0  0
  138.5420   72.4070  222.7300 N   0  0  0  0  0  0  0  0  0  0  0  0
  139.9680   70.7560  223.6600 C   0  0  2  0  0  0  0  0  0  0  0  0
  139.0860   69.5580  223.9210 C   0  0  0  0  0  0  0  0  0  0  0  0
  139.5870   69.1880  225.2950 C   0  0  0  0  0  0  0  0  0  0  0  0
  139.6310   67.9630  225.9300 C   0  0  0  0  0  0  0  0  0  0  0  0
  140.1480   67.8910  227.2100 C   0  0  0  0  0  0  0  0  0  0  0  0
  140.6010   69.0440  227.8050 C   0  0  0  0  0  0  0  0  0  0  0  0
  140.5700   70.2780  227.1980 C   0  0  0  0  0  0  0  0  0  0  0  0
  141.0730   71.4980  227.8840 C   0  0  0  0  0  0  0  0  0  0  0  0
  140.0540   70.3520  225.9200 C   0  0  0  0  0  0  0  0  0  0  0  0
  139.8540   71.4910  224.9470 C   0  0  0  0  0  0  0  0  0  0  0  0
  142.6720   72.4340  220.2260 C   0  0  0  0  0  0  0  0  0  0  0  0
  143.8620   71.4600  220.0680 C   0  0  0  0  0  0  0  0  0  0  0  0
  141.8980   66.9843  217.8940 H   0  0  0  0  0  0  0  0  0  0  0  0
  143.2066   68.1045  217.3848 H   0  0  0  0  0  0  0  0  0  0  0  0
  143.4919   66.3310  217.3848 H   0  0  0  0  0  0  0  0  0  0  0  0
  142.6134   67.4273  219.9837 H   0  0  0  0  0  0  0  0  0  0  0  0
  143.9506   66.2836  219.5818 H   0  0  0  0  0  0  0  0  0  0  0  0
  145.3118   71.6719  217.2877 H   0  0  0  0  0  0  0  0  0  0  0  0
  146.9225   71.5898  215.4047 H   0  0  0  0  0  0  0  0  0  0  0  0
  147.8284   69.4005  214.6614 H   0  0  0  0  0  0  0  0  0  0  0  0
  147.1542   67.2975  215.7741 H   0  0  0  0  0  0  0  0  0  0  0  0
  145.5301   67.3809  217.6692 H   0  0  0  0  0  0  0  0  0  0  0  0
  143.6448   71.2801  218.0203 H   0  0  0  0  0  0  0  0  0  0  0  0
  141.5847   70.8347  218.0802 H   0  0  0  0  0  0  0  0  0  0  0  0
  142.0933   69.1321  218.5872 H   0  0  0  0  0  0  0  0  0  0  0  0
  140.2443   70.1991  219.9087 H   0  0  0  0  0  0  0  0  0  0  0  0
  141.6568   69.5403  220.8098 H   0  0  0  0  0  0  0  0  0  0  0  0
  139.3160   70.7999  221.6486 H   0  0  0  0  0  0  0  0  0  0  0  0
  138.1430   72.1190  223.6510 H   0  0  0  0  0  0  0  0  0  0  0  0
  138.8520   73.4220  222.7450 H   0  0  0  0  0  0  0  0  0  0  0  0
  141.0110   70.5073  223.4145 H   0  0  0  0  0  0  0  0  0  0  0  0
  138.0191   69.8258  223.9297 H   0  0  0  0  0  0  0  0  0  0  0  0
  139.1404   68.7585  223.1675 H   0  0  0  0  0  0  0  0  0  0  0  0
  139.2605   67.0585  225.4254 H   0  0  0  0  0  0  0  0  0  0  0  0
  140.1959   66.9294  227.7420 H   0  0  0  0  0  0  0  0  0  0  0  0
  141.0112   68.9763  228.8234 H   0  0  0  0  0  0  0  0  0  0  0  0
  141.0147   71.3565  228.9733 H   0  0  0  0  0  0  0  0  0  0  0  0
  142.1185   71.6776  227.5930 H   0  0  0  0  0  0  0  0  0  0  0  0
  140.4578   72.3622  227.5930 H   0  0  0  0  0  0  0  0  0  0  0  0
  138.8651   71.9584  225.0637 H   0  0  0  0  0  0  0  0  0  0  0  0
  140.5565   72.3292  225.0650 H   0  0  0  0  0  0  0  0  0  0  0  0
  142.4239   72.8961  219.2591 H   0  0  0  0  0  0  0  0  0  0  0  0
  142.9067   73.2511  220.9240 H   0  0  0  0  0  0  0  0  0  0  0  0
  144.7941   72.0142  219.8835 H   0  0  0  0  0  0  0  0  0  0  0  0
  144.0288   70.8589  220.9740 H   0  0  0  0  0  0  0  0  0  0  0  0
  1  2  1  0
  2  3  1  0
  3  4  2  0
  3  5  1  0
  5  6  1  0
  6  7  2  0
  7  8  1  0
  8  9  2  0
  9 10  1  0
 10 11  2  0
  5 12  1  0
 12 13  1  0
 13 14  1  0
 14 15  1  0
 15 16  1  0
 16 17  2  0
 16 18  1  0
 18 19  1  0
 18 20  1  0
 20 21  1  0
 21 22  1  0
 22 23  2  0
 23 24  1  0
 24 25  2  0
 25 26  1  0
 26 27  1  0
 26 28  2  0
 28 29  1  0
 15 30  1  0
 30 31  1  0
 11  6  1  0
 31 12  1  0
 29 20  1  0
 28 22  1  0
  1 32  1  0
  1 33  1  0
  1 34  1  0
  2 35  1  0
  2 36  1  0
  7 37  1  0
  8 38  1  0
  9 39  1  0
 10 40  1  0
 11 41  1  0
 12 42  1  0
 13 43  1  0
 13 44  1  0
 14 45  1  0
 14 46  1  0
 18 47  1  6
 19 48  1  0
 19 49  1  0
 20 50  1  6
 21 51  1  0
 21 52  1  0
 23 53  1  0
 24 54  1  0
 25 55  1  0
 27 56  1  0
 27 57  1  0
 27 58  1  0
 29 59  1  0
 29 60  1  0
 30 61  1  0
 30 62  1  0
 31 63  1  0
 31 64  1  0
M  END
>  <smiles>  (35) 
CCC(=O)N(c1ccccc1)C1CCN(C(=O)[C@H](N)C2Cc3cccc(C)c3C2)CC1

>  <score_type>  (35) 
oracle

>  <origin>  (35) 
autodockgpu

>  <m_score__min__energy>  (35) 
-8.7400000000000002

>  <m_primary>  (35) 
energy

>  <rmsd>  (35) 
9.876232628823894

>  <m_score__min__rmsd>  (35) 
9.876232628823894

>  <meeko>  (35) 
{"free_energy": -8.25, "intermolecular_energy": -10.34, "internal_energy": -2.03, "cluster_size": 1, "cluster_id": 3, "rank_in_cluster": 1}

>  <energy>  (35) 
-8.09

>  <cluster_rmsd>  (35) 
0.22

>  <cluster>  (35) 
5

$$$$

     RDKit          3D

 64 67  0  0  0  0  0  0  0  0999 V2000
  142.5590   80.4300  223.4360 C   0  0  0  0  0  0  0  0  0  0  0  0
  142.1710   79.4000  222.4150 C   0  0  0  0  0  0  0  0  0  0  0  0
  141.2720   78.3550  223.0290 C   0  0  0  0  0  0  0  0  0  0  0  0
  141.8040   77.6660  223.9340 O   0  0  0  0  0  0  0  0  0  0  0  0
  139.9300   78.1910  222.5910 N   0  0  0  0  0  0  0  0  0  0  0  0
  139.0340   79.2780  222.9250 C   0  0  0  0  0  0  0  0  0  0  0  0
  138.1280   79.7710  222.0160 C   0  0  0  0  0  0  0  0  0  0  0  0
  137.3110   80.7960  222.3940 C   0  0  0  0  0  0  0  0  0  0  0  0
  137.4150   81.3140  223.6810 C   0  0  0  0  0  0  0  0  0  0  0  0
  138.3260   80.8130  224.5870 C   0  0  0  0  0  0  0  0  0  0  0  0
  139.1520   79.7790  224.2090 C   0  0  0  0  0  0  0  0  0  0  0  0
  139.4570   77.0390  221.8580 C   0  0  0  0  0  0  0  0  0  0  0  0
  140.5460   76.2730  221.2110 C   0  0  0  0  0  0  0  0  0  0  0  0
  140.7750   74.8830  221.7290 C   0  0  0  0  0  0  0  0  0  0  0  0
  139.5230   74.1760  221.8140 N   0  0  0  0  0  0  0  0  0  0  0  0
  139.4010   72.7690  221.9820 C   0  0  0  0  0  0  0  0  0  0  0  0
  138.2190   72.2530  222.0160 O   0  0  0  0  0  0  0  0  0  0  0  0
  140.5060   71.8230  222.1230 C   0  0  2  0  0  0  0  0  0  0  0  0
  140.5870   70.8520  221.0620 N   0  0  0  0  0  0  0  0  0  0  0  0
  140.5560   71.0880  223.4220 C   0  0  2  0  0  0  0  0  0  0  0  0
  139.5130   70.0060  223.5730 C   0  0  0  0  0  0  0  0  0  0  0  0
  139.7480   69.6470  225.0200 C   0  0  0  0  0  0  0  0  0  0  0  0
  139.5520   68.4560  225.6890 C   0  0  0  0  0  0  0  0  0  0  0  0
  139.8510   68.3880  227.0360 C   0  0  0  0  0  0  0  0  0  0  0  0
  140.3330   69.5120  227.6630 C   0  0  0  0  0  0  0  0  0  0  0  0
  140.5390   70.7120  227.0240 C   0  0  0  0  0  0  0  0  0  0  0  0
  141.0640   71.9020  227.7460 C   0  0  0  0  0  0  0  0  0  0  0  0
  140.2410   70.7820  225.6780 C   0  0  0  0  0  0  0  0  0  0  0  0
  140.3260   71.8900  224.6530 C   0  0  0  0  0  0  0  0  0  0  0  0
  138.2650   74.9430  221.7430 C   0  0  0  0  0  0  0  0  0  0  0  0
  138.4830   76.1920  222.6250 C   0  0  0  0  0  0  0  0  0  0  0  0
  142.4051   80.0215  224.4457 H   0  0  0  0  0  0  0  0  0  0  0  0
  143.6186   80.6950  223.3052 H   0  0  0  0  0  0  0  0  0  0  0  0
  141.9376   81.3282  223.3052 H   0  0  0  0  0  0  0  0  0  0  0  0
  141.6394   79.8933  221.5880 H   0  0  0  0  0  0  0  0  0  0  0  0
  143.0823   78.9091  222.0428 H   0  0  0  0  0  0  0  0  0  0  0  0
  138.0631   79.3470  221.0031 H   0  0  0  0  0  0  0  0  0  0  0  0
  136.5763   81.2094  221.6873 H   0  0  0  0  0  0  0  0  0  0  0  0
  136.7560   82.1415  223.9826 H   0  0  0  0  0  0  0  0  0  0  0  0
  138.3918   81.2351  225.6006 H   0  0  0  0  0  0  0  0  0  0  0  0
  139.8884   79.3610  224.9111 H   0  0  0  0  0  0  0  0  0  0  0  0
  138.8638   77.4462  221.0260 H   0  0  0  0  0  0  0  0  0  0  0  0
  140.3125   76.1976  220.1387 H   0  0  0  0  0  0  0  0  0  0  0  0
  141.4696   76.8270  221.4346 H   0  0  0  0  0  0  0  0  0  0  0  0
  141.4505   74.3466  221.0464 H   0  0  0  0  0  0  0  0  0  0  0  0
  141.2255   74.9409  222.7309 H   0  0  0  0  0  0  0  0  0  0  0  0
  141.3731   72.4982  222.0751 H   0  0  0  0  0  0  0  0  0  0  0  0
  140.8660   69.9380  221.4840 H   0  0  0  0  0  0  0  0  0  0  0  0
  139.6720   70.7690  220.5320 H   0  0  0  0  0  0  0  0  0  0  0  0
  141.5894   70.7174  223.3539 H   0  0  0  0  0  0  0  0  0  0  0  0
  138.4955   70.3881  223.4034 H   0  0  0  0  0  0  0  0  0  0  0  0
  139.5926   69.1714  222.8609 H   0  0  0  0  0  0  0  0  0  0  0  0
  139.1637   67.5744  225.1579 H   0  0  0  0  0  0  0  0  0  0  0  0
  139.7061   67.4523  227.5959 H   0  0  0  0  0  0  0  0  0  0  0  0
  140.5670   69.4481  228.7359 H   0  0  0  0  0  0  0  0  0  0  0  0
  140.9902   71.7348  228.8307 H   0  0  0  0  0  0  0  0  0  0  0  0
  142.1167   72.0630  227.4706 H   0  0  0  0  0  0  0  0  0  0  0  0
  140.4732   72.7881  227.4706 H   0  0  0  0  0  0  0  0  0  0  0  0
  139.3904   72.4657  224.5960 H   0  0  0  0  0  0  0  0  0  0  0  0
  141.0918   72.6525  224.8583 H   0  0  0  0  0  0  0  0  0  0  0  0
  138.0551   75.2393  220.7046 H   0  0  0  0  0  0  0  0  0  0  0  0
  137.4077   74.3473  222.0896 H   0  0  0  0  0  0  0  0  0  0  0  0
  137.5356   76.7305  222.7749 H   0  0  0  0  0  0  0  0  0  0  0  0
  138.8575   75.9326  223.6262 H   0  0  0  0  0  0  0  0  0  0  0  0
  1  2  1  0
  2  3  1  0
  3  4  2  0
  3  5  1  0
  5  6  1  0
  6  7  2  0
  7  8  1  0
  8  9  2  0
  9 10  1  0
 10 11  2  0
  5 12  1  0
 12 13  1  0
 13 14  1  0
 14 15  1  0
 15 16  1  0
 16 17  2  0
 16 18  1  0
 18 19  1  0
 18 20  1  0
 20 21  1  0
 21 22  1  0
 22 23  2  0
 23 24  1  0
 24 25  2  0
 25 26  1  0
 26 27  1  0
 26 28  2  0
 28 29  1  0
 15 30  1  0
 30 31  1  0
 11  6  1  0
 31 12  1  0
 29 20  1  0
 28 22  1  0
  1 32  1  0
  1 33  1  0
  1 34  1  0
  2 35  1  0
  2 36  1  0
  7 37  1  0
  8 38  1  0
  9 39  1  0
 10 40  1  0
 11 41  1  0
 12 42  1  0
 13 43  1  0
 13 44  1  0
 14 45  1  0
 14 46  1  0
 18 47  1  1
 19 48  1  0
 19 49  1  0
 20 50  1  1
 21 51  1  0
 21 52  1  0
 23 53  1  0
 24 54  1  0
 25 55  1  0
 27 56  1  0
 27 57  1  0
 27 58  1  0
 29 59  1  0
 29 60  1  0
 30 61  1  0
 30 62  1  0
 31 63  1  0
 31 64  1  0
M  END
>  <smiles>  (36) 
CCC(=O)N(c1ccccc1)C1CCN(C(=O)[C@H](N)C2Cc3cccc(C)c3C2)CC1

>  <score_type>  (36) 
oracle

>  <origin>  (36) 
autodockgpu

>  <m_score__min__energy>  (36) 
-8.7400000000000002

>  <m_primary>  (36) 
energy

>  <rmsd>  (36) 
8.958733450885918

>  <m_score__min__rmsd>  (36) 
8.958733450885918

>  <meeko>  (36) 
{"free_energy": -8.14, "intermolecular_energy": -10.23, "internal_energy": -1.92, "cluster_size": 16, "cluster_id": 2, "rank_in_cluster": 8}

>  <energy>  (36) 
-8.05

>  <cluster_rmsd>  (36) 
0.21

>  <cluster>  (36) 
5

$$$$

     RDKit          3D

 64 67  0  0  0  0  0  0  0  0999 V2000
  142.5960   80.6020  223.6410 C   0  0  0  0  0  0  0  0  0  0  0  0
  142.4810   79.4500  222.6860 C   0  0  0  0  0  0  0  0  0  0  0  0
  141.4770   78.4410  223.1880 C   0  0  0  0  0  0  0  0  0  0  0  0
  141.9010   77.6800  224.0930 O   0  0  0  0  0  0  0  0  0  0  0  0
  140.1620   78.3850  222.6540 N   0  0  0  0  0  0  0  0  0  0  0  0
  139.3600   79.5730  222.8600 C   0  0  0  0  0  0  0  0  0  0  0  0
  138.7140   79.8090  224.0510 C   0  0  0  0  0  0  0  0  0  0  0  0
  137.9750   80.9480  224.1810 C   0  0  0  0  0  0  0  0  0  0  0  0
  137.8930   81.8360  223.1130 C   0  0  0  0  0  0  0  0  0  0  0  0
  138.5440   81.5910  221.9220 C   0  0  0  0  0  0  0  0  0  0  0  0
  139.2900   80.4420  221.7870 C   0  0  0  0  0  0  0  0  0  0  0  0
  139.6280   77.2440  221.9460 C   0  0  0  0  0  0  0  0  0  0  0  0
  140.6660   76.4550  221.2450 C   0  0  0  0  0  0  0  0  0  0  0  0
  140.8900   75.0600  221.7510 C   0  0  0  0  0  0  0  0  0  0  0  0
  139.6290   74.3810  221.8980 N   0  0  0  0  0  0  0  0  0  0  0  0
  139.4850   72.9760  222.0720 C   0  0  0  0  0  0  0  0  0  0  0  0
  138.2960   72.4860  222.1660 O   0  0  0  0  0  0  0  0  0  0  0  0
  140.5750   72.0060  222.1580 C   0  0  2  0  0  0  0  0  0  0  0  0
  140.6610   71.1180  221.0270 N   0  0  0  0  0  0  0  0  0  0  0  0
  140.5940   71.1740  223.3980 C   0  0  2  0  0  0  0  0  0  0  0  0
  139.5320   70.1000  223.4500 C   0  0  0  0  0  0  0  0  0  0  0  0
  139.7390   69.6290  224.8690 C   0  0  0  0  0  0  0  0  0  0  0  0
  139.5150   68.3930  225.4420 C   0  0  0  0  0  0  0  0  0  0  0  0
  139.7920   68.2180  226.7840 C   0  0  0  0  0  0  0  0  0  0  0  0
  140.2820   69.2830  227.5020 C   0  0  0  0  0  0  0  0  0  0  0  0
  140.5150   70.5250  226.9600 C   0  0  0  0  0  0  0  0  0  0  0  0
  141.0470   71.6470  227.7780 C   0  0  0  0  0  0  0  0  0  0  0  0
  140.2390   70.7020  225.6190 C   0  0  0  0  0  0  0  0  0  0  0  0
  140.3570   71.8830  224.6830 C   0  0  0  0  0  0  0  0  0  0  0  0
  138.3860   75.1740  221.8900 C   0  0  0  0  0  0  0  0  0  0  0  0
  138.6750   76.4180  222.7600 C   0  0  0  0  0  0  0  0  0  0  0  0
  142.5585   80.2268  224.6744 H   0  0  0  0  0  0  0  0  0  0  0  0
  143.5506   81.1226  223.4743 H   0  0  0  0  0  0  0  0  0  0  0  0
  141.7632   81.3010  223.4743 H   0  0  0  0  0  0  0  0  0  0  0  0
  142.1562   79.8254  221.7044 H   0  0  0  0  0  0  0  0  0  0  0  0
  143.4626   78.9609  222.6010 H   0  0  0  0  0  0  0  0  0  0  0  0
  138.7918   79.0931  224.8825 H   0  0  0  0  0  0  0  0  0  0  0  0
  137.4482   81.1628  225.1224 H   0  0  0  0  0  0  0  0  0  0  0  0
  137.2959   82.7535  223.2209 H   0  0  0  0  0  0  0  0  0  0  0  0
  138.4679   82.3058  221.0893 H   0  0  0  0  0  0  0  0  0  0  0  0
  139.8179   80.2205  220.8477 H   0  0  0  0  0  0  0  0  0  0  0  0
  139.0030   77.6652  221.1448 H   0  0  0  0  0  0  0  0  0  0  0  0
  140.3772   76.3858  220.1858 H   0  0  0  0  0  0  0  0  0  0  0  0
  141.6117   76.9884  221.4217 H   0  0  0  0  0  0  0  0  0  0  0  0
  141.5188   74.5096  221.0357 H   0  0  0  0  0  0  0  0  0  0  0  0
  141.3910   75.1069  222.7292 H   0  0  0  0  0  0  0  0  0  0  0  0
  141.4518   72.6700  222.1758 H   0  0  0  0  0  0  0  0  0  0  0  0
  139.6920   70.9460  220.6790 H   0  0  0  0  0  0  0  0  0  0  0  0
  141.2810   71.5120  220.2620 H   0  0  0  0  0  0  0  0  0  0  0  0
  141.6230   70.7936  223.3175 H   0  0  0  0  0  0  0  0  0  0  0  0
  138.5232   70.5101  223.2949 H   0  0  0  0  0  0  0  0  0  0  0  0
  139.6101   69.3208  222.6775 H   0  0  0  0  0  0  0  0  0  0  0  0
  139.1222   67.5608  224.8394 H   0  0  0  0  0  0  0  0  0  0  0  0
  139.6237   67.2451  227.2688 H   0  0  0  0  0  0  0  0  0  0  0  0
  140.4998   69.1332  228.5698 H   0  0  0  0  0  0  0  0  0  0  0  0
  140.9338   71.4082  228.8458 H   0  0  0  0  0  0  0  0  0  0  0  0
  142.1119   71.7966  227.5467 H   0  0  0  0  0  0  0  0  0  0  0  0
  140.4889   72.5662  227.5467 H   0  0  0  0  0  0  0  0  0  0  0  0
  139.4313   72.4766  224.6566 H   0  0  0  0  0  0  0  0  0  0  0  0
  141.1312   72.6148  224.9571 H   0  0  0  0  0  0  0  0  0  0  0  0
  138.1305   75.4754  220.8634 H   0  0  0  0  0  0  0  0  0  0  0  0
  137.5346   74.5964  222.2793 H   0  0  0  0  0  0  0  0  0  0  0  0
  137.7482   76.9770  222.9563 H   0  0  0  0  0  0  0  0  0  0  0  0
  139.0929   76.1496  223.7415 H   0  0  0  0  0  0  0  0  0  0  0  0
  1  2  1  0
  2  3  1  0
  3  4  2  0
  3  5  1  0
  5  6  1  0
  6  7  2  0
  7  8  1  0
  8  9  2  0
  9 10  1  0
 10 11  2  0
  5 12  1  0
 12 13  1  0
 13 14  1  0
 14 15  1  0
 15 16  1  0
 16 17  2  0
 16 18  1  0
 18 19  1  0
 18 20  1  0
 20 21  1  0
 21 22  1  0
 22 23  2  0
 23 24  1  0
 24 25  2  0
 25 26  1  0
 26 27  1  0
 26 28  2  0
 28 29  1  0
 15 30  1  0
 30 31  1  0
 11  6  1  0
 31 12  1  0
 29 20  1  0
 28 22  1  0
  1 32  1  0
  1 33  1  0
  1 34  1  0
  2 35  1  0
  2 36  1  0
  7 37  1  0
  8 38  1  0
  9 39  1  0
 10 40  1  0
 11 41  1  0
 12 42  1  0
 13 43  1  0
 13 44  1  0
 14 45  1  0
 14 46  1  0
 18 47  1  1
 19 48  1  0
 19 49  1  0
 20 50  1  1
 21 51  1  0
 21 52  1  0
 23 53  1  0
 24 54  1  0
 25 55  1  0
 27 56  1  0
 27 57  1  0
 27 58  1  0
 29 59  1  0
 29 60  1  0
 30 61  1  0
 30 62  1  0
 31 63  1  0
 31 64  1  0
M  END
>  <smiles>  (37) 
CCC(=O)N(c1ccccc1)C1CCN(C(=O)[C@H](N)C2Cc3cccc(C)c3C2)CC1

>  <score_type>  (37) 
oracle

>  <origin>  (37) 
autodockgpu

>  <m_score__min__energy>  (37) 
-8.7400000000000002

>  <m_primary>  (37) 
energy

>  <rmsd>  (37) 
8.90905708853533

>  <m_score__min__rmsd>  (37) 
8.90905708853533

>  <meeko>  (37) 
{"free_energy": -8.14, "intermolecular_energy": -10.23, "internal_energy": -1.91, "cluster_size": 16, "cluster_id": 2, "rank_in_cluster": 7}

>  <energy>  (37) 
-7.62

>  <cluster_rmsd>  (37) 
1.25

>  <cluster>  (37) 
5

$$$$

     RDKit          3D

 64 67  0  0  0  0  0  0  0  0999 V2000
  131.3230   73.1870  227.6240 C   0  0  0  0  0  0  0  0  0  0  0  0
  131.9860   71.8960  227.2410 C   0  0  0  0  0  0  0  0  0  0  0  0
  133.3980   72.1420  226.7700 C   0  0  0  0  0  0  0  0  0  0  0  0
  134.2920   71.8300  227.5950 O   0  0  0  0  0  0  0  0  0  0  0  0
  133.6600   72.6880  225.4850 N   0  0  0  0  0  0  0  0  0  0  0  0
  133.4910   74.1230  225.3770 C   0  0  0  0  0  0  0  0  0  0  0  0
  132.5020   74.6760  224.5990 C   0  0  0  0  0  0  0  0  0  0  0  0
  132.3950   76.0340  224.5420 C   0  0  0  0  0  0  0  0  0  0  0  0
  133.2860   76.8210  225.2650 C   0  0  0  0  0  0  0  0  0  0  0  0
  134.2750   76.2580  226.0430 C   0  0  0  0  0  0  0  0  0  0  0  0
  134.3860   74.8870  226.1040 C   0  0  0  0  0  0  0  0  0  0  0  0
  134.0710   71.9030  224.3440 C   0  0  0  0  0  0  0  0  0  0  0  0
  135.2050   72.5010  223.6030 C   0  0  0  0  0  0  0  0  0  0  0  0
  136.4900   71.7270  223.6250 C   0  0  0  0  0  0  0  0  0  0  0  0
  136.2390   70.3450  223.3070 N   0  0  0  0  0  0  0  0  0  0  0  0
  137.2440   69.4020  222.9550 C   0  0  0  0  0  0  0  0  0  0  0  0
  136.8850   68.1970  222.6660 O   0  0  0  0  0  0  0  0  0  0  0  0
  138.6800   69.6650  222.8860 C   0  0  2  0  0  0  0  0  0  0  0  0
  139.3820   68.8470  221.9300 N   0  0  0  0  0  0  0  0  0  0  0  0
  139.4090   69.5780  224.1870 C   0  0  2  0  0  0  0  0  0  0  0  0
  138.8630   68.5460  225.1460 C   0  0  0  0  0  0  0  0  0  0  0  0
  139.6960   68.8830  226.3580 C   0  0  0  0  0  0  0  0  0  0  0  0
  140.1170   68.0840  227.4020 C   0  0  0  0  0  0  0  0  0  0  0  0
  140.8850   68.6450  228.4050 C   0  0  0  0  0  0  0  0  0  0  0  0
  141.2020   69.9800  228.3270 C   0  0  0  0  0  0  0  0  0  0  0  0
  140.7970   70.8000  227.3000 C   0  0  0  0  0  0  0  0  0  0  0  0
  141.1650   72.2410  227.2590 C   0  0  0  0  0  0  0  0  0  0  0  0
  140.0300   70.2420  226.2980 C   0  0  0  0  0  0  0  0  0  0  0  0
  139.4080   70.7980  225.0360 C   0  0  0  0  0  0  0  0  0  0  0  0
  134.8530   69.8410  223.3600 C   0  0  0  0  0  0  0  0  0  0  0  0
  134.2370   70.4410  224.6430 C   0  0  0  0  0  0  0  0  0  0  0  0
  131.2819   73.2670  228.7203 H   0  0  0  0  0  0  0  0  0  0  0  0
  131.8995   74.0304  227.2162 H   0  0  0  0  0  0  0  0  0  0  0  0
  130.3016   73.2098  227.2162 H   0  0  0  0  0  0  0  0  0  0  0  0
  132.0078   71.2280  228.1147 H   0  0  0  0  0  0  0  0  0  0  0  0
  131.4150   71.4341  226.4221 H   0  0  0  0  0  0  0  0  0  0  0  0
  131.8099   74.0351  224.0331 H   0  0  0  0  0  0  0  0  0  0  0  0
  131.6110   76.5034  223.9297 H   0  0  0  0  0  0  0  0  0  0  0  0
  133.1993   77.9164  225.2147 H   0  0  0  0  0  0  0  0  0  0  0  0
  134.9682   76.8974  226.6092 H   0  0  0  0  0  0  0  0  0  0  0  0
  135.1668   74.4112  226.7155 H   0  0  0  0  0  0  0  0  0  0  0  0
  133.2232   71.9409  223.6442 H   0  0  0  0  0  0  0  0  0  0  0  0
  134.8982   72.6131  222.5526 H   0  0  0  0  0  0  0  0  0  0  0  0
  135.4235   73.4505  224.1136 H   0  0  0  0  0  0  0  0  0  0  0  0
  137.1833   72.1511  222.8837 H   0  0  0  0  0  0  0  0  0  0  0  0
  136.9327   71.7913  224.6299 H   0  0  0  0  0  0  0  0  0  0  0  0
  138.6895   70.7139  222.5547 H   0  0  0  0  0  0  0  0  0  0  0  0
  140.2690   68.5220  222.3750 H   0  0  0  0  0  0  0  0  0  0  0  0
  138.7920   68.0270  221.6030 H   0  0  0  0  0  0  0  0  0  0  0  0
  140.4096   69.3473  223.7926 H   0  0  0  0  0  0  0  0  0  0  0  0
  137.7880   68.6852  225.3331 H   0  0  0  0  0  0  0  0  0  0  0  0
  138.9275   67.5025  224.8039 H   0  0  0  0  0  0  0  0  0  0  0  0
  139.8458   67.0185  227.4351 H   0  0  0  0  0  0  0  0  0  0  0  0
  141.2359   68.0343  229.2499 H   0  0  0  0  0  0  0  0  0  0  0  0
  141.8134   70.4167  229.1304 H   0  0  0  0  0  0  0  0  0  0  0  0
  141.2628   72.6238  228.2856 H   0  0  0  0  0  0  0  0  0  0  0  0
  142.1224   72.3601  226.7305 H   0  0  0  0  0  0  0  0  0  0  0  0
  140.3819   72.8045  226.7305 H   0  0  0  0  0  0  0  0  0  0  0  0
  138.3884   71.1706  225.2136 H   0  0  0  0  0  0  0  0  0  0  0  0
  139.9325   71.6630  224.6038 H   0  0  0  0  0  0  0  0  0  0  0  0
  134.2909   70.1716  222.4742 H   0  0  0  0  0  0  0  0  0  0  0  0
  134.8217   68.7415  223.3712 H   0  0  0  0  0  0  0  0  0  0  0  0
  133.2632   69.9770  224.8585 H   0  0  0  0  0  0  0  0  0  0  0  0
  134.8693   70.2679  225.5263 H   0  0  0  0  0  0  0  0  0  0  0  0
  1  2  1  0
  2  3  1  0
  3  4  2  0
  3  5  1  0
  5  6  1  0
  6  7  2  0
  7  8  1  0
  8  9  2  0
  9 10  1  0
 10 11  2  0
  5 12  1  0
 12 13  1  0
 13 14  1  0
 14 15  1  0
 15 16  1  0
 16 17  2  0
 16 18  1  0
 18 19  1  0
 18 20  1  0
 20 21  1  0
 21 22  1  0
 22 23  2  0
 23 24  1  0
 24 25  2  0
 25 26  1  0
 26 27  1  0
 26 28  2  0
 28 29  1  0
 15 30  1  0
 30 31  1  0
 11  6  1  0
 31 12  1  0
 29 20  1  0
 28 22  1  0
  1 32  1  0
  1 33  1  0
  1 34  1  0
  2 35  1  0
  2 36  1  0
  7 37  1  0
  8 38  1  0
  9 39  1  0
 10 40  1  0
 11 41  1  0
 12 42  1  0
 13 43  1  0
 13 44  1  0
 14 45  1  0
 14 46  1  0
 18 47  1  6
 19 48  1  0
 19 49  1  0
 20 50  1  6
 21 51  1  0
 21 52  1  0
 23 53  1  0
 24 54  1  0
 25 55  1  0
 27 56  1  0
 27 57  1  0
 27 58  1  0
 29 59  1  0
 29 60  1  0
 30 61  1  0
 30 62  1  0
 31 63  1  0
 31 64  1  0
M  END
>  <smiles>  (38) 
CCC(=O)N(c1ccccc1)C1CCN(C(=O)[C@H](N)C2Cc3cccc(C)c3C2)CC1

>  <score_type>  (38) 
oracle

>  <origin>  (38) 
autodockgpu

>  <m_score__min__energy>  (38) 
-8.7400000000000002

>  <m_primary>  (38) 
energy

>  <rmsd>  (38) 
11.656004372460222

>  <m_score__min__rmsd>  (38) 
11.656004372460222

>  <meeko>  (38) 
{"free_energy": -7.27, "intermolecular_energy": -9.36, "internal_energy": -2.49, "cluster_size": 3, "cluster_id": 9, "rank_in_cluster": 2}

>  <energy>  (38) 
-7.02

>  <cluster_rmsd>  (38) 
1.35

>  <cluster>  (38) 
5

$$$$

     RDKit          3D

 64 67  0  0  0  0  0  0  0  0999 V2000
  142.3740   77.0460  217.8570 C   0  0  0  0  0  0  0  0  0  0  0  0
  143.3060   76.8760  219.0210 C   0  0  0  0  0  0  0  0  0  0  0  0
  142.6740   76.0160  220.0870 C   0  0  0  0  0  0  0  0  0  0  0  0
  143.3770   75.0480  220.4710 O   0  0  0  0  0  0  0  0  0  0  0  0
  141.3790   76.3060  220.5940 N   0  0  0  0  0  0  0  0  0  0  0  0
  141.2600   77.5670  221.2960 C   0  0  0  0  0  0  0  0  0  0  0  0
  141.1130   78.7560  220.6230 C   0  0  0  0  0  0  0  0  0  0  0  0
  141.0050   79.9100  221.3440 C   0  0  0  0  0  0  0  0  0  0  0  0
  141.0480   79.8540  222.7330 C   0  0  0  0  0  0  0  0  0  0  0  0
  141.1950   78.6560  223.4010 C   0  0  0  0  0  0  0  0  0  0  0  0
  141.3050   77.4910  222.6770 C   0  0  0  0  0  0  0  0  0  0  0  0
  140.2370   75.4350  220.4370 C   0  0  0  0  0  0  0  0  0  0  0  0
  140.6100   74.0330  220.1400 C   0  0  0  0  0  0  0  0  0  0  0  0
  140.2640   73.0210  221.1920 C   0  0  0  0  0  0  0  0  0  0  0  0
  138.8970   73.1930  221.6110 N   0  0  0  0  0  0  0  0  0  0  0  0
  138.1580   72.2400  222.3660 C   0  0  0  0  0  0  0  0  0  0  0  0
  136.9290   72.5040  222.6560 O   0  0  0  0  0  0  0  0  0  0  0  0
  138.6620   70.9600  222.8590 C   0  0  2  0  0  0  0  0  0  0  0  0
  137.7250   69.8730  222.7340 N   0  0  0  0  0  0  0  0  0  0  0  0
  139.1670   70.9700  224.2640 C   0  0  2  0  0  0  0  0  0  0  0  0
  140.3530   71.8750  224.4990 C   0  0  0  0  0  0  0  0  0  0  0  0
  140.6790   71.4780  225.9180 C   0  0  0  0  0  0  0  0  0  0  0  0
  141.2700   72.2010  226.9350 C   0  0  0  0  0  0  0  0  0  0  0  0
  141.4580   71.5970  228.1630 C   0  0  0  0  0  0  0  0  0  0  0  0
  141.0490   70.2960  228.3280 C   0  0  0  0  0  0  0  0  0  0  0  0
  140.4580   69.5500  227.3360 C   0  0  0  0  0  0  0  0  0  0  0  0
  140.0310   68.1440  227.5630 C   0  0  0  0  0  0  0  0  0  0  0  0
  140.2690   70.1520  226.1080 C   0  0  0  0  0  0  0  0  0  0  0  0
  139.6730   69.6790  224.8010 C   0  0  0  0  0  0  0  0  0  0  0  0
  138.1970   74.4440  221.2640 C   0  0  0  0  0  0  0  0  0  0  0  0
  139.2110   75.5800  221.5230 C   0  0  0  0  0  0  0  0  0  0  0  0
  141.3550   77.2319  218.2273 H   0  0  0  0  0  0  0  0  0  0  0  0
  142.7031   77.8989  217.2453 H   0  0  0  0  0  0  0  0  0  0  0  0
  142.3808   76.1318  217.2453 H   0  0  0  0  0  0  0  0  0  0  0  0
  144.2339   76.3979  218.6741 H   0  0  0  0  0  0  0  0  0  0  0  0
  143.5241   77.8661  219.4477 H   0  0  0  0  0  0  0  0  0  0  0  0
  141.0829   78.7774  219.5236 H   0  0  0  0  0  0  0  0  0  0  0  0
  140.8850   80.8756  220.8310 H   0  0  0  0  0  0  0  0  0  0  0  0
  140.9629   80.7856  223.3117 H   0  0  0  0  0  0  0  0  0  0  0  0
  141.2240   78.6323  224.5004 H   0  0  0  0  0  0  0  0  0  0  0  0
  141.4258   76.5223  223.1840 H   0  0  0  0  0  0  0  0  0  0  0  0
  139.7227   75.7895  219.5316 H   0  0  0  0  0  0  0  0  0  0  0  0
  140.1002   73.7393  219.2105 H   0  0  0  0  0  0  0  0  0  0  0  0
  141.7080   74.0270  220.0740 H   0  0  0  0  0  0  0  0  0  0  0  0
  140.3943   72.0091  220.7808 H   0  0  0  0  0  0  0  0  0  0  0  0
  140.9272   73.1601  222.0585 H   0  0  0  0  0  0  0  0  0  0  0  0
  139.5166   70.7935  222.1867 H   0  0  0  0  0  0  0  0  0  0  0  0
  136.7650   70.2810  222.6820 H   0  0  0  0  0  0  0  0  0  0  0  0
  137.9320   69.2680  221.8870 H   0  0  0  0  0  0  0  0  0  0  0  0
  138.2416   71.2940  224.7627 H   0  0  0  0  0  0  0  0  0  0  0  0
  141.1814   71.6560  223.8092 H   0  0  0  0  0  0  0  0  0  0  0  0
  140.1673   72.9474  224.3397 H   0  0  0  0  0  0  0  0  0  0  0  0
  141.5862   73.2416  226.7700 H   0  0  0  0  0  0  0  0  0  0  0  0
  141.9261   72.1471  228.9926 H   0  0  0  0  0  0  0  0  0  0  0  0
  141.2032   69.8243  229.3097 H   0  0  0  0  0  0  0  0  0  0  0  0
  139.9717   67.9488  228.6439 H   0  0  0  0  0  0  0  0  0  0  0  0
  139.0433   67.9825  227.1065 H   0  0  0  0  0  0  0  0  0  0  0  0
  140.7621   67.4605  227.1065 H   0  0  0  0  0  0  0  0  0  0  0  0
  140.4339   69.2337  224.1431 H   0  0  0  0  0  0  0  0  0  0  0  0
  138.9140   68.8888  224.8977 H   0  0  0  0  0  0  0  0  0  0  0  0
  137.8957   74.4335  220.2061 H   0  0  0  0  0  0  0  0  0  0  0  0
  137.2820   74.5745  221.8605 H   0  0  0  0  0  0  0  0  0  0  0  0
  138.7175   76.5611  221.4610 H   0  0  0  0  0  0  0  0  0  0  0  0
  139.6574   75.5166  222.5263 H   0  0  0  0  0  0  0  0  0  0  0  0
  1  2  1  0
  2  3  1  0
  3  4  2  0
  3  5  1  0
  5  6  1  0
  6  7  2  0
  7  8  1  0
  8  9  2  0
  9 10  1  0
 10 11  2  0
  5 12  1  0
 12 13  1  0
 13 14  1  0
 14 15  1  0
 15 16  1  0
 16 17  2  0
 16 18  1  0
 18 19  1  0
 18 20  1  0
 20 21  1  0
 21 22  1  0
 22 23  2  0
 23 24  1  0
 24 25  2  0
 25 26  1  0
 26 27  1  0
 26 28  2  0
 28 29  1  0
 15 30  1  0
 30 31  1  0
 11  6  1  0
 31 12  1  0
 29 20  1  0
 28 22  1  0
  1 32  1  0
  1 33  1  0
  1 34  1  0
  2 35  1  0
  2 36  1  0
  7 37  1  0
  8 38  1  0
  9 39  1  0
 10 40  1  0
 11 41  1  0
 12 42  1  0
 13 43  1  0
 13 44  1  0
 14 45  1  0
 14 46  1  0
 18 47  1  6
 19 48  1  0
 19 49  1  0
 20 50  1  1
 21 51  1  0
 21 52  1  0
 23 53  1  0
 24 54  1  0
 25 55  1  0
 27 56  1  0
 27 57  1  0
 27 58  1  0
 29 59  1  0
 29 60  1  0
 30 61  1  0
 30 62  1  0
 31 63  1  0
 31 64  1  0
M  END
>  <smiles>  (39) 
CCC(=O)N(c1ccccc1)C1CCN(C(=O)[C@H](N)C2Cc3cccc(C)c3C2)CC1

>  <score_type>  (39) 
oracle

>  <origin>  (39) 
autodockgpu

>  <m_score__min__energy>  (39) 
-8.7400000000000002

>  <m_primary>  (39) 
energy

>  <rmsd>  (39) 
8.102990439073402

>  <m_score__min__rmsd>  (39) 
8.102990439073402

>  <meeko>  (39) 
{"free_energy": -7.82, "intermolecular_energy": -9.9, "internal_energy": -2.19, "cluster_size": 6, "cluster_id": 4, "rank_in_cluster": 3}

>  <energy>  (39) 
-8.06

>  <cluster_rmsd>  (39) 
0.0

>  <cluster>  (39) 
6

$$$$

     RDKit          3D

 64 67  0  0  0  0  0  0  0  0999 V2000
  143.2680   76.7880  218.3630 C   0  0  0  0  0  0  0  0  0  0  0  0
  142.6720   75.4480  218.6820 C   0  0  0  0  0  0  0  0  0  0  0  0
  142.4260   75.3150  220.1650 C   0  0  0  0  0  0  0  0  0  0  0  0
  143.3880   74.8410  220.8200 O   0  0  0  0  0  0  0  0  0  0  0  0
  141.1880   75.7050  220.7420 N   0  0  0  0  0  0  0  0  0  0  0  0
  141.1810   77.0120  221.3650 C   0  0  0  0  0  0  0  0  0  0  0  0
  141.0830   77.1610  222.7280 C   0  0  0  0  0  0  0  0  0  0  0  0
  141.0830   78.4210  223.2510 C   0  0  0  0  0  0  0  0  0  0  0  0
  141.1810   79.5160  222.3980 C   0  0  0  0  0  0  0  0  0  0  0  0
  141.2790   79.3570  221.0320 C   0  0  0  0  0  0  0  0  0  0  0  0
  141.2780   78.0880  220.5000 C   0  0  0  0  0  0  0  0  0  0  0  0
  139.9970   74.8850  220.7260 C   0  0  0  0  0  0  0  0  0  0  0  0
  140.2290   73.5320  220.1720 C   0  0  0  0  0  0  0  0  0  0  0  0
  140.0670   72.3890  221.1320 C   0  0  0  0  0  0  0  0  0  0  0  0
  138.8330   72.5280  221.8600 N   0  0  0  0  0  0  0  0  0  0  0  0
  138.2270   71.4930  222.6260 C   0  0  0  0  0  0  0  0  0  0  0  0
  137.1040   71.7360  223.2110 O   0  0  0  0  0  0  0  0  0  0  0  0
  138.7620   70.1470  222.8220 C   0  0  2  0  0  0  0  0  0  0  0  0
  137.7910   69.0980  222.6420 N   0  0  0  0  0  0  0  0  0  0  0  0
  139.4490   69.9170  224.1280 C   0  0  2  0  0  0  0  0  0  0  0  0
  138.8010   68.8710  225.0040 C   0  0  0  0  0  0  0  0  0  0  0  0
  139.6270   69.0600  226.2530 C   0  0  0  0  0  0  0  0  0  0  0  0
  139.9600   68.1630  227.2490 C   0  0  0  0  0  0  0  0  0  0  0  0
  140.7430   68.5940  228.3020 C   0  0  0  0  0  0  0  0  0  0  0  0
  141.1650   69.9020  228.3200 C   0  0  0  0  0  0  0  0  0  0  0  0
  140.8500   70.8180  227.3440 C   0  0  0  0  0  0  0  0  0  0  0  0
  141.3310   72.2240  227.4070 C   0  0  0  0  0  0  0  0  0  0  0  0
  140.0670   70.3890  226.2910 C   0  0  0  0  0  0  0  0  0  0  0  0
  139.5220   71.0740  225.0580 C   0  0  0  0  0  0  0  0  0  0  0  0
  138.1360   73.8280  221.8430 C   0  0  0  0  0  0  0  0  0  0  0  0
  139.2370   74.8970  222.0210 C   0  0  0  0  0  0  0  0  0  0  0  0
  143.5032   77.3168  219.2985 H   0  0  0  0  0  0  0  0  0  0  0  0
  144.1895   76.6497  217.7784 H   0  0  0  0  0  0  0  0  0  0  0  0
  142.5482   77.3797  217.7784 H   0  0  0  0  0  0  0  0  0  0  0  0
  141.7174   75.3402  218.1462 H   0  0  0  0  0  0  0  0  0  0  0  0
  143.3758   74.6632  218.3677 H   0  0  0  0  0  0  0  0  0  0  0  0
  141.0061   76.2815  223.3842 H   0  0  0  0  0  0  0  0  0  0  0  0
  141.0061   78.5701  224.3381 H   0  0  0  0  0  0  0  0  0  0  0  0
  141.1803   80.5307  222.8228 H   0  0  0  0  0  0  0  0  0  0  0  0
  141.3572   80.2353  220.3744 H   0  0  0  0  0  0  0  0  0  0  0  0
  141.3525   77.9325  219.4136 H   0  0  0  0  0  0  0  0  0  0  0  0
  139.3173   75.3708  220.0104 H   0  0  0  0  0  0  0  0  0  0  0  0
  139.5185   73.3806  219.3460 H   0  0  0  0  0  0  0  0  0  0  0  0
  141.2858   73.5145  219.8671 H   0  0  0  0  0  0  0  0  0  0  0  0
  140.0549   71.4422  220.5722 H   0  0  0  0  0  0  0  0  0  0  0  0
  140.9072   72.3922  221.8420 H   0  0  0  0  0  0  0  0  0  0  0  0
  139.5156   70.0966  222.0223 H   0  0  0  0  0  0  0  0  0  0  0  0
  136.8420   69.5130  222.7720 H   0  0  0  0  0  0  0  0  0  0  0  0
  137.8830   68.6340  221.6920 H   0  0  0  0  0  0  0  0  0  0  0  0
  140.4380   69.6344  223.7380 H   0  0  0  0  0  0  0  0  0  0  0  0
  137.7357   69.0824  225.1787 H   0  0  0  0  0  0  0  0  0  0  0  0
  138.7930   67.8506  224.5934 H   0  0  0  0  0  0  0  0  0  0  0  0
  139.6073   67.1220  227.2043 H   0  0  0  0  0  0  0  0  0  0  0  0
  141.0236   67.9035  229.1110 H   0  0  0  0  0  0  0  0  0  0  0  0
  141.7896   70.2346  229.1622 H   0  0  0  0  0  0  0  0  0  0  0  0
  141.4353   72.5290  228.4587 H   0  0  0  0  0  0  0  0  0  0  0  0
  142.3065   72.3007  226.9044 H   0  0  0  0  0  0  0  0  0  0  0  0
  140.6069   72.8821  226.9044 H   0  0  0  0  0  0  0  0  0  0  0  0
  138.5304   71.5138  225.2405 H   0  0  0  0  0  0  0  0  0  0  0  0
  140.1231   71.9211  224.6959 H   0  0  0  0  0  0  0  0  0  0  0  0
  137.6145   73.9708  220.8850 H   0  0  0  0  0  0  0  0  0  0  0  0
  137.3773   73.8915  222.6369 H   0  0  0  0  0  0  0  0  0  0  0  0
  138.7909   75.8866  222.1993 H   0  0  0  0  0  0  0  0  0  0  0  0
  139.8849   74.6856  222.8844 H   0  0  0  0  0  0  0  0  0  0  0  0
  1  2  1  0
  2  3  1  0
  3  4  2  0
  3  5  1  0
  5  6  1  0
  6  7  2  0
  7  8  1  0
  8  9  2  0
  9 10  1  0
 10 11  2  0
  5 12  1  0
 12 13  1  0
 13 14  1  0
 14 15  1  0
 15 16  1  0
 16 17  2  0
 16 18  1  0
 18 19  1  0
 18 20  1  0
 20 21  1  0
 21 22  1  0
 22 23  2  0
 23 24  1  0
 24 25  2  0
 25 26  1  0
 26 27  1  0
 26 28  2  0
 28 29  1  0
 15 30  1  0
 30 31  1  0
 11  6  1  0
 31 12  1  0
 29 20  1  0
 28 22  1  0
  1 32  1  0
  1 33  1  0
  1 34  1  0
  2 35  1  0
  2 36  1  0
  7 37  1  0
  8 38  1  0
  9 39  1  0
 10 40  1  0
 11 41  1  0
 12 42  1  0
 13 43  1  0
 13 44  1  0
 14 45  1  0
 14 46  1  0
 18 47  1  6
 19 48  1  0
 19 49  1  0
 20 50  1  6
 21 51  1  0
 21 52  1  0
 23 53  1  0
 24 54  1  0
 25 55  1  0
 27 56  1  0
 27 57  1  0
 27 58  1  0
 29 59  1  0
 29 60  1  0
 30 61  1  0
 30 62  1  0
 31 63  1  0
 31 64  1  0
M  END
>  <smiles>  (40) 
CCC(=O)N(c1ccccc1)C1CCN(C(=O)[C@H](N)C2Cc3cccc(C)c3C2)CC1

>  <score_type>  (40) 
oracle

>  <origin>  (40) 
autodockgpu

>  <m_score__min__energy>  (40) 
-8.7400000000000002

>  <m_primary>  (40) 
energy

>  <rmsd>  (40) 
9.78456510553782

>  <m_score__min__rmsd>  (40) 
9.78456510553782

>  <meeko>  (40) 
{"free_energy": -7.81, "intermolecular_energy": -9.89, "internal_energy": -2.06, "cluster_size": 6, "cluster_id": 4, "rank_in_cluster": 4}

>  <energy>  (40) 
-7.94

>  <cluster_rmsd>  (40) 
0.26

>  <cluster>  (40) 
6

$$$$

     RDKit          3D

 64 67  0  0  0  0  0  0  0  0999 V2000
  142.6560   77.8060  217.3890 C   0  0  0  0  0  0  0  0  0  0  0  0
  143.3080   76.5080  217.7680 C   0  0  0  0  0  0  0  0  0  0  0  0
  142.9610   76.1330  219.1870 C   0  0  0  0  0  0  0  0  0  0  0  0
  142.9530   77.0910  220.0000 O   0  0  0  0  0  0  0  0  0  0  0  0
  142.6710   74.7880  219.5430 N   0  0  0  0  0  0  0  0  0  0  0  0
  143.8260   73.9260  219.6900 C   0  0  0  0  0  0  0  0  0  0  0  0
  144.1830   73.0280  218.7130 C   0  0  0  0  0  0  0  0  0  0  0  0
  145.2830   72.2450  218.9120 C   0  0  0  0  0  0  0  0  0  0  0  0
  146.0090   72.3740  220.0920 C   0  0  0  0  0  0  0  0  0  0  0  0
  145.6440   73.2790  221.0660 C   0  0  0  0  0  0  0  0  0  0  0  0
  144.5350   74.0700  220.8690 C   0  0  0  0  0  0  0  0  0  0  0  0
  141.3350   74.2800  219.7560 C   0  0  0  0  0  0  0  0  0  0  0  0
  141.1870   72.8560  219.3800 C   0  0  0  0  0  0  0  0  0  0  0  0
  140.8950   71.9040  220.5020 C   0  0  0  0  0  0  0  0  0  0  0  0
  139.8240   72.4160  221.3180 N   0  0  0  0  0  0  0  0  0  0  0  0
  139.1030   71.6510  222.2760 C   0  0  0  0  0  0  0  0  0  0  0  0
  138.1460   72.2210  222.9260 O   0  0  0  0  0  0  0  0  0  0  0  0
  139.3430   70.2480  222.6100 C   0  0  2  0  0  0  0  0  0  0  0  0
  138.1950   69.3970  222.4290 N   0  0  0  0  0  0  0  0  0  0  0  0
  139.8860   70.0000  223.9790 C   0  0  2  0  0  0  0  0  0  0  0  0
  139.1680   68.9210  224.7550 C   0  0  0  0  0  0  0  0  0  0  0  0
  139.8470   69.0970  226.0910 C   0  0  0  0  0  0  0  0  0  0  0  0
  140.0870   68.1830  227.0980 C   0  0  0  0  0  0  0  0  0  0  0  0
  140.7390   68.6040  228.2420 C   0  0  0  0  0  0  0  0  0  0  0  0
  141.1260   69.9200  228.3340 C   0  0  0  0  0  0  0  0  0  0  0  0
  140.9020   70.8520  227.3490 C   0  0  0  0  0  0  0  0  0  0  0  0
  141.3410   72.2650  227.4960 C   0  0  0  0  0  0  0  0  0  0  0  0
  140.2500   70.4330  226.2070 C   0  0  0  0  0  0  0  0  0  0  0  0
  139.8290   71.1370  224.9360 C   0  0  0  0  0  0  0  0  0  0  0  0
  139.4400   73.8340  221.1830 C   0  0  0  0  0  0  0  0  0  0  0  0
  140.7660   74.6220  221.1020 C   0  0  0  0  0  0  0  0  0  0  0  0
  142.3792   78.3570  218.2999 H   0  0  0  0  0  0  0  0  0  0  0  0
  143.3581   78.4092  216.7947 H   0  0  0  0  0  0  0  0  0  0  0  0
  141.7529   77.6029  216.7947 H   0  0  0  0  0  0  0  0  0  0  0  0
  142.9583   75.7162  217.0892 H   0  0  0  0  0  0  0  0  0  0  0  0
  144.3991   76.6233  217.6888 H   0  0  0  0  0  0  0  0  0  0  0  0
  143.5935   72.9419  217.7883 H   0  0  0  0  0  0  0  0  0  0  0  0
  145.5929   71.5185  218.1464 H   0  0  0  0  0  0  0  0  0  0  0  0
  146.8937   71.7400  220.2513 H   0  0  0  0  0  0  0  0  0  0  0  0
  146.2329   73.3679  221.9908 H   0  0  0  0  0  0  0  0  0  0  0  0
  144.2202   74.7988  221.6304 H   0  0  0  0  0  0  0  0  0  0  0  0
  140.6973   74.8278  219.0466 H   0  0  0  0  0  0  0  0  0  0  0  0
  140.3629   72.7838  218.6549 H   0  0  0  0  0  0  0  0  0  0  0  0
  142.1665   72.5522  218.9821 H   0  0  0  0  0  0  0  0  0  0  0  0
  140.6012   70.9293  220.0853 H   0  0  0  0  0  0  0  0  0  0  0  0
  141.7968   71.7891  221.1213 H   0  0  0  0  0  0  0  0  0  0  0  0
  140.1206   69.9842  221.8780 H   0  0  0  0  0  0  0  0  0  0  0  0
  137.3400   69.9910  222.5050 H   0  0  0  0  0  0  0  0  0  0  0  0
  138.2260   68.8830  221.5010 H   0  0  0  0  0  0  0  0  0  0  0  0
  140.9181   69.7455  223.6960 H   0  0  0  0  0  0  0  0  0  0  0  0
  138.0856   69.1074  224.8151 H   0  0  0  0  0  0  0  0  0  0  0  0
  139.2273   67.9105  224.3244 H   0  0  0  0  0  0  0  0  0  0  0  0
  139.7645   67.1367  226.9915 H   0  0  0  0  0  0  0  0  0  0  0  0
  140.9440   67.9002  229.0622 H   0  0  0  0  0  0  0  0  0  0  0  0
  141.6444   70.2455  229.2479 H   0  0  0  0  0  0  0  0  0  0  0  0
  141.4188   72.5155  228.5643 H   0  0  0  0  0  0  0  0  0  0  0  0
  142.3222   72.3959  227.0162 H   0  0  0  0  0  0  0  0  0  0  0  0
  140.6068   72.9289  227.0162 H   0  0  0  0  0  0  0  0  0  0  0  0
  138.8135   71.5521  225.0166 H   0  0  0  0  0  0  0  0  0  0  0  0
  140.4464   72.0049  224.6612 H   0  0  0  0  0  0  0  0  0  0  0  0
  138.8478   73.9853  220.2684 H   0  0  0  0  0  0  0  0  0  0  0  0
  138.8207   74.1685  222.0284 H   0  0  0  0  0  0  0  0  0  0  0  0
  140.5794   75.7032  221.1802 H   0  0  0  0  0  0  0  0  0  0  0  0
  141.4532   74.3627  221.9208 H   0  0  0  0  0  0  0  0  0  0  0  0
  1  2  1  0
  2  3  1  0
  3  4  2  0
  3  5  1  0
  5  6  1  0
  6  7  2  0
  7  8  1  0
  8  9  2  0
  9 10  1  0
 10 11  2  0
  5 12  1  0
 12 13  1  0
 13 14  1  0
 14 15  1  0
 15 16  1  0
 16 17  2  0
 16 18  1  0
 18 19  1  0
 18 20  1  0
 20 21  1  0
 21 22  1  0
 22 23  2  0
 23 24  1  0
 24 25  2  0
 25 26  1  0
 26 27  1  0
 26 28  2  0
 28 29  1  0
 15 30  1  0
 30 31  1  0
 11  6  1  0
 31 12  1  0
 29 20  1  0
 28 22  1  0
  1 32  1  0
  1 33  1  0
  1 34  1  0
  2 35  1  0
  2 36  1  0
  7 37  1  0
  8 38  1  0
  9 39  1  0
 10 40  1  0
 11 41  1  0
 12 42  1  0
 13 43  1  0
 13 44  1  0
 14 45  1  0
 14 46  1  0
 18 47  1  6
 19 48  1  0
 19 49  1  0
 20 50  1  6
 21 51  1  0
 21 52  1  0
 23 53  1  0
 24 54  1  0
 25 55  1  0
 27 56  1  0
 27 57  1  0
 27 58  1  0
 29 59  1  0
 29 60  1  0
 30 61  1  0
 30 62  1  0
 31 63  1  0
 31 64  1  0
M  END
>  <smiles>  (41) 
CCC(=O)N(c1ccccc1)C1CCN(C(=O)[C@H](N)C2Cc3cccc(C)c3C2)CC1

>  <score_type>  (41) 
oracle

>  <origin>  (41) 
autodockgpu

>  <m_score__min__energy>  (41) 
-8.7400000000000002

>  <m_primary>  (41) 
energy

>  <rmsd>  (41) 
9.658571652708236

>  <m_score__min__rmsd>  (41) 
9.658571652708236

>  <meeko>  (41) 
{"free_energy": -7.87, "intermolecular_energy": -9.96, "internal_energy": -1.91, "cluster_size": 1, "cluster_id": 7, "rank_in_cluster": 1}

>  <energy>  (41) 
-7.63

>  <cluster_rmsd>  (41) 
0.86

>  <cluster>  (41) 
6

$$$$

     RDKit          3D

 64 67  0  0  0  0  0  0  0  0999 V2000
  133.8470   77.0480  225.0010 C   0  0  0  0  0  0  0  0  0  0  0  0
  133.0880   77.6040  223.8320 C   0  0  0  0  0  0  0  0  0  0  0  0
  133.9750   78.4910  222.9950 C   0  0  0  0  0  0  0  0  0  0  0  0
  133.3760   79.4090  222.3810 O   0  0  0  0  0  0  0  0  0  0  0  0
  135.3780   78.2760  222.9280 N   0  0  0  0  0  0  0  0  0  0  0  0
  136.1910   79.3060  223.5420 C   0  0  0  0  0  0  0  0  0  0  0  0
  137.5260   79.4420  223.2460 C   0  0  0  0  0  0  0  0  0  0  0  0
  138.2360   80.4330  223.8580 C   0  0  0  0  0  0  0  0  0  0  0  0
  137.5950   81.2740  224.7620 C   0  0  0  0  0  0  0  0  0  0  0  0
  136.2550   81.1310  225.0530 C   0  0  0  0  0  0  0  0  0  0  0  0
  135.5350   80.1310  224.4380 C   0  0  0  0  0  0  0  0  0  0  0  0
  135.9880   77.1230  222.3050 C   0  0  0  0  0  0  0  0  0  0  0  0
  136.6770   77.4440  221.0350 C   0  0  0  0  0  0  0  0  0  0  0  0
  138.1670   77.2700  221.0300 C   0  0  0  0  0  0  0  0  0  0  0  0
  138.5160   75.9880  221.5850 N   0  0  0  0  0  0  0  0  0  0  0  0
  139.7960   75.3780  221.4680 C   0  0  0  0  0  0  0  0  0  0  0  0
  139.9730   74.2120  221.9890 O   0  0  0  0  0  0  0  0  0  0  0  0
  140.9620   75.9540  220.8000 C   0  0  2  0  0  0  0  0  0  0  0  0
  142.1150   75.0920  220.7860 N   0  0  0  0  0  0  0  0  0  0  0  0
  141.3940   77.2900  221.3080 C   0  0  2  0  0  0  0  0  0  0  0  0
  141.0450   77.5570  222.7530 C   0  0  0  0  0  0  0  0  0  0  0  0
  141.4470   79.0090  222.8320 C   0  0  0  0  0  0  0  0  0  0  0  0
  141.8910   79.7570  223.9040 C   0  0  0  0  0  0  0  0  0  0  0  0
  142.2000   81.0890  223.7080 C   0  0  0  0  0  0  0  0  0  0  0  0
  142.0540   81.6230  222.4500 C   0  0  0  0  0  0  0  0  0  0  0  0
  141.6140   80.9050  221.3630 C   0  0  0  0  0  0  0  0  0  0  0  0
  141.4730   81.5280  220.0200 C   0  0  0  0  0  0  0  0  0  0  0  0
  141.3050   79.5730  221.5570 C   0  0  0  0  0  0  0  0  0  0  0  0
  140.8040   78.4810  220.6400 C   0  0  0  0  0  0  0  0  0  0  0  0
  137.4990   75.2410  222.3500 C   0  0  0  0  0  0  0  0  0  0  0  0
  136.7990   76.2840  223.2490 C   0  0  0  0  0  0  0  0  0  0  0  0
  133.3807   77.3896  225.9369 H   0  0  0  0  0  0  0  0  0  0  0  0
  133.8276   75.9489  224.9615 H   0  0  0  0  0  0  0  0  0  0  0  0
  134.8891   77.3980  224.9615 H   0  0  0  0  0  0  0  0  0  0  0  0
  132.7197   76.7732  223.2122 H   0  0  0  0  0  0  0  0  0  0  0  0
  132.2447   78.2012  224.2091 H   0  0  0  0  0  0  0  0  0  0  0  0
  138.0129   78.7645  222.5291 H   0  0  0  0  0  0  0  0  0  0  0  0
  139.3057   80.5660  223.6387 H   0  0  0  0  0  0  0  0  0  0  0  0
  138.1703   82.0710  225.2557 H   0  0  0  0  0  0  0  0  0  0  0  0
  135.7662   81.8084  225.7687 H   0  0  0  0  0  0  0  0  0  0  0  0
  134.4654   79.9918  224.6538 H   0  0  0  0  0  0  0  0  0  0  0  0
  135.1513   76.4702  222.0157 H   0  0  0  0  0  0  0  0  0  0  0  0
  136.2600   76.7929  220.2526 H   0  0  0  0  0  0  0  0  0  0  0  0
  136.5044   78.5175  220.8685 H   0  0  0  0  0  0  0  0  0  0  0  0
  138.5373   77.3321  219.9961 H   0  0  0  0  0  0  0  0  0  0  0  0
  138.6248   78.0634  221.6391 H   0  0  0  0  0  0  0  0  0  0  0  0
  140.5813   76.0814  219.7759 H   0  0  0  0  0  0  0  0  0  0  0  0
  142.7660   75.4140  221.5370 H   0  0  0  0  0  0  0  0  0  0  0  0
  141.8490   74.0730  220.9180 H   0  0  0  0  0  0  0  0  0  0  0  0
  142.4719   77.1928  221.1112 H   0  0  0  0  0  0  0  0  0  0  0  0
  139.9722   77.4153  222.9506 H   0  0  0  0  0  0  0  0  0  0  0  0
  141.5278   76.8933  223.4854 H   0  0  0  0  0  0  0  0  0  0  0  0
  141.9971   79.2995  224.8987 H   0  0  0  0  0  0  0  0  0  0  0  0
  142.5561   81.7105  224.5428 H   0  0  0  0  0  0  0  0  0  0  0  0
  142.3032   82.6845  222.3046 H   0  0  0  0  0  0  0  0  0  0  0  0
  141.2315   82.5951  220.1343 H   0  0  0  0  0  0  0  0  0  0  0  0
  142.4176   81.4231  219.4662 H   0  0  0  0  0  0  0  0  0  0  0  0
  140.6656   81.0266  219.4662 H   0  0  0  0  0  0  0  0  0  0  0  0
  139.7051   78.4359  220.6216 H   0  0  0  0  0  0  0  0  0  0  0  0
  141.0798   78.6023  219.5821 H   0  0  0  0  0  0  0  0  0  0  0  0
  136.7730   74.7742  221.6681 H   0  0  0  0  0  0  0  0  0  0  0  0
  137.9514   74.4331  222.9438 H   0  0  0  0  0  0  0  0  0  0  0  0
  136.1475   75.7875  223.9832 H   0  0  0  0  0  0  0  0  0  0  0  0
  137.5184   76.8850  223.8245 H   0  0  0  0  0  0  0  0  0  0  0  0
  1  2  1  0
  2  3  1  0
  3  4  2  0
  3  5  1  0
  5  6  1  0
  6  7  2  0
  7  8  1  0
  8  9  2  0
  9 10  1  0
 10 11  2  0
  5 12  1  0
 12 13  1  0
 13 14  1  0
 14 15  1  0
 15 16  1  0
 16 17  2  0
 16 18  1  0
 18 19  1  0
 18 20  1  0
 20 21  1  0
 21 22  1  0
 22 23  2  0
 23 24  1  0
 24 25  2  0
 25 26  1  0
 26 27  1  0
 26 28  2  0
 28 29  1  0
 15 30  1  0
 30 31  1  0
 11  6  1  0
 31 12  1  0
 29 20  1  0
 28 22  1  0
  1 32  1  0
  1 33  1  0
  1 34  1  0
  2 35  1  0
  2 36  1  0
  7 37  1  0
  8 38  1  0
  9 39  1  0
 10 40  1  0
 11 41  1  0
 12 42  1  0
 13 43  1  0
 13 44  1  0
 14 45  1  0
 14 46  1  0
 18 47  1  6
 19 48  1  0
 19 49  1  0
 20 50  1  1
 21 51  1  0
 21 52  1  0
 23 53  1  0
 24 54  1  0
 25 55  1  0
 27 56  1  0
 27 57  1  0
 27 58  1  0
 29 59  1  0
 29 60  1  0
 30 61  1  0
 30 62  1  0
 31 63  1  0
 31 64  1  0
M  END
>  <smiles>  (42) 
CCC(=O)N(c1ccccc1)C1CCN(C(=O)[C@H](N)C2Cc3cccc(C)c3C2)CC1

>  <score_type>  (42) 
oracle

>  <origin>  (42) 
autodockgpu

>  <m_score__min__energy>  (42) 
-8.7400000000000002

>  <m_primary>  (42) 
energy

>  <rmsd>  (42) 
5.00979014144056

>  <m_score__min__rmsd>  (42) 
5.00979014144056

>  <meeko>  (42) 
{"free_energy": -6.56, "intermolecular_energy": -8.65, "internal_energy": -3.04, "cluster_size": 3, "cluster_id": 11, "rank_in_cluster": 1}

>  <energy>  (42) 
-7.87

>  <cluster_rmsd>  (42) 
0.0

>  <cluster>  (42) 
7

$$$$

     RDKit          3D

 64 67  0  0  0  0  0  0  0  0999 V2000
  144.5840   72.8310  216.2990 C   0  0  0  0  0  0  0  0  0  0  0  0
  145.6820   73.3370  217.1880 C   0  0  0  0  0  0  0  0  0  0  0  0
  145.5510   72.7580  218.5760 C   0  0  0  0  0  0  0  0  0  0  0  0
  146.5160   73.0030  219.3430 O   0  0  0  0  0  0  0  0  0  0  0  0
  144.4110   71.9980  218.9520 N   0  0  0  0  0  0  0  0  0  0  0  0
  144.6230   70.5680  219.0370 C   0  0  0  0  0  0  0  0  0  0  0  0
  144.1080   69.8240  220.0710 C   0  0  0  0  0  0  0  0  0  0  0  0
  144.3420   68.4800  220.0920 C   0  0  0  0  0  0  0  0  0  0  0  0
  145.0940   67.9010  219.0740 C   0  0  0  0  0  0  0  0  0  0  0  0
  145.6070   68.6550  218.0400 C   0  0  0  0  0  0  0  0  0  0  0  0
  145.3730   70.0120  218.0160 C   0  0  0  0  0  0  0  0  0  0  0  0
  143.1180   72.5750  219.2410 C   0  0  0  0  0  0  0  0  0  0  0  0
  142.0020   71.6170  219.0710 C   0  0  0  0  0  0  0  0  0  0  0  0
  141.2550   71.2450  220.3180 C   0  0  0  0  0  0  0  0  0  0  0  0
  140.9090   72.4310  221.0580 N   0  0  0  0  0  0  0  0  0  0  0  0
  139.9620   72.4740  222.1180 C   0  0  0  0  0  0  0  0  0  0  0  0
  139.7220   73.6070  222.6840 O   0  0  0  0  0  0  0  0  0  0  0  0
  139.2140   71.3340  222.6460 C   0  0  2  0  0  0  0  0  0  0  0  0
  137.8250   71.6140  222.9070 N   0  0  0  0  0  0  0  0  0  0  0  0
  139.7920   70.7010  223.8690 C   0  0  2  0  0  0  0  0  0  0  0  0
  139.1690   69.3780  224.2470 C   0  0  0  0  0  0  0  0  0  0  0  0
  139.8490   69.1650  225.5770 C   0  0  0  0  0  0  0  0  0  0  0  0
  140.1720   67.9980  226.2390 C   0  0  0  0  0  0  0  0  0  0  0  0
  140.8040   68.0770  227.4650 C   0  0  0  0  0  0  0  0  0  0  0  0
  141.0900   69.3180  227.9820 C   0  0  0  0  0  0  0  0  0  0  0  0
  140.7810   70.4970  227.3470 C   0  0  0  0  0  0  0  0  0  0  0  0
  141.1120   71.8180  227.9470 C   0  0  0  0  0  0  0  0  0  0  0  0
  140.1500   70.4200  226.1220 C   0  0  0  0  0  0  0  0  0  0  0  0
  139.6600   71.4610  225.1400 C   0  0  0  0  0  0  0  0  0  0  0  0
  141.5830   73.7010  220.7250 C   0  0  0  0  0  0  0  0  0  0  0  0
  143.0730   73.3470  220.5280 C   0  0  0  0  0  0  0  0  0  0  0  0
  143.7577   72.4502  216.9173 H   0  0  0  0  0  0  0  0  0  0  0  0
  144.2188   73.6516  215.6640 H   0  0  0  0  0  0  0  0  0  0  0  0
  144.9706   72.0202  215.6640 H   0  0  0  0  0  0  0  0  0  0  0  0
  146.6540   73.0442  216.7644 H   0  0  0  0  0  0  0  0  0  0  0  0
  145.6096   74.4327  217.2525 H   0  0  0  0  0  0  0  0  0  0  0  0
  143.5183   70.3028  220.8666 H   0  0  0  0  0  0  0  0  0  0  0  0
  143.9398   67.8595  220.9064 H   0  0  0  0  0  0  0  0  0  0  0  0
  145.2833   66.8176  219.0949 H   0  0  0  0  0  0  0  0  0  0  0  0
  146.1966   68.1781  217.2431 H   0  0  0  0  0  0  0  0  0  0  0  0
  145.7726   70.6384  217.2049 H   0  0  0  0  0  0  0  0  0  0  0  0
  142.9590   73.3373  218.4641 H   0  0  0  0  0  0  0  0  0  0  0  0
  141.2820   72.0612  218.3679 H   0  0  0  0  0  0  0  0  0  0  0  0
  142.4648   70.6848  218.7149 H   0  0  0  0  0  0  0  0  0  0  0  0
  140.3363   70.7053  220.0448 H   0  0  0  0  0  0  0  0  0  0  0  0
  141.8933   70.6032  220.9430 H   0  0  0  0  0  0  0  0  0  0  0  0
  139.2992   70.6184  221.8149 H   0  0  0  0  0  0  0  0  0  0  0  0
  137.7450   72.6180  223.1790 H   0  0  0  0  0  0  0  0  0  0  0  0
  137.2130   71.3910  222.0690 H   0  0  0  0  0  0  0  0  0  0  0  0
  140.8369   70.6315  223.5323 H   0  0  0  0  0  0  0  0  0  0  0  0
  138.0763   69.4516  224.3501 H   0  0  0  0  0  0  0  0  0  0  0  0
  139.3006   68.5679  223.5145 H   0  0  0  0  0  0  0  0  0  0  0  0
  139.9300   67.0200  225.7974 H   0  0  0  0  0  0  0  0  0  0  0  0
  141.0731   67.1643  228.0168 H   0  0  0  0  0  0  0  0  0  0  0  0
  141.5942   69.3704  228.9582 H   0  0  0  0  0  0  0  0  0  0  0  0
  141.0919   71.7379  229.0439 H   0  0  0  0  0  0  0  0  0  0  0  0
  142.1156   72.1280  227.6203 H   0  0  0  0  0  0  0  0  0  0  0  0
  140.3732   72.5646  227.6203 H   0  0  0  0  0  0  0  0  0  0  0  0
  138.6167   71.7486  225.3370 H   0  0  0  0  0  0  0  0  0  0  0  0
  140.2054   72.4159  225.1671 H   0  0  0  0  0  0  0  0  0  0  0  0
  141.1647   74.1258  219.8006 H   0  0  0  0  0  0  0  0  0  0  0  0
  141.4464   74.4518  221.5172 H   0  0  0  0  0  0  0  0  0  0  0  0
  143.6815   74.2603  220.4533 H   0  0  0  0  0  0  0  0  0  0  0  0
  143.4773   72.7695  221.3724 H   0  0  0  0  0  0  0  0  0  0  0  0
  1  2  1  0
  2  3  1  0
  3  4  2  0
  3  5  1  0
  5  6  1  0
  6  7  2  0
  7  8  1  0
  8  9  2  0
  9 10  1  0
 10 11  2  0
  5 12  1  0
 12 13  1  0
 13 14  1  0
 14 15  1  0
 15 16  1  0
 16 17  2  0
 16 18  1  0
 18 19  1  0
 18 20  1  0
 20 21  1  0
 21 22  1  0
 22 23  2  0
 23 24  1  0
 24 25  2  0
 25 26  1  0
 26 27  1  0
 26 28  2  0
 28 29  1  0
 15 30  1  0
 30 31  1  0
 11  6  1  0
 31 12  1  0
 29 20  1  0
 28 22  1  0
  1 32  1  0
  1 33  1  0
  1 34  1  0
  2 35  1  0
  2 36  1  0
  7 37  1  0
  8 38  1  0
  9 39  1  0
 10 40  1  0
 11 41  1  0
 12 42  1  0
 13 43  1  0
 13 44  1  0
 14 45  1  0
 14 46  1  0
 18 47  1  6
 19 48  1  0
 19 49  1  0
 20 50  1  6
 21 51  1  0
 21 52  1  0
 23 53  1  0
 24 54  1  0
 25 55  1  0
 27 56  1  0
 27 57  1  0
 27 58  1  0
 29 59  1  0
 29 60  1  0
 30 61  1  0
 30 62  1  0
 31 63  1  0
 31 64  1  0
M  END
>  <smiles>  (43) 
CCC(=O)N(c1ccccc1)C1CCN(C(=O)[C@H](N)C2Cc3cccc(C)c3C2)CC1

>  <score_type>  (43) 
oracle

>  <origin>  (43) 
autodockgpu

>  <m_score__min__energy>  (43) 
-8.7400000000000002

>  <m_primary>  (43) 
energy

>  <rmsd>  (43) 
9.576339411978218

>  <m_score__min__rmsd>  (43) 
9.576339411978218

>  <meeko>  (43) 
{"free_energy": -8.44, "intermolecular_energy": -10.53, "internal_energy": -2.02, "cluster_size": 10, "cluster_id": 1, "rank_in_cluster": 6}

>  <energy>  (43) 
-7.73

>  <cluster_rmsd>  (43) 
0.0

>  <cluster>  (43) 
8

$$$$

     RDKit          3D

 64 67  0  0  0  0  0  0  0  0999 V2000
  146.3240   73.3810  221.6020 C   0  0  0  0  0  0  0  0  0  0  0  0
  145.0300   73.4620  220.8470 C   0  0  0  0  0  0  0  0  0  0  0  0
  145.0560   72.5490  219.6460 C   0  0  0  0  0  0  0  0  0  0  0  0
  145.9420   72.8180  218.7980 O   0  0  0  0  0  0  0  0  0  0  0  0
  144.1330   71.4770  219.5180 N   0  0  0  0  0  0  0  0  0  0  0  0
  144.7250   70.1770  219.2800 C   0  0  0  0  0  0  0  0  0  0  0  0
  145.7960   70.0170  218.4330 C   0  0  0  0  0  0  0  0  0  0  0  0
  146.3090   68.7650  218.2540 C   0  0  0  0  0  0  0  0  0  0  0  0
  145.7380   67.6900  218.9270 C   0  0  0  0  0  0  0  0  0  0  0  0
  144.6640   67.8590  219.7750 C   0  0  0  0  0  0  0  0  0  0  0  0
  144.1440   69.1210  219.9580 C   0  0  0  0  0  0  0  0  0  0  0  0
  142.6990   71.6310  219.6150 C   0  0  0  0  0  0  0  0  0  0  0  0
  142.2190   71.7460  221.0110 C   0  0  0  0  0  0  0  0  0  0  0  0
  141.6110   73.0640  221.3940 C   0  0  0  0  0  0  0  0  0  0  0  0
  140.6490   73.4690  220.4010 N   0  0  0  0  0  0  0  0  0  0  0  0
  139.6870   74.5010  220.5840 C   0  0  0  0  0  0  0  0  0  0  0  0
  138.8620   74.7510  219.6250 O   0  0  0  0  0  0  0  0  0  0  0  0
  139.5340   75.3290  221.7790 C   0  0  2  0  0  0  0  0  0  0  0  0
  138.1840   75.3990  222.2760 N   0  0  0  0  0  0  0  0  0  0  0  0
  140.0520   76.7250  221.6610 C   0  0  2  0  0  0  0  0  0  0  0  0
  140.7830   77.0170  220.3720 C   0  0  0  0  0  0  0  0  0  0  0  0
  141.3010   78.3970  220.6980 C   0  0  0  0  0  0  0  0  0  0  0  0
  141.5940   79.4600  219.8680 C   0  0  0  0  0  0  0  0  0  0  0  0
  142.0610   80.6350  220.4260 C   0  0  0  0  0  0  0  0  0  0  0  0
  142.2150   80.7020  221.7900 C   0  0  0  0  0  0  0  0  0  0  0  0
  141.9320   79.6610  222.6420 C   0  0  0  0  0  0  0  0  0  0  0  0
  142.1160   79.7820  224.1130 C   0  0  0  0  0  0  0  0  0  0  0  0
  141.4660   78.4860  222.0860 C   0  0  0  0  0  0  0  0  0  0  0  0
  141.0560   77.1530  222.6700 C   0  0  0  0  0  0  0  0  0  0  0  0
  140.6520   72.7970  219.0880 C   0  0  0  0  0  0  0  0  0  0  0  0
  142.1380   72.6680  218.6850 C   0  0  0  0  0  0  0  0  0  0  0  0
  146.1194   73.3938  222.6827 H   0  0  0  0  0  0  0  0  0  0  0  0
  146.8446   72.4485  221.3384 H   0  0  0  0  0  0  0  0  0  0  0  0
  146.9568   74.2413  221.3384 H   0  0  0  0  0  0  0  0  0  0  0  0
  144.2053   73.1626  221.5105 H   0  0  0  0  0  0  0  0  0  0  0  0
  144.8856   74.4965  220.5021 H   0  0  0  0  0  0  0  0  0  0  0  0
  146.2310   70.8813  217.9097 H   0  0  0  0  0  0  0  0  0  0  0  0
  147.1666   68.6075  217.5833 H   0  0  0  0  0  0  0  0  0  0  0  0
  146.1527   66.6819  218.7794 H   0  0  0  0  0  0  0  0  0  0  0  0
  144.2277   66.9960  220.2992 H   0  0  0  0  0  0  0  0  0  0  0  0
  143.2868   69.2852  220.6276 H   0  0  0  0  0  0  0  0  0  0  0  0
  142.2776   70.6835  219.2479 H   0  0  0  0  0  0  0  0  0  0  0  0
  141.4594   70.9665  221.1705 H   0  0  0  0  0  0  0  0  0  0  0  0
  143.1144   71.6396  221.6410 H   0  0  0  0  0  0  0  0  0  0  0  0
  141.1096   72.9647  222.3680 H   0  0  0  0  0  0  0  0  0  0  0  0
  142.4046   73.8229  221.4591 H   0  0  0  0  0  0  0  0  0  0  0  0
  140.1666   74.7863  222.4969 H   0  0  0  0  0  0  0  0  0  0  0  0
  137.5380   75.1920  221.4820 H   0  0  0  0  0  0  0  0  0  0  0  0
  138.0260   74.7310  223.0860 H   0  0  0  0  0  0  0  0  0  0  0  0
  139.0964   77.2581  221.7734 H   0  0  0  0  0  0  0  0  0  0  0  0
  141.5996   76.3027  220.1906 H   0  0  0  0  0  0  0  0  0  0  0  0
  140.1752   76.9448  219.4580 H   0  0  0  0  0  0  0  0  0  0  0  0
  141.4580   79.3734  218.7799 H   0  0  0  0  0  0  0  0  0  0  0  0
  142.3046   81.4995  219.7909 H   0  0  0  0  0  0  0  0  0  0  0  0
  142.5858   81.6420  222.2247 H   0  0  0  0  0  0  0  0  0  0  0  0
  141.3044   79.2483  224.6292 H   0  0  0  0  0  0  0  0  0  0  0  0
  143.0833   79.3432  224.3989 H   0  0  0  0  0  0  0  0  0  0  0  0
  142.0963   80.8440  224.3989 H   0  0  0  0  0  0  0  0  0  0  0  0
  141.9033   76.4536  222.7245 H   0  0  0  0  0  0  0  0  0  0  0  0
  140.6834   77.1959  223.7041 H   0  0  0  0  0  0  0  0  0  0  0  0
  140.1883   71.8025  219.1655 H   0  0  0  0  0  0  0  0  0  0  0  0
  140.0776   73.3647  218.3411 H   0  0  0  0  0  0  0  0  0  0  0  0
  142.2288   72.3401  217.6389 H   0  0  0  0  0  0  0  0  0  0  0  0
  142.6732   73.6261  218.7600 H   0  0  0  0  0  0  0  0  0  0  0  0
  1  2  1  0
  2  3  1  0
  3  4  2  0
  3  5  1  0
  5  6  1  0
  6  7  2  0
  7  8  1  0
  8  9  2  0
  9 10  1  0
 10 11  2  0
  5 12  1  0
 12 13  1  0
 13 14  1  0
 14 15  1  0
 15 16  1  0
 16 17  2  0
 16 18  1  0
 18 19  1  0
 18 20  1  0
 20 21  1  0
 21 22  1  0
 22 23  2  0
 23 24  1  0
 24 25  2  0
 25 26  1  0
 26 27  1  0
 26 28  2  0
 28 29  1  0
 15 30  1  0
 30 31  1  0
 11  6  1  0
 31 12  1  0
 29 20  1  0
 28 22  1  0
  1 32  1  0
  1 33  1  0
  1 34  1  0
  2 35  1  0
  2 36  1  0
  7 37  1  0
  8 38  1  0
  9 39  1  0
 10 40  1  0
 11 41  1  0
 12 42  1  0
 13 43  1  0
 13 44  1  0
 14 45  1  0
 14 46  1  0
 18 47  1  1
 19 48  1  0
 19 49  1  0
 20 50  1  6
 21 51  1  0
 21 52  1  0
 23 53  1  0
 24 54  1  0
 25 55  1  0
 27 56  1  0
 27 57  1  0
 27 58  1  0
 29 59  1  0
 29 60  1  0
 30 61  1  0
 30 62  1  0
 31 63  1  0
 31 64  1  0
M  END
>  <smiles>  (44) 
CCC(=O)N(c1ccccc1)C1CCN(C(=O)[C@H](N)C2Cc3cccc(C)c3C2)CC1

>  <score_type>  (44) 
oracle

>  <origin>  (44) 
autodockgpu

>  <m_score__min__energy>  (44) 
-8.7400000000000002

>  <m_primary>  (44) 
energy

>  <rmsd>  (44) 
5.329731692604768

>  <m_score__min__rmsd>  (44) 
5.329731692604768

>  <meeko>  (44) 
{"free_energy": -7.62, "intermolecular_energy": -9.71, "internal_energy": -2.14, "cluster_size": 5, "cluster_id": 5, "rank_in_cluster": 4}

>  <energy>  (44) 
-7.5

>  <cluster_rmsd>  (44) 
0.0

>  <cluster>  (44) 
9

$$$$

     RDKit          3D

 64 67  0  0  0  0  0  0  0  0999 V2000
  142.6070   80.4430  223.7660 C   0  0  0  0  0  0  0  0  0  0  0  0
  141.2500   79.8020  223.7650 C   0  0  0  0  0  0  0  0  0  0  0  0
  141.3060   78.4370  223.1260 C   0  0  0  0  0  0  0  0  0  0  0  0
  141.8200   77.5400  223.8400 O   0  0  0  0  0  0  0  0  0  0  0  0
  140.8080   78.2180  221.8130 N   0  0  0  0  0  0  0  0  0  0  0  0
  141.1150   79.2600  220.8550 C   0  0  0  0  0  0  0  0  0  0  0  0
  140.5730   80.5190  220.9610 C   0  0  0  0  0  0  0  0  0  0  0  0
  140.9030   81.4550  220.0260 C   0  0  0  0  0  0  0  0  0  0  0  0
  141.7730   81.1150  218.9950 C   0  0  0  0  0  0  0  0  0  0  0  0
  142.3120   79.8500  218.8960 C   0  0  0  0  0  0  0  0  0  0  0  0
  141.9810   78.9020  219.8380 C   0  0  0  0  0  0  0  0  0  0  0  0
  140.0500   77.0510  221.4230 C   0  0  0  0  0  0  0  0  0  0  0  0
  140.8610   76.0460  220.6990 C   0  0  0  0  0  0  0  0  0  0  0  0
  141.0580   74.7310  221.3950 C   0  0  0  0  0  0  0  0  0  0  0  0
  139.7960   74.2360  221.8800 N   0  0  0  0  0  0  0  0  0  0  0  0
  139.5670   72.9030  222.3210 C   0  0  0  0  0  0  0  0  0  0  0  0
  138.3810   72.5770  222.7090 O   0  0  0  0  0  0  0  0  0  0  0  0
  140.5650   71.8370  222.3820 C   0  0  2  0  0  0  0  0  0  0  0  0
  140.4600   70.8720  221.3190 N   0  0  0  0  0  0  0  0  0  0  0  0
  140.6250   71.0900  223.6750 C   0  0  2  0  0  0  0  0  0  0  0  0
  139.5950   69.9940  223.8150 C   0  0  0  0  0  0  0  0  0  0  0  0
  139.8350   69.6250  225.2590 C   0  0  0  0  0  0  0  0  0  0  0  0
  139.6540   68.4250  225.9160 C   0  0  0  0  0  0  0  0  0  0  0  0
  139.9540   68.3480  227.2630 C   0  0  0  0  0  0  0  0  0  0  0  0
  140.4230   69.4720  227.9000 C   0  0  0  0  0  0  0  0  0  0  0  0
  140.6130   70.6800  227.2730 C   0  0  0  0  0  0  0  0  0  0  0  0
  141.1240   71.8700  228.0060 C   0  0  0  0  0  0  0  0  0  0  0  0
  140.3140   70.7590  225.9280 C   0  0  0  0  0  0  0  0  0  0  0  0
  140.3850   71.8780  224.9130 C   0  0  0  0  0  0  0  0  0  0  0  0
  138.6470   75.1590  221.9530 C   0  0  0  0  0  0  0  0  0  0  0  0
  139.2060   76.4810  222.5250 C   0  0  0  0  0  0  0  0  0  0  0  0
  142.9379   80.5993  224.8033 H   0  0  0  0  0  0  0  0  0  0  0  0
  143.3225   79.7877  223.2477 H   0  0  0  0  0  0  0  0  0  0  0  0
  142.5552   81.4119  223.2477 H   0  0  0  0  0  0  0  0  0  0  0  0
  140.8975   79.7011  224.8021 H   0  0  0  0  0  0  0  0  0  0  0  0
  140.5602   80.4349  223.1875 H   0  0  0  0  0  0  0  0  0  0  0  0
  139.8865   80.7664  221.7841 H   0  0  0  0  0  0  0  0  0  0  0  0
  140.4848   82.4706  220.0864 H   0  0  0  0  0  0  0  0  0  0  0  0
  142.0367   81.8723  218.2421 H   0  0  0  0  0  0  0  0  0  0  0  0
  142.9988   79.6008  218.0737 H   0  0  0  0  0  0  0  0  0  0  0  0
  142.3954   77.8845  219.7830 H   0  0  0  0  0  0  0  0  0  0  0  0
  139.3190   77.4112  220.6842 H   0  0  0  0  0  0  0  0  0  0  0  0
  140.3676   75.8462  219.7364 H   0  0  0  0  0  0  0  0  0  0  0  0
  141.8651   76.4860  220.6088 H   0  0  0  0  0  0  0  0  0  0  0  0
  141.4864   74.0053  220.6880 H   0  0  0  0  0  0  0  0  0  0  0  0
  141.7413   74.8717  222.2455 H   0  0  0  0  0  0  0  0  0  0  0  0
  141.4968   72.4110  222.2713 H   0  0  0  0  0  0  0  0  0  0  0  0
  139.4520   70.7920  221.0560 H   0  0  0  0  0  0  0  0  0  0  0  0
  141.0560   71.1390  220.4820 H   0  0  0  0  0  0  0  0  0  0  0  0
  141.6629   70.7326  223.6045 H   0  0  0  0  0  0  0  0  0  0  0  0
  138.5730   70.3652  223.6488 H   0  0  0  0  0  0  0  0  0  0  0  0
  139.6842   69.1672  223.0950 H   0  0  0  0  0  0  0  0  0  0  0  0
  139.2770   67.5438  225.3763 H   0  0  0  0  0  0  0  0  0  0  0  0
  139.8200   67.4057  227.8144 H   0  0  0  0  0  0  0  0  0  0  0  0
  140.6596   69.4006  228.9719 H   0  0  0  0  0  0  0  0  0  0  0  0
  141.0483   71.6938  229.0892 H   0  0  0  0  0  0  0  0  0  0  0  0
  142.1760   72.0435  227.7353 H   0  0  0  0  0  0  0  0  0  0  0  0
  140.5254   72.7523  227.7353 H   0  0  0  0  0  0  0  0  0  0  0  0
  139.4422   72.4424  224.8612 H   0  0  0  0  0  0  0  0  0  0  0  0
  141.1410   72.6484  225.1253 H   0  0  0  0  0  0  0  0  0  0  0  0
  138.2235   75.3236  220.9513 H   0  0  0  0  0  0  0  0  0  0  0  0
  137.8410   74.7538  222.5825 H   0  0  0  0  0  0  0  0  0  0  0  0
  138.3869   77.1692  222.7808 H   0  0  0  0  0  0  0  0  0  0  0  0
  139.7821   76.3223  223.4485 H   0  0  0  0  0  0  0  0  0  0  0  0
  1  2  1  0
  2  3  1  0
  3  4  2  0
  3  5  1  0
  5  6  1  0
  6  7  2  0
  7  8  1  0
  8  9  2  0
  9 10  1  0
 10 11  2  0
  5 12  1  0
 12 13  1  0
 13 14  1  0
 14 15  1  0
 15 16  1  0
 16 17  2  0
 16 18  1  0
 18 19  1  0
 18 20  1  0
 20 21  1  0
 21 22  1  0
 22 23  2  0
 23 24  1  0
 24 25  2  0
 25 26  1  0
 26 27  1  0
 26 28  2  0
 28 29  1  0
 15 30  1  0
 30 31  1  0
 11  6  1  0
 31 12  1  0
 29 20  1  0
 28 22  1  0
  1 32  1  0
  1 33  1  0
  1 34  1  0
  2 35  1  0
  2 36  1  0
  7 37  1  0
  8 38  1  0
  9 39  1  0
 10 40  1  0
 11 41  1  0
 12 42  1  0
 13 43  1  0
 13 44  1  0
 14 45  1  0
 14 46  1  0
 18 47  1  6
 19 48  1  0
 19 49  1  0
 20 50  1  1
 21 51  1  0
 21 52  1  0
 23 53  1  0
 24 54  1  0
 25 55  1  0
 27 56  1  0
 27 57  1  0
 27 58  1  0
 29 59  1  0
 29 60  1  0
 30 61  1  0
 30 62  1  0
 31 63  1  0
 31 64  1  0
M  END
>  <smiles>  (45) 
CCC(=O)N(c1ccccc1)C1CCN(C(=O)[C@H](N)C2Cc3cccc(C)c3C2)CC1

>  <score_type>  (45) 
oracle

>  <origin>  (45) 
autodockgpu

>  <m_score__min__energy>  (45) 
-8.7400000000000002

>  <m_primary>  (45) 
energy

>  <rmsd>  (45) 
8.926284367442392

>  <m_score__min__rmsd>  (45) 
8.926284367442392

>  <meeko>  (45) 
{"free_energy": -8.18, "intermolecular_energy": -10.27, "internal_energy": -1.61, "cluster_size": 16, "cluster_id": 2, "rank_in_cluster": 6}

>  <energy>  (45) 
-7.27

>  <cluster_rmsd>  (45) 
1.05

>  <cluster>  (45) 
9

$$$$

     RDKit          3D

 64 67  0  0  0  0  0  0  0  0999 V2000
  146.5500   73.3470  221.5920 C   0  0  0  0  0  0  0  0  0  0  0  0
  145.1540   72.9300  221.2340 C   0  0  0  0  0  0  0  0  0  0  0  0
  145.1230   72.2990  219.8630 C   0  0  0  0  0  0  0  0  0  0  0  0
  146.0410   72.6700  219.0910 O   0  0  0  0  0  0  0  0  0  0  0  0
  144.1160   71.3620  219.5070 N   0  0  0  0  0  0  0  0  0  0  0  0
  144.5940   70.0310  219.1950 C   0  0  0  0  0  0  0  0  0  0  0  0
  144.4670   68.9930  220.0860 C   0  0  0  0  0  0  0  0  0  0  0  0
  144.9370   67.7620  219.7300 C   0  0  0  0  0  0  0  0  0  0  0  0
  145.5300   67.5920  218.4830 C   0  0  0  0  0  0  0  0  0  0  0  0
  145.6530   68.6390  217.5950 C   0  0  0  0  0  0  0  0  0  0  0  0
  145.1800   69.8820  217.9510 C   0  0  0  0  0  0  0  0  0  0  0  0
  142.7060   71.6750  219.4540 C   0  0  0  0  0  0  0  0  0  0  0  0
  141.8390   70.4850  219.6060 C   0  0  0  0  0  0  0  0  0  0  0  0
  140.9920   70.4380  220.8440 C   0  0  0  0  0  0  0  0  0  0  0  0
  140.3110   71.6940  221.0230 N   0  0  0  0  0  0  0  0  0  0  0  0
  139.2190   71.9000  221.9120 C   0  0  0  0  0  0  0  0  0  0  0  0
  138.6770   73.0690  221.9610 O   0  0  0  0  0  0  0  0  0  0  0  0
  138.6340   70.8970  222.7990 C   0  0  2  0  0  0  0  0  0  0  0  0
  137.1950   70.9120  222.8350 N   0  0  0  0  0  0  0  0  0  0  0  0
  139.1290   70.9230  224.2080 C   0  0  2  0  0  0  0  0  0  0  0  0
  140.3350   71.8030  224.4350 C   0  0  0  0  0  0  0  0  0  0  0  0
  140.6390   71.4280  225.8650 C   0  0  0  0  0  0  0  0  0  0  0  0
  141.2400   72.1570  226.8720 C   0  0  0  0  0  0  0  0  0  0  0  0
  141.4030   71.5740  228.1140 C   0  0  0  0  0  0  0  0  0  0  0  0
  140.9590   70.2870  228.3020 C   0  0  0  0  0  0  0  0  0  0  0  0
  140.3570   69.5360  227.3200 C   0  0  0  0  0  0  0  0  0  0  0  0
  139.8930   68.1460  227.5730 C   0  0  0  0  0  0  0  0  0  0  0  0
  140.1940   70.1170  226.0780 C   0  0  0  0  0  0  0  0  0  0  0  0
  139.5970   69.6320  224.7770 C   0  0  0  0  0  0  0  0  0  0  0  0
  140.7680   72.8690  220.2580 C   0  0  0  0  0  0  0  0  0  0  0  0
  142.3110   72.8370  220.3190 C   0  0  0  0  0  0  0  0  0  0  0  0
  146.6541   73.3781  222.6866 H   0  0  0  0  0  0  0  0  0  0  0  0
  147.2668   72.6238  221.1759 H   0  0  0  0  0  0  0  0  0  0  0  0
  146.7527   74.3449  221.1759 H   0  0  0  0  0  0  0  0  0  0  0  0
  144.7929   72.2019  221.9753 H   0  0  0  0  0  0  0  0  0  0  0  0
  144.5082   73.8204  221.2292 H   0  0  0  0  0  0  0  0  0  0  0  0
  143.9957   69.1509  221.0673 H   0  0  0  0  0  0  0  0  0  0  0  0
  144.8477   66.9122  220.4227 H   0  0  0  0  0  0  0  0  0  0  0  0
  145.9094   66.5993  218.1992 H   0  0  0  0  0  0  0  0  0  0  0  0
  146.1237   68.4832  216.6131 H   0  0  0  0  0  0  0  0  0  0  0  0
  145.2660   70.7358  217.2629 H   0  0  0  0  0  0  0  0  0  0  0  0
  142.5243   72.0286  218.4283 H   0  0  0  0  0  0  0  0  0  0  0  0
  141.1659   70.4465  218.7368 H   0  0  0  0  0  0  0  0  0  0  0  0
  142.5247   69.6285  219.6849 H   0  0  0  0  0  0  0  0  0  0  0  0
  140.2499   69.6319  220.7472 H   0  0  0  0  0  0  0  0  0  0  0  0
  141.6364   70.2494  221.7153 H   0  0  0  0  0  0  0  0  0  0  0  0
  138.9831   69.9662  222.3282 H   0  0  0  0  0  0  0  0  0  0  0  0
  136.8960   70.7520  223.8230 H   0  0  0  0  0  0  0  0  0  0  0  0
  136.8000   71.8220  222.4560 H   0  0  0  0  0  0  0  0  0  0  0  0
  138.2076   71.2802  224.6912 H   0  0  0  0  0  0  0  0  0  0  0  0
  141.1636   71.5491  223.7575 H   0  0  0  0  0  0  0  0  0  0  0  0
  140.1773   72.8761  224.2519 H   0  0  0  0  0  0  0  0  0  0  0  0
  141.5836   73.1857  226.6883 H   0  0  0  0  0  0  0  0  0  0  0  0
  141.8787   72.1289  228.9360 H   0  0  0  0  0  0  0  0  0  0  0  0
  141.0928   69.8318  229.2944 H   0  0  0  0  0  0  0  0  0  0  0  0
  139.8345   67.9706  228.6573 H   0  0  0  0  0  0  0  0  0  0  0  0
  138.8987   68.0040  227.1244 H   0  0  0  0  0  0  0  0  0  0  0  0
  140.6026   67.4352  227.1244 H   0  0  0  0  0  0  0  0  0  0  0  0
  140.3515   69.1532  224.1355 H   0  0  0  0  0  0  0  0  0  0  0  0
  138.8168   68.8640  224.8841 H   0  0  0  0  0  0  0  0  0  0  0  0
  140.4245   72.8042  219.2150 H   0  0  0  0  0  0  0  0  0  0  0  0
  140.3658   73.8044  220.6742 H   0  0  0  0  0  0  0  0  0  0  0  0
  142.7337   73.7735  219.9263 H   0  0  0  0  0  0  0  0  0  0  0  0
  142.6834   72.7330  221.3488 H   0  0  0  0  0  0  0  0  0  0  0  0
  1  2  1  0
  2  3  1  0
  3  4  2  0
  3  5  1  0
  5  6  1  0
  6  7  2  0
  7  8  1  0
  8  9  2  0
  9 10  1  0
 10 11  2  0
  5 12  1  0
 12 13  1  0
 13 14  1  0
 14 15  1  0
 15 16  1  0
 16 17  2  0
 16 18  1  0
 18 19  1  0
 18 20  1  0
 20 21  1  0
 21 22  1  0
 22 23  2  0
 23 24  1  0
 24 25  2  0
 25 26  1  0
 26 27  1  0
 26 28  2  0
 28 29  1  0
 15 30  1  0
 30 31  1  0
 11  6  1  0
 31 12  1  0
 29 20  1  0
 28 22  1  0
  1 32  1  0
  1 33  1  0
  1 34  1  0
  2 35  1  0
  2 36  1  0
  7 37  1  0
  8 38  1  0
  9 39  1  0
 10 40  1  0
 11 41  1  0
 12 42  1  0
 13 43  1  0
 13 44  1  0
 14 45  1  0
 14 46  1  0
 18 47  1  6
 19 48  1  0
 19 49  1  0
 20 50  1  1
 21 51  1  0
 21 52  1  0
 23 53  1  0
 24 54  1  0
 25 55  1  0
 27 56  1  0
 27 57  1  0
 27 58  1  0
 29 59  1  0
 29 60  1  0
 30 61  1  0
 30 62  1  0
 31 63  1  0
 31 64  1  0
M  END
>  <smiles>  (46) 
CCC(=O)N(c1ccccc1)C1CCN(C(=O)[C@H](N)C2Cc3cccc(C)c3C2)CC1

>  <score_type>  (46) 
oracle

>  <origin>  (46) 
autodockgpu

>  <m_score__min__energy>  (46) 
-8.7400000000000002

>  <m_primary>  (46) 
energy

>  <rmsd>  (46) 
8.659626708974976

>  <m_score__min__rmsd>  (46) 
8.659626708974976

>  <meeko>  (46) 
{"free_energy": -8.35, "intermolecular_energy": -10.44, "internal_energy": -2.01, "cluster_size": 10, "cluster_id": 1, "rank_in_cluster": 8}

>  <energy>  (46) 
-7.27

>  <cluster_rmsd>  (46) 
1.39

>  <cluster>  (46) 
9

$$$$

     RDKit          3D

 64 67  0  0  0  0  0  0  0  0999 V2000
  142.6070   80.5270  222.9480 C   0  0  0  0  0  0  0  0  0  0  0  0
  142.0810   79.4210  222.0800 C   0  0  0  0  0  0  0  0  0  0  0  0
  141.2420   78.4630  222.8890 C   0  0  0  0  0  0  0  0  0  0  0  0
  141.8440   77.9120  223.8440 O   0  0  0  0  0  0  0  0  0  0  0  0
  139.8800   78.2250  222.5660 N   0  0  0  0  0  0  0  0  0  0  0  0
  138.9610   79.2770  222.9490 C   0  0  0  0  0  0  0  0  0  0  0  0
  137.8690   79.5960  222.1790 C   0  0  0  0  0  0  0  0  0  0  0  0
  137.0420   80.5970  222.5960 C   0  0  0  0  0  0  0  0  0  0  0  0
  137.3240   81.2670  223.7830 C   0  0  0  0  0  0  0  0  0  0  0  0
  138.4220   80.9410  224.5490 C   0  0  0  0  0  0  0  0  0  0  0  0
  139.2590   79.9310  224.1310 C   0  0  0  0  0  0  0  0  0  0  0  0
  139.4050   77.0340  221.8990 C   0  0  0  0  0  0  0  0  0  0  0  0
  140.4870   76.2640  221.2430 C   0  0  0  0  0  0  0  0  0  0  0  0
  140.7640   74.9020  221.8090 C   0  0  0  0  0  0  0  0  0  0  0  0
  139.5320   74.1740  221.9700 N   0  0  0  0  0  0  0  0  0  0  0  0
  139.4460   72.7730  222.1990 C   0  0  0  0  0  0  0  0  0  0  0  0
  138.2780   72.2350  222.2990 O   0  0  0  0  0  0  0  0  0  0  0  0
  140.5760   71.8560  222.3380 C   0  0  2  0  0  0  0  0  0  0  0  0
  140.6950   70.9040  221.2640 N   0  0  0  0  0  0  0  0  0  0  0  0
  140.6330   71.1020  223.6270 C   0  0  2  0  0  0  0  0  0  0  0  0
  139.6060   70.0020  223.7580 C   0  0  0  0  0  0  0  0  0  0  0  0
  139.8420   69.6260  225.2000 C   0  0  0  0  0  0  0  0  0  0  0  0
  139.6620   68.4220  225.8510 C   0  0  0  0  0  0  0  0  0  0  0  0
  139.9580   68.3390  227.1980 C   0  0  0  0  0  0  0  0  0  0  0  0
  140.4200   69.4610  227.8430 C   0  0  0  0  0  0  0  0  0  0  0  0
  140.6090   70.6730  227.2230 C   0  0  0  0  0  0  0  0  0  0  0  0
  141.1120   71.8600  227.9640 C   0  0  0  0  0  0  0  0  0  0  0  0
  140.3140   70.7580  225.8770 C   0  0  0  0  0  0  0  0  0  0  0  0
  140.3860   71.8820  224.8680 C   0  0  0  0  0  0  0  0  0  0  0  0
  138.2550   74.9110  221.9140 C   0  0  0  0  0  0  0  0  0  0  0  0
  138.4780   76.2000  222.7350 C   0  0  0  0  0  0  0  0  0  0  0  0
  142.4779   80.2556  224.0061 H   0  0  0  0  0  0  0  0  0  0  0  0
  143.6753   80.6822  222.7370 H   0  0  0  0  0  0  0  0  0  0  0  0
  142.0532   81.4537  222.7370 H   0  0  0  0  0  0  0  0  0  0  0  0
  141.4642   79.8532  221.2783 H   0  0  0  0  0  0  0  0  0  0  0  0
  142.9323   78.8716  221.6517 H   0  0  0  0  0  0  0  0  0  0  0  0
  137.6655   79.0542  221.2436 H   0  0  0  0  0  0  0  0  0  0  0  0
  136.1598   80.8725  221.9995 H   0  0  0  0  0  0  0  0  0  0  0  0
  136.6557   82.0744  224.1169 H   0  0  0  0  0  0  0  0  0  0  0  0
  138.6276   81.4819  225.4845 H   0  0  0  0  0  0  0  0  0  0  0  0
  140.1431   79.6509  224.7225 H   0  0  0  0  0  0  0  0  0  0  0  0
  138.7722   77.3941  221.0745 H   0  0  0  0  0  0  0  0  0  0  0  0
  140.2165   76.1393  220.1841 H   0  0  0  0  0  0  0  0  0  0  0  0
  141.4060   76.8455  221.4085 H   0  0  0  0  0  0  0  0  0  0  0  0
  141.4256   74.3510  221.1244 H   0  0  0  0  0  0  0  0  0  0  0  0
  141.2489   75.0113  222.7903 H   0  0  0  0  0  0  0  0  0  0  0  0
  141.4241   72.5560  222.3098 H   0  0  0  0  0  0  0  0  0  0  0  0
  139.7330   70.6750  220.9290 H   0  0  0  0  0  0  0  0  0  0  0  0
  141.3000   71.2730  220.4750 H   0  0  0  0  0  0  0  0  0  0  0  0
  141.6722   70.7481  223.5576 H   0  0  0  0  0  0  0  0  0  0  0  0
  138.5834   70.3709  223.5904 H   0  0  0  0  0  0  0  0  0  0  0  0
  139.7004   69.1793  223.0340 H   0  0  0  0  0  0  0  0  0  0  0  0
  139.2888   67.5425  225.3058 H   0  0  0  0  0  0  0  0  0  0  0  0
  139.8264   67.3930  227.7436 H   0  0  0  0  0  0  0  0  0  0  0  0
  140.6515   69.3849  228.9157 H   0  0  0  0  0  0  0  0  0  0  0  0
  141.0344   71.6768  229.0459 H   0  0  0  0  0  0  0  0  0  0  0  0
  142.1638   72.0402  227.6972 H   0  0  0  0  0  0  0  0  0  0  0  0
  140.5099   72.7411  227.6972 H   0  0  0  0  0  0  0  0  0  0  0  0
  139.4419   72.4441  224.8154 H   0  0  0  0  0  0  0  0  0  0  0  0
  141.1393   72.6530  225.0874 H   0  0  0  0  0  0  0  0  0  0  0  0
  138.0010   75.1589  220.8729 H   0  0  0  0  0  0  0  0  0  0  0  0
  137.4240   74.3130  222.3162 H   0  0  0  0  0  0  0  0  0  0  0  0
  137.5252   76.7251  222.8976 H   0  0  0  0  0  0  0  0  0  0  0  0
  138.8943   75.9899  223.7313 H   0  0  0  0  0  0  0  0  0  0  0  0
  1  2  1  0
  2  3  1  0
  3  4  2  0
  3  5  1  0
  5  6  1  0
  6  7  2  0
  7  8  1  0
  8  9  2  0
  9 10  1  0
 10 11  2  0
  5 12  1  0
 12 13  1  0
 13 14  1  0
 14 15  1  0
 15 16  1  0
 16 17  2  0
 16 18  1  0
 18 19  1  0
 18 20  1  0
 20 21  1  0
 21 22  1  0
 22 23  2  0
 23 24  1  0
 24 25  2  0
 25 26  1  0
 26 27  1  0
 26 28  2  0
 28 29  1  0
 15 30  1  0
 30 31  1  0
 11  6  1  0
 31 12  1  0
 29 20  1  0
 28 22  1  0
  1 32  1  0
  1 33  1  0
  1 34  1  0
  2 35  1  0
  2 36  1  0
  7 37  1  0
  8 38  1  0
  9 39  1  0
 10 40  1  0
 11 41  1  0
 12 42  1  0
 13 43  1  0
 13 44  1  0
 14 45  1  0
 14 46  1  0
 18 47  1  1
 19 48  1  0
 19 49  1  0
 20 50  1  1
 21 51  1  0
 21 52  1  0
 23 53  1  0
 24 54  1  0
 25 55  1  0
 27 56  1  0
 27 57  1  0
 27 58  1  0
 29 59  1  0
 29 60  1  0
 30 61  1  0
 30 62  1  0
 31 63  1  0
 31 64  1  0
M  END
>  <smiles>  (47) 
CCC(=O)N(c1ccccc1)C1CCN(C(=O)[C@H](N)C2Cc3cccc(C)c3C2)CC1

>  <score_type>  (47) 
oracle

>  <origin>  (47) 
autodockgpu

>  <m_score__min__energy>  (47) 
-8.7400000000000002

>  <m_primary>  (47) 
energy

>  <rmsd>  (47) 
9.008944956117467

>  <m_score__min__rmsd>  (47) 
9.008944956117467

>  <meeko>  (47) 
{"free_energy": -8.26, "intermolecular_energy": -10.35, "internal_energy": -1.9, "cluster_size": 16, "cluster_id": 2, "rank_in_cluster": 1}

>  <energy>  (47) 
-7.16

>  <cluster_rmsd>  (47) 
0.0

>  <cluster>  (47) 
10

$$$$

     RDKit          3D

 64 67  0  0  0  0  0  0  0  0999 V2000
  146.7150   69.8440  216.1020 C   0  0  0  0  0  0  0  0  0  0  0  0
  145.4740   70.6840  216.0180 C   0  0  0  0  0  0  0  0  0  0  0  0
  145.2560   71.4400  217.3060 C   0  0  0  0  0  0  0  0  0  0  0  0
  145.9750   72.4600  217.4470 O   0  0  0  0  0  0  0  0  0  0  0  0
  144.3020   71.0020  218.2630 N   0  0  0  0  0  0  0  0  0  0  0  0
  144.4770   69.6430  218.7320 C   0  0  0  0  0  0  0  0  0  0  0  0
  143.4900   68.6980  218.5880 C   0  0  0  0  0  0  0  0  0  0  0  0
  143.7180   67.4350  219.0500 C   0  0  0  0  0  0  0  0  0  0  0  0
  144.9360   67.1370  219.6520 C   0  0  0  0  0  0  0  0  0  0  0  0
  145.9220   68.0910  219.7930 C   0  0  0  0  0  0  0  0  0  0  0  0
  145.6950   69.3670  219.3280 C   0  0  0  0  0  0  0  0  0  0  0  0
  143.2240   71.8250  218.7620 C   0  0  0  0  0  0  0  0  0  0  0  0
  141.9090   71.1470  218.7240 C   0  0  0  0  0  0  0  0  0  0  0  0
  141.2740   70.8620  220.0540 C   0  0  0  0  0  0  0  0  0  0  0  0
  141.3090   72.0410  220.8800 N   0  0  0  0  0  0  0  0  0  0  0  0
  140.5490   72.2160  222.0700 C   0  0  0  0  0  0  0  0  0  0  0  0
  140.6500   73.3320  222.7070 O   0  0  0  0  0  0  0  0  0  0  0  0
  139.6430   71.2330  222.6600 C   0  0  2  0  0  0  0  0  0  0  0  0
  138.2980   71.7130  222.8490 N   0  0  0  0  0  0  0  0  0  0  0  0
  140.1010   70.6340  223.9500 C   0  0  2  0  0  0  0  0  0  0  0  0
  139.3740   69.3720  224.3510 C   0  0  0  0  0  0  0  0  0  0  0  0
  139.9530   69.1920  225.7330 C   0  0  0  0  0  0  0  0  0  0  0  0
  140.1590   68.0450  226.4730 C   0  0  0  0  0  0  0  0  0  0  0  0
  140.7140   68.1540  227.7330 C   0  0  0  0  0  0  0  0  0  0  0  0
  141.0430   69.4020  228.2050 C   0  0  0  0  0  0  0  0  0  0  0  0
  140.8500   70.5610  227.4920 C   0  0  0  0  0  0  0  0  0  0  0  0
  141.2220   71.8910  228.0460 C   0  0  0  0  0  0  0  0  0  0  0  0
  140.2940   70.4550  226.2330 C   0  0  0  0  0  0  0  0  0  0  0  0
  139.9340   71.4680  225.1700 C   0  0  0  0  0  0  0  0  0  0  0  0
  142.2000   73.1530  220.4980 C   0  0  0  0  0  0  0  0  0  0  0  0
  143.5310   72.4970  220.0690 C   0  0  0  0  0  0  0  0  0  0  0  0
  146.9701   69.6713  217.1580 H   0  0  0  0  0  0  0  0  0  0  0  0
  146.5388   68.8787  215.6048 H   0  0  0  0  0  0  0  0  0  0  0  0
  147.5456   70.3663  215.6048 H   0  0  0  0  0  0  0  0  0  0  0  0
  145.5785   71.4016  215.1909 H   0  0  0  0  0  0  0  0  0  0  0  0
  144.6108   70.0249  215.8432 H   0  0  0  0  0  0  0  0  0  0  0  0
  142.5337   68.9552  218.1090 H   0  0  0  0  0  0  0  0  0  0  0  0
  142.9453   66.6588  218.9474 H   0  0  0  0  0  0  0  0  0  0  0  0
  145.1169   66.1177  220.0239 H   0  0  0  0  0  0  0  0  0  0  0  0
  146.8789   67.8354  220.2715 H   0  0  0  0  0  0  0  0  0  0  0  0
  146.4632   70.1480  219.4279 H   0  0  0  0  0  0  0  0  0  0  0  0
  143.1353   72.6557  218.0465 H   0  0  0  0  0  0  0  0  0  0  0  0
  141.2188   71.7843  218.1518 H   0  0  0  0  0  0  0  0  0  0  0  0
  142.0970   70.1631  218.2696 H   0  0  0  0  0  0  0  0  0  0  0  0
  140.2287   70.5560  219.9003 H   0  0  0  0  0  0  0  0  0  0  0  0
  141.8298   70.0549  220.5536 H   0  0  0  0  0  0  0  0  0  0  0  0
  139.6523   70.4460  221.8916 H   0  0  0  0  0  0  0  0  0  0  0  0
  138.3510   72.7230  223.1090 H   0  0  0  0  0  0  0  0  0  0  0  0
  137.7020   71.5700  221.9820 H   0  0  0  0  0  0  0  0  0  0  0  0
  141.1591   70.4856  223.6885 H   0  0  0  0  0  0  0  0  0  0  0  0
  138.2836   69.5150  224.3765 H   0  0  0  0  0  0  0  0  0  0  0  0
  139.5016   68.5171  223.6706 H   0  0  0  0  0  0  0  0  0  0  0  0
  139.8856   67.0604  226.0658 H   0  0  0  0  0  0  0  0  0  0  0  0
  140.8894   67.2585  228.3473 H   0  0  0  0  0  0  0  0  0  0  0  0
  141.4854   69.4775  229.2093 H   0  0  0  0  0  0  0  0  0  0  0  0
  141.2097   71.8469  229.1451 H   0  0  0  0  0  0  0  0  0  0  0  0
  142.2306   72.1627  227.7013 H   0  0  0  0  0  0  0  0  0  0  0  0
  140.5007   72.6466  227.7013 H   0  0  0  0  0  0  0  0  0  0  0  0
  138.8999   71.8261  225.2811 H   0  0  0  0  0  0  0  0  0  0  0  0
  140.5344   72.3896  225.1865 H   0  0  0  0  0  0  0  0  0  0  0  0
  141.7663   73.7216  219.6622 H   0  0  0  0  0  0  0  0  0  0  0  0
  142.3457   73.8590  221.3289 H   0  0  0  0  0  0  0  0  0  0  0  0
  144.3139   73.2586  219.9386 H   0  0  0  0  0  0  0  0  0  0  0  0
  143.9062   71.7884  220.8220 H   0  0  0  0  0  0  0  0  0  0  0  0
  1  2  1  0
  2  3  1  0
  3  4  2  0
  3  5  1  0
  5  6  1  0
  6  7  2  0
  7  8  1  0
  8  9  2  0
  9 10  1  0
 10 11  2  0
  5 12  1  0
 12 13  1  0
 13 14  1  0
 14 15  1  0
 15 16  1  0
 16 17  2  0
 16 18  1  0
 18 19  1  0
 18 20  1  0
 20 21  1  0
 21 22  1  0
 22 23  2  0
 23 24  1  0
 24 25  2  0
 25 26  1  0
 26 27  1  0
 26 28  2  0
 28 29  1  0
 15 30  1  0
 30 31  1  0
 11  6  1  0
 31 12  1  0
 29 20  1  0
 28 22  1  0
  1 32  1  0
  1 33  1  0
  1 34  1  0
  2 35  1  0
  2 36  1  0
  7 37  1  0
  8 38  1  0
  9 39  1  0
 10 40  1  0
 11 41  1  0
 12 42  1  0
 13 43  1  0
 13 44  1  0
 14 45  1  0
 14 46  1  0
 18 47  1  6
 19 48  1  0
 19 49  1  0
 20 50  1  6
 21 51  1  0
 21 52  1  0
 23 53  1  0
 24 54  1  0
 25 55  1  0
 27 56  1  0
 27 57  1  0
 27 58  1  0
 29 59  1  0
 29 60  1  0
 30 61  1  0
 30 62  1  0
 31 63  1  0
 31 64  1  0
M  END
>  <smiles>  (48) 
CCC(=O)N(c1ccccc1)C1CCN(C(=O)[C@H](N)C2Cc3cccc(C)c3C2)CC1

>  <score_type>  (48) 
oracle

>  <origin>  (48) 
autodockgpu

>  <m_score__min__energy>  (48) 
-8.7400000000000002

>  <m_primary>  (48) 
energy

>  <rmsd>  (48) 
9.72862102322623

>  <m_score__min__rmsd>  (48) 
9.72862102322623

>  <meeko>  (48) 
{"free_energy": -8.41, "intermolecular_energy": -10.5, "internal_energy": -1.82, "cluster_size": 10, "cluster_id": 1, "rank_in_cluster": 7}

>  <energy>  (48) 
-6.56

>  <cluster_rmsd>  (48) 
0.0

>  <cluster>  (48) 
11

$$$$

     RDKit          3D

 64 67  0  0  0  0  0  0  0  0999 V2000
  137.6810   81.0010  224.9560 C   0  0  0  0  0  0  0  0  0  0  0  0
  138.3420   80.7140  223.6390 C   0  0  0  0  0  0  0  0  0  0  0  0
  138.0290   79.3110  223.1820 C   0  0  0  0  0  0  0  0  0  0  0  0
  136.8440   78.9430  223.3770 O   0  0  0  0  0  0  0  0  0  0  0  0
  139.0250   78.4940  222.5820 N   0  0  0  0  0  0  0  0  0  0  0  0
  140.3790   79.0000  222.6770 C   0  0  0  0  0  0  0  0  0  0  0  0
  141.1110   78.8850  223.8340 C   0  0  0  0  0  0  0  0  0  0  0  0
  142.3820   79.3820  223.8580 C   0  0  0  0  0  0  0  0  0  0  0  0
  142.8990   79.9900  222.7190 C   0  0  0  0  0  0  0  0  0  0  0  0
  142.1580   80.1020  221.5620 C   0  0  0  0  0  0  0  0  0  0  0  0
  140.8750   79.6020  221.5340 C   0  0  0  0  0  0  0  0  0  0  0  0
  138.7480   77.2410  221.9190 C   0  0  0  0  0  0  0  0  0  0  0  0
  139.9480   76.6260  221.3090 C   0  0  0  0  0  0  0  0  0  0  0  0
  140.3990   75.3240  221.9040 C   0  0  0  0  0  0  0  0  0  0  0  0
  139.2780   74.4290  222.0370 N   0  0  0  0  0  0  0  0  0  0  0  0
  139.3860   73.0330  222.2860 C   0  0  0  0  0  0  0  0  0  0  0  0
  138.3040   72.3340  222.3580 O   0  0  0  0  0  0  0  0  0  0  0  0
  140.6300   72.2890  222.4730 C   0  0  2  0  0  0  0  0  0  0  0  0
  141.0810   71.5920  221.2960 N   0  0  0  0  0  0  0  0  0  0  0  0
  140.6290   71.3180  223.6080 C   0  0  2  0  0  0  0  0  0  0  0  0
  139.5800   70.2360  223.5100 C   0  0  0  0  0  0  0  0  0  0  0  0
  139.7590   69.6040  224.8690 C   0  0  0  0  0  0  0  0  0  0  0  0
  139.5360   68.3090  225.2890 C   0  0  0  0  0  0  0  0  0  0  0  0
  139.7830   67.9810  226.6080 C   0  0  0  0  0  0  0  0  0  0  0  0
  140.2420   68.9600  227.4560 C   0  0  0  0  0  0  0  0  0  0  0  0
  140.4730   70.2590  227.0680 C   0  0  0  0  0  0  0  0  0  0  0  0
  140.9720   71.2840  228.0240 C   0  0  0  0  0  0  0  0  0  0  0  0
  140.2270   70.5880  225.7500 C   0  0  0  0  0  0  0  0  0  0  0  0
  140.3530   71.8710  224.9610 C   0  0  0  0  0  0  0  0  0  0  0  0
  137.9120   74.9750  221.9310 C   0  0  0  0  0  0  0  0  0  0  0  0
  137.9220   76.2920  222.7390 C   0  0  0  0  0  0  0  0  0  0  0  0
  138.3541   80.7087  225.7755 H   0  0  0  0  0  0  0  0  0  0  0  0
  137.4600   82.0761  225.0288 H   0  0  0  0  0  0  0  0  0  0  0  0
  136.7446   80.4284  225.0288 H   0  0  0  0  0  0  0  0  0  0  0  0
  137.9760   81.4290  222.8875 H   0  0  0  0  0  0  0  0  0  0  0  0
  139.4309   80.8128  223.7599 H   0  0  0  0  0  0  0  0  0  0  0  0
  140.6811   78.4018  224.7237 H   0  0  0  0  0  0  0  0  0  0  0  0
  142.9919   79.3024  224.7700 H   0  0  0  0  0  0  0  0  0  0  0  0
  143.9231   80.3909  222.7419 H   0  0  0  0  0  0  0  0  0  0  0  0
  142.5864   80.5851  220.6715 H   0  0  0  0  0  0  0  0  0  0  0  0
  140.2597   79.6793  220.6254 H   0  0  0  0  0  0  0  0  0  0  0  0
  138.0992   77.4990  221.0690 H   0  0  0  0  0  0  0  0  0  0  0  0
  139.7319   76.4518  220.2446 H   0  0  0  0  0  0  0  0  0  0  0  0
  140.7688   77.3347  221.4937 H   0  0  0  0  0  0  0  0  0  0  0  0
  141.1549   74.8664  221.2488 H   0  0  0  0  0  0  0  0  0  0  0  0
  140.8315   75.5115  222.8979 H   0  0  0  0  0  0  0  0  0  0  0  0
  141.3308   73.1019  222.7140 H   0  0  0  0  0  0  0  0  0  0  0  0
  141.4150   70.6470  221.5900 H   0  0  0  0  0  0  0  0  0  0  0  0
  140.3170   71.5190  220.5630 H   0  0  0  0  0  0  0  0  0  0  0  0
  141.6638   70.9587  223.5082 H   0  0  0  0  0  0  0  0  0  0  0  0
  138.5702   70.6521  223.3792 H   0  0  0  0  0  0  0  0  0  0  0  0
  139.6860   69.5526  222.6545 H   0  0  0  0  0  0  0  0  0  0  0  0
  139.1671   67.5492  224.5843 H   0  0  0  0  0  0  0  0  0  0  0  0
  139.6156   66.9566  226.9722 H   0  0  0  0  0  0  0  0  0  0  0  0
  140.4356   68.6894  228.5045 H   0  0  0  0  0  0  0  0  0  0  0  0
  140.8033   70.9374  229.0543 H   0  0  0  0  0  0  0  0  0  0  0  0
  142.0484   71.4431  227.8623 H   0  0  0  0  0  0  0  0  0  0  0  0
  140.4333   72.2293  227.8623 H   0  0  0  0  0  0  0  0  0  0  0  0
  139.4212   72.4552  224.9806 H   0  0  0  0  0  0  0  0  0  0  0  0
  141.1115   72.5731  225.3374 H   0  0  0  0  0  0  0  0  0  0  0  0
  137.6590   75.1728  220.8789 H   0  0  0  0  0  0  0  0  0  0  0  0
  137.1623   74.2686  222.3169 H   0  0  0  0  0  0  0  0  0  0  0  0
  136.8993   76.6774  222.8639 H   0  0  0  0  0  0  0  0  0  0  0  0
  138.3310   76.1544  223.7508 H   0  0  0  0  0  0  0  0  0  0  0  0
  1  2  1  0
  2  3  1  0
  3  4  2  0
  3  5  1  0
  5  6  1  0
  6  7  2  0
  7  8  1  0
  8  9  2  0
  9 10  1  0
 10 11  2  0
  5 12  1  0
 12 13  1  0
 13 14  1  0
 14 15  1  0
 15 16  1  0
 16 17  2  0
 16 18  1  0
 18 19  1  0
 18 20  1  0
 20 21  1  0
 21 22  1  0
 22 23  2  0
 23 24  1  0
 24 25  2  0
 25 26  1  0
 26 27  1  0
 26 28  2  0
 28 29  1  0
 15 30  1  0
 30 31  1  0
 11  6  1  0
 31 12  1  0
 29 20  1  0
 28 22  1  0
  1 32  1  0
  1 33  1  0
  1 34  1  0
  2 35  1  0
  2 36  1  0
  7 37  1  0
  8 38  1  0
  9 39  1  0
 10 40  1  0
 11 41  1  0
 12 42  1  0
 13 43  1  0
 13 44  1  0
 14 45  1  0
 14 46  1  0
 18 47  1  1
 19 48  1  0
 19 49  1  0
 20 50  1  1
 21 51  1  0
 21 52  1  0
 23 53  1  0
 24 54  1  0
 25 55  1  0
 27 56  1  0
 27 57  1  0
 27 58  1  0
 29 59  1  0
 29 60  1  0
 30 61  1  0
 30 62  1  0
 31 63  1  0
 31 64  1  0
M  END
>  <smiles>  (49) 
CCC(=O)N(c1ccccc1)C1CCN(C(=O)[C@H](N)C2Cc3cccc(C)c3C2)CC1

>  <score_type>  (49) 
oracle

>  <origin>  (49) 
autodockgpu

>  <m_score__min__energy>  (49) 
-8.7400000000000002

>  <m_primary>  (49) 
energy

>  <rmsd>  (49) 
8.93734756997326

>  <m_score__min__rmsd>  (49) 
8.93734756997326

>  <meeko>  (49) 
{"free_energy": -8.25, "intermolecular_energy": -10.34, "internal_energy": -1.54, "cluster_size": 16, "cluster_id": 2, "rank_in_cluster": 3}

>  <energy>  (49) 
-6.56

>  <cluster_rmsd>  (49) 
0.04

>  <cluster>  (49) 
11

$$$$

     RDKit          3D

 64 67  0  0  0  0  0  0  0  0999 V2000
  142.5090   79.9890  223.6090 C   0  0  0  0  0  0  0  0  0  0  0  0
  141.8380   78.6550  223.4660 C   0  0  0  0  0  0  0  0  0  0  0  0
  140.9920   78.6160  222.2170 C   0  0  0  0  0  0  0  0  0  0  0  0
  141.5900   78.9450  221.1630 O   0  0  0  0  0  0  0  0  0  0  0  0
  139.6250   78.2320  222.2670 N   0  0  0  0  0  0  0  0  0  0  0  0
  138.7400   79.1810  222.9100 C   0  0  0  0  0  0  0  0  0  0  0  0
  139.1540   79.9440  223.9760 C   0  0  0  0  0  0  0  0  0  0  0  0
  138.2720   80.8200  224.5370 C   0  0  0  0  0  0  0  0  0  0  0  0
  136.9830   80.9180  224.0210 C   0  0  0  0  0  0  0  0  0  0  0  0
  136.5770   80.1490  222.9510 C   0  0  0  0  0  0  0  0  0  0  0  0
  137.4640   79.2630  222.3830 C   0  0  0  0  0  0  0  0  0  0  0  0
  139.1150   76.9950  221.7220 C   0  0  0  0  0  0  0  0  0  0  0  0
  140.1450   76.2010  221.0150 C   0  0  0  0  0  0  0  0  0  0  0  0
  140.5020   74.8810  221.6330 C   0  0  0  0  0  0  0  0  0  0  0  0
  139.3060   74.1470  221.9540 N   0  0  0  0  0  0  0  0  0  0  0  0
  139.2710   72.7620  222.2760 C   0  0  0  0  0  0  0  0  0  0  0  0
  138.1290   72.2140  222.5190 O   0  0  0  0  0  0  0  0  0  0  0  0
  140.4270   71.8720  222.3620 C   0  0  2  0  0  0  0  0  0  0  0  0
  140.5220   70.9250  221.2810 N   0  0  0  0  0  0  0  0  0  0  0  0
  140.5590   71.1180  223.6450 C   0  0  2  0  0  0  0  0  0  0  0  0
  139.5860   69.9750  223.8060 C   0  0  0  0  0  0  0  0  0  0  0  0
  139.8850   69.6050  225.2380 C   0  0  0  0  0  0  0  0  0  0  0  0
  139.7800   68.3930  225.8890 C   0  0  0  0  0  0  0  0  0  0  0  0
  140.1230   68.3190  227.2250 C   0  0  0  0  0  0  0  0  0  0  0  0
  140.5590   69.4580  227.8590 C   0  0  0  0  0  0  0  0  0  0  0  0
  140.6740   70.6790  227.2380 C   0  0  0  0  0  0  0  0  0  0  0  0
  141.1520   71.8840  227.9670 C   0  0  0  0  0  0  0  0  0  0  0  0
  140.3320   70.7550  225.9030 C   0  0  0  0  0  0  0  0  0  0  0  0
  140.3210   71.8840  224.8970 C   0  0  0  0  0  0  0  0  0  0  0  0
  138.0150   74.8600  221.9750 C   0  0  0  0  0  0  0  0  0  0  0  0
  138.2870   76.2020  222.6920 C   0  0  0  0  0  0  0  0  0  0  0  0
  142.6286   80.2268  224.6763 H   0  0  0  0  0  0  0  0  0  0  0  0
  143.4976   79.9556  223.1278 H   0  0  0  0  0  0  0  0  0  0  0  0
  141.8929   80.7628  223.1278 H   0  0  0  0  0  0  0  0  0  0  0  0
  142.6053   77.8690  223.4074 H   0  0  0  0  0  0  0  0  0  0  0  0
  141.1890   78.4896  224.3386 H   0  0  0  0  0  0  0  0  0  0  0  0
  140.1771   79.8498  224.3690 H   0  0  0  0  0  0  0  0  0  0  0  0
  138.5768   81.4439  225.3902 H   0  0  0  0  0  0  0  0  0  0  0  0
  136.2731   81.6240  224.4766 H   0  0  0  0  0  0  0  0  0  0  0  0
  135.5549   80.2426  222.5554 H   0  0  0  0  0  0  0  0  0  0  0  0
  137.1652   78.6353  221.5305 H   0  0  0  0  0  0  0  0  0  0  0  0
  138.4016   77.2936  220.9397 H   0  0  0  0  0  0  0  0  0  0  0  0
  139.7786   76.0067  219.9962 H   0  0  0  0  0  0  0  0  0  0  0  0
  141.0636   76.8047  221.0577 H   0  0  0  0  0  0  0  0  0  0  0  0
  141.1072   74.2983  220.9229 H   0  0  0  0  0  0  0  0  0  0  0  0
  141.0751   75.0577  222.5551 H   0  0  0  0  0  0  0  0  0  0  0  0
  141.2559   72.5923  222.2977 H   0  0  0  0  0  0  0  0  0  0  0  0
  140.7850   70.0000  221.6870 H   0  0  0  0  0  0  0  0  0  0  0  0
  139.6160   70.8610  220.7320 H   0  0  0  0  0  0  0  0  0  0  0  0
  141.6094   70.8089  223.5393 H   0  0  0  0  0  0  0  0  0  0  0  0
  138.5435   70.3000  223.6737 H   0  0  0  0  0  0  0  0  0  0  0  0
  139.6922   69.1589  223.0761 H   0  0  0  0  0  0  0  0  0  0  0  0
  139.4286   67.4994  225.3523 H   0  0  0  0  0  0  0  0  0  0  0  0
  140.0487   67.3670  227.7710 H   0  0  0  0  0  0  0  0  0  0  0  0
  140.8311   69.3886  228.9226 H   0  0  0  0  0  0  0  0  0  0  0  0
  141.0824   71.7086  229.0507 H   0  0  0  0  0  0  0  0  0  0  0  0
  142.1984   72.0862  227.6947 H   0  0  0  0  0  0  0  0  0  0  0  0
  140.5287   72.7485  227.6947 H   0  0  0  0  0  0  0  0  0  0  0  0
  139.3523   72.4049  224.8788 H   0  0  0  0  0  0  0  0  0  0  0  0
  141.0472   72.6865  225.0938 H   0  0  0  0  0  0  0  0  0  0  0  0
  137.6594   75.0387  220.9495 H   0  0  0  0  0  0  0  0  0  0  0  0
  137.2381   74.2759  222.4900 H   0  0  0  0  0  0  0  0  0  0  0  0
  137.3430   76.7223  222.9113 H   0  0  0  0  0  0  0  0  0  0  0  0
  138.7982   76.0614  223.6558 H   0  0  0  0  0  0  0  0  0  0  0  0
  1  2  1  0
  2  3  1  0
  3  4  2  0
  3  5  1  0
  5  6  1  0
  6  7  2  0
  7  8  1  0
  8  9  2  0
  9 10  1  0
 10 11  2  0
  5 12  1  0
 12 13  1  0
 13 14  1  0
 14 15  1  0
 15 16  1  0
 16 17  2  0
 16 18  1  0
 18 19  1  0
 18 20  1  0
 20 21  1  0
 21 22  1  0
 22 23  2  0
 23 24  1  0
 24 25  2  0
 25 26  1  0
 26 27  1  0
 26 28  2  0
 28 29  1  0
 15 30  1  0
 30 31  1  0
 11  6  1  0
 31 12  1  0
 29 20  1  0
 28 22  1  0
  1 32  1  0
  1 33  1  0
  1 34  1  0
  2 35  1  0
  2 36  1  0
  7 37  1  0
  8 38  1  0
  9 39  1  0
 10 40  1  0
 11 41  1  0
 12 42  1  0
 13 43  1  0
 13 44  1  0
 14 45  1  0
 14 46  1  0
 18 47  1  6
 19 48  1  0
 19 49  1  0
 20 50  1  1
 21 51  1  0
 21 52  1  0
 23 53  1  0
 24 54  1  0
 25 55  1  0
 27 56  1  0
 27 57  1  0
 27 58  1  0
 29 59  1  0
 29 60  1  0
 30 61  1  0
 30 62  1  0
 31 63  1  0
 31 64  1  0
M  END
>  <smiles>  (50) 
CCC(=O)N(c1ccccc1)C1CCN(C(=O)[C@H](N)C2Cc3cccc(C)c3C2)CC1

>  <score_type>  (50) 
oracle

>  <origin>  (50) 
autodockgpu

>  <m_score__min__energy>  (50) 
-8.7400000000000002

>  <m_primary>  (50) 
energy

>  <rmsd>  (50) 
9.017508774408382

>  <m_score__min__rmsd>  (50) 
9.017508774408382

>  <meeko>  (50) 
{"free_energy": -8.08, "intermolecular_energy": -10.17, "internal_energy": -1.59, "cluster_size": 16, "cluster_id": 2, "rank_in_cluster": 12}

>  <energy>  (50) 
-6.34

>  <cluster_rmsd>  (50) 
0.64

>  <cluster>  (50) 
11

$$$$

     RDKit          3D

 64 67  0  0  0  0  0  0  0  0999 V2000
  145.6420   74.1700  220.8480 C   0  0  0  0  0  0  0  0  0  0  0  0
  146.0470   72.7040  220.8520 C   0  0  0  0  0  0  0  0  0  0  0  0
  145.4320   72.0860  219.6600 C   0  0  0  0  0  0  0  0  0  0  0  0
  145.9070   72.4410  218.5340 O   0  0  0  0  0  0  0  0  0  0  0  0
  144.3570   71.1360  219.7520 N   0  0  0  0  0  0  0  0  0  0  0  0
  144.6200   69.8260  219.2070 C   0  0  0  0  0  0  0  0  0  0  0  0
  145.0200   69.6430  217.9080 C   0  0  0  0  0  0  0  0  0  0  0  0
  145.2560   68.3490  217.4640 C   0  0  0  0  0  0  0  0  0  0  0  0
  145.0950   67.2610  218.3040 C   0  0  0  0  0  0  0  0  0  0  0  0
  144.6900   67.4750  219.6170 C   0  0  0  0  0  0  0  0  0  0  0  0
  144.4430   68.7620  220.0970 C   0  0  0  0  0  0  0  0  0  0  0  0
  143.1000   71.4690  220.3510 C   0  0  0  0  0  0  0  0  0  0  0  0
  142.7360   72.9430  220.1100 C   0  0  0  0  0  0  0  0  0  0  0  0
  141.6820   73.2700  221.1080 C   0  0  0  0  0  0  0  0  0  0  0  0
  140.6550   72.2320  221.2140 N   0  0  0  0  0  0  0  0  0  0  0  0
  139.5930   72.5650  222.1070 C   0  0  0  0  0  0  0  0  0  0  0  0
  139.7020   73.6870  222.6890 O   0  0  0  0  0  0  0  0  0  0  0  0
  138.4100   71.7630  222.4160 C   0  0  2  0  0  0  0  0  0  0  0  0
  137.2320   72.5380  222.3860 N   0  0  0  0  0  0  0  0  0  0  0  0
  138.7060   71.0620  223.7170 C   0  0  1  0  0  0  0  0  0  0  0  0
  139.0650   69.6220  223.4160 C   0  0  0  0  0  0  0  0  0  0  0  0
  139.6490   69.2410  224.7530 C   0  0  0  0  0  0  0  0  0  0  0  0
  139.6720   67.9950  225.3600 C   0  0  0  0  0  0  0  0  0  0  0  0
  140.2740   67.8800  226.5980 C   0  0  0  0  0  0  0  0  0  0  0  0
  140.8370   68.9830  227.2110 C   0  0  0  0  0  0  0  0  0  0  0  0
  140.7940   70.2270  226.5670 C   0  0  0  0  0  0  0  0  0  0  0  0
  141.3980   71.4390  227.1980 C   0  0  0  0  0  0  0  0  0  0  0  0
  140.1990   70.3650  225.3340 C   0  0  0  0  0  0  0  0  0  0  0  0
  139.9730   71.5140  224.3910 C   0  0  0  0  0  0  0  0  0  0  0  0
  140.7010   70.9960  220.5030 C   0  0  0  0  0  0  0  0  0  0  0  0
  141.9550   70.6900  219.7590 C   0  0  0  0  0  0  0  0  0  0  0  0
  145.5436   74.5260  221.8841 H   0  0  0  0  0  0  0  0  0  0  0  0
  146.4104   74.7613  220.3285 H   0  0  0  0  0  0  0  0  0  0  0  0
  144.6790   74.2829  220.3285 H   0  0  0  0  0  0  0  0  0  0  0  0
  147.1422   72.6139  220.8024 H   0  0  0  0  0  0  0  0  0  0  0  0
  145.7101   72.2049  221.7725 H   0  0  0  0  0  0  0  0  0  0  0  0
  145.1509   70.5019  217.2333 H   0  0  0  0  0  0  0  0  0  0  0  0
  145.5771   68.1853  216.4247 H   0  0  0  0  0  0  0  0  0  0  0  0
  145.2848   66.2411  217.9381 H   0  0  0  0  0  0  0  0  0  0  0  0
  144.5620   66.6141  220.2896 H   0  0  0  0  0  0  0  0  0  0  0  0
  144.1216   68.9328  221.1350 H   0  0  0  0  0  0  0  0  0  0  0  0
  143.2313   71.2386  221.4185 H   0  0  0  0  0  0  0  0  0  0  0  0
  143.6171   73.5843  220.2597 H   0  0  0  0  0  0  0  0  0  0  0  0
  142.3843   73.1096  219.0812 H   0  0  0  0  0  0  0  0  0  0  0  0
  142.1573   73.3950  222.0921 H   0  0  0  0  0  0  0  0  0  0  0  0
  141.1852   74.1924  220.7727 H   0  0  0  0  0  0  0  0  0  0  0  0
  138.2042   70.9976  221.6533 H   0  0  0  0  0  0  0  0  0  0  0  0
  137.2960   73.4800  222.8210 H   0  0  0  0  0  0  0  0  0  0  0  0
  136.7330   72.5860  221.4910 H   0  0  0  0  0  0  0  0  0  0  0  0
  137.8161   71.2489  224.3360 H   0  0  0  0  0  0  0  0  0  0  0  0
  138.1793   69.0196  223.1659 H   0  0  0  0  0  0  0  0  0  0  0  0
  139.7261   69.4700  222.5500 H   0  0  0  0  0  0  0  0  0  0  0  0
  139.2222   67.1199  224.8683 H   0  0  0  0  0  0  0  0  0  0  0  0
  140.3055   66.9018  227.1002 H   0  0  0  0  0  0  0  0  0  0  0  0
  141.3152   68.8854  228.1968 H   0  0  0  0  0  0  0  0  0  0  0  0
  141.3509   71.3444  228.2929 H   0  0  0  0  0  0  0  0  0  0  0  0
  142.4478   71.5319  226.8828 H   0  0  0  0  0  0  0  0  0  0  0  0
  140.8401   72.3331  226.8828 H   0  0  0  0  0  0  0  0  0  0  0  0
  139.8312   72.4619  224.9308 H   0  0  0  0  0  0  0  0  0  0  0  0
  140.8099   71.7209  223.7078 H   0  0  0  0  0  0  0  0  0  0  0  0
  140.5420   70.1877  221.2320 H   0  0  0  0  0  0  0  0  0  0  0  0
  139.9237   71.0823  219.7295 H   0  0  0  0  0  0  0  0  0  0  0  0
  142.1693   69.6135  219.8310 H   0  0  0  0  0  0  0  0  0  0  0  0
  141.8300   70.9722  218.7032 H   0  0  0  0  0  0  0  0  0  0  0  0
  1  2  1  0
  2  3  1  0
  3  4  2  0
  3  5  1  0
  5  6  1  0
  6  7  2  0
  7  8  1  0
  8  9  2  0
  9 10  1  0
 10 11  2  0
  5 12  1  0
 12 13  1  0
 13 14  1  0
 14 15  1  0
 15 16  1  0
 16 17  2  0
 16 18  1  0
 18 19  1  0
 18 20  1  0
 20 21  1  0
 21 22  1  0
 22 23  2  0
 23 24  1  0
 24 25  2  0
 25 26  1  0
 26 27  1  0
 26 28  2  0
 28 29  1  0
 15 30  1  0
 30 31  1  0
 11  6  1  0
 31 12  1  0
 29 20  1  0
 28 22  1  0
  1 32  1  0
  1 33  1  0
  1 34  1  0
  2 35  1  0
  2 36  1  0
  7 37  1  0
  8 38  1  0
  9 39  1  0
 10 40  1  0
 11 41  1  0
 12 42  1  0
 13 43  1  0
 13 44  1  0
 14 45  1  0
 14 46  1  0
 18 47  1  6
 19 48  1  0
 19 49  1  0
 20 50  1  1
 21 51  1  0
 21 52  1  0
 23 53  1  0
 24 54  1  0
 25 55  1  0
 27 56  1  0
 27 57  1  0
 27 58  1  0
 29 59  1  0
 29 60  1  0
 30 61  1  0
 30 62  1  0
 31 63  1  0
 31 64  1  0
M  END
>  <smiles>  (51) 
CCC(=O)N(c1ccccc1)C1CCN(C(=O)[C@H](N)C2Cc3cccc(C)c3C2)CC1

>  <score_type>  (51) 
oracle

>  <origin>  (51) 
autodockgpu

>  <m_score__min__energy>  (51) 
-9.3900000000000006

>  <m_primary>  (51) 
energy

>  <rmsd>  (51) 
9.751595663984826

>  <m_score__min__rmsd>  (51) 
9.751595663984826

>  <meeko>  (51) 
{"free_energy": -8.88, "intermolecular_energy": -10.97, "internal_energy": -2.07, "cluster_size": 16, "cluster_id": 1, "rank_in_cluster": 8}

>  <energy>  (51) 
-9.39

>  <cluster_rmsd>  (51) 
0.0

>  <cluster>  (51) 
1

$$$$

     RDKit          3D

 64 67  0  0  0  0  0  0  0  0999 V2000
  142.7990   78.0770  217.7990 C   0  0  0  0  0  0  0  0  0  0  0  0
  141.8120   78.2310  218.9450 C   0  0  0  0  0  0  0  0  0  0  0  0
  142.2260   77.2810  219.9970 C   0  0  0  0  0  0  0  0  0  0  0  0
  143.3180   76.6590  219.7970 O   0  0  0  0  0  0  0  0  0  0  0  0
  141.4480   77.0620  221.1860 N   0  0  0  0  0  0  0  0  0  0  0  0
  141.3480   78.1790  222.0940 C   0  0  0  0  0  0  0  0  0  0  0  0
  142.3960   79.0360  222.3140 C   0  0  0  0  0  0  0  0  0  0  0  0
  142.2150   80.0880  223.2010 C   0  0  0  0  0  0  0  0  0  0  0  0
  141.0090   80.2790  223.8530 C   0  0  0  0  0  0  0  0  0  0  0  0
  139.9620   79.3960  223.6100 C   0  0  0  0  0  0  0  0  0  0  0  0
  140.1090   78.3270  222.7250 C   0  0  0  0  0  0  0  0  0  0  0  0
  140.8070   75.8090  221.4530 C   0  0  0  0  0  0  0  0  0  0  0  0
  139.3980   75.7580  220.8400 C   0  0  0  0  0  0  0  0  0  0  0  0
  138.6960   74.6420  221.5290 C   0  0  0  0  0  0  0  0  0  0  0  0
  139.5230   73.4400  221.6580 N   0  0  0  0  0  0  0  0  0  0  0  0
  138.8390   72.3330  222.2430 C   0  0  0  0  0  0  0  0  0  0  0  0
  137.6360   72.5530  222.5830 O   0  0  0  0  0  0  0  0  0  0  0  0
  139.3680   70.9920  222.4870 C   0  0  2  0  0  0  0  0  0  0  0  0
  138.6840   70.0160  221.7330 N   0  0  0  0  0  0  0  0  0  0  0  0
  139.3540   70.8010  223.9810 C   0  0  1  0  0  0  0  0  0  0  0  0
  139.5660   69.3320  224.2800 C   0  0  0  0  0  0  0  0  0  0  0  0
  139.8700   69.4310  225.7530 C   0  0  0  0  0  0  0  0  0  0  0  0
  139.6310   68.4960  226.7490 C   0  0  0  0  0  0  0  0  0  0  0  0
  140.0030   68.8070  228.0420 C   0  0  0  0  0  0  0  0  0  0  0  0
  140.5980   70.0200  228.3310 C   0  0  0  0  0  0  0  0  0  0  0  0
  140.8240   70.9400  227.2980 C   0  0  0  0  0  0  0  0  0  0  0  0
  141.4710   72.2590  227.5730 C   0  0  0  0  0  0  0  0  0  0  0  0
  140.4610   70.6530  226.0030 C   0  0  0  0  0  0  0  0  0  0  0  0
  140.5430   71.3880  224.6940 C   0  0  0  0  0  0  0  0  0  0  0  0
  140.8870   73.3700  221.2480 C   0  0  0  0  0  0  0  0  0  0  0  0
  141.5370   74.6460  220.8360 C   0  0  0  0  0  0  0  0  0  0  0  0
  143.8095   77.9193  218.2041 H   0  0  0  0  0  0  0  0  0  0  0  0
  142.5124   77.2127  217.1819 H   0  0  0  0  0  0  0  0  0  0  0  0
  142.7893   78.9875  217.1819 H   0  0  0  0  0  0  0  0  0  0  0  0
  141.8394   79.2602  219.3324 H   0  0  0  0  0  0  0  0  0  0  0  0
  140.7845   78.0254  218.6105 H   0  0  0  0  0  0  0  0  0  0  0  0
  143.3576   78.8929  221.7994 H   0  0  0  0  0  0  0  0  0  0  0  0
  143.0461   80.7835  223.3896 H   0  0  0  0  0  0  0  0  0  0  0  0
  140.8804   81.1173  224.5535 H   0  0  0  0  0  0  0  0  0  0  0  0
  139.0010   79.5430  224.1246 H   0  0  0  0  0  0  0  0  0  0  0  0
  139.2821   77.6279  222.5313 H   0  0  0  0  0  0  0  0  0  0  0  0
  140.7895   75.7330  222.5502 H   0  0  0  0  0  0  0  0  0  0  0  0
  138.8703   76.7075  221.0134 H   0  0  0  0  0  0  0  0  0  0  0  0
  139.4355   75.6020  219.7518 H   0  0  0  0  0  0  0  0  0  0  0  0
  138.4063   74.9781  222.5355 H   0  0  0  0  0  0  0  0  0  0  0  0
  137.8209   74.3759  220.9179 H   0  0  0  0  0  0  0  0  0  0  0  0
  140.4036   70.8730  222.1358 H   0  0  0  0  0  0  0  0  0  0  0  0
  137.7240   70.2700  221.4260 H   0  0  0  0  0  0  0  0  0  0  0  0
  139.2050   69.5760  220.9660 H   0  0  0  0  0  0  0  0  0  0  0  0
  138.4073   71.2583  224.3044 H   0  0  0  0  0  0  0  0  0  0  0  0
  138.6617   68.7369  224.0848 H   0  0  0  0  0  0  0  0  0  0  0  0
  140.3341   68.8321  223.6716 H   0  0  0  0  0  0  0  0  0  0  0  0
  139.1572   67.5313  226.5150 H   0  0  0  0  0  0  0  0  0  0  0  0
  139.8239   68.0820  228.8497 H   0  0  0  0  0  0  0  0  0  0  0  0
  140.8919   70.2617  229.3631 H   0  0  0  0  0  0  0  0  0  0  0  0
  141.5457   72.4113  228.6598 H   0  0  0  0  0  0  0  0  0  0  0  0
  142.4781   72.2727  227.1308 H   0  0  0  0  0  0  0  0  0  0  0  0
  140.8654   73.0638  227.1308 H   0  0  0  0  0  0  0  0  0  0  0  0
  140.4401   72.4747  224.8303 H   0  0  0  0  0  0  0  0  0  0  0  0
  141.4997   71.2767  224.1626 H   0  0  0  0  0  0  0  0  0  0  0  0
  141.4654   72.9596  222.0889 H   0  0  0  0  0  0  0  0  0  0  0  0
  140.8806   72.7475  220.3411 H   0  0  0  0  0  0  0  0  0  0  0  0
  142.5834   74.6495  221.1751 H   0  0  0  0  0  0  0  0  0  0  0  0
  141.5038   74.7347  219.7401 H   0  0  0  0  0  0  0  0  0  0  0  0
  1  2  1  0
  2  3  1  0
  3  4  2  0
  3  5  1  0
  5  6  1  0
  6  7  2  0
  7  8  1  0
  8  9  2  0
  9 10  1  0
 10 11  2  0
  5 12  1  0
 12 13  1  0
 13 14  1  0
 14 15  1  0
 15 16  1  0
 16 17  2  0
 16 18  1  0
 18 19  1  0
 18 20  1  0
 20 21  1  0
 21 22  1  0
 22 23  2  0
 23 24  1  0
 24 25  2  0
 25 26  1  0
 26 27  1  0
 26 28  2  0
 28 29  1  0
 15 30  1  0
 30 31  1  0
 11  6  1  0
 31 12  1  0
 29 20  1  0
 28 22  1  0
  1 32  1  0
  1 33  1  0
  1 34  1  0
  2 35  1  0
  2 36  1  0
  7 37  1  0
  8 38  1  0
  9 39  1  0
 10 40  1  0
 11 41  1  0
 12 42  1  0
 13 43  1  0
 13 44  1  0
 14 45  1  0
 14 46  1  0
 18 47  1  6
 19 48  1  0
 19 49  1  0
 20 50  1  1
 21 51  1  0
 21 52  1  0
 23 53  1  0
 24 54  1  0
 25 55  1  0
 27 56  1  0
 27 57  1  0
 27 58  1  0
 29 59  1  0
 29 60  1  0
 30 61  1  0
 30 62  1  0
 31 63  1  0
 31 64  1  0
M  END
>  <smiles>  (52) 
CCC(=O)N(c1ccccc1)C1CCN(C(=O)[C@H](N)C2Cc3cccc(C)c3C2)CC1

>  <score_type>  (52) 
oracle

>  <origin>  (52) 
autodockgpu

>  <m_score__min__energy>  (52) 
-9.3900000000000006

>  <m_primary>  (52) 
energy

>  <rmsd>  (52) 
9.31120126516579

>  <m_score__min__rmsd>  (52) 
9.31120126516579

>  <meeko>  (52) 
{"free_energy": -8.76, "intermolecular_energy": -10.85, "internal_energy": -1.74, "cluster_size": 18, "cluster_id": 2, "rank_in_cluster": 1}

>  <energy>  (52) 
-9.38

>  <cluster_rmsd>  (52) 
0.31

>  <cluster>  (52) 
1

$$$$

     RDKit          3D

 64 67  0  0  0  0  0  0  0  0999 V2000
  142.5710   80.4320  223.2640 C   0  0  0  0  0  0  0  0  0  0  0  0
  141.1850   79.8150  223.1700 C   0  0  0  0  0  0  0  0  0  0  0  0
  141.3710   78.3540  223.0610 C   0  0  0  0  0  0  0  0  0  0  0  0
  141.9000   77.7790  224.0650 O   0  0  0  0  0  0  0  0  0  0  0  0
  140.9810   77.6110  221.8940 N   0  0  0  0  0  0  0  0  0  0  0  0
  141.1760   78.2740  220.6260 C   0  0  0  0  0  0  0  0  0  0  0  0
  140.4180   79.3500  220.2410 C   0  0  0  0  0  0  0  0  0  0  0  0
  140.6720   79.9300  219.0060 C   0  0  0  0  0  0  0  0  0  0  0  0
  141.6660   79.4430  218.1750 C   0  0  0  0  0  0  0  0  0  0  0  0
  142.4210   78.3530  218.5910 C   0  0  0  0  0  0  0  0  0  0  0  0
  142.1920   77.7430  219.8260 C   0  0  0  0  0  0  0  0  0  0  0  0
  140.4340   76.2910  221.9830 C   0  0  0  0  0  0  0  0  0  0  0  0
  139.0930   76.1880  221.2370 C   0  0  0  0  0  0  0  0  0  0  0  0
  138.4360   74.9560  221.7500 C   0  0  0  0  0  0  0  0  0  0  0  0
  139.3520   73.8180  221.8460 N   0  0  0  0  0  0  0  0  0  0  0  0
  138.7220   72.6070  222.2600 C   0  0  0  0  0  0  0  0  0  0  0  0
  137.4790   72.6950  222.5030 O   0  0  0  0  0  0  0  0  0  0  0  0
  139.3450   71.2950  222.4280 C   0  0  2  0  0  0  0  0  0  0  0  0
  138.7410   70.3200  221.6080 N   0  0  0  0  0  0  0  0  0  0  0  0
  139.3330   71.0120  223.9080 C   0  0  1  0  0  0  0  0  0  0  0  0
  139.5550   69.5280  224.1150 C   0  0  0  0  0  0  0  0  0  0  0  0
  139.8580   69.5390  225.5920 C   0  0  0  0  0  0  0  0  0  0  0  0
  139.6250   68.5430  226.5280 C   0  0  0  0  0  0  0  0  0  0  0  0
  139.9960   68.7750  227.8380 C   0  0  0  0  0  0  0  0  0  0  0  0
  140.5830   69.9720  228.2010 C   0  0  0  0  0  0  0  0  0  0  0  0
  140.8020   70.9560  227.2270 C   0  0  0  0  0  0  0  0  0  0  0  0
  141.4410   72.2590  227.5840 C   0  0  0  0  0  0  0  0  0  0  0  0
  140.4410   70.7470  225.9170 C   0  0  0  0  0  0  0  0  0  0  0  0
  140.5180   71.5620  224.6560 C   0  0  0  0  0  0  0  0  0  0  0  0
  140.7480   73.8990  221.5620 C   0  0  0  0  0  0  0  0  0  0  0  0
  141.3150   75.2580  221.3330 C   0  0  0  0  0  0  0  0  0  0  0  0
  142.8467   80.5547  224.3218 H   0  0  0  0  0  0  0  0  0  0  0  0
  143.2999   79.7734  222.7691 H   0  0  0  0  0  0  0  0  0  0  0  0
  142.5694   81.4144  222.7691 H   0  0  0  0  0  0  0  0  0  0  0  0
  140.6021   80.0557  224.0713 H   0  0  0  0  0  0  0  0  0  0  0  0
  140.6379   80.2077  222.3002 H   0  0  0  0  0  0  0  0  0  0  0  0
  139.6270   79.7443  220.8959 H   0  0  0  0  0  0  0  0  0  0  0  0
  140.0721   80.7930  218.6815 H   0  0  0  0  0  0  0  0  0  0  0  0
  141.8558   79.9124  217.1985 H   0  0  0  0  0  0  0  0  0  0  0  0
  143.2137   77.9635  217.9353 H   0  0  0  0  0  0  0  0  0  0  0  0
  142.7874   76.8790  220.1563 H   0  0  0  0  0  0  0  0  0  0  0  0
  140.3288   76.1050  223.0620 H   0  0  0  0  0  0  0  0  0  0  0  0
  138.4697   77.0698  221.4465 H   0  0  0  0  0  0  0  0  0  0  0  0
  139.2386   76.1449  220.1475 H   0  0  0  0  0  0  0  0  0  0  0  0
  138.0308   75.1654  222.7510 H   0  0  0  0  0  0  0  0  0  0  0  0
  137.6449   74.6829  221.0362 H   0  0  0  0  0  0  0  0  0  0  0  0
  140.3890   71.2732  222.0822 H   0  0  0  0  0  0  0  0  0  0  0  0
  137.7530   70.5010  221.3410 H   0  0  0  0  0  0  0  0  0  0  0  0
  139.2820   69.9990  220.7970 H   0  0  0  0  0  0  0  0  0  0  0  0
  138.3835   71.4421  224.2595 H   0  0  0  0  0  0  0  0  0  0  0  0
  138.6548   68.9399  223.8829 H   0  0  0  0  0  0  0  0  0  0  0  0
  140.3261   69.0714  223.4771 H   0  0  0  0  0  0  0  0  0  0  0  0
  139.1565   67.5920  226.2346 H   0  0  0  0  0  0  0  0  0  0  0  0
  139.8226   68.0000  228.5991 H   0  0  0  0  0  0  0  0  0  0  0  0
  140.8761   70.1513  229.2460 H   0  0  0  0  0  0  0  0  0  0  0  0
  141.4887   72.3563  228.6787 H   0  0  0  0  0  0  0  0  0  0  0  0
  142.4587   72.2944  227.1681 H   0  0  0  0  0  0  0  0  0  0  0  0
  140.8459   73.0854  227.1681 H   0  0  0  0  0  0  0  0  0  0  0  0
  140.4078   72.6375  224.8590 H   0  0  0  0  0  0  0  0  0  0  0  0
  141.4753   71.4903  224.1190 H   0  0  0  0  0  0  0  0  0  0  0  0
  141.2858   73.4542  222.4123 H   0  0  0  0  0  0  0  0  0  0  0  0
  140.8754   73.3718  220.6050 H   0  0  0  0  0  0  0  0  0  0  0  0
  142.3238   75.3115  221.7683 H   0  0  0  0  0  0  0  0  0  0  0  0
  141.3687   75.4531  220.2518 H   0  0  0  0  0  0  0  0  0  0  0  0
  1  2  1  0
  2  3  1  0
  3  4  2  0
  3  5  1  0
  5  6  1  0
  6  7  2  0
  7  8  1  0
  8  9  2  0
  9 10  1  0
 10 11  2  0
  5 12  1  0
 12 13  1  0
 13 14  1  0
 14 15  1  0
 15 16  1  0
 16 17  2  0
 16 18  1  0
 18 19  1  0
 18 20  1  0
 20 21  1  0
 21 22  1  0
 22 23  2  0
 23 24  1  0
 24 25  2  0
 25 26  1  0
 26 27  1  0
 26 28  2  0
 28 29  1  0
 15 30  1  0
 30 31  1  0
 11  6  1  0
 31 12  1  0
 29 20  1  0
 28 22  1  0
  1 32  1  0
  1 33  1  0
  1 34  1  0
  2 35  1  0
  2 36  1  0
  7 37  1  0
  8 38  1  0
  9 39  1  0
 10 40  1  0
 11 41  1  0
 12 42  1  0
 13 43  1  0
 13 44  1  0
 14 45  1  0
 14 46  1  0
 18 47  1  6
 19 48  1  0
 19 49  1  0
 20 50  1  1
 21 51  1  0
 21 52  1  0
 23 53  1  0
 24 54  1  0
 25 55  1  0
 27 56  1  0
 27 57  1  0
 27 58  1  0
 29 59  1  0
 29 60  1  0
 30 61  1  0
 30 62  1  0
 31 63  1  0
 31 64  1  0
M  END
>  <smiles>  (53) 
CCC(=O)N(c1ccccc1)C1CCN(C(=O)[C@H](N)C2Cc3cccc(C)c3C2)CC1

>  <score_type>  (53) 
oracle

>  <origin>  (53) 
autodockgpu

>  <m_score__min__energy>  (53) 
-9.3900000000000006

>  <m_primary>  (53) 
energy

>  <rmsd>  (53) 
9.224156112939967

>  <m_score__min__rmsd>  (53) 
9.224156112939967

>  <meeko>  (53) 
{"free_energy": -8.34, "intermolecular_energy": -10.43, "internal_energy": -1.73, "cluster_size": 18, "cluster_id": 2, "rank_in_cluster": 11}

>  <energy>  (53) 
-9.25

>  <cluster_rmsd>  (53) 
0.34

>  <cluster>  (53) 
1

$$$$

     RDKit          3D

 64 67  0  0  0  0  0  0  0  0999 V2000
  138.1150   80.9400  224.3450 C   0  0  0  0  0  0  0  0  0  0  0  0
  138.0950   80.5070  222.8880 C   0  0  0  0  0  0  0  0  0  0  0  0
  137.9990   79.0340  222.8790 C   0  0  0  0  0  0  0  0  0  0  0  0
  136.8390   78.5440  223.0640 O   0  0  0  0  0  0  0  0  0  0  0  0
  139.1430   78.1870  222.6730 N   0  0  0  0  0  0  0  0  0  0  0  0
  140.4230   78.8520  222.6250 C   0  0  0  0  0  0  0  0  0  0  0  0
  140.9720   79.2940  221.4490 C   0  0  0  0  0  0  0  0  0  0  0  0
  142.2070   79.9270  221.4920 C   0  0  0  0  0  0  0  0  0  0  0  0
  142.8770   80.1130  222.6880 C   0  0  0  0  0  0  0  0  0  0  0  0
  142.2970   79.6560  223.8660 C   0  0  0  0  0  0  0  0  0  0  0  0
  141.0580   79.0150  223.8600 C   0  0  0  0  0  0  0  0  0  0  0  0
  139.0200   76.7680  222.5280 C   0  0  0  0  0  0  0  0  0  0  0  0
  137.9160   76.4010  221.5220 C   0  0  0  0  0  0  0  0  0  0  0  0
  137.5930   74.9710  221.7770 C   0  0  0  0  0  0  0  0  0  0  0  0
  138.7860   74.1390  221.9480 N   0  0  0  0  0  0  0  0  0  0  0  0
  138.4980   72.7510  222.1130 C   0  0  0  0  0  0  0  0  0  0  0  0
  137.2660   72.4460  222.1090 O   0  0  0  0  0  0  0  0  0  0  0  0
  139.4570   71.6600  222.2810 C   0  0  2  0  0  0  0  0  0  0  0  0
  139.2270   70.6170  221.3610 N   0  0  0  0  0  0  0  0  0  0  0  0
  139.4070   71.2780  223.7380 C   0  0  1  0  0  0  0  0  0  0  0  0
  139.6120   69.7820  223.8490 C   0  0  0  0  0  0  0  0  0  0  0  0
  139.8790   69.6900  225.3300 C   0  0  0  0  0  0  0  0  0  0  0  0
  139.6170   68.6350  226.1910 C   0  0  0  0  0  0  0  0  0  0  0  0
  139.9580   68.7750  227.5220 C   0  0  0  0  0  0  0  0  0  0  0  0
  140.5450   69.9390  227.9790 C   0  0  0  0  0  0  0  0  0  0  0  0
  140.7960   70.9850  227.0790 C   0  0  0  0  0  0  0  0  0  0  0  0
  141.4360   72.2550  227.5370 C   0  0  0  0  0  0  0  0  0  0  0  0
  140.4640   70.8680  225.7490 C   0  0  0  0  0  0  0  0  0  0  0  0
  140.5780   71.7650  224.5480 C   0  0  0  0  0  0  0  0  0  0  0  0
  140.1170   74.6530  221.9590 C   0  0  0  0  0  0  0  0  0  0  0  0
  140.2690   76.1350  221.9750 C   0  0  0  0  0  0  0  0  0  0  0  0
  138.0740   80.0515  224.9922 H   0  0  0  0  0  0  0  0  0  0  0  0
  139.0400   81.4995  224.5486 H   0  0  0  0  0  0  0  0  0  0  0  0
  137.2456   81.5824  224.5486 H   0  0  0  0  0  0  0  0  0  0  0  0
  137.2264   80.9457  222.3750 H   0  0  0  0  0  0  0  0  0  0  0  0
  139.0013   80.8454  222.3645 H   0  0  0  0  0  0  0  0  0  0  0  0
  140.4462   79.1504  220.4935 H   0  0  0  0  0  0  0  0  0  0  0  0
  142.6614   80.2875  220.5573 H   0  0  0  0  0  0  0  0  0  0  0  0
  143.8553   80.6156  222.7067 H   0  0  0  0  0  0  0  0  0  0  0  0
  142.8246   79.8025  224.8200 H   0  0  0  0  0  0  0  0  0  0  0  0
  140.5983   78.6518  224.7910 H   0  0  0  0  0  0  0  0  0  0  0  0
  138.8021   76.4020  223.5422 H   0  0  0  0  0  0  0  0  0  0  0  0
  137.0272   77.0289  221.6829 H   0  0  0  0  0  0  0  0  0  0  0  0
  138.2440   76.5628  220.4846 H   0  0  0  0  0  0  0  0  0  0  0  0
  136.9857   74.9061  222.6919 H   0  0  0  0  0  0  0  0  0  0  0  0
  137.0504   74.5933  220.8978 H   0  0  0  0  0  0  0  0  0  0  0  0
  140.4878   71.9591  222.0400 H   0  0  0  0  0  0  0  0  0  0  0  0
  139.6410   69.6950  221.6060 H   0  0  0  0  0  0  0  0  0  0  0  0
  138.2660   70.5020  221.0220 H   0  0  0  0  0  0  0  0  0  0  0  0
  138.4529   71.6922  224.0960 H   0  0  0  0  0  0  0  0  0  0  0  0
  138.7131   69.2196  223.5562 H   0  0  0  0  0  0  0  0  0  0  0  0
  140.3948   69.3623  223.2001 H   0  0  0  0  0  0  0  0  0  0  0  0
  139.1493   67.7098  225.8231 H   0  0  0  0  0  0  0  0  0  0  0  0
  139.7603   67.9521  228.2247 H   0  0  0  0  0  0  0  0  0  0  0  0
  140.8135   70.0447  229.0405 H   0  0  0  0  0  0  0  0  0  0  0  0
  141.4500   72.2828  228.6366 H   0  0  0  0  0  0  0  0  0  0  0  0
  142.4667   72.3044  227.1558 H   0  0  0  0  0  0  0  0  0  0  0  0
  140.8625   73.1128  227.1558 H   0  0  0  0  0  0  0  0  0  0  0  0
  140.4719   72.8255  224.8203 H   0  0  0  0  0  0  0  0  0  0  0  0
  141.5473   71.7204  224.0298 H   0  0  0  0  0  0  0  0  0  0  0  0
  140.6179   74.2582  222.8552 H   0  0  0  0  0  0  0  0  0  0  0  0
  140.5558   74.3309  221.0031 H   0  0  0  0  0  0  0  0  0  0  0  0
  141.1274   76.4076  222.6066 H   0  0  0  0  0  0  0  0  0  0  0  0
  140.4358   76.4949  220.9490 H   0  0  0  0  0  0  0  0  0  0  0  0
  1  2  1  0
  2  3  1  0
  3  4  2  0
  3  5  1  0
  5  6  1  0
  6  7  2  0
  7  8  1  0
  8  9  2  0
  9 10  1  0
 10 11  2  0
  5 12  1  0
 12 13  1  0
 13 14  1  0
 14 15  1  0
 15 16  1  0
 16 17  2  0
 16 18  1  0
 18 19  1  0
 18 20  1  0
 20 21  1  0
 21 22  1  0
 22 23  2  0
 23 24  1  0
 24 25  2  0
 25 26  1  0
 26 27  1  0
 26 28  2  0
 28 29  1  0
 15 30  1  0
 30 31  1  0
 11  6  1  0
 31 12  1  0
 29 20  1  0
 28 22  1  0
  1 32  1  0
  1 33  1  0
  1 34  1  0
  2 35  1  0
  2 36  1  0
  7 37  1  0
  8 38  1  0
  9 39  1  0
 10 40  1  0
 11 41  1  0
 12 42  1  0
 13 43  1  0
 13 44  1  0
 14 45  1  0
 14 46  1  0
 18 47  1  6
 19 48  1  0
 19 49  1  0
 20 50  1  1
 21 51  1  0
 21 52  1  0
 23 53  1  0
 24 54  1  0
 25 55  1  0
 27 56  1  0
 27 57  1  0
 27 58  1  0
 29 59  1  0
 29 60  1  0
 30 61  1  0
 30 62  1  0
 31 63  1  0
 31 64  1  0
M  END
>  <smiles>  (54) 
CCC(=O)N(c1ccccc1)C1CCN(C(=O)[C@H](N)C2Cc3cccc(C)c3C2)CC1

>  <score_type>  (54) 
oracle

>  <origin>  (54) 
autodockgpu

>  <m_score__min__energy>  (54) 
-9.3900000000000006

>  <m_primary>  (54) 
energy

>  <rmsd>  (54) 
9.144647012172943

>  <m_score__min__rmsd>  (54) 
9.144647012172943

>  <meeko>  (54) 
{"free_energy": -8.44, "intermolecular_energy": -10.53, "internal_energy": -1.86, "cluster_size": 12, "cluster_id": 4, "rank_in_cluster": 2}

>  <energy>  (54) 
-9.23

>  <cluster_rmsd>  (54) 
0.12

>  <cluster>  (54) 
1

$$$$

     RDKit          3D

 64 67  0  0  0  0  0  0  0  0999 V2000
  138.0620   80.8280  224.5220 C   0  0  0  0  0  0  0  0  0  0  0  0
  138.1070   80.4940  223.0400 C   0  0  0  0  0  0  0  0  0  0  0  0
  138.0490   79.0230  222.9300 C   0  0  0  0  0  0  0  0  0  0  0  0
  136.9040   78.4910  223.0910 O   0  0  0  0  0  0  0  0  0  0  0  0
  139.2120   78.2230  222.6550 N   0  0  0  0  0  0  0  0  0  0  0  0
  140.4720   78.9270  222.6200 C   0  0  0  0  0  0  0  0  0  0  0  0
  140.9800   79.4540  221.4600 C   0  0  0  0  0  0  0  0  0  0  0  0
  142.1980   80.1190  221.5140 C   0  0  0  0  0  0  0  0  0  0  0  0
  142.8900   80.2540  222.7050 C   0  0  0  0  0  0  0  0  0  0  0  0
  142.3500   79.7120  223.8660 C   0  0  0  0  0  0  0  0  0  0  0  0
  141.1300   79.0360  223.8480 C   0  0  0  0  0  0  0  0  0  0  0  0
  139.1270   76.8110  222.4330 C   0  0  0  0  0  0  0  0  0  0  0  0
  138.2090   76.4850  221.2430 C   0  0  0  0  0  0  0  0  0  0  0  0
  137.8600   75.0450  221.3810 C   0  0  0  0  0  0  0  0  0  0  0  0
  139.0140   74.2080  221.7150 N   0  0  0  0  0  0  0  0  0  0  0  0
  138.7140   72.8140  221.7720 C   0  0  0  0  0  0  0  0  0  0  0  0
  137.5030   72.5080  221.5500 O   0  0  0  0  0  0  0  0  0  0  0  0
  139.6410   71.7190  222.0530 C   0  0  2  0  0  0  0  0  0  0  0  0
  139.4560   70.6380  221.1660 N   0  0  0  0  0  0  0  0  0  0  0  0
  139.4860   71.4030  223.5180 C   0  0  1  0  0  0  0  0  0  0  0  0
  139.5150   69.8990  223.6920 C   0  0  0  0  0  0  0  0  0  0  0  0
  139.7080   69.8380  225.1860 C   0  0  0  0  0  0  0  0  0  0  0  0
  139.2910   68.8540  226.0700 C   0  0  0  0  0  0  0  0  0  0  0  0
  139.5890   69.0090  227.4090 C   0  0  0  0  0  0  0  0  0  0  0  0
  140.2840   70.1180  227.8520 C   0  0  0  0  0  0  0  0  0  0  0  0
  140.6890   71.0920  226.9290 C   0  0  0  0  0  0  0  0  0  0  0  0
  141.4490   72.3000  227.3710 C   0  0  0  0  0  0  0  0  0  0  0  0
  140.4040   70.9590  225.5900 C   0  0  0  0  0  0  0  0  0  0  0  0
  140.6690   71.7890  224.3640 C   0  0  0  0  0  0  0  0  0  0  0  0
  140.3200   74.7230  221.9690 C   0  0  0  0  0  0  0  0  0  0  0  0
  140.4560   76.2030  222.0710 C   0  0  0  0  0  0  0  0  0  0  0  0
  138.1862   79.9064  225.1095 H   0  0  0  0  0  0  0  0  0  0  0  0
  138.8737   81.5296  224.7646 H   0  0  0  0  0  0  0  0  0  0  0  0
  137.0935   81.2898  224.7646 H   0  0  0  0  0  0  0  0  0  0  0  0
  137.2471   80.9461  222.5241 H   0  0  0  0  0  0  0  0  0  0  0  0
  139.0230   80.8878  222.5753 H   0  0  0  0  0  0  0  0  0  0  0  0
  140.4356   79.3523  220.5096 H   0  0  0  0  0  0  0  0  0  0  0  0
  142.6207   80.5465  220.5928 H   0  0  0  0  0  0  0  0  0  0  0  0
  143.8541   80.7829  222.7327 H   0  0  0  0  0  0  0  0  0  0  0  0
  142.8947   79.8182  224.8158 H   0  0  0  0  0  0  0  0  0  0  0  0
  140.7022   78.6052  224.7653 H   0  0  0  0  0  0  0  0  0  0  0  0
  138.7463   76.4025  223.3807 H   0  0  0  0  0  0  0  0  0  0  0  0
  137.3006   77.1042  221.2794 H   0  0  0  0  0  0  0  0  0  0  0  0
  138.7038   76.6908  220.2824 H   0  0  0  0  0  0  0  0  0  0  0  0
  137.1087   74.9408  222.1776 H   0  0  0  0  0  0  0  0  0  0  0  0
  137.4757   74.7040  220.4083 H   0  0  0  0  0  0  0  0  0  0  0  0
  140.6904   71.9935  221.8701 H   0  0  0  0  0  0  0  0  0  0  0  0
  139.8020   69.7150  221.4950 H   0  0  0  0  0  0  0  0  0  0  0  0
  138.5270   70.5440  220.7390 H   0  0  0  0  0  0  0  0  0  0  0  0
  138.5700   71.9344  223.8157 H   0  0  0  0  0  0  0  0  0  0  0  0
  138.5710   69.4293  223.3786 H   0  0  0  0  0  0  0  0  0  0  0  0
  140.2715   69.3683  223.0953 H   0  0  0  0  0  0  0  0  0  0  0  0
  138.7372   67.9730  225.7135 H   0  0  0  0  0  0  0  0  0  0  0  0
  139.2701   68.2422  228.1303 H   0  0  0  0  0  0  0  0  0  0  0  0
  140.5176   70.2356  228.9205 H   0  0  0  0  0  0  0  0  0  0  0  0
  141.4721   72.3368  228.4701 H   0  0  0  0  0  0  0  0  0  0  0  0
  142.4774   72.2480  226.9841 H   0  0  0  0  0  0  0  0  0  0  0  0
  140.9570   73.2046  226.9841 H   0  0  0  0  0  0  0  0  0  0  0  0
  140.6717   72.8648  224.5935 H   0  0  0  0  0  0  0  0  0  0  0  0
  141.6480   71.6160  223.8933 H   0  0  0  0  0  0  0  0  0  0  0  0
  140.6676   74.2917  222.9193 H   0  0  0  0  0  0  0  0  0  0  0  0
  140.9141   74.4419  221.0869 H   0  0  0  0  0  0  0  0  0  0  0  0
  141.1947   76.4496  222.8479 H   0  0  0  0  0  0  0  0  0  0  0  0
  140.7893   76.6057  221.1032 H   0  0  0  0  0  0  0  0  0  0  0  0
  1  2  1  0
  2  3  1  0
  3  4  2  0
  3  5  1  0
  5  6  1  0
  6  7  2  0
  7  8  1  0
  8  9  2  0
  9 10  1  0
 10 11  2  0
  5 12  1  0
 12 13  1  0
 13 14  1  0
 14 15  1  0
 15 16  1  0
 16 17  2  0
 16 18  1  0
 18 19  1  0
 18 20  1  0
 20 21  1  0
 21 22  1  0
 22 23  2  0
 23 24  1  0
 24 25  2  0
 25 26  1  0
 26 27  1  0
 26 28  2  0
 28 29  1  0
 15 30  1  0
 30 31  1  0
 11  6  1  0
 31 12  1  0
 29 20  1  0
 28 22  1  0
  1 32  1  0
  1 33  1  0
  1 34  1  0
  2 35  1  0
  2 36  1  0
  7 37  1  0
  8 38  1  0
  9 39  1  0
 10 40  1  0
 11 41  1  0
 12 42  1  0
 13 43  1  0
 13 44  1  0
 14 45  1  0
 14 46  1  0
 18 47  1  1
 19 48  1  0
 19 49  1  0
 20 50  1  1
 21 51  1  0
 21 52  1  0
 23 53  1  0
 24 54  1  0
 25 55  1  0
 27 56  1  0
 27 57  1  0
 27 58  1  0
 29 59  1  0
 29 60  1  0
 30 61  1  0
 30 62  1  0
 31 63  1  0
 31 64  1  0
M  END
>  <smiles>  (55) 
CCC(=O)N(c1ccccc1)C1CCN(C(=O)[C@H](N)C2Cc3cccc(C)c3C2)CC1

>  <score_type>  (55) 
oracle

>  <origin>  (55) 
autodockgpu

>  <m_score__min__energy>  (55) 
-9.3900000000000006

>  <m_primary>  (55) 
energy

>  <rmsd>  (55) 
8.93788171353628

>  <m_score__min__rmsd>  (55) 
8.93788171353628

>  <meeko>  (55) 
{"free_energy": -8.32, "intermolecular_energy": -10.41, "internal_energy": -2.01, "cluster_size": 12, "cluster_id": 4, "rank_in_cluster": 5}

>  <energy>  (55) 
-9.06

>  <cluster_rmsd>  (55) 
0.26

>  <cluster>  (55) 
1

$$$$

     RDKit          3D

 64 67  0  0  0  0  0  0  0  0999 V2000
  142.1420   79.2700  218.8730 C   0  0  0  0  0  0  0  0  0  0  0  0
  141.5030   77.8910  218.8940 C   0  0  0  0  0  0  0  0  0  0  0  0
  142.0280   77.1930  220.0840 C   0  0  0  0  0  0  0  0  0  0  0  0
  143.2280   76.7770  220.0080 O   0  0  0  0  0  0  0  0  0  0  0  0
  141.2390   76.9880  221.2690 N   0  0  0  0  0  0  0  0  0  0  0  0
  141.1320   78.1160  222.1620 C   0  0  0  0  0  0  0  0  0  0  0  0
  140.0370   78.3100  222.9650 C   0  0  0  0  0  0  0  0  0  0  0  0
  140.0160   79.4210  223.7970 C   0  0  0  0  0  0  0  0  0  0  0  0
  141.0700   80.3170  223.8260 C   0  0  0  0  0  0  0  0  0  0  0  0
  142.1690   80.0960  223.0040 C   0  0  0  0  0  0  0  0  0  0  0  0
  142.2240   78.9900  222.1530 C   0  0  0  0  0  0  0  0  0  0  0  0
  140.5950   75.7390  221.5450 C   0  0  0  0  0  0  0  0  0  0  0  0
  139.1640   75.7110  220.9840 C   0  0  0  0  0  0  0  0  0  0  0  0
  138.4740   74.5940  221.6850 C   0  0  0  0  0  0  0  0  0  0  0  0
  139.2920   73.3820  221.7690 N   0  0  0  0  0  0  0  0  0  0  0  0
  138.6180   72.2750  222.3660 C   0  0  0  0  0  0  0  0  0  0  0  0
  137.4310   72.5040  222.7530 O   0  0  0  0  0  0  0  0  0  0  0  0
  139.1410   70.9260  222.5740 C   0  0  2  0  0  0  0  0  0  0  0  0
  138.3980   69.9620  221.8600 N   0  0  0  0  0  0  0  0  0  0  0  0
  139.2150   70.7290  224.0660 C   0  0  1  0  0  0  0  0  0  0  0  0
  139.5080   69.2700  224.3440 C   0  0  0  0  0  0  0  0  0  0  0  0
  139.8840   69.3790  225.8000 C   0  0  0  0  0  0  0  0  0  0  0  0
  139.7400   68.4310  226.8020 C   0  0  0  0  0  0  0  0  0  0  0  0
  140.1660   68.7540  228.0750 C   0  0  0  0  0  0  0  0  0  0  0  0
  140.7210   69.9920  228.3390 C   0  0  0  0  0  0  0  0  0  0  0  0
  140.8500   70.9250  227.3010 C   0  0  0  0  0  0  0  0  0  0  0  0
  141.4510   72.2700  227.5490 C   0  0  0  0  0  0  0  0  0  0  0  0
  140.4320   70.6250  226.0250 C   0  0  0  0  0  0  0  0  0  0  0  0
  140.4120   71.3670  224.7170 C   0  0  0  0  0  0  0  0  0  0  0  0
  140.6400   73.3020  221.3070 C   0  0  0  0  0  0  0  0  0  0  0  0
  141.2880   74.5760  220.8870 C   0  0  0  0  0  0  0  0  0  0  0  0
  142.3022   79.6156  219.9049 H   0  0  0  0  0  0  0  0  0  0  0  0
  143.1080   79.2185  218.3494 H   0  0  0  0  0  0  0  0  0  0  0  0
  141.4782   79.9738  218.3494 H   0  0  0  0  0  0  0  0  0  0  0  0
  140.4088   77.9821  218.9610 H   0  0  0  0  0  0  0  0  0  0  0  0
  141.7385   77.3340  217.9751 H   0  0  0  0  0  0  0  0  0  0  0  0
  139.1954   77.6019  222.9500 H   0  0  0  0  0  0  0  0  0  0  0  0
  139.1445   79.5924  224.4459 H   0  0  0  0  0  0  0  0  0  0  0  0
  141.0387   81.1928  224.4909 H   0  0  0  0  0  0  0  0  0  0  0  0
  143.0101   80.8047  223.0242 H   0  0  0  0  0  0  0  0  0  0  0  0
  143.0922   78.8131  221.5011 H   0  0  0  0  0  0  0  0  0  0  0  0
  140.6179   75.6494  222.6411 H   0  0  0  0  0  0  0  0  0  0  0  0
  138.6541   76.6641  221.1880 H   0  0  0  0  0  0  0  0  0  0  0  0
  139.1600   75.5677  219.8934 H   0  0  0  0  0  0  0  0  0  0  0  0
  138.2248   74.9207  222.7054 H   0  0  0  0  0  0  0  0  0  0  0  0
  137.5740   74.3452  221.1035 H   0  0  0  0  0  0  0  0  0  0  0  0
  140.1517   70.7941  222.1603 H   0  0  0  0  0  0  0  0  0  0  0  0
  137.4240   70.2310  221.6140 H   0  0  0  0  0  0  0  0  0  0  0  0
  138.8640   69.5180  221.0610 H   0  0  0  0  0  0  0  0  0  0  0  0
  138.2674   71.1413  224.4429 H   0  0  0  0  0  0  0  0  0  0  0  0
  138.6224   68.6353  224.1930 H   0  0  0  0  0  0  0  0  0  0  0  0
  140.2642   68.8067  223.6932 H   0  0  0  0  0  0  0  0  0  0  0  0
  139.2977   67.4469  226.5880 H   0  0  0  0  0  0  0  0  0  0  0  0
  140.0627   68.0190  228.8869 H   0  0  0  0  0  0  0  0  0  0  0  0
  141.0587   70.2430  229.3554 H   0  0  0  0  0  0  0  0  0  0  0  0
  141.5283   72.4429  228.6326 H   0  0  0  0  0  0  0  0  0  0  0  0
  142.4536   72.3123  227.0985 H   0  0  0  0  0  0  0  0  0  0  0  0
  140.8136   73.0451  227.0985 H   0  0  0  0  0  0  0  0  0  0  0  0
  140.2680   72.4476  224.8640 H   0  0  0  0  0  0  0  0  0  0  0  0
  141.3432   71.3008  224.1351 H   0  0  0  0  0  0  0  0  0  0  0  0
  141.2447   72.8746  222.1205 H   0  0  0  0  0  0  0  0  0  0  0  0
  140.5930   72.6909  220.3936 H   0  0  0  0  0  0  0  0  0  0  0  0
  142.3463   74.5640  221.1866 H   0  0  0  0  0  0  0  0  0  0  0  0
  141.2144   74.6790  219.7943 H   0  0  0  0  0  0  0  0  0  0  0  0
  1  2  1  0
  2  3  1  0
  3  4  2  0
  3  5  1  0
  5  6  1  0
  6  7  2  0
  7  8  1  0
  8  9  2  0
  9 10  1  0
 10 11  2  0
  5 12  1  0
 12 13  1  0
 13 14  1  0
 14 15  1  0
 15 16  1  0
 16 17  2  0
 16 18  1  0
 18 19  1  0
 18 20  1  0
 20 21  1  0
 21 22  1  0
 22 23  2  0
 23 24  1  0
 24 25  2  0
 25 26  1  0
 26 27  1  0
 26 28  2  0
 28 29  1  0
 15 30  1  0
 30 31  1  0
 11  6  1  0
 31 12  1  0
 29 20  1  0
 28 22  1  0
  1 32  1  0
  1 33  1  0
  1 34  1  0
  2 35  1  0
  2 36  1  0
  7 37  1  0
  8 38  1  0
  9 39  1  0
 10 40  1  0
 11 41  1  0
 12 42  1  0
 13 43  1  0
 13 44  1  0
 14 45  1  0
 14 46  1  0
 18 47  1  6
 19 48  1  0
 19 49  1  0
 20 50  1  1
 21 51  1  0
 21 52  1  0
 23 53  1  0
 24 54  1  0
 25 55  1  0
 27 56  1  0
 27 57  1  0
 27 58  1  0
 29 59  1  0
 29 60  1  0
 30 61  1  0
 30 62  1  0
 31 63  1  0
 31 64  1  0
M  END
>  <smiles>  (56) 
CCC(=O)N(c1ccccc1)C1CCN(C(=O)[C@H](N)C2Cc3cccc(C)c3C2)CC1

>  <score_type>  (56) 
oracle

>  <origin>  (56) 
autodockgpu

>  <m_score__min__energy>  (56) 
-9.3900000000000006

>  <m_primary>  (56) 
energy

>  <rmsd>  (56) 
9.409799695438812

>  <m_score__min__rmsd>  (56) 
9.409799695438812

>  <meeko>  (56) 
{"free_energy": -8.66, "intermolecular_energy": -10.75, "internal_energy": -1.84, "cluster_size": 18, "cluster_id": 2, "rank_in_cluster": 3}

>  <energy>  (56) 
-8.97

>  <cluster_rmsd>  (56) 
0.97

>  <cluster>  (56) 
1

$$$$

     RDKit          3D

 64 67  0  0  0  0  0  0  0  0999 V2000
  138.0960   80.8990  224.5720 C   0  0  0  0  0  0  0  0  0  0  0  0
  138.1590   80.5960  223.0840 C   0  0  0  0  0  0  0  0  0  0  0  0
  138.0810   79.1280  222.9420 C   0  0  0  0  0  0  0  0  0  0  0  0
  136.9260   78.6110  223.0690 O   0  0  0  0  0  0  0  0  0  0  0  0
  139.2380   78.3170  222.6740 N   0  0  0  0  0  0  0  0  0  0  0  0
  140.5010   79.0120  222.6200 C   0  0  0  0  0  0  0  0  0  0  0  0
  140.9880   79.5510  221.4560 C   0  0  0  0  0  0  0  0  0  0  0  0
  142.2120   80.2060  221.4920 C   0  0  0  0  0  0  0  0  0  0  0  0
  142.9310   80.3200  222.6690 C   0  0  0  0  0  0  0  0  0  0  0  0
  142.4130   79.7660  223.8340 C   0  0  0  0  0  0  0  0  0  0  0  0
  141.1870   79.0990  223.8350 C   0  0  0  0  0  0  0  0  0  0  0  0
  139.1420   76.9020  222.4760 C   0  0  0  0  0  0  0  0  0  0  0  0
  138.1580   76.5590  221.3450 C   0  0  0  0  0  0  0  0  0  0  0  0
  137.8200   75.1210  221.5220 C   0  0  0  0  0  0  0  0  0  0  0  0
  138.9930   74.2900  221.7990 N   0  0  0  0  0  0  0  0  0  0  0  0
  138.6990   72.8960  221.8920 C   0  0  0  0  0  0  0  0  0  0  0  0
  137.4770   72.5860  221.7450 O   0  0  0  0  0  0  0  0  0  0  0  0
  139.6420   71.8050  222.1330 C   0  0  2  0  0  0  0  0  0  0  0  0
  139.4630   70.7480  221.2170 N   0  0  0  0  0  0  0  0  0  0  0  0
  139.5050   71.4460  223.5900 C   0  0  1  0  0  0  0  0  0  0  0  0
  139.5890   69.9400  223.7240 C   0  0  0  0  0  0  0  0  0  0  0  0
  139.7900   69.8470  225.2150 C   0  0  0  0  0  0  0  0  0  0  0  0
  139.4120   68.8260  226.0750 C   0  0  0  0  0  0  0  0  0  0  0  0
  139.7100   68.9560  227.4170 C   0  0  0  0  0  0  0  0  0  0  0  0
  140.3680   70.0770  227.8860 C   0  0  0  0  0  0  0  0  0  0  0  0
  140.7340   71.0890  226.9870 C   0  0  0  0  0  0  0  0  0  0  0  0
  141.4520   72.3110  227.4590 C   0  0  0  0  0  0  0  0  0  0  0  0
  140.4470   70.9810  225.6460 C   0  0  0  0  0  0  0  0  0  0  0  0
  140.6770   71.8510  224.4420 C   0  0  0  0  0  0  0  0  0  0  0  0
  140.3110   74.8090  221.9710 C   0  0  0  0  0  0  0  0  0  0  0  0
  140.4490   76.2910  222.0450 C   0  0  0  0  0  0  0  0  0  0  0  0
  138.2875   79.9780  225.1422 H   0  0  0  0  0  0  0  0  0  0  0  0
  138.8568   81.6520  224.8254 H   0  0  0  0  0  0  0  0  0  0  0  0
  137.0981   81.2863  224.8254 H   0  0  0  0  0  0  0  0  0  0  0  0
  137.3139   81.0718  222.5649 H   0  0  0  0  0  0  0  0  0  0  0  0
  139.0876   80.9858  222.6415 H   0  0  0  0  0  0  0  0  0  0  0  0
  140.4222   79.4663  220.5165 H   0  0  0  0  0  0  0  0  0  0  0  0
  142.6178   80.6425  220.5674 H   0  0  0  0  0  0  0  0  0  0  0  0
  143.8992   80.8419  222.6825 H   0  0  0  0  0  0  0  0  0  0  0  0
  142.9799   79.8550  224.7725 H   0  0  0  0  0  0  0  0  0  0  0  0
  140.7765   78.6590  224.7558 H   0  0  0  0  0  0  0  0  0  0  0  0
  138.8167   76.5061  223.4494 H   0  0  0  0  0  0  0  0  0  0  0  0
  137.2521   77.1778  221.4250 H   0  0  0  0  0  0  0  0  0  0  0  0
  138.5968   76.7522  220.3550 H   0  0  0  0  0  0  0  0  0  0  0  0
  137.1166   75.0266  222.3625 H   0  0  0  0  0  0  0  0  0  0  0  0
  137.3799   74.7667  220.5782 H   0  0  0  0  0  0  0  0  0  0  0  0
  140.6862   72.0974  221.9484 H   0  0  0  0  0  0  0  0  0  0  0  0
  138.5340   70.7020  220.7530 H   0  0  0  0  0  0  0  0  0  0  0  0
  140.2150   70.5930  220.5360 H   0  0  0  0  0  0  0  0  0  0  0  0
  138.5723   71.9370  223.9046 H   0  0  0  0  0  0  0  0  0  0  0  0
  138.6614   69.4448  223.4011 H   0  0  0  0  0  0  0  0  0  0  0  0
  140.3617   69.4528  223.1111 H   0  0  0  0  0  0  0  0  0  0  0  0
  138.8882   67.9355  225.6973 H   0  0  0  0  0  0  0  0  0  0  0  0
  139.4210   68.1600  228.1191 H   0  0  0  0  0  0  0  0  0  0  0  0
  140.6028   70.1747  228.9562 H   0  0  0  0  0  0  0  0  0  0  0  0
  141.4622   72.3284  228.5588 H   0  0  0  0  0  0  0  0  0  0  0  0
  142.4856   72.2972  227.0829 H   0  0  0  0  0  0  0  0  0  0  0  0
  140.9369   73.2072  227.0829 H   0  0  0  0  0  0  0  0  0  0  0  0
  140.6428   72.9198  224.6997 H   0  0  0  0  0  0  0  0  0  0  0  0
  141.6595   71.7248  223.9636 H   0  0  0  0  0  0  0  0  0  0  0  0
  140.7132   74.3910  222.9056 H   0  0  0  0  0  0  0  0  0  0  0  0
  140.8550   74.5160  221.0609 H   0  0  0  0  0  0  0  0  0  0  0  0
  141.2313   76.5494  222.7739 H   0  0  0  0  0  0  0  0  0  0  0  0
  140.7239   76.6810  221.0539 H   0  0  0  0  0  0  0  0  0  0  0  0
  1  2  1  0
  2  3  1  0
  3  4  2  0
  3  5  1  0
  5  6  1  0
  6  7  2  0
  7  8  1  0
  8  9  2  0
  9 10  1  0
 10 11  2  0
  5 12  1  0
 12 13  1  0
 13 14  1  0
 14 15  1  0
 15 16  1  0
 16 17  2  0
 16 18  1  0
 18 19  1  0
 18 20  1  0
 20 21  1  0
 21 22  1  0
 22 23  2  0
 23 24  1  0
 24 25  2  0
 25 26  1  0
 26 27  1  0
 26 28  2  0
 28 29  1  0
 15 30  1  0
 30 31  1  0
 11  6  1  0
 31 12  1  0
 29 20  1  0
 28 22  1  0
  1 32  1  0
  1 33  1  0
  1 34  1  0
  2 35  1  0
  2 36  1  0
  7 37  1  0
  8 38  1  0
  9 39  1  0
 10 40  1  0
 11 41  1  0
 12 42  1  0
 13 43  1  0
 13 44  1  0
 14 45  1  0
 14 46  1  0
 18 47  1  1
 19 48  1  0
 19 49  1  0
 20 50  1  1
 21 51  1  0
 21 52  1  0
 23 53  1  0
 24 54  1  0
 25 55  1  0
 27 56  1  0
 27 57  1  0
 27 58  1  0
 29 59  1  0
 29 60  1  0
 30 61  1  0
 30 62  1  0
 31 63  1  0
 31 64  1  0
M  END
>  <smiles>  (57) 
CCC(=O)N(c1ccccc1)C1CCN(C(=O)[C@H](N)C2Cc3cccc(C)c3C2)CC1

>  <score_type>  (57) 
oracle

>  <origin>  (57) 
autodockgpu

>  <m_score__min__energy>  (57) 
-9.3900000000000006

>  <m_primary>  (57) 
energy

>  <rmsd>  (57) 
8.951660748155145

>  <m_score__min__rmsd>  (57) 
8.951660748155145

>  <meeko>  (57) 
{"free_energy": -8.4, "intermolecular_energy": -10.49, "internal_energy": -2.01, "cluster_size": 12, "cluster_id": 4, "rank_in_cluster": 3}

>  <energy>  (57) 
-8.92

>  <cluster_rmsd>  (57) 
1.02

>  <cluster>  (57) 
1

$$$$

     RDKit          3D

 64 67  0  0  0  0  0  0  0  0999 V2000
  145.6600   74.0650  220.8370 C   0  0  0  0  0  0  0  0  0  0  0  0
  146.2220   72.6550  220.7510 C   0  0  0  0  0  0  0  0  0  0  0  0
  145.5540   71.9960  219.6110 C   0  0  0  0  0  0  0  0  0  0  0  0
  145.9310   72.3590  218.4510 O   0  0  0  0  0  0  0  0  0  0  0  0
  144.5330   70.9990  219.7860 N   0  0  0  0  0  0  0  0  0  0  0  0
  144.8520   69.6740  219.3110 C   0  0  0  0  0  0  0  0  0  0  0  0
  144.6660   68.5570  220.0840 C   0  0  0  0  0  0  0  0  0  0  0  0
  144.9960   67.3200  219.5490 C   0  0  0  0  0  0  0  0  0  0  0  0
  145.5010   67.2040  218.2660 C   0  0  0  0  0  0  0  0  0  0  0  0
  145.6780   68.3530  217.5030 C   0  0  0  0  0  0  0  0  0  0  0  0
  145.3580   69.6130  218.0090 C   0  0  0  0  0  0  0  0  0  0  0  0
  143.2750   71.3020  220.4000 C   0  0  0  0  0  0  0  0  0  0  0  0
  142.8290   72.7400  220.0860 C   0  0  0  0  0  0  0  0  0  0  0  0
  141.7840   73.0700  221.0920 C   0  0  0  0  0  0  0  0  0  0  0  0
  140.8160   71.9890  221.2850 N   0  0  0  0  0  0  0  0  0  0  0  0
  139.7600   72.3190  222.1870 C   0  0  0  0  0  0  0  0  0  0  0  0
  139.8240   73.4770  222.7010 O   0  0  0  0  0  0  0  0  0  0  0  0
  138.6280   71.4770  222.5730 C   0  0  2  0  0  0  0  0  0  0  0  0
  137.3980   72.1450  222.4000 N   0  0  0  0  0  0  0  0  0  0  0  0
  138.9240   70.9900  223.9670 C   0  0  1  0  0  0  0  0  0  0  0  0
  139.4030   69.5560  223.8840 C   0  0  0  0  0  0  0  0  0  0  0  0
  139.9600   69.4110  225.2770 C   0  0  0  0  0  0  0  0  0  0  0  0
  140.0530   68.2670  226.0550 C   0  0  0  0  0  0  0  0  0  0  0  0
  140.6120   68.3740  227.3130 C   0  0  0  0  0  0  0  0  0  0  0  0
  141.0660   69.5930  227.7800 C   0  0  0  0  0  0  0  0  0  0  0  0
  140.9550   70.7280  226.9650 C   0  0  0  0  0  0  0  0  0  0  0  0
  141.4410   72.0610  227.4350 C   0  0  0  0  0  0  0  0  0  0  0  0
  140.4010   70.6450  225.7090 C   0  0  0  0  0  0  0  0  0  0  0  0
  140.1260   71.6310  224.6070 C   0  0  0  0  0  0  0  0  0  0  0  0
  140.9090   70.7180  220.6440 C   0  0  0  0  0  0  0  0  0  0  0  0
  142.1590   70.4330  219.8850 C   0  0  0  0  0  0  0  0  0  0  0  0
  145.5462   74.3506  221.8932 H   0  0  0  0  0  0  0  0  0  0  0  0
  146.3479   74.7649  220.3400 H   0  0  0  0  0  0  0  0  0  0  0  0
  144.6793   74.0998  220.3400 H   0  0  0  0  0  0  0  0  0  0  0  0
  147.3086   72.6904  220.5838 H   0  0  0  0  0  0  0  0  0  0  0  0
  146.0435   72.1023  221.6852 H   0  0  0  0  0  0  0  0  0  0  0  0
  144.2644   68.6396  221.1047 H   0  0  0  0  0  0  0  0  0  0  0  0
  144.8534   66.4141  220.1565 H   0  0  0  0  0  0  0  0  0  0  0  0
  145.7589   66.2167  217.8553 H   0  0  0  0  0  0  0  0  0  0  0  0
  146.0776   68.2668  216.4818 H   0  0  0  0  0  0  0  0  0  0  0  0
  145.4983   70.5230  217.4072 H   0  0  0  0  0  0  0  0  0  0  0  0
  143.4437   71.1409  221.4750 H   0  0  0  0  0  0  0  0  0  0  0  0
  143.6789   73.4326  220.1754 H   0  0  0  0  0  0  0  0  0  0  0  0
  142.4445   72.8292  219.0592 H   0  0  0  0  0  0  0  0  0  0  0  0
  142.2759   73.2763  222.0540 H   0  0  0  0  0  0  0  0  0  0  0  0
  141.2313   73.9446  220.7183 H   0  0  0  0  0  0  0  0  0  0  0  0
  138.5091   70.5990  221.9210 H   0  0  0  0  0  0  0  0  0  0  0  0
  137.3010   73.0540  222.8950 H   0  0  0  0  0  0  0  0  0  0  0  0
  137.0410   72.2160  221.4410 H   0  0  0  0  0  0  0  0  0  0  0  0
  137.9982   71.1894  224.5266 H   0  0  0  0  0  0  0  0  0  0  0  0
  138.5761   68.8554  223.6957 H   0  0  0  0  0  0  0  0  0  0  0  0
  140.1084   69.3399  223.0681 H   0  0  0  0  0  0  0  0  0  0  0  0
  139.6906   67.2987  225.6795 H   0  0  0  0  0  0  0  0  0  0  0  0
  140.6968   67.4808  227.9494 H   0  0  0  0  0  0  0  0  0  0  0  0
  141.5108   69.6719  228.7830 H   0  0  0  0  0  0  0  0  0  0  0  0
  141.4485   72.0816  228.5348 H   0  0  0  0  0  0  0  0  0  0  0  0
  142.4599   72.2336  227.0581 H   0  0  0  0  0  0  0  0  0  0  0  0
  140.7723   72.8488  227.0581 H   0  0  0  0  0  0  0  0  0  0  0  0
  139.8918   72.6299  225.0036 H   0  0  0  0  0  0  0  0  0  0  0  0
  140.9713   71.8078  223.9256 H   0  0  0  0  0  0  0  0  0  0  0  0
  140.8096   69.9462  221.4215 H   0  0  0  0  0  0  0  0  0  0  0  0
  140.1100   70.7203  219.8879 H   0  0  0  0  0  0  0  0  0  0  0  0
  142.4310   69.3748  220.0126 H   0  0  0  0  0  0  0  0  0  0  0  0
  141.9940   70.6461  218.8185 H   0  0  0  0  0  0  0  0  0  0  0  0
  1  2  1  0
  2  3  1  0
  3  4  2  0
  3  5  1  0
  5  6  1  0
  6  7  2  0
  7  8  1  0
  8  9  2  0
  9 10  1  0
 10 11  2  0
  5 12  1  0
 12 13  1  0
 13 14  1  0
 14 15  1  0
 15 16  1  0
 16 17  2  0
 16 18  1  0
 18 19  1  0
 18 20  1  0
 20 21  1  0
 21 22  1  0
 22 23  2  0
 23 24  1  0
 24 25  2  0
 25 26  1  0
 26 27  1  0
 26 28  2  0
 28 29  1  0
 15 30  1  0
 30 31  1  0
 11  6  1  0
 31 12  1  0
 29 20  1  0
 28 22  1  0
  1 32  1  0
  1 33  1  0
  1 34  1  0
  2 35  1  0
  2 36  1  0
  7 37  1  0
  8 38  1  0
  9 39  1  0
 10 40  1  0
 11 41  1  0
 12 42  1  0
 13 43  1  0
 13 44  1  0
 14 45  1  0
 14 46  1  0
 18 47  1  6
 19 48  1  0
 19 49  1  0
 20 50  1  1
 21 51  1  0
 21 52  1  0
 23 53  1  0
 24 54  1  0
 25 55  1  0
 27 56  1  0
 27 57  1  0
 27 58  1  0
 29 59  1  0
 29 60  1  0
 30 61  1  0
 30 62  1  0
 31 63  1  0
 31 64  1  0
M  END
>  <smiles>  (58) 
CCC(=O)N(c1ccccc1)C1CCN(C(=O)[C@H](N)C2Cc3cccc(C)c3C2)CC1

>  <score_type>  (58) 
oracle

>  <origin>  (58) 
autodockgpu

>  <m_score__min__energy>  (58) 
-9.3900000000000006

>  <m_primary>  (58) 
energy

>  <rmsd>  (58) 
9.854498263893527

>  <m_score__min__rmsd>  (58) 
9.854498263893527

>  <meeko>  (58) 
{"free_energy": -9.39, "intermolecular_energy": -11.47, "internal_energy": -1.76, "cluster_size": 16, "cluster_id": 1, "rank_in_cluster": 1}

>  <energy>  (58) 
-8.88

>  <cluster_rmsd>  (58) 
0.43

>  <cluster>  (58) 
1

$$$$

     RDKit          3D

 64 67  0  0  0  0  0  0  0  0999 V2000
  142.6080   77.5660  217.8410 C   0  0  0  0  0  0  0  0  0  0  0  0
  141.8180   77.9620  219.0780 C   0  0  0  0  0  0  0  0  0  0  0  0
  142.2090   77.0280  220.1530 C   0  0  0  0  0  0  0  0  0  0  0  0
  143.3340   76.4490  220.0150 O   0  0  0  0  0  0  0  0  0  0  0  0
  141.3760   76.7780  221.2980 N   0  0  0  0  0  0  0  0  0  0  0  0
  141.1380   77.9050  222.1680 C   0  0  0  0  0  0  0  0  0  0  0  0
  142.1220   78.8080  222.4770 C   0  0  0  0  0  0  0  0  0  0  0  0
  141.8080   79.8660  223.3190 C   0  0  0  0  0  0  0  0  0  0  0  0
  140.5350   80.0160  223.8400 C   0  0  0  0  0  0  0  0  0  0  0  0
  139.5550   79.0860  223.5090 C   0  0  0  0  0  0  0  0  0  0  0  0
  139.8360   78.0100  222.6660 C   0  0  0  0  0  0  0  0  0  0  0  0
  140.8130   75.4870  221.5590 C   0  0  0  0  0  0  0  0  0  0  0  0
  139.3450   75.4140  221.1060 C   0  0  0  0  0  0  0  0  0  0  0  0
  138.7640   74.2330  221.8000 C   0  0  0  0  0  0  0  0  0  0  0  0
  139.6400   73.0610  221.7610 N   0  0  0  0  0  0  0  0  0  0  0  0
  139.0660   71.8950  222.3520 C   0  0  0  0  0  0  0  0  0  0  0  0
  137.9030   72.0470  222.8370 O   0  0  0  0  0  0  0  0  0  0  0  0
  139.6640   70.5650  222.4520 C   0  0  2  0  0  0  0  0  0  0  0  0
  138.7290   69.5490  222.1690 N   0  0  0  0  0  0  0  0  0  0  0  0
  140.3180   70.5010  223.8080 C   0  0  1  0  0  0  0  0  0  0  0  0
  140.2190   71.8660  224.4550 C   0  0  0  0  0  0  0  0  0  0  0  0
  140.5860   71.4850  225.8670 C   0  0  0  0  0  0  0  0  0  0  0  0
  141.2080   72.2580  226.8360 C   0  0  0  0  0  0  0  0  0  0  0  0
  141.4390   71.6940  228.0750 C   0  0  0  0  0  0  0  0  0  0  0  0
  141.0580   70.3920  228.3370 C   0  0  0  0  0  0  0  0  0  0  0  0
  140.4320   69.6410  227.3330 C   0  0  0  0  0  0  0  0  0  0  0  0
  140.0000   68.2320  227.5840 C   0  0  0  0  0  0  0  0  0  0  0  0
  140.1910   70.1820  226.0910 C   0  0  0  0  0  0  0  0  0  0  0  0
  139.5700   69.6750  224.8200 C   0  0  0  0  0  0  0  0  0  0  0  0
  140.9510   73.0680  221.1970 C   0  0  0  0  0  0  0  0  0  0  0  0
  141.5050   74.3910  220.7940 C   0  0  0  0  0  0  0  0  0  0  0  0
  143.5529   77.0923  218.1455 H   0  0  0  0  0  0  0  0  0  0  0  0
  142.0189   76.8566  217.2412 H   0  0  0  0  0  0  0  0  0  0  0  0
  142.8238   78.4625  217.2412 H   0  0  0  0  0  0  0  0  0  0  0  0
  142.0608   78.9951  219.3674 H   0  0  0  0  0  0  0  0  0  0  0  0
  140.7358   77.9122  218.8871 H   0  0  0  0  0  0  0  0  0  0  0  0
  143.1368   78.6968  222.0673 H   0  0  0  0  0  0  0  0  0  0  0  0
  142.5863   80.5993  223.5770 H   0  0  0  0  0  0  0  0  0  0  0  0
  140.3012   80.8591  224.5067 H   0  0  0  0  0  0  0  0  0  0  0  0
  138.5407   79.2007  223.9189 H   0  0  0  0  0  0  0  0  0  0  0  0
  139.0628   77.2729  222.4035 H   0  0  0  0  0  0  0  0  0  0  0  0
  140.9250   75.3486  222.6445 H   0  0  0  0  0  0  0  0  0  0  0  0
  138.8090   76.3300  221.3952 H   0  0  0  0  0  0  0  0  0  0  0  0
  139.2631   75.3217  220.0130 H   0  0  0  0  0  0  0  0  0  0  0  0
  138.5805   74.4991  222.8514 H   0  0  0  0  0  0  0  0  0  0  0  0
  137.8339   73.9672  221.2764 H   0  0  0  0  0  0  0  0  0  0  0  0
  140.4363   70.3877  221.6891 H   0  0  0  0  0  0  0  0  0  0  0  0
  138.9160   68.6240  222.6050 H   0  0  0  0  0  0  0  0  0  0  0  0
  137.7360   69.7950  222.2580 H   0  0  0  0  0  0  0  0  0  0  0  0
  141.3231   70.1021  223.6064 H   0  0  0  0  0  0  0  0  0  0  0  0
  140.9340   72.5807  224.0216 H   0  0  0  0  0  0  0  0  0  0  0  0
  139.2510   72.3754  224.3389 H   0  0  0  0  0  0  0  0  0  0  0  0
  141.5097   73.2942  226.6229 H   0  0  0  0  0  0  0  0  0  0  0  0
  141.9308   72.2866  228.8605 H   0  0  0  0  0  0  0  0  0  0  0  0
  141.2446   69.9483  229.3261 H   0  0  0  0  0  0  0  0  0  0  0  0
  139.9451   68.0529  228.6679 H   0  0  0  0  0  0  0  0  0  0  0  0
  139.0098   68.0665  227.1344 H   0  0  0  0  0  0  0  0  0  0  0  0
  140.7272   67.5399  227.1344 H   0  0  0  0  0  0  0  0  0  0  0  0
  139.7498   68.5989  224.6801 H   0  0  0  0  0  0  0  0  0  0  0  0
  138.4751   69.7690  224.7728 H   0  0  0  0  0  0  0  0  0  0  0  0
  141.6351   72.6341  221.9412 H   0  0  0  0  0  0  0  0  0  0  0  0
  140.8632   72.4970  220.2609 H   0  0  0  0  0  0  0  0  0  0  0  0
  142.5828   74.4175  221.0122 H   0  0  0  0  0  0  0  0  0  0  0  0
  141.3416   74.5406  219.7166 H   0  0  0  0  0  0  0  0  0  0  0  0
  1  2  1  0
  2  3  1  0
  3  4  2  0
  3  5  1  0
  5  6  1  0
  6  7  2  0
  7  8  1  0
  8  9  2  0
  9 10  1  0
 10 11  2  0
  5 12  1  0
 12 13  1  0
 13 14  1  0
 14 15  1  0
 15 16  1  0
 16 17  2  0
 16 18  1  0
 18 19  1  0
 18 20  1  0
 20 21  1  0
 21 22  1  0
 22 23  2  0
 23 24  1  0
 24 25  2  0
 25 26  1  0
 26 27  1  0
 26 28  2  0
 28 29  1  0
 15 30  1  0
 30 31  1  0
 11  6  1  0
 31 12  1  0
 29 20  1  0
 28 22  1  0
  1 32  1  0
  1 33  1  0
  1 34  1  0
  2 35  1  0
  2 36  1  0
  7 37  1  0
  8 38  1  0
  9 39  1  0
 10 40  1  0
 11 41  1  0
 12 42  1  0
 13 43  1  0
 13 44  1  0
 14 45  1  0
 14 46  1  0
 18 47  1  6
 19 48  1  0
 19 49  1  0
 20 50  1  6
 21 51  1  0
 21 52  1  0
 23 53  1  0
 24 54  1  0
 25 55  1  0
 27 56  1  0
 27 57  1  0
 27 58  1  0
 29 59  1  0
 29 60  1  0
 30 61  1  0
 30 62  1  0
 31 63  1  0
 31 64  1  0
M  END
>  <smiles>  (59) 
CCC(=O)N(c1ccccc1)C1CCN(C(=O)[C@H](N)C2Cc3cccc(C)c3C2)CC1

>  <score_type>  (59) 
oracle

>  <origin>  (59) 
autodockgpu

>  <m_score__min__energy>  (59) 
-9.3900000000000006

>  <m_primary>  (59) 
energy

>  <rmsd>  (59) 
8.155652990949202

>  <m_score__min__rmsd>  (59) 
8.155652990949202

>  <meeko>  (59) 
{"free_energy": -8.37, "intermolecular_energy": -10.45, "internal_energy": -1.99, "cluster_size": 18, "cluster_id": 2, "rank_in_cluster": 10}

>  <energy>  (59) 
-8.83

>  <cluster_rmsd>  (59) 
0.98

>  <cluster>  (59) 
1

$$$$

     RDKit          3D

 64 67  0  0  0  0  0  0  0  0999 V2000
  138.2400   81.4370  223.0830 C   0  0  0  0  0  0  0  0  0  0  0  0
  138.0540   80.1390  223.8520 C   0  0  0  0  0  0  0  0  0  0  0  0
  138.0990   79.0440  222.8620 C   0  0  0  0  0  0  0  0  0  0  0  0
  137.0310   78.8380  222.2010 O   0  0  0  0  0  0  0  0  0  0  0  0
  139.2760   78.2470  222.6460 N   0  0  0  0  0  0  0  0  0  0  0  0
  140.5370   78.9460  222.7180 C   0  0  0  0  0  0  0  0  0  0  0  0
  141.2510   79.0440  223.8840 C   0  0  0  0  0  0  0  0  0  0  0  0
  142.4560   79.7330  223.8660 C   0  0  0  0  0  0  0  0  0  0  0  0
  142.9360   80.3100  222.7030 C   0  0  0  0  0  0  0  0  0  0  0  0
  142.1920   80.1940  221.5340 C   0  0  0  0  0  0  0  0  0  0  0  0
  140.9760   79.5100  221.5160 C   0  0  0  0  0  0  0  0  0  0  0  0
  139.2030   76.8420  222.3790 C   0  0  0  0  0  0  0  0  0  0  0  0
  138.3900   76.5550  221.1060 C   0  0  0  0  0  0  0  0  0  0  0  0
  138.0230   75.1140  221.1750 C   0  0  0  0  0  0  0  0  0  0  0  0
  139.1390   74.2600  221.5840 N   0  0  0  0  0  0  0  0  0  0  0  0
  138.8280   72.8670  221.5770 C   0  0  0  0  0  0  0  0  0  0  0  0
  137.6390   72.5760  221.2430 O   0  0  0  0  0  0  0  0  0  0  0  0
  139.7220   71.7580  221.9060 C   0  0  2  0  0  0  0  0  0  0  0  0
  139.5380   70.6640  221.0360 N   0  0  0  0  0  0  0  0  0  0  0  0
  139.5180   71.4760  223.3720 C   0  0  1  0  0  0  0  0  0  0  0  0
  139.4560   69.9760  223.5690 C   0  0  0  0  0  0  0  0  0  0  0  0
  139.6140   69.9280  225.0680 C   0  0  0  0  0  0  0  0  0  0  0  0
  139.1220   68.9850  225.9580 C   0  0  0  0  0  0  0  0  0  0  0  0
  139.4000   69.1450  227.3010 C   0  0  0  0  0  0  0  0  0  0  0  0
  140.1500   70.2180  227.7420 C   0  0  0  0  0  0  0  0  0  0  0  0
  140.6300   71.1520  226.8130 C   0  0  0  0  0  0  0  0  0  0  0  0
  141.4500   72.3210  227.2530 C   0  0  0  0  0  0  0  0  0  0  0  0
  140.3650   71.0140  225.4700 C   0  0  0  0  0  0  0  0  0  0  0  0
  140.7040   71.8060  224.2380 C   0  0  0  0  0  0  0  0  0  0  0  0
  140.4220   74.7580  221.9630 C   0  0  0  0  0  0  0  0  0  0  0  0
  140.5550   76.2340  222.1160 C   0  0  0  0  0  0  0  0  0  0  0  0
  138.3593   82.2694  223.7921 H   0  0  0  0  0  0  0  0  0  0  0  0
  139.1367   81.3630  222.4502 H   0  0  0  0  0  0  0  0  0  0  0  0
  137.3586   81.6178  222.4502 H   0  0  0  0  0  0  0  0  0  0  0  0
  138.8618   80.0165  224.5886 H   0  0  0  0  0  0  0  0  0  0  0  0
  137.0988   80.1378  224.3975 H   0  0  0  0  0  0  0  0  0  0  0  0
  140.8778   78.5872  224.8125 H   0  0  0  0  0  0  0  0  0  0  0  0
  143.0405   79.8221  224.7936 H   0  0  0  0  0  0  0  0  0  0  0  0
  143.8928   80.8528  222.7035 H   0  0  0  0  0  0  0  0  0  0  0  0
  142.5690   80.6498  220.6065 H   0  0  0  0  0  0  0  0  0  0  0  0
  140.3857   79.4180  220.5924 H   0  0  0  0  0  0  0  0  0  0  0  0
  138.7397   76.4113  223.2789 H   0  0  0  0  0  0  0  0  0  0  0  0
  137.4851   77.1799  221.0805 H   0  0  0  0  0  0  0  0  0  0  0  0
  138.9668   76.7827  220.1975 H   0  0  0  0  0  0  0  0  0  0  0  0
  137.2054   74.9946  221.9012 H   0  0  0  0  0  0  0  0  0  0  0  0
  137.7221   74.8017  220.1641 H   0  0  0  0  0  0  0  0  0  0  0  0
  140.7821   72.0052  221.7480 H   0  0  0  0  0  0  0  0  0  0  0  0
  139.8440   69.7390  221.3980 H   0  0  0  0  0  0  0  0  0  0  0  0
  138.6240   70.5870  220.5760 H   0  0  0  0  0  0  0  0  0  0  0  0
  138.6288   72.0648  223.6415 H   0  0  0  0  0  0  0  0  0  0  0  0
  138.4931   69.5566  223.2422 H   0  0  0  0  0  0  0  0  0  0  0  0
  140.1927   69.3929  222.9968 H   0  0  0  0  0  0  0  0  0  0  0  0
  138.5256   68.1315  225.6031 H   0  0  0  0  0  0  0  0  0  0  0  0
  139.0205   68.4108  228.0269 H   0  0  0  0  0  0  0  0  0  0  0  0
  140.3688   70.3387  228.8132 H   0  0  0  0  0  0  0  0  0  0  0  0
  141.4758   72.3578  228.3521 H   0  0  0  0  0  0  0  0  0  0  0  0
  142.4742   72.2171  226.8654 H   0  0  0  0  0  0  0  0  0  0  0  0
  141.0036   73.2486  226.8654 H   0  0  0  0  0  0  0  0  0  0  0  0
  140.7654   72.8835  224.4508 H   0  0  0  0  0  0  0  0  0  0  0  0
  141.6808   71.5679  223.7916 H   0  0  0  0  0  0  0  0  0  0  0  0
  140.6847   74.2991  222.9276 H   0  0  0  0  0  0  0  0  0  0  0  0
  141.0889   74.4955  221.1285 H   0  0  0  0  0  0  0  0  0  0  0  0
  141.2254   76.4550  222.9596 H   0  0  0  0  0  0  0  0  0  0  0  0
  140.9715   76.6595  221.1911 H   0  0  0  0  0  0  0  0  0  0  0  0
  1  2  1  0
  2  3  1  0
  3  4  2  0
  3  5  1  0
  5  6  1  0
  6  7  2  0
  7  8  1  0
  8  9  2  0
  9 10  1  0
 10 11  2  0
  5 12  1  0
 12 13  1  0
 13 14  1  0
 14 15  1  0
 15 16  1  0
 16 17  2  0
 16 18  1  0
 18 19  1  0
 18 20  1  0
 20 21  1  0
 21 22  1  0
 22 23  2  0
 23 24  1  0
 24 25  2  0
 25 26  1  0
 26 27  1  0
 26 28  2  0
 28 29  1  0
 15 30  1  0
 30 31  1  0
 11  6  1  0
 31 12  1  0
 29 20  1  0
 28 22  1  0
  1 32  1  0
  1 33  1  0
  1 34  1  0
  2 35  1  0
  2 36  1  0
  7 37  1  0
  8 38  1  0
  9 39  1  0
 10 40  1  0
 11 41  1  0
 12 42  1  0
 13 43  1  0
 13 44  1  0
 14 45  1  0
 14 46  1  0
 18 47  1  1
 19 48  1  0
 19 49  1  0
 20 50  1  1
 21 51  1  0
 21 52  1  0
 23 53  1  0
 24 54  1  0
 25 55  1  0
 27 56  1  0
 27 57  1  0
 27 58  1  0
 29 59  1  0
 29 60  1  0
 30 61  1  0
 30 62  1  0
 31 63  1  0
 31 64  1  0
M  END
>  <smiles>  (60) 
CCC(=O)N(c1ccccc1)C1CCN(C(=O)[C@H](N)C2Cc3cccc(C)c3C2)CC1

>  <score_type>  (60) 
oracle

>  <origin>  (60) 
autodockgpu

>  <m_score__min__energy>  (60) 
-9.3900000000000006

>  <m_primary>  (60) 
energy

>  <rmsd>  (60) 
8.816373839998302

>  <m_score__min__rmsd>  (60) 
8.816373839998302

>  <meeko>  (60) 
{"free_energy": -7.99, "intermolecular_energy": -10.08, "internal_energy": -2.04, "cluster_size": 12, "cluster_id": 4, "rank_in_cluster": 12}

>  <energy>  (60) 
-8.75

>  <cluster_rmsd>  (60) 
0.87

>  <cluster>  (60) 
1

$$$$

     RDKit          3D

 64 67  0  0  0  0  0  0  0  0999 V2000
  145.5100   72.7180  216.8830 C   0  0  0  0  0  0  0  0  0  0  0  0
  145.1260   71.2870  217.2200 C   0  0  0  0  0  0  0  0  0  0  0  0
  145.1190   71.1800  218.6930 C   0  0  0  0  0  0  0  0  0  0  0  0
  145.9500   71.9170  219.3140 O   0  0  0  0  0  0  0  0  0  0  0  0
  144.2290   70.2970  219.3980 N   0  0  0  0  0  0  0  0  0  0  0  0
  144.5640   68.8940  219.3570 C   0  0  0  0  0  0  0  0  0  0  0  0
  143.6030   67.9160  219.3270 C   0  0  0  0  0  0  0  0  0  0  0  0
  144.0110   66.5900  219.2860 C   0  0  0  0  0  0  0  0  0  0  0  0
  145.3530   66.2510  219.2740 C   0  0  0  0  0  0  0  0  0  0  0  0
  146.3060   67.2630  219.3030 C   0  0  0  0  0  0  0  0  0  0  0  0
  145.9320   68.6070  219.3460 C   0  0  0  0  0  0  0  0  0  0  0  0
  143.0810   70.7830  220.1030 C   0  0  0  0  0  0  0  0  0  0  0  0
  142.8900   72.2930  219.8900 C   0  0  0  0  0  0  0  0  0  0  0  0
  141.9750   72.7440  220.9740 C   0  0  0  0  0  0  0  0  0  0  0  0
  140.8370   71.8440  221.1710 N   0  0  0  0  0  0  0  0  0  0  0  0
  139.9070   72.3020  222.1510 C   0  0  0  0  0  0  0  0  0  0  0  0
  140.2080   73.3970  222.7190 O   0  0  0  0  0  0  0  0  0  0  0  0
  138.6620   71.6550  222.5630 C   0  0  2  0  0  0  0  0  0  0  0  0
  137.5650   72.5390  222.4890 N   0  0  0  0  0  0  0  0  0  0  0  0
  138.9310   71.0490  223.9160 C   0  0  1  0  0  0  0  0  0  0  0  0
  139.4070   69.6250  223.7180 C   0  0  0  0  0  0  0  0  0  0  0  0
  139.9390   69.3600  225.1040 C   0  0  0  0  0  0  0  0  0  0  0  0
  140.0150   68.1530  225.7830 C   0  0  0  0  0  0  0  0  0  0  0  0
  140.5510   68.1500  227.0550 C   0  0  0  0  0  0  0  0  0  0  0  0
  140.9990   69.3230  227.6330 C   0  0  0  0  0  0  0  0  0  0  0  0
  140.9060   70.5240  226.9160 C   0  0  0  0  0  0  0  0  0  0  0  0
  141.3870   71.8090  227.5070 C   0  0  0  0  0  0  0  0  0  0  0  0
  140.3750   70.5510  225.6480 C   0  0  0  0  0  0  0  0  0  0  0  0
  140.1230   71.6280  224.6300 C   0  0  0  0  0  0  0  0  0  0  0  0
  140.6640   70.6180  220.4620 C   0  0  0  0  0  0  0  0  0  0  0  0
  141.8000   70.1610  219.6140 C   0  0  0  0  0  0  0  0  0  0  0  0
  145.6623   73.2855  217.8129 H   0  0  0  0  0  0  0  0  0  0  0  0
  146.4403   72.7195  216.2960 H   0  0  0  0  0  0  0  0  0  0  0  0
  144.7054   73.1850  216.2960 H   0  0  0  0  0  0  0  0  0  0  0  0
  144.1272   71.0591  216.8195 H   0  0  0  0  0  0  0  0  0  0  0  0
  145.8368   70.5740  216.7769 H   0  0  0  0  0  0  0  0  0  0  0  0
  142.5343   68.1763  219.3352 H   0  0  0  0  0  0  0  0  0  0  0  0
  143.2532   65.7930  219.2626 H   0  0  0  0  0  0  0  0  0  0  0  0
  145.6612   65.1956  219.2420 H   0  0  0  0  0  0  0  0  0  0  0  0
  147.3740   66.9997  219.2918 H   0  0  0  0  0  0  0  0  0  0  0  0
  146.6844   69.4091  219.3703 H   0  0  0  0  0  0  0  0  0  0  0  0
  143.2722   70.5294  221.1562 H   0  0  0  0  0  0  0  0  0  0  0  0
  143.8556   72.8150  219.9621 H   0  0  0  0  0  0  0  0  0  0  0  0
  142.4764   72.5119  218.8945 H   0  0  0  0  0  0  0  0  0  0  0  0
  142.5447   72.8001  221.9133 H   0  0  0  0  0  0  0  0  0  0  0  0
  141.5729   73.7246  220.6795 H   0  0  0  0  0  0  0  0  0  0  0  0
  138.3566   70.8480  221.8807 H   0  0  0  0  0  0  0  0  0  0  0  0
  136.6840   72.2060  222.9280 H   0  0  0  0  0  0  0  0  0  0  0  0
  137.7430   73.5190  222.7350 H   0  0  0  0  0  0  0  0  0  0  0  0
  137.9961   71.2036  224.4747 H   0  0  0  0  0  0  0  0  0  0  0  0
  138.5815   68.9467  223.4562 H   0  0  0  0  0  0  0  0  0  0  0  0
  140.1256   69.4757  222.8986 H   0  0  0  0  0  0  0  0  0  0  0  0
  139.6572   67.2217  225.3196 H   0  0  0  0  0  0  0  0  0  0  0  0
  140.6223   67.2053  227.6140 H   0  0  0  0  0  0  0  0  0  0  0  0
  141.4249   69.3141  228.6471 H   0  0  0  0  0  0  0  0  0  0  0  0
  141.3612   71.7401  228.6045 H   0  0  0  0  0  0  0  0  0  0  0  0
  142.4181   72.0017  227.1758 H   0  0  0  0  0  0  0  0  0  0  0  0
  140.7358   72.6314  227.1758 H   0  0  0  0  0  0  0  0  0  0  0  0
  139.8843   72.5904  225.1062 H   0  0  0  0  0  0  0  0  0  0  0  0
  140.9810   71.8587  223.9815 H   0  0  0  0  0  0  0  0  0  0  0  0
  140.4662   69.8306  221.2042 H   0  0  0  0  0  0  0  0  0  0  0  0
  139.8408   70.8090  219.7579 H   0  0  0  0  0  0  0  0  0  0  0  0
  141.8807   69.0654  219.6704 H   0  0  0  0  0  0  0  0  0  0  0  0
  141.6220   70.4653  218.5720 H   0  0  0  0  0  0  0  0  0  0  0  0
  1  2  1  0
  2  3  1  0
  3  4  2  0
  3  5  1  0
  5  6  1  0
  6  7  2  0
  7  8  1  0
  8  9  2  0
  9 10  1  0
 10 11  2  0
  5 12  1  0
 12 13  1  0
 13 14  1  0
 14 15  1  0
 15 16  1  0
 16 17  2  0
 16 18  1  0
 18 19  1  0
 18 20  1  0
 20 21  1  0
 21 22  1  0
 22 23  2  0
 23 24  1  0
 24 25  2  0
 25 26  1  0
 26 27  1  0
 26 28  2  0
 28 29  1  0
 15 30  1  0
 30 31  1  0
 11  6  1  0
 31 12  1  0
 29 20  1  0
 28 22  1  0
  1 32  1  0
  1 33  1  0
  1 34  1  0
  2 35  1  0
  2 36  1  0
  7 37  1  0
  8 38  1  0
  9 39  1  0
 10 40  1  0
 11 41  1  0
 12 42  1  0
 13 43  1  0
 13 44  1  0
 14 45  1  0
 14 46  1  0
 18 47  1  6
 19 48  1  0
 19 49  1  0
 20 50  1  1
 21 51  1  0
 21 52  1  0
 23 53  1  0
 24 54  1  0
 25 55  1  0
 27 56  1  0
 27 57  1  0
 27 58  1  0
 29 59  1  0
 29 60  1  0
 30 61  1  0
 30 62  1  0
 31 63  1  0
 31 64  1  0
M  END
>  <smiles>  (61) 
CCC(=O)N(c1ccccc1)C1CCN(C(=O)[C@H](N)C2Cc3cccc(C)c3C2)CC1

>  <score_type>  (61) 
oracle

>  <origin>  (61) 
autodockgpu

>  <m_score__min__energy>  (61) 
-9.3900000000000006

>  <m_primary>  (61) 
energy

>  <rmsd>  (61) 
9.905462546140873

>  <m_score__min__rmsd>  (61) 
9.905462546140873

>  <meeko>  (61) 
{"free_energy": -8.97, "intermolecular_energy": -11.06, "internal_energy": -1.6, "cluster_size": 16, "cluster_id": 1, "rank_in_cluster": 6}

>  <energy>  (61) 
-8.75

>  <cluster_rmsd>  (61) 
0.47

>  <cluster>  (61) 
1

$$$$

     RDKit          3D

 64 67  0  0  0  0  0  0  0  0999 V2000
  146.0200   73.0200  221.6450 C   0  0  0  0  0  0  0  0  0  0  0  0
  145.9830   74.1000  220.5760 C   0  0  0  0  0  0  0  0  0  0  0  0
  145.1230   73.5950  219.4870 C   0  0  0  0  0  0  0  0  0  0  0  0
  145.6680   72.7900  218.6660 O   0  0  0  0  0  0  0  0  0  0  0  0
  143.7450   73.9830  219.3500 N   0  0  0  0  0  0  0  0  0  0  0  0
  143.4950   75.1710  218.5710 C   0  0  0  0  0  0  0  0  0  0  0  0
  143.5570   75.1720  217.2010 C   0  0  0  0  0  0  0  0  0  0  0  0
  143.3000   76.3590  216.5280 C   0  0  0  0  0  0  0  0  0  0  0  0
  142.9860   77.5200  217.2130 C   0  0  0  0  0  0  0  0  0  0  0  0
  142.9280   77.4900  218.6020 C   0  0  0  0  0  0  0  0  0  0  0  0
  143.1820   76.3160  219.3110 C   0  0  0  0  0  0  0  0  0  0  0  0
  142.6830   73.2320  219.9490 C   0  0  0  0  0  0  0  0  0  0  0  0
  143.1540   71.8290  220.3670 C   0  0  0  0  0  0  0  0  0  0  0  0
  141.9170   71.0240  220.5570 C   0  0  0  0  0  0  0  0  0  0  0  0
  140.8800   71.7410  221.3010 N   0  0  0  0  0  0  0  0  0  0  0  0
  139.7170   70.9560  221.5640 C   0  0  0  0  0  0  0  0  0  0  0  0
  139.7410   69.7740  221.1020 O   0  0  0  0  0  0  0  0  0  0  0  0
  138.5200   71.3630  222.2990 C   0  0  2  0  0  0  0  0  0  0  0  0
  138.1960   72.7140  222.0610 N   0  0  0  0  0  0  0  0  0  0  0  0
  138.7630   70.9850  223.7370 C   0  0  1  0  0  0  0  0  0  0  0  0
  139.0560   69.5010  223.8020 C   0  0  0  0  0  0  0  0  0  0  0  0
  139.6010   69.4290  225.2060 C   0  0  0  0  0  0  0  0  0  0  0  0
  139.5550   68.3680  226.0960 C   0  0  0  0  0  0  0  0  0  0  0  0
  140.1320   68.5300  227.3400 C   0  0  0  0  0  0  0  0  0  0  0  0
  140.7390   69.7230  227.6840 C   0  0  0  0  0  0  0  0  0  0  0  0
  140.7660   70.7750  226.7570 C   0  0  0  0  0  0  0  0  0  0  0  0
  141.4200   72.0760  227.0930 C   0  0  0  0  0  0  0  0  0  0  0  0
  140.1970   70.6350  225.5130 C   0  0  0  0  0  0  0  0  0  0  0  0
  140.0400   71.5310  224.3150 C   0  0  0  0  0  0  0  0  0  0  0  0
  141.0020   73.0980  221.7250 C   0  0  0  0  0  0  0  0  0  0  0  0
  142.1770   73.8610  221.2190 C   0  0  0  0  0  0  0  0  0  0  0  0
  146.0040   73.4884  222.6402 H   0  0  0  0  0  0  0  0  0  0  0  0
  145.1438   72.3643  221.5342 H   0  0  0  0  0  0  0  0  0  0  0  0
  146.9390   72.4258  221.5342 H   0  0  0  0  0  0  0  0  0  0  0  0
  145.5630   75.0284  220.9904 H   0  0  0  0  0  0  0  0  0  0  0  0
  146.9948   74.3245  220.2073 H   0  0  0  0  0  0  0  0  0  0  0  0
  143.8046   74.2538  216.6482 H   0  0  0  0  0  0  0  0  0  0  0  0
  143.3469   76.3770  215.4291 H   0  0  0  0  0  0  0  0  0  0  0  0
  142.7852   78.4532  216.6664 H   0  0  0  0  0  0  0  0  0  0  0  0
  142.6772   78.4091  219.1518 H   0  0  0  0  0  0  0  0  0  0  0  0
  143.1379   76.2915  220.4098 H   0  0  0  0  0  0  0  0  0  0  0  0
  141.8977   73.1988  219.1794 H   0  0  0  0  0  0  0  0  0  0  0  0
  143.7819   71.3858  219.5800 H   0  0  0  0  0  0  0  0  0  0  0  0
  143.7592   71.8627  221.2849 H   0  0  0  0  0  0  0  0  0  0  0  0
  141.5174   70.7556  219.5679 H   0  0  0  0  0  0  0  0  0  0  0  0
  142.1889   70.1341  221.1436 H   0  0  0  0  0  0  0  0  0  0  0  0
  137.6128   70.8437  221.9566 H   0  0  0  0  0  0  0  0  0  0  0  0
  138.4270   73.3780  222.8270 H   0  0  0  0  0  0  0  0  0  0  0  0
  138.4680   73.1020  221.1510 H   0  0  0  0  0  0  0  0  0  0  0  0
  137.8740   71.3546  224.2690 H   0  0  0  0  0  0  0  0  0  0  0  0
  138.1458   68.8953  223.6814 H   0  0  0  0  0  0  0  0  0  0  0  0
  139.7219   69.1156  223.0159 H   0  0  0  0  0  0  0  0  0  0  0  0
  139.0708   67.4201  225.8184 H   0  0  0  0  0  0  0  0  0  0  0  0
  140.1083   67.7020  228.0638 H   0  0  0  0  0  0  0  0  0  0  0  0
  141.1970   69.8463  228.6765 H   0  0  0  0  0  0  0  0  0  0  0  0
  141.4757   72.1869  228.1860 H   0  0  0  0  0  0  0  0  0  0  0  0
  142.4353   72.0960  226.6702 H   0  0  0  0  0  0  0  0  0  0  0  0
  140.8304   72.9028  226.6702 H   0  0  0  0  0  0  0  0  0  0  0  0
  139.9361   72.5865  224.6069 H   0  0  0  0  0  0  0  0  0  0  0  0
  140.8958   71.5301  223.6239 H   0  0  0  0  0  0  0  0  0  0  0  0
  140.0957   73.6301  221.4000 H   0  0  0  0  0  0  0  0  0  0  0  0
  141.1429   73.0455  222.8147 H   0  0  0  0  0  0  0  0  0  0  0  0
  141.8788   74.9006  221.0183 H   0  0  0  0  0  0  0  0  0  0  0  0
  142.9749   73.8446  221.9761 H   0  0  0  0  0  0  0  0  0  0  0  0
  1  2  1  0
  2  3  1  0
  3  4  2  0
  3  5  1  0
  5  6  1  0
  6  7  2  0
  7  8  1  0
  8  9  2  0
  9 10  1  0
 10 11  2  0
  5 12  1  0
 12 13  1  0
 13 14  1  0
 14 15  1  0
 15 16  1  0
 16 17  2  0
 16 18  1  0
 18 19  1  0
 18 20  1  0
 20 21  1  0
 21 22  1  0
 22 23  2  0
 23 24  1  0
 24 25  2  0
 25 26  1  0
 26 27  1  0
 26 28  2  0
 28 29  1  0
 15 30  1  0
 30 31  1  0
 11  6  1  0
 31 12  1  0
 29 20  1  0
 28 22  1  0
  1 32  1  0
  1 33  1  0
  1 34  1  0
  2 35  1  0
  2 36  1  0
  7 37  1  0
  8 38  1  0
  9 39  1  0
 10 40  1  0
 11 41  1  0
 12 42  1  0
 13 43  1  0
 13 44  1  0
 14 45  1  0
 14 46  1  0
 18 47  1  6
 19 48  1  0
 19 49  1  0
 20 50  1  1
 21 51  1  0
 21 52  1  0
 23 53  1  0
 24 54  1  0
 25 55  1  0
 27 56  1  0
 27 57  1  0
 27 58  1  0
 29 59  1  0
 29 60  1  0
 30 61  1  0
 30 62  1  0
 31 63  1  0
 31 64  1  0
M  END
>  <smiles>  (62) 
CCC(=O)N(c1ccccc1)C1CCN(C(=O)[C@H](N)C2Cc3cccc(C)c3C2)CC1

>  <score_type>  (62) 
oracle

>  <origin>  (62) 
autodockgpu

>  <m_score__min__energy>  (62) 
-9.3900000000000006

>  <m_primary>  (62) 
energy

>  <rmsd>  (62) 
9.625115816791954

>  <m_score__min__rmsd>  (62) 
9.625115816791954

>  <meeko>  (62) 
{"free_energy": -8.62, "intermolecular_energy": -10.71, "internal_energy": -1.63, "cluster_size": 1, "cluster_id": 3, "rank_in_cluster": 1}

>  <energy>  (62) 
-8.73

>  <cluster_rmsd>  (62) 
0.55

>  <cluster>  (62) 
1

$$$$

     RDKit          3D

 64 67  0  0  0  0  0  0  0  0999 V2000
  137.7560   80.9090  224.6590 C   0  0  0  0  0  0  0  0  0  0  0  0
  138.1980   80.6390  223.2300 C   0  0  0  0  0  0  0  0  0  0  0  0
  138.0880   79.1820  223.0150 C   0  0  0  0  0  0  0  0  0  0  0  0
  136.9180   78.6890  223.0920 O   0  0  0  0  0  0  0  0  0  0  0  0
  139.2310   78.3560  222.7340 N   0  0  0  0  0  0  0  0  0  0  0  0
  140.5020   79.0370  222.6590 C   0  0  0  0  0  0  0  0  0  0  0  0
  140.9750   79.5710  221.4880 C   0  0  0  0  0  0  0  0  0  0  0  0
  142.2060   80.2110  221.5030 C   0  0  0  0  0  0  0  0  0  0  0  0
  142.9480   80.3160  222.6670 C   0  0  0  0  0  0  0  0  0  0  0  0
  142.4440   79.7670  223.8400 C   0  0  0  0  0  0  0  0  0  0  0  0
  141.2100   79.1150  223.8620 C   0  0  0  0  0  0  0  0  0  0  0  0
  139.1160   76.9420  222.5430 C   0  0  0  0  0  0  0  0  0  0  0  0
  138.0550   76.6040  221.4840 C   0  0  0  0  0  0  0  0  0  0  0  0
  137.7240   75.1670  221.6840 C   0  0  0  0  0  0  0  0  0  0  0  0
  138.9100   74.3310  221.8800 N   0  0  0  0  0  0  0  0  0  0  0  0
  138.6170   72.9380  221.9930 C   0  0  0  0  0  0  0  0  0  0  0  0
  137.3870   72.6330  221.9310 O   0  0  0  0  0  0  0  0  0  0  0  0
  139.5700   71.8430  222.1690 C   0  0  2  0  0  0  0  0  0  0  0  0
  139.3680   70.8180  221.2220 N   0  0  0  0  0  0  0  0  0  0  0  0
  139.4770   71.4330  223.6150 C   0  0  1  0  0  0  0  0  0  0  0  0
  139.6300   69.9290  223.6990 C   0  0  0  0  0  0  0  0  0  0  0  0
  139.8620   69.7980  225.1830 C   0  0  0  0  0  0  0  0  0  0  0  0
  139.5470   68.7350  226.0150 C   0  0  0  0  0  0  0  0  0  0  0  0
  139.8630   68.8360  227.3560 C   0  0  0  0  0  0  0  0  0  0  0  0
  140.4790   69.9700  227.8500 C   0  0  0  0  0  0  0  0  0  0  0  0
  140.7830   71.0250  226.9780 C   0  0  0  0  0  0  0  0  0  0  0  0
  141.4550   72.2630  227.4760 C   0  0  0  0  0  0  0  0  0  0  0  0
  140.4770   70.9460  225.6390 C   0  0  0  0  0  0  0  0  0  0  0  0
  140.6450   71.8640  224.4600 C   0  0  0  0  0  0  0  0  0  0  0  0
  140.2380   74.8450  221.9590 C   0  0  0  0  0  0  0  0  0  0  0  0
  140.3880   76.3260  222.0240 C   0  0  0  0  0  0  0  0  0  0  0  0
  138.4814   80.4659  225.3571 H   0  0  0  0  0  0  0  0  0  0  0  0
  137.7015   81.9947  224.8270 H   0  0  0  0  0  0  0  0  0  0  0  0
  136.7651   80.4618  224.8270 H   0  0  0  0  0  0  0  0  0  0  0  0
  137.5465   81.1757  222.5247 H   0  0  0  0  0  0  0  0  0  0  0  0
  139.2291   80.9846  223.0648 H   0  0  0  0  0  0  0  0  0  0  0  0
  140.3921   79.4938  220.5583 H   0  0  0  0  0  0  0  0  0  0  0  0
  142.6001   80.6435  220.5716 H   0  0  0  0  0  0  0  0  0  0  0  0
  143.9223   80.8266  222.6635 H   0  0  0  0  0  0  0  0  0  0  0  0
  143.0284   79.8478  224.7684 H   0  0  0  0  0  0  0  0  0  0  0  0
  140.8102   78.6795  224.7897 H   0  0  0  0  0  0  0  0  0  0  0  0
  138.8571   76.5464  223.5362 H   0  0  0  0  0  0  0  0  0  0  0  0
  137.1595   77.2266  221.6270 H   0  0  0  0  0  0  0  0  0  0  0  0
  138.4245   76.7959  220.4658 H   0  0  0  0  0  0  0  0  0  0  0  0
  137.0796   75.0754  222.5708 H   0  0  0  0  0  0  0  0  0  0  0  0
  137.2188   74.8147  220.7726 H   0  0  0  0  0  0  0  0  0  0  0  0
  140.6076   72.1462  221.9652 H   0  0  0  0  0  0  0  0  0  0  0  0
  138.4260   70.7840  220.7830 H   0  0  0  0  0  0  0  0  0  0  0  0
  140.1010   70.6910  220.5140 H   0  0  0  0  0  0  0  0  0  0  0  0
  138.5295   71.8715  223.9613 H   0  0  0  0  0  0  0  0  0  0  0  0
  138.7195   69.4031  223.3759 H   0  0  0  0  0  0  0  0  0  0  0  0
  140.4123   69.4966  223.0579 H   0  0  0  0  0  0  0  0  0  0  0  0
  139.0577   67.8336  225.6174 H   0  0  0  0  0  0  0  0  0  0  0  0
  139.6221   68.0062  228.0367 H   0  0  0  0  0  0  0  0  0  0  0  0
  140.7288   70.0444  228.9187 H   0  0  0  0  0  0  0  0  0  0  0  0
  141.4550   72.2630  228.5760 H   0  0  0  0  0  0  0  0  0  0  0  0
  142.4917   72.2903  227.1093 H   0  0  0  0  0  0  0  0  0  0  0  0
  140.9130   73.1472  227.1093 H   0  0  0  0  0  0  0  0  0  0  0  0
  140.5670   72.9214  224.7531 H   0  0  0  0  0  0  0  0  0  0  0  0
  141.6232   71.7984  223.9612 H   0  0  0  0  0  0  0  0  0  0  0  0
  140.7032   74.4245  222.8627 H   0  0  0  0  0  0  0  0  0  0  0  0
  140.7145   74.5512  221.0121 H   0  0  0  0  0  0  0  0  0  0  0  0
  141.2191   76.5802  222.6983 H   0  0  0  0  0  0  0  0  0  0  0  0
  140.5973   76.7157  221.0169 H   0  0  0  0  0  0  0  0  0  0  0  0
  1  2  1  0
  2  3  1  0
  3  4  2  0
  3  5  1  0
  5  6  1  0
  6  7  2  0
  7  8  1  0
  8  9  2  0
  9 10  1  0
 10 11  2  0
  5 12  1  0
 12 13  1  0
 13 14  1  0
 14 15  1  0
 15 16  1  0
 16 17  2  0
 16 18  1  0
 18 19  1  0
 18 20  1  0
 20 21  1  0
 21 22  1  0
 22 23  2  0
 23 24  1  0
 24 25  2  0
 25 26  1  0
 26 27  1  0
 26 28  2  0
 28 29  1  0
 15 30  1  0
 30 31  1  0
 11  6  1  0
 31 12  1  0
 29 20  1  0
 28 22  1  0
  1 32  1  0
  1 33  1  0
  1 34  1  0
  2 35  1  0
  2 36  1  0
  7 37  1  0
  8 38  1  0
  9 39  1  0
 10 40  1  0
 11 41  1  0
 12 42  1  0
 13 43  1  0
 13 44  1  0
 14 45  1  0
 14 46  1  0
 18 47  1  1
 19 48  1  0
 19 49  1  0
 20 50  1  1
 21 51  1  0
 21 52  1  0
 23 53  1  0
 24 54  1  0
 25 55  1  0
 27 56  1  0
 27 57  1  0
 27 58  1  0
 29 59  1  0
 29 60  1  0
 30 61  1  0
 30 62  1  0
 31 63  1  0
 31 64  1  0
M  END
>  <smiles>  (63) 
CCC(=O)N(c1ccccc1)C1CCN(C(=O)[C@H](N)C2Cc3cccc(C)c3C2)CC1

>  <score_type>  (63) 
oracle

>  <origin>  (63) 
autodockgpu

>  <m_score__min__energy>  (63) 
-9.3900000000000006

>  <m_primary>  (63) 
energy

>  <rmsd>  (63) 
9.00575739775654

>  <m_score__min__rmsd>  (63) 
9.00575739775654

>  <meeko>  (63) 
{"free_energy": -8.46, "intermolecular_energy": -10.55, "internal_energy": -1.93, "cluster_size": 12, "cluster_id": 4, "rank_in_cluster": 1}

>  <energy>  (63) 
-8.67

>  <cluster_rmsd>  (63) 
0.83

>  <cluster>  (63) 
1

$$$$

     RDKit          3D

 64 67  0  0  0  0  0  0  0  0999 V2000
  142.6090   77.6800  217.8430 C   0  0  0  0  0  0  0  0  0  0  0  0
  141.7970   78.0620  219.0700 C   0  0  0  0  0  0  0  0  0  0  0  0
  142.1950   77.1390  220.1520 C   0  0  0  0  0  0  0  0  0  0  0  0
  143.3290   76.5750  220.0230 O   0  0  0  0  0  0  0  0  0  0  0  0
  141.3600   76.8840  221.2950 N   0  0  0  0  0  0  0  0  0  0  0  0
  141.1080   78.0100  222.1600 C   0  0  0  0  0  0  0  0  0  0  0  0
  139.8900   78.2140  222.7570 C   0  0  0  0  0  0  0  0  0  0  0  0
  139.7320   79.3220  223.5780 C   0  0  0  0  0  0  0  0  0  0  0  0
  140.7730   80.2070  223.7980 C   0  0  0  0  0  0  0  0  0  0  0  0
  141.9980   79.9760  223.1820 C   0  0  0  0  0  0  0  0  0  0  0  0
  142.1920   78.8730  222.3490 C   0  0  0  0  0  0  0  0  0  0  0  0
  140.8080   75.5890  221.5560 C   0  0  0  0  0  0  0  0  0  0  0  0
  139.3240   75.5210  221.1570 C   0  0  0  0  0  0  0  0  0  0  0  0
  138.7700   74.3280  221.8540 C   0  0  0  0  0  0  0  0  0  0  0  0
  139.6450   73.1580  221.7640 N   0  0  0  0  0  0  0  0  0  0  0  0
  139.0940   71.9830  222.3570 C   0  0  0  0  0  0  0  0  0  0  0  0
  137.9500   72.1250  222.8880 O   0  0  0  0  0  0  0  0  0  0  0  0
  139.6970   70.6520  222.4140 C   0  0  2  0  0  0  0  0  0  0  0  0
  138.7720   69.6440  222.0700 N   0  0  0  0  0  0  0  0  0  0  0  0
  140.3240   70.5340  223.7790 C   0  0  1  0  0  0  0  0  0  0  0  0
  140.2650   71.8880  224.4540 C   0  0  0  0  0  0  0  0  0  0  0  0
  140.5920   71.4630  225.8640 C   0  0  0  0  0  0  0  0  0  0  0  0
  141.2250   72.1910  226.8590 C   0  0  0  0  0  0  0  0  0  0  0  0
  141.4140   71.5920  228.0890 C   0  0  0  0  0  0  0  0  0  0  0  0
  140.9800   70.3000  228.3170 C   0  0  0  0  0  0  0  0  0  0  0  0
  140.3430   69.5950  227.2860 C   0  0  0  0  0  0  0  0  0  0  0  0
  139.8550   68.1990  227.4990 C   0  0  0  0  0  0  0  0  0  0  0  0
  140.1450   70.1710  226.0530 C   0  0  0  0  0  0  0  0  0  0  0  0
  139.5270   69.7160  224.7600 C   0  0  0  0  0  0  0  0  0  0  0  0
  140.9340   73.1760  221.1510 C   0  0  0  0  0  0  0  0  0  0  0  0
  141.4720   74.5050  220.7480 C   0  0  0  0  0  0  0  0  0  0  0  0
  143.5623   77.2315  218.1593 H   0  0  0  0  0  0  0  0  0  0  0  0
  142.0438   76.9533  217.2409 H   0  0  0  0  0  0  0  0  0  0  0  0
  142.8084   78.5787  217.2409 H   0  0  0  0  0  0  0  0  0  0  0  0
  142.0149   79.1006  219.3595 H   0  0  0  0  0  0  0  0  0  0  0  0
  140.7184   77.9889  218.8669 H   0  0  0  0  0  0  0  0  0  0  0  0
  139.0572   77.5153  222.5889 H   0  0  0  0  0  0  0  0  0  0  0  0
  138.7609   79.5000  224.0630 H   0  0  0  0  0  0  0  0  0  0  0  0
  140.6333   81.0810  224.4511 H   0  0  0  0  0  0  0  0  0  0  0  0
  142.8294   80.6753  223.3543 H   0  0  0  0  0  0  0  0  0  0  0  0
  143.1602   78.6897  221.8601 H   0  0  0  0  0  0  0  0  0  0  0  0
  140.9606   75.4340  222.6343 H   0  0  0  0  0  0  0  0  0  0  0  0
  138.7985   76.4317  221.4803 H   0  0  0  0  0  0  0  0  0  0  0  0
  139.2014   75.4455  220.0665 H   0  0  0  0  0  0  0  0  0  0  0  0
  138.6256   74.5774  222.9156 H   0  0  0  0  0  0  0  0  0  0  0  0
  137.8211   74.0691  221.3614 H   0  0  0  0  0  0  0  0  0  0  0  0
  140.4856   70.5101  221.6603 H   0  0  0  0  0  0  0  0  0  0  0  0
  138.9590   68.7020  222.4660 H   0  0  0  0  0  0  0  0  0  0  0  0
  137.7770   69.8810  222.1560 H   0  0  0  0  0  0  0  0  0  0  0  0
  141.3167   70.1012  223.5860 H   0  0  0  0  0  0  0  0  0  0  0  0
  141.0143   72.5840  224.0487 H   0  0  0  0  0  0  0  0  0  0  0  0
  139.3193   72.4365  224.3324 H   0  0  0  0  0  0  0  0  0  0  0  0
  141.5681   73.2196  226.6738 H   0  0  0  0  0  0  0  0  0  0  0  0
  141.9148   72.1487  228.8948 H   0  0  0  0  0  0  0  0  0  0  0  0
  141.1330   69.8287  229.2991 H   0  0  0  0  0  0  0  0  0  0  0  0
  139.7840   67.9960  228.5778 H   0  0  0  0  0  0  0  0  0  0  0  0
  138.8630   68.0830  227.0380 H   0  0  0  0  0  0  0  0  0  0  0  0
  140.5587   67.4902  227.0380 H   0  0  0  0  0  0  0  0  0  0  0  0
  139.6675   68.6369  224.5992 H   0  0  0  0  0  0  0  0  0  0  0  0
  138.4375   69.8537  224.6966 H   0  0  0  0  0  0  0  0  0  0  0  0
  141.6459   72.7314  221.8620 H   0  0  0  0  0  0  0  0  0  0  0  0
  140.8108   72.6201  220.2098 H   0  0  0  0  0  0  0  0  0  0  0  0
  142.5572   74.5292  220.9261 H   0  0  0  0  0  0  0  0  0  0  0  0
  141.2686   74.6711  219.6798 H   0  0  0  0  0  0  0  0  0  0  0  0
  1  2  1  0
  2  3  1  0
  3  4  2  0
  3  5  1  0
  5  6  1  0
  6  7  2  0
  7  8  1  0
  8  9  2  0
  9 10  1  0
 10 11  2  0
  5 12  1  0
 12 13  1  0
 13 14  1  0
 14 15  1  0
 15 16  1  0
 16 17  2  0
 16 18  1  0
 18 19  1  0
 18 20  1  0
 20 21  1  0
 21 22  1  0
 22 23  2  0
 23 24  1  0
 24 25  2  0
 25 26  1  0
 26 27  1  0
 26 28  2  0
 28 29  1  0
 15 30  1  0
 30 31  1  0
 11  6  1  0
 31 12  1  0
 29 20  1  0
 28 22  1  0
  1 32  1  0
  1 33  1  0
  1 34  1  0
  2 35  1  0
  2 36  1  0
  7 37  1  0
  8 38  1  0
  9 39  1  0
 10 40  1  0
 11 41  1  0
 12 42  1  0
 13 43  1  0
 13 44  1  0
 14 45  1  0
 14 46  1  0
 18 47  1  6
 19 48  1  0
 19 49  1  0
 20 50  1  6
 21 51  1  0
 21 52  1  0
 23 53  1  0
 24 54  1  0
 25 55  1  0
 27 56  1  0
 27 57  1  0
 27 58  1  0
 29 59  1  0
 29 60  1  0
 30 61  1  0
 30 62  1  0
 31 63  1  0
 31 64  1  0
M  END
>  <smiles>  (64) 
CCC(=O)N(c1ccccc1)C1CCN(C(=O)[C@H](N)C2Cc3cccc(C)c3C2)CC1

>  <score_type>  (64) 
oracle

>  <origin>  (64) 
autodockgpu

>  <m_score__min__energy>  (64) 
-9.3900000000000006

>  <m_primary>  (64) 
energy

>  <rmsd>  (64) 
8.156222764426312

>  <m_score__min__rmsd>  (64) 
8.156222764426312

>  <meeko>  (64) 
{"free_energy": -8.42, "intermolecular_energy": -10.51, "internal_energy": -1.97, "cluster_size": 18, "cluster_id": 2, "rank_in_cluster": 8}

>  <energy>  (64) 
-8.55

>  <cluster_rmsd>  (64) 
0.79

>  <cluster>  (64) 
1

$$$$

     RDKit          3D

 64 67  0  0  0  0  0  0  0  0999 V2000
  136.0560   69.5410  223.3680 C   0  0  0  0  0  0  0  0  0  0  0  0
  137.0440   69.6000  224.5220 C   0  0  0  0  0  0  0  0  0  0  0  0
  138.3960   69.6300  223.9290 C   0  0  0  0  0  0  0  0  0  0  0  0
  138.6500   68.7330  223.0630 O   0  0  0  0  0  0  0  0  0  0  0  0
  139.3790   70.6120  224.2990 N   0  0  0  0  0  0  0  0  0  0  0  0
  139.9800   70.4480  225.6010 C   0  0  0  0  0  0  0  0  0  0  0  0
  140.4930   71.5060  226.3060 C   0  0  0  0  0  0  0  0  0  0  0  0
  141.0520   71.2620  227.5530 C   0  0  0  0  0  0  0  0  0  0  0  0
  141.0930   69.9840  228.0830 C   0  0  0  0  0  0  0  0  0  0  0  0
  140.5630   68.9300  227.3490 C   0  0  0  0  0  0  0  0  0  0  0  0
  139.9960   69.1390  226.0910 C   0  0  0  0  0  0  0  0  0  0  0  0
  139.7430   71.6860  223.4260 C   0  0  0  0  0  0  0  0  0  0  0  0
  140.7020   71.2110  222.3220 C   0  0  0  0  0  0  0  0  0  0  0  0
  141.3320   72.4430  221.7730 C   0  0  0  0  0  0  0  0  0  0  0  0
  140.3690   73.5220  221.5440 N   0  0  0  0  0  0  0  0  0  0  0  0
  140.9420   74.6830  220.9430 C   0  0  0  0  0  0  0  0  0  0  0  0
  142.1890   74.6210  220.7160 O   0  0  0  0  0  0  0  0  0  0  0  0
  140.2530   75.9160  220.5640 C   0  0  2  0  0  0  0  0  0  0  0  0
  140.4920   76.2540  219.2160 N   0  0  0  0  0  0  0  0  0  0  0  0
  140.6530   76.9500  221.5840 C   0  0  1  0  0  0  0  0  0  0  0  0
  141.7620   77.7990  221.0000 C   0  0  0  0  0  0  0  0  0  0  0  0
  141.7420   78.9310  221.9950 C   0  0  0  0  0  0  0  0  0  0  0  0
  142.7900   79.7470  222.3950 C   0  0  0  0  0  0  0  0  0  0  0  0
  142.5320   80.7350  223.3250 C   0  0  0  0  0  0  0  0  0  0  0  0
  141.2610   80.9010  223.8410 C   0  0  0  0  0  0  0  0  0  0  0  0
  140.2270   80.0570  223.4130 C   0  0  0  0  0  0  0  0  0  0  0  0
  138.8400   80.2130  223.9450 C   0  0  0  0  0  0  0  0  0  0  0  0
  140.4600   79.0670  222.4880 C   0  0  0  0  0  0  0  0  0  0  0  0
  139.6140   78.0100  221.8330 C   0  0  0  0  0  0  0  0  0  0  0  0
  138.9880   73.4400  221.8910 C   0  0  0  0  0  0  0  0  0  0  0  0
  138.5600   72.2560  222.6890 C   0  0  0  0  0  0  0  0  0  0  0  0
  135.0319   69.4798  223.7649 H   0  0  0  0  0  0  0  0  0  0  0  0
  136.1571   70.4468  222.7521 H   0  0  0  0  0  0  0  0  0  0  0  0
  136.2642   68.6537  222.7521 H   0  0  0  0  0  0  0  0  0  0  0  0
  136.8732   70.5073  225.1200 H   0  0  0  0  0  0  0  0  0  0  0  0
  136.9251   68.7315  225.1865 H   0  0  0  0  0  0  0  0  0  0  0  0
  140.4623   72.5250  225.8929 H   0  0  0  0  0  0  0  0  0  0  0  0
  141.4701   72.0997  228.1305 H   0  0  0  0  0  0  0  0  0  0  0  0
  141.5393   69.8051  229.0723 H   0  0  0  0  0  0  0  0  0  0  0  0
  140.5908   67.9128  227.7668 H   0  0  0  0  0  0  0  0  0  0  0  0
  139.5777   68.3056  225.5075 H   0  0  0  0  0  0  0  0  0  0  0  0
  140.2023   72.4373  224.0852 H   0  0  0  0  0  0  0  0  0  0  0  0
  141.4688   70.5434  222.7420 H   0  0  0  0  0  0  0  0  0  0  0  0
  140.1719   70.6455  221.5415 H   0  0  0  0  0  0  0  0  0  0  0  0
  142.0919   72.7961  222.4857 H   0  0  0  0  0  0  0  0  0  0  0  0
  141.7733   72.1824  220.7997 H   0  0  0  0  0  0  0  0  0  0  0  0
  139.1578   75.8158  220.5878 H   0  0  0  0  0  0  0  0  0  0  0  0
  141.3400   75.8330  218.7850 H   0  0  0  0  0  0  0  0  0  0  0  0
  139.6930   76.1930  218.5750 H   0  0  0  0  0  0  0  0  0  0  0  0
  140.8781   76.3664  222.4888 H   0  0  0  0  0  0  0  0  0  0  0  0
  142.7269   77.2709  220.9956 H   0  0  0  0  0  0  0  0  0  0  0  0
  141.6294   78.0917  219.9480 H   0  0  0  0  0  0  0  0  0  0  0  0
  143.8004   79.6107  221.9822 H   0  0  0  0  0  0  0  0  0  0  0  0
  143.3459   81.3958  223.6580 H   0  0  0  0  0  0  0  0  0  0  0  0
  141.0622   81.6894  224.5819 H   0  0  0  0  0  0  0  0  0  0  0  0
  138.8666   80.2100  225.0447 H   0  0  0  0  0  0  0  0  0  0  0  0
  138.4164   81.1645  223.5911 H   0  0  0  0  0  0  0  0  0  0  0  0
  138.2156   79.3794  223.5911 H   0  0  0  0  0  0  0  0  0  0  0  0
  138.8193   77.6514  222.5037 H   0  0  0  0  0  0  0  0  0  0  0  0
  139.0729   78.3442  220.9355 H   0  0  0  0  0  0  0  0  0  0  0  0
  138.7379   74.3399  222.4721 H   0  0  0  0  0  0  0  0  0  0  0  0
  138.4576   73.3451  220.9320 H   0  0  0  0  0  0  0  0  0  0  0  0
  137.7908   72.5620  223.4133 H   0  0  0  0  0  0  0  0  0  0  0  0
  138.1484   71.4912  222.0139 H   0  0  0  0  0  0  0  0  0  0  0  0
  1  2  1  0
  2  3  1  0
  3  4  2  0
  3  5  1  0
  5  6  1  0
  6  7  2  0
  7  8  1  0
  8  9  2  0
  9 10  1  0
 10 11  2  0
  5 12  1  0
 12 13  1  0
 13 14  1  0
 14 15  1  0
 15 16  1  0
 16 17  2  0
 16 18  1  0
 18 19  1  0
 18 20  1  0
 20 21  1  0
 21 22  1  0
 22 23  2  0
 23 24  1  0
 24 25  2  0
 25 26  1  0
 26 27  1  0
 26 28  2  0
 28 29  1  0
 15 30  1  0
 30 31  1  0
 11  6  1  0
 31 12  1  0
 29 20  1  0
 28 22  1  0
  1 32  1  0
  1 33  1  0
  1 34  1  0
  2 35  1  0
  2 36  1  0
  7 37  1  0
  8 38  1  0
  9 39  1  0
 10 40  1  0
 11 41  1  0
 12 42  1  0
 13 43  1  0
 13 44  1  0
 14 45  1  0
 14 46  1  0
 18 47  1  6
 19 48  1  0
 19 49  1  0
 20 50  1  1
 21 51  1  0
 21 52  1  0
 23 53  1  0
 24 54  1  0
 25 55  1  0
 27 56  1  0
 27 57  1  0
 27 58  1  0
 29 59  1  0
 29 60  1  0
 30 61  1  0
 30 62  1  0
 31 63  1  0
 31 64  1  0
M  END
>  <smiles>  (65) 
CCC(=O)N(c1ccccc1)C1CCN(C(=O)[C@H](N)C2Cc3cccc(C)c3C2)CC1

>  <score_type>  (65) 
oracle

>  <origin>  (65) 
autodockgpu

>  <m_score__min__energy>  (65) 
-9.3900000000000006

>  <m_primary>  (65) 
energy

>  <rmsd>  (65) 
5.711750839403122

>  <m_score__min__rmsd>  (65) 
5.711750839403122

>  <meeko>  (65) 
{"free_energy": -7.98, "intermolecular_energy": -10.07, "internal_energy": -1.89, "cluster_size": 2, "cluster_id": 5, "rank_in_cluster": 2}

>  <energy>  (65) 
-8.54

>  <cluster_rmsd>  (65) 
0.48

>  <cluster>  (65) 
1

$$$$

     RDKit          3D

 64 67  0  0  0  0  0  0  0  0999 V2000
  145.1010   74.1260  220.4690 C   0  0  0  0  0  0  0  0  0  0  0  0
  144.0280   73.1100  220.8250 C   0  0  0  0  0  0  0  0  0  0  0  0
  142.7820   73.5550  220.1690 C   0  0  0  0  0  0  0  0  0  0  0  0
  142.7480   73.4580  218.9010 O   0  0  0  0  0  0  0  0  0  0  0  0
  141.6620   74.0690  220.9100 N   0  0  0  0  0  0  0  0  0  0  0  0
  141.6010   75.5040  221.0510 C   0  0  0  0  0  0  0  0  0  0  0  0
  141.0020   76.1060  222.1280 C   0  0  0  0  0  0  0  0  0  0  0  0
  140.9890   77.4930  222.1880 C   0  0  0  0  0  0  0  0  0  0  0  0
  141.5650   78.2600  221.1910 C   0  0  0  0  0  0  0  0  0  0  0  0
  142.1670   77.6240  220.1110 C   0  0  0  0  0  0  0  0  0  0  0  0
  142.1970   76.2320  220.0180 C   0  0  0  0  0  0  0  0  0  0  0  0
  140.6640   73.2090  221.4710 C   0  0  0  0  0  0  0  0  0  0  0  0
  139.2560   73.5960  220.9900 C   0  0  0  0  0  0  0  0  0  0  0  0
  138.3100   72.9500  221.9400 C   0  0  0  0  0  0  0  0  0  0  0  0
  138.6650   71.5630  222.2440 N   0  0  0  0  0  0  0  0  0  0  0  0
  137.7250   70.9020  223.0900 C   0  0  0  0  0  0  0  0  0  0  0  0
  136.7420   71.6090  223.4690 O   0  0  0  0  0  0  0  0  0  0  0  0
  137.7720   69.5170  223.5570 C   0  0  2  0  0  0  0  0  0  0  0  0
  136.5090   68.8960  223.4790 N   0  0  0  0  0  0  0  0  0  0  0  0
  138.4050   69.5560  224.9240 C   0  0  1  0  0  0  0  0  0  0  0  0
  139.2030   68.2850  225.1200 C   0  0  0  0  0  0  0  0  0  0  0  0
  140.0000   68.6920  226.3340 C   0  0  0  0  0  0  0  0  0  0  0  0
  140.5000   67.8890  227.3470 C   0  0  0  0  0  0  0  0  0  0  0  0
  141.2140   68.4880  228.3660 C   0  0  0  0  0  0  0  0  0  0  0  0
  141.4220   69.8540  228.3710 C   0  0  0  0  0  0  0  0  0  0  0  0
  140.9000   70.6340  227.3290 C   0  0  0  0  0  0  0  0  0  0  0  0
  141.1110   72.1140  227.2990 C   0  0  0  0  0  0  0  0  0  0  0  0
  140.1860   70.0590  226.3040 C   0  0  0  0  0  0  0  0  0  0  0  0
  139.4980   70.5790  225.0730 C   0  0  0  0  0  0  0  0  0  0  0  0
  139.8410   70.9190  221.7530 C   0  0  0  0  0  0  0  0  0  0  0  0
  140.8340   71.7750  221.0460 C   0  0  0  0  0  0  0  0  0  0  0  0
  145.5362   74.5381  221.3914 H   0  0  0  0  0  0  0  0  0  0  0  0
  145.8892   73.6354  219.8790 H   0  0  0  0  0  0  0  0  0  0  0  0
  144.6541   74.9398  219.8790 H   0  0  0  0  0  0  0  0  0  0  0  0
  144.3139   72.1133  220.4577 H   0  0  0  0  0  0  0  0  0  0  0  0
  143.8966   73.0414  221.9150 H   0  0  0  0  0  0  0  0  0  0  0  0
  140.5426   75.5039  222.9257 H   0  0  0  0  0  0  0  0  0  0  0  0
  140.5117   77.9916  223.0445 H   0  0  0  0  0  0  0  0  0  0  0  0
  141.5470   79.3582  221.2519 H   0  0  0  0  0  0  0  0  0  0  0  0
  142.6277   78.2287  219.3160 H   0  0  0  0  0  0  0  0  0  0  0  0
  142.6718   75.7270  219.1639 H   0  0  0  0  0  0  0  0  0  0  0  0
  140.7808   73.3196  222.5592 H   0  0  0  0  0  0  0  0  0  0  0  0
  139.1316   74.6888  221.0095 H   0  0  0  0  0  0  0  0  0  0  0  0
  139.0776   73.2676  219.9555 H   0  0  0  0  0  0  0  0  0  0  0  0
  138.3072   73.5250  222.8777 H   0  0  0  0  0  0  0  0  0  0  0  0
  137.3190   72.9396  221.4626 H   0  0  0  0  0  0  0  0  0  0  0  0
  138.3873   68.8723  222.9122 H   0  0  0  0  0  0  0  0  0  0  0  0
  135.6900   69.5360  223.4360 H   0  0  0  0  0  0  0  0  0  0  0  0
  136.4080   68.1350  222.7970 H   0  0  0  0  0  0  0  0  0  0  0  0
  137.5643   69.7432  225.6083 H   0  0  0  0  0  0  0  0  0  0  0  0
  138.5560   67.4188  225.3227 H   0  0  0  0  0  0  0  0  0  0  0  0
  139.7956   67.9598  224.2522 H   0  0  0  0  0  0  0  0  0  0  0  0
  140.3323   66.8019  227.3395 H   0  0  0  0  0  0  0  0  0  0  0  0
  141.6210   67.8719  229.1814 H   0  0  0  0  0  0  0  0  0  0  0  0
  141.9920   70.3255  229.1851 H   0  0  0  0  0  0  0  0  0  0  0  0
  141.1657   72.4975  228.3285 H   0  0  0  0  0  0  0  0  0  0  0  0
  142.0504   72.3399  226.7732 H   0  0  0  0  0  0  0  0  0  0  0  0
  140.2721   72.5934  226.7732 H   0  0  0  0  0  0  0  0  0  0  0  0
  139.0915   71.5890  225.2298 H   0  0  0  0  0  0  0  0  0  0  0  0
  140.1490   70.6889  224.1932 H   0  0  0  0  0  0  0  0  0  0  0  0
  140.3511   70.4590  222.6122 H   0  0  0  0  0  0  0  0  0  0  0  0
  139.4825   70.2090  220.9931 H   0  0  0  0  0  0  0  0  0  0  0  0
  141.8507   71.4379  221.2962 H   0  0  0  0  0  0  0  0  0  0  0  0
  140.6744   71.6962  219.9605 H   0  0  0  0  0  0  0  0  0  0  0  0
  1  2  1  0
  2  3  1  0
  3  4  2  0
  3  5  1  0
  5  6  1  0
  6  7  2  0
  7  8  1  0
  8  9  2  0
  9 10  1  0
 10 11  2  0
  5 12  1  0
 12 13  1  0
 13 14  1  0
 14 15  1  0
 15 16  1  0
 16 17  2  0
 16 18  1  0
 18 19  1  0
 18 20  1  0
 20 21  1  0
 21 22  1  0
 22 23  2  0
 23 24  1  0
 24 25  2  0
 25 26  1  0
 26 27  1  0
 26 28  2  0
 28 29  1  0
 15 30  1  0
 30 31  1  0
 11  6  1  0
 31 12  1  0
 29 20  1  0
 28 22  1  0
  1 32  1  0
  1 33  1  0
  1 34  1  0
  2 35  1  0
  2 36  1  0
  7 37  1  0
  8 38  1  0
  9 39  1  0
 10 40  1  0
 11 41  1  0
 12 42  1  0
 13 43  1  0
 13 44  1  0
 14 45  1  0
 14 46  1  0
 18 47  1  6
 19 48  1  0
 19 49  1  0
 20 50  1  1
 21 51  1  0
 21 52  1  0
 23 53  1  0
 24 54  1  0
 25 55  1  0
 27 56  1  0
 27 57  1  0
 27 58  1  0
 29 59  1  0
 29 60  1  0
 30 61  1  0
 30 62  1  0
 31 63  1  0
 31 64  1  0
M  END
>  <smiles>  (66) 
CCC(=O)N(c1ccccc1)C1CCN(C(=O)[C@H](N)C2Cc3cccc(C)c3C2)CC1

>  <score_type>  (66) 
oracle

>  <origin>  (66) 
autodockgpu

>  <m_score__min__energy>  (66) 
-9.3900000000000006

>  <m_primary>  (66) 
energy

>  <rmsd>  (66) 
10.509553909152045

>  <m_score__min__rmsd>  (66) 
10.509553909152045

>  <meeko>  (66) 
{"free_energy": -7.89, "intermolecular_energy": -9.97, "internal_energy": -2.24, "cluster_size": 18, "cluster_id": 2, "rank_in_cluster": 18}

>  <energy>  (66) 
-8.31

>  <cluster_rmsd>  (66) 
0.61

>  <cluster>  (66) 
1

$$$$

     RDKit          3D

 64 67  0  0  0  0  0  0  0  0999 V2000
  140.4100   78.2040  218.8950 C   0  0  0  0  0  0  0  0  0  0  0  0
  141.9220   78.1960  219.0490 C   0  0  0  0  0  0  0  0  0  0  0  0
  142.2420   77.2000  220.0920 C   0  0  0  0  0  0  0  0  0  0  0  0
  143.2910   76.5060  219.9040 O   0  0  0  0  0  0  0  0  0  0  0  0
  141.4220   77.0150  221.2590 N   0  0  0  0  0  0  0  0  0  0  0  0
  141.3080   78.1520  222.1400 C   0  0  0  0  0  0  0  0  0  0  0  0
  142.3480   79.0230  222.3460 C   0  0  0  0  0  0  0  0  0  0  0  0
  142.1540   80.0930  223.2080 C   0  0  0  0  0  0  0  0  0  0  0  0
  140.9430   80.2870  223.8510 C   0  0  0  0  0  0  0  0  0  0  0  0
  139.9060   79.3900  223.6230 C   0  0  0  0  0  0  0  0  0  0  0  0
  140.0660   78.3020  222.7640 C   0  0  0  0  0  0  0  0  0  0  0  0
  140.7550   75.7770  221.5290 C   0  0  0  0  0  0  0  0  0  0  0  0
  139.3280   75.7720  220.9540 C   0  0  0  0  0  0  0  0  0  0  0  0
  138.6150   74.6660  221.6490 C   0  0  0  0  0  0  0  0  0  0  0  0
  139.4110   73.4420  221.7400 N   0  0  0  0  0  0  0  0  0  0  0  0
  138.7140   72.3460  222.3310 C   0  0  0  0  0  0  0  0  0  0  0  0
  137.5270   72.5950  222.7070 O   0  0  0  0  0  0  0  0  0  0  0  0
  139.2120   70.9880  222.5440 C   0  0  2  0  0  0  0  0  0  0  0  0
  138.4780   70.0400  221.8020 N   0  0  0  0  0  0  0  0  0  0  0  0
  139.2400   70.7810  224.0360 C   0  0  1  0  0  0  0  0  0  0  0  0
  139.5090   69.3160  224.3130 C   0  0  0  0  0  0  0  0  0  0  0  0
  139.8430   69.4110  225.7800 C   0  0  0  0  0  0  0  0  0  0  0  0
  139.6590   68.4580  226.7700 C   0  0  0  0  0  0  0  0  0  0  0  0
  140.0510   68.7670  228.0580 C   0  0  0  0  0  0  0  0  0  0  0  0
  140.6110   69.9960  228.3460 C   0  0  0  0  0  0  0  0  0  0  0  0
  140.7810   70.9350  227.3190 C   0  0  0  0  0  0  0  0  0  0  0  0
  141.3900   72.2720  227.5950 C   0  0  0  0  0  0  0  0  0  0  0  0
  140.3980   70.6490  226.0300 C   0  0  0  0  0  0  0  0  0  0  0  0
  140.4250   71.4000  224.7280 C   0  0  0  0  0  0  0  0  0  0  0  0
  140.7620   73.3390  221.2920 C   0  0  0  0  0  0  0  0  0  0  0  0
  141.4350   74.6020  220.8770 C   0  0  0  0  0  0  0  0  0  0  0  0
  139.9402   78.2065  219.8896 H   0  0  0  0  0  0  0  0  0  0  0  0
  140.1025   79.1038  218.3420 H   0  0  0  0  0  0  0  0  0  0  0  0
  140.0930   77.3075  218.3420 H   0  0  0  0  0  0  0  0  0  0  0  0
  142.3976   77.9140  218.0980 H   0  0  0  0  0  0  0  0  0  0  0  0
  142.2945   79.1925  219.3287 H   0  0  0  0  0  0  0  0  0  0  0  0
  143.3134   78.8764  221.8395 H   0  0  0  0  0  0  0  0  0  0  0  0
  142.9778   80.8005  223.3839 H   0  0  0  0  0  0  0  0  0  0  0  0
  140.8037   81.1390  224.5326 H   0  0  0  0  0  0  0  0  0  0  0  0
  138.9411   79.5406  224.1292 H   0  0  0  0  0  0  0  0  0  0  0  0
  139.2468   77.5901  222.5848 H   0  0  0  0  0  0  0  0  0  0  0  0
  140.7663   75.6876  222.6253 H   0  0  0  0  0  0  0  0  0  0  0  0
  138.8313   76.7330  221.1534 H   0  0  0  0  0  0  0  0  0  0  0  0
  139.3314   75.6293  219.8633 H   0  0  0  0  0  0  0  0  0  0  0  0
  138.3626   74.9967  222.6673 H   0  0  0  0  0  0  0  0  0  0  0  0
  137.7165   74.4315  221.0594 H   0  0  0  0  0  0  0  0  0  0  0  0
  140.2321   70.8438  222.1585 H   0  0  0  0  0  0  0  0  0  0  0  0
  137.5190   70.3260  221.5230 H   0  0  0  0  0  0  0  0  0  0  0  0
  138.9640   69.5890  221.0180 H   0  0  0  0  0  0  0  0  0  0  0  0
  138.2864   71.2027  224.3866 H   0  0  0  0  0  0  0  0  0  0  0  0
  138.6214   68.6921  224.1316 H   0  0  0  0  0  0  0  0  0  0  0  0
  140.2792   68.8488  223.6817 H   0  0  0  0  0  0  0  0  0  0  0  0
  139.2121   67.4805  226.5357 H   0  0  0  0  0  0  0  0  0  0  0  0
  139.9159   68.0277  228.8612 H   0  0  0  0  0  0  0  0  0  0  0  0
  140.9213   70.2364  229.3736 H   0  0  0  0  0  0  0  0  0  0  0  0
  141.4600   72.4257  228.6820 H   0  0  0  0  0  0  0  0  0  0  0  0
  142.3964   72.3148  227.1531 H   0  0  0  0  0  0  0  0  0  0  0  0
  140.7617   73.0594  227.1531 H   0  0  0  0  0  0  0  0  0  0  0  0
  140.2892   72.4811  224.8788 H   0  0  0  0  0  0  0  0  0  0  0  0
  141.3722   71.3265  224.1735 H   0  0  0  0  0  0  0  0  0  0  0  0
  141.3513   72.9029  222.1121 H   0  0  0  0  0  0  0  0  0  0  0  0
  140.7145   72.7272  220.3791 H   0  0  0  0  0  0  0  0  0  0  0  0
  142.4903   74.5726  221.1859 H   0  0  0  0  0  0  0  0  0  0  0  0
  141.3730   74.7057  219.7837 H   0  0  0  0  0  0  0  0  0  0  0  0
  1  2  1  0
  2  3  1  0
  3  4  2  0
  3  5  1  0
  5  6  1  0
  6  7  2  0
  7  8  1  0
  8  9  2  0
  9 10  1  0
 10 11  2  0
  5 12  1  0
 12 13  1  0
 13 14  1  0
 14 15  1  0
 15 16  1  0
 16 17  2  0
 16 18  1  0
 18 19  1  0
 18 20  1  0
 20 21  1  0
 21 22  1  0
 22 23  2  0
 23 24  1  0
 24 25  2  0
 25 26  1  0
 26 27  1  0
 26 28  2  0
 28 29  1  0
 15 30  1  0
 30 31  1  0
 11  6  1  0
 31 12  1  0
 29 20  1  0
 28 22  1  0
  1 32  1  0
  1 33  1  0
  1 34  1  0
  2 35  1  0
  2 36  1  0
  7 37  1  0
  8 38  1  0
  9 39  1  0
 10 40  1  0
 11 41  1  0
 12 42  1  0
 13 43  1  0
 13 44  1  0
 14 45  1  0
 14 46  1  0
 18 47  1  6
 19 48  1  0
 19 49  1  0
 20 50  1  1
 21 51  1  0
 21 52  1  0
 23 53  1  0
 24 54  1  0
 25 55  1  0
 27 56  1  0
 27 57  1  0
 27 58  1  0
 29 59  1  0
 29 60  1  0
 30 61  1  0
 30 62  1  0
 31 63  1  0
 31 64  1  0
M  END
>  <smiles>  (67) 
CCC(=O)N(c1ccccc1)C1CCN(C(=O)[C@H](N)C2Cc3cccc(C)c3C2)CC1

>  <score_type>  (67) 
oracle

>  <origin>  (67) 
autodockgpu

>  <m_score__min__energy>  (67) 
-9.3900000000000006

>  <m_primary>  (67) 
energy

>  <rmsd>  (67) 
9.3617468530447

>  <m_score__min__rmsd>  (67) 
9.3617468530447

>  <meeko>  (67) 
{"free_energy": -8.6, "intermolecular_energy": -10.69, "internal_energy": -1.79, "cluster_size": 18, "cluster_id": 2, "rank_in_cluster": 6}

>  <energy>  (67) 
-8.76

>  <cluster_rmsd>  (67) 
0.0

>  <cluster>  (67) 
2

$$$$

     RDKit          3D

 64 67  0  0  0  0  0  0  0  0999 V2000
  141.3490   80.0430  223.4110 C   0  0  0  0  0  0  0  0  0  0  0  0
  141.8310   78.6220  223.1640 C   0  0  0  0  0  0  0  0  0  0  0  0
  140.6850   77.8700  222.6140 C   0  0  0  0  0  0  0  0  0  0  0  0
  139.5380   78.1760  223.0720 O   0  0  0  0  0  0  0  0  0  0  0  0
  140.8420   76.8480  221.6150 N   0  0  0  0  0  0  0  0  0  0  0  0
  141.5230   77.2430  220.4050 C   0  0  0  0  0  0  0  0  0  0  0  0
  142.7290   76.7040  220.0370 C   0  0  0  0  0  0  0  0  0  0  0  0
  143.3150   77.1380  218.8560 C   0  0  0  0  0  0  0  0  0  0  0  0
  142.7040   78.0910  218.0590 C   0  0  0  0  0  0  0  0  0  0  0  0
  141.4810   78.6200  218.4550 C   0  0  0  0  0  0  0  0  0  0  0  0
  140.8640   78.2070  219.6370 C   0  0  0  0  0  0  0  0  0  0  0  0
  140.3560   75.5160  221.8100 C   0  0  0  0  0  0  0  0  0  0  0  0
  138.9060   75.3710  221.3190 C   0  0  0  0  0  0  0  0  0  0  0  0
  138.3840   74.1290  221.9510 C   0  0  0  0  0  0  0  0  0  0  0  0
  139.3330   73.0150  221.8880 N   0  0  0  0  0  0  0  0  0  0  0  0
  138.8200   71.7930  222.4170 C   0  0  0  0  0  0  0  0  0  0  0  0
  137.6390   71.8530  222.8800 O   0  0  0  0  0  0  0  0  0  0  0  0
  139.4980   70.5000  222.4800 C   0  0  2  0  0  0  0  0  0  0  0  0
  138.6160   69.4340  222.2040 N   0  0  0  0  0  0  0  0  0  0  0  0
  140.1920   70.4540  223.8160 C   0  0  1  0  0  0  0  0  0  0  0  0
  140.0910   71.8220  224.4570 C   0  0  0  0  0  0  0  0  0  0  0  0
  140.5040   71.4550  225.8600 C   0  0  0  0  0  0  0  0  0  0  0  0
  141.1420   72.2440  226.8060 C   0  0  0  0  0  0  0  0  0  0  0  0
  141.4180   71.6920  228.0410 C   0  0  0  0  0  0  0  0  0  0  0  0
  141.0640   70.3860  228.3230 C   0  0  0  0  0  0  0  0  0  0  0  0
  140.4200   69.6190  227.3420 C   0  0  0  0  0  0  0  0  0  0  0  0
  140.0170   68.2060  227.6140 C   0  0  0  0  0  0  0  0  0  0  0  0
  140.1360   70.1480  226.1040 C   0  0  0  0  0  0  0  0  0  0  0  0
  139.4850   69.6240  224.8540 C   0  0  0  0  0  0  0  0  0  0  0  0
  140.6530   73.1270  221.3560 C   0  0  0  0  0  0  0  0  0  0  0  0
  141.1320   74.4970  221.0190 C   0  0  0  0  0  0  0  0  0  0  0  0
  141.2869   80.2261  224.4939 H   0  0  0  0  0  0  0  0  0  0  0  0
  142.0563   80.7539  222.9589 H   0  0  0  0  0  0  0  0  0  0  0  0
  140.3552   80.1769  222.9589 H   0  0  0  0  0  0  0  0  0  0  0  0
  142.6626   78.6244  222.4440 H   0  0  0  0  0  0  0  0  0  0  0  0
  142.1938   78.1618  224.0949 H   0  0  0  0  0  0  0  0  0  0  0  0
  143.2207   75.9451  220.6634 H   0  0  0  0  0  0  0  0  0  0  0  0
  144.2832   76.7168  218.5474 H   0  0  0  0  0  0  0  0  0  0  0  0
  143.1798   78.4250  217.1252 H   0  0  0  0  0  0  0  0  0  0  0  0
  140.9908   79.3775  217.8258 H   0  0  0  0  0  0  0  0  0  0  0  0
  139.8962   78.6243  219.9520 H   0  0  0  0  0  0  0  0  0  0  0  0
  140.4529   75.3402  222.8915 H   0  0  0  0  0  0  0  0  0  0  0  0
  138.3077   76.2397  221.6310 H   0  0  0  0  0  0  0  0  0  0  0  0
  138.8545   75.3182  220.2215 H   0  0  0  0  0  0  0  0  0  0  0  0
  138.1601   74.3400  223.0071 H   0  0  0  0  0  0  0  0  0  0  0  0
  137.4845   73.8282  221.3940 H   0  0  0  0  0  0  0  0  0  0  0  0
  140.2591   70.3805  221.6948 H   0  0  0  0  0  0  0  0  0  0  0  0
  138.8490   68.5250  222.6520 H   0  0  0  0  0  0  0  0  0  0  0  0
  137.6120   69.6310  222.2860 H   0  0  0  0  0  0  0  0  0  0  0  0
  141.1967   70.0684  223.5884 H   0  0  0  0  0  0  0  0  0  0  0  0
  140.7826   72.5444  223.9989 H   0  0  0  0  0  0  0  0  0  0  0  0
  139.1128   72.3167  224.3655 H   0  0  0  0  0  0  0  0  0  0  0  0
  141.4210   73.2833  226.5779 H   0  0  0  0  0  0  0  0  0  0  0  0
  141.9242   72.2971  228.8076 H   0  0  0  0  0  0  0  0  0  0  0  0
  141.2858   69.9520  229.3091 H   0  0  0  0  0  0  0  0  0  0  0  0
  139.9699   68.0408  228.7005 H   0  0  0  0  0  0  0  0  0  0  0  0
  139.0285   68.0149  227.1709 H   0  0  0  0  0  0  0  0  0  0  0  0
  140.7559   67.5222  227.1709 H   0  0  0  0  0  0  0  0  0  0  0  0
  139.6756   68.5496  224.7153 H   0  0  0  0  0  0  0  0  0  0  0  0
  138.3879   69.7024  224.8380 H   0  0  0  0  0  0  0  0  0  0  0  0
  141.3469   72.7060  222.0985 H   0  0  0  0  0  0  0  0  0  0  0  0
  140.6206   72.5912  220.3958 H   0  0  0  0  0  0  0  0  0  0  0  0
  142.2010   74.5810  221.2642 H   0  0  0  0  0  0  0  0  0  0  0  0
  140.9833   74.6803  219.9446 H   0  0  0  0  0  0  0  0  0  0  0  0
  1  2  1  0
  2  3  1  0
  3  4  2  0
  3  5  1  0
  5  6  1  0
  6  7  2  0
  7  8  1  0
  8  9  2  0
  9 10  1  0
 10 11  2  0
  5 12  1  0
 12 13  1  0
 13 14  1  0
 14 15  1  0
 15 16  1  0
 16 17  2  0
 16 18  1  0
 18 19  1  0
 18 20  1  0
 20 21  1  0
 21 22  1  0
 22 23  2  0
 23 24  1  0
 24 25  2  0
 25 26  1  0
 26 27  1  0
 26 28  2  0
 28 29  1  0
 15 30  1  0
 30 31  1  0
 11  6  1  0
 31 12  1  0
 29 20  1  0
 28 22  1  0
  1 32  1  0
  1 33  1  0
  1 34  1  0
  2 35  1  0
  2 36  1  0
  7 37  1  0
  8 38  1  0
  9 39  1  0
 10 40  1  0
 11 41  1  0
 12 42  1  0
 13 43  1  0
 13 44  1  0
 14 45  1  0
 14 46  1  0
 18 47  1  6
 19 48  1  0
 19 49  1  0
 20 50  1  6
 21 51  1  0
 21 52  1  0
 23 53  1  0
 24 54  1  0
 25 55  1  0
 27 56  1  0
 27 57  1  0
 27 58  1  0
 29 59  1  0
 29 60  1  0
 30 61  1  0
 30 62  1  0
 31 63  1  0
 31 64  1  0
M  END
>  <smiles>  (68) 
CCC(=O)N(c1ccccc1)C1CCN(C(=O)[C@H](N)C2Cc3cccc(C)c3C2)CC1

>  <score_type>  (68) 
oracle

>  <origin>  (68) 
autodockgpu

>  <m_score__min__energy>  (68) 
-9.3900000000000006

>  <m_primary>  (68) 
energy

>  <rmsd>  (68) 
8.218179519866109

>  <m_score__min__rmsd>  (68) 
8.218179519866109

>  <meeko>  (68) 
{"free_energy": -7.93, "intermolecular_energy": -10.02, "internal_energy": -1.98, "cluster_size": 1, "cluster_id": 6, "rank_in_cluster": 1}

>  <energy>  (68) 
-8.72

>  <cluster_rmsd>  (68) 
0.34

>  <cluster>  (68) 
2

$$$$

     RDKit          3D

 64 67  0  0  0  0  0  0  0  0999 V2000
  142.2090   80.1330  223.7030 C   0  0  0  0  0  0  0  0  0  0  0  0
  141.8240   78.6660  223.8020 C   0  0  0  0  0  0  0  0  0  0  0  0
  140.7050   78.4520  222.8620 C   0  0  0  0  0  0  0  0  0  0  0  0
  139.6380   79.1020  223.1010 O   0  0  0  0  0  0  0  0  0  0  0  0
  140.8020   77.5620  221.7360 N   0  0  0  0  0  0  0  0  0  0  0  0
  141.3800   78.1190  220.5370 C   0  0  0  0  0  0  0  0  0  0  0  0
  141.9840   77.3360  219.5860 C   0  0  0  0  0  0  0  0  0  0  0  0
  142.5120   77.9520  218.4600 C   0  0  0  0  0  0  0  0  0  0  0  0
  142.4370   79.3230  218.2890 C   0  0  0  0  0  0  0  0  0  0  0  0
  141.8180   80.0930  219.2680 C   0  0  0  0  0  0  0  0  0  0  0  0
  141.2770   79.5080  220.4130 C   0  0  0  0  0  0  0  0  0  0  0  0
  140.3560   76.2040  221.8020 C   0  0  0  0  0  0  0  0  0  0  0  0
  139.2140   75.9400  220.8060 C   0  0  0  0  0  0  0  0  0  0  0  0
  138.5640   74.6800  221.2580 C   0  0  0  0  0  0  0  0  0  0  0  0
  139.5270   73.6380  221.6180 N   0  0  0  0  0  0  0  0  0  0  0  0
  138.9220   72.3960  221.9770 C   0  0  0  0  0  0  0  0  0  0  0  0
  137.6530   72.3820  221.9530 O   0  0  0  0  0  0  0  0  0  0  0  0
  139.5980   71.1580  222.3600 C   0  0  2  0  0  0  0  0  0  0  0  0
  139.1360   70.0570  221.6100 N   0  0  0  0  0  0  0  0  0  0  0  0
  139.4520   71.0450  223.8550 C   0  0  1  0  0  0  0  0  0  0  0  0
  139.4890   69.5790  224.2330 C   0  0  0  0  0  0  0  0  0  0  0  0
  139.6880   69.7240  225.7200 C   0  0  0  0  0  0  0  0  0  0  0  0
  139.2800   68.8690  226.7330 C   0  0  0  0  0  0  0  0  0  0  0  0
  139.5830   69.2060  228.0370 C   0  0  0  0  0  0  0  0  0  0  0  0
  140.2760   70.3680  228.3200 C   0  0  0  0  0  0  0  0  0  0  0  0
  140.6720   71.2080  227.2700 C   0  0  0  0  0  0  0  0  0  0  0  0
  141.4290   72.4680  227.5400 C   0  0  0  0  0  0  0  0  0  0  0  0
  140.3810   70.8920  225.9640 C   0  0  0  0  0  0  0  0  0  0  0  0
  140.6370   71.5480  224.6350 C   0  0  0  0  0  0  0  0  0  0  0  0
  140.9410   73.8320  221.6220 C   0  0  0  0  0  0  0  0  0  0  0  0
  141.4330   75.2240  221.4200 C   0  0  0  0  0  0  0  0  0  0  0  0
  142.3190   80.5522  224.7140 H   0  0  0  0  0  0  0  0  0  0  0  0
  143.1620   80.2263  223.1617 H   0  0  0  0  0  0  0  0  0  0  0  0
  141.4246   80.6822  223.1617 H   0  0  0  0  0  0  0  0  0  0  0  0
  142.6782   78.0311  223.5241 H   0  0  0  0  0  0  0  0  0  0  0  0
  141.5309   78.4042  224.8294 H   0  0  0  0  0  0  0  0  0  0  0  0
  142.0483   76.2453  219.7130 H   0  0  0  0  0  0  0  0  0  0  0  0
  142.9997   77.3383  217.6883 H   0  0  0  0  0  0  0  0  0  0  0  0
  142.8609   79.7972  217.3915 H   0  0  0  0  0  0  0  0  0  0  0  0
  141.7539   81.1833  219.1370 H   0  0  0  0  0  0  0  0  0  0  0  0
  140.7882   80.1160  221.1885 H   0  0  0  0  0  0  0  0  0  0  0  0
  140.0420   76.0645  222.8470 H   0  0  0  0  0  0  0  0  0  0  0  0
  138.4925   76.7702  220.8219 H   0  0  0  0  0  0  0  0  0  0  0  0
  139.5880   75.8550  219.7750 H   0  0  0  0  0  0  0  0  0  0  0  0
  137.9423   74.9021  222.1379 H   0  0  0  0  0  0  0  0  0  0  0  0
  137.9647   74.2988  220.4181 H   0  0  0  0  0  0  0  0  0  0  0  0
  140.6714   71.1687  222.1198 H   0  0  0  0  0  0  0  0  0  0  0  0
  139.3470   69.1180  222.0040 H   0  0  0  0  0  0  0  0  0  0  0  0
  138.1670   70.0990  221.2740 H   0  0  0  0  0  0  0  0  0  0  0  0
  138.5351   71.6089  224.0817 H   0  0  0  0  0  0  0  0  0  0  0  0
  138.5461   69.0667  223.9910 H   0  0  0  0  0  0  0  0  0  0  0  0
  140.2457   68.9748  223.7111 H   0  0  0  0  0  0  0  0  0  0  0  0
  138.7287   67.9453  226.5031 H   0  0  0  0  0  0  0  0  0  0  0  0
  139.2702   68.5440  228.8580 H   0  0  0  0  0  0  0  0  0  0  0  0
  140.5149   70.6315  229.3609 H   0  0  0  0  0  0  0  0  0  0  0  0
  141.5182   72.6165  228.6263 H   0  0  0  0  0  0  0  0  0  0  0  0
  142.4329   72.3949  227.0962 H   0  0  0  0  0  0  0  0  0  0  0  0
  140.8931   73.3200  227.0962 H   0  0  0  0  0  0  0  0  0  0  0  0
  140.6355   72.6450  224.7155 H   0  0  0  0  0  0  0  0  0  0  0  0
  141.6149   71.3165  224.1877 H   0  0  0  0  0  0  0  0  0  0  0  0
  141.3211   73.4833  222.5935 H   0  0  0  0  0  0  0  0  0  0  0  0
  141.3092   73.2695  220.7513 H   0  0  0  0  0  0  0  0  0  0  0  0
  142.3202   75.3928  222.0479 H   0  0  0  0  0  0  0  0  0  0  0  0
  141.6964   75.3669  220.3616 H   0  0  0  0  0  0  0  0  0  0  0  0
  1  2  1  0
  2  3  1  0
  3  4  2  0
  3  5  1  0
  5  6  1  0
  6  7  2  0
  7  8  1  0
  8  9  2  0
  9 10  1  0
 10 11  2  0
  5 12  1  0
 12 13  1  0
 13 14  1  0
 14 15  1  0
 15 16  1  0
 16 17  2  0
 16 18  1  0
 18 19  1  0
 18 20  1  0
 20 21  1  0
 21 22  1  0
 22 23  2  0
 23 24  1  0
 24 25  2  0
 25 26  1  0
 26 27  1  0
 26 28  2  0
 28 29  1  0
 15 30  1  0
 30 31  1  0
 11  6  1  0
 31 12  1  0
 29 20  1  0
 28 22  1  0
  1 32  1  0
  1 33  1  0
  1 34  1  0
  2 35  1  0
  2 36  1  0
  7 37  1  0
  8 38  1  0
  9 39  1  0
 10 40  1  0
 11 41  1  0
 12 42  1  0
 13 43  1  0
 13 44  1  0
 14 45  1  0
 14 46  1  0
 18 47  1  1
 19 48  1  0
 19 49  1  0
 20 50  1  1
 21 51  1  0
 21 52  1  0
 23 53  1  0
 24 54  1  0
 25 55  1  0
 27 56  1  0
 27 57  1  0
 27 58  1  0
 29 59  1  0
 29 60  1  0
 30 61  1  0
 30 62  1  0
 31 63  1  0
 31 64  1  0
M  END
>  <smiles>  (69) 
CCC(=O)N(c1ccccc1)C1CCN(C(=O)[C@H](N)C2Cc3cccc(C)c3C2)CC1

>  <score_type>  (69) 
oracle

>  <origin>  (69) 
autodockgpu

>  <m_score__min__energy>  (69) 
-9.3900000000000006

>  <m_primary>  (69) 
energy

>  <rmsd>  (69) 
9.081867880966357

>  <m_score__min__rmsd>  (69) 
9.081867880966357

>  <meeko>  (69) 
{"free_energy": -8.38, "intermolecular_energy": -10.46, "internal_energy": -1.61, "cluster_size": 12, "cluster_id": 4, "rank_in_cluster": 4}

>  <energy>  (69) 
-8.66

>  <cluster_rmsd>  (69) 
0.3

>  <cluster>  (69) 
2

$$$$

     RDKit          3D

 64 67  0  0  0  0  0  0  0  0999 V2000
  142.6250   78.8730  218.3060 C   0  0  0  0  0  0  0  0  0  0  0  0
  142.5230   77.5810  219.1010 C   0  0  0  0  0  0  0  0  0  0  0  0
  141.1270   77.4780  219.5730 C   0  0  0  0  0  0  0  0  0  0  0  0
  140.2220   77.7030  218.7070 O   0  0  0  0  0  0  0  0  0  0  0  0
  140.7950   77.1410  220.9310 N   0  0  0  0  0  0  0  0  0  0  0  0
  141.0340   78.1690  221.9160 C   0  0  0  0  0  0  0  0  0  0  0  0
  142.2180   78.8590  221.9760 C   0  0  0  0  0  0  0  0  0  0  0  0
  142.3650   79.8340  222.9530 C   0  0  0  0  0  0  0  0  0  0  0  0
  141.3480   80.1120  223.8500 C   0  0  0  0  0  0  0  0  0  0  0  0
  140.1580   79.3990  223.7650 C   0  0  0  0  0  0  0  0  0  0  0  0
  139.9750   78.4110  222.7960 C   0  0  0  0  0  0  0  0  0  0  0  0
  140.2550   75.8630  221.2850 C   0  0  0  0  0  0  0  0  0  0  0  0
  138.7970   75.7220  220.8180 C   0  0  0  0  0  0  0  0  0  0  0  0
  138.2290   74.5870  221.5950 C   0  0  0  0  0  0  0  0  0  0  0  0
  139.1300   73.4350  221.6630 N   0  0  0  0  0  0  0  0  0  0  0  0
  138.5710   72.3080  222.3360 C   0  0  0  0  0  0  0  0  0  0  0  0
  137.3970   72.4720  222.7900 O   0  0  0  0  0  0  0  0  0  0  0  0
  139.1960   71.0030  222.5510 C   0  0  2  0  0  0  0  0  0  0  0  0
  138.5480   69.9870  221.8190 N   0  0  0  0  0  0  0  0  0  0  0  0
  139.2530   70.8070  224.0440 C   0  0  1  0  0  0  0  0  0  0  0  0
  139.5320   69.3450  224.3250 C   0  0  0  0  0  0  0  0  0  0  0  0
  139.8950   69.4520  225.7850 C   0  0  0  0  0  0  0  0  0  0  0  0
  139.7350   68.5050  226.7850 C   0  0  0  0  0  0  0  0  0  0  0  0
  140.1510   68.8250  228.0630 C   0  0  0  0  0  0  0  0  0  0  0  0
  140.7120   70.0590  228.3310 C   0  0  0  0  0  0  0  0  0  0  0  0
  140.8590   70.9910  227.2940 C   0  0  0  0  0  0  0  0  0  0  0  0
  141.4680   72.3310  227.5480 C   0  0  0  0  0  0  0  0  0  0  0  0
  140.4510   70.6940  226.0150 C   0  0  0  0  0  0  0  0  0  0  0  0
  140.4490   71.4360  224.7070 C   0  0  0  0  0  0  0  0  0  0  0  0
  140.4500   73.4270  221.1190 C   0  0  0  0  0  0  0  0  0  0  0  0
  140.9830   74.7260  220.6200 C   0  0  0  0  0  0  0  0  0  0  0  0
  142.6923   79.7252  218.9983 H   0  0  0  0  0  0  0  0  0  0  0  0
  143.5236   78.8436  217.6723 H   0  0  0  0  0  0  0  0  0  0  0  0
  141.7329   78.9850  217.6723 H   0  0  0  0  0  0  0  0  0  0  0  0
  142.7702   76.7218  218.4602 H   0  0  0  0  0  0  0  0  0  0  0  0
  143.2261   77.5821  219.9470 H   0  0  0  0  0  0  0  0  0  0  0  0
  143.0313   78.6449  221.2670 H   0  0  0  0  0  0  0  0  0  0  0  0
  143.3081   80.3967  223.0157 H   0  0  0  0  0  0  0  0  0  0  0  0
  141.4799   80.8867  224.6197 H   0  0  0  0  0  0  0  0  0  0  0  0
  139.3458   79.6172  224.4740 H   0  0  0  0  0  0  0  0  0  0  0  0
  139.0343   77.8450  222.7275 H   0  0  0  0  0  0  0  0  0  0  0  0
  140.3514   75.8130  222.3796 H   0  0  0  0  0  0  0  0  0  0  0  0
  138.2375   76.6460  221.0256 H   0  0  0  0  0  0  0  0  0  0  0  0
  138.7351   75.5415  219.7347 H   0  0  0  0  0  0  0  0  0  0  0  0
  138.0220   74.9315  222.6190 H   0  0  0  0  0  0  0  0  0  0  0  0
  137.3137   74.2600  221.0800 H   0  0  0  0  0  0  0  0  0  0  0  0
  140.2224   70.9529  222.1585 H   0  0  0  0  0  0  0  0  0  0  0  0
  137.5620   70.1790  221.5500 H   0  0  0  0  0  0  0  0  0  0  0  0
  139.0660   69.5830  221.0300 H   0  0  0  0  0  0  0  0  0  0  0  0
  138.3052   71.2273  224.4115 H   0  0  0  0  0  0  0  0  0  0  0  0
  138.6429   68.7172  224.1657 H   0  0  0  0  0  0  0  0  0  0  0  0
  140.2906   68.8754  223.6815 H   0  0  0  0  0  0  0  0  0  0  0  0
  139.2882   67.5239  226.5664 H   0  0  0  0  0  0  0  0  0  0  0  0
  140.0346   68.0911  228.8741 H   0  0  0  0  0  0  0  0  0  0  0  0
  141.0409   70.3083  229.3506 H   0  0  0  0  0  0  0  0  0  0  0  0
  141.5445   72.4994  228.6323 H   0  0  0  0  0  0  0  0  0  0  0  0
  142.4716   72.3686  227.0994 H   0  0  0  0  0  0  0  0  0  0  0  0
  140.8363   73.1118  227.0994 H   0  0  0  0  0  0  0  0  0  0  0  0
  140.3118   72.5176  224.8527 H   0  0  0  0  0  0  0  0  0  0  0  0
  141.3852   71.3626  224.1341 H   0  0  0  0  0  0  0  0  0  0  0  0
  141.1309   73.0687  221.9051 H   0  0  0  0  0  0  0  0  0  0  0  0
  140.3890   72.7823  220.2298 H   0  0  0  0  0  0  0  0  0  0  0  0
  142.0562   74.7939  220.8516 H   0  0  0  0  0  0  0  0  0  0  0  0
  140.8350   74.7861  219.5316 H   0  0  0  0  0  0  0  0  0  0  0  0
  1  2  1  0
  2  3  1  0
  3  4  2  0
  3  5  1  0
  5  6  1  0
  6  7  2  0
  7  8  1  0
  8  9  2  0
  9 10  1  0
 10 11  2  0
  5 12  1  0
 12 13  1  0
 13 14  1  0
 14 15  1  0
 15 16  1  0
 16 17  2  0
 16 18  1  0
 18 19  1  0
 18 20  1  0
 20 21  1  0
 21 22  1  0
 22 23  2  0
 23 24  1  0
 24 25  2  0
 25 26  1  0
 26 27  1  0
 26 28  2  0
 28 29  1  0
 15 30  1  0
 30 31  1  0
 11  6  1  0
 31 12  1  0
 29 20  1  0
 28 22  1  0
  1 32  1  0
  1 33  1  0
  1 34  1  0
  2 35  1  0
  2 36  1  0
  7 37  1  0
  8 38  1  0
  9 39  1  0
 10 40  1  0
 11 41  1  0
 12 42  1  0
 13 43  1  0
 13 44  1  0
 14 45  1  0
 14 46  1  0
 18 47  1  6
 19 48  1  0
 19 49  1  0
 20 50  1  1
 21 51  1  0
 21 52  1  0
 23 53  1  0
 24 54  1  0
 25 55  1  0
 27 56  1  0
 27 57  1  0
 27 58  1  0
 29 59  1  0
 29 60  1  0
 30 61  1  0
 30 62  1  0
 31 63  1  0
 31 64  1  0
M  END
>  <smiles>  (70) 
CCC(=O)N(c1ccccc1)C1CCN(C(=O)[C@H](N)C2Cc3cccc(C)c3C2)CC1

>  <score_type>  (70) 
oracle

>  <origin>  (70) 
autodockgpu

>  <m_score__min__energy>  (70) 
-9.3900000000000006

>  <m_primary>  (70) 
energy

>  <rmsd>  (70) 
9.337585095181817

>  <m_score__min__rmsd>  (70) 
9.337585095181817

>  <meeko>  (70) 
{"free_energy": -8.25, "intermolecular_energy": -10.34, "internal_energy": -1.72, "cluster_size": 18, "cluster_id": 2, "rank_in_cluster": 14}

>  <energy>  (70) 
-8.65

>  <cluster_rmsd>  (70) 
0.29

>  <cluster>  (70) 
2

$$$$

     RDKit          3D

 64 67  0  0  0  0  0  0  0  0999 V2000
  142.1740   79.4270  218.7610 C   0  0  0  0  0  0  0  0  0  0  0  0
  141.3680   78.1410  218.8540 C   0  0  0  0  0  0  0  0  0  0  0  0
  141.9280   77.3640  219.9770 C   0  0  0  0  0  0  0  0  0  0  0  0
  143.1090   76.9160  219.8190 O   0  0  0  0  0  0  0  0  0  0  0  0
  141.1930   77.1190  221.1880 N   0  0  0  0  0  0  0  0  0  0  0  0
  141.1000   78.2270  222.1090 C   0  0  0  0  0  0  0  0  0  0  0  0
  139.9780   78.4580  222.8620 C   0  0  0  0  0  0  0  0  0  0  0  0
  139.9730   79.5450  223.7250 C   0  0  0  0  0  0  0  0  0  0  0  0
  141.0700   80.3830  223.8320 C   0  0  0  0  0  0  0  0  0  0  0  0
  142.1950   80.1240  223.0580 C   0  0  0  0  0  0  0  0  0  0  0  0
  142.2350   79.0410  222.1790 C   0  0  0  0  0  0  0  0  0  0  0  0
  140.5840   75.8530  221.4640 C   0  0  0  0  0  0  0  0  0  0  0  0
  139.1680   75.7700  220.8700 C   0  0  0  0  0  0  0  0  0  0  0  0
  138.5010   74.6380  221.5680 C   0  0  0  0  0  0  0  0  0  0  0  0
  139.3560   73.4560  221.6850 N   0  0  0  0  0  0  0  0  0  0  0  0
  138.7060   72.3330  222.2790 C   0  0  0  0  0  0  0  0  0  0  0  0
  137.5030   72.5260  222.6360 O   0  0  0  0  0  0  0  0  0  0  0  0
  139.2690   71.0040  222.5150 C   0  0  2  0  0  0  0  0  0  0  0  0
  138.6030   70.0140  221.7620 N   0  0  0  0  0  0  0  0  0  0  0  0
  139.2700   70.8080  224.0080 C   0  0  1  0  0  0  0  0  0  0  0  0
  139.5160   69.3420  224.3000 C   0  0  0  0  0  0  0  0  0  0  0  0
  139.8280   69.4440  225.7720 C   0  0  0  0  0  0  0  0  0  0  0  0
  139.6170   68.5010  226.7660 C   0  0  0  0  0  0  0  0  0  0  0  0
  139.9920   68.8150  228.0570 C   0  0  0  0  0  0  0  0  0  0  0  0
  140.5630   70.0400  228.3460 C   0  0  0  0  0  0  0  0  0  0  0  0
  140.7610   70.9680  227.3140 C   0  0  0  0  0  0  0  0  0  0  0  0
  141.3820   72.3000  227.5890 C   0  0  0  0  0  0  0  0  0  0  0  0
  140.3950   70.6770  226.0210 C   0  0  0  0  0  0  0  0  0  0  0  0
  140.4510   71.4180  224.7140 C   0  0  0  0  0  0  0  0  0  0  0  0
  140.7160   73.4160  221.2550 C   0  0  0  0  0  0  0  0  0  0  0  0
  141.3310   74.7060  220.8350 C   0  0  0  0  0  0  0  0  0  0  0  0
  142.4020   79.7909  219.7737 H   0  0  0  0  0  0  0  0  0  0  0  0
  143.1125   79.2333  218.2210 H   0  0  0  0  0  0  0  0  0  0  0  0
  141.5905   80.1872  218.2210 H   0  0  0  0  0  0  0  0  0  0  0  0
  140.3093   78.3711  219.0441 H   0  0  0  0  0  0  0  0  0  0  0  0
  141.4251   77.5719  217.9144 H   0  0  0  0  0  0  0  0  0  0  0  0
  139.1020   77.7972  222.7841 H   0  0  0  0  0  0  0  0  0  0  0  0
  139.0802   79.7446  224.3358 H   0  0  0  0  0  0  0  0  0  0  0  0
  141.0514   81.2414  224.5197 H   0  0  0  0  0  0  0  0  0  0  0  0
  143.0703   80.7852  223.1399 H   0  0  0  0  0  0  0  0  0  0  0  0
  143.1244   78.8356  221.5652 H   0  0  0  0  0  0  0  0  0  0  0  0
  140.5835   75.7772  222.5614 H   0  0  0  0  0  0  0  0  0  0  0  0
  138.6212   76.7071  221.0510 H   0  0  0  0  0  0  0  0  0  0  0  0
  139.1943   75.6151  219.7813 H   0  0  0  0  0  0  0  0  0  0  0  0
  138.2175   74.9672  222.5786 H   0  0  0  0  0  0  0  0  0  0  0  0
  137.6240   74.3522  220.9687 H   0  0  0  0  0  0  0  0  0  0  0  0
  140.3048   70.9110  222.1565 H   0  0  0  0  0  0  0  0  0  0  0  0
  137.6370   70.2480  221.4580 H   0  0  0  0  0  0  0  0  0  0  0  0
  139.1300   69.5850  220.9940 H   0  0  0  0  0  0  0  0  0  0  0  0
  138.3162   71.2437  224.3402 H   0  0  0  0  0  0  0  0  0  0  0  0
  138.6235   68.7280  224.1091 H   0  0  0  0  0  0  0  0  0  0  0  0
  140.2901   68.8604  223.6845 H   0  0  0  0  0  0  0  0  0  0  0  0
  139.1623   67.5271  226.5320 H   0  0  0  0  0  0  0  0  0  0  0  0
  139.8349   68.0834  228.8632 H   0  0  0  0  0  0  0  0  0  0  0  0
  140.8595   70.2847  229.3766 H   0  0  0  0  0  0  0  0  0  0  0  0
  141.4537   72.4538  228.6758 H   0  0  0  0  0  0  0  0  0  0  0  0
  142.3886   72.3336  227.1467 H   0  0  0  0  0  0  0  0  0  0  0  0
  140.7606   73.0926  227.1467 H   0  0  0  0  0  0  0  0  0  0  0  0
  140.3256   72.5017  224.8549 H   0  0  0  0  0  0  0  0  0  0  0  0
  141.4058   71.3292  224.1750 H   0  0  0  0  0  0  0  0  0  0  0  0
  141.3155   73.0180  222.0870 H   0  0  0  0  0  0  0  0  0  0  0  0
  140.7105   72.7937  220.3480 H   0  0  0  0  0  0  0  0  0  0  0  0
  142.3819   74.7326  221.1588 H   0  0  0  0  0  0  0  0  0  0  0  0
  141.2796   74.7946  219.7398 H   0  0  0  0  0  0  0  0  0  0  0  0
  1  2  1  0
  2  3  1  0
  3  4  2  0
  3  5  1  0
  5  6  1  0
  6  7  2  0
  7  8  1  0
  8  9  2  0
  9 10  1  0
 10 11  2  0
  5 12  1  0
 12 13  1  0
 13 14  1  0
 14 15  1  0
 15 16  1  0
 16 17  2  0
 16 18  1  0
 18 19  1  0
 18 20  1  0
 20 21  1  0
 21 22  1  0
 22 23  2  0
 23 24  1  0
 24 25  2  0
 25 26  1  0
 26 27  1  0
 26 28  2  0
 28 29  1  0
 15 30  1  0
 30 31  1  0
 11  6  1  0
 31 12  1  0
 29 20  1  0
 28 22  1  0
  1 32  1  0
  1 33  1  0
  1 34  1  0
  2 35  1  0
  2 36  1  0
  7 37  1  0
  8 38  1  0
  9 39  1  0
 10 40  1  0
 11 41  1  0
 12 42  1  0
 13 43  1  0
 13 44  1  0
 14 45  1  0
 14 46  1  0
 18 47  1  6
 19 48  1  0
 19 49  1  0
 20 50  1  1
 21 51  1  0
 21 52  1  0
 23 53  1  0
 24 54  1  0
 25 55  1  0
 27 56  1  0
 27 57  1  0
 27 58  1  0
 29 59  1  0
 29 60  1  0
 30 61  1  0
 30 62  1  0
 31 63  1  0
 31 64  1  0
M  END
>  <smiles>  (71) 
CCC(=O)N(c1ccccc1)C1CCN(C(=O)[C@H](N)C2Cc3cccc(C)c3C2)CC1

>  <score_type>  (71) 
oracle

>  <origin>  (71) 
autodockgpu

>  <m_score__min__energy>  (71) 
-9.3900000000000006

>  <m_primary>  (71) 
energy

>  <rmsd>  (71) 
9.323395494852047

>  <m_score__min__rmsd>  (71) 
9.323395494852047

>  <meeko>  (71) 
{"free_energy": -8.65, "intermolecular_energy": -10.74, "internal_energy": -1.81, "cluster_size": 18, "cluster_id": 2, "rank_in_cluster": 4}

>  <energy>  (71) 
-8.63

>  <cluster_rmsd>  (71) 
0.27

>  <cluster>  (71) 
2

$$$$

     RDKit          3D

 64 67  0  0  0  0  0  0  0  0999 V2000
  146.6880   73.8180  220.6910 C   0  0  0  0  0  0  0  0  0  0  0  0
  145.4330   73.0250  221.0170 C   0  0  0  0  0  0  0  0  0  0  0  0
  145.1830   72.1270  219.8710 C   0  0  0  0  0  0  0  0  0  0  0  0
  145.9400   72.2800  218.8600 O   0  0  0  0  0  0  0  0  0  0  0  0
  144.1460   71.1310  219.8840 N   0  0  0  0  0  0  0  0  0  0  0  0
  144.4650   69.8760  219.2470 C   0  0  0  0  0  0  0  0  0  0  0  0
  144.7350   69.7870  217.9050 C   0  0  0  0  0  0  0  0  0  0  0  0
  145.0350   68.5410  217.3720 C   0  0  0  0  0  0  0  0  0  0  0  0
  145.0650   67.4080  218.1670 C   0  0  0  0  0  0  0  0  0  0  0  0
  144.7890   67.5270  219.5240 C   0  0  0  0  0  0  0  0  0  0  0  0
  144.4820   68.7640  220.0940 C   0  0  0  0  0  0  0  0  0  0  0  0
  142.8730   71.3690  220.4950 C   0  0  0  0  0  0  0  0  0  0  0  0
  142.3050   72.7400  220.0920 C   0  0  0  0  0  0  0  0  0  0  0  0
  141.2460   73.0500  221.0900 C   0  0  0  0  0  0  0  0  0  0  0  0
  140.3730   71.9080  221.3690 N   0  0  0  0  0  0  0  0  0  0  0  0
  139.3020   72.2090  222.2630 C   0  0  0  0  0  0  0  0  0  0  0  0
  139.2740   73.4010  222.6980 O   0  0  0  0  0  0  0  0  0  0  0  0
  138.2490   71.3050  222.7220 C   0  0  2  0  0  0  0  0  0  0  0  0
  136.9730   71.8960  222.6230 N   0  0  0  0  0  0  0  0  0  0  0  0
  138.6590   70.8460  224.0970 C   0  0  1  0  0  0  0  0  0  0  0  0
  139.1450   69.4150  224.0020 C   0  0  0  0  0  0  0  0  0  0  0  0
  139.8120   69.3020  225.3490 C   0  0  0  0  0  0  0  0  0  0  0  0
  139.9780   68.1740  226.1380 C   0  0  0  0  0  0  0  0  0  0  0  0
  140.6340   68.3090  227.3460 C   0  0  0  0  0  0  0  0  0  0  0  0
  141.1090   69.5410  227.7530 C   0  0  0  0  0  0  0  0  0  0  0  0
  140.9220   70.6600  226.9300 C   0  0  0  0  0  0  0  0  0  0  0  0
  141.4290   72.0050  227.3360 C   0  0  0  0  0  0  0  0  0  0  0  0
  140.2720   70.5480  225.7230 C   0  0  0  0  0  0  0  0  0  0  0  0
  139.9010   71.5100  224.6290 C   0  0  0  0  0  0  0  0  0  0  0  0
  140.5670   70.6080  220.8140 C   0  0  0  0  0  0  0  0  0  0  0  0
  141.8290   70.3770  220.0560 C   0  0  0  0  0  0  0  0  0  0  0  0
  147.1788   74.1281  221.6253 H   0  0  0  0  0  0  0  0  0  0  0  0
  147.3765   73.1906  220.1059 H   0  0  0  0  0  0  0  0  0  0  0  0
  146.4170   74.7092  220.1059 H   0  0  0  0  0  0  0  0  0  0  0  0
  145.5853   72.4356  221.9332 H   0  0  0  0  0  0  0  0  0  0  0  0
  144.5770   73.6947  221.1864 H   0  0  0  0  0  0  0  0  0  0  0  0
  144.7142   70.6822  217.2662 H   0  0  0  0  0  0  0  0  0  0  0  0
  145.2531   68.4521  216.2975 H   0  0  0  0  0  0  0  0  0  0  0  0
  145.3040   66.4269  217.7307 H   0  0  0  0  0  0  0  0  0  0  0  0
  144.8129   66.6302  220.1605 H   0  0  0  0  0  0  0  0  0  0  0  0
  144.2621   68.8598  221.1675 H   0  0  0  0  0  0  0  0  0  0  0  0
  143.0646   71.2957  221.5757 H   0  0  0  0  0  0  0  0  0  0  0  0
  143.0946   73.5053  220.1213 H   0  0  0  0  0  0  0  0  0  0  0  0
  141.9042   72.7267  219.0677 H   0  0  0  0  0  0  0  0  0  0  0  0
  141.7285   73.3603  222.0286 H   0  0  0  0  0  0  0  0  0  0  0  0
  140.6189   73.8491  220.6679 H   0  0  0  0  0  0  0  0  0  0  0  0
  138.1431   70.4169  222.0816 H   0  0  0  0  0  0  0  0  0  0  0  0
  136.9240   72.9100  222.8490 H   0  0  0  0  0  0  0  0  0  0  0  0
  136.4310   71.6880  221.7770 H   0  0  0  0  0  0  0  0  0  0  0  0
  137.7780   71.0469  224.7243 H   0  0  0  0  0  0  0  0  0  0  0  0
  138.3133   68.7034  223.8927 H   0  0  0  0  0  0  0  0  0  0  0  0
  139.7857   69.1897  223.1367 H   0  0  0  0  0  0  0  0  0  0  0  0
  139.5967   67.1957  225.8100 H   0  0  0  0  0  0  0  0  0  0  0  0
  140.7795   67.4286  227.9892 H   0  0  0  0  0  0  0  0  0  0  0  0
  141.6303   69.6429  228.7163 H   0  0  0  0  0  0  0  0  0  0  0  0
  141.4540   72.0714  228.4337 H   0  0  0  0  0  0  0  0  0  0  0  0
  142.4436   72.1503  226.9366 H   0  0  0  0  0  0  0  0  0  0  0  0
  140.7628   72.7839  226.9366 H   0  0  0  0  0  0  0  0  0  0  0  0
  139.6881   72.5140  225.0248 H   0  0  0  0  0  0  0  0  0  0  0  0
  140.6882   71.6816  223.8801 H   0  0  0  0  0  0  0  0  0  0  0  0
  140.5413   69.8860  221.6434 H   0  0  0  0  0  0  0  0  0  0  0  0
  139.7631   70.4914  220.0723 H   0  0  0  0  0  0  0  0  0  0  0  0
  142.1902   69.3562  220.2495 H   0  0  0  0  0  0  0  0  0  0  0  0
  141.6363   70.5027  218.9803 H   0  0  0  0  0  0  0  0  0  0  0  0
  1  2  1  0
  2  3  1  0
  3  4  2  0
  3  5  1  0
  5  6  1  0
  6  7  2  0
  7  8  1  0
  8  9  2  0
  9 10  1  0
 10 11  2  0
  5 12  1  0
 12 13  1  0
 13 14  1  0
 14 15  1  0
 15 16  1  0
 16 17  2  0
 16 18  1  0
 18 19  1  0
 18 20  1  0
 20 21  1  0
 21 22  1  0
 22 23  2  0
 23 24  1  0
 24 25  2  0
 25 26  1  0
 26 27  1  0
 26 28  2  0
 28 29  1  0
 15 30  1  0
 30 31  1  0
 11  6  1  0
 31 12  1  0
 29 20  1  0
 28 22  1  0
  1 32  1  0
  1 33  1  0
  1 34  1  0
  2 35  1  0
  2 36  1  0
  7 37  1  0
  8 38  1  0
  9 39  1  0
 10 40  1  0
 11 41  1  0
 12 42  1  0
 13 43  1  0
 13 44  1  0
 14 45  1  0
 14 46  1  0
 18 47  1  6
 19 48  1  0
 19 49  1  0
 20 50  1  1
 21 51  1  0
 21 52  1  0
 23 53  1  0
 24 54  1  0
 25 55  1  0
 27 56  1  0
 27 57  1  0
 27 58  1  0
 29 59  1  0
 29 60  1  0
 30 61  1  0
 30 62  1  0
 31 63  1  0
 31 64  1  0
M  END
>  <smiles>  (72) 
CCC(=O)N(c1ccccc1)C1CCN(C(=O)[C@H](N)C2Cc3cccc(C)c3C2)CC1

>  <score_type>  (72) 
oracle

>  <origin>  (72) 
autodockgpu

>  <m_score__min__energy>  (72) 
-9.3900000000000006

>  <m_primary>  (72) 
energy

>  <rmsd>  (72) 
9.914742983929251

>  <m_score__min__rmsd>  (72) 
9.914742983929251

>  <meeko>  (72) 
{"free_energy": -8.54, "intermolecular_energy": -10.63, "internal_energy": -2.01, "cluster_size": 16, "cluster_id": 1, "rank_in_cluster": 15}

>  <energy>  (72) 
-8.6

>  <cluster_rmsd>  (72) 
0.27

>  <cluster>  (72) 
2

$$$$

     RDKit          3D

 64 67  0  0  0  0  0  0  0  0999 V2000
  146.7000   73.3460  221.8050 C   0  0  0  0  0  0  0  0  0  0  0  0
  145.3530   73.4010  221.1030 C   0  0  0  0  0  0  0  0  0  0  0  0
  145.3340   72.2950  220.1240 C   0  0  0  0  0  0  0  0  0  0  0  0
  146.3260   72.2290  219.3300 O   0  0  0  0  0  0  0  0  0  0  0  0
  144.2610   71.3390  220.0620 N   0  0  0  0  0  0  0  0  0  0  0  0
  144.5650   70.0870  219.4110 C   0  0  0  0  0  0  0  0  0  0  0  0
  144.4900   68.8860  220.0680 C   0  0  0  0  0  0  0  0  0  0  0  0
  144.7970   67.7280  219.3670 C   0  0  0  0  0  0  0  0  0  0  0  0
  145.1700   67.7730  218.0340 C   0  0  0  0  0  0  0  0  0  0  0  0
  145.2360   69.0040  217.3920 C   0  0  0  0  0  0  0  0  0  0  0  0
  144.9350   70.1880  218.0660 C   0  0  0  0  0  0  0  0  0  0  0  0
  142.9690   71.6110  220.6150 C   0  0  0  0  0  0  0  0  0  0  0  0
  142.4600   72.9990  220.1930 C   0  0  0  0  0  0  0  0  0  0  0  0
  141.3650   73.3370  221.1430 C   0  0  0  0  0  0  0  0  0  0  0  0
  140.4490   72.2190  221.3780 N   0  0  0  0  0  0  0  0  0  0  0  0
  139.3470   72.5480  222.2230 C   0  0  0  0  0  0  0  0  0  0  0  0
  139.3330   73.7390  222.6610 O   0  0  0  0  0  0  0  0  0  0  0  0
  138.2490   71.6720  222.6300 C   0  0  2  0  0  0  0  0  0  0  0  0
  137.0100   72.3460  222.6120 N   0  0  0  0  0  0  0  0  0  0  0  0
  138.6560   71.0750  223.9510 C   0  0  1  0  0  0  0  0  0  0  0  0
  139.1170   69.6520  223.7140 C   0  0  0  0  0  0  0  0  0  0  0  0
  139.7870   69.3970  225.0410 C   0  0  0  0  0  0  0  0  0  0  0  0
  139.9370   68.1940  225.7140 C   0  0  0  0  0  0  0  0  0  0  0  0
  140.5990   68.2000  226.9260 C   0  0  0  0  0  0  0  0  0  0  0  0
  141.0960   69.3780  227.4500 C   0  0  0  0  0  0  0  0  0  0  0  0
  140.9250   70.5750  226.7410 C   0  0  0  0  0  0  0  0  0  0  0  0
  141.4570   71.8660  227.2740 C   0  0  0  0  0  0  0  0  0  0  0  0
  140.2690   70.5930  225.5320 C   0  0  0  0  0  0  0  0  0  0  0  0
  139.9100   71.6630  224.5390 C   0  0  0  0  0  0  0  0  0  0  0  0
  140.6300   70.9160  220.8260 C   0  0  0  0  0  0  0  0  0  0  0  0
  141.9180   70.6510  220.1260 C   0  0  0  0  0  0  0  0  0  0  0  0
  146.5464   73.3523  222.8942 H   0  0  0  0  0  0  0  0  0  0  0  0
  147.2276   72.4256  221.5144 H   0  0  0  0  0  0  0  0  0  0  0  0
  147.3009   74.2204  221.5144 H   0  0  0  0  0  0  0  0  0  0  0  0
  144.5403   73.2737  221.8333 H   0  0  0  0  0  0  0  0  0  0  0  0
  145.2081   74.3708  220.6044 H   0  0  0  0  0  0  0  0  0  0  0  0
  144.1934   68.8412  221.1263 H   0  0  0  0  0  0  0  0  0  0  0  0
  144.7430   66.7563  219.8798 H   0  0  0  0  0  0  0  0  0  0  0  0
  145.4107   66.8473  217.4908 H   0  0  0  0  0  0  0  0  0  0  0  0
  145.5309   69.0455  216.3331 H   0  0  0  0  0  0  0  0  0  0  0  0
  144.9867   71.1630  217.5592 H   0  0  0  0  0  0  0  0  0  0  0  0
  143.1089   71.5283  221.7029 H   0  0  0  0  0  0  0  0  0  0  0  0
  143.2693   73.7408  220.2621 H   0  0  0  0  0  0  0  0  0  0  0  0
  142.1064   73.0005  219.1514 H   0  0  0  0  0  0  0  0  0  0  0  0
  141.8124   73.6320  222.1036 H   0  0  0  0  0  0  0  0  0  0  0  0
  140.7803   74.1542  220.6955 H   0  0  0  0  0  0  0  0  0  0  0  0
  138.0763   70.8490  221.9208 H   0  0  0  0  0  0  0  0  0  0  0  0
  137.0120   73.3110  222.9990 H   0  0  0  0  0  0  0  0  0  0  0  0
  136.4760   72.3090  221.7360 H   0  0  0  0  0  0  0  0  0  0  0  0
  137.7810   71.2286  224.5996 H   0  0  0  0  0  0  0  0  0  0  0  0
  138.2729   68.9685  223.5401 H   0  0  0  0  0  0  0  0  0  0  0  0
  139.7506   69.5014  222.8275 H   0  0  0  0  0  0  0  0  0  0  0  0
  139.5389   67.2588  225.2933 H   0  0  0  0  0  0  0  0  0  0  0  0
  140.7318   67.2585  227.4792 H   0  0  0  0  0  0  0  0  0  0  0  0
  141.6218   69.3764  228.4162 H   0  0  0  0  0  0  0  0  0  0  0  0
  141.4466   71.8408  228.3737 H   0  0  0  0  0  0  0  0  0  0  0  0
  142.4884   72.0115  226.9203 H   0  0  0  0  0  0  0  0  0  0  0  0
  140.8276   72.6959  226.9203 H   0  0  0  0  0  0  0  0  0  0  0  0
  139.7151   72.6268  225.0320 H   0  0  0  0  0  0  0  0  0  0  0  0
  140.6974   71.8940  223.8065 H   0  0  0  0  0  0  0  0  0  0  0  0
  140.5449   70.1919  221.6497 H   0  0  0  0  0  0  0  0  0  0  0  0
  139.8580   70.8258  220.0476 H   0  0  0  0  0  0  0  0  0  0  0  0
  142.2406   69.6198  220.3322 H   0  0  0  0  0  0  0  0  0  0  0  0
  141.7780   70.7852  219.0432 H   0  0  0  0  0  0  0  0  0  0  0  0
  1  2  1  0
  2  3  1  0
  3  4  2  0
  3  5  1  0
  5  6  1  0
  6  7  2  0
  7  8  1  0
  8  9  2  0
  9 10  1  0
 10 11  2  0
  5 12  1  0
 12 13  1  0
 13 14  1  0
 14 15  1  0
 15 16  1  0
 16 17  2  0
 16 18  1  0
 18 19  1  0
 18 20  1  0
 20 21  1  0
 21 22  1  0
 22 23  2  0
 23 24  1  0
 24 25  2  0
 25 26  1  0
 26 27  1  0
 26 28  2  0
 28 29  1  0
 15 30  1  0
 30 31  1  0
 11  6  1  0
 31 12  1  0
 29 20  1  0
 28 22  1  0
  1 32  1  0
  1 33  1  0
  1 34  1  0
  2 35  1  0
  2 36  1  0
  7 37  1  0
  8 38  1  0
  9 39  1  0
 10 40  1  0
 11 41  1  0
 12 42  1  0
 13 43  1  0
 13 44  1  0
 14 45  1  0
 14 46  1  0
 18 47  1  6
 19 48  1  0
 19 49  1  0
 20 50  1  1
 21 51  1  0
 21 52  1  0
 23 53  1  0
 24 54  1  0
 25 55  1  0
 27 56  1  0
 27 57  1  0
 27 58  1  0
 29 59  1  0
 29 60  1  0
 30 61  1  0
 30 62  1  0
 31 63  1  0
 31 64  1  0
M  END
>  <smiles>  (73) 
CCC(=O)N(c1ccccc1)C1CCN(C(=O)[C@H](N)C2Cc3cccc(C)c3C2)CC1

>  <score_type>  (73) 
oracle

>  <origin>  (73) 
autodockgpu

>  <m_score__min__energy>  (73) 
-9.3900000000000006

>  <m_primary>  (73) 
energy

>  <rmsd>  (73) 
9.733126119663304

>  <m_score__min__rmsd>  (73) 
9.733126119663304

>  <meeko>  (73) 
{"free_energy": -8.73, "intermolecular_energy": -10.81, "internal_energy": -2.02, "cluster_size": 16, "cluster_id": 1, "rank_in_cluster": 12}

>  <energy>  (73) 
-8.59

>  <cluster_rmsd>  (73) 
0.29

>  <cluster>  (73) 
2

$$$$

     RDKit          3D

 64 67  0  0  0  0  0  0  0  0999 V2000
  145.7700   74.1350  220.8480 C   0  0  0  0  0  0  0  0  0  0  0  0
  146.3100   72.7200  220.7260 C   0  0  0  0  0  0  0  0  0  0  0  0
  145.5870   72.0800  219.6080 C   0  0  0  0  0  0  0  0  0  0  0  0
  145.9220   72.4470  218.4370 O   0  0  0  0  0  0  0  0  0  0  0  0
  144.5600   71.0950  219.8180 N   0  0  0  0  0  0  0  0  0  0  0  0
  144.8720   69.7530  219.3900 C   0  0  0  0  0  0  0  0  0  0  0  0
  144.4740   68.6490  220.1000 C   0  0  0  0  0  0  0  0  0  0  0  0
  144.8140   67.3930  219.6160 C   0  0  0  0  0  0  0  0  0  0  0  0
  145.5370   67.2460  218.4450 C   0  0  0  0  0  0  0  0  0  0  0  0
  145.9260   68.3810  217.7440 C   0  0  0  0  0  0  0  0  0  0  0  0
  145.6030   69.6600  218.2010 C   0  0  0  0  0  0  0  0  0  0  0  0
  143.3040   71.4260  220.4190 C   0  0  0  0  0  0  0  0  0  0  0  0
  142.9100   72.8840  220.1300 C   0  0  0  0  0  0  0  0  0  0  0  0
  141.8610   73.2270  221.1270 C   0  0  0  0  0  0  0  0  0  0  0  0
  140.8540   72.1750  221.2820 N   0  0  0  0  0  0  0  0  0  0  0  0
  139.7960   72.5200  222.1740 C   0  0  0  0  0  0  0  0  0  0  0  0
  139.8900   73.6650  222.7150 O   0  0  0  0  0  0  0  0  0  0  0  0
  138.6320   71.7090  222.5250 C   0  0  2  0  0  0  0  0  0  0  0  0
  137.4320   72.4410  222.4150 N   0  0  0  0  0  0  0  0  0  0  0  0
  138.9230   71.1210  223.8810 C   0  0  1  0  0  0  0  0  0  0  0  0
  139.3940   69.6940  223.6960 C   0  0  0  0  0  0  0  0  0  0  0  0
  139.9480   69.4470  225.0760 C   0  0  0  0  0  0  0  0  0  0  0  0
  140.0350   68.2500  225.7700 C   0  0  0  0  0  0  0  0  0  0  0  0
  140.5920   68.2630  227.0330 C   0  0  0  0  0  0  0  0  0  0  0  0
  141.0510   69.4430  227.5870 C   0  0  0  0  0  0  0  0  0  0  0  0
  140.9470   70.6340  226.8560 C   0  0  0  0  0  0  0  0  0  0  0  0
  141.4390   71.9270  227.4210 C   0  0  0  0  0  0  0  0  0  0  0  0
  140.3950   70.6450  225.5960 C   0  0  0  0  0  0  0  0  0  0  0  0
  140.1260   71.7080  224.5670 C   0  0  0  0  0  0  0  0  0  0  0  0
  140.9160   70.9150  220.6150 C   0  0  0  0  0  0  0  0  0  0  0  0
  142.1680   70.6050  219.8690 C   0  0  0  0  0  0  0  0  0  0  0  0
  145.6694   74.3987  221.9112 H   0  0  0  0  0  0  0  0  0  0  0  0
  146.4640   74.8356  220.3606 H   0  0  0  0  0  0  0  0  0  0  0  0
  144.7857   74.1951  220.3606 H   0  0  0  0  0  0  0  0  0  0  0  0
  147.3892   72.7438  220.5143 H   0  0  0  0  0  0  0  0  0  0  0  0
  146.1633   72.1604  221.6616 H   0  0  0  0  0  0  0  0  0  0  0  0
  143.8987   68.7563  221.0314 H   0  0  0  0  0  0  0  0  0  0  0  0
  144.5028   66.4975  220.1739 H   0  0  0  0  0  0  0  0  0  0  0  0
  145.8001   66.2443  218.0743 H   0  0  0  0  0  0  0  0  0  0  0  0
  146.4991   68.2696  216.8117 H   0  0  0  0  0  0  0  0  0  0  0  0
  145.9113   70.5594  217.6478 H   0  0  0  0  0  0  0  0  0  0  0  0
  143.4509   71.2367  221.4926 H   0  0  0  0  0  0  0  0  0  0  0  0
  143.7805   73.5462  220.2471 H   0  0  0  0  0  0  0  0  0  0  0  0
  142.5445   73.0074  219.0999 H   0  0  0  0  0  0  0  0  0  0  0  0
  142.3443   73.3959  222.1006 H   0  0  0  0  0  0  0  0  0  0  0  0
  141.3436   74.1273  220.7641 H   0  0  0  0  0  0  0  0  0  0  0  0
  138.4643   70.8811  221.8204 H   0  0  0  0  0  0  0  0  0  0  0  0
  136.5730   71.9590  222.7450 H   0  0  0  0  0  0  0  0  0  0  0  0
  137.4510   73.4130  222.7460 H   0  0  0  0  0  0  0  0  0  0  0  0
  137.9973   71.2843  224.4522 H   0  0  0  0  0  0  0  0  0  0  0  0
  138.5635   69.0134  223.4572 H   0  0  0  0  0  0  0  0  0  0  0  0
  140.0993   69.5326  222.8675 H   0  0  0  0  0  0  0  0  0  0  0  0
  139.6692   67.3129  225.3251 H   0  0  0  0  0  0  0  0  0  0  0  0
  140.6712   67.3259  227.6035 H   0  0  0  0  0  0  0  0  0  0  0  0
  141.4944   69.4473  228.5937 H   0  0  0  0  0  0  0  0  0  0  0  0
  141.4203   71.8778  228.5197 H   0  0  0  0  0  0  0  0  0  0  0  0
  142.4689   72.1081  227.0796 H   0  0  0  0  0  0  0  0  0  0  0  0
  140.7900   72.7469  227.0796 H   0  0  0  0  0  0  0  0  0  0  0  0
  139.8957   72.6770  225.0338 H   0  0  0  0  0  0  0  0  0  0  0  0
  140.9733   71.9286  223.9011 H   0  0  0  0  0  0  0  0  0  0  0  0
  140.7793   70.1307  221.3741 H   0  0  0  0  0  0  0  0  0  0  0  0
  140.1297   70.9595  219.8471 H   0  0  0  0  0  0  0  0  0  0  0  0
  142.4033   69.5360  219.9781 H   0  0  0  0  0  0  0  0  0  0  0  0
  142.0267   70.8458  218.8050 H   0  0  0  0  0  0  0  0  0  0  0  0
  1  2  1  0
  2  3  1  0
  3  4  2  0
  3  5  1  0
  5  6  1  0
  6  7  2  0
  7  8  1  0
  8  9  2  0
  9 10  1  0
 10 11  2  0
  5 12  1  0
 12 13  1  0
 13 14  1  0
 14 15  1  0
 15 16  1  0
 16 17  2  0
 16 18  1  0
 18 19  1  0
 18 20  1  0
 20 21  1  0
 21 22  1  0
 22 23  2  0
 23 24  1  0
 24 25  2  0
 25 26  1  0
 26 27  1  0
 26 28  2  0
 28 29  1  0
 15 30  1  0
 30 31  1  0
 11  6  1  0
 31 12  1  0
 29 20  1  0
 28 22  1  0
  1 32  1  0
  1 33  1  0
  1 34  1  0
  2 35  1  0
  2 36  1  0
  7 37  1  0
  8 38  1  0
  9 39  1  0
 10 40  1  0
 11 41  1  0
 12 42  1  0
 13 43  1  0
 13 44  1  0
 14 45  1  0
 14 46  1  0
 18 47  1  6
 19 48  1  0
 19 49  1  0
 20 50  1  1
 21 51  1  0
 21 52  1  0
 23 53  1  0
 24 54  1  0
 25 55  1  0
 27 56  1  0
 27 57  1  0
 27 58  1  0
 29 59  1  0
 29 60  1  0
 30 61  1  0
 30 62  1  0
 31 63  1  0
 31 64  1  0
M  END
>  <smiles>  (74) 
CCC(=O)N(c1ccccc1)C1CCN(C(=O)[C@H](N)C2Cc3cccc(C)c3C2)CC1

>  <score_type>  (74) 
oracle

>  <origin>  (74) 
autodockgpu

>  <m_score__min__energy>  (74) 
-9.3900000000000006

>  <m_primary>  (74) 
energy

>  <rmsd>  (74) 
9.752358789950181

>  <m_score__min__rmsd>  (74) 
9.752358789950181

>  <meeko>  (74) 
{"free_energy": -9.38, "intermolecular_energy": -11.47, "internal_energy": -1.83, "cluster_size": 16, "cluster_id": 1, "rank_in_cluster": 2}

>  <energy>  (74) 
-8.42

>  <cluster_rmsd>  (74) 
0.88

>  <cluster>  (74) 
2

$$$$

     RDKit          3D

 64 67  0  0  0  0  0  0  0  0999 V2000
  145.5390   74.1170  220.8350 C   0  0  0  0  0  0  0  0  0  0  0  0
  146.2660   72.8140  220.5420 C   0  0  0  0  0  0  0  0  0  0  0  0
  145.5870   72.1950  219.3860 C   0  0  0  0  0  0  0  0  0  0  0  0
  145.9370   72.6150  218.2370 O   0  0  0  0  0  0  0  0  0  0  0  0
  144.5860   71.1740  219.5360 N   0  0  0  0  0  0  0  0  0  0  0  0
  144.8900   69.8950  218.9390 C   0  0  0  0  0  0  0  0  0  0  0  0
  145.0860   68.7670  219.6930 C   0  0  0  0  0  0  0  0  0  0  0  0
  145.3720   67.5760  219.0390 C   0  0  0  0  0  0  0  0  0  0  0  0
  145.4590   67.5180  217.6580 C   0  0  0  0  0  0  0  0  0  0  0  0
  145.2540   68.6770  216.9190 C   0  0  0  0  0  0  0  0  0  0  0  0
  144.9660   69.8910  217.5430 C   0  0  0  0  0  0  0  0  0  0  0  0
  143.3610   71.4100  220.2390 C   0  0  0  0  0  0  0  0  0  0  0  0
  142.7010   72.7240  219.7890 C   0  0  0  0  0  0  0  0  0  0  0  0
  141.7190   73.0690  220.8520 C   0  0  0  0  0  0  0  0  0  0  0  0
  140.9250   71.9200  221.2900 N   0  0  0  0  0  0  0  0  0  0  0  0
  139.9220   72.2480  222.2510 C   0  0  0  0  0  0  0  0  0  0  0  0
  139.8780   73.4680  222.5980 O   0  0  0  0  0  0  0  0  0  0  0  0
  138.9530   71.3430  222.8660 C   0  0  2  0  0  0  0  0  0  0  0  0
  137.7780   72.0200  223.2520 N   0  0  0  0  0  0  0  0  0  0  0  0
  139.6900   70.6220  223.9650 C   0  0  1  0  0  0  0  0  0  0  0  0
  139.9140   71.5890  225.1080 C   0  0  0  0  0  0  0  0  0  0  0  0
  140.3140   70.6030  226.1760 C   0  0  0  0  0  0  0  0  0  0  0  0
  141.1530   70.8000  227.2630 C   0  0  0  0  0  0  0  0  0  0  0  0
  141.3700   69.7410  228.1230 C   0  0  0  0  0  0  0  0  0  0  0  0
  140.7640   68.5190  227.9020 C   0  0  0  0  0  0  0  0  0  0  0  0
  139.9220   68.3580  226.7930 C   0  0  0  0  0  0  0  0  0  0  0  0
  139.2460   67.0520  226.5270 C   0  0  0  0  0  0  0  0  0  0  0  0
  139.6920   69.3970  225.9220 C   0  0  0  0  0  0  0  0  0  0  0  0
  138.8800   69.5660  224.6680 C   0  0  0  0  0  0  0  0  0  0  0  0
  141.1270   70.5890  220.8160 C   0  0  0  0  0  0  0  0  0  0  0  0
  142.3280   70.3490  219.9680 C   0  0  0  0  0  0  0  0  0  0  0  0
  145.4611   74.2567  221.9233 H   0  0  0  0  0  0  0  0  0  0  0  0
  146.0993   74.9561  220.3968 H   0  0  0  0  0  0  0  0  0  0  0  0
  144.5307   74.0808  220.3968 H   0  0  0  0  0  0  0  0  0  0  0  0
  147.3197   73.0151  220.2987 H   0  0  0  0  0  0  0  0  0  0  0  0
  146.2445   72.1459  221.4156 H   0  0  0  0  0  0  0  0  0  0  0  0
  145.0183   68.8045  220.7903 H   0  0  0  0  0  0  0  0  0  0  0  0
  145.5325   66.6614  219.6288 H   0  0  0  0  0  0  0  0  0  0  0  0
  145.6872   66.5678  217.1531 H   0  0  0  0  0  0  0  0  0  0  0  0
  145.3200   68.6363  215.8217 H   0  0  0  0  0  0  0  0  0  0  0  0
  144.8050   70.8094  216.9594 H   0  0  0  0  0  0  0  0  0  0  0  0
  143.6474   71.4267  221.3009 H   0  0  0  0  0  0  0  0  0  0  0  0
  143.4558   73.5183  219.6924 H   0  0  0  0  0  0  0  0  0  0  0  0
  142.2151   72.6178  218.8079 H   0  0  0  0  0  0  0  0  0  0  0  0
  142.2661   73.4682  221.7188 H   0  0  0  0  0  0  0  0  0  0  0  0
  141.0230   73.8091  220.4302 H   0  0  0  0  0  0  0  0  0  0  0  0
  138.5673   70.5916  222.1613 H   0  0  0  0  0  0  0  0  0  0  0  0
  137.4250   71.8090  224.2070 H   0  0  0  0  0  0  0  0  0  0  0  0
  137.7440   73.0290  223.0690 H   0  0  0  0  0  0  0  0  0  0  0  0
  140.5771   70.2027  223.4678 H   0  0  0  0  0  0  0  0  0  0  0  0
  140.7171   72.3079  224.8887 H   0  0  0  0  0  0  0  0  0  0  0  0
  139.0585   72.2343  225.3563 H   0  0  0  0  0  0  0  0  0  0  0  0
  141.6332   71.7745  227.4357 H   0  0  0  0  0  0  0  0  0  0  0  0
  142.0315   69.8717  228.9921 H   0  0  0  0  0  0  0  0  0  0  0  0
  140.9409   67.6796  228.5906 H   0  0  0  0  0  0  0  0  0  0  0  0
  138.9953   66.5676  227.4823 H   0  0  0  0  0  0  0  0  0  0  0  0
  138.3249   67.2264  225.9515 H   0  0  0  0  0  0  0  0  0  0  0  0
  139.9202   66.4007  225.9515 H   0  0  0  0  0  0  0  0  0  0  0  0
  138.8322   68.6343  224.0852 H   0  0  0  0  0  0  0  0  0  0  0  0
  137.8249   69.8289  224.8340 H   0  0  0  0  0  0  0  0  0  0  0  0
  141.2043   69.9318  221.6947 H   0  0  0  0  0  0  0  0  0  0  0  0
  140.2681   70.3857  220.1596 H   0  0  0  0  0  0  0  0  0  0  0  0
  142.7493   69.3603  220.2023 H   0  0  0  0  0  0  0  0  0  0  0  0
  142.0382   70.3853  218.9075 H   0  0  0  0  0  0  0  0  0  0  0  0
  1  2  1  0
  2  3  1  0
  3  4  2  0
  3  5  1  0
  5  6  1  0
  6  7  2  0
  7  8  1  0
  8  9  2  0
  9 10  1  0
 10 11  2  0
  5 12  1  0
 12 13  1  0
 13 14  1  0
 14 15  1  0
 15 16  1  0
 16 17  2  0
 16 18  1  0
 18 19  1  0
 18 20  1  0
 20 21  1  0
 21 22  1  0
 22 23  2  0
 23 24  1  0
 24 25  2  0
 25 26  1  0
 26 27  1  0
 26 28  2  0
 28 29  1  0
 15 30  1  0
 30 31  1  0
 11  6  1  0
 31 12  1  0
 29 20  1  0
 28 22  1  0
  1 32  1  0
  1 33  1  0
  1 34  1  0
  2 35  1  0
  2 36  1  0
  7 37  1  0
  8 38  1  0
  9 39  1  0
 10 40  1  0
 11 41  1  0
 12 42  1  0
 13 43  1  0
 13 44  1  0
 14 45  1  0
 14 46  1  0
 18 47  1  6
 19 48  1  0
 19 49  1  0
 20 50  1  6
 21 51  1  0
 21 52  1  0
 23 53  1  0
 24 54  1  0
 25 55  1  0
 27 56  1  0
 27 57  1  0
 27 58  1  0
 29 59  1  0
 29 60  1  0
 30 61  1  0
 30 62  1  0
 31 63  1  0
 31 64  1  0
M  END
>  <smiles>  (75) 
CCC(=O)N(c1ccccc1)C1CCN(C(=O)[C@H](N)C2Cc3cccc(C)c3C2)CC1

>  <score_type>  (75) 
oracle

>  <origin>  (75) 
autodockgpu

>  <m_score__min__energy>  (75) 
-9.3900000000000006

>  <m_primary>  (75) 
energy

>  <rmsd>  (75) 
9.103905363268787

>  <m_score__min__rmsd>  (75) 
9.103905363268787

>  <meeko>  (75) 
{"free_energy": -8.75, "intermolecular_energy": -10.84, "internal_energy": -2.19, "cluster_size": 16, "cluster_id": 1, "rank_in_cluster": 10}

>  <energy>  (75) 
-8.41

>  <cluster_rmsd>  (75) 
0.42

>  <cluster>  (75) 
2

$$$$

     RDKit          3D

 64 67  0  0  0  0  0  0  0  0999 V2000
  144.0670   71.8830  216.9310 C   0  0  0  0  0  0  0  0  0  0  0  0
  145.0920   72.7270  217.6710 C   0  0  0  0  0  0  0  0  0  0  0  0
  145.3040   72.0890  218.9860 C   0  0  0  0  0  0  0  0  0  0  0  0
  146.3260   72.4740  219.6390 O   0  0  0  0  0  0  0  0  0  0  0  0
  144.4140   71.0890  219.5100 N   0  0  0  0  0  0  0  0  0  0  0  0
  144.8260   69.7170  219.3310 C   0  0  0  0  0  0  0  0  0  0  0  0
  144.2080   68.6790  219.9800 C   0  0  0  0  0  0  0  0  0  0  0  0
  144.6650   67.3890  219.7490 C   0  0  0  0  0  0  0  0  0  0  0  0
  145.7180   67.1440  218.8850 C   0  0  0  0  0  0  0  0  0  0  0  0
  146.3260   68.2140  218.2390 C   0  0  0  0  0  0  0  0  0  0  0  0
  145.8930   69.5250  218.4480 C   0  0  0  0  0  0  0  0  0  0  0  0
  143.1940   71.4330  220.1740 C   0  0  0  0  0  0  0  0  0  0  0  0
  142.8480   72.9180  219.9790 C   0  0  0  0  0  0  0  0  0  0  0  0
  141.8490   73.2460  221.0310 C   0  0  0  0  0  0  0  0  0  0  0  0
  140.8080   72.2250  221.1660 N   0  0  0  0  0  0  0  0  0  0  0  0
  139.7950   72.5600  222.1150 C   0  0  0  0  0  0  0  0  0  0  0  0
  139.9530   73.6680  222.7120 O   0  0  0  0  0  0  0  0  0  0  0  0
  138.6130   71.7740  222.4640 C   0  0  2  0  0  0  0  0  0  0  0  0
  137.4320   72.5400  222.3730 N   0  0  0  0  0  0  0  0  0  0  0  0
  138.8990   71.1610  223.8100 C   0  0  1  0  0  0  0  0  0  0  0  0
  139.3360   69.7260  223.6020 C   0  0  0  0  0  0  0  0  0  0  0  0
  139.8930   69.4470  224.9750 C   0  0  0  0  0  0  0  0  0  0  0  0
  139.9560   68.2390  225.6510 C   0  0  0  0  0  0  0  0  0  0  0  0
  140.5220   68.2220  226.9110 C   0  0  0  0  0  0  0  0  0  0  0  0
  141.0110   69.3830  227.4780 C   0  0  0  0  0  0  0  0  0  0  0  0
  140.9300   70.5860  226.7640 C   0  0  0  0  0  0  0  0  0  0  0  0
  141.4550   71.8600  227.3440 C   0  0  0  0  0  0  0  0  0  0  0  0
  140.3700   70.6270  225.5080 C   0  0  0  0  0  0  0  0  0  0  0  0
  140.1200   71.7110  224.4960 C   0  0  0  0  0  0  0  0  0  0  0  0
  140.7960   71.0020  220.4310 C   0  0  0  0  0  0  0  0  0  0  0  0
  142.0080   70.6870  219.6230 C   0  0  0  0  0  0  0  0  0  0  0  0
  143.4300   71.3585  217.6584 H   0  0  0  0  0  0  0  0  0  0  0  0
  143.4437   72.5332  216.2995 H   0  0  0  0  0  0  0  0  0  0  0  0
  144.5855   71.1465  216.2995 H   0  0  0  0  0  0  0  0  0  0  0  0
  146.0364   72.7554  217.1076 H   0  0  0  0  0  0  0  0  0  0  0  0
  144.7391   73.7623  217.7879 H   0  0  0  0  0  0  0  0  0  0  0  0
  143.3697   68.8644  220.6676 H   0  0  0  0  0  0  0  0  0  0  0  0
  144.1810   66.5452  220.2625 H   0  0  0  0  0  0  0  0  0  0  0  0
  146.0691   66.1160  218.7118 H   0  0  0  0  0  0  0  0  0  0  0  0
  147.1631   68.0247  217.5509 H   0  0  0  0  0  0  0  0  0  0  0  0
  146.3726   70.3735  217.9379 H   0  0  0  0  0  0  0  0  0  0  0  0
  143.3708   71.1791  221.2296 H   0  0  0  0  0  0  0  0  0  0  0  0
  143.7478   73.5393  220.0989 H   0  0  0  0  0  0  0  0  0  0  0  0
  142.4512   73.1110  218.9714 H   0  0  0  0  0  0  0  0  0  0  0  0
  142.3721   73.3434  221.9937 H   0  0  0  0  0  0  0  0  0  0  0  0
  141.3554   74.1840  220.7368 H   0  0  0  0  0  0  0  0  0  0  0  0
  138.4181   70.9597  221.7507 H   0  0  0  0  0  0  0  0  0  0  0  0
  137.4770   73.4950  222.7790 H   0  0  0  0  0  0  0  0  0  0  0  0
  136.9610   72.5560  221.4610 H   0  0  0  0  0  0  0  0  0  0  0  0
  137.9811   71.3376  224.3898 H   0  0  0  0  0  0  0  0  0  0  0  0
  138.4886   69.0680  223.3593 H   0  0  0  0  0  0  0  0  0  0  0  0
  140.0322   69.5601  222.7667 H   0  0  0  0  0  0  0  0  0  0  0  0
  139.5652   67.3170  225.1958 H   0  0  0  0  0  0  0  0  0  0  0  0
  140.5839   67.2754  227.4679 H   0  0  0  0  0  0  0  0  0  0  0  0
  141.4603   69.3632  228.4818 H   0  0  0  0  0  0  0  0  0  0  0  0
  141.4305   71.8005  228.4421 H   0  0  0  0  0  0  0  0  0  0  0  0
  142.4908   72.0163  227.0083 H   0  0  0  0  0  0  0  0  0  0  0  0
  140.8300   72.7007  227.0083 H   0  0  0  0  0  0  0  0  0  0  0  0
  139.9152   72.6784  224.9779 H   0  0  0  0  0  0  0  0  0  0  0  0
  140.9680   71.9220  223.8279 H   0  0  0  0  0  0  0  0  0  0  0  0
  140.6554   70.1830  221.1517 H   0  0  0  0  0  0  0  0  0  0  0  0
  139.9850   71.1176  219.6969 H   0  0  0  0  0  0  0  0  0  0  0  0
  142.2046   69.6055  219.6653 H   0  0  0  0  0  0  0  0  0  0  0  0
  141.8391   70.9915  218.5796 H   0  0  0  0  0  0  0  0  0  0  0  0
  1  2  1  0
  2  3  1  0
  3  4  2  0
  3  5  1  0
  5  6  1  0
  6  7  2  0
  7  8  1  0
  8  9  2  0
  9 10  1  0
 10 11  2  0
  5 12  1  0
 12 13  1  0
 13 14  1  0
 14 15  1  0
 15 16  1  0
 16 17  2  0
 16 18  1  0
 18 19  1  0
 18 20  1  0
 20 21  1  0
 21 22  1  0
 22 23  2  0
 23 24  1  0
 24 25  2  0
 25 26  1  0
 26 27  1  0
 26 28  2  0
 28 29  1  0
 15 30  1  0
 30 31  1  0
 11  6  1  0
 31 12  1  0
 29 20  1  0
 28 22  1  0
  1 32  1  0
  1 33  1  0
  1 34  1  0
  2 35  1  0
  2 36  1  0
  7 37  1  0
  8 38  1  0
  9 39  1  0
 10 40  1  0
 11 41  1  0
 12 42  1  0
 13 43  1  0
 13 44  1  0
 14 45  1  0
 14 46  1  0
 18 47  1  6
 19 48  1  0
 19 49  1  0
 20 50  1  1
 21 51  1  0
 21 52  1  0
 23 53  1  0
 24 54  1  0
 25 55  1  0
 27 56  1  0
 27 57  1  0
 27 58  1  0
 29 59  1  0
 29 60  1  0
 30 61  1  0
 30 62  1  0
 31 63  1  0
 31 64  1  0
M  END
>  <smiles>  (76) 
CCC(=O)N(c1ccccc1)C1CCN(C(=O)[C@H](N)C2Cc3cccc(C)c3C2)CC1

>  <score_type>  (76) 
oracle

>  <origin>  (76) 
autodockgpu

>  <m_score__min__energy>  (76) 
-9.3900000000000006

>  <m_primary>  (76) 
energy

>  <rmsd>  (76) 
9.69858323532339

>  <m_score__min__rmsd>  (76) 
9.69858323532339

>  <meeko>  (76) 
{"free_energy": -8.55, "intermolecular_energy": -10.64, "internal_energy": -1.79, "cluster_size": 16, "cluster_id": 1, "rank_in_cluster": 14}

>  <energy>  (76) 
-8.37

>  <cluster_rmsd>  (76) 
0.94

>  <cluster>  (76) 
2

$$$$

     RDKit          3D

 64 67  0  0  0  0  0  0  0  0999 V2000
  140.1990   77.2590  218.9300 C   0  0  0  0  0  0  0  0  0  0  0  0
  141.5760   77.3390  219.5700 C   0  0  0  0  0  0  0  0  0  0  0  0
  141.6250   76.2970  220.6150 C   0  0  0  0  0  0  0  0  0  0  0  0
  142.6050   75.4880  220.5570 O   0  0  0  0  0  0  0  0  0  0  0  0
  140.6280   76.1920  221.6460 N   0  0  0  0  0  0  0  0  0  0  0  0
  140.3570   77.3970  222.3910 C   0  0  0  0  0  0  0  0  0  0  0  0
  139.1090   77.9630  222.4340 C   0  0  0  0  0  0  0  0  0  0  0  0
  138.9330   79.1220  223.1780 C   0  0  0  0  0  0  0  0  0  0  0  0
  139.9860   79.7020  223.8640 C   0  0  0  0  0  0  0  0  0  0  0  0
  141.2410   79.1060  223.8040 C   0  0  0  0  0  0  0  0  0  0  0  0
  141.4540   77.9410  223.0660 C   0  0  0  0  0  0  0  0  0  0  0  0
  139.9420   74.9640  221.9150 C   0  0  0  0  0  0  0  0  0  0  0  0
  138.5450   74.9500  221.2740 C   0  0  0  0  0  0  0  0  0  0  0  0
  137.7930   73.8660  221.9620 C   0  0  0  0  0  0  0  0  0  0  0  0
  138.5780   72.6400  222.1220 N   0  0  0  0  0  0  0  0  0  0  0  0
  137.8470   71.5630  222.7070 C   0  0  0  0  0  0  0  0  0  0  0  0
  136.6450   71.8260  223.0200 O   0  0  0  0  0  0  0  0  0  0  0  0
  138.3280   70.2090  222.9770 C   0  0  2  0  0  0  0  0  0  0  0  0
  137.3950   69.2330  222.5700 N   0  0  0  0  0  0  0  0  0  0  0  0
  138.7150   70.1840  224.4330 C   0  0  1  0  0  0  0  0  0  0  0  0
  139.2140   68.7960  224.7740 C   0  0  0  0  0  0  0  0  0  0  0  0
  139.8560   69.0960  226.1050 C   0  0  0  0  0  0  0  0  0  0  0  0
  140.0160   68.2550  227.1950 C   0  0  0  0  0  0  0  0  0  0  0  0
  140.6470   68.7510  228.3190 C   0  0  0  0  0  0  0  0  0  0  0  0
  141.1050   70.0540  228.3500 C   0  0  0  0  0  0  0  0  0  0  0  0
  140.9250   70.8760  227.2290 C   0  0  0  0  0  0  0  0  0  0  0  0
  141.4140   72.2880  227.2260 C   0  0  0  0  0  0  0  0  0  0  0  0
  140.2990   70.4030  226.0990 C   0  0  0  0  0  0  0  0  0  0  0  0
  139.9410   70.9930  224.7630 C   0  0  0  0  0  0  0  0  0  0  0  0
  139.9470   72.5210  221.7400 C   0  0  0  0  0  0  0  0  0  0  0  0
  140.6460   73.7700  221.3270 C   0  0  0  0  0  0  0  0  0  0  0  0
  139.4312   77.2144  219.7164 H   0  0  0  0  0  0  0  0  0  0  0  0
  140.0328   78.1490  218.3053 H   0  0  0  0  0  0  0  0  0  0  0  0
  140.1369   76.3557  218.3053 H   0  0  0  0  0  0  0  0  0  0  0  0
  142.3550   77.1549  218.8155 H   0  0  0  0  0  0  0  0  0  0  0  0
  141.7529   78.3360  219.9998 H   0  0  0  0  0  0  0  0  0  0  0  0
  138.2665   77.5093  221.8915 H   0  0  0  0  0  0  0  0  0  0  0  0
  137.9377   79.5882  223.2231 H   0  0  0  0  0  0  0  0  0  0  0  0
  139.8323   80.6212  224.4483 H   0  0  0  0  0  0  0  0  0  0  0  0
  142.0814   79.5614  224.3484 H   0  0  0  0  0  0  0  0  0  0  0  0
  142.4464   77.4690  223.0172 H   0  0  0  0  0  0  0  0  0  0  0  0
  139.9004   74.9030  223.0125 H   0  0  0  0  0  0  0  0  0  0  0  0
  138.0449   75.9181  221.4247 H   0  0  0  0  0  0  0  0  0  0  0  0
  138.5996   74.7785  220.1888 H   0  0  0  0  0  0  0  0  0  0  0  0
  137.4943   74.2239  222.9583 H   0  0  0  0  0  0  0  0  0  0  0  0
  136.9219   73.6207  221.3367 H   0  0  0  0  0  0  0  0  0  0  0  0
  139.2146   69.9463  222.3813 H   0  0  0  0  0  0  0  0  0  0  0  0
  137.4140   68.3380  223.0980 H   0  0  0  0  0  0  0  0  0  0  0  0
  136.4290   69.5470  222.4270 H   0  0  0  0  0  0  0  0  0  0  0  0
  137.8208   70.5498  224.9590 H   0  0  0  0  0  0  0  0  0  0  0  0
  138.3903   68.0730  224.8671 H   0  0  0  0  0  0  0  0  0  0  0  0
  139.8730   68.3331  224.0247 H   0  0  0  0  0  0  0  0  0  0  0  0
  139.6495   67.2183  227.1656 H   0  0  0  0  0  0  0  0  0  0  0  0
  140.7861   68.1030  229.1970 H   0  0  0  0  0  0  0  0  0  0  0  0
  141.6072   70.4435  229.2478 H   0  0  0  0  0  0  0  0  0  0  0  0
  141.5347   72.6364  228.2623 H   0  0  0  0  0  0  0  0  0  0  0  0
  142.3823   72.3396  226.7067 H   0  0  0  0  0  0  0  0  0  0  0  0
  140.6850   72.9274  226.7067 H   0  0  0  0  0  0  0  0  0  0  0  0
  139.7122   72.0662  224.8399 H   0  0  0  0  0  0  0  0  0  0  0  0
  140.7408   70.9462  224.0092 H   0  0  0  0  0  0  0  0  0  0  0  0
  140.4951   72.1020  222.5967 H   0  0  0  0  0  0  0  0  0  0  0  0
  139.9380   71.8884  220.8402 H   0  0  0  0  0  0  0  0  0  0  0  0
  141.6849   73.7439  221.6876 H   0  0  0  0  0  0  0  0  0  0  0  0
  140.6376   73.8462  220.2297 H   0  0  0  0  0  0  0  0  0  0  0  0
  1  2  1  0
  2  3  1  0
  3  4  2  0
  3  5  1  0
  5  6  1  0
  6  7  2  0
  7  8  1  0
  8  9  2  0
  9 10  1  0
 10 11  2  0
  5 12  1  0
 12 13  1  0
 13 14  1  0
 14 15  1  0
 15 16  1  0
 16 17  2  0
 16 18  1  0
 18 19  1  0
 18 20  1  0
 20 21  1  0
 21 22  1  0
 22 23  2  0
 23 24  1  0
 24 25  2  0
 25 26  1  0
 26 27  1  0
 26 28  2  0
 28 29  1  0
 15 30  1  0
 30 31  1  0
 11  6  1  0
 31 12  1  0
 29 20  1  0
 28 22  1  0
  1 32  1  0
  1 33  1  0
  1 34  1  0
  2 35  1  0
  2 36  1  0
  7 37  1  0
  8 38  1  0
  9 39  1  0
 10 40  1  0
 11 41  1  0
 12 42  1  0
 13 43  1  0
 13 44  1  0
 14 45  1  0
 14 46  1  0
 18 47  1  6
 19 48  1  0
 19 49  1  0
 20 50  1  1
 21 51  1  0
 21 52  1  0
 23 53  1  0
 24 54  1  0
 25 55  1  0
 27 56  1  0
 27 57  1  0
 27 58  1  0
 29 59  1  0
 29 60  1  0
 30 61  1  0
 30 62  1  0
 31 63  1  0
 31 64  1  0
M  END
>  <smiles>  (77) 
CCC(=O)N(c1ccccc1)C1CCN(C(=O)[C@H](N)C2Cc3cccc(C)c3C2)CC1

>  <score_type>  (77) 
oracle

>  <origin>  (77) 
autodockgpu

>  <m_score__min__energy>  (77) 
-9.3900000000000006

>  <m_primary>  (77) 
energy

>  <rmsd>  (77) 
9.932951927532011

>  <m_score__min__rmsd>  (77) 
9.932951927532011

>  <meeko>  (77) 
{"free_energy": -8.1, "intermolecular_energy": -10.19, "internal_energy": -2.05, "cluster_size": 18, "cluster_id": 2, "rank_in_cluster": 16}

>  <energy>  (77) 
-8.34

>  <cluster_rmsd>  (77) 
1.99

>  <cluster>  (77) 
2

$$$$

     RDKit          3D

 64 67  0  0  0  0  0  0  0  0999 V2000
  142.5380   78.4940  218.1220 C   0  0  0  0  0  0  0  0  0  0  0  0
  141.9130   77.1480  218.4500 C   0  0  0  0  0  0  0  0  0  0  0  0
  142.3800   76.7760  219.8010 C   0  0  0  0  0  0  0  0  0  0  0  0
  143.6100   76.4680  219.9050 O   0  0  0  0  0  0  0  0  0  0  0  0
  141.5050   76.7580  220.9420 N   0  0  0  0  0  0  0  0  0  0  0  0
  141.4620   77.9680  221.7260 C   0  0  0  0  0  0  0  0  0  0  0  0
  141.4770   79.2120  221.1500 C   0  0  0  0  0  0  0  0  0  0  0  0
  141.4300   80.3260  221.9780 C   0  0  0  0  0  0  0  0  0  0  0  0
  141.3680   80.1950  223.3540 C   0  0  0  0  0  0  0  0  0  0  0  0
  141.3530   78.9220  223.9120 C   0  0  0  0  0  0  0  0  0  0  0  0
  141.4000   77.7810  223.1110 C   0  0  0  0  0  0  0  0  0  0  0  0
  140.7210   75.6080  221.2780 C   0  0  0  0  0  0  0  0  0  0  0  0
  139.2520   75.7910  220.8620 C   0  0  0  0  0  0  0  0  0  0  0  0
  138.4830   74.7710  221.6260 C   0  0  0  0  0  0  0  0  0  0  0  0
  139.1250   73.4550  221.6250 N   0  0  0  0  0  0  0  0  0  0  0  0
  138.3620   72.4450  222.2850 C   0  0  0  0  0  0  0  0  0  0  0  0
  137.2640   72.8330  222.7880 O   0  0  0  0  0  0  0  0  0  0  0  0
  138.7060   71.0320  222.4380 C   0  0  2  0  0  0  0  0  0  0  0  0
  137.7620   70.1940  221.8100 N   0  0  0  0  0  0  0  0  0  0  0  0
  138.9110   70.8070  223.9130 C   0  0  1  0  0  0  0  0  0  0  0  0
  139.2240   69.3430  224.1370 C   0  0  0  0  0  0  0  0  0  0  0  0
  139.7270   69.4240  225.5560 C   0  0  0  0  0  0  0  0  0  0  0  0
  139.6710   68.4570  226.5490 C   0  0  0  0  0  0  0  0  0  0  0  0
  140.2070   68.7550  227.7860 C   0  0  0  0  0  0  0  0  0  0  0  0
  140.7860   69.9880  228.0230 C   0  0  0  0  0  0  0  0  0  0  0  0
  140.8250   70.9400  226.9950 C   0  0  0  0  0  0  0  0  0  0  0  0
  141.4480   72.2810  227.2150 C   0  0  0  0  0  0  0  0  0  0  0  0
  140.2960   70.6650  225.7560 C   0  0  0  0  0  0  0  0  0  0  0  0
  140.1620   71.4320  224.4690 C   0  0  0  0  0  0  0  0  0  0  0  0
  140.3960   73.1930  221.0330 C   0  0  0  0  0  0  0  0  0  0  0  0
  141.1740   74.3690  220.5520 C   0  0  0  0  0  0  0  0  0  0  0  0
  142.7830   79.0217  219.0555 H   0  0  0  0  0  0  0  0  0  0  0  0
  143.4563   78.3390  217.5365 H   0  0  0  0  0  0  0  0  0  0  0  0
  141.8270   79.0955  217.5365 H   0  0  0  0  0  0  0  0  0  0  0  0
  140.8159   77.2272  218.4375 H   0  0  0  0  0  0  0  0  0  0  0  0
  142.2037   76.3880  217.7098 H   0  0  0  0  0  0  0  0  0  0  0  0
  141.5252   79.3252  220.0569 H   0  0  0  0  0  0  0  0  0  0  0  0
  141.4423   81.3312  221.5315 H   0  0  0  0  0  0  0  0  0  0  0  0
  141.3311   81.0862  223.9977 H   0  0  0  0  0  0  0  0  0  0  0  0
  141.3031   78.8124  225.0054 H   0  0  0  0  0  0  0  0  0  0  0  0
  141.3887   76.7731  223.5514 H   0  0  0  0  0  0  0  0  0  0  0  0
  140.8388   75.4985  222.3662 H   0  0  0  0  0  0  0  0  0  0  0  0
  138.9049   76.8030  221.1178 H   0  0  0  0  0  0  0  0  0  0  0  0
  139.1206   75.6675  219.7769 H   0  0  0  0  0  0  0  0  0  0  0  0
  138.3845   75.1127  222.6669 H   0  0  0  0  0  0  0  0  0  0  0  0
  137.5038   74.6611  221.1370 H   0  0  0  0  0  0  0  0  0  0  0  0
  139.6371   70.7625  221.9180 H   0  0  0  0  0  0  0  0  0  0  0  0
  137.6940   69.2260  222.1840 H   0  0  0  0  0  0  0  0  0  0  0  0
  136.8270   70.5870  221.6530 H   0  0  0  0  0  0  0  0  0  0  0  0
  138.0011   71.2130  224.3790 H   0  0  0  0  0  0  0  0  0  0  0  0
  138.3271   68.7118  224.0527 H   0  0  0  0  0  0  0  0  0  0  0  0
  139.9191   68.8917  223.4137 H   0  0  0  0  0  0  0  0  0  0  0  0
  139.2108   67.4768  226.3556 H   0  0  0  0  0  0  0  0  0  0  0  0
  140.1731   68.0050  228.5899 H   0  0  0  0  0  0  0  0  0  0  0  0
  141.2125   70.2199  229.0101 H   0  0  0  0  0  0  0  0  0  0  0  0
  141.5365   72.4715  228.2948 H   0  0  0  0  0  0  0  0  0  0  0  0
  142.4475   72.3007  226.7561 H   0  0  0  0  0  0  0  0  0  0  0  0
  140.8184   73.0575  226.7561 H   0  0  0  0  0  0  0  0  0  0  0  0
  140.0334   72.5096  224.6488 H   0  0  0  0  0  0  0  0  0  0  0  0
  141.0383   71.3765  223.8064 H   0  0  0  0  0  0  0  0  0  0  0  0
  141.0103   72.6730  221.7828 H   0  0  0  0  0  0  0  0  0  0  0  0
  140.1743   72.6080  220.1282 H   0  0  0  0  0  0  0  0  0  0  0  0
  142.2442   74.2030  220.7445 H   0  0  0  0  0  0  0  0  0  0  0  0
  141.0088   74.4984  219.4722 H   0  0  0  0  0  0  0  0  0  0  0  0
  1  2  1  0
  2  3  1  0
  3  4  2  0
  3  5  1  0
  5  6  1  0
  6  7  2  0
  7  8  1  0
  8  9  2  0
  9 10  1  0
 10 11  2  0
  5 12  1  0
 12 13  1  0
 13 14  1  0
 14 15  1  0
 15 16  1  0
 16 17  2  0
 16 18  1  0
 18 19  1  0
 18 20  1  0
 20 21  1  0
 21 22  1  0
 22 23  2  0
 23 24  1  0
 24 25  2  0
 25 26  1  0
 26 27  1  0
 26 28  2  0
 28 29  1  0
 15 30  1  0
 30 31  1  0
 11  6  1  0
 31 12  1  0
 29 20  1  0
 28 22  1  0
  1 32  1  0
  1 33  1  0
  1 34  1  0
  2 35  1  0
  2 36  1  0
  7 37  1  0
  8 38  1  0
  9 39  1  0
 10 40  1  0
 11 41  1  0
 12 42  1  0
 13 43  1  0
 13 44  1  0
 14 45  1  0
 14 46  1  0
 18 47  1  6
 19 48  1  0
 19 49  1  0
 20 50  1  1
 21 51  1  0
 21 52  1  0
 23 53  1  0
 24 54  1  0
 25 55  1  0
 27 56  1  0
 27 57  1  0
 27 58  1  0
 29 59  1  0
 29 60  1  0
 30 61  1  0
 30 62  1  0
 31 63  1  0
 31 64  1  0
M  END
>  <smiles>  (78) 
CCC(=O)N(c1ccccc1)C1CCN(C(=O)[C@H](N)C2Cc3cccc(C)c3C2)CC1

>  <score_type>  (78) 
oracle

>  <origin>  (78) 
autodockgpu

>  <m_score__min__energy>  (78) 
-9.3900000000000006

>  <m_primary>  (78) 
energy

>  <rmsd>  (78) 
9.340984349960253

>  <m_score__min__rmsd>  (78) 
9.340984349960253

>  <meeko>  (78) 
{"free_energy": -8.28, "intermolecular_energy": -10.37, "internal_energy": -1.86, "cluster_size": 18, "cluster_id": 2, "rank_in_cluster": 13}

>  <energy>  (78) 
-8.32

>  <cluster_rmsd>  (78) 
1.12

>  <cluster>  (78) 
2

$$$$

     RDKit          3D

 64 67  0  0  0  0  0  0  0  0999 V2000
  138.0420   80.8250  224.5450 C   0  0  0  0  0  0  0  0  0  0  0  0
  138.0910   80.5010  223.0600 C   0  0  0  0  0  0  0  0  0  0  0  0
  138.0360   79.0300  222.9400 C   0  0  0  0  0  0  0  0  0  0  0  0
  136.8930   78.4950  223.1020 O   0  0  0  0  0  0  0  0  0  0  0  0
  139.2000   78.2360  222.6550 N   0  0  0  0  0  0  0  0  0  0  0  0
  140.4570   78.9440  222.6180 C   0  0  0  0  0  0  0  0  0  0  0  0
  140.9590   79.4810  221.4600 C   0  0  0  0  0  0  0  0  0  0  0  0
  142.1740   80.1490  221.5120 C   0  0  0  0  0  0  0  0  0  0  0  0
  142.8720   80.2780  222.7000 C   0  0  0  0  0  0  0  0  0  0  0  0
  142.3400   79.7260  223.8600 C   0  0  0  0  0  0  0  0  0  0  0  0
  141.1210   79.0470  223.8440 C   0  0  0  0  0  0  0  0  0  0  0  0
  139.1180   76.8250  222.4250 C   0  0  0  0  0  0  0  0  0  0  0  0
  138.2140   76.5050  221.2230 C   0  0  0  0  0  0  0  0  0  0  0  0
  137.8640   75.0640  221.3510 C   0  0  0  0  0  0  0  0  0  0  0  0
  139.0150   74.2260  221.6930 N   0  0  0  0  0  0  0  0  0  0  0  0
  138.7150   72.8320  221.7400 C   0  0  0  0  0  0  0  0  0  0  0  0
  137.5060   72.5260  221.5030 O   0  0  0  0  0  0  0  0  0  0  0  0
  139.6390   71.7350  222.0250 C   0  0  2  0  0  0  0  0  0  0  0  0
  139.4480   70.6490  221.1450 N   0  0  0  0  0  0  0  0  0  0  0  0
  139.4880   71.4300  223.4930 C   0  0  1  0  0  0  0  0  0  0  0  0
  139.5120   69.9270  223.6760 C   0  0  0  0  0  0  0  0  0  0  0  0
  139.7090   69.8750  225.1700 C   0  0  0  0  0  0  0  0  0  0  0  0
  139.2920   68.8980  226.0610 C   0  0  0  0  0  0  0  0  0  0  0  0
  139.5940   69.0600  227.3990 C   0  0  0  0  0  0  0  0  0  0  0  0
  140.2950   70.1700  227.8330 C   0  0  0  0  0  0  0  0  0  0  0  0
  140.7000   71.1360  226.9020 C   0  0  0  0  0  0  0  0  0  0  0  0
  141.4650   72.3450  227.3340 C   0  0  0  0  0  0  0  0  0  0  0  0
  140.4100   70.9960  225.5650 C   0  0  0  0  0  0  0  0  0  0  0  0
  140.6750   71.8170  224.3330 C   0  0  0  0  0  0  0  0  0  0  0  0
  140.3180   74.7400  221.9630 C   0  0  0  0  0  0  0  0  0  0  0  0
  140.4510   76.2200  222.0740 C   0  0  0  0  0  0  0  0  0  0  0  0
  138.1816   79.9018  225.1265 H   0  0  0  0  0  0  0  0  0  0  0  0
  138.8425   81.5381  224.7913 H   0  0  0  0  0  0  0  0  0  0  0  0
  137.0664   81.2695  224.7913 H   0  0  0  0  0  0  0  0  0  0  0  0
  137.2314   80.9550  222.5452 H   0  0  0  0  0  0  0  0  0  0  0  0
  139.0072   80.8997  222.6000 H   0  0  0  0  0  0  0  0  0  0  0  0
  140.4106   79.3842  220.5114 H   0  0  0  0  0  0  0  0  0  0  0  0
  142.5903   80.5843  220.5915 H   0  0  0  0  0  0  0  0  0  0  0  0
  143.8345   80.8099  222.7262 H   0  0  0  0  0  0  0  0  0  0  0  0
  142.8899   79.8264  224.8074 H   0  0  0  0  0  0  0  0  0  0  0  0
  140.6988   78.6096  224.7607 H   0  0  0  0  0  0  0  0  0  0  0  0
  138.7270   76.4114  223.3663 H   0  0  0  0  0  0  0  0  0  0  0  0
  137.3051   77.1239  221.2518 H   0  0  0  0  0  0  0  0  0  0  0  0
  138.7194   76.7156  220.2690 H   0  0  0  0  0  0  0  0  0  0  0  0
  137.1046   74.9560  222.1395 H   0  0  0  0  0  0  0  0  0  0  0  0
  137.4896   74.7272  220.3730 H   0  0  0  0  0  0  0  0  0  0  0  0
  140.6889   72.0037  221.8368 H   0  0  0  0  0  0  0  0  0  0  0  0
  138.5270   70.6090  220.6670 H   0  0  0  0  0  0  0  0  0  0  0  0
  140.2080   70.4510  220.4840 H   0  0  0  0  0  0  0  0  0  0  0  0
  138.5755   71.9674  223.7906 H   0  0  0  0  0  0  0  0  0  0  0  0
  138.5654   69.4588  223.3681 H   0  0  0  0  0  0  0  0  0  0  0  0
  140.2646   69.3897  223.0804 H   0  0  0  0  0  0  0  0  0  0  0  0
  138.7349   68.0164  225.7112 H   0  0  0  0  0  0  0  0  0  0  0  0
  139.2739   68.2990  228.1260 H   0  0  0  0  0  0  0  0  0  0  0  0
  140.5327   70.2938  228.8998 H   0  0  0  0  0  0  0  0  0  0  0  0
  141.4924   72.3883  228.4328 H   0  0  0  0  0  0  0  0  0  0  0  0
  142.4918   72.2880  226.9436 H   0  0  0  0  0  0  0  0  0  0  0  0
  140.9739   73.2485  226.9436 H   0  0  0  0  0  0  0  0  0  0  0  0
  140.6826   72.8943  224.5554 H   0  0  0  0  0  0  0  0  0  0  0  0
  141.6521   71.6372  223.8607 H   0  0  0  0  0  0  0  0  0  0  0  0
  140.6563   74.3040  222.9146 H   0  0  0  0  0  0  0  0  0  0  0  0
  140.9218   74.4636  221.0861 H   0  0  0  0  0  0  0  0  0  0  0  0
  141.1812   76.4635  222.8598 H   0  0  0  0  0  0  0  0  0  0  0  0
  140.7938   76.6279  221.1116 H   0  0  0  0  0  0  0  0  0  0  0  0
  1  2  1  0
  2  3  1  0
  3  4  2  0
  3  5  1  0
  5  6  1  0
  6  7  2  0
  7  8  1  0
  8  9  2  0
  9 10  1  0
 10 11  2  0
  5 12  1  0
 12 13  1  0
 13 14  1  0
 14 15  1  0
 15 16  1  0
 16 17  2  0
 16 18  1  0
 18 19  1  0
 18 20  1  0
 20 21  1  0
 21 22  1  0
 22 23  2  0
 23 24  1  0
 24 25  2  0
 25 26  1  0
 26 27  1  0
 26 28  2  0
 28 29  1  0
 15 30  1  0
 30 31  1  0
 11  6  1  0
 31 12  1  0
 29 20  1  0
 28 22  1  0
  1 32  1  0
  1 33  1  0
  1 34  1  0
  2 35  1  0
  2 36  1  0
  7 37  1  0
  8 38  1  0
  9 39  1  0
 10 40  1  0
 11 41  1  0
 12 42  1  0
 13 43  1  0
 13 44  1  0
 14 45  1  0
 14 46  1  0
 18 47  1  1
 19 48  1  0
 19 49  1  0
 20 50  1  1
 21 51  1  0
 21 52  1  0
 23 53  1  0
 24 54  1  0
 25 55  1  0
 27 56  1  0
 27 57  1  0
 27 58  1  0
 29 59  1  0
 29 60  1  0
 30 61  1  0
 30 62  1  0
 31 63  1  0
 31 64  1  0
M  END
>  <smiles>  (79) 
CCC(=O)N(c1ccccc1)C1CCN(C(=O)[C@H](N)C2Cc3cccc(C)c3C2)CC1

>  <score_type>  (79) 
oracle

>  <origin>  (79) 
autodockgpu

>  <m_score__min__energy>  (79) 
-9.3900000000000006

>  <m_primary>  (79) 
energy

>  <rmsd>  (79) 
8.911327868223596

>  <m_score__min__rmsd>  (79) 
8.911327868223596

>  <meeko>  (79) 
{"free_energy": -8.28, "intermolecular_energy": -10.36, "internal_energy": -2.1, "cluster_size": 12, "cluster_id": 4, "rank_in_cluster": 10}

>  <energy>  (79) 
-8.28

>  <cluster_rmsd>  (79) 
0.71

>  <cluster>  (79) 
2

$$$$

     RDKit          3D

 64 67  0  0  0  0  0  0  0  0999 V2000
  145.4360   74.1970  220.5810 C   0  0  0  0  0  0  0  0  0  0  0  0
  145.8470   72.7580  220.8480 C   0  0  0  0  0  0  0  0  0  0  0  0
  145.3760   71.9570  219.7000 C   0  0  0  0  0  0  0  0  0  0  0  0
  145.9460   72.1840  218.5850 O   0  0  0  0  0  0  0  0  0  0  0  0
  144.3350   70.9730  219.8210 N   0  0  0  0  0  0  0  0  0  0  0  0
  144.6300   69.6680  219.2790 C   0  0  0  0  0  0  0  0  0  0  0  0
  144.6900   68.5470  220.0670 C   0  0  0  0  0  0  0  0  0  0  0  0
  144.9770   67.3300  219.4650 C   0  0  0  0  0  0  0  0  0  0  0  0
  145.1990   67.2370  218.1020 C   0  0  0  0  0  0  0  0  0  0  0  0
  145.1300   68.3890  217.3260 C   0  0  0  0  0  0  0  0  0  0  0  0
  144.8450   69.6300  217.8980 C   0  0  0  0  0  0  0  0  0  0  0  0
  143.0810   71.2690  220.4450 C   0  0  0  0  0  0  0  0  0  0  0  0
  142.5870   72.6760  220.0720 C   0  0  0  0  0  0  0  0  0  0  0  0
  141.5520   73.0250  221.0830 C   0  0  0  0  0  0  0  0  0  0  0  0
  140.6200   71.9270  221.3470 N   0  0  0  0  0  0  0  0  0  0  0  0
  139.5720   72.2690  222.2530 C   0  0  0  0  0  0  0  0  0  0  0  0
  139.6120   73.4530  222.7100 O   0  0  0  0  0  0  0  0  0  0  0  0
  138.4740   71.4150  222.7030 C   0  0  2  0  0  0  0  0  0  0  0  0
  137.2230   72.0470  222.5450 N   0  0  0  0  0  0  0  0  0  0  0  0
  138.8230   70.9850  224.1040 C   0  0  1  0  0  0  0  0  0  0  0  0
  139.2990   69.5480  224.0610 C   0  0  0  0  0  0  0  0  0  0  0  0
  139.9090   69.4610  225.4370 C   0  0  0  0  0  0  0  0  0  0  0  0
  140.0330   68.3500  226.2570 C   0  0  0  0  0  0  0  0  0  0  0  0
  140.6390   68.5080  227.4880 C   0  0  0  0  0  0  0  0  0  0  0  0
  141.1090   69.7440  227.8870 C   0  0  0  0  0  0  0  0  0  0  0  0
  140.9670   70.8450  227.0310 C   0  0  0  0  0  0  0  0  0  0  0  0
  141.4690   72.1960  227.4270 C   0  0  0  0  0  0  0  0  0  0  0  0
  140.3650   70.7110  225.8010 C   0  0  0  0  0  0  0  0  0  0  0  0
  140.0480   71.6510  224.6710 C   0  0  0  0  0  0  0  0  0  0  0  0
  140.7380   70.6290  220.7660 C   0  0  0  0  0  0  0  0  0  0  0  0
  141.9810   70.3440  219.9960 C   0  0  0  0  0  0  0  0  0  0  0  0
  145.2868   74.7192  221.5376 H   0  0  0  0  0  0  0  0  0  0  0  0
  146.2255   74.7032  220.0061 H   0  0  0  0  0  0  0  0  0  0  0  0
  144.4983   74.2099  220.0061 H   0  0  0  0  0  0  0  0  0  0  0  0
  146.9413   72.6871  220.9351 H   0  0  0  0  0  0  0  0  0  0  0  0
  145.4103   72.3920  221.7889 H   0  0  0  0  0  0  0  0  0  0  0  0
  144.5147   68.6111  221.1510 H   0  0  0  0  0  0  0  0  0  0  0  0
  145.0291   66.4216  220.0831 H   0  0  0  0  0  0  0  0  0  0  0  0
  145.4268   66.2655  217.6391 H   0  0  0  0  0  0  0  0  0  0  0  0
  145.3032   68.3210  216.2418 H   0  0  0  0  0  0  0  0  0  0  0  0
  144.7916   70.5425  217.2861 H   0  0  0  0  0  0  0  0  0  0  0  0
  143.2752   71.1650  221.5227 H   0  0  0  0  0  0  0  0  0  0  0  0
  143.4177   73.3960  220.1103 H   0  0  0  0  0  0  0  0  0  0  0  0
  142.1800   72.7040  219.0504 H   0  0  0  0  0  0  0  0  0  0  0  0
  142.0561   73.2913  222.0237 H   0  0  0  0  0  0  0  0  0  0  0  0
  140.9669   73.8648  220.6799 H   0  0  0  0  0  0  0  0  0  0  0  0
  138.3582   70.5118  222.0860 H   0  0  0  0  0  0  0  0  0  0  0  0
  137.1630   73.0280  222.8840 H   0  0  0  0  0  0  0  0  0  0  0  0
  136.7700   71.9530  221.6290 H   0  0  0  0  0  0  0  0  0  0  0  0
  137.9193   71.2078  224.6903 H   0  0  0  0  0  0  0  0  0  0  0  0
  138.4659   68.8411  223.9336 H   0  0  0  0  0  0  0  0  0  0  0  0
  139.9723   69.2971  223.2281 H   0  0  0  0  0  0  0  0  0  0  0  0
  139.6581   67.3672  225.9352 H   0  0  0  0  0  0  0  0  0  0  0  0
  140.7484   67.6415  228.1568 H   0  0  0  0  0  0  0  0  0  0  0  0
  141.5909   69.8634  228.8686 H   0  0  0  0  0  0  0  0  0  0  0  0
  141.4964   72.2699  228.5242 H   0  0  0  0  0  0  0  0  0  0  0  0
  142.4819   72.3434  227.0241 H   0  0  0  0  0  0  0  0  0  0  0  0
  140.7981   72.9690  227.0241 H   0  0  0  0  0  0  0  0  0  0  0  0
  139.8283   72.6656  225.0349 H   0  0  0  0  0  0  0  0  0  0  0  0
  140.8667   71.7992  223.9514 H   0  0  0  0  0  0  0  0  0  0  0  0
  140.6767   69.8934  221.5816 H   0  0  0  0  0  0  0  0  0  0  0  0
  139.9246   70.5711  220.0277 H   0  0  0  0  0  0  0  0  0  0  0  0
  142.2869   69.3016  220.1687 H   0  0  0  0  0  0  0  0  0  0  0  0
  141.7889   70.5006  218.9243 H   0  0  0  0  0  0  0  0  0  0  0  0
  1  2  1  0
  2  3  1  0
  3  4  2  0
  3  5  1  0
  5  6  1  0
  6  7  2  0
  7  8  1  0
  8  9  2  0
  9 10  1  0
 10 11  2  0
  5 12  1  0
 12 13  1  0
 13 14  1  0
 14 15  1  0
 15 16  1  0
 16 17  2  0
 16 18  1  0
 18 19  1  0
 18 20  1  0
 20 21  1  0
 21 22  1  0
 22 23  2  0
 23 24  1  0
 24 25  2  0
 25 26  1  0
 26 27  1  0
 26 28  2  0
 28 29  1  0
 15 30  1  0
 30 31  1  0
 11  6  1  0
 31 12  1  0
 29 20  1  0
 28 22  1  0
  1 32  1  0
  1 33  1  0
  1 34  1  0
  2 35  1  0
  2 36  1  0
  7 37  1  0
  8 38  1  0
  9 39  1  0
 10 40  1  0
 11 41  1  0
 12 42  1  0
 13 43  1  0
 13 44  1  0
 14 45  1  0
 14 46  1  0
 18 47  1  6
 19 48  1  0
 19 49  1  0
 20 50  1  1
 21 51  1  0
 21 52  1  0
 23 53  1  0
 24 54  1  0
 25 55  1  0
 27 56  1  0
 27 57  1  0
 27 58  1  0
 29 59  1  0
 29 60  1  0
 30 61  1  0
 30 62  1  0
 31 63  1  0
 31 64  1  0
M  END
>  <smiles>  (80) 
CCC(=O)N(c1ccccc1)C1CCN(C(=O)[C@H](N)C2Cc3cccc(C)c3C2)CC1

>  <score_type>  (80) 
oracle

>  <origin>  (80) 
autodockgpu

>  <m_score__min__energy>  (80) 
-9.3900000000000006

>  <m_primary>  (80) 
energy

>  <rmsd>  (80) 
9.864680860165986

>  <m_score__min__rmsd>  (80) 
9.864680860165986

>  <meeko>  (80) 
{"free_energy": -9.06, "intermolecular_energy": -11.15, "internal_energy": -1.9, "cluster_size": 16, "cluster_id": 1, "rank_in_cluster": 5}

>  <energy>  (80) 
-8.25

>  <cluster_rmsd>  (80) 
0.75

>  <cluster>  (80) 
2

$$$$

     RDKit          3D

 64 67  0  0  0  0  0  0  0  0999 V2000
  145.5920   74.4700  220.8160 C   0  0  0  0  0  0  0  0  0  0  0  0
  145.8050   73.0170  221.2090 C   0  0  0  0  0  0  0  0  0  0  0  0
  145.4790   72.2010  220.0220 C   0  0  0  0  0  0  0  0  0  0  0  0
  146.2120   72.3790  218.9980 O   0  0  0  0  0  0  0  0  0  0  0  0
  144.3970   71.2530  220.0120 N   0  0  0  0  0  0  0  0  0  0  0  0
  144.6810   69.9730  219.4090 C   0  0  0  0  0  0  0  0  0  0  0  0
  144.5340   68.7940  220.0950 C   0  0  0  0  0  0  0  0  0  0  0  0
  144.8260   67.6070  219.4390 C   0  0  0  0  0  0  0  0  0  0  0  0
  145.2570   67.5990  218.1240 C   0  0  0  0  0  0  0  0  0  0  0  0
  145.3970   68.8080  217.4520 C   0  0  0  0  0  0  0  0  0  0  0  0
  145.1120   70.0220  218.0800 C   0  0  0  0  0  0  0  0  0  0  0  0
  143.1150   71.5600  220.5700 C   0  0  0  0  0  0  0  0  0  0  0  0
  142.6680   72.9830  220.1990 C   0  0  0  0  0  0  0  0  0  0  0  0
  141.5830   73.3310  221.1560 C   0  0  0  0  0  0  0  0  0  0  0  0
  140.6180   72.2460  221.3440 N   0  0  0  0  0  0  0  0  0  0  0  0
  139.5260   72.5900  222.1970 C   0  0  0  0  0  0  0  0  0  0  0  0
  139.5610   73.7630  222.6790 O   0  0  0  0  0  0  0  0  0  0  0  0
  138.3890   71.7480  222.5650 C   0  0  2  0  0  0  0  0  0  0  0  0
  137.1760   72.4660  222.5310 N   0  0  0  0  0  0  0  0  0  0  0  0
  138.7450   71.1160  223.8850 C   0  0  1  0  0  0  0  0  0  0  0  0
  139.2100   69.6980  223.6300 C   0  0  0  0  0  0  0  0  0  0  0  0
  139.8290   69.4060  224.9730 C   0  0  0  0  0  0  0  0  0  0  0  0
  139.9500   68.1870  225.6220 C   0  0  0  0  0  0  0  0  0  0  0  0
  140.5660   68.1600  226.8570 C   0  0  0  0  0  0  0  0  0  0  0  0
  141.0490   69.3220  227.4280 C   0  0  0  0  0  0  0  0  0  0  0  0
  140.9080   70.5370  226.7430 C   0  0  0  0  0  0  0  0  0  0  0  0
  141.4250   71.8120  227.3270 C   0  0  0  0  0  0  0  0  0  0  0  0
  140.2970   70.5880  225.5110 C   0  0  0  0  0  0  0  0  0  0  0  0
  139.9790   71.6840  224.5330 C   0  0  0  0  0  0  0  0  0  0  0  0
  140.7470   70.9580  220.7440 C   0  0  0  0  0  0  0  0  0  0  0  0
  142.0260   70.6650  220.0400 C   0  0  0  0  0  0  0  0  0  0  0  0
  145.5017   75.0857  221.7230 H   0  0  0  0  0  0  0  0  0  0  0  0
  146.4487   74.8181  220.2203 H   0  0  0  0  0  0  0  0  0  0  0  0
  144.6714   74.5576  220.2203 H   0  0  0  0  0  0  0  0  0  0  0  0
  146.8520   72.8543  221.5043 H   0  0  0  0  0  0  0  0  0  0  0  0
  145.1689   72.7422  222.0633 H   0  0  0  0  0  0  0  0  0  0  0  0
  144.1926   68.7900  221.1407 H   0  0  0  0  0  0  0  0  0  0  0  0
  144.7127   66.6531  219.9749 H   0  0  0  0  0  0  0  0  0  0  0  0
  145.4856   66.6496  217.6176 H   0  0  0  0  0  0  0  0  0  0  0  0
  145.7386   68.8081  216.4064 H   0  0  0  0  0  0  0  0  0  0  0  0
  145.2223   70.9795  217.5498 H   0  0  0  0  0  0  0  0  0  0  0  0
  143.2456   71.4309  221.6546 H   0  0  0  0  0  0  0  0  0  0  0  0
  143.5076   73.6865  220.2998 H   0  0  0  0  0  0  0  0  0  0  0  0
  142.3211   73.0390  219.1567 H   0  0  0  0  0  0  0  0  0  0  0  0
  142.0368   73.5694  222.1293 H   0  0  0  0  0  0  0  0  0  0  0  0
  141.0368   74.1891  220.7372 H   0  0  0  0  0  0  0  0  0  0  0  0
  138.2030   70.9431  221.8387 H   0  0  0  0  0  0  0  0  0  0  0  0
  136.3350   71.9520  222.8630 H   0  0  0  0  0  0  0  0  0  0  0  0
  137.1910   73.4190  222.9120 H   0  0  0  0  0  0  0  0  0  0  0  0
  137.8469   71.2568  224.5044 H   0  0  0  0  0  0  0  0  0  0  0  0
  138.3707   69.0227  223.4074 H   0  0  0  0  0  0  0  0  0  0  0  0
  139.8761   69.5677  222.7644 H   0  0  0  0  0  0  0  0  0  0  0  0
  139.5646   67.2640  225.1641 H   0  0  0  0  0  0  0  0  0  0  0  0
  140.6734   67.2047  227.3916 H   0  0  0  0  0  0  0  0  0  0  0  0
  141.5401   69.2939  228.4119 H   0  0  0  0  0  0  0  0  0  0  0  0
  141.3996   71.7493  228.4249 H   0  0  0  0  0  0  0  0  0  0  0  0
  142.4603   71.9750  226.9929 H   0  0  0  0  0  0  0  0  0  0  0  0
  140.7956   72.6500  226.9929 H   0  0  0  0  0  0  0  0  0  0  0  0
  139.7696   72.6361  225.0426 H   0  0  0  0  0  0  0  0  0  0  0  0
  140.7936   71.9299  223.8359 H   0  0  0  0  0  0  0  0  0  0  0  0
  140.6267   70.2079  221.5395 H   0  0  0  0  0  0  0  0  0  0  0  0
  139.9763   70.9299  219.9596 H   0  0  0  0  0  0  0  0  0  0  0  0
  142.3030   69.6137  220.2077 H   0  0  0  0  0  0  0  0  0  0  0  0
  141.8981   70.8465  218.9626 H   0  0  0  0  0  0  0  0  0  0  0  0
  1  2  1  0
  2  3  1  0
  3  4  2  0
  3  5  1  0
  5  6  1  0
  6  7  2  0
  7  8  1  0
  8  9  2  0
  9 10  1  0
 10 11  2  0
  5 12  1  0
 12 13  1  0
 13 14  1  0
 14 15  1  0
 15 16  1  0
 16 17  2  0
 16 18  1  0
 18 19  1  0
 18 20  1  0
 20 21  1  0
 21 22  1  0
 22 23  2  0
 23 24  1  0
 24 25  2  0
 25 26  1  0
 26 27  1  0
 26 28  2  0
 28 29  1  0
 15 30  1  0
 30 31  1  0
 11  6  1  0
 31 12  1  0
 29 20  1  0
 28 22  1  0
  1 32  1  0
  1 33  1  0
  1 34  1  0
  2 35  1  0
  2 36  1  0
  7 37  1  0
  8 38  1  0
  9 39  1  0
 10 40  1  0
 11 41  1  0
 12 42  1  0
 13 43  1  0
 13 44  1  0
 14 45  1  0
 14 46  1  0
 18 47  1  6
 19 48  1  0
 19 49  1  0
 20 50  1  1
 21 51  1  0
 21 52  1  0
 23 53  1  0
 24 54  1  0
 25 55  1  0
 27 56  1  0
 27 57  1  0
 27 58  1  0
 29 59  1  0
 29 60  1  0
 30 61  1  0
 30 62  1  0
 31 63  1  0
 31 64  1  0
M  END
>  <smiles>  (81) 
CCC(=O)N(c1ccccc1)C1CCN(C(=O)[C@H](N)C2Cc3cccc(C)c3C2)CC1

>  <score_type>  (81) 
oracle

>  <origin>  (81) 
autodockgpu

>  <m_score__min__energy>  (81) 
-9.3900000000000006

>  <m_primary>  (81) 
energy

>  <rmsd>  (81) 
9.721289041390083

>  <m_score__min__rmsd>  (81) 
9.721289041390083

>  <meeko>  (81) 
{"free_energy": -8.75, "intermolecular_energy": -10.83, "internal_energy": -2.02, "cluster_size": 16, "cluster_id": 1, "rank_in_cluster": 11}

>  <energy>  (81) 
-8.13

>  <cluster_rmsd>  (81) 
0.79

>  <cluster>  (81) 
2

$$$$

     RDKit          3D

 64 67  0  0  0  0  0  0  0  0999 V2000
  144.1110   74.5710  220.1430 C   0  0  0  0  0  0  0  0  0  0  0  0
  143.6850   75.9740  219.7420 C   0  0  0  0  0  0  0  0  0  0  0  0
  142.2100   75.9700  219.6700 C   0  0  0  0  0  0  0  0  0  0  0  0
  141.7030   75.8900  218.5060 O   0  0  0  0  0  0  0  0  0  0  0  0
  141.3800   76.0510  220.8420 N   0  0  0  0  0  0  0  0  0  0  0  0
  141.3960   77.3130  221.5440 C   0  0  0  0  0  0  0  0  0  0  0  0
  141.0740   77.4120  222.8730 C   0  0  0  0  0  0  0  0  0  0  0  0
  141.1170   78.6630  223.4720 C   0  0  0  0  0  0  0  0  0  0  0  0
  141.4760   79.7910  222.7550 C   0  0  0  0  0  0  0  0  0  0  0  0
  141.8000   79.6620  221.4090 C   0  0  0  0  0  0  0  0  0  0  0  0
  141.7660   78.4200  220.7740 C   0  0  0  0  0  0  0  0  0  0  0  0
  140.5830   74.9480  221.2850 C   0  0  0  0  0  0  0  0  0  0  0  0
  139.1060   75.1330  220.9010 C   0  0  0  0  0  0  0  0  0  0  0  0
  138.3410   74.1900  221.7600 C   0  0  0  0  0  0  0  0  0  0  0  0
  138.9550   72.8630  221.8380 N   0  0  0  0  0  0  0  0  0  0  0  0
  138.1920   71.9210  222.5920 C   0  0  0  0  0  0  0  0  0  0  0  0
  137.1180   72.3700  223.0980 O   0  0  0  0  0  0  0  0  0  0  0  0
  138.5120   70.5160  222.8380 C   0  0  2  0  0  0  0  0  0  0  0  0
  137.4970   69.6590  222.3640 N   0  0  0  0  0  0  0  0  0  0  0  0
  138.8330   70.4090  224.3060 C   0  0  1  0  0  0  0  0  0  0  0  0
  139.2880   68.9940  224.5960 C   0  0  0  0  0  0  0  0  0  0  0  0
  139.8760   69.2130  225.9680 C   0  0  0  0  0  0  0  0  0  0  0  0
  139.9700   68.3140  227.0190 C   0  0  0  0  0  0  0  0  0  0  0  0
  140.5600   68.7390  228.1930 C   0  0  0  0  0  0  0  0  0  0  0  0
  141.0420   70.0280  228.3120 C   0  0  0  0  0  0  0  0  0  0  0  0
  140.9290   70.9090  227.2270 C   0  0  0  0  0  0  0  0  0  0  0  0
  141.4450   72.3090  227.3180 C   0  0  0  0  0  0  0  0  0  0  0  0
  140.3450   70.5080  226.0490 C   0  0  0  0  0  0  0  0  0  0  0  0
  140.0580   71.1720  224.7300 C   0  0  0  0  0  0  0  0  0  0  0  0
  140.2010   72.5290  221.2280 C   0  0  0  0  0  0  0  0  0  0  0  0
  140.9870   73.6490  220.6390 C   0  0  0  0  0  0  0  0  0  0  0  0
  144.1343   74.4944  221.2401 H   0  0  0  0  0  0  0  0  0  0  0  0
  143.3941   73.8407  219.7396 H   0  0  0  0  0  0  0  0  0  0  0  0
  145.1129   74.3626  219.7396 H   0  0  0  0  0  0  0  0  0  0  0  0
  144.0251   76.7019  220.4933 H   0  0  0  0  0  0  0  0  0  0  0  0
  144.1258   76.2582  218.7751 H   0  0  0  0  0  0  0  0  0  0  0  0
  140.7883   76.5207  223.4509 H   0  0  0  0  0  0  0  0  0  0  0  0
  140.8608   78.7600  224.5373 H   0  0  0  0  0  0  0  0  0  0  0  0
  141.5046   80.7762  223.2433 H   0  0  0  0  0  0  0  0  0  0  0  0
  142.0882   80.5548  220.8346 H   0  0  0  0  0  0  0  0  0  0  0  0
  142.0204   78.3157  219.7089 H   0  0  0  0  0  0  0  0  0  0  0  0
  140.7325   74.9166  222.3743 H   0  0  0  0  0  0  0  0  0  0  0  0
  138.7878   76.1686  221.0917 H   0  0  0  0  0  0  0  0  0  0  0  0
  138.9382   74.9332  219.8324 H   0  0  0  0  0  0  0  0  0  0  0  0
  138.2818   74.6094  222.7752 H   0  0  0  0  0  0  0  0  0  0  0  0
  137.3454   74.0667  221.3089 H   0  0  0  0  0  0  0  0  0  0  0  0
  139.3895   70.1743  222.2694 H   0  0  0  0  0  0  0  0  0  0  0  0
  136.5570   70.0890  222.2480 H   0  0  0  0  0  0  0  0  0  0  0  0
  137.7280   69.0720  221.5540 H   0  0  0  0  0  0  0  0  0  0  0  0
  137.9241   70.7679  224.8110 H   0  0  0  0  0  0  0  0  0  0  0  0
  138.4465   68.2859  224.6159 H   0  0  0  0  0  0  0  0  0  0  0  0
  139.9699   68.5543  223.8532 H   0  0  0  0  0  0  0  0  0  0  0  0
  139.5845   67.2885  226.9204 H   0  0  0  0  0  0  0  0  0  0  0  0
  140.6470   68.0444  229.0415 H   0  0  0  0  0  0  0  0  0  0  0  0
  141.5106   70.3606  229.2500 H   0  0  0  0  0  0  0  0  0  0  0  0
  141.5497   72.5932  228.3755 H   0  0  0  0  0  0  0  0  0  0  0  0
  142.4252   72.3714  226.8227 H   0  0  0  0  0  0  0  0  0  0  0  0
  140.7398   72.9926  226.8227 H   0  0  0  0  0  0  0  0  0  0  0  0
  139.8474   72.2448  224.8517 H   0  0  0  0  0  0  0  0  0  0  0  0
  140.8894   71.1448  224.0103 H   0  0  0  0  0  0  0  0  0  0  0  0
  140.8282   72.0506  221.9946 H   0  0  0  0  0  0  0  0  0  0  0  0
  139.9385   71.8849  220.3758 H   0  0  0  0  0  0  0  0  0  0  0  0
  142.0592   73.4732  220.8109 H   0  0  0  0  0  0  0  0  0  0  0  0
  140.7899   73.7031  219.5582 H   0  0  0  0  0  0  0  0  0  0  0  0
  1  2  1  0
  2  3  1  0
  3  4  2  0
  3  5  1  0
  5  6  1  0
  6  7  2  0
  7  8  1  0
  8  9  2  0
  9 10  1  0
 10 11  2  0
  5 12  1  0
 12 13  1  0
 13 14  1  0
 14 15  1  0
 15 16  1  0
 16 17  2  0
 16 18  1  0
 18 19  1  0
 18 20  1  0
 20 21  1  0
 21 22  1  0
 22 23  2  0
 23 24  1  0
 24 25  2  0
 25 26  1  0
 26 27  1  0
 26 28  2  0
 28 29  1  0
 15 30  1  0
 30 31  1  0
 11  6  1  0
 31 12  1  0
 29 20  1  0
 28 22  1  0
  1 32  1  0
  1 33  1  0
  1 34  1  0
  2 35  1  0
  2 36  1  0
  7 37  1  0
  8 38  1  0
  9 39  1  0
 10 40  1  0
 11 41  1  0
 12 42  1  0
 13 43  1  0
 13 44  1  0
 14 45  1  0
 14 46  1  0
 18 47  1  6
 19 48  1  0
 19 49  1  0
 20 50  1  1
 21 51  1  0
 21 52  1  0
 23 53  1  0
 24 54  1  0
 25 55  1  0
 27 56  1  0
 27 57  1  0
 27 58  1  0
 29 59  1  0
 29 60  1  0
 30 61  1  0
 30 62  1  0
 31 63  1  0
 31 64  1  0
M  END
>  <smiles>  (82) 
CCC(=O)N(c1ccccc1)C1CCN(C(=O)[C@H](N)C2Cc3cccc(C)c3C2)CC1

>  <score_type>  (82) 
oracle

>  <origin>  (82) 
autodockgpu

>  <m_score__min__energy>  (82) 
-9.3900000000000006

>  <m_primary>  (82) 
energy

>  <rmsd>  (82) 
9.70149199721096

>  <m_score__min__rmsd>  (82) 
9.70149199721096

>  <meeko>  (82) 
{"free_energy": -8.32, "intermolecular_energy": -10.41, "internal_energy": -1.95, "cluster_size": 18, "cluster_id": 2, "rank_in_cluster": 12}

>  <energy>  (82) 
-8.1

>  <cluster_rmsd>  (82) 
1.17

>  <cluster>  (82) 
2

$$$$

     RDKit          3D

 64 67  0  0  0  0  0  0  0  0999 V2000
  145.8560   74.1500  220.8800 C   0  0  0  0  0  0  0  0  0  0  0  0
  146.3080   72.7010  220.7860 C   0  0  0  0  0  0  0  0  0  0  0  0
  145.5780   72.0980  219.6520 C   0  0  0  0  0  0  0  0  0  0  0  0
  145.9150   72.4940  218.4910 O   0  0  0  0  0  0  0  0  0  0  0  0
  144.5440   71.1160  219.8360 N   0  0  0  0  0  0  0  0  0  0  0  0
  144.8540   69.7780  219.3930 C   0  0  0  0  0  0  0  0  0  0  0  0
  144.4630   68.6680  220.0970 C   0  0  0  0  0  0  0  0  0  0  0  0
  144.8010   67.4170  219.5990 C   0  0  0  0  0  0  0  0  0  0  0  0
  145.5140   67.2810  218.4210 C   0  0  0  0  0  0  0  0  0  0  0  0
  145.8970   68.4230  217.7270 C   0  0  0  0  0  0  0  0  0  0  0  0
  145.5760   69.6970  218.1980 C   0  0  0  0  0  0  0  0  0  0  0  0
  143.2820   71.4460  220.4260 C   0  0  0  0  0  0  0  0  0  0  0  0
  142.8890   72.9030  220.1310 C   0  0  0  0  0  0  0  0  0  0  0  0
  141.8300   73.2460  221.1200 C   0  0  0  0  0  0  0  0  0  0  0  0
  140.8240   72.1920  221.2660 N   0  0  0  0  0  0  0  0  0  0  0  0
  139.7570   72.5370  222.1500 C   0  0  0  0  0  0  0  0  0  0  0  0
  139.8450   73.6820  222.6890 O   0  0  0  0  0  0  0  0  0  0  0  0
  138.5910   71.7230  222.4910 C   0  0  2  0  0  0  0  0  0  0  0  0
  137.3950   72.4660  222.4090 N   0  0  0  0  0  0  0  0  0  0  0  0
  138.8910   71.1010  223.8300 C   0  0  1  0  0  0  0  0  0  0  0  0
  139.3550   69.6770  223.6050 C   0  0  0  0  0  0  0  0  0  0  0  0
  139.9190   69.3930  224.9740 C   0  0  0  0  0  0  0  0  0  0  0  0
  140.0060   68.1790  225.6360 C   0  0  0  0  0  0  0  0  0  0  0  0
  140.5740   68.1580  226.8950 C   0  0  0  0  0  0  0  0  0  0  0  0
  141.0430   69.3220  227.4740 C   0  0  0  0  0  0  0  0  0  0  0  0
  140.9380   70.5320  226.7740 C   0  0  0  0  0  0  0  0  0  0  0  0
  141.4400   71.8080  227.3670 C   0  0  0  0  0  0  0  0  0  0  0  0
  140.3750   70.5760  225.5190 C   0  0  0  0  0  0  0  0  0  0  0  0
  140.1030   71.6660  224.5200 C   0  0  0  0  0  0  0  0  0  0  0  0
  140.8930   70.9320  220.6010 C   0  0  0  0  0  0  0  0  0  0  0  0
  142.1520   70.6230  219.8660 C   0  0  0  0  0  0  0  0  0  0  0  0
  145.7661   74.4382  221.9378 H   0  0  0  0  0  0  0  0  0  0  0  0
  146.5949   74.7974  220.3851 H   0  0  0  0  0  0  0  0  0  0  0  0
  144.8801   74.2625  220.3851 H   0  0  0  0  0  0  0  0  0  0  0  0
  147.3922   72.6536  220.6064 H   0  0  0  0  0  0  0  0  0  0  0  0
  146.0989   72.1612  221.7214 H   0  0  0  0  0  0  0  0  0  0  0  0
  143.8951   68.7665  221.0339 H   0  0  0  0  0  0  0  0  0  0  0  0
  144.4960   66.5162  220.1517 H   0  0  0  0  0  0  0  0  0  0  0  0
  145.7742   66.2829  218.0389 H   0  0  0  0  0  0  0  0  0  0  0  0
  146.4634   68.3207  216.7896 H   0  0  0  0  0  0  0  0  0  0  0  0
  145.8790   70.6018  217.6508 H   0  0  0  0  0  0  0  0  0  0  0  0
  143.4191   71.2581  221.5011 H   0  0  0  0  0  0  0  0  0  0  0  0
  143.7577   73.5665  220.2544 H   0  0  0  0  0  0  0  0  0  0  0  0
  142.5324   73.0247  219.0975 H   0  0  0  0  0  0  0  0  0  0  0  0
  142.3046   73.4161  222.0977 H   0  0  0  0  0  0  0  0  0  0  0  0
  141.3146   74.1459  220.7531 H   0  0  0  0  0  0  0  0  0  0  0  0
  138.4116   70.9127  221.7691 H   0  0  0  0  0  0  0  0  0  0  0  0
  136.5410   71.9910  222.7620 H   0  0  0  0  0  0  0  0  0  0  0  0
  137.4300   73.4370  222.7390 H   0  0  0  0  0  0  0  0  0  0  0  0
  137.9711   71.2541  224.4134 H   0  0  0  0  0  0  0  0  0  0  0  0
  138.5200   69.0058  223.3556 H   0  0  0  0  0  0  0  0  0  0  0  0
  140.0531   69.5340  222.7670 H   0  0  0  0  0  0  0  0  0  0  0  0
  139.6321   67.2550  225.1707 H   0  0  0  0  0  0  0  0  0  0  0  0
  140.6537   67.2067  227.4414 H   0  0  0  0  0  0  0  0  0  0  0  0
  141.4952   69.2991  228.4765 H   0  0  0  0  0  0  0  0  0  0  0  0
  141.4125   71.7381  228.4644 H   0  0  0  0  0  0  0  0  0  0  0  0
  142.4744   71.9839  227.0366 H   0  0  0  0  0  0  0  0  0  0  0  0
  140.8028   72.6415  227.0366 H   0  0  0  0  0  0  0  0  0  0  0  0
  139.8812   72.6240  225.0130 H   0  0  0  0  0  0  0  0  0  0  0  0
  140.9456   71.9002  223.8528 H   0  0  0  0  0  0  0  0  0  0  0  0
  140.7507   70.1482  221.3596 H   0  0  0  0  0  0  0  0  0  0  0  0
  140.1132   70.9747  219.8264 H   0  0  0  0  0  0  0  0  0  0  0  0
  142.3877   69.5544  219.9777 H   0  0  0  0  0  0  0  0  0  0  0  0
  142.0199   70.8629  218.8006 H   0  0  0  0  0  0  0  0  0  0  0  0
  1  2  1  0
  2  3  1  0
  3  4  2  0
  3  5  1  0
  5  6  1  0
  6  7  2  0
  7  8  1  0
  8  9  2  0
  9 10  1  0
 10 11  2  0
  5 12  1  0
 12 13  1  0
 13 14  1  0
 14 15  1  0
 15 16  1  0
 16 17  2  0
 16 18  1  0
 18 19  1  0
 18 20  1  0
 20 21  1  0
 21 22  1  0
 22 23  2  0
 23 24  1  0
 24 25  2  0
 25 26  1  0
 26 27  1  0
 26 28  2  0
 28 29  1  0
 15 30  1  0
 30 31  1  0
 11  6  1  0
 31 12  1  0
 29 20  1  0
 28 22  1  0
  1 32  1  0
  1 33  1  0
  1 34  1  0
  2 35  1  0
  2 36  1  0
  7 37  1  0
  8 38  1  0
  9 39  1  0
 10 40  1  0
 11 41  1  0
 12 42  1  0
 13 43  1  0
 13 44  1  0
 14 45  1  0
 14 46  1  0
 18 47  1  6
 19 48  1  0
 19 49  1  0
 20 50  1  1
 21 51  1  0
 21 52  1  0
 23 53  1  0
 24 54  1  0
 25 55  1  0
 27 56  1  0
 27 57  1  0
 27 58  1  0
 29 59  1  0
 29 60  1  0
 30 61  1  0
 30 62  1  0
 31 63  1  0
 31 64  1  0
M  END
>  <smiles>  (83) 
CCC(=O)N(c1ccccc1)C1CCN(C(=O)[C@H](N)C2Cc3cccc(C)c3C2)CC1

>  <score_type>  (83) 
oracle

>  <origin>  (83) 
autodockgpu

>  <m_score__min__energy>  (83) 
-9.3900000000000006

>  <m_primary>  (83) 
energy

>  <rmsd>  (83) 
9.752717897750228

>  <m_score__min__rmsd>  (83) 
9.752717897750228

>  <meeko>  (83) 
{"free_energy": -9.25, "intermolecular_energy": -11.34, "internal_energy": -1.92, "cluster_size": 16, "cluster_id": 1, "rank_in_cluster": 3}

>  <energy>  (83) 
-8.03

>  <cluster_rmsd>  (83) 
1.6

>  <cluster>  (83) 
2

$$$$

     RDKit          3D

 64 67  0  0  0  0  0  0  0  0999 V2000
  142.7300   77.7770  217.9260 C   0  0  0  0  0  0  0  0  0  0  0  0
  141.7410   78.0380  219.0500 C   0  0  0  0  0  0  0  0  0  0  0  0
  142.1150   77.1470  220.1660 C   0  0  0  0  0  0  0  0  0  0  0  0
  143.2340   76.5500  220.0590 O   0  0  0  0  0  0  0  0  0  0  0  0
  141.2740   76.9570  221.3170 N   0  0  0  0  0  0  0  0  0  0  0  0
  141.1370   78.0920  222.1970 C   0  0  0  0  0  0  0  0  0  0  0  0
  140.0060   78.3040  222.9440 C   0  0  0  0  0  0  0  0  0  0  0  0
  139.9570   79.4200  223.7680 C   0  0  0  0  0  0  0  0  0  0  0  0
  141.0180   80.3050  223.8410 C   0  0  0  0  0  0  0  0  0  0  0  0
  142.1520   80.0660  223.0740 C   0  0  0  0  0  0  0  0  0  0  0  0
  142.2360   78.9550  222.2350 C   0  0  0  0  0  0  0  0  0  0  0  0
  140.6090   75.7150  221.5730 C   0  0  0  0  0  0  0  0  0  0  0  0
  139.2100   75.6860  220.9350 C   0  0  0  0  0  0  0  0  0  0  0  0
  138.4770   74.5820  221.6110 C   0  0  0  0  0  0  0  0  0  0  0  0
  139.2830   73.3670  221.7540 N   0  0  0  0  0  0  0  0  0  0  0  0
  138.5710   72.2710  222.3280 C   0  0  0  0  0  0  0  0  0  0  0  0
  137.3660   72.5110  222.6460 O   0  0  0  0  0  0  0  0  0  0  0  0
  139.0740   70.9220  222.5810 C   0  0  2  0  0  0  0  0  0  0  0  0
  138.3010   69.9440  221.9210 N   0  0  0  0  0  0  0  0  0  0  0  0
  139.1740   70.7850  224.0780 C   0  0  1  0  0  0  0  0  0  0  0  0
  139.4880   69.3410  224.4090 C   0  0  0  0  0  0  0  0  0  0  0  0
  139.8860   69.5120  225.8530 C   0  0  0  0  0  0  0  0  0  0  0  0
  139.7690   68.6020  226.8930 C   0  0  0  0  0  0  0  0  0  0  0  0
  140.2110   68.9800  228.1460 C   0  0  0  0  0  0  0  0  0  0  0  0
  140.7560   70.2330  228.3520 C   0  0  0  0  0  0  0  0  0  0  0  0
  140.8580   71.1250  227.2760 C   0  0  0  0  0  0  0  0  0  0  0  0
  141.4470   72.4860  227.4610 C   0  0  0  0  0  0  0  0  0  0  0  0
  140.4230   70.7720  226.0200 C   0  0  0  0  0  0  0  0  0  0  0  0
  140.3740   71.4610  224.6850 C   0  0  0  0  0  0  0  0  0  0  0  0
  140.6530   73.2740  221.3680 C   0  0  0  0  0  0  0  0  0  0  0  0
  141.3300   74.5400  220.9680 C   0  0  0  0  0  0  0  0  0  0  0  0
  143.7102   77.5183  218.3528 H   0  0  0  0  0  0  0  0  0  0  0  0
  142.3686   76.9435  217.3058 H   0  0  0  0  0  0  0  0  0  0  0  0
  142.8270   78.6803  217.3058 H   0  0  0  0  0  0  0  0  0  0  0  0
  141.7998   79.0891  219.3691 H   0  0  0  0  0  0  0  0  0  0  0  0
  140.7098   77.8440  218.7200 H   0  0  0  0  0  0  0  0  0  0  0  0
  139.1576   77.6058  222.8912 H   0  0  0  0  0  0  0  0  0  0  0  0
  139.0578   79.6042  224.3743 H   0  0  0  0  0  0  0  0  0  0  0  0
  140.9647   81.1861  224.4974 H   0  0  0  0  0  0  0  0  0  0  0  0
  142.9988   80.7659  223.1296 H   0  0  0  0  0  0  0  0  0  0  0  0
  143.1326   78.7652  221.6266 H   0  0  0  0  0  0  0  0  0  0  0  0
  140.5719   75.6400  222.6698 H   0  0  0  0  0  0  0  0  0  0  0  0
  138.6948   76.6440  221.0987 H   0  0  0  0  0  0  0  0  0  0  0  0
  139.2649   75.5283  219.8477 H   0  0  0  0  0  0  0  0  0  0  0  0
  138.1747   74.9227  222.6123 H   0  0  0  0  0  0  0  0  0  0  0  0
  137.6082   74.3303  220.9850 H   0  0  0  0  0  0  0  0  0  0  0  0
  140.0738   70.7542  222.1540 H   0  0  0  0  0  0  0  0  0  0  0  0
  137.3350   70.2280  221.6620 H   0  0  0  0  0  0  0  0  0  0  0  0
  138.7510   69.4430  221.1470 H   0  0  0  0  0  0  0  0  0  0  0  0
  138.2277   71.2020  224.4530 H   0  0  0  0  0  0  0  0  0  0  0  0
  138.6073   68.6913  224.2979 H   0  0  0  0  0  0  0  0  0  0  0  0
  140.2389   68.8602  223.7648 H   0  0  0  0  0  0  0  0  0  0  0  0
  139.3355   67.6052  226.7245 H   0  0  0  0  0  0  0  0  0  0  0  0
  140.1283   68.2768  228.9878 H   0  0  0  0  0  0  0  0  0  0  0  0
  141.1068   70.5278  229.3520 H   0  0  0  0  0  0  0  0  0  0  0  0
  141.5405   72.7021  228.5355 H   0  0  0  0  0  0  0  0  0  0  0  0
  142.4413   72.5221  226.9918 H   0  0  0  0  0  0  0  0  0  0  0  0
  140.7927   73.2355  226.9918 H   0  0  0  0  0  0  0  0  0  0  0  0
  140.2200   72.5449  224.7917 H   0  0  0  0  0  0  0  0  0  0  0  0
  141.2967   71.3816  224.0915 H   0  0  0  0  0  0  0  0  0  0  0  0
  141.2098   72.8542  222.2187 H   0  0  0  0  0  0  0  0  0  0  0  0
  140.6530   72.6510  220.4615 H   0  0  0  0  0  0  0  0  0  0  0  0
  142.3705   74.5265  221.3247 H   0  0  0  0  0  0  0  0  0  0  0  0
  141.3160   74.6296  219.8717 H   0  0  0  0  0  0  0  0  0  0  0  0
  1  2  1  0
  2  3  1  0
  3  4  2  0
  3  5  1  0
  5  6  1  0
  6  7  2  0
  7  8  1  0
  8  9  2  0
  9 10  1  0
 10 11  2  0
  5 12  1  0
 12 13  1  0
 13 14  1  0
 14 15  1  0
 15 16  1  0
 16 17  2  0
 16 18  1  0
 18 19  1  0
 18 20  1  0
 20 21  1  0
 21 22  1  0
 22 23  2  0
 23 24  1  0
 24 25  2  0
 25 26  1  0
 26 27  1  0
 26 28  2  0
 28 29  1  0
 15 30  1  0
 30 31  1  0
 11  6  1  0
 31 12  1  0
 29 20  1  0
 28 22  1  0
  1 32  1  0
  1 33  1  0
  1 34  1  0
  2 35  1  0
  2 36  1  0
  7 37  1  0
  8 38  1  0
  9 39  1  0
 10 40  1  0
 11 41  1  0
 12 42  1  0
 13 43  1  0
 13 44  1  0
 14 45  1  0
 14 46  1  0
 18 47  1  6
 19 48  1  0
 19 49  1  0
 20 50  1  1
 21 51  1  0
 21 52  1  0
 23 53  1  0
 24 54  1  0
 25 55  1  0
 27 56  1  0
 27 57  1  0
 27 58  1  0
 29 59  1  0
 29 60  1  0
 30 61  1  0
 30 62  1  0
 31 63  1  0
 31 64  1  0
M  END
>  <smiles>  (84) 
CCC(=O)N(c1ccccc1)C1CCN(C(=O)[C@H](N)C2Cc3cccc(C)c3C2)CC1

>  <score_type>  (84) 
oracle

>  <origin>  (84) 
autodockgpu

>  <m_score__min__energy>  (84) 
-9.3900000000000006

>  <m_primary>  (84) 
energy

>  <rmsd>  (84) 
9.361857259386136

>  <m_score__min__rmsd>  (84) 
9.361857259386136

>  <meeko>  (84) 
{"free_energy": -8.63, "intermolecular_energy": -10.72, "internal_energy": -1.85, "cluster_size": 18, "cluster_id": 2, "rank_in_cluster": 5}

>  <energy>  (84) 
-7.89

>  <cluster_rmsd>  (84) 
1.95

>  <cluster>  (84) 
2

$$$$

     RDKit          3D

 64 67  0  0  0  0  0  0  0  0999 V2000
  138.1720   80.8750  224.0900 C   0  0  0  0  0  0  0  0  0  0  0  0
  137.3570   79.7480  223.4770 C   0  0  0  0  0  0  0  0  0  0  0  0
  138.0950   79.2850  222.2850 C   0  0  0  0  0  0  0  0  0  0  0  0
  137.6520   79.6800  221.1590 O   0  0  0  0  0  0  0  0  0  0  0  0
  139.2510   78.4340  222.3760 N   0  0  0  0  0  0  0  0  0  0  0  0
  140.5160   79.1020  222.5650 C   0  0  0  0  0  0  0  0  0  0  0  0
  141.1850   79.0720  223.7620 C   0  0  0  0  0  0  0  0  0  0  0  0
  142.3980   79.7400  223.8580 C   0  0  0  0  0  0  0  0  0  0  0  0
  142.9310   80.4220  222.7780 C   0  0  0  0  0  0  0  0  0  0  0  0
  142.2320   80.4350  221.5760 C   0  0  0  0  0  0  0  0  0  0  0  0
  141.0090   79.7760  221.4440 C   0  0  0  0  0  0  0  0  0  0  0  0
  139.1530   77.0090  222.2870 C   0  0  0  0  0  0  0  0  0  0  0  0
  138.0670   76.5830  221.2850 C   0  0  0  0  0  0  0  0  0  0  0  0
  137.7640   75.1590  221.5940 C   0  0  0  0  0  0  0  0  0  0  0  0
  138.9680   74.3550  221.8130 N   0  0  0  0  0  0  0  0  0  0  0  0
  138.7000   72.9700  222.0310 C   0  0  0  0  0  0  0  0  0  0  0  0
  137.4740   72.6440  222.0260 O   0  0  0  0  0  0  0  0  0  0  0  0
  139.6750   71.9030  222.2540 C   0  0  2  0  0  0  0  0  0  0  0  0
  139.5400   70.8660  221.3070 N   0  0  0  0  0  0  0  0  0  0  0  0
  139.5330   71.5000  223.6990 C   0  0  1  0  0  0  0  0  0  0  0  0
  139.6230   69.9910  223.7870 C   0  0  0  0  0  0  0  0  0  0  0  0
  139.8170   69.8530  225.2760 C   0  0  0  0  0  0  0  0  0  0  0  0
  139.4400   68.8060  226.1030 C   0  0  0  0  0  0  0  0  0  0  0  0
  139.7310   68.8970  227.4500 C   0  0  0  0  0  0  0  0  0  0  0  0
  140.3810   70.0060  227.9560 C   0  0  0  0  0  0  0  0  0  0  0  0
  140.7460   71.0460  227.0900 C   0  0  0  0  0  0  0  0  0  0  0  0
  141.4560   72.2570  227.6010 C   0  0  0  0  0  0  0  0  0  0  0  0
  140.4670   70.9770  225.7450 C   0  0  0  0  0  0  0  0  0  0  0  0
  140.6990   71.8850  224.5680 C   0  0  0  0  0  0  0  0  0  0  0  0
  140.2900   74.8910  221.8170 C   0  0  0  0  0  0  0  0  0  0  0  0
  140.4180   76.3750  221.7740 C   0  0  0  0  0  0  0  0  0  0  0  0
  138.1235   80.8079  225.1869 H   0  0  0  0  0  0  0  0  0  0  0  0
  139.2189   80.7900  223.7634 H   0  0  0  0  0  0  0  0  0  0  0  0
  137.7634   81.8427  223.7634 H   0  0  0  0  0  0  0  0  0  0  0  0
  137.2479   78.9244  224.1980 H   0  0  0  0  0  0  0  0  0  0  0  0
  136.3483   80.0934  223.2063 H   0  0  0  0  0  0  0  0  0  0  0  0
  140.7701   78.5314  224.6255 H   0  0  0  0  0  0  0  0  0  0  0  0
  142.9465   79.7271  224.8114 H   0  0  0  0  0  0  0  0  0  0  0  0
  143.8937   80.9462  222.8692 H   0  0  0  0  0  0  0  0  0  0  0  0
  142.6506   80.9745  220.7136 H   0  0  0  0  0  0  0  0  0  0  0  0
  140.4542   79.7865  220.4942 H   0  0  0  0  0  0  0  0  0  0  0  0
  138.9294   76.6810  223.3129 H   0  0  0  0  0  0  0  0  0  0  0  0
  137.1664   77.2019  221.4106 H   0  0  0  0  0  0  0  0  0  0  0  0
  138.4046   76.7081  220.2456 H   0  0  0  0  0  0  0  0  0  0  0  0
  137.1463   75.1209  222.5033 H   0  0  0  0  0  0  0  0  0  0  0  0
  137.2388   74.7370  220.7245 H   0  0  0  0  0  0  0  0  0  0  0  0
  140.7114   72.2332  222.0904 H   0  0  0  0  0  0  0  0  0  0  0  0
  138.6030   70.7720  220.8680 H   0  0  0  0  0  0  0  0  0  0  0  0
  140.2800   70.7860  220.6000 H   0  0  0  0  0  0  0  0  0  0  0  0
  138.5968   71.9769  224.0248 H   0  0  0  0  0  0  0  0  0  0  0  0
  138.6992   69.5020  223.4443 H   0  0  0  0  0  0  0  0  0  0  0  0
  140.4009   69.5262  223.1634 H   0  0  0  0  0  0  0  0  0  0  0  0
  138.9221   67.9248  225.6964 H   0  0  0  0  0  0  0  0  0  0  0  0
  139.4425   68.0788  228.1263 H   0  0  0  0  0  0  0  0  0  0  0  0
  140.6103   70.0724  229.0298 H   0  0  0  0  0  0  0  0  0  0  0  0
  141.4508   72.2482  228.7010 H   0  0  0  0  0  0  0  0  0  0  0  0
  142.4948   72.2530  227.2392 H   0  0  0  0  0  0  0  0  0  0  0  0
  140.9452   73.1615  227.2392 H   0  0  0  0  0  0  0  0  0  0  0  0
  140.6584   72.9454  224.8576 H   0  0  0  0  0  0  0  0  0  0  0  0
  141.6844   71.7784  224.0909 H   0  0  0  0  0  0  0  0  0  0  0  0
  140.7871   74.5414  222.7339 H   0  0  0  0  0  0  0  0  0  0  0  0
  140.7446   74.5376  220.8797 H   0  0  0  0  0  0  0  0  0  0  0  0
  141.2646   76.6872  222.4032 H   0  0  0  0  0  0  0  0  0  0  0  0
  140.5908   76.6955  220.7360 H   0  0  0  0  0  0  0  0  0  0  0  0
  1  2  1  0
  2  3  1  0
  3  4  2  0
  3  5  1  0
  5  6  1  0
  6  7  2  0
  7  8  1  0
  8  9  2  0
  9 10  1  0
 10 11  2  0
  5 12  1  0
 12 13  1  0
 13 14  1  0
 14 15  1  0
 15 16  1  0
 16 17  2  0
 16 18  1  0
 18 19  1  0
 18 20  1  0
 20 21  1  0
 21 22  1  0
 22 23  2  0
 23 24  1  0
 24 25  2  0
 25 26  1  0
 26 27  1  0
 26 28  2  0
 28 29  1  0
 15 30  1  0
 30 31  1  0
 11  6  1  0
 31 12  1  0
 29 20  1  0
 28 22  1  0
  1 32  1  0
  1 33  1  0
  1 34  1  0
  2 35  1  0
  2 36  1  0
  7 37  1  0
  8 38  1  0
  9 39  1  0
 10 40  1  0
 11 41  1  0
 12 42  1  0
 13 43  1  0
 13 44  1  0
 14 45  1  0
 14 46  1  0
 18 47  1  1
 19 48  1  0
 19 49  1  0
 20 50  1  1
 21 51  1  0
 21 52  1  0
 23 53  1  0
 24 54  1  0
 25 55  1  0
 27 56  1  0
 27 57  1  0
 27 58  1  0
 29 59  1  0
 29 60  1  0
 30 61  1  0
 30 62  1  0
 31 63  1  0
 31 64  1  0
M  END
>  <smiles>  (85) 
CCC(=O)N(c1ccccc1)C1CCN(C(=O)[C@H](N)C2Cc3cccc(C)c3C2)CC1

>  <score_type>  (85) 
oracle

>  <origin>  (85) 
autodockgpu

>  <m_score__min__energy>  (85) 
-9.3900000000000006

>  <m_primary>  (85) 
energy

>  <rmsd>  (85) 
8.934900286196777

>  <m_score__min__rmsd>  (85) 
8.934900286196777

>  <meeko>  (85) 
{"free_energy": -8.3, "intermolecular_energy": -10.38, "internal_energy": -1.92, "cluster_size": 12, "cluster_id": 4, "rank_in_cluster": 8}

>  <energy>  (85) 
-8.62

>  <cluster_rmsd>  (85) 
0.0

>  <cluster>  (85) 
3

$$$$

     RDKit          3D

 64 67  0  0  0  0  0  0  0  0999 V2000
  136.4560   80.5100  223.9770 C   0  0  0  0  0  0  0  0  0  0  0  0
  137.9490   80.2490  223.8550 C   0  0  0  0  0  0  0  0  0  0  0  0
  138.1260   79.2780  222.7570 C   0  0  0  0  0  0  0  0  0  0  0  0
  137.1910   79.2250  221.8950 O   0  0  0  0  0  0  0  0  0  0  0  0
  139.2850   78.4330  222.6540 N   0  0  0  0  0  0  0  0  0  0  0  0
  140.5630   79.0990  222.7240 C   0  0  0  0  0  0  0  0  0  0  0  0
  141.3130   79.1200  223.8720 C   0  0  0  0  0  0  0  0  0  0  0  0
  142.5330   79.7810  223.8530 C   0  0  0  0  0  0  0  0  0  0  0  0
  142.9930   80.4070  222.7080 C   0  0  0  0  0  0  0  0  0  0  0  0
  142.2140   80.3690  221.5570 C   0  0  0  0  0  0  0  0  0  0  0  0
  140.9820   79.7140  221.5400 C   0  0  0  0  0  0  0  0  0  0  0  0
  139.1780   77.0140  222.4950 C   0  0  0  0  0  0  0  0  0  0  0  0
  138.1280   76.6470  221.4330 C   0  0  0  0  0  0  0  0  0  0  0  0
  137.8010   75.2130  221.6630 C   0  0  0  0  0  0  0  0  0  0  0  0
  138.9880   74.3870  221.8900 N   0  0  0  0  0  0  0  0  0  0  0  0
  138.7000   72.9960  222.0320 C   0  0  0  0  0  0  0  0  0  0  0  0
  137.4710   72.6850  221.9650 O   0  0  0  0  0  0  0  0  0  0  0  0
  139.6550   71.9100  222.2420 C   0  0  2  0  0  0  0  0  0  0  0  0
  139.4940   70.8820  221.2900 N   0  0  0  0  0  0  0  0  0  0  0  0
  139.5150   71.5000  223.6850 C   0  0  1  0  0  0  0  0  0  0  0  0
  139.6170   69.9920  223.7690 C   0  0  0  0  0  0  0  0  0  0  0  0
  139.8110   69.8510  225.2570 C   0  0  0  0  0  0  0  0  0  0  0  0
  139.4420   68.7980  226.0800 C   0  0  0  0  0  0  0  0  0  0  0  0
  139.7310   68.8860  227.4270 C   0  0  0  0  0  0  0  0  0  0  0  0
  140.3720   69.9990  227.9380 C   0  0  0  0  0  0  0  0  0  0  0  0
  140.7300   71.0440  227.0750 C   0  0  0  0  0  0  0  0  0  0  0  0
  141.4310   72.2590  227.5920 C   0  0  0  0  0  0  0  0  0  0  0  0
  140.4520   70.9780  225.7300 C   0  0  0  0  0  0  0  0  0  0  0  0
  140.6780   71.8910  224.5570 C   0  0  0  0  0  0  0  0  0  0  0  0
  140.3130   74.9080  221.9700 C   0  0  0  0  0  0  0  0  0  0  0  0
  140.4560   76.3910  222.0020 C   0  0  0  0  0  0  0  0  0  0  0  0
  136.1779   80.5586  225.0402 H   0  0  0  0  0  0  0  0  0  0  0  0
  136.2096   81.4648  223.4896 H   0  0  0  0  0  0  0  0  0  0  0  0
  135.9003   79.6954  223.4896 H   0  0  0  0  0  0  0  0  0  0  0  0
  138.4788   81.1844  223.6219 H   0  0  0  0  0  0  0  0  0  0  0  0
  138.3586   79.8567  224.7975 H   0  0  0  0  0  0  0  0  0  0  0  0
  140.9557   78.6243  224.7867 H   0  0  0  0  0  0  0  0  0  0  0  0
  143.1462   79.8078  224.7658 H   0  0  0  0  0  0  0  0  0  0  0  0
  143.9619   80.9277  222.7083 H   0  0  0  0  0  0  0  0  0  0  0  0
  142.5753   80.8641  220.6436 H   0  0  0  0  0  0  0  0  0  0  0  0
  140.3642   79.6826  220.6304 H   0  0  0  0  0  0  0  0  0  0  0  0
  138.9120   76.6410  223.4951 H   0  0  0  0  0  0  0  0  0  0  0  0
  137.2286   77.2688  221.5530 H   0  0  0  0  0  0  0  0  0  0  0  0
  138.5066   76.8171  220.4143 H   0  0  0  0  0  0  0  0  0  0  0  0
  137.1481   75.1391  222.5452 H   0  0  0  0  0  0  0  0  0  0  0  0
  137.3065   74.8376  220.7549 H   0  0  0  0  0  0  0  0  0  0  0  0
  140.6963   72.2221  222.0738 H   0  0  0  0  0  0  0  0  0  0  0  0
  138.5570   70.8180  220.8440 H   0  0  0  0  0  0  0  0  0  0  0  0
  140.2360   70.7810  220.5880 H   0  0  0  0  0  0  0  0  0  0  0  0
  138.5744   71.9681  224.0106 H   0  0  0  0  0  0  0  0  0  0  0  0
  138.6974   69.4966  223.4242 H   0  0  0  0  0  0  0  0  0  0  0  0
  140.3992   69.5354  223.1447 H   0  0  0  0  0  0  0  0  0  0  0  0
  138.9315   67.9142  225.6697 H   0  0  0  0  0  0  0  0  0  0  0  0
  139.4486   68.0629  228.0999 H   0  0  0  0  0  0  0  0  0  0  0  0
  140.5991   70.0641  229.0123 H   0  0  0  0  0  0  0  0  0  0  0  0
  141.4237   72.2463  228.6919 H   0  0  0  0  0  0  0  0  0  0  0  0
  142.4705   72.2635  227.2322 H   0  0  0  0  0  0  0  0  0  0  0  0
  140.9146   73.1612  227.2322 H   0  0  0  0  0  0  0  0  0  0  0  0
  140.6291   72.9501  224.8501 H   0  0  0  0  0  0  0  0  0  0  0  0
  141.6646   71.7933  224.0804 H   0  0  0  0  0  0  0  0  0  0  0  0
  140.7710   74.5106  222.8878 H   0  0  0  0  0  0  0  0  0  0  0  0
  140.8003   74.5941  221.0351 H   0  0  0  0  0  0  0  0  0  0  0  0
  141.2801   76.6643  222.6774 H   0  0  0  0  0  0  0  0  0  0  0  0
  140.6721   76.7578  220.9877 H   0  0  0  0  0  0  0  0  0  0  0  0
  1  2  1  0
  2  3  1  0
  3  4  2  0
  3  5  1  0
  5  6  1  0
  6  7  2  0
  7  8  1  0
  8  9  2  0
  9 10  1  0
 10 11  2  0
  5 12  1  0
 12 13  1  0
 13 14  1  0
 14 15  1  0
 15 16  1  0
 16 17  2  0
 16 18  1  0
 18 19  1  0
 18 20  1  0
 20 21  1  0
 21 22  1  0
 22 23  2  0
 23 24  1  0
 24 25  2  0
 25 26  1  0
 26 27  1  0
 26 28  2  0
 28 29  1  0
 15 30  1  0
 30 31  1  0
 11  6  1  0
 31 12  1  0
 29 20  1  0
 28 22  1  0
  1 32  1  0
  1 33  1  0
  1 34  1  0
  2 35  1  0
  2 36  1  0
  7 37  1  0
  8 38  1  0
  9 39  1  0
 10 40  1  0
 11 41  1  0
 12 42  1  0
 13 43  1  0
 13 44  1  0
 14 45  1  0
 14 46  1  0
 18 47  1  1
 19 48  1  0
 19 49  1  0
 20 50  1  1
 21 51  1  0
 21 52  1  0
 23 53  1  0
 24 54  1  0
 25 55  1  0
 27 56  1  0
 27 57  1  0
 27 58  1  0
 29 59  1  0
 29 60  1  0
 30 61  1  0
 30 62  1  0
 31 63  1  0
 31 64  1  0
M  END
>  <smiles>  (86) 
CCC(=O)N(c1ccccc1)C1CCN(C(=O)[C@H](N)C2Cc3cccc(C)c3C2)CC1

>  <score_type>  (86) 
oracle

>  <origin>  (86) 
autodockgpu

>  <m_score__min__energy>  (86) 
-9.3900000000000006

>  <m_primary>  (86) 
energy

>  <rmsd>  (86) 
8.956240119080581

>  <m_score__min__rmsd>  (86) 
8.956240119080581

>  <meeko>  (86) 
{"free_energy": -8.31, "intermolecular_energy": -10.4, "internal_energy": -1.83, "cluster_size": 12, "cluster_id": 4, "rank_in_cluster": 6}

>  <energy>  (86) 
-8.46

>  <cluster_rmsd>  (86) 
0.0

>  <cluster>  (86) 
4

$$$$

     RDKit          3D

 64 67  0  0  0  0  0  0  0  0999 V2000
  145.1750   74.1410  220.5430 C   0  0  0  0  0  0  0  0  0  0  0  0
  143.8110   73.5420  220.8450 C   0  0  0  0  0  0  0  0  0  0  0  0
  142.8050   74.4510  220.2610 C   0  0  0  0  0  0  0  0  0  0  0  0
  143.0220   74.8410  219.0700 O   0  0  0  0  0  0  0  0  0  0  0  0
  141.6390   74.8790  220.9860 N   0  0  0  0  0  0  0  0  0  0  0  0
  141.5080   76.3020  221.1930 C   0  0  0  0  0  0  0  0  0  0  0  0
  141.8100   77.2120  220.2120 C   0  0  0  0  0  0  0  0  0  0  0  0
  141.6530   78.5620  220.4920 C   0  0  0  0  0  0  0  0  0  0  0  0
  141.2020   78.9920  221.7290 C   0  0  0  0  0  0  0  0  0  0  0  0
  140.9020   78.0480  222.7040 C   0  0  0  0  0  0  0  0  0  0  0  0
  141.0490   76.6820  222.4570 C   0  0  0  0  0  0  0  0  0  0  0  0
  140.6640   73.9500  221.4720 C   0  0  0  0  0  0  0  0  0  0  0  0
  139.2410   74.3670  221.0670 C   0  0  0  0  0  0  0  0  0  0  0  0
  138.3250   73.6090  221.9620 C   0  0  0  0  0  0  0  0  0  0  0  0
  138.7030   72.2020  222.1050 N   0  0  0  0  0  0  0  0  0  0  0  0
  137.7900   71.4410  222.8950 C   0  0  0  0  0  0  0  0  0  0  0  0
  136.8080   72.0900  223.3700 O   0  0  0  0  0  0  0  0  0  0  0  0
  137.8640   70.0150  223.2070 C   0  0  2  0  0  0  0  0  0  0  0  0
  136.6440   69.3580  222.9420 N   0  0  0  0  0  0  0  0  0  0  0  0
  138.3690   69.9210  224.6240 C   0  0  1  0  0  0  0  0  0  0  0  0
  139.0300   68.5720  224.8100 C   0  0  0  0  0  0  0  0  0  0  0  0
  139.7450   68.8370  226.1110 C   0  0  0  0  0  0  0  0  0  0  0  0
  140.0770   67.9360  227.1120 C   0  0  0  0  0  0  0  0  0  0  0  0
  140.7440   68.4110  228.2240 C   0  0  0  0  0  0  0  0  0  0  0  0
  141.0690   69.7490  228.3320 C   0  0  0  0  0  0  0  0  0  0  0  0
  140.7170   70.6300  227.3000 C   0  0  0  0  0  0  0  0  0  0  0  0
  141.0590   72.0820  227.3800 C   0  0  0  0  0  0  0  0  0  0  0  0
  140.0520   70.1800  226.1830 C   0  0  0  0  0  0  0  0  0  0  0  0
  139.5290   70.8280  224.9310 C   0  0  0  0  0  0  0  0  0  0  0  0
  139.8730   71.6320  221.5220 C   0  0  0  0  0  0  0  0  0  0  0  0
  140.8410   72.5730  220.8900 C   0  0  0  0  0  0  0  0  0  0  0  0
  145.6927   74.3683  221.4866 H   0  0  0  0  0  0  0  0  0  0  0  0
  145.7708   73.4217  219.9619 H   0  0  0  0  0  0  0  0  0  0  0  0
  145.0486   75.0664  219.9619 H   0  0  0  0  0  0  0  0  0  0  0  0
  143.7274   72.5435  220.3912 H   0  0  0  0  0  0  0  0  0  0  0  0
  143.6604   73.4321  221.9291 H   0  0  0  0  0  0  0  0  0  0  0  0
  142.1682   76.8794  219.2266 H   0  0  0  0  0  0  0  0  0  0  0  0
  141.8913   79.3050  219.7166 H   0  0  0  0  0  0  0  0  0  0  0  0
  141.0829   80.0656  221.9368 H   0  0  0  0  0  0  0  0  0  0  0  0
  140.5423   78.3833  223.6879 H   0  0  0  0  0  0  0  0  0  0  0  0
  140.8126   75.9335  223.2277 H   0  0  0  0  0  0  0  0  0  0  0  0
  140.8042   73.9440  222.5630 H   0  0  0  0  0  0  0  0  0  0  0  0
  139.1046   75.4494  221.2076 H   0  0  0  0  0  0  0  0  0  0  0  0
  139.0422   74.1498  220.0071 H   0  0  0  0  0  0  0  0  0  0  0  0
  138.3380   74.0787  222.9566 H   0  0  0  0  0  0  0  0  0  0  0  0
  137.3230   73.6371  221.5089 H   0  0  0  0  0  0  0  0  0  0  0  0
  138.5658   69.4738  222.5554 H   0  0  0  0  0  0  0  0  0  0  0  0
  135.8050   69.9680  222.8780 H   0  0  0  0  0  0  0  0  0  0  0  0
  136.6470   68.6660  222.1840 H   0  0  0  0  0  0  0  0  0  0  0  0
  137.4884   70.1488  225.2426 H   0  0  0  0  0  0  0  0  0  0  0  0
  138.2929   67.7607  224.9023 H   0  0  0  0  0  0  0  0  0  0  0  0
  139.6687   68.2395  223.9784 H   0  0  0  0  0  0  0  0  0  0  0  0
  139.8159   66.8712  227.0224 H   0  0  0  0  0  0  0  0  0  0  0  0
  141.0192   67.7169  229.0317 H   0  0  0  0  0  0  0  0  0  0  0  0
  141.5999   70.1204  229.2209 H   0  0  0  0  0  0  0  0  0  0  0  0
  141.1302   72.3843  228.4352 H   0  0  0  0  0  0  0  0  0  0  0  0
  142.0235   72.2595  226.8818 H   0  0  0  0  0  0  0  0  0  0  0  0
  140.2751   72.6713  226.8818 H   0  0  0  0  0  0  0  0  0  0  0  0
  139.2002   71.8616  225.1144 H   0  0  0  0  0  0  0  0  0  0  0  0
  140.2657   70.9242  224.1198 H   0  0  0  0  0  0  0  0  0  0  0  0
  140.4078   71.0886  222.3149 H   0  0  0  0  0  0  0  0  0  0  0  0
  139.5046   71.0043  220.6972 H   0  0  0  0  0  0  0  0  0  0  0  0
  141.8669   72.2247  221.0804 H   0  0  0  0  0  0  0  0  0  0  0  0
  140.6584   72.6096  219.8059 H   0  0  0  0  0  0  0  0  0  0  0  0
  1  2  1  0
  2  3  1  0
  3  4  2  0
  3  5  1  0
  5  6  1  0
  6  7  2  0
  7  8  1  0
  8  9  2  0
  9 10  1  0
 10 11  2  0
  5 12  1  0
 12 13  1  0
 13 14  1  0
 14 15  1  0
 15 16  1  0
 16 17  2  0
 16 18  1  0
 18 19  1  0
 18 20  1  0
 20 21  1  0
 21 22  1  0
 22 23  2  0
 23 24  1  0
 24 25  2  0
 25 26  1  0
 26 27  1  0
 26 28  2  0
 28 29  1  0
 15 30  1  0
 30 31  1  0
 11  6  1  0
 31 12  1  0
 29 20  1  0
 28 22  1  0
  1 32  1  0
  1 33  1  0
  1 34  1  0
  2 35  1  0
  2 36  1  0
  7 37  1  0
  8 38  1  0
  9 39  1  0
 10 40  1  0
 11 41  1  0
 12 42  1  0
 13 43  1  0
 13 44  1  0
 14 45  1  0
 14 46  1  0
 18 47  1  6
 19 48  1  0
 19 49  1  0
 20 50  1  1
 21 51  1  0
 21 52  1  0
 23 53  1  0
 24 54  1  0
 25 55  1  0
 27 56  1  0
 27 57  1  0
 27 58  1  0
 29 59  1  0
 29 60  1  0
 30 61  1  0
 30 62  1  0
 31 63  1  0
 31 64  1  0
M  END
>  <smiles>  (87) 
CCC(=O)N(c1ccccc1)C1CCN(C(=O)[C@H](N)C2Cc3cccc(C)c3C2)CC1

>  <score_type>  (87) 
oracle

>  <origin>  (87) 
autodockgpu

>  <m_score__min__energy>  (87) 
-9.3900000000000006

>  <m_primary>  (87) 
energy

>  <rmsd>  (87) 
10.185182053001526

>  <m_score__min__rmsd>  (87) 
10.185182053001526

>  <meeko>  (87) 
{"free_energy": -8.03, "intermolecular_energy": -10.12, "internal_energy": -2.0, "cluster_size": 18, "cluster_id": 2, "rank_in_cluster": 17}

>  <energy>  (87) 
-8.44

>  <cluster_rmsd>  (87) 
0.36

>  <cluster>  (87) 
4

$$$$

     RDKit          3D

 64 67  0  0  0  0  0  0  0  0999 V2000
  138.0560   80.8120  224.4620 C   0  0  0  0  0  0  0  0  0  0  0  0
  138.0810   80.4530  222.9850 C   0  0  0  0  0  0  0  0  0  0  0  0
  138.0450   78.9790  222.9020 C   0  0  0  0  0  0  0  0  0  0  0  0
  136.9120   78.4320  223.0920 O   0  0  0  0  0  0  0  0  0  0  0  0
  139.2160   78.1930  222.6210 N   0  0  0  0  0  0  0  0  0  0  0  0
  140.4690   78.9090  222.6010 C   0  0  0  0  0  0  0  0  0  0  0  0
  140.9890   79.4380  221.4470 C   0  0  0  0  0  0  0  0  0  0  0  0
  142.1990   80.1140  221.5160 C   0  0  0  0  0  0  0  0  0  0  0  0
  142.8740   80.2580  222.7160 C   0  0  0  0  0  0  0  0  0  0  0  0
  142.3240   79.7140  223.8710 C   0  0  0  0  0  0  0  0  0  0  0  0
  141.1100   79.0260  223.8380 C   0  0  0  0  0  0  0  0  0  0  0  0
  139.1440   76.7840  222.3800 C   0  0  0  0  0  0  0  0  0  0  0  0
  138.3000   76.4710  221.1330 C   0  0  0  0  0  0  0  0  0  0  0  0
  137.9430   75.0300  221.2340 C   0  0  0  0  0  0  0  0  0  0  0  0
  139.0750   74.1890  221.6290 N   0  0  0  0  0  0  0  0  0  0  0  0
  138.7720   72.7940  221.6530 C   0  0  0  0  0  0  0  0  0  0  0  0
  137.5760   72.4910  221.3550 O   0  0  0  0  0  0  0  0  0  0  0  0
  139.6800   71.6950  221.9780 C   0  0  2  0  0  0  0  0  0  0  0  0
  139.4880   70.5900  221.1230 N   0  0  0  0  0  0  0  0  0  0  0  0
  139.5060   71.4280  223.4500 C   0  0  1  0  0  0  0  0  0  0  0  0
  139.5080   69.9300  223.6710 C   0  0  0  0  0  0  0  0  0  0  0  0
  139.6850   69.9130  225.1680 C   0  0  0  0  0  0  0  0  0  0  0  0
  139.2440   68.9650  226.0780 C   0  0  0  0  0  0  0  0  0  0  0  0
  139.5320   69.1560  227.4150 C   0  0  0  0  0  0  0  0  0  0  0  0
  140.2420   70.2660  227.8300 C   0  0  0  0  0  0  0  0  0  0  0  0
  140.6720   71.2040  226.8810 C   0  0  0  0  0  0  0  0  0  0  0  0
  141.4480   72.4130  227.2930 C   0  0  0  0  0  0  0  0  0  0  0  0
  140.3970   71.0340  225.5440 C   0  0  0  0  0  0  0  0  0  0  0  0
  140.6870   71.8210  224.2960 C   0  0  0  0  0  0  0  0  0  0  0  0
  140.3640   74.7000  221.9660 C   0  0  0  0  0  0  0  0  0  0  0  0
  140.4930   76.1790  222.0920 C   0  0  0  0  0  0  0  0  0  0  0  0
  138.1200   79.8934  225.0637 H   0  0  0  0  0  0  0  0  0  0  0  0
  138.9110   81.4636  224.6955 H   0  0  0  0  0  0  0  0  0  0  0  0
  137.1190   81.3388  224.6955 H   0  0  0  0  0  0  0  0  0  0  0  0
  137.2051   80.8822  222.4764 H   0  0  0  0  0  0  0  0  0  0  0  0
  138.9821   80.8533  222.4974 H   0  0  0  0  0  0  0  0  0  0  0  0
  140.4591   79.3289  220.4892 H   0  0  0  0  0  0  0  0  0  0  0  0
  142.6300   80.5436  220.5997 H   0  0  0  0  0  0  0  0  0  0  0  0
  143.8328   80.7957  222.7551 H   0  0  0  0  0  0  0  0  0  0  0  0
  142.8548   79.8277  224.8277 H   0  0  0  0  0  0  0  0  0  0  0  0
  140.6743   78.5925  224.7503 H   0  0  0  0  0  0  0  0  0  0  0  0
  138.7064   76.3661  223.2986 H   0  0  0  0  0  0  0  0  0  0  0  0
  137.3911   77.0905  221.1206 H   0  0  0  0  0  0  0  0  0  0  0  0
  138.8526   76.6864  220.2066 H   0  0  0  0  0  0  0  0  0  0  0  0
  137.1444   74.9178  221.9821 H   0  0  0  0  0  0  0  0  0  0  0  0
  137.6184   74.6995  220.2363 H   0  0  0  0  0  0  0  0  0  0  0  0
  140.7353   71.9479  221.7980 H   0  0  0  0  0  0  0  0  0  0  0  0
  138.5760   70.5530  220.6260 H   0  0  0  0  0  0  0  0  0  0  0  0
  140.2570   70.3600  220.4840 H   0  0  0  0  0  0  0  0  0  0  0  0
  138.5964   71.9838  223.7216 H   0  0  0  0  0  0  0  0  0  0  0  0
  138.5594   69.4663  223.3625 H   0  0  0  0  0  0  0  0  0  0  0  0
  140.2613   69.3683  223.0991 H   0  0  0  0  0  0  0  0  0  0  0  0
  138.6788   68.0826  225.7435 H   0  0  0  0  0  0  0  0  0  0  0  0
  139.1929   68.4175  228.1564 H   0  0  0  0  0  0  0  0  0  0  0  0
  140.4681   70.4127  228.8965 H   0  0  0  0  0  0  0  0  0  0  0  0
  141.4839   72.4690  228.3910 H   0  0  0  0  0  0  0  0  0  0  0  0
  142.4714   72.3448  226.8956 H   0  0  0  0  0  0  0  0  0  0  0  0
  140.9598   73.3151  226.8956 H   0  0  0  0  0  0  0  0  0  0  0  0
  140.7050   72.9032  224.4922 H   0  0  0  0  0  0  0  0  0  0  0  0
  141.6675   71.6177  223.8408 H   0  0  0  0  0  0  0  0  0  0  0  0
  140.6545   74.2581  222.9306 H   0  0  0  0  0  0  0  0  0  0  0  0
  141.0100   74.4279  221.1183 H   0  0  0  0  0  0  0  0  0  0  0  0
  141.1835   76.4170  222.9145 H   0  0  0  0  0  0  0  0  0  0  0  0
  140.8837   76.5919  221.1503 H   0  0  0  0  0  0  0  0  0  0  0  0
  1  2  1  0
  2  3  1  0
  3  4  2  0
  3  5  1  0
  5  6  1  0
  6  7  2  0
  7  8  1  0
  8  9  2  0
  9 10  1  0
 10 11  2  0
  5 12  1  0
 12 13  1  0
 13 14  1  0
 14 15  1  0
 15 16  1  0
 16 17  2  0
 16 18  1  0
 18 19  1  0
 18 20  1  0
 20 21  1  0
 21 22  1  0
 22 23  2  0
 23 24  1  0
 24 25  2  0
 25 26  1  0
 26 27  1  0
 26 28  2  0
 28 29  1  0
 15 30  1  0
 30 31  1  0
 11  6  1  0
 31 12  1  0
 29 20  1  0
 28 22  1  0
  1 32  1  0
  1 33  1  0
  1 34  1  0
  2 35  1  0
  2 36  1  0
  7 37  1  0
  8 38  1  0
  9 39  1  0
 10 40  1  0
 11 41  1  0
 12 42  1  0
 13 43  1  0
 13 44  1  0
 14 45  1  0
 14 46  1  0
 18 47  1  1
 19 48  1  0
 19 49  1  0
 20 50  1  1
 21 51  1  0
 21 52  1  0
 23 53  1  0
 24 54  1  0
 25 55  1  0
 27 56  1  0
 27 57  1  0
 27 58  1  0
 29 59  1  0
 29 60  1  0
 30 61  1  0
 30 62  1  0
 31 63  1  0
 31 64  1  0
M  END
>  <smiles>  (88) 
CCC(=O)N(c1ccccc1)C1CCN(C(=O)[C@H](N)C2Cc3cccc(C)c3C2)CC1

>  <score_type>  (88) 
oracle

>  <origin>  (88) 
autodockgpu

>  <m_score__min__energy>  (88) 
-9.3900000000000006

>  <m_primary>  (88) 
energy

>  <rmsd>  (88) 
8.875695976489204

>  <m_score__min__rmsd>  (88) 
8.875695976489204

>  <meeko>  (88) 
{"free_energy": -8.19, "intermolecular_energy": -10.28, "internal_energy": -2.15, "cluster_size": 12, "cluster_id": 4, "rank_in_cluster": 11}

>  <energy>  (88) 
-8.4

>  <cluster_rmsd>  (88) 
0.13

>  <cluster>  (88) 
4

$$$$

     RDKit          3D

 64 67  0  0  0  0  0  0  0  0999 V2000
  146.0120   73.0640  216.6780 C   0  0  0  0  0  0  0  0  0  0  0  0
  144.7980   73.0150  217.5920 C   0  0  0  0  0  0  0  0  0  0  0  0
  145.2050   72.2790  218.8060 C   0  0  0  0  0  0  0  0  0  0  0  0
  146.2940   72.6500  219.3500 O   0  0  0  0  0  0  0  0  0  0  0  0
  144.4240   71.2030  219.3540 N   0  0  0  0  0  0  0  0  0  0  0  0
  144.9460   69.8730  219.1500 C   0  0  0  0  0  0  0  0  0  0  0  0
  145.8610   69.5910  218.1680 C   0  0  0  0  0  0  0  0  0  0  0  0
  146.3140   68.2860  218.0410 C   0  0  0  0  0  0  0  0  0  0  0  0
  145.8610   67.2830  218.8810 C   0  0  0  0  0  0  0  0  0  0  0  0
  144.9340   67.5970  219.8690 C   0  0  0  0  0  0  0  0  0  0  0  0
  144.4560   68.8990  220.0240 C   0  0  0  0  0  0  0  0  0  0  0  0
  143.2020   71.4370  220.0630 C   0  0  0  0  0  0  0  0  0  0  0  0
  142.7220   72.8880  219.8890 C   0  0  0  0  0  0  0  0  0  0  0  0
  141.7360   73.1230  220.9790 C   0  0  0  0  0  0  0  0  0  0  0  0
  140.7940   72.0150  221.1430 N   0  0  0  0  0  0  0  0  0  0  0  0
  139.7910   72.2570  222.1290 C   0  0  0  0  0  0  0  0  0  0  0  0
  139.8730   73.3730  222.7270 O   0  0  0  0  0  0  0  0  0  0  0  0
  138.6940   71.3700  222.5150 C   0  0  2  0  0  0  0  0  0  0  0  0
  137.4360   71.9590  222.2730 N   0  0  0  0  0  0  0  0  0  0  0  0
  138.9670   70.9600  223.9390 C   0  0  1  0  0  0  0  0  0  0  0  0
  139.4270   69.5170  223.9440 C   0  0  0  0  0  0  0  0  0  0  0  0
  139.9660   69.4460  225.3510 C   0  0  0  0  0  0  0  0  0  0  0  0
  140.0340   68.3480  226.1940 C   0  0  0  0  0  0  0  0  0  0  0  0
  140.5800   68.5200  227.4510 C   0  0  0  0  0  0  0  0  0  0  0  0
  141.0450   69.7580  227.8520 C   0  0  0  0  0  0  0  0  0  0  0  0
  140.9590   70.8450  226.9720 C   0  0  0  0  0  0  0  0  0  0  0  0
  141.4590   72.1960  227.3700 C   0  0  0  0  0  0  0  0  0  0  0  0
  140.4190   70.6970  225.7160 C   0  0  0  0  0  0  0  0  0  0  0  0
  140.1700   71.6210  224.5560 C   0  0  0  0  0  0  0  0  0  0  0  0
  140.8620   70.7980  220.4010 C   0  0  0  0  0  0  0  0  0  0  0  0
  142.0670   70.5930  219.5490 C   0  0  0  0  0  0  0  0  0  0  0  0
  146.9277   73.1010  217.2863 H   0  0  0  0  0  0  0  0  0  0  0  0
  146.0295   72.1658  216.0432 H   0  0  0  0  0  0  0  0  0  0  0  0
  145.9571   73.9607  216.0432 H   0  0  0  0  0  0  0  0  0  0  0  0
  144.4818   74.0349  217.8561 H   0  0  0  0  0  0  0  0  0  0  0  0
  143.9511   72.5185  217.0957 H   0  0  0  0  0  0  0  0  0  0  0  0
  146.2272   70.3815  217.4965 H   0  0  0  0  0  0  0  0  0  0  0  0
  147.0473   68.0434  217.2578 H   0  0  0  0  0  0  0  0  0  0  0  0
  146.2290   66.2525  218.7685 H   0  0  0  0  0  0  0  0  0  0  0  0
  144.5710   66.8049  220.5404 H   0  0  0  0  0  0  0  0  0  0  0  0
  143.7218   69.1489  220.8041 H   0  0  0  0  0  0  0  0  0  0  0  0
  143.4367   71.1955  221.1102 H   0  0  0  0  0  0  0  0  0  0  0  0
  143.5681   73.5849  219.9812 H   0  0  0  0  0  0  0  0  0  0  0  0
  142.2750   73.0501  218.8971 H   0  0  0  0  0  0  0  0  0  0  0  0
  142.2829   73.2615  221.9233 H   0  0  0  0  0  0  0  0  0  0  0  0
  141.1523   74.0156  220.7095 H   0  0  0  0  0  0  0  0  0  0  0  0
  138.6468   70.4601  221.8986 H   0  0  0  0  0  0  0  0  0  0  0  0
  136.6090   71.3960  222.5550 H   0  0  0  0  0  0  0  0  0  0  0  0
  137.3210   72.9380  222.5580 H   0  0  0  0  0  0  0  0  0  0  0  0
  138.0378   71.2033  224.4750 H   0  0  0  0  0  0  0  0  0  0  0  0
  138.5928   68.8176  223.7861 H   0  0  0  0  0  0  0  0  0  0  0  0
  140.1385   69.2445  223.1506 H   0  0  0  0  0  0  0  0  0  0  0  0
  139.6626   67.3645  225.8702 H   0  0  0  0  0  0  0  0  0  0  0  0
  140.6453   67.6641  228.1389 H   0  0  0  0  0  0  0  0  0  0  0  0
  141.4792   69.8891  228.8541 H   0  0  0  0  0  0  0  0  0  0  0  0
  141.4858   72.2684  228.4673 H   0  0  0  0  0  0  0  0  0  0  0  0
  142.4719   72.3452  226.9678 H   0  0  0  0  0  0  0  0  0  0  0  0
  140.7873   72.9687  226.9678 H   0  0  0  0  0  0  0  0  0  0  0  0
  139.9448   72.6440  224.8917 H   0  0  0  0  0  0  0  0  0  0  0  0
  141.0254   71.7471  223.8760 H   0  0  0  0  0  0  0  0  0  0  0  0
  140.8191   69.9673  221.1208 H   0  0  0  0  0  0  0  0  0  0  0  0
  140.0182   70.8446  219.6969 H   0  0  0  0  0  0  0  0  0  0  0  0
  142.3583   69.5326  219.5768 H   0  0  0  0  0  0  0  0  0  0  0  0
  141.8353   70.8857  218.5143 H   0  0  0  0  0  0  0  0  0  0  0  0
  1  2  1  0
  2  3  1  0
  3  4  2  0
  3  5  1  0
  5  6  1  0
  6  7  2  0
  7  8  1  0
  8  9  2  0
  9 10  1  0
 10 11  2  0
  5 12  1  0
 12 13  1  0
 13 14  1  0
 14 15  1  0
 15 16  1  0
 16 17  2  0
 16 18  1  0
 18 19  1  0
 18 20  1  0
 20 21  1  0
 21 22  1  0
 22 23  2  0
 23 24  1  0
 24 25  2  0
 25 26  1  0
 26 27  1  0
 26 28  2  0
 28 29  1  0
 15 30  1  0
 30 31  1  0
 11  6  1  0
 31 12  1  0
 29 20  1  0
 28 22  1  0
  1 32  1  0
  1 33  1  0
  1 34  1  0
  2 35  1  0
  2 36  1  0
  7 37  1  0
  8 38  1  0
  9 39  1  0
 10 40  1  0
 11 41  1  0
 12 42  1  0
 13 43  1  0
 13 44  1  0
 14 45  1  0
 14 46  1  0
 18 47  1  6
 19 48  1  0
 19 49  1  0
 20 50  1  1
 21 51  1  0
 21 52  1  0
 23 53  1  0
 24 54  1  0
 25 55  1  0
 27 56  1  0
 27 57  1  0
 27 58  1  0
 29 59  1  0
 29 60  1  0
 30 61  1  0
 30 62  1  0
 31 63  1  0
 31 64  1  0
M  END
>  <smiles>  (89) 
CCC(=O)N(c1ccccc1)C1CCN(C(=O)[C@H](N)C2Cc3cccc(C)c3C2)CC1

>  <score_type>  (89) 
oracle

>  <origin>  (89) 
autodockgpu

>  <m_score__min__energy>  (89) 
-9.3900000000000006

>  <m_primary>  (89) 
energy

>  <rmsd>  (89) 
9.809349032397453

>  <m_score__min__rmsd>  (89) 
9.809349032397453

>  <meeko>  (89) 
{"free_energy": -8.67, "intermolecular_energy": -10.75, "internal_energy": -1.39, "cluster_size": 16, "cluster_id": 1, "rank_in_cluster": 13}

>  <energy>  (89) 
-8.38

>  <cluster_rmsd>  (89) 
1.8

>  <cluster>  (89) 
4

$$$$

     RDKit          3D

 64 67  0  0  0  0  0  0  0  0999 V2000
  142.1870   79.8140  218.9810 C   0  0  0  0  0  0  0  0  0  0  0  0
  141.4790   78.4780  218.8240 C   0  0  0  0  0  0  0  0  0  0  0  0
  142.0670   77.5610  219.8210 C   0  0  0  0  0  0  0  0  0  0  0  0
  143.1960   77.0550  219.5230 O   0  0  0  0  0  0  0  0  0  0  0  0
  141.4130   77.2490  221.0630 N   0  0  0  0  0  0  0  0  0  0  0  0
  141.3720   78.3090  222.0410 C   0  0  0  0  0  0  0  0  0  0  0  0
  142.4790   79.0560  222.3540 C   0  0  0  0  0  0  0  0  0  0  0  0
  142.3540   80.0580  223.3060 C   0  0  0  0  0  0  0  0  0  0  0  0
  141.1440   80.3080  223.9300 C   0  0  0  0  0  0  0  0  0  0  0  0
  140.0370   79.5380  223.5930 C   0  0  0  0  0  0  0  0  0  0  0  0
  140.1270   78.5210  222.6410 C   0  0  0  0  0  0  0  0  0  0  0  0
  140.8320   75.9640  221.3120 C   0  0  0  0  0  0  0  0  0  0  0  0
  139.5210   75.7800  220.5310 C   0  0  0  0  0  0  0  0  0  0  0  0
  138.8150   74.6440  221.1840 C   0  0  0  0  0  0  0  0  0  0  0  0
  139.7000   73.5160  221.4770 N   0  0  0  0  0  0  0  0  0  0  0  0
  139.0260   72.3860  222.0290 C   0  0  0  0  0  0  0  0  0  0  0  0
  137.7770   72.5290  222.2040 O   0  0  0  0  0  0  0  0  0  0  0  0
  139.6110   71.1010  222.4070 C   0  0  2  0  0  0  0  0  0  0  0  0
  139.0660   70.0380  221.6580 N   0  0  0  0  0  0  0  0  0  0  0  0
  139.4650   70.9970  223.9030 C   0  0  1  0  0  0  0  0  0  0  0  0
  139.4870   69.5320  224.2870 C   0  0  0  0  0  0  0  0  0  0  0  0
  139.6900   69.6810  225.7740 C   0  0  0  0  0  0  0  0  0  0  0  0
  139.2740   68.8350  226.7910 C   0  0  0  0  0  0  0  0  0  0  0  0
  139.5820   69.1760  228.0930 C   0  0  0  0  0  0  0  0  0  0  0  0
  140.2870   70.3310  228.3700 C   0  0  0  0  0  0  0  0  0  0  0  0
  140.6910   71.1620  227.3160 C   0  0  0  0  0  0  0  0  0  0  0  0
  141.4610   72.4150  227.5790 C   0  0  0  0  0  0  0  0  0  0  0  0
  140.3950   70.8430  226.0110 C   0  0  0  0  0  0  0  0  0  0  0  0
  140.6570   71.4900  224.6790 C   0  0  0  0  0  0  0  0  0  0  0  0
  141.1080   73.5310  221.2460 C   0  0  0  0  0  0  0  0  0  0  0  0
  141.7150   74.8340  220.8530 C   0  0  0  0  0  0  0  0  0  0  0  0
  142.3076   80.0416  220.0504 H   0  0  0  0  0  0  0  0  0  0  0  0
  143.1764   79.7630  218.5031 H   0  0  0  0  0  0  0  0  0  0  0  0
  141.5892   80.6041  218.5031 H   0  0  0  0  0  0  0  0  0  0  0  0
  140.4012   78.5971  219.0089 H   0  0  0  0  0  0  0  0  0  0  0  0
  141.6038   78.0837  217.8047 H   0  0  0  0  0  0  0  0  0  0  0  0
  143.4440   78.8652  221.8616 H   0  0  0  0  0  0  0  0  0  0  0  0
  143.2328   80.6648  223.5696 H   0  0  0  0  0  0  0  0  0  0  0  0
  141.0596   81.1056  224.6827 H   0  0  0  0  0  0  0  0  0  0  0  0
  139.0729   79.7335  224.0852 H   0  0  0  0  0  0  0  0  0  0  0  0
  139.2523   77.9101  222.3732 H   0  0  0  0  0  0  0  0  0  0  0  0
  140.6784   75.9340  222.4008 H   0  0  0  0  0  0  0  0  0  0  0  0
  138.9105   76.6933  220.5871 H   0  0  0  0  0  0  0  0  0  0  0  0
  139.7093   75.5806  219.4657 H   0  0  0  0  0  0  0  0  0  0  0  0
  138.3756   74.9997  222.1276 H   0  0  0  0  0  0  0  0  0  0  0  0
  138.0460   74.2868  220.4833 H   0  0  0  0  0  0  0  0  0  0  0  0
  140.6810   71.0329  222.1611 H   0  0  0  0  0  0  0  0  0  0  0  0
  138.1040   70.1870  221.2920 H   0  0  0  0  0  0  0  0  0  0  0  0
  139.6670   69.6250  220.9360 H   0  0  0  0  0  0  0  0  0  0  0  0
  138.5548   71.5721  224.1286 H   0  0  0  0  0  0  0  0  0  0  0  0
  138.5383   69.0288  224.0486 H   0  0  0  0  0  0  0  0  0  0  0  0
  140.2364   68.9177  223.7664 H   0  0  0  0  0  0  0  0  0  0  0  0
  138.7131   67.9159  226.5662 H   0  0  0  0  0  0  0  0  0  0  0  0
  139.2629   68.5216  228.9176 H   0  0  0  0  0  0  0  0  0  0  0  0
  140.5295   70.5966  229.4095 H   0  0  0  0  0  0  0  0  0  0  0  0
  141.5544   72.5670  228.6644 H   0  0  0  0  0  0  0  0  0  0  0  0
  142.4630   72.3300  227.1331 H   0  0  0  0  0  0  0  0  0  0  0  0
  140.9326   73.2705  227.1331 H   0  0  0  0  0  0  0  0  0  0  0  0
  140.6683   72.5873  224.7545 H   0  0  0  0  0  0  0  0  0  0  0  0
  141.6316   71.2454  224.2315 H   0  0  0  0  0  0  0  0  0  0  0  0
  141.6000   73.2019  222.1732 H   0  0  0  0  0  0  0  0  0  0  0  0
  141.2625   72.8709  220.3797 H   0  0  0  0  0  0  0  0  0  0  0  0
  142.7061   74.9314  221.3202 H   0  0  0  0  0  0  0  0  0  0  0  0
  141.8172   74.8730  219.7584 H   0  0  0  0  0  0  0  0  0  0  0  0
  1  2  1  0
  2  3  1  0
  3  4  2  0
  3  5  1  0
  5  6  1  0
  6  7  2  0
  7  8  1  0
  8  9  2  0
  9 10  1  0
 10 11  2  0
  5 12  1  0
 12 13  1  0
 13 14  1  0
 14 15  1  0
 15 16  1  0
 16 17  2  0
 16 18  1  0
 18 19  1  0
 18 20  1  0
 20 21  1  0
 21 22  1  0
 22 23  2  0
 23 24  1  0
 24 25  2  0
 25 26  1  0
 26 27  1  0
 26 28  2  0
 28 29  1  0
 15 30  1  0
 30 31  1  0
 11  6  1  0
 31 12  1  0
 29 20  1  0
 28 22  1  0
  1 32  1  0
  1 33  1  0
  1 34  1  0
  2 35  1  0
  2 36  1  0
  7 37  1  0
  8 38  1  0
  9 39  1  0
 10 40  1  0
 11 41  1  0
 12 42  1  0
 13 43  1  0
 13 44  1  0
 14 45  1  0
 14 46  1  0
 18 47  1  1
 19 48  1  0
 19 49  1  0
 20 50  1  1
 21 51  1  0
 21 52  1  0
 23 53  1  0
 24 54  1  0
 25 55  1  0
 27 56  1  0
 27 57  1  0
 27 58  1  0
 29 59  1  0
 29 60  1  0
 30 61  1  0
 30 62  1  0
 31 63  1  0
 31 64  1  0
M  END
>  <smiles>  (90) 
CCC(=O)N(c1ccccc1)C1CCN(C(=O)[C@H](N)C2Cc3cccc(C)c3C2)CC1

>  <score_type>  (90) 
oracle

>  <origin>  (90) 
autodockgpu

>  <m_score__min__energy>  (90) 
-9.3900000000000006

>  <m_primary>  (90) 
energy

>  <rmsd>  (90) 
9.086411185058445

>  <m_score__min__rmsd>  (90) 
9.086411185058445

>  <meeko>  (90) 
{"free_energy": -8.41, "intermolecular_energy": -10.5, "internal_energy": -1.86, "cluster_size": 18, "cluster_id": 2, "rank_in_cluster": 9}

>  <energy>  (90) 
-8.32

>  <cluster_rmsd>  (90) 
0.32

>  <cluster>  (90) 
4

$$$$

     RDKit          3D

 64 67  0  0  0  0  0  0  0  0999 V2000
  138.2730   80.8870  224.1650 C   0  0  0  0  0  0  0  0  0  0  0  0
  137.4210   79.7560  223.6120 C   0  0  0  0  0  0  0  0  0  0  0  0
  138.0970   79.2660  222.3940 C   0  0  0  0  0  0  0  0  0  0  0  0
  137.5940   79.6340  221.2840 O   0  0  0  0  0  0  0  0  0  0  0  0
  139.2590   78.4200  222.4430 N   0  0  0  0  0  0  0  0  0  0  0  0
  140.5250   79.0920  222.6110 C   0  0  0  0  0  0  0  0  0  0  0  0
  141.2120   79.0680  223.7970 C   0  0  0  0  0  0  0  0  0  0  0  0
  142.4250   79.7380  223.8730 C   0  0  0  0  0  0  0  0  0  0  0  0
  142.9390   80.4180  222.7830 C   0  0  0  0  0  0  0  0  0  0  0  0
  142.2230   80.4260  221.5920 C   0  0  0  0  0  0  0  0  0  0  0  0
  141.0000   79.7630  221.4800 C   0  0  0  0  0  0  0  0  0  0  0  0
  139.1650   76.9960  222.3360 C   0  0  0  0  0  0  0  0  0  0  0  0
  138.1120   76.5800  221.2960 C   0  0  0  0  0  0  0  0  0  0  0  0
  137.8020   75.1520  221.5800 C   0  0  0  0  0  0  0  0  0  0  0  0
  138.9990   74.3470  221.8260 N   0  0  0  0  0  0  0  0  0  0  0  0
  138.7270   72.9590  222.0210 C   0  0  0  0  0  0  0  0  0  0  0  0
  137.5010   72.6330  221.9740 O   0  0  0  0  0  0  0  0  0  0  0  0
  139.6950   71.8910  222.2620 C   0  0  2  0  0  0  0  0  0  0  0  0
  139.5670   70.8480  221.3220 N   0  0  0  0  0  0  0  0  0  0  0  0
  139.5370   71.5000  223.7080 C   0  0  1  0  0  0  0  0  0  0  0  0
  139.6080   69.9900  223.8080 C   0  0  0  0  0  0  0  0  0  0  0  0
  139.7900   69.8610  225.2990 C   0  0  0  0  0  0  0  0  0  0  0  0
  139.3940   68.8240  226.1300 C   0  0  0  0  0  0  0  0  0  0  0  0
  139.6750   68.9210  227.4780 C   0  0  0  0  0  0  0  0  0  0  0  0
  140.3350   70.0260  227.9820 C   0  0  0  0  0  0  0  0  0  0  0  0
  140.7200   71.0550  227.1110 C   0  0  0  0  0  0  0  0  0  0  0  0
  141.4410   72.2610  227.6200 C   0  0  0  0  0  0  0  0  0  0  0  0
  140.4500   70.9800  225.7650 C   0  0  0  0  0  0  0  0  0  0  0  0
  140.7010   71.8760  224.5840 C   0  0  0  0  0  0  0  0  0  0  0  0
  140.3200   74.8840  221.8780 C   0  0  0  0  0  0  0  0  0  0  0  0
  140.4470   76.3690  221.8550 C   0  0  0  0  0  0  0  0  0  0  0  0
  138.2515   80.8585  225.2644 H   0  0  0  0  0  0  0  0  0  0  0  0
  139.3094   80.7701  223.8154 H   0  0  0  0  0  0  0  0  0  0  0  0
  137.8746   81.8509  223.8154 H   0  0  0  0  0  0  0  0  0  0  0  0
  137.3409   78.9461  224.3520 H   0  0  0  0  0  0  0  0  0  0  0  0
  136.4030   80.1050  223.3841 H   0  0  0  0  0  0  0  0  0  0  0  0
  140.8110   78.5299  224.6686 H   0  0  0  0  0  0  0  0  0  0  0  0
  142.9885   79.7283  224.8176 H   0  0  0  0  0  0  0  0  0  0  0  0
  143.9015   80.9452  222.8582 H   0  0  0  0  0  0  0  0  0  0  0  0
  142.6273   80.9644  220.7221 H   0  0  0  0  0  0  0  0  0  0  0  0
  140.4317   79.7681  220.5382 H   0  0  0  0  0  0  0  0  0  0  0  0
  138.9094   76.6566  223.3506 H   0  0  0  0  0  0  0  0  0  0  0  0
  137.2068   77.1963  221.4000 H   0  0  0  0  0  0  0  0  0  0  0  0
  138.4816   76.7171  220.2691 H   0  0  0  0  0  0  0  0  0  0  0  0
  137.1573   75.1032  222.4699 H   0  0  0  0  0  0  0  0  0  0  0  0
  137.3040   74.7393  220.6903 H   0  0  0  0  0  0  0  0  0  0  0  0
  140.7342   72.2163  222.1065 H   0  0  0  0  0  0  0  0  0  0  0  0
  138.6340   70.7540  220.8720 H   0  0  0  0  0  0  0  0  0  0  0  0
  140.3150   70.7570  220.6250 H   0  0  0  0  0  0  0  0  0  0  0  0
  138.6042   71.9911  224.0222 H   0  0  0  0  0  0  0  0  0  0  0  0
  138.6807   69.5097  223.4625 H   0  0  0  0  0  0  0  0  0  0  0  0
  140.3844   69.5111  223.1933 H   0  0  0  0  0  0  0  0  0  0  0  0
  138.8691   67.9461  225.7252 H   0  0  0  0  0  0  0  0  0  0  0  0
  139.3708   68.1113  228.1576 H   0  0  0  0  0  0  0  0  0  0  0  0
  140.5563   70.0974  229.0571 H   0  0  0  0  0  0  0  0  0  0  0  0
  141.4366   72.2537  228.7200 H   0  0  0  0  0  0  0  0  0  0  0  0
  142.4794   72.2476  227.2573 H   0  0  0  0  0  0  0  0  0  0  0  0
  140.9376   73.1694  227.2573 H   0  0  0  0  0  0  0  0  0  0  0  0
  140.6713   72.9388  224.8661 H   0  0  0  0  0  0  0  0  0  0  0  0
  141.6884   71.7532  224.1149 H   0  0  0  0  0  0  0  0  0  0  0  0
  140.7881   74.5250  222.8065 H   0  0  0  0  0  0  0  0  0  0  0  0
  140.8050   74.5409  220.9522 H   0  0  0  0  0  0  0  0  0  0  0  0
  141.2733   76.6755  222.5132 H   0  0  0  0  0  0  0  0  0  0  0  0
  140.6512   76.7011  220.8264 H   0  0  0  0  0  0  0  0  0  0  0  0
  1  2  1  0
  2  3  1  0
  3  4  2  0
  3  5  1  0
  5  6  1  0
  6  7  2  0
  7  8  1  0
  8  9  2  0
  9 10  1  0
 10 11  2  0
  5 12  1  0
 12 13  1  0
 13 14  1  0
 14 15  1  0
 15 16  1  0
 16 17  2  0
 16 18  1  0
 18 19  1  0
 18 20  1  0
 20 21  1  0
 21 22  1  0
 22 23  2  0
 23 24  1  0
 24 25  2  0
 25 26  1  0
 26 27  1  0
 26 28  2  0
 28 29  1  0
 15 30  1  0
 30 31  1  0
 11  6  1  0
 31 12  1  0
 29 20  1  0
 28 22  1  0
  1 32  1  0
  1 33  1  0
  1 34  1  0
  2 35  1  0
  2 36  1  0
  7 37  1  0
  8 38  1  0
  9 39  1  0
 10 40  1  0
 11 41  1  0
 12 42  1  0
 13 43  1  0
 13 44  1  0
 14 45  1  0
 14 46  1  0
 18 47  1  1
 19 48  1  0
 19 49  1  0
 20 50  1  1
 21 51  1  0
 21 52  1  0
 23 53  1  0
 24 54  1  0
 25 55  1  0
 27 56  1  0
 27 57  1  0
 27 58  1  0
 29 59  1  0
 29 60  1  0
 30 61  1  0
 30 62  1  0
 31 63  1  0
 31 64  1  0
M  END
>  <smiles>  (91) 
CCC(=O)N(c1ccccc1)C1CCN(C(=O)[C@H](N)C2Cc3cccc(C)c3C2)CC1

>  <score_type>  (91) 
oracle

>  <origin>  (91) 
autodockgpu

>  <m_score__min__energy>  (91) 
-9.3900000000000006

>  <m_primary>  (91) 
energy

>  <rmsd>  (91) 
8.932962723033416

>  <m_score__min__rmsd>  (91) 
8.932962723033416

>  <meeko>  (91) 
{"free_energy": -8.31, "intermolecular_energy": -10.39, "internal_energy": -1.93, "cluster_size": 12, "cluster_id": 4, "rank_in_cluster": 7}

>  <energy>  (91) 
-8.31

>  <cluster_rmsd>  (91) 
0.4

>  <cluster>  (91) 
4

$$$$

     RDKit          3D

 64 67  0  0  0  0  0  0  0  0999 V2000
  142.0820   80.3220  223.4000 C   0  0  0  0  0  0  0  0  0  0  0  0
  142.1630   78.8060  223.4830 C   0  0  0  0  0  0  0  0  0  0  0  0
  140.9280   78.2760  222.8710 C   0  0  0  0  0  0  0  0  0  0  0  0
  139.8330   78.6450  223.4040 O   0  0  0  0  0  0  0  0  0  0  0  0
  140.9470   77.3920  221.7370 N   0  0  0  0  0  0  0  0  0  0  0  0
  141.5300   77.9250  220.5290 C   0  0  0  0  0  0  0  0  0  0  0  0
  142.3480   77.1760  219.7220 C   0  0  0  0  0  0  0  0  0  0  0  0
  142.8650   77.7640  218.5760 C   0  0  0  0  0  0  0  0  0  0  0  0
  142.5670   79.0750  218.2440 C   0  0  0  0  0  0  0  0  0  0  0  0
  141.7340   79.8110  219.0790 C   0  0  0  0  0  0  0  0  0  0  0  0
  141.1980   79.2520  220.2400 C   0  0  0  0  0  0  0  0  0  0  0  0
  140.4220   76.0620  221.8030 C   0  0  0  0  0  0  0  0  0  0  0  0
  139.2660   75.8650  220.8080 C   0  0  0  0  0  0  0  0  0  0  0  0
  138.5440   74.6450  221.2600 C   0  0  0  0  0  0  0  0  0  0  0  0
  139.4450   73.5490  221.6190 N   0  0  0  0  0  0  0  0  0  0  0  0
  138.7690   72.3450  221.9770 C   0  0  0  0  0  0  0  0  0  0  0  0
  137.5020   72.4040  221.9550 O   0  0  0  0  0  0  0  0  0  0  0  0
  139.3730   71.0690  222.3600 C   0  0  2  0  0  0  0  0  0  0  0  0
  138.7830   69.9860  221.6750 N   0  0  0  0  0  0  0  0  0  0  0  0
  139.3120   71.0100  223.8640 C   0  0  1  0  0  0  0  0  0  0  0  0
  139.4000   69.5600  224.2920 C   0  0  0  0  0  0  0  0  0  0  0  0
  139.6790   69.7650  225.7600 C   0  0  0  0  0  0  0  0  0  0  0  0
  139.3460   68.9410  226.8240 C   0  0  0  0  0  0  0  0  0  0  0  0
  139.7150   69.3330  228.0960 C   0  0  0  0  0  0  0  0  0  0  0  0
  140.3980   70.5170  228.2970 C   0  0  0  0  0  0  0  0  0  0  0  0
  140.7180   71.3240  227.1960 C   0  0  0  0  0  0  0  0  0  0  0  0
  141.4620   72.6080  227.3760 C   0  0  0  0  0  0  0  0  0  0  0  0
  140.3610   70.9540  225.9210 C   0  0  0  0  0  0  0  0  0  0  0  0
  140.5280   71.5630  224.5560 C   0  0  0  0  0  0  0  0  0  0  0  0
  140.8680   73.6600  221.6210 C   0  0  0  0  0  0  0  0  0  0  0  0
  141.4400   75.0210  221.4200 C   0  0  0  0  0  0  0  0  0  0  0  0
  142.0594   80.7441  224.4155 H   0  0  0  0  0  0  0  0  0  0  0  0
  142.9608   80.7072  222.8622 H   0  0  0  0  0  0  0  0  0  0  0  0
  141.1671   80.6114  222.8622 H   0  0  0  0  0  0  0  0  0  0  0  0
  143.0436   78.4436  222.9324 H   0  0  0  0  0  0  0  0  0  0  0  0
  142.2589   78.4735  224.5272 H   0  0  0  0  0  0  0  0  0  0  0  0
  142.5887   76.1334  219.9772 H   0  0  0  0  0  0  0  0  0  0  0  0
  143.5240   77.1775  217.9189 H   0  0  0  0  0  0  0  0  0  0  0  0
  142.9836   79.5278  217.3322 H   0  0  0  0  0  0  0  0  0  0  0  0
  141.4931   80.8526  218.8199 H   0  0  0  0  0  0  0  0  0  0  0  0
  140.5396   79.8332  220.9023 H   0  0  0  0  0  0  0  0  0  0  0  0
  140.1007   75.9411  222.8481 H   0  0  0  0  0  0  0  0  0  0  0  0
  138.5940   76.7357  220.8246 H   0  0  0  0  0  0  0  0  0  0  0  0
  139.6338   75.7585  219.7768 H   0  0  0  0  0  0  0  0  0  0  0  0
  137.9368   74.9026  222.1403 H   0  0  0  0  0  0  0  0  0  0  0  0
  137.9228   74.2995  220.4205 H   0  0  0  0  0  0  0  0  0  0  0  0
  140.4273   70.9898  222.0564 H   0  0  0  0  0  0  0  0  0  0  0  0
  137.8480   70.1680  221.2570 H   0  0  0  0  0  0  0  0  0  0  0  0
  139.3800   69.4750  221.0160 H   0  0  0  0  0  0  0  0  0  0  0  0
  138.3980   71.5651  224.1218 H   0  0  0  0  0  0  0  0  0  0  0  0
  138.4557   69.0217  224.1227 H   0  0  0  0  0  0  0  0  0  0  0  0
  140.1382   68.9504  223.7504 H   0  0  0  0  0  0  0  0  0  0  0  0
  138.8019   67.9993  226.6595 H   0  0  0  0  0  0  0  0  0  0  0  0
  139.4627   68.6966  228.9570 H   0  0  0  0  0  0  0  0  0  0  0  0
  140.6884   70.8241  229.3126 H   0  0  0  0  0  0  0  0  0  0  0  0
  141.5819   72.8149  228.4497 H   0  0  0  0  0  0  0  0  0  0  0  0
  142.4529   72.5267  226.9054 H   0  0  0  0  0  0  0  0  0  0  0  0
  140.8987   73.4273  226.9054 H   0  0  0  0  0  0  0  0  0  0  0  0
  140.5090   72.6621  224.5957 H   0  0  0  0  0  0  0  0  0  0  0  0
  141.4835   71.3317  224.0625 H   0  0  0  0  0  0  0  0  0  0  0  0
  141.2286   73.2884  222.5915 H   0  0  0  0  0  0  0  0  0  0  0  0
  141.2014   73.0781  220.7491 H   0  0  0  0  0  0  0  0  0  0  0  0
  142.3357   75.1374  222.0478 H   0  0  0  0  0  0  0  0  0  0  0  0
  141.7110   75.1491  220.3616 H   0  0  0  0  0  0  0  0  0  0  0  0
  1  2  1  0
  2  3  1  0
  3  4  2  0
  3  5  1  0
  5  6  1  0
  6  7  2  0
  7  8  1  0
  8  9  2  0
  9 10  1  0
 10 11  2  0
  5 12  1  0
 12 13  1  0
 13 14  1  0
 14 15  1  0
 15 16  1  0
 16 17  2  0
 16 18  1  0
 18 19  1  0
 18 20  1  0
 20 21  1  0
 21 22  1  0
 22 23  2  0
 23 24  1  0
 24 25  2  0
 25 26  1  0
 26 27  1  0
 26 28  2  0
 28 29  1  0
 15 30  1  0
 30 31  1  0
 11  6  1  0
 31 12  1  0
 29 20  1  0
 28 22  1  0
  1 32  1  0
  1 33  1  0
  1 34  1  0
  2 35  1  0
  2 36  1  0
  7 37  1  0
  8 38  1  0
  9 39  1  0
 10 40  1  0
 11 41  1  0
 12 42  1  0
 13 43  1  0
 13 44  1  0
 14 45  1  0
 14 46  1  0
 18 47  1  1
 19 48  1  0
 19 49  1  0
 20 50  1  1
 21 51  1  0
 21 52  1  0
 23 53  1  0
 24 54  1  0
 25 55  1  0
 27 56  1  0
 27 57  1  0
 27 58  1  0
 29 59  1  0
 29 60  1  0
 30 61  1  0
 30 62  1  0
 31 63  1  0
 31 64  1  0
M  END
>  <smiles>  (92) 
CCC(=O)N(c1ccccc1)C1CCN(C(=O)[C@H](N)C2Cc3cccc(C)c3C2)CC1

>  <score_type>  (92) 
oracle

>  <origin>  (92) 
autodockgpu

>  <m_score__min__energy>  (92) 
-9.3900000000000006

>  <m_primary>  (92) 
energy

>  <rmsd>  (92) 
9.110489763712893

>  <m_score__min__rmsd>  (92) 
9.110489763712893

>  <meeko>  (92) 
{"free_energy": -8.29, "intermolecular_energy": -10.38, "internal_energy": -1.82, "cluster_size": 12, "cluster_id": 4, "rank_in_cluster": 9}

>  <energy>  (92) 
-8.31

>  <cluster_rmsd>  (92) 
0.48

>  <cluster>  (92) 
4

$$$$

     RDKit          3D

 64 67  0  0  0  0  0  0  0  0999 V2000
  143.7850   70.9890  216.7090 C   0  0  0  0  0  0  0  0  0  0  0  0
  145.1950   71.2590  217.2100 C   0  0  0  0  0  0  0  0  0  0  0  0
  145.1500   71.1740  218.6840 C   0  0  0  0  0  0  0  0  0  0  0  0
  145.9520   71.9330  219.3160 O   0  0  0  0  0  0  0  0  0  0  0  0
  144.2540   70.2890  219.3790 N   0  0  0  0  0  0  0  0  0  0  0  0
  144.5820   68.8850  219.3250 C   0  0  0  0  0  0  0  0  0  0  0  0
  143.6170   67.9130  219.2550 C   0  0  0  0  0  0  0  0  0  0  0  0
  144.0180   66.5850  219.2040 C   0  0  0  0  0  0  0  0  0  0  0  0
  145.3580   66.2390  219.2210 C   0  0  0  0  0  0  0  0  0  0  0  0
  146.3160   67.2440  219.2900 C   0  0  0  0  0  0  0  0  0  0  0  0
  145.9480   68.5900  219.3440 C   0  0  0  0  0  0  0  0  0  0  0  0
  143.1070   70.7730  220.0850 C   0  0  0  0  0  0  0  0  0  0  0  0
  142.9150   72.2840  219.8750 C   0  0  0  0  0  0  0  0  0  0  0  0
  142.0020   72.7330  220.9610 C   0  0  0  0  0  0  0  0  0  0  0  0
  140.8640   71.8330  221.1570 N   0  0  0  0  0  0  0  0  0  0  0  0
  139.9340   72.2900  222.1400 C   0  0  0  0  0  0  0  0  0  0  0  0
  140.2360   73.3830  222.7080 O   0  0  0  0  0  0  0  0  0  0  0  0
  138.6900   71.6420  222.5520 C   0  0  2  0  0  0  0  0  0  0  0  0
  137.5880   72.5150  222.4470 N   0  0  0  0  0  0  0  0  0  0  0  0
  138.9500   71.0670  223.9200 C   0  0  1  0  0  0  0  0  0  0  0  0
  139.4070   69.6320  223.7610 C   0  0  0  0  0  0  0  0  0  0  0  0
  139.9320   69.3960  225.1540 C   0  0  0  0  0  0  0  0  0  0  0  0
  139.9910   68.2060  225.8630 C   0  0  0  0  0  0  0  0  0  0  0  0
  140.5260   68.2280  227.1360 C   0  0  0  0  0  0  0  0  0  0  0  0
  140.9890   69.4100  227.6840 C   0  0  0  0  0  0  0  0  0  0  0  0
  140.9130   70.5930  226.9370 C   0  0  0  0  0  0  0  0  0  0  0  0
  141.4100   71.8870  227.4950 C   0  0  0  0  0  0  0  0  0  0  0  0
  140.3840   70.5940  225.6670 C   0  0  0  0  0  0  0  0  0  0  0  0
  140.1480   71.6480  224.6210 C   0  0  0  0  0  0  0  0  0  0  0  0
  140.6900   70.6080  220.4470 C   0  0  0  0  0  0  0  0  0  0  0  0
  141.8250   70.1520  219.5970 C   0  0  0  0  0  0  0  0  0  0  0  0
  143.1094   70.8596  217.5674 H   0  0  0  0  0  0  0  0  0  0  0  0
  143.4439   71.8381  216.0986 H   0  0  0  0  0  0  0  0  0  0  0  0
  143.7817   70.0739  216.0986 H   0  0  0  0  0  0  0  0  0  0  0  0
  145.8897   70.5064  216.8087 H   0  0  0  0  0  0  0  0  0  0  0  0
  145.5463   72.2488  216.8831 H   0  0  0  0  0  0  0  0  0  0  0  0
  142.5499   68.1796  219.2396 H   0  0  0  0  0  0  0  0  0  0  0  0
  143.2567   65.7930  219.1490 H   0  0  0  0  0  0  0  0  0  0  0  0
  145.6611   65.1823  219.1804 H   0  0  0  0  0  0  0  0  0  0  0  0
  147.3824   66.9743  219.3023 H   0  0  0  0  0  0  0  0  0  0  0  0
  146.7039   69.3872  219.3993 H   0  0  0  0  0  0  0  0  0  0  0  0
  143.2998   70.5170  221.1373 H   0  0  0  0  0  0  0  0  0  0  0  0
  143.8806   72.8061  219.9463 H   0  0  0  0  0  0  0  0  0  0  0  0
  142.4995   72.5043  218.8806 H   0  0  0  0  0  0  0  0  0  0  0  0
  142.5729   72.7866  221.8997 H   0  0  0  0  0  0  0  0  0  0  0  0
  141.6002   73.7147  220.6697 H   0  0  0  0  0  0  0  0  0  0  0  0
  138.3974   70.8182  221.8844 H   0  0  0  0  0  0  0  0  0  0  0  0
  137.6620   73.4060  222.9770 H   0  0  0  0  0  0  0  0  0  0  0  0
  137.2200   72.6840  221.5050 H   0  0  0  0  0  0  0  0  0  0  0  0
  138.0161   71.2484  224.4722 H   0  0  0  0  0  0  0  0  0  0  0  0
  138.5729   68.9584  223.5150 H   0  0  0  0  0  0  0  0  0  0  0  0
  140.1255   69.4517  222.9478 H   0  0  0  0  0  0  0  0  0  0  0  0
  139.6211   67.2683  225.4228 H   0  0  0  0  0  0  0  0  0  0  0  0
  140.5843   67.2971  227.7191 H   0  0  0  0  0  0  0  0  0  0  0  0
  141.4137   69.4215  228.6986 H   0  0  0  0  0  0  0  0  0  0  0  0
  141.3931   71.8430  228.5940 H   0  0  0  0  0  0  0  0  0  0  0  0
  142.4398   72.0633  227.1509 H   0  0  0  0  0  0  0  0  0  0  0  0
  140.7630   72.7073  227.1509 H   0  0  0  0  0  0  0  0  0  0  0  0
  139.9214   72.6254  225.0719 H   0  0  0  0  0  0  0  0  0  0  0  0
  141.0101   71.8505  223.9685 H   0  0  0  0  0  0  0  0  0  0  0  0
  140.4932   69.8197  221.1886 H   0  0  0  0  0  0  0  0  0  0  0  0
  139.8658   70.7997  219.7442 H   0  0  0  0  0  0  0  0  0  0  0  0
  141.9056   69.0563  219.6519 H   0  0  0  0  0  0  0  0  0  0  0  0
  141.6457   70.4579  218.5557 H   0  0  0  0  0  0  0  0  0  0  0  0
  1  2  1  0
  2  3  1  0
  3  4  2  0
  3  5  1  0
  5  6  1  0
  6  7  2  0
  7  8  1  0
  8  9  2  0
  9 10  1  0
 10 11  2  0
  5 12  1  0
 12 13  1  0
 13 14  1  0
 14 15  1  0
 15 16  1  0
 16 17  2  0
 16 18  1  0
 18 19  1  0
 18 20  1  0
 20 21  1  0
 21 22  1  0
 22 23  2  0
 23 24  1  0
 24 25  2  0
 25 26  1  0
 26 27  1  0
 26 28  2  0
 28 29  1  0
 15 30  1  0
 30 31  1  0
 11  6  1  0
 31 12  1  0
 29 20  1  0
 28 22  1  0
  1 32  1  0
  1 33  1  0
  1 34  1  0
  2 35  1  0
  2 36  1  0
  7 37  1  0
  8 38  1  0
  9 39  1  0
 10 40  1  0
 11 41  1  0
 12 42  1  0
 13 43  1  0
 13 44  1  0
 14 45  1  0
 14 46  1  0
 18 47  1  6
 19 48  1  0
 19 49  1  0
 20 50  1  1
 21 51  1  0
 21 52  1  0
 23 53  1  0
 24 54  1  0
 25 55  1  0
 27 56  1  0
 27 57  1  0
 27 58  1  0
 29 59  1  0
 29 60  1  0
 30 61  1  0
 30 62  1  0
 31 63  1  0
 31 64  1  0
M  END
>  <smiles>  (93) 
CCC(=O)N(c1ccccc1)C1CCN(C(=O)[C@H](N)C2Cc3cccc(C)c3C2)CC1

>  <score_type>  (93) 
oracle

>  <origin>  (93) 
autodockgpu

>  <m_score__min__energy>  (93) 
-9.3900000000000006

>  <m_primary>  (93) 
energy

>  <rmsd>  (93) 
9.898805072218195

>  <m_score__min__rmsd>  (93) 
9.898805072218195

>  <meeko>  (93) 
{"free_energy": -8.92, "intermolecular_energy": -11.01, "internal_energy": -1.57, "cluster_size": 16, "cluster_id": 1, "rank_in_cluster": 7}

>  <energy>  (93) 
-8.3

>  <cluster_rmsd>  (93) 
0.5

>  <cluster>  (93) 
4

$$$$

     RDKit          3D

 64 67  0  0  0  0  0  0  0  0999 V2000
  145.5970   74.1460  220.7650 C   0  0  0  0  0  0  0  0  0  0  0  0
  146.0510   72.6980  220.8390 C   0  0  0  0  0  0  0  0  0  0  0  0
  145.4640   72.0030  219.6760 C   0  0  0  0  0  0  0  0  0  0  0  0
  145.9170   72.3370  218.5340 O   0  0  0  0  0  0  0  0  0  0  0  0
  144.4400   71.0040  219.8110 N   0  0  0  0  0  0  0  0  0  0  0  0
  144.7610   69.6930  219.2990 C   0  0  0  0  0  0  0  0  0  0  0  0
  144.5920   68.5560  220.0460 C   0  0  0  0  0  0  0  0  0  0  0  0
  144.9230   67.3350  219.4760 C   0  0  0  0  0  0  0  0  0  0  0  0
  145.4120   67.2540  218.1840 C   0  0  0  0  0  0  0  0  0  0  0  0
  145.5720   68.4220  217.4480 C   0  0  0  0  0  0  0  0  0  0  0  0
  145.2510   69.6680  217.9890 C   0  0  0  0  0  0  0  0  0  0  0  0
  143.1760   71.2900  220.4200 C   0  0  0  0  0  0  0  0  0  0  0  0
  142.7000   72.7120  220.0810 C   0  0  0  0  0  0  0  0  0  0  0  0
  141.6480   73.0390  221.0820 C   0  0  0  0  0  0  0  0  0  0  0  0
  140.7030   71.9410  221.2950 N   0  0  0  0  0  0  0  0  0  0  0  0
  139.6410   72.2640  222.1920 C   0  0  0  0  0  0  0  0  0  0  0  0
  139.6810   73.4330  222.6850 O   0  0  0  0  0  0  0  0  0  0  0  0
  138.5280   71.4060  222.5950 C   0  0  2  0  0  0  0  0  0  0  0  0
  137.2860   72.0570  222.4460 N   0  0  0  0  0  0  0  0  0  0  0  0
  138.8550   70.9180  223.9820 C   0  0  1  0  0  0  0  0  0  0  0  0
  139.3430   69.4880  223.8860 C   0  0  0  0  0  0  0  0  0  0  0  0
  139.9280   69.3450  225.2680 C   0  0  0  0  0  0  0  0  0  0  0  0
  140.0450   68.2000  226.0420 C   0  0  0  0  0  0  0  0  0  0  0  0
  140.6280   68.3080  227.2890 C   0  0  0  0  0  0  0  0  0  0  0  0
  141.0810   69.5300  227.7500 C   0  0  0  0  0  0  0  0  0  0  0  0
  140.9450   70.6660  226.9400 C   0  0  0  0  0  0  0  0  0  0  0  0
  141.4310   72.0010  227.4030 C   0  0  0  0  0  0  0  0  0  0  0  0
  140.3680   70.5810  225.6940 C   0  0  0  0  0  0  0  0  0  0  0  0
  140.0640   71.5670  224.6000 C   0  0  0  0  0  0  0  0  0  0  0  0
  140.8230   70.6600  220.6780 C   0  0  0  0  0  0  0  0  0  0  0  0
  142.0780   70.3890  219.9220 C   0  0  0  0  0  0  0  0  0  0  0  0
  145.4723   74.5437  221.7830 H   0  0  0  0  0  0  0  0  0  0  0  0
  146.3520   74.7401  220.2292 H   0  0  0  0  0  0  0  0  0  0  0  0
  144.6380   74.2027  220.2292 H   0  0  0  0  0  0  0  0  0  0  0  0
  147.1489   72.6435  220.7974 H   0  0  0  0  0  0  0  0  0  0  0  0
  145.7260   72.2317  221.7808 H   0  0  0  0  0  0  0  0  0  0  0  0
  144.2030   68.6104  221.0735 H   0  0  0  0  0  0  0  0  0  0  0  0
  144.7942   66.4134  220.0626 H   0  0  0  0  0  0  0  0  0  0  0  0
  145.6705   66.2788  217.7457 H   0  0  0  0  0  0  0  0  0  0  0  0
  145.9588   68.3634  216.4199 H   0  0  0  0  0  0  0  0  0  0  0  0
  145.3783   70.5935  217.4083 H   0  0  0  0  0  0  0  0  0  0  0  0
  143.3485   71.1504  221.4974 H   0  0  0  0  0  0  0  0  0  0  0  0
  143.5353   73.4236  220.1573 H   0  0  0  0  0  0  0  0  0  0  0  0
  142.3131   72.7743  219.0532 H   0  0  0  0  0  0  0  0  0  0  0  0
  142.1356   73.2732  222.0398 H   0  0  0  0  0  0  0  0  0  0  0  0
  141.0771   73.8951  220.6931 H   0  0  0  0  0  0  0  0  0  0  0  0
  138.4098   70.5288  221.9419 H   0  0  0  0  0  0  0  0  0  0  0  0
  137.2420   73.0360  222.7940 H   0  0  0  0  0  0  0  0  0  0  0  0
  136.8300   71.9780  221.5300 H   0  0  0  0  0  0  0  0  0  0  0  0
  137.9389   71.1088  224.5603 H   0  0  0  0  0  0  0  0  0  0  0  0
  138.5180   68.7815  223.7122 H   0  0  0  0  0  0  0  0  0  0  0  0
  140.0338   69.2787  223.0560 H   0  0  0  0  0  0  0  0  0  0  0  0
  139.6823   67.2298  225.6716 H   0  0  0  0  0  0  0  0  0  0  0  0
  140.7329   67.4139  227.9211 H   0  0  0  0  0  0  0  0  0  0  0  0
  141.5444   69.6103  228.7444 H   0  0  0  0  0  0  0  0  0  0  0  0
  141.4403   72.0266  228.5027 H   0  0  0  0  0  0  0  0  0  0  0  0
  142.4492   72.1723  227.0236 H   0  0  0  0  0  0  0  0  0  0  0  0
  140.7613   72.7868  227.0236 H   0  0  0  0  0  0  0  0  0  0  0  0
  139.8297   72.5632  225.0034 H   0  0  0  0  0  0  0  0  0  0  0  0
  140.8945   71.7519  223.9028 H   0  0  0  0  0  0  0  0  0  0  0  0
  140.7422   69.9011  221.4702 H   0  0  0  0  0  0  0  0  0  0  0  0
  140.0227   70.6297  219.9239 H   0  0  0  0  0  0  0  0  0  0  0  0
  142.3726   69.3392  220.0672 H   0  0  0  0  0  0  0  0  0  0  0  0
  141.9071   70.5807  218.8524 H   0  0  0  0  0  0  0  0  0  0  0  0
  1  2  1  0
  2  3  1  0
  3  4  2  0
  3  5  1  0
  5  6  1  0
  6  7  2  0
  7  8  1  0
  8  9  2  0
  9 10  1  0
 10 11  2  0
  5 12  1  0
 12 13  1  0
 13 14  1  0
 14 15  1  0
 15 16  1  0
 16 17  2  0
 16 18  1  0
 18 19  1  0
 18 20  1  0
 20 21  1  0
 21 22  1  0
 22 23  2  0
 23 24  1  0
 24 25  2  0
 25 26  1  0
 26 27  1  0
 26 28  2  0
 28 29  1  0
 15 30  1  0
 30 31  1  0
 11  6  1  0
 31 12  1  0
 29 20  1  0
 28 22  1  0
  1 32  1  0
  1 33  1  0
  1 34  1  0
  2 35  1  0
  2 36  1  0
  7 37  1  0
  8 38  1  0
  9 39  1  0
 10 40  1  0
 11 41  1  0
 12 42  1  0
 13 43  1  0
 13 44  1  0
 14 45  1  0
 14 46  1  0
 18 47  1  6
 19 48  1  0
 19 49  1  0
 20 50  1  1
 21 51  1  0
 21 52  1  0
 23 53  1  0
 24 54  1  0
 25 55  1  0
 27 56  1  0
 27 57  1  0
 27 58  1  0
 29 59  1  0
 29 60  1  0
 30 61  1  0
 30 62  1  0
 31 63  1  0
 31 64  1  0
M  END
>  <smiles>  (94) 
CCC(=O)N(c1ccccc1)C1CCN(C(=O)[C@H](N)C2Cc3cccc(C)c3C2)CC1

>  <score_type>  (94) 
oracle

>  <origin>  (94) 
autodockgpu

>  <m_score__min__energy>  (94) 
-9.3900000000000006

>  <m_primary>  (94) 
energy

>  <rmsd>  (94) 
9.892116377043871

>  <m_score__min__rmsd>  (94) 
9.892116377043871

>  <meeko>  (94) 
{"free_energy": -9.23, "intermolecular_energy": -11.32, "internal_energy": -1.86, "cluster_size": 16, "cluster_id": 1, "rank_in_cluster": 4}

>  <energy>  (94) 
-8.29

>  <cluster_rmsd>  (94) 
1.84

>  <cluster>  (94) 
4

$$$$

     RDKit          3D

 64 67  0  0  0  0  0  0  0  0999 V2000
  144.9400   74.5650  220.4610 C   0  0  0  0  0  0  0  0  0  0  0  0
  145.3030   73.2390  221.1080 C   0  0  0  0  0  0  0  0  0  0  0  0
  145.3140   72.2260  220.0330 C   0  0  0  0  0  0  0  0  0  0  0  0
  146.3260   72.2350  219.2620 O   0  0  0  0  0  0  0  0  0  0  0  0
  144.2480   71.2770  219.8570 N   0  0  0  0  0  0  0  0  0  0  0  0
  144.5480   70.1340  219.0290 C   0  0  0  0  0  0  0  0  0  0  0  0
  144.5660   70.2100  217.6590 C   0  0  0  0  0  0  0  0  0  0  0  0
  144.8660   69.0630  216.9370 C   0  0  0  0  0  0  0  0  0  0  0  0
  145.1440   67.8660  217.5730 C   0  0  0  0  0  0  0  0  0  0  0  0
  145.1210   67.8170  218.9620 C   0  0  0  0  0  0  0  0  0  0  0  0
  144.8220   68.9500  219.7210 C   0  0  0  0  0  0  0  0  0  0  0  0
  142.9670   71.4530  220.4710 C   0  0  0  0  0  0  0  0  0  0  0  0
  142.3240   72.7860  220.0530 C   0  0  0  0  0  0  0  0  0  0  0  0
  141.2520   73.0510  221.0510 C   0  0  0  0  0  0  0  0  0  0  0  0
  140.4440   71.8670  221.3480 N   0  0  0  0  0  0  0  0  0  0  0  0
  139.3610   72.1210  222.2420 C   0  0  0  0  0  0  0  0  0  0  0  0
  139.2700   73.3150  222.6610 O   0  0  0  0  0  0  0  0  0  0  0  0
  138.3610   71.1670  222.7170 C   0  0  2  0  0  0  0  0  0  0  0  0
  137.0480   71.6430  222.5160 N   0  0  0  0  0  0  0  0  0  0  0  0
  138.7340   70.8390  224.1390 C   0  0  1  0  0  0  0  0  0  0  0  0
  139.1840   69.3950  224.1980 C   0  0  0  0  0  0  0  0  0  0  0  0
  139.8230   69.4020  225.5630 C   0  0  0  0  0  0  0  0  0  0  0  0
  139.9460   68.3550  226.4640 C   0  0  0  0  0  0  0  0  0  0  0  0
  140.5830   68.5970  227.6660 C   0  0  0  0  0  0  0  0  0  0  0  0
  141.0830   69.8510  227.9570 C   0  0  0  0  0  0  0  0  0  0  0  0
  140.9400   70.8850  227.0220 C   0  0  0  0  0  0  0  0  0  0  0  0
  141.4740   72.2520  227.3010 C   0  0  0  0  0  0  0  0  0  0  0  0
  140.3090   70.6680  225.8190 C   0  0  0  0  0  0  0  0  0  0  0  0
  139.9820   71.5240  224.6270 C   0  0  0  0  0  0  0  0  0  0  0  0
  140.7060   70.5720  220.8080 C   0  0  0  0  0  0  0  0  0  0  0  0
  141.9760   70.4010  220.0490 C   0  0  0  0  0  0  0  0  0  0  0  0
  144.7358   75.3109  221.2432 H   0  0  0  0  0  0  0  0  0  0  0  0
  145.7770   74.9092  219.8357 H   0  0  0  0  0  0  0  0  0  0  0  0
  144.0444   74.4349  219.8357 H   0  0  0  0  0  0  0  0  0  0  0  0
  146.2966   73.3055  221.5753 H   0  0  0  0  0  0  0  0  0  0  0  0
  144.5796   72.9726  221.8927 H   0  0  0  0  0  0  0  0  0  0  0  0
  144.3478   71.1577  217.1449 H   0  0  0  0  0  0  0  0  0  0  0  0
  144.8831   69.1065  215.8380 H   0  0  0  0  0  0  0  0  0  0  0  0
  145.3800   66.9653  216.9873 H   0  0  0  0  0  0  0  0  0  0  0  0
  145.3424   66.8681  219.4725 H   0  0  0  0  0  0  0  0  0  0  0  0
  144.8027   68.9129  220.8202 H   0  0  0  0  0  0  0  0  0  0  0  0
  143.1668   71.4033  221.5516 H   0  0  0  0  0  0  0  0  0  0  0  0
  143.0710   73.5933  220.0700 H   0  0  0  0  0  0  0  0  0  0  0  0
  141.9216   72.7378  219.0304 H   0  0  0  0  0  0  0  0  0  0  0  0
  141.7194   73.3998  221.9837 H   0  0  0  0  0  0  0  0  0  0  0  0
  140.5808   73.8089  220.6207 H   0  0  0  0  0  0  0  0  0  0  0  0
  138.3593   70.2309  222.1394 H   0  0  0  0  0  0  0  0  0  0  0  0
  136.9290   72.6750  222.5560 H   0  0  0  0  0  0  0  0  0  0  0  0
  136.5290   71.2500  221.7230 H   0  0  0  0  0  0  0  0  0  0  0  0
  137.8473   71.1225  224.7250 H   0  0  0  0  0  0  0  0  0  0  0  0
  138.3362   68.6963  224.1432 H   0  0  0  0  0  0  0  0  0  0  0  0
  139.8344   69.0684  223.3732 H   0  0  0  0  0  0  0  0  0  0  0  0
  139.5467   67.3576  226.2279 H   0  0  0  0  0  0  0  0  0  0  0  0
  140.6929   67.7833  228.3979 H   0  0  0  0  0  0  0  0  0  0  0  0
  141.5897   70.0368  228.9155 H   0  0  0  0  0  0  0  0  0  0  0  0
  141.5346   72.4071  228.3883 H   0  0  0  0  0  0  0  0  0  0  0  0
  142.4769   72.3509  226.8601 H   0  0  0  0  0  0  0  0  0  0  0  0
  140.8037   73.0045  226.8601 H   0  0  0  0  0  0  0  0  0  0  0  0
  139.7872   72.5673  224.9162 H   0  0  0  0  0  0  0  0  0  0  0  0
  140.7866   71.6016  223.8810 H   0  0  0  0  0  0  0  0  0  0  0  0
  140.7217   69.8598  221.6461 H   0  0  0  0  0  0  0  0  0  0  0  0
  139.9073   70.4025  220.0709 H   0  0  0  0  0  0  0  0  0  0  0  0
  142.3925   69.4037  220.2537 H   0  0  0  0  0  0  0  0  0  0  0  0
  141.7730   70.5037  218.9728 H   0  0  0  0  0  0  0  0  0  0  0  0
  1  2  1  0
  2  3  1  0
  3  4  2  0
  3  5  1  0
  5  6  1  0
  6  7  2  0
  7  8  1  0
  8  9  2  0
  9 10  1  0
 10 11  2  0
  5 12  1  0
 12 13  1  0
 13 14  1  0
 14 15  1  0
 15 16  1  0
 16 17  2  0
 16 18  1  0
 18 19  1  0
 18 20  1  0
 20 21  1  0
 21 22  1  0
 22 23  2  0
 23 24  1  0
 24 25  2  0
 25 26  1  0
 26 27  1  0
 26 28  2  0
 28 29  1  0
 15 30  1  0
 30 31  1  0
 11  6  1  0
 31 12  1  0
 29 20  1  0
 28 22  1  0
  1 32  1  0
  1 33  1  0
  1 34  1  0
  2 35  1  0
  2 36  1  0
  7 37  1  0
  8 38  1  0
  9 39  1  0
 10 40  1  0
 11 41  1  0
 12 42  1  0
 13 43  1  0
 13 44  1  0
 14 45  1  0
 14 46  1  0
 18 47  1  6
 19 48  1  0
 19 49  1  0
 20 50  1  1
 21 51  1  0
 21 52  1  0
 23 53  1  0
 24 54  1  0
 25 55  1  0
 27 56  1  0
 27 57  1  0
 27 58  1  0
 29 59  1  0
 29 60  1  0
 30 61  1  0
 30 62  1  0
 31 63  1  0
 31 64  1  0
M  END
>  <smiles>  (95) 
CCC(=O)N(c1ccccc1)C1CCN(C(=O)[C@H](N)C2Cc3cccc(C)c3C2)CC1

>  <score_type>  (95) 
oracle

>  <origin>  (95) 
autodockgpu

>  <m_score__min__energy>  (95) 
-9.3900000000000006

>  <m_primary>  (95) 
energy

>  <rmsd>  (95) 
9.900027519912108

>  <m_score__min__rmsd>  (95) 
9.900027519912108

>  <meeko>  (95) 
{"free_energy": -8.31, "intermolecular_energy": -10.4, "internal_energy": -1.97, "cluster_size": 16, "cluster_id": 1, "rank_in_cluster": 16}

>  <energy>  (95) 
-8.28

>  <cluster_rmsd>  (95) 
0.22

>  <cluster>  (95) 
4

$$$$

     RDKit          3D

 64 67  0  0  0  0  0  0  0  0999 V2000
  140.3680   78.2310  218.9220 C   0  0  0  0  0  0  0  0  0  0  0  0
  141.8790   78.2500  219.0790 C   0  0  0  0  0  0  0  0  0  0  0  0
  142.2130   77.2760  220.1380 C   0  0  0  0  0  0  0  0  0  0  0  0
  143.2850   76.6110  219.9730 O   0  0  0  0  0  0  0  0  0  0  0  0
  141.3820   77.0810  221.2950 N   0  0  0  0  0  0  0  0  0  0  0  0
  141.2460   78.2150  222.1770 C   0  0  0  0  0  0  0  0  0  0  0  0
  140.0980   78.4540  222.8870 C   0  0  0  0  0  0  0  0  0  0  0  0
  140.0510   79.5670  223.7150 C   0  0  0  0  0  0  0  0  0  0  0  0
  141.1330   80.4230  223.8300 C   0  0  0  0  0  0  0  0  0  0  0  0
  142.2860   80.1560  223.1000 C   0  0  0  0  0  0  0  0  0  0  0  0
  142.3670   79.0470  222.2570 C   0  0  0  0  0  0  0  0  0  0  0  0
  140.7260   75.8350  221.5560 C   0  0  0  0  0  0  0  0  0  0  0  0
  139.3000   75.8210  220.9810 C   0  0  0  0  0  0  0  0  0  0  0  0
  138.5960   74.7050  221.6680 C   0  0  0  0  0  0  0  0  0  0  0  0
  139.4040   73.4870  221.7520 N   0  0  0  0  0  0  0  0  0  0  0  0
  138.7150   72.3810  222.3350 C   0  0  0  0  0  0  0  0  0  0  0  0
  137.5260   72.6160  222.7110 O   0  0  0  0  0  0  0  0  0  0  0  0
  139.2260   71.0260  222.5390 C   0  0  2  0  0  0  0  0  0  0  0  0
  138.4960   70.0760  221.7960 N   0  0  0  0  0  0  0  0  0  0  0  0
  139.2620   70.8120  224.0300 C   0  0  1  0  0  0  0  0  0  0  0  0
  139.5380   69.3470  224.2980 C   0  0  0  0  0  0  0  0  0  0  0  0
  139.8800   69.4360  225.7640 C   0  0  0  0  0  0  0  0  0  0  0  0
  139.7050   68.4770  226.7500 C   0  0  0  0  0  0  0  0  0  0  0  0
  140.1020   68.7820  228.0370 C   0  0  0  0  0  0  0  0  0  0  0  0
  140.6590   70.0120  228.3290 C   0  0  0  0  0  0  0  0  0  0  0  0
  140.8200   70.9560  227.3050 C   0  0  0  0  0  0  0  0  0  0  0  0
  141.4250   72.2940  227.5840 C   0  0  0  0  0  0  0  0  0  0  0  0
  140.4310   70.6750  226.0160 C   0  0  0  0  0  0  0  0  0  0  0  0
  140.4480   71.4330  224.7180 C   0  0  0  0  0  0  0  0  0  0  0  0
  140.7550   73.3990  221.3030 C   0  0  0  0  0  0  0  0  0  0  0  0
  141.4170   74.6710  220.8980 C   0  0  0  0  0  0  0  0  0  0  0  0
  139.8962   78.2251  219.9156 H   0  0  0  0  0  0  0  0  0  0  0  0
  140.0456   79.1252  218.3683 H   0  0  0  0  0  0  0  0  0  0  0  0
  140.0682   77.3290  218.3683 H   0  0  0  0  0  0  0  0  0  0  0  0
  142.3611   77.9609  218.1335 H   0  0  0  0  0  0  0  0  0  0  0  0
  142.2345   79.2567  219.3438 H   0  0  0  0  0  0  0  0  0  0  0  0
  139.2336   77.7790  222.8024 H   0  0  0  0  0  0  0  0  0  0  0  0
  139.1366   79.7729  224.2908 H   0  0  0  0  0  0  0  0  0  0  0  0
  141.0813   81.3019  224.4895 H   0  0  0  0  0  0  0  0  0  0  0  0
  143.1498   80.8312  223.1887 H   0  0  0  0  0  0  0  0  0  0  0  0
  143.2778   78.8354  221.6776 H   0  0  0  0  0  0  0  0  0  0  0  0
  140.7373   75.7384  222.6517 H   0  0  0  0  0  0  0  0  0  0  0  0
  138.7950   76.7764  221.1863 H   0  0  0  0  0  0  0  0  0  0  0  0
  139.3053   75.6849  219.8895 H   0  0  0  0  0  0  0  0  0  0  0  0
  138.3395   75.0270  222.6881 H   0  0  0  0  0  0  0  0  0  0  0  0
  137.6999   74.4663  221.0764 H   0  0  0  0  0  0  0  0  0  0  0  0
  140.2456   70.8923  222.1484 H   0  0  0  0  0  0  0  0  0  0  0  0
  137.5340   70.3560  221.5200 H   0  0  0  0  0  0  0  0  0  0  0  0
  138.9820   69.6310  221.0090 H   0  0  0  0  0  0  0  0  0  0  0  0
  138.3086   71.2277  224.3882 H   0  0  0  0  0  0  0  0  0  0  0  0
  138.6517   68.7207  224.1185 H   0  0  0  0  0  0  0  0  0  0  0  0
  140.3063   68.8858  223.6600 H   0  0  0  0  0  0  0  0  0  0  0  0
  139.2614   67.4986  226.5132 H   0  0  0  0  0  0  0  0  0  0  0  0
  139.9735   68.0384  228.8373 H   0  0  0  0  0  0  0  0  0  0  0  0
  140.9735   70.2487  229.3561 H   0  0  0  0  0  0  0  0  0  0  0  0
  141.4937   72.4458  228.6713 H   0  0  0  0  0  0  0  0  0  0  0  0
  142.4317   72.3404  227.1430 H   0  0  0  0  0  0  0  0  0  0  0  0
  140.7949   73.0805  227.1430 H   0  0  0  0  0  0  0  0  0  0  0  0
  140.3083   72.5127  224.8751 H   0  0  0  0  0  0  0  0  0  0  0  0
  141.3925   71.3670  224.1580 H   0  0  0  0  0  0  0  0  0  0  0  0
  141.3483   72.9614  222.1194 H   0  0  0  0  0  0  0  0  0  0  0  0
  140.7124   72.7941  220.3852 H   0  0  0  0  0  0  0  0  0  0  0  0
  142.4720   74.6490  221.2086 H   0  0  0  0  0  0  0  0  0  0  0  0
  141.3556   74.7815  219.8053 H   0  0  0  0  0  0  0  0  0  0  0  0
  1  2  1  0
  2  3  1  0
  3  4  2  0
  3  5  1  0
  5  6  1  0
  6  7  2  0
  7  8  1  0
  8  9  2  0
  9 10  1  0
 10 11  2  0
  5 12  1  0
 12 13  1  0
 13 14  1  0
 14 15  1  0
 15 16  1  0
 16 17  2  0
 16 18  1  0
 18 19  1  0
 18 20  1  0
 20 21  1  0
 21 22  1  0
 22 23  2  0
 23 24  1  0
 24 25  2  0
 25 26  1  0
 26 27  1  0
 26 28  2  0
 28 29  1  0
 15 30  1  0
 30 31  1  0
 11  6  1  0
 31 12  1  0
 29 20  1  0
 28 22  1  0
  1 32  1  0
  1 33  1  0
  1 34  1  0
  2 35  1  0
  2 36  1  0
  7 37  1  0
  8 38  1  0
  9 39  1  0
 10 40  1  0
 11 41  1  0
 12 42  1  0
 13 43  1  0
 13 44  1  0
 14 45  1  0
 14 46  1  0
 18 47  1  6
 19 48  1  0
 19 49  1  0
 20 50  1  1
 21 51  1  0
 21 52  1  0
 23 53  1  0
 24 54  1  0
 25 55  1  0
 27 56  1  0
 27 57  1  0
 27 58  1  0
 29 59  1  0
 29 60  1  0
 30 61  1  0
 30 62  1  0
 31 63  1  0
 31 64  1  0
M  END
>  <smiles>  (96) 
CCC(=O)N(c1ccccc1)C1CCN(C(=O)[C@H](N)C2Cc3cccc(C)c3C2)CC1

>  <score_type>  (96) 
oracle

>  <origin>  (96) 
autodockgpu

>  <m_score__min__energy>  (96) 
-9.3900000000000006

>  <m_primary>  (96) 
energy

>  <rmsd>  (96) 
9.342866791106367

>  <m_score__min__rmsd>  (96) 
9.342866791106367

>  <meeko>  (96) 
{"free_energy": -8.59, "intermolecular_energy": -10.68, "internal_energy": -1.81, "cluster_size": 18, "cluster_id": 2, "rank_in_cluster": 7}

>  <energy>  (96) 
-8.19

>  <cluster_rmsd>  (96) 
0.3

>  <cluster>  (96) 
4

$$$$

     RDKit          3D

 64 67  0  0  0  0  0  0  0  0999 V2000
  142.5490   78.8120  218.1950 C   0  0  0  0  0  0  0  0  0  0  0  0
  141.3660   78.1570  218.8880 C   0  0  0  0  0  0  0  0  0  0  0  0
  141.9130   77.3290  219.9810 C   0  0  0  0  0  0  0  0  0  0  0  0
  143.0700   76.8340  219.7870 O   0  0  0  0  0  0  0  0  0  0  0  0
  141.1920   77.0860  221.2010 N   0  0  0  0  0  0  0  0  0  0  0  0
  141.1220   78.1920  222.1260 C   0  0  0  0  0  0  0  0  0  0  0  0
  140.0490   78.3780  222.9600 C   0  0  0  0  0  0  0  0  0  0  0  0
  140.0630   79.4660  223.8220 C   0  0  0  0  0  0  0  0  0  0  0  0
  141.1290   80.3490  223.8480 C   0  0  0  0  0  0  0  0  0  0  0  0
  142.2040   80.1350  222.9930 C   0  0  0  0  0  0  0  0  0  0  0  0
  142.2240   79.0520  222.1130 C   0  0  0  0  0  0  0  0  0  0  0  0
  140.5760   75.8240  221.4800 C   0  0  0  0  0  0  0  0  0  0  0  0
  139.1490   75.7580  220.9100 C   0  0  0  0  0  0  0  0  0  0  0  0
  138.4820   74.6290  221.6130 C   0  0  0  0  0  0  0  0  0  0  0  0
  139.3280   73.4380  221.7090 N   0  0  0  0  0  0  0  0  0  0  0  0
  138.6770   72.3190  222.3090 C   0  0  0  0  0  0  0  0  0  0  0  0
  137.4830   72.5220  222.6870 O   0  0  0  0  0  0  0  0  0  0  0  0
  139.2310   70.9840  222.5290 C   0  0  2  0  0  0  0  0  0  0  0  0
  138.5490   70.0050  221.7750 N   0  0  0  0  0  0  0  0  0  0  0  0
  139.2450   70.7760  224.0210 C   0  0  1  0  0  0  0  0  0  0  0  0
  139.5140   69.3120  224.2990 C   0  0  0  0  0  0  0  0  0  0  0  0
  139.8340   69.4060  225.7700 C   0  0  0  0  0  0  0  0  0  0  0  0
  139.6430   68.4520  226.7580 C   0  0  0  0  0  0  0  0  0  0  0  0
  140.0230   68.7620  228.0490 C   0  0  0  0  0  0  0  0  0  0  0  0
  140.5790   69.9920  228.3430 C   0  0  0  0  0  0  0  0  0  0  0  0
  140.7560   70.9310  227.3180 C   0  0  0  0  0  0  0  0  0  0  0  0
  141.3600   72.2690  227.5990 C   0  0  0  0  0  0  0  0  0  0  0  0
  140.3850   70.6450  226.0250 C   0  0  0  0  0  0  0  0  0  0  0  0
  140.4220   71.3970  224.7230 C   0  0  0  0  0  0  0  0  0  0  0  0
  140.6810   73.3870  221.2570 C   0  0  0  0  0  0  0  0  0  0  0  0
  141.3010   74.6740  220.8340 C   0  0  0  0  0  0  0  0  0  0  0  0
  143.2483   79.1992  218.9507 H   0  0  0  0  0  0  0  0  0  0  0  0
  143.0626   78.0698  217.5663 H   0  0  0  0  0  0  0  0  0  0  0  0
  142.1925   79.6412  217.5663 H   0  0  0  0  0  0  0  0  0  0  0  0
  140.6937   78.9260  219.2963 H   0  0  0  0  0  0  0  0  0  0  0  0
  140.7866   77.5438  218.1821 H   0  0  0  0  0  0  0  0  0  0  0  0
  139.1977   77.6816  222.9461 H   0  0  0  0  0  0  0  0  0  0  0  0
  139.2105   79.6298  224.4976 H   0  0  0  0  0  0  0  0  0  0  0  0
  141.1254   81.2077  224.5355 H   0  0  0  0  0  0  0  0  0  0  0  0
  143.0546   80.8322  223.0104 H   0  0  0  0  0  0  0  0  0  0  0  0
  143.0738   78.8817  221.4356 H   0  0  0  0  0  0  0  0  0  0  0  0
  140.5935   75.7419  222.5768 H   0  0  0  0  0  0  0  0  0  0  0  0
  138.6149   76.6996  221.1052 H   0  0  0  0  0  0  0  0  0  0  0  0
  139.1555   75.6084  219.8202 H   0  0  0  0  0  0  0  0  0  0  0  0
  138.2186   74.9553  222.6299 H   0  0  0  0  0  0  0  0  0  0  0  0
  137.5919   74.3553  221.0275 H   0  0  0  0  0  0  0  0  0  0  0  0
  140.2623   70.8855  222.1593 H   0  0  0  0  0  0  0  0  0  0  0  0
  138.7340   69.0170  222.0410 H   0  0  0  0  0  0  0  0  0  0  0  0
  137.5460   70.1560  221.6210 H   0  0  0  0  0  0  0  0  0  0  0  0
  138.2874   71.1950  224.3637 H   0  0  0  0  0  0  0  0  0  0  0  0
  138.6293   68.6867  224.1085 H   0  0  0  0  0  0  0  0  0  0  0  0
  140.2911   68.8470  223.6746 H   0  0  0  0  0  0  0  0  0  0  0  0
  139.2003   67.4736  226.5196 H   0  0  0  0  0  0  0  0  0  0  0  0
  139.8816   68.0224  228.8509 H   0  0  0  0  0  0  0  0  0  0  0  0
  140.8803   70.2323  229.3733 H   0  0  0  0  0  0  0  0  0  0  0  0
  141.4279   72.4195  228.6865 H   0  0  0  0  0  0  0  0  0  0  0  0
  142.3669   72.3166  227.1586 H   0  0  0  0  0  0  0  0  0  0  0  0
  140.7297   73.0556  227.1586 H   0  0  0  0  0  0  0  0  0  0  0  0
  140.2827   72.4778  224.8730 H   0  0  0  0  0  0  0  0  0  0  0  0
  141.3742   71.3258  224.1768 H   0  0  0  0  0  0  0  0  0  0  0  0
  141.2899   72.9790  222.0772 H   0  0  0  0  0  0  0  0  0  0  0  0
  140.6555   72.7692  220.3473 H   0  0  0  0  0  0  0  0  0  0  0  0
  142.3572   74.6891  221.1409 H   0  0  0  0  0  0  0  0  0  0  0  0
  141.2322   74.7688  219.7403 H   0  0  0  0  0  0  0  0  0  0  0  0
  1  2  1  0
  2  3  1  0
  3  4  2  0
  3  5  1  0
  5  6  1  0
  6  7  2  0
  7  8  1  0
  8  9  2  0
  9 10  1  0
 10 11  2  0
  5 12  1  0
 12 13  1  0
 13 14  1  0
 14 15  1  0
 15 16  1  0
 16 17  2  0
 16 18  1  0
 18 19  1  0
 18 20  1  0
 20 21  1  0
 21 22  1  0
 22 23  2  0
 23 24  1  0
 24 25  2  0
 25 26  1  0
 26 27  1  0
 26 28  2  0
 28 29  1  0
 15 30  1  0
 30 31  1  0
 11  6  1  0
 31 12  1  0
 29 20  1  0
 28 22  1  0
  1 32  1  0
  1 33  1  0
  1 34  1  0
  2 35  1  0
  2 36  1  0
  7 37  1  0
  8 38  1  0
  9 39  1  0
 10 40  1  0
 11 41  1  0
 12 42  1  0
 13 43  1  0
 13 44  1  0
 14 45  1  0
 14 46  1  0
 18 47  1  6
 19 48  1  0
 19 49  1  0
 20 50  1  1
 21 51  1  0
 21 52  1  0
 23 53  1  0
 24 54  1  0
 25 55  1  0
 27 56  1  0
 27 57  1  0
 27 58  1  0
 29 59  1  0
 29 60  1  0
 30 61  1  0
 30 62  1  0
 31 63  1  0
 31 64  1  0
M  END
>  <smiles>  (97) 
CCC(=O)N(c1ccccc1)C1CCN(C(=O)[C@H](N)C2Cc3cccc(C)c3C2)CC1

>  <score_type>  (97) 
oracle

>  <origin>  (97) 
autodockgpu

>  <m_score__min__energy>  (97) 
-9.3900000000000006

>  <m_primary>  (97) 
energy

>  <rmsd>  (97) 
9.35684825071567

>  <m_score__min__rmsd>  (97) 
9.35684825071567

>  <meeko>  (97) 
{"free_energy": -8.72, "intermolecular_energy": -10.8, "internal_energy": -1.75, "cluster_size": 18, "cluster_id": 2, "rank_in_cluster": 2}

>  <energy>  (97) 
-7.99

>  <cluster_rmsd>  (97) 
0.46

>  <cluster>  (97) 
4

$$$$

     RDKit          3D

 64 67  0  0  0  0  0  0  0  0999 V2000
  145.4560   73.0170  217.2270 C   0  0  0  0  0  0  0  0  0  0  0  0
  144.8720   71.6170  217.3280 C   0  0  0  0  0  0  0  0  0  0  0  0
  145.0140   71.1930  218.7350 C   0  0  0  0  0  0  0  0  0  0  0  0
  145.9900   71.6980  219.3790 O   0  0  0  0  0  0  0  0  0  0  0  0
  144.1090   70.2650  219.3570 N   0  0  0  0  0  0  0  0  0  0  0  0
  144.4320   68.8660  219.2030 C   0  0  0  0  0  0  0  0  0  0  0  0
  143.5650   67.9780  218.6200 C   0  0  0  0  0  0  0  0  0  0  0  0
  143.9550   66.6500  218.5090 C   0  0  0  0  0  0  0  0  0  0  0  0
  145.1870   66.2220  218.9720 C   0  0  0  0  0  0  0  0  0  0  0  0
  146.0460   67.1440  219.5580 C   0  0  0  0  0  0  0  0  0  0  0  0
  145.6870   68.4870  219.6870 C   0  0  0  0  0  0  0  0  0  0  0  0
  142.9580   70.7010  220.0880 C   0  0  0  0  0  0  0  0  0  0  0  0
  142.6860   72.1980  219.8630 C   0  0  0  0  0  0  0  0  0  0  0  0
  141.7800   72.6160  220.9680 C   0  0  0  0  0  0  0  0  0  0  0  0
  140.6950   71.6640  221.2070 N   0  0  0  0  0  0  0  0  0  0  0  0
  139.7700   72.0880  222.2080 C   0  0  0  0  0  0  0  0  0  0  0  0
  140.0310   73.2030  222.7540 O   0  0  0  0  0  0  0  0  0  0  0  0
  138.5710   71.3850  222.6620 C   0  0  2  0  0  0  0  0  0  0  0  0
  137.4180   72.1900  222.5450 N   0  0  0  0  0  0  0  0  0  0  0  0
  138.8820   70.8760  224.0450 C   0  0  1  0  0  0  0  0  0  0  0  0
  139.3620   69.4440  223.9330 C   0  0  0  0  0  0  0  0  0  0  0  0
  139.9340   69.2780  225.3180 C   0  0  0  0  0  0  0  0  0  0  0  0
  140.0370   68.1210  226.0760 C   0  0  0  0  0  0  0  0  0  0  0  0
  140.6080   68.2090  227.3300 C   0  0  0  0  0  0  0  0  0  0  0  0
  141.0640   69.4210  227.8130 C   0  0  0  0  0  0  0  0  0  0  0  0
  140.9430   70.5690  227.0180 C   0  0  0  0  0  0  0  0  0  0  0  0
  141.4310   71.8940  227.5050 C   0  0  0  0  0  0  0  0  0  0  0  0
  140.3770   70.5050  225.7660 C   0  0  0  0  0  0  0  0  0  0  0  0
  140.0890   71.5080  224.6830 C   0  0  0  0  0  0  0  0  0  0  0  0
  140.5630   70.4220  220.5170 C   0  0  0  0  0  0  0  0  0  0  0  0
  141.6970   70.0100  219.6430 C   0  0  0  0  0  0  0  0  0  0  0  0
  145.6234   73.4182  218.2374 H   0  0  0  0  0  0  0  0  0  0  0  0
  146.4125   72.9771  216.6852 H   0  0  0  0  0  0  0  0  0  0  0  0
  144.7547   73.6686  216.6852 H   0  0  0  0  0  0  0  0  0  0  0  0
  143.8099   71.6287  217.0419 H   0  0  0  0  0  0  0  0  0  0  0  0
  145.3946   70.9230  216.6532 H   0  0  0  0  0  0  0  0  0  0  0  0
  142.5840   68.3097  218.2491 H   0  0  0  0  0  0  0  0  0  0  0  0
  143.2716   65.9242  218.0441 H   0  0  0  0  0  0  0  0  0  0  0  0
  145.4822   65.1666  218.8775 H   0  0  0  0  0  0  0  0  0  0  0  0
  147.0268   66.8095  219.9270 H   0  0  0  0  0  0  0  0  0  0  0  0
  146.3653   69.2180  220.1513 H   0  0  0  0  0  0  0  0  0  0  0  0
  143.1901   70.4699  221.1381 H   0  0  0  0  0  0  0  0  0  0  0  0
  143.6259   72.7682  219.9018 H   0  0  0  0  0  0  0  0  0  0  0  0
  142.2348   72.3839  218.8772 H   0  0  0  0  0  0  0  0  0  0  0  0
  142.3722   72.7116  221.8900 H   0  0  0  0  0  0  0  0  0  0  0  0
  141.3213   73.5717  220.6745 H   0  0  0  0  0  0  0  0  0  0  0  0
  138.3179   70.5227  222.0276 H   0  0  0  0  0  0  0  0  0  0  0  0
  136.5080   71.6920  222.6120 H   0  0  0  0  0  0  0  0  0  0  0  0
  137.3990   73.0540  223.0980 H   0  0  0  0  0  0  0  0  0  0  0  0
  137.9620   71.0650  224.6176 H   0  0  0  0  0  0  0  0  0  0  0  0
  138.5342   68.7452  223.7422 H   0  0  0  0  0  0  0  0  0  0  0  0
  140.0587   69.2419  223.1061 H   0  0  0  0  0  0  0  0  0  0  0  0
  139.6731   67.1581  225.6881 H   0  0  0  0  0  0  0  0  0  0  0  0
  140.7009   67.3056  227.9507 H   0  0  0  0  0  0  0  0  0  0  0  0
  141.5181   69.4841  228.8129 H   0  0  0  0  0  0  0  0  0  0  0  0
  141.4339   71.9020  228.6050 H   0  0  0  0  0  0  0  0  0  0  0  0
  142.4520   72.0675  227.1343 H   0  0  0  0  0  0  0  0  0  0  0  0
  140.7664   72.6883  227.1343 H   0  0  0  0  0  0  0  0  0  0  0  0
  139.8574   72.5000  225.0982 H   0  0  0  0  0  0  0  0  0  0  0  0
  140.9270   71.6970  223.9959 H   0  0  0  0  0  0  0  0  0  0  0  0
  140.4241   69.6354  221.2733 H   0  0  0  0  0  0  0  0  0  0  0  0
  139.7126   70.5637  219.8338 H   0  0  0  0  0  0  0  0  0  0  0  0
  141.8337   68.9206  219.7107 H   0  0  0  0  0  0  0  0  0  0  0  0
  141.4756   70.2908  218.6027 H   0  0  0  0  0  0  0  0  0  0  0  0
  1  2  1  0
  2  3  1  0
  3  4  2  0
  3  5  1  0
  5  6  1  0
  6  7  2  0
  7  8  1  0
  8  9  2  0
  9 10  1  0
 10 11  2  0
  5 12  1  0
 12 13  1  0
 13 14  1  0
 14 15  1  0
 15 16  1  0
 16 17  2  0
 16 18  1  0
 18 19  1  0
 18 20  1  0
 20 21  1  0
 21 22  1  0
 22 23  2  0
 23 24  1  0
 24 25  2  0
 25 26  1  0
 26 27  1  0
 26 28  2  0
 28 29  1  0
 15 30  1  0
 30 31  1  0
 11  6  1  0
 31 12  1  0
 29 20  1  0
 28 22  1  0
  1 32  1  0
  1 33  1  0
  1 34  1  0
  2 35  1  0
  2 36  1  0
  7 37  1  0
  8 38  1  0
  9 39  1  0
 10 40  1  0
 11 41  1  0
 12 42  1  0
 13 43  1  0
 13 44  1  0
 14 45  1  0
 14 46  1  0
 18 47  1  6
 19 48  1  0
 19 49  1  0
 20 50  1  1
 21 51  1  0
 21 52  1  0
 23 53  1  0
 24 54  1  0
 25 55  1  0
 27 56  1  0
 27 57  1  0
 27 58  1  0
 29 59  1  0
 29 60  1  0
 30 61  1  0
 30 62  1  0
 31 63  1  0
 31 64  1  0
M  END
>  <smiles>  (98) 
CCC(=O)N(c1ccccc1)C1CCN(C(=O)[C@H](N)C2Cc3cccc(C)c3C2)CC1

>  <score_type>  (98) 
oracle

>  <origin>  (98) 
autodockgpu

>  <m_score__min__energy>  (98) 
-9.3900000000000006

>  <m_primary>  (98) 
energy

>  <rmsd>  (98) 
10.02677857040882

>  <m_score__min__rmsd>  (98) 
10.02677857040882

>  <meeko>  (98) 
{"free_energy": -8.83, "intermolecular_energy": -10.92, "internal_energy": -1.42, "cluster_size": 16, "cluster_id": 1, "rank_in_cluster": 9}

>  <energy>  (98) 
-8.14

>  <cluster_rmsd>  (98) 
0.0

>  <cluster>  (98) 
5

$$$$

     RDKit          3D

 64 67  0  0  0  0  0  0  0  0999 V2000
  140.8510   77.5050  218.3610 C   0  0  0  0  0  0  0  0  0  0  0  0
  141.8310   77.9300  219.4430 C   0  0  0  0  0  0  0  0  0  0  0  0
  141.9270   76.8080  220.3990 C   0  0  0  0  0  0  0  0  0  0  0  0
  142.8850   75.9910  220.2130 O   0  0  0  0  0  0  0  0  0  0  0  0
  140.9990   76.6370  221.4840 N   0  0  0  0  0  0  0  0  0  0  0  0
  140.7790   77.7940  222.3180 C   0  0  0  0  0  0  0  0  0  0  0  0
  141.7530   78.2940  223.1440 C   0  0  0  0  0  0  0  0  0  0  0  0
  141.4590   79.4130  223.9120 C   0  0  0  0  0  0  0  0  0  0  0  0
  140.2160   80.0190  223.8520 C   0  0  0  0  0  0  0  0  0  0  0  0
  139.2480   79.4920  223.0040 C   0  0  0  0  0  0  0  0  0  0  0  0
  139.5080   78.3680  222.2190 C   0  0  0  0  0  0  0  0  0  0  0  0
  140.3310   75.3930  221.7210 C   0  0  0  0  0  0  0  0  0  0  0  0
  138.9640   75.3490  221.0190 C   0  0  0  0  0  0  0  0  0  0  0  0
  138.2070   74.2460  221.6720 C   0  0  0  0  0  0  0  0  0  0  0  0
  139.0120   73.0390  221.8650 N   0  0  0  0  0  0  0  0  0  0  0  0
  138.2800   71.9440  222.4160 C   0  0  0  0  0  0  0  0  0  0  0  0
  137.0610   72.1790  222.6750 O   0  0  0  0  0  0  0  0  0  0  0  0
  138.7800   70.6010  222.7070 C   0  0  2  0  0  0  0  0  0  0  0  0
  137.9310   69.6040  222.1840 N   0  0  0  0  0  0  0  0  0  0  0  0
  139.0150   70.5540  224.1950 C   0  0  1  0  0  0  0  0  0  0  0  0
  139.4130   69.1430  224.5740 C   0  0  0  0  0  0  0  0  0  0  0  0
  139.9280   69.4090  225.9650 C   0  0  0  0  0  0  0  0  0  0  0  0
  139.9380   68.5570  227.0590 C   0  0  0  0  0  0  0  0  0  0  0  0
  140.4730   69.0200  228.2450 C   0  0  0  0  0  0  0  0  0  0  0  0
  140.9840   70.3010  228.3340 C   0  0  0  0  0  0  0  0  0  0  0  0
  140.9570   71.1340  227.2060 C   0  0  0  0  0  0  0  0  0  0  0  0
  141.5070   72.5220  227.2640 C   0  0  0  0  0  0  0  0  0  0  0  0
  140.4290   70.6940  226.0150 C   0  0  0  0  0  0  0  0  0  0  0  0
  140.2360   71.3040  224.6540 C   0  0  0  0  0  0  0  0  0  0  0  0
  140.4000   72.9510  221.5450 C   0  0  0  0  0  0  0  0  0  0  0  0
  141.0870   74.2170  221.1640 C   0  0  0  0  0  0  0  0  0  0  0  0
  139.9376   77.1089  218.8287 H   0  0  0  0  0  0  0  0  0  0  0  0
  140.5959   78.3733  217.7358 H   0  0  0  0  0  0  0  0  0  0  0  0
  141.3106   76.7253  217.7358 H   0  0  0  0  0  0  0  0  0  0  0  0
  142.8170   78.1358  219.0008 H   0  0  0  0  0  0  0  0  0  0  0  0
  141.4899   78.8473  219.9452 H   0  0  0  0  0  0  0  0  0  0  0  0
  142.7441   77.8197  223.1969 H   0  0  0  0  0  0  0  0  0  0  0  0
  142.2287   79.8257  224.5808 H   0  0  0  0  0  0  0  0  0  0  0  0
  139.9970   80.9048  224.4663 H   0  0  0  0  0  0  0  0  0  0  0  0
  138.2588   79.9702  222.9510 H   0  0  0  0  0  0  0  0  0  0  0  0
  138.7428   77.9499  221.5484 H   0  0  0  0  0  0  0  0  0  0  0  0
  140.2430   75.3281  222.8156 H   0  0  0  0  0  0  0  0  0  0  0  0
  138.4359   76.3051  221.1490 H   0  0  0  0  0  0  0  0  0  0  0  0
  139.0702   75.1815  219.9370 H   0  0  0  0  0  0  0  0  0  0  0  0
  137.8562   74.5947  222.6545 H   0  0  0  0  0  0  0  0  0  0  0  0
  137.3702   73.9821  221.0086 H   0  0  0  0  0  0  0  0  0  0  0  0
  139.7328   70.3832  222.2024 H   0  0  0  0  0  0  0  0  0  0  0  0
  137.9360   68.6940  222.6860 H   0  0  0  0  0  0  0  0  0  0  0  0
  136.9700   69.8860  221.9580 H   0  0  0  0  0  0  0  0  0  0  0  0
  138.0896   70.9592  224.6302 H   0  0  0  0  0  0  0  0  0  0  0  0
  138.5521   68.4583  224.5768 H   0  0  0  0  0  0  0  0  0  0  0  0
  140.1234   68.6525  223.8922 H   0  0  0  0  0  0  0  0  0  0  0  0
  139.5301   67.5382  226.9841 H   0  0  0  0  0  0  0  0  0  0  0  0
  140.4926   68.3631  229.1271 H   0  0  0  0  0  0  0  0  0  0  0  0
  141.4083   70.6642  229.2816 H   0  0  0  0  0  0  0  0  0  0  0  0
  141.6271   72.8252  228.3146 H   0  0  0  0  0  0  0  0  0  0  0  0
  142.4844   72.5505  226.7601 H   0  0  0  0  0  0  0  0  0  0  0  0
  140.8144   73.2122  226.7601 H   0  0  0  0  0  0  0  0  0  0  0  0
  140.0497   72.3864  224.7157 H   0  0  0  0  0  0  0  0  0  0  0  0
  141.1054   71.2225  223.9850 H   0  0  0  0  0  0  0  0  0  0  0  0
  140.9186   72.5438  222.4255 H   0  0  0  0  0  0  0  0  0  0  0  0
  140.4468   72.3185  220.6463 H   0  0  0  0  0  0  0  0  0  0  0  0
  142.1094   74.2144  221.5698 H   0  0  0  0  0  0  0  0  0  0  0  0
  141.1245   74.2949  220.0674 H   0  0  0  0  0  0  0  0  0  0  0  0
  1  2  1  0
  2  3  1  0
  3  4  2  0
  3  5  1  0
  5  6  1  0
  6  7  2  0
  7  8  1  0
  8  9  2  0
  9 10  1  0
 10 11  2  0
  5 12  1  0
 12 13  1  0
 13 14  1  0
 14 15  1  0
 15 16  1  0
 16 17  2  0
 16 18  1  0
 18 19  1  0
 18 20  1  0
 20 21  1  0
 21 22  1  0
 22 23  2  0
 23 24  1  0
 24 25  2  0
 25 26  1  0
 26 27  1  0
 26 28  2  0
 28 29  1  0
 15 30  1  0
 30 31  1  0
 11  6  1  0
 31 12  1  0
 29 20  1  0
 28 22  1  0
  1 32  1  0
  1 33  1  0
  1 34  1  0
  2 35  1  0
  2 36  1  0
  7 37  1  0
  8 38  1  0
  9 39  1  0
 10 40  1  0
 11 41  1  0
 12 42  1  0
 13 43  1  0
 13 44  1  0
 14 45  1  0
 14 46  1  0
 18 47  1  6
 19 48  1  0
 19 49  1  0
 20 50  1  1
 21 51  1  0
 21 52  1  0
 23 53  1  0
 24 54  1  0
 25 55  1  0
 27 56  1  0
 27 57  1  0
 27 58  1  0
 29 59  1  0
 29 60  1  0
 30 61  1  0
 30 62  1  0
 31 63  1  0
 31 64  1  0
M  END
>  <smiles>  (99) 
CCC(=O)N(c1ccccc1)C1CCN(C(=O)[C@H](N)C2Cc3cccc(C)c3C2)CC1

>  <score_type>  (99) 
oracle

>  <origin>  (99) 
autodockgpu

>  <m_score__min__energy>  (99) 
-9.3900000000000006

>  <m_primary>  (99) 
energy

>  <rmsd>  (99) 
9.559683981718836

>  <m_score__min__rmsd>  (99) 
9.559683981718836

>  <meeko>  (99) 
{"free_energy": -8.13, "intermolecular_energy": -10.21, "internal_energy": -1.95, "cluster_size": 18, "cluster_id": 2, "rank_in_cluster": 15}

>  <energy>  (99) 
-7.98

>  <cluster_rmsd>  (99) 
0.8

>  <cluster>  (99) 
5

$$$$

     RDKit          3D

 64 67  0  0  0  0  0  0  0  0999 V2000
  138.8230   67.7620  222.9230 C   0  0  0  0  0  0  0  0  0  0  0  0
  137.5820   68.6410  222.9500 C   0  0  0  0  0  0  0  0  0  0  0  0
  137.6700   69.4700  224.1690 C   0  0  0  0  0  0  0  0  0  0  0  0
  136.6580   69.4470  224.9400 O   0  0  0  0  0  0  0  0  0  0  0  0
  138.8290   70.2620  224.4810 N   0  0  0  0  0  0  0  0  0  0  0  0
  139.5540   69.8840  225.6700 C   0  0  0  0  0  0  0  0  0  0  0  0
  139.5200   68.6080  226.1700 C   0  0  0  0  0  0  0  0  0  0  0  0
  140.2490   68.3280  227.3180 C   0  0  0  0  0  0  0  0  0  0  0  0
  140.9980   69.3060  227.9500 C   0  0  0  0  0  0  0  0  0  0  0  0
  141.0160   70.5910  227.4200 C   0  0  0  0  0  0  0  0  0  0  0  0
  140.2940   70.9090  226.2690 C   0  0  0  0  0  0  0  0  0  0  0  0
  139.2410   71.3590  223.6580 C   0  0  0  0  0  0  0  0  0  0  0  0
  140.3130   70.9280  222.6430 C   0  0  0  0  0  0  0  0  0  0  0  0
  140.9540   72.1850  222.1700 C   0  0  0  0  0  0  0  0  0  0  0  0
  139.9850   73.2390  221.8650 N   0  0  0  0  0  0  0  0  0  0  0  0
  140.5760   74.4240  221.3330 C   0  0  0  0  0  0  0  0  0  0  0  0
  141.8400   74.4010  221.2240 O   0  0  0  0  0  0  0  0  0  0  0  0
  139.8900   75.6430  220.9060 C   0  0  2  0  0  0  0  0  0  0  0  0
  140.0870   75.8980  219.5330 N   0  0  0  0  0  0  0  0  0  0  0  0
  140.3360   76.7290  221.8500 C   0  0  1  0  0  0  0  0  0  0  0  0
  141.4590   77.5050  221.1940 C   0  0  0  0  0  0  0  0  0  0  0  0
  141.4880   78.7000  222.1130 C   0  0  0  0  0  0  0  0  0  0  0  0
  142.5650   79.5090  222.4430 C   0  0  0  0  0  0  0  0  0  0  0  0
  142.3510   80.5620  223.3100 C   0  0  0  0  0  0  0  0  0  0  0  0
  141.0940   80.7990  223.8330 C   0  0  0  0  0  0  0  0  0  0  0  0
  140.0300   79.9600  223.4760 C   0  0  0  0  0  0  0  0  0  0  0  0
  138.6560   80.1910  224.0170 C   0  0  0  0  0  0  0  0  0  0  0  0
  140.2190   78.9050  222.6150 C   0  0  0  0  0  0  0  0  0  0  0  0
  139.3320   77.8330  222.0440 C   0  0  0  0  0  0  0  0  0  0  0  0
  138.5800   73.1120  222.0800 C   0  0  0  0  0  0  0  0  0  0  0  0
  138.1160   71.9050  222.8200 C   0  0  0  0  0  0  0  0  0  0  0  0
  139.1372   67.5395  223.9534 H   0  0  0  0  0  0  0  0  0  0  0  0
  138.5955   66.8225  222.3980 H   0  0  0  0  0  0  0  0  0  0  0  0
  139.6338   68.2883  222.3980 H   0  0  0  0  0  0  0  0  0  0  0  0
  137.5536   69.2830  222.0572 H   0  0  0  0  0  0  0  0  0  0  0  0
  136.6670   68.0304  222.9543 H   0  0  0  0  0  0  0  0  0  0  0  0
  138.9290   67.8244  225.6733 H   0  0  0  0  0  0  0  0  0  0  0  0
  140.2311   67.3096  227.7334 H   0  0  0  0  0  0  0  0  0  0  0  0
  141.5708   69.0695  228.8588 H   0  0  0  0  0  0  0  0  0  0  0  0
  141.6105   71.3717  227.9172 H   0  0  0  0  0  0  0  0  0  0  0  0
  140.3063   71.9257  225.8492 H   0  0  0  0  0  0  0  0  0  0  0  0
  139.6140   72.1134  224.3664 H   0  0  0  0  0  0  0  0  0  0  0  0
  141.0570   70.2768  223.1252 H   0  0  0  0  0  0  0  0  0  0  0  0
  139.8752   70.3589  221.8096 H   0  0  0  0  0  0  0  0  0  0  0  0
  141.6334   72.5493  222.9546 H   0  0  0  0  0  0  0  0  0  0  0  0
  141.4914   71.9513  221.2391 H   0  0  0  0  0  0  0  0  0  0  0  0
  138.7951   75.5605  220.9725 H   0  0  0  0  0  0  0  0  0  0  0  0
  140.9300   75.4650  219.1070 H   0  0  0  0  0  0  0  0  0  0  0  0
  139.2720   75.7830  218.9190 H   0  0  0  0  0  0  0  0  0  0  0  0
  140.5595   76.1998  222.7881 H   0  0  0  0  0  0  0  0  0  0  0  0
  142.4083   76.9495  221.2097 H   0  0  0  0  0  0  0  0  0  0  0  0
  141.3169   77.7320  220.1271 H   0  0  0  0  0  0  0  0  0  0  0  0
  143.5640   79.3167  222.0247 H   0  0  0  0  0  0  0  0  0  0  0  0
  143.1890   81.2185  223.5871 H   0  0  0  0  0  0  0  0  0  0  0  0
  140.9301   81.6392  224.5237 H   0  0  0  0  0  0  0  0  0  0  0  0
  138.6891   80.1854  225.1165 H   0  0  0  0  0  0  0  0  0  0  0  0
  138.2827   81.1645  223.6663 H   0  0  0  0  0  0  0  0  0  0  0  0
  137.9849   79.3931  223.6663 H   0  0  0  0  0  0  0  0  0  0  0  0
  138.5389   77.5427  222.7488 H   0  0  0  0  0  0  0  0  0  0  0  0
  138.7853   78.1235  221.1347 H   0  0  0  0  0  0  0  0  0  0  0  0
  138.2495   73.9956  222.6457 H   0  0  0  0  0  0  0  0  0  0  0  0
  138.1444   73.0160  221.0745 H   0  0  0  0  0  0  0  0  0  0  0  0
  137.2734   72.1777  223.4724 H   0  0  0  0  0  0  0  0  0  0  0  0
  137.7933   71.1385  222.1001 H   0  0  0  0  0  0  0  0  0  0  0  0
  1  2  1  0
  2  3  1  0
  3  4  2  0
  3  5  1  0
  5  6  1  0
  6  7  2  0
  7  8  1  0
  8  9  2  0
  9 10  1  0
 10 11  2  0
  5 12  1  0
 12 13  1  0
 13 14  1  0
 14 15  1  0
 15 16  1  0
 16 17  2  0
 16 18  1  0
 18 19  1  0
 18 20  1  0
 20 21  1  0
 21 22  1  0
 22 23  2  0
 23 24  1  0
 24 25  2  0
 25 26  1  0
 26 27  1  0
 26 28  2  0
 28 29  1  0
 15 30  1  0
 30 31  1  0
 11  6  1  0
 31 12  1  0
 29 20  1  0
 28 22  1  0
  1 32  1  0
  1 33  1  0
  1 34  1  0
  2 35  1  0
  2 36  1  0
  7 37  1  0
  8 38  1  0
  9 39  1  0
 10 40  1  0
 11 41  1  0
 12 42  1  0
 13 43  1  0
 13 44  1  0
 14 45  1  0
 14 46  1  0
 18 47  1  6
 19 48  1  0
 19 49  1  0
 20 50  1  1
 21 51  1  0
 21 52  1  0
 23 53  1  0
 24 54  1  0
 25 55  1  0
 27 56  1  0
 27 57  1  0
 27 58  1  0
 29 59  1  0
 29 60  1  0
 30 61  1  0
 30 62  1  0
 31 63  1  0
 31 64  1  0
M  END
>  <smiles>  (100) 
CCC(=O)N(c1ccccc1)C1CCN(C(=O)[C@H](N)C2Cc3cccc(C)c3C2)CC1

>  <score_type>  (100) 
oracle

>  <origin>  (100) 
autodockgpu

>  <m_score__min__energy>  (100) 
-9.3900000000000006

>  <m_primary>  (100) 
energy

>  <rmsd>  (100) 
5.998452865707971

>  <m_score__min__rmsd>  (100) 
5.998452865707971

>  <meeko>  (100) 
{"free_energy": -8.14, "intermolecular_energy": -10.23, "internal_energy": -1.82, "cluster_size": 2, "cluster_id": 5, "rank_in_cluster": 1}

>  <energy>  (100) 
-7.93

>  <cluster_rmsd>  (100) 
0.0

>  <cluster>  (100) 
6

$$$$
