
     RDKit          3D

 57 60  0  0  0  0  0  0  0  0999 V2000
  139.5600   74.3370  221.9610 O   0  0  0  0  0  0  0  0  0  0  0  0
  140.1980   73.2340  221.9640 C   0  0  0  0  0  0  0  0  0  0  0  0
  141.1160   73.0100  220.8520 N   0  0  0  0  0  0  0  0  0  0  0  0
  141.1830   74.0560  219.9010 C   0  0  0  0  0  0  0  0  0  0  0  0
  142.1140   75.1550  220.0250 C   0  0  0  0  0  0  0  0  0  0  0  0
  143.2200   74.8210  220.6570 O   0  0  0  0  0  0  0  0  0  0  0  0
  142.0870   76.4990  219.6120 N   0  0  0  0  0  0  0  0  0  0  0  0
  142.9580   77.0750  218.6030 C   0  0  0  0  0  0  0  0  0  0  0  0
  142.4350   78.4010  218.0910 C   0  0  0  0  0  0  0  0  0  0  0  0
  140.9440   78.2890  217.9480 C   0  0  0  0  0  0  0  0  0  0  0  0
  140.2880   78.0470  219.2680 C   0  0  0  0  0  0  0  0  0  0  0  0
  141.1180   77.3840  220.2870 C   0  0  2  0  0  0  0  0  0  0  0  0
  141.7780   78.2140  221.3210 C   0  0  0  0  0  0  0  0  0  0  0  0
  141.0290   77.9820  222.6420 C   0  0  0  0  0  0  0  0  0  0  0  0
  141.7770   78.6220  223.7920 C   0  0  0  0  0  0  0  0  0  0  0  0
  142.2220   80.0270  223.4580 C   0  0  0  0  0  0  0  0  0  0  0  0
  141.3800   80.4980  222.2860 C   0  0  0  0  0  0  0  0  0  0  0  0
  141.7940   79.6730  221.0800 C   0  0  0  0  0  0  0  0  0  0  0  0
  140.0480   72.2390  222.9910 C   0  0  0  0  0  0  0  0  0  0  0  0
  139.1780   71.1940  222.7600 C   0  0  0  0  0  0  0  0  0  0  0  0
  138.9830   70.2150  223.6850 C   0  0  0  0  0  0  0  0  0  0  0  0
  139.6680   70.2690  224.8750 C   0  0  0  0  0  0  0  0  0  0  0  0
  139.5250   69.3160  225.8630 C   0  0  0  0  0  0  0  0  0  0  0  0
  140.2210   69.3870  227.0520 C   0  0  0  0  0  0  0  0  0  0  0  0
  140.0430   68.1790  228.3090 Cl  0  0  0  0  0  0  0  0  0  0  0  0
  141.0910   70.4540  227.2570 C   0  0  0  0  0  0  0  0  0  0  0  0
  141.2570   71.4280  226.2860 C   0  0  0  0  0  0  0  0  0  0  0  0
  140.5280   71.3080  225.0990 C   0  0  0  0  0  0  0  0  0  0  0  0
  140.7090   72.2740  224.1670 N   0  0  0  0  0  0  0  0  0  0  0  0
  141.6100   72.1180  220.9080 H   0  0  0  0  0  0  0  0  0  0  0  0
  141.4005   73.5778  218.9345 H   0  0  0  0  0  0  0  0  0  0  0  0
  140.2161   74.5594  220.0481 H   0  0  0  0  0  0  0  0  0  0  0  0
  143.9544   77.2319  219.0418 H   0  0  0  0  0  0  0  0  0  0  0  0
  143.0022   76.3769  217.7541 H   0  0  0  0  0  0  0  0  0  0  0  0
  142.6823   79.2004  218.8050 H   0  0  0  0  0  0  0  0  0  0  0  0
  142.8943   78.6438  217.1214 H   0  0  0  0  0  0  0  0  0  0  0  0
  140.5539   79.2244  217.5203 H   0  0  0  0  0  0  0  0  0  0  0  0
  140.7218   77.4368  217.2889 H   0  0  0  0  0  0  0  0  0  0  0  0
  139.9731   79.0207  219.6713 H   0  0  0  0  0  0  0  0  0  0  0  0
  139.4572   77.3552  219.0649 H   0  0  0  0  0  0  0  0  0  0  0  0
  140.3905   76.8285  220.8971 H   0  0  0  0  0  0  0  0  0  0  0  0
  142.8321   77.8995  221.3223 H   0  0  0  0  0  0  0  0  0  0  0  0
  140.0245   78.4248  222.5718 H   0  0  0  0  0  0  0  0  0  0  0  0
  140.9531   76.8998  222.8239 H   0  0  0  0  0  0  0  0  0  0  0  0
  141.1166   78.6570  224.6710 H   0  0  0  0  0  0  0  0  0  0  0  0
  142.6736   78.0182  223.9956 H   0  0  0  0  0  0  0  0  0  0  0  0
  142.0660   80.6875  224.3236 H   0  0  0  0  0  0  0  0  0  0  0  0
  143.2919   80.0475  223.2033 H   0  0  0  0  0  0  0  0  0  0  0  0
  140.3126   80.3424  222.5014 H   0  0  0  0  0  0  0  0  0  0  0  0
  141.5343   81.5709  222.0986 H   0  0  0  0  0  0  0  0  0  0  0  0
  141.1029   79.8956  220.2537 H   0  0  0  0  0  0  0  0  0  0  0  0
  142.8330   79.9476  220.8454 H   0  0  0  0  0  0  0  0  0  0  0  0
  138.6298   71.1509  221.8073 H   0  0  0  0  0  0  0  0  0  0  0  0
  138.2847   69.3896  223.4823 H   0  0  0  0  0  0  0  0  0  0  0  0
  138.8356   68.4749  225.6975 H   0  0  0  0  0  0  0  0  0  0  0  0
  141.6527   70.5246  228.2001 H   0  0  0  0  0  0  0  0  0  0  0  0
  141.9436   72.2727  226.4445 H   0  0  0  0  0  0  0  0  0  0  0  0
  1  2  2  0
  2  3  1  0
  3  4  1  0
  4  5  1  0
  5  6  2  0
  5  7  1  0
  7  8  1  0
  8  9  1  0
  9 10  1  0
 10 11  1  0
 11 12  1  0
 12 13  1  0
 13 14  1  0
 14 15  1  0
 15 16  1  0
 16 17  1  0
 17 18  1  0
  2 19  1  0
 19 20  2  0
 20 21  1  0
 21 22  2  0
 22 23  1  0
 23 24  2  0
 24 25  1  0
 24 26  1  0
 26 27  2  0
 27 28  1  0
 28 29  2  0
 12  7  1  0
 18 13  1  0
 29 19  1  0
 28 22  1  0
  3 30  1  0
  4 31  1  0
  4 32  1  0
  8 33  1  0
  8 34  1  0
  9 35  1  0
  9 36  1  0
 10 37  1  0
 10 38  1  0
 11 39  1  0
 11 40  1  0
 12 41  1  1
 13 42  1  0
 14 43  1  0
 14 44  1  0
 15 45  1  0
 15 46  1  0
 16 47  1  0
 16 48  1  0
 17 49  1  0
 17 50  1  0
 18 51  1  0
 18 52  1  0
 20 53  1  0
 21 54  1  0
 23 55  1  0
 26 56  1  0
 27 57  1  0
M  END
>  <smiles>  (1) 
O=C(NCC(=O)N1CCCCC1C1CCCCC1)c1ccc2cc(Cl)ccc2n1

>  <score_type>  (1) 
oracle

>  <origin>  (1) 
autodockgpu

>  <m_score__min__energy>  (1) 
-9.3699999999999992

>  <m_primary>  (1) 
energy

>  <rmsd>  (1) 
2.663565511220241

>  <m_score__min__rmsd>  (1) 
2.663565511220241

>  <meeko>  (1) 
{"free_energy": -8.32, "intermolecular_energy": -9.81, "internal_energy": -1.53, "cluster_size": 38, "cluster_id": 1, "rank_in_cluster": 29}

>  <energy>  (1) 
-9.37

>  <cluster_rmsd>  (1) 
0.0

>  <cluster>  (1) 
1

$$$$

     RDKit          3D

 57 60  0  0  0  0  0  0  0  0999 V2000
  140.9420   72.6150  220.8500 O   0  0  0  0  0  0  0  0  0  0  0  0
  140.2590   72.8290  221.9030 C   0  0  0  0  0  0  0  0  0  0  0  0
  139.4990   74.0750  221.9450 N   0  0  0  0  0  0  0  0  0  0  0  0
  139.6190   74.8960  220.7980 C   0  0  0  0  0  0  0  0  0  0  0  0
  139.8810   76.3150  220.8880 C   0  0  0  0  0  0  0  0  0  0  0  0
  139.0470   76.9400  221.6940 O   0  0  0  0  0  0  0  0  0  0  0  0
  140.8350   77.1640  220.2990 N   0  0  0  0  0  0  0  0  0  0  0  0
  141.9810   76.7160  219.5280 C   0  0  0  0  0  0  0  0  0  0  0  0
  142.5800   77.8330  218.6990 C   0  0  0  0  0  0  0  0  0  0  0  0
  141.4520   78.6460  218.1310 C   0  0  0  0  0  0  0  0  0  0  0  0
  140.6500   79.2940  219.2120 C   0  0  0  0  0  0  0  0  0  0  0  0
  140.6630   78.6120  220.5170 C   0  0  2  0  0  0  0  0  0  0  0  0
  141.5750   79.1090  221.5730 C   0  0  0  0  0  0  0  0  0  0  0  0
  140.8680   78.9100  222.9230 C   0  0  0  0  0  0  0  0  0  0  0  0
  141.8220   79.1880  224.0640 C   0  0  0  0  0  0  0  0  0  0  0  0
  142.6010   80.4650  223.8450 C   0  0  0  0  0  0  0  0  0  0  0  0
  141.8470   81.2790  222.8090 C   0  0  0  0  0  0  0  0  0  0  0  0
  141.9600   80.5350  221.4900 C   0  0  0  0  0  0  0  0  0  0  0  0
  140.2130   71.9160  223.0120 C   0  0  0  0  0  0  0  0  0  0  0  0
  139.6500   70.6730  222.8080 C   0  0  0  0  0  0  0  0  0  0  0  0
  139.5710   69.7560  223.8110 C   0  0  0  0  0  0  0  0  0  0  0  0
  140.0620   70.0770  225.0540 C   0  0  0  0  0  0  0  0  0  0  0  0
  140.0190   69.2020  226.1220 C   0  0  0  0  0  0  0  0  0  0  0  0
  140.5170   69.5410  227.3620 C   0  0  0  0  0  0  0  0  0  0  0  0
  140.4640   68.4340  228.7200 Cl  0  0  0  0  0  0  0  0  0  0  0  0
  141.0780   70.8020  227.5390 C   0  0  0  0  0  0  0  0  0  0  0  0
  141.1370   71.7030  226.4870 C   0  0  0  0  0  0  0  0  0  0  0  0
  140.6180   71.3090  225.2510 C   0  0  0  0  0  0  0  0  0  0  0  0
  140.6880   72.2100  224.2410 N   0  0  0  0  0  0  0  0  0  0  0  0
  138.9600   74.1930  222.8030 H   0  0  0  0  0  0  0  0  0  0  0  0
  140.4387   74.4702  220.2007 H   0  0  0  0  0  0  0  0  0  0  0  0
  138.5948   74.8784  220.3971 H   0  0  0  0  0  0  0  0  0  0  0  0
  142.7478   76.3368  220.2196 H   0  0  0  0  0  0  0  0  0  0  0  0
  141.6402   75.9281  218.8402 H   0  0  0  0  0  0  0  0  0  0  0  0
  143.2159   78.4685  219.3329 H   0  0  0  0  0  0  0  0  0  0  0  0
  143.1978   77.4184  217.8888 H   0  0  0  0  0  0  0  0  0  0  0  0
  141.8673   79.4265  217.4765 H   0  0  0  0  0  0  0  0  0  0  0  0
  140.7909   77.9734  217.5648 H   0  0  0  0  0  0  0  0  0  0  0  0
  141.0418   80.3113  219.3591 H   0  0  0  0  0  0  0  0  0  0  0  0
  139.6054   79.2617  218.8688 H   0  0  0  0  0  0  0  0  0  0  0  0
  139.6835   78.8603  220.9517 H   0  0  0  0  0  0  0  0  0  0  0  0
  142.5073   78.5387  221.4480 H   0  0  0  0  0  0  0  0  0  0  0  0
  140.0130   79.5989  222.9894 H   0  0  0  0  0  0  0  0  0  0  0  0
  140.5207   77.8687  222.9939 H   0  0  0  0  0  0  0  0  0  0  0  0
  141.2455   79.2779  224.9965 H   0  0  0  0  0  0  0  0  0  0  0  0
  142.5387   78.3555  224.1214 H   0  0  0  0  0  0  0  0  0  0  0  0
  142.6736   81.0284  224.7870 H   0  0  0  0  0  0  0  0  0  0  0  0
  143.6224   80.2451  223.5009 H   0  0  0  0  0  0  0  0  0  0  0  0
  140.7903   81.3741  223.0995 H   0  0  0  0  0  0  0  0  0  0  0  0
  142.2670   82.2922  222.7249 H   0  0  0  0  0  0  0  0  0  0  0  0
  141.3056   81.0286  220.7564 H   0  0  0  0  0  0  0  0  0  0  0  0
  143.0196   80.5638  221.1961 H   0  0  0  0  0  0  0  0  0  0  0  0
  139.2564   70.4174  221.8131 H   0  0  0  0  0  0  0  0  0  0  0  0
  139.1195   68.7696  223.6288 H   0  0  0  0  0  0  0  0  0  0  0  0
  139.5746   68.2060  225.9789 H   0  0  0  0  0  0  0  0  0  0  0  0
  141.4786   71.0867  228.5231 H   0  0  0  0  0  0  0  0  0  0  0  0
  141.5802   72.7007  226.6217 H   0  0  0  0  0  0  0  0  0  0  0  0
  1  2  2  0
  2  3  1  0
  3  4  1  0
  4  5  1  0
  5  6  2  0
  5  7  1  0
  7  8  1  0
  8  9  1  0
  9 10  1  0
 10 11  1  0
 11 12  1  0
 12 13  1  0
 13 14  1  0
 14 15  1  0
 15 16  1  0
 16 17  1  0
 17 18  1  0
  2 19  1  0
 19 20  2  0
 20 21  1  0
 21 22  2  0
 22 23  1  0
 23 24  2  0
 24 25  1  0
 24 26  1  0
 26 27  2  0
 27 28  1  0
 28 29  2  0
 12  7  1  0
 18 13  1  0
 29 19  1  0
 28 22  1  0
  3 30  1  0
  4 31  1  0
  4 32  1  0
  8 33  1  0
  8 34  1  0
  9 35  1  0
  9 36  1  0
 10 37  1  0
 10 38  1  0
 11 39  1  0
 11 40  1  0
 12 41  1  1
 13 42  1  0
 14 43  1  0
 14 44  1  0
 15 45  1  0
 15 46  1  0
 16 47  1  0
 16 48  1  0
 17 49  1  0
 17 50  1  0
 18 51  1  0
 18 52  1  0
 20 53  1  0
 21 54  1  0
 23 55  1  0
 26 56  1  0
 27 57  1  0
M  END
>  <smiles>  (2) 
O=C(NCC(=O)N1CCCCC1C1CCCCC1)c1ccc2cc(Cl)ccc2n1

>  <score_type>  (2) 
oracle

>  <origin>  (2) 
autodockgpu

>  <m_score__min__energy>  (2) 
-9.3699999999999992

>  <m_primary>  (2) 
energy

>  <rmsd>  (2) 
2.2909724205886413

>  <m_score__min__rmsd>  (2) 
2.2909724205886413

>  <meeko>  (2) 
{"free_energy": -9.14, "intermolecular_energy": -10.63, "internal_energy": -1.4, "cluster_size": 38, "cluster_id": 1, "rank_in_cluster": 13}

>  <energy>  (2) 
-9.35

>  <cluster_rmsd>  (2) 
0.4

>  <cluster>  (2) 
1

$$$$

     RDKit          3D

 57 60  0  0  0  0  0  0  0  0999 V2000
  136.5520   77.5430  222.8590 O   0  0  0  0  0  0  0  0  0  0  0  0
  136.5240   76.3250  223.2300 C   0  0  0  0  0  0  0  0  0  0  0  0
  137.5890   75.4660  222.7230 N   0  0  0  0  0  0  0  0  0  0  0  0
  138.5280   76.1000  221.8750 C   0  0  0  0  0  0  0  0  0  0  0  0
  139.8410   75.5510  221.6280 C   0  0  0  0  0  0  0  0  0  0  0  0
  139.9850   74.3310  222.1050 O   0  0  0  0  0  0  0  0  0  0  0  0
  140.9930   76.0420  220.9870 N   0  0  0  0  0  0  0  0  0  0  0  0
  142.1960   75.2680  220.7350 C   0  0  0  0  0  0  0  0  0  0  0  0
  143.0820   75.9190  219.6930 C   0  0  0  0  0  0  0  0  0  0  0  0
  142.1990   76.4740  218.6120 C   0  0  0  0  0  0  0  0  0  0  0  0
  141.2980   77.5420  219.1410 C   0  0  0  0  0  0  0  0  0  0  0  0
  140.9740   77.4570  220.5750 C   0  0  2  0  0  0  0  0  0  0  0  0
  141.7260   78.3050  221.5280 C   0  0  0  0  0  0  0  0  0  0  0  0
  140.9950   78.2380  222.8780 C   0  0  0  0  0  0  0  0  0  0  0  0
  141.8230   78.8990  223.9600 C   0  0  0  0  0  0  0  0  0  0  0  0
  142.3730   80.2320  223.5080 C   0  0  0  0  0  0  0  0  0  0  0  0
  141.5420   80.6820  222.3200 C   0  0  0  0  0  0  0  0  0  0  0  0
  141.8560   79.7350  221.1740 C   0  0  0  0  0  0  0  0  0  0  0  0
  135.5130   75.7880  224.1000 C   0  0  0  0  0  0  0  0  0  0  0  0
  134.6190   76.6660  224.6760 C   0  0  0  0  0  0  0  0  0  0  0  0
  133.6350   76.2320  225.5110 C   0  0  0  0  0  0  0  0  0  0  0  0
  133.5310   74.8890  225.7850 C   0  0  0  0  0  0  0  0  0  0  0  0
  132.5620   74.3710  226.6210 C   0  0  0  0  0  0  0  0  0  0  0  0
  132.4730   73.0210  226.8850 C   0  0  0  0  0  0  0  0  0  0  0  0
  131.2450   72.3580  227.9440 Cl  0  0  0  0  0  0  0  0  0  0  0  0
  133.3890   72.1590  226.2890 C   0  0  0  0  0  0  0  0  0  0  0  0
  134.3740   72.6470  225.4450 C   0  0  0  0  0  0  0  0  0  0  0  0
  134.4200   74.0240  225.2120 C   0  0  0  0  0  0  0  0  0  0  0  0
  135.3930   74.4740  224.3830 N   0  0  0  0  0  0  0  0  0  0  0  0
  137.5280   74.5030  223.0580 H   0  0  0  0  0  0  0  0  0  0  0  0
  138.0426   76.1870  220.8917 H   0  0  0  0  0  0  0  0  0  0  0  0
  138.7663   77.0120  222.4420 H   0  0  0  0  0  0  0  0  0  0  0  0
  142.7615   75.1749  221.6739 H   0  0  0  0  0  0  0  0  0  0  0  0
  141.8919   74.2819  220.3541 H   0  0  0  0  0  0  0  0  0  0  0  0
  143.6639   76.7312  220.1530 H   0  0  0  0  0  0  0  0  0  0  0  0
  143.7819   75.1817  219.2729 H   0  0  0  0  0  0  0  0  0  0  0  0
  142.8297   76.8987  217.8171 H   0  0  0  0  0  0  0  0  0  0  0  0
  141.5755   75.6570  218.2198 H   0  0  0  0  0  0  0  0  0  0  0  0
  141.7841   78.5124  218.9621 H   0  0  0  0  0  0  0  0  0  0  0  0
  140.3423   77.4150  218.6115 H   0  0  0  0  0  0  0  0  0  0  0  0
  139.9710   77.9034  220.6436 H   0  0  0  0  0  0  0  0  0  0  0  0
  142.7503   77.9039  221.5330 H   0  0  0  0  0  0  0  0  0  0  0  0
  140.0288   78.7569  222.7931 H   0  0  0  0  0  0  0  0  0  0  0  0
  140.8353   77.1830  223.1453 H   0  0  0  0  0  0  0  0  0  0  0  0
  141.1908   79.0564  224.8464 H   0  0  0  0  0  0  0  0  0  0  0  0
  142.6719   78.2393  224.1929 H   0  0  0  0  0  0  0  0  0  0  0  0
  142.2951   80.9673  224.3224 H   0  0  0  0  0  0  0  0  0  0  0  0
  143.4337   80.1425  223.2306 H   0  0  0  0  0  0  0  0  0  0  0  0
  140.4714   80.6333  222.5678 H   0  0  0  0  0  0  0  0  0  0  0  0
  141.7783   81.7210  222.0467 H   0  0  0  0  0  0  0  0  0  0  0  0
  141.1648   79.9514  220.3461 H   0  0  0  0  0  0  0  0  0  0  0  0
  142.9079   79.9025  220.8994 H   0  0  0  0  0  0  0  0  0  0  0  0
  134.7027   77.7405  224.4560 H   0  0  0  0  0  0  0  0  0  0  0  0
  132.9314   76.9478  225.9611 H   0  0  0  0  0  0  0  0  0  0  0  0
  131.8399   75.0555  227.0901 H   0  0  0  0  0  0  0  0  0  0  0  0
  133.3305   71.0791  226.4900 H   0  0  0  0  0  0  0  0  0  0  0  0
  135.0995   71.9691  224.9716 H   0  0  0  0  0  0  0  0  0  0  0  0
  1  2  2  0
  2  3  1  0
  3  4  1  0
  4  5  1  0
  5  6  2  0
  5  7  1  0
  7  8  1  0
  8  9  1  0
  9 10  1  0
 10 11  1  0
 11 12  1  0
 12 13  1  0
 13 14  1  0
 14 15  1  0
 15 16  1  0
 16 17  1  0
 17 18  1  0
  2 19  1  0
 19 20  2  0
 20 21  1  0
 21 22  2  0
 22 23  1  0
 23 24  2  0
 24 25  1  0
 24 26  1  0
 26 27  2  0
 27 28  1  0
 28 29  2  0
 12  7  1  0
 18 13  1  0
 29 19  1  0
 28 22  1  0
  3 30  1  0
  4 31  1  0
  4 32  1  0
  8 33  1  0
  8 34  1  0
  9 35  1  0
  9 36  1  0
 10 37  1  0
 10 38  1  0
 11 39  1  0
 11 40  1  0
 12 41  1  6
 13 42  1  0
 14 43  1  0
 14 44  1  0
 15 45  1  0
 15 46  1  0
 16 47  1  0
 16 48  1  0
 17 49  1  0
 17 50  1  0
 18 51  1  0
 18 52  1  0
 20 53  1  0
 21 54  1  0
 23 55  1  0
 26 56  1  0
 27 57  1  0
M  END
>  <smiles>  (3) 
O=C(NCC(=O)N1CCCCC1C1CCCCC1)c1ccc2cc(Cl)ccc2n1

>  <score_type>  (3) 
oracle

>  <origin>  (3) 
autodockgpu

>  <m_score__min__energy>  (3) 
-9.3699999999999992

>  <m_primary>  (3) 
energy

>  <rmsd>  (3) 
5.978161863693241

>  <m_score__min__rmsd>  (3) 
5.978161863693241

>  <meeko>  (3) 
{"free_energy": -8.08, "intermolecular_energy": -9.57, "internal_energy": -1.79, "cluster_size": 4, "cluster_id": 4, "rank_in_cluster": 2}

>  <energy>  (3) 
-9.33

>  <cluster_rmsd>  (3) 
0.39

>  <cluster>  (3) 
1

$$$$

     RDKit          3D

 57 60  0  0  0  0  0  0  0  0999 V2000
  138.7170   72.8140  221.3570 O   0  0  0  0  0  0  0  0  0  0  0  0
  139.7600   72.6700  222.0730 C   0  0  0  0  0  0  0  0  0  0  0  0
  140.9000   73.5180  221.7380 N   0  0  0  0  0  0  0  0  0  0  0  0
  140.7010   74.4000  220.6500 C   0  0  0  0  0  0  0  0  0  0  0  0
  140.5770   75.8290  220.8260 C   0  0  0  0  0  0  0  0  0  0  0  0
  139.6600   76.1590  221.7120 O   0  0  0  0  0  0  0  0  0  0  0  0
  141.2300   76.9360  220.2540 N   0  0  0  0  0  0  0  0  0  0  0  0
  142.3610   76.8550  219.3480 C   0  0  0  0  0  0  0  0  0  0  0  0
  142.5790   78.1520  218.5950 C   0  0  0  0  0  0  0  0  0  0  0  0
  141.2340   78.6990  218.2110 C   0  0  0  0  0  0  0  0  0  0  0  0
  140.4190   79.0330  219.4180 C   0  0  0  0  0  0  0  0  0  0  0  0
  140.7360   78.2720  220.6380 C   0  0  2  0  0  0  0  0  0  0  0  0
  141.6080   78.8930  221.6610 C   0  0  0  0  0  0  0  0  0  0  0  0
  140.8940   78.7590  223.0160 C   0  0  0  0  0  0  0  0  0  0  0  0
  141.8180   79.1710  224.1420 C   0  0  0  0  0  0  0  0  0  0  0  0
  142.5330   80.4670  223.8340 C   0  0  0  0  0  0  0  0  0  0  0  0
  141.7510   81.1600  222.7330 C   0  0  0  0  0  0  0  0  0  0  0  0
  141.9190   80.3270  221.4750 C   0  0  0  0  0  0  0  0  0  0  0  0
  139.8480   71.7350  223.1610 C   0  0  0  0  0  0  0  0  0  0  0  0
  139.3610   70.4600  222.9620 C   0  0  0  0  0  0  0  0  0  0  0  0
  139.4090   69.5200  223.9450 C   0  0  0  0  0  0  0  0  0  0  0  0
  139.9560   69.8490  225.1630 C   0  0  0  0  0  0  0  0  0  0  0  0
  140.0400   68.9530  226.2100 C   0  0  0  0  0  0  0  0  0  0  0  0
  140.5920   69.3010  227.4250 C   0  0  0  0  0  0  0  0  0  0  0  0
  140.7020   68.1670  228.7560 Cl  0  0  0  0  0  0  0  0  0  0  0  0
  141.0740   70.5950  227.5970 C   0  0  0  0  0  0  0  0  0  0  0  0
  141.0040   71.5190  226.5660 C   0  0  0  0  0  0  0  0  0  0  0  0
  140.4350   71.1140  225.3550 C   0  0  0  0  0  0  0  0  0  0  0  0
  140.3790   72.0370  224.3650 N   0  0  0  0  0  0  0  0  0  0  0  0
  141.7060   73.3720  222.3480 H   0  0  0  0  0  0  0  0  0  0  0  0
  141.5540   74.2478  219.9724 H   0  0  0  0  0  0  0  0  0  0  0  0
  139.6902   74.1237  220.3154 H   0  0  0  0  0  0  0  0  0  0  0  0
  143.2661   76.6254  219.9295 H   0  0  0  0  0  0  0  0  0  0  0  0
  142.1505   76.0656  218.6114 H   0  0  0  0  0  0  0  0  0  0  0  0
  143.1051   78.8728  219.2381 H   0  0  0  0  0  0  0  0  0  0  0  0
  143.1890   77.9740  217.6971 H   0  0  0  0  0  0  0  0  0  0  0  0
  141.3757   79.6100  217.6110 H   0  0  0  0  0  0  0  0  0  0  0  0
  140.6992   77.9313  217.6325 H   0  0  0  0  0  0  0  0  0  0  0  0
  140.5656   80.1006  219.6389 H   0  0  0  0  0  0  0  0  0  0  0  0
  139.3832   78.7663  219.1612 H   0  0  0  0  0  0  0  0  0  0  0  0
  139.7776   78.2306  221.1764 H   0  0  0  0  0  0  0  0  0  0  0  0
  142.5700   78.3647  221.5872 H   0  0  0  0  0  0  0  0  0  0  0  0
  140.0041   79.4056  223.0223 H   0  0  0  0  0  0  0  0  0  0  0  0
  140.5994   77.7093  223.1620 H   0  0  0  0  0  0  0  0  0  0  0  0
  141.2256   79.3003  225.0598 H   0  0  0  0  0  0  0  0  0  0  0  0
  142.5756   78.3836  224.2689 H   0  0  0  0  0  0  0  0  0  0  0  0
  142.5646   81.1025  224.7313 H   0  0  0  0  0  0  0  0  0  0  0  0
  143.5687   80.2758  223.5166 H   0  0  0  0  0  0  0  0  0  0  0  0
  140.6872   81.2206  223.0063 H   0  0  0  0  0  0  0  0  0  0  0  0
  142.1190   82.1847  222.5764 H   0  0  0  0  0  0  0  0  0  0  0  0
  141.2490   80.7293  220.7009 H   0  0  0  0  0  0  0  0  0  0  0  0
  142.9794   80.3898  221.1892 H   0  0  0  0  0  0  0  0  0  0  0  0
  138.9242   70.1971  221.9873 H   0  0  0  0  0  0  0  0  0  0  0  0
  139.0147   68.5086  223.7672 H   0  0  0  0  0  0  0  0  0  0  0  0
  139.6554   67.9318  226.0711 H   0  0  0  0  0  0  0  0  0  0  0  0
  141.5152   70.8878  228.5612 H   0  0  0  0  0  0  0  0  0  0  0  0
  141.3855   72.5423  226.6971 H   0  0  0  0  0  0  0  0  0  0  0  0
  1  2  2  0
  2  3  1  0
  3  4  1  0
  4  5  1  0
  5  6  2  0
  5  7  1  0
  7  8  1  0
  8  9  1  0
  9 10  1  0
 10 11  1  0
 11 12  1  0
 12 13  1  0
 13 14  1  0
 14 15  1  0
 15 16  1  0
 16 17  1  0
 17 18  1  0
  2 19  1  0
 19 20  2  0
 20 21  1  0
 21 22  2  0
 22 23  1  0
 23 24  2  0
 24 25  1  0
 24 26  1  0
 26 27  2  0
 27 28  1  0
 28 29  2  0
 12  7  1  0
 18 13  1  0
 29 19  1  0
 28 22  1  0
  3 30  1  0
  4 31  1  0
  4 32  1  0
  8 33  1  0
  8 34  1  0
  9 35  1  0
  9 36  1  0
 10 37  1  0
 10 38  1  0
 11 39  1  0
 11 40  1  0
 12 41  1  1
 13 42  1  0
 14 43  1  0
 14 44  1  0
 15 45  1  0
 15 46  1  0
 16 47  1  0
 16 48  1  0
 17 49  1  0
 17 50  1  0
 18 51  1  0
 18 52  1  0
 20 53  1  0
 21 54  1  0
 23 55  1  0
 26 56  1  0
 27 57  1  0
M  END
>  <smiles>  (4) 
O=C(NCC(=O)N1CCCCC1C1CCCCC1)c1ccc2cc(Cl)ccc2n1

>  <score_type>  (4) 
oracle

>  <origin>  (4) 
autodockgpu

>  <m_score__min__energy>  (4) 
-9.3699999999999992

>  <m_primary>  (4) 
energy

>  <rmsd>  (4) 
2.371513845499766

>  <m_score__min__rmsd>  (4) 
2.371513845499766

>  <meeko>  (4) 
{"free_energy": -8.63, "intermolecular_energy": -10.13, "internal_energy": -1.43, "cluster_size": 38, "cluster_id": 1, "rank_in_cluster": 23}

>  <energy>  (4) 
-9.33

>  <cluster_rmsd>  (4) 
0.42

>  <cluster>  (4) 
1

$$$$

     RDKit          3D

 57 60  0  0  0  0  0  0  0  0999 V2000
  141.8610   73.5130  221.1720 O   0  0  0  0  0  0  0  0  0  0  0  0
  140.9090   74.3510  221.2860 C   0  0  0  0  0  0  0  0  0  0  0  0
  139.5710   73.7950  221.4670 N   0  0  0  0  0  0  0  0  0  0  0  0
  139.5010   72.3820  221.4940 C   0  0  0  0  0  0  0  0  0  0  0  0
  139.7930   71.6160  222.6850 C   0  0  0  0  0  0  0  0  0  0  0  0
  141.0750   71.6100  222.9880 O   0  0  0  0  0  0  0  0  0  0  0  0
  139.0000   70.8820  223.5850 N   0  0  0  0  0  0  0  0  0  0  0  0
  137.5550   70.9810  223.6880 C   0  0  0  0  0  0  0  0  0  0  0  0
  136.9570   69.8060  224.4340 C   0  0  0  0  0  0  0  0  0  0  0  0
  137.6850   68.5640  224.0040 C   0  0  0  0  0  0  0  0  0  0  0  0
  139.1290   68.6230  224.3800 C   0  0  0  0  0  0  0  0  0  0  0  0
  139.7060   69.9720  224.5060 C   0  0  2  0  0  0  0  0  0  0  0  0
  139.8370   70.5690  225.8550 C   0  0  0  0  0  0  0  0  0  0  0  0
  141.1300   71.3990  225.8660 C   0  0  0  0  0  0  0  0  0  0  0  0
  141.2210   72.2170  227.1360 C   0  0  0  0  0  0  0  0  0  0  0  0
  140.8870   71.3930  228.3590 C   0  0  0  0  0  0  0  0  0  0  0  0
  141.0340   69.9340  227.9700 C   0  0  0  0  0  0  0  0  0  0  0  0
  139.9180   69.6210  226.9870 C   0  0  0  0  0  0  0  0  0  0  0  0
  141.1010   75.7740  221.2420 C   0  0  0  0  0  0  0  0  0  0  0  0
  141.8410   76.2990  220.2020 C   0  0  0  0  0  0  0  0  0  0  0  0
  142.0660   77.6360  220.0950 C   0  0  0  0  0  0  0  0  0  0  0  0
  141.5440   78.4840  221.0430 C   0  0  0  0  0  0  0  0  0  0  0  0
  141.7280   79.8510  221.0040 C   0  0  0  0  0  0  0  0  0  0  0  0
  141.1970   80.6860  221.9640 C   0  0  0  0  0  0  0  0  0  0  0  0
  141.4280   82.4230  221.9190 Cl  0  0  0  0  0  0  0  0  0  0  0  0
  140.4560   80.1290  223.0020 C   0  0  0  0  0  0  0  0  0  0  0  0
  140.2520   78.7600  223.0700 C   0  0  0  0  0  0  0  0  0  0  0  0
  140.8130   77.9590  222.0710 C   0  0  0  0  0  0  0  0  0  0  0  0
  140.5990   76.6250  222.1620 N   0  0  0  0  0  0  0  0  0  0  0  0
  138.8460   74.5070  221.5640 H   0  0  0  0  0  0  0  0  0  0  0  0
  138.4719   72.1208  221.2064 H   0  0  0  0  0  0  0  0  0  0  0  0
  140.3338   72.1005  220.8328 H   0  0  0  0  0  0  0  0  0  0  0  0
  137.2998   71.9079  224.2225 H   0  0  0  0  0  0  0  0  0  0  0  0
  137.1412   70.9823  222.6688 H   0  0  0  0  0  0  0  0  0  0  0  0
  137.0761   69.9522  225.5177 H   0  0  0  0  0  0  0  0  0  0  0  0
  135.8838   69.7170  224.2096 H   0  0  0  0  0  0  0  0  0  0  0  0
  137.2236   67.6919  224.4903 H   0  0  0  0  0  0  0  0  0  0  0  0
  137.6147   68.4821  222.9093 H   0  0  0  0  0  0  0  0  0  0  0  0
  139.2462   68.1145  225.3483 H   0  0  0  0  0  0  0  0  0  0  0  0
  139.6720   68.1430  223.5525 H   0  0  0  0  0  0  0  0  0  0  0  0
  140.7627   69.8313  224.2347 H   0  0  0  0  0  0  0  0  0  0  0  0
  138.9134   71.1452  226.0130 H   0  0  0  0  0  0  0  0  0  0  0  0
  141.9955   70.7225  225.8078 H   0  0  0  0  0  0  0  0  0  0  0  0
  141.1240   72.0803  225.0024 H   0  0  0  0  0  0  0  0  0  0  0  0
  142.2452   72.6053  227.2370 H   0  0  0  0  0  0  0  0  0  0  0  0
  140.4923   73.0381  227.0671 H   0  0  0  0  0  0  0  0  0  0  0  0
  141.5796   71.6364  229.1782 H   0  0  0  0  0  0  0  0  0  0  0  0
  139.8644   71.6040  228.7050 H   0  0  0  0  0  0  0  0  0  0  0  0
  142.0125   69.7662  227.4964 H   0  0  0  0  0  0  0  0  0  0  0  0
  140.9711   69.2838  228.8550 H   0  0  0  0  0  0  0  0  0  0  0  0
  140.0847   68.6116  226.5829 H   0  0  0  0  0  0  0  0  0  0  0  0
  138.9710   69.7015  227.5409 H   0  0  0  0  0  0  0  0  0  0  0  0
  142.2581   75.6210  219.4428 H   0  0  0  0  0  0  0  0  0  0  0  0
  142.6593   78.0347  219.2589 H   0  0  0  0  0  0  0  0  0  0  0  0
  142.3156   80.2873  220.1828 H   0  0  0  0  0  0  0  0  0  0  0  0
  140.0278   80.7822  223.7765 H   0  0  0  0  0  0  0  0  0  0  0  0
  139.6649   78.3159  223.8874 H   0  0  0  0  0  0  0  0  0  0  0  0
  1  2  2  0
  2  3  1  0
  3  4  1  0
  4  5  1  0
  5  6  2  0
  5  7  1  0
  7  8  1  0
  8  9  1  0
  9 10  1  0
 10 11  1  0
 11 12  1  0
 12 13  1  0
 13 14  1  0
 14 15  1  0
 15 16  1  0
 16 17  1  0
 17 18  1  0
  2 19  1  0
 19 20  2  0
 20 21  1  0
 21 22  2  0
 22 23  1  0
 23 24  2  0
 24 25  1  0
 24 26  1  0
 26 27  2  0
 27 28  1  0
 28 29  2  0
 12  7  1  0
 18 13  1  0
 29 19  1  0
 28 22  1  0
  3 30  1  0
  4 31  1  0
  4 32  1  0
  8 33  1  0
  8 34  1  0
  9 35  1  0
  9 36  1  0
 10 37  1  0
 10 38  1  0
 11 39  1  0
 11 40  1  0
 12 41  1  6
 13 42  1  0
 14 43  1  0
 14 44  1  0
 15 45  1  0
 15 46  1  0
 16 47  1  0
 16 48  1  0
 17 49  1  0
 17 50  1  0
 18 51  1  0
 18 52  1  0
 20 53  1  0
 21 54  1  0
 23 55  1  0
 26 56  1  0
 27 57  1  0
M  END
>  <smiles>  (5) 
O=C(NCC(=O)N1CCCCC1C1CCCCC1)c1ccc2cc(Cl)ccc2n1

>  <score_type>  (5) 
oracle

>  <origin>  (5) 
autodockgpu

>  <m_score__min__energy>  (5) 
-9.3699999999999992

>  <m_primary>  (5) 
energy

>  <rmsd>  (5) 
8.49744129160104

>  <m_score__min__rmsd>  (5) 
8.49744129160104

>  <meeko>  (5) 
{"free_energy": -8.48, "intermolecular_energy": -9.97, "internal_energy": -1.42, "cluster_size": 3, "cluster_id": 2, "rank_in_cluster": 2}

>  <energy>  (5) 
-9.31

>  <cluster_rmsd>  (5) 
0.48

>  <cluster>  (5) 
1

$$$$

     RDKit          3D

 57 60  0  0  0  0  0  0  0  0999 V2000
  141.3290   72.7240  221.5040 O   0  0  0  0  0  0  0  0  0  0  0  0
  140.3610   72.6940  222.3300 C   0  0  0  0  0  0  0  0  0  0  0  0
  139.3020   73.6780  222.1280 N   0  0  0  0  0  0  0  0  0  0  0  0
  139.4860   74.5490  221.0280 C   0  0  0  0  0  0  0  0  0  0  0  0
  139.9460   75.9100  221.1890 C   0  0  0  0  0  0  0  0  0  0  0  0
  139.2490   76.5850  222.0800 O   0  0  0  0  0  0  0  0  0  0  0  0
  140.9780   76.6620  220.5970 N   0  0  0  0  0  0  0  0  0  0  0  0
  142.1640   76.0980  219.9780 C   0  0  0  0  0  0  0  0  0  0  0  0
  142.8720   77.1000  219.0890 C   0  0  0  0  0  0  0  0  0  0  0  0
  141.8260   77.8810  218.3450 C   0  0  0  0  0  0  0  0  0  0  0  0
  140.9660   78.6650  219.2800 C   0  0  0  0  0  0  0  0  0  0  0  0
  140.8460   78.1290  220.6460 C   0  0  2  0  0  0  0  0  0  0  0  0
  141.6880   78.7100  221.7170 C   0  0  0  0  0  0  0  0  0  0  0  0
  140.8740   78.6580  223.0200 C   0  0  0  0  0  0  0  0  0  0  0  0
  141.7460   79.0290  224.2010 C   0  0  0  0  0  0  0  0  0  0  0  0
  142.5740   80.2620  223.9210 C   0  0  0  0  0  0  0  0  0  0  0  0
  141.9230   80.9850  222.7550 C   0  0  0  0  0  0  0  0  0  0  0  0
  142.1170   80.1120  221.5270 C   0  0  0  0  0  0  0  0  0  0  0  0
  140.2800   71.7570  223.4180 C   0  0  0  0  0  0  0  0  0  0  0  0
  139.7120   70.5250  223.1720 C   0  0  0  0  0  0  0  0  0  0  0  0
  139.6000   69.5870  224.1520 C   0  0  0  0  0  0  0  0  0  0  0  0
  140.0640   69.8740  225.4130 C   0  0  0  0  0  0  0  0  0  0  0  0
  139.9870   68.9770  226.4590 C   0  0  0  0  0  0  0  0  0  0  0  0
  140.4580   69.2830  227.7190 C   0  0  0  0  0  0  0  0  0  0  0  0
  140.3620   68.1470  229.0500 Cl  0  0  0  0  0  0  0  0  0  0  0  0
  141.0260   70.5340  227.9370 C   0  0  0  0  0  0  0  0  0  0  0  0
  141.1190   71.4580  226.9080 C   0  0  0  0  0  0  0  0  0  0  0  0
  140.6260   71.0970  225.6510 C   0  0  0  0  0  0  0  0  0  0  0  0
  140.7290   72.0190  224.6640 N   0  0  0  0  0  0  0  0  0  0  0  0
  138.5450   73.6050  222.8090 H   0  0  0  0  0  0  0  0  0  0  0  0
  140.2126   74.0563  220.3652 H   0  0  0  0  0  0  0  0  0  0  0  0
  138.4532   74.6974  220.6798 H   0  0  0  0  0  0  0  0  0  0  0  0
  142.8566   75.7730  220.7684 H   0  0  0  0  0  0  0  0  0  0  0  0
  141.8495   75.2506  219.3511 H   0  0  0  0  0  0  0  0  0  0  0  0
  143.4793   77.7807  219.7037 H   0  0  0  0  0  0  0  0  0  0  0  0
  143.5364   76.5813  218.3822 H   0  0  0  0  0  0  0  0  0  0  0  0
  142.3231   78.5735  217.6497 H   0  0  0  0  0  0  0  0  0  0  0  0
  141.1871   77.1718  217.7983 H   0  0  0  0  0  0  0  0  0  0  0  0
  141.3842   79.6799  219.3517 H   0  0  0  0  0  0  0  0  0  0  0  0
  139.9522   78.6263  218.8550 H   0  0  0  0  0  0  0  0  0  0  0  0
  139.8452   78.4525  220.9680 H   0  0  0  0  0  0  0  0  0  0  0  0
  142.6118   78.1129  221.7216 H   0  0  0  0  0  0  0  0  0  0  0  0
  140.0350   79.3662  222.9520 H   0  0  0  0  0  0  0  0  0  0  0  0
  140.4942   77.6356  223.1635 H   0  0  0  0  0  0  0  0  0  0  0  0
  141.1026   79.2223  225.0720 H   0  0  0  0  0  0  0  0  0  0  0  0
  142.4331   78.1922  224.3953 H   0  0  0  0  0  0  0  0  0  0  0  0
  142.5906   80.9140  224.8068 H   0  0  0  0  0  0  0  0  0  0  0  0
  143.6121   79.9889  223.6805 H   0  0  0  0  0  0  0  0  0  0  0  0
  140.8501   81.1284  222.9509 H   0  0  0  0  0  0  0  0  0  0  0  0
  142.3745   81.9770  222.6067 H   0  0  0  0  0  0  0  0  0  0  0  0
  141.5349   80.5435  220.6994 H   0  0  0  0  0  0  0  0  0  0  0  0
  143.1965   80.0907  221.3167 H   0  0  0  0  0  0  0  0  0  0  0  0
  139.3414   70.2952  222.1621 H   0  0  0  0  0  0  0  0  0  0  0  0
  139.1430   68.6098  223.9367 H   0  0  0  0  0  0  0  0  0  0  0  0
  139.5368   67.9889  226.2828 H   0  0  0  0  0  0  0  0  0  0  0  0
  141.4054   70.7927  228.9366 H   0  0  0  0  0  0  0  0  0  0  0  0
  141.5683   72.4479  227.0760 H   0  0  0  0  0  0  0  0  0  0  0  0
  1  2  2  0
  2  3  1  0
  3  4  1  0
  4  5  1  0
  5  6  2  0
  5  7  1  0
  7  8  1  0
  8  9  1  0
  9 10  1  0
 10 11  1  0
 11 12  1  0
 12 13  1  0
 13 14  1  0
 14 15  1  0
 15 16  1  0
 16 17  1  0
 17 18  1  0
  2 19  1  0
 19 20  2  0
 20 21  1  0
 21 22  2  0
 22 23  1  0
 23 24  2  0
 24 25  1  0
 24 26  1  0
 26 27  2  0
 27 28  1  0
 28 29  2  0
 12  7  1  0
 18 13  1  0
 29 19  1  0
 28 22  1  0
  3 30  1  0
  4 31  1  0
  4 32  1  0
  8 33  1  0
  8 34  1  0
  9 35  1  0
  9 36  1  0
 10 37  1  0
 10 38  1  0
 11 39  1  0
 11 40  1  0
 12 41  1  1
 13 42  1  0
 14 43  1  0
 14 44  1  0
 15 45  1  0
 15 46  1  0
 16 47  1  0
 16 48  1  0
 17 49  1  0
 17 50  1  0
 18 51  1  0
 18 52  1  0
 20 53  1  0
 21 54  1  0
 23 55  1  0
 26 56  1  0
 27 57  1  0
M  END
>  <smiles>  (6) 
O=C(NCC(=O)N1CCCCC1C1CCCCC1)c1ccc2cc(Cl)ccc2n1

>  <score_type>  (6) 
oracle

>  <origin>  (6) 
autodockgpu

>  <m_score__min__energy>  (6) 
-9.3699999999999992

>  <m_primary>  (6) 
energy

>  <rmsd>  (6) 
2.1341395412171336

>  <m_score__min__rmsd>  (6) 
2.1341395412171336

>  <meeko>  (6) 
{"free_energy": -9.18, "intermolecular_energy": -10.67, "internal_energy": -1.36, "cluster_size": 38, "cluster_id": 1, "rank_in_cluster": 11}

>  <energy>  (6) 
-9.3

>  <cluster_rmsd>  (6) 
0.47

>  <cluster>  (6) 
1

$$$$

     RDKit          3D

 57 60  0  0  0  0  0  0  0  0999 V2000
  139.6100   72.4320  220.5610 O   0  0  0  0  0  0  0  0  0  0  0  0
  140.1350   72.7160  221.6860 C   0  0  0  0  0  0  0  0  0  0  0  0
  140.8170   74.0030  221.7790 N   0  0  0  0  0  0  0  0  0  0  0  0
  140.8070   74.7810  220.5970 C   0  0  0  0  0  0  0  0  0  0  0  0
  141.9100   75.6380  220.2270 C   0  0  0  0  0  0  0  0  0  0  0  0
  143.0820   75.0510  220.3560 O   0  0  0  0  0  0  0  0  0  0  0  0
  141.9940   76.9630  219.7590 N   0  0  0  0  0  0  0  0  0  0  0  0
  142.9120   77.4220  218.7320 C   0  0  0  0  0  0  0  0  0  0  0  0
  142.5010   78.7640  218.1620 C   0  0  0  0  0  0  0  0  0  0  0  0
  141.0060   78.7680  218.0150 C   0  0  0  0  0  0  0  0  0  0  0  0
  140.3290   78.6360  219.3400 C   0  0  0  0  0  0  0  0  0  0  0  0
  141.1000   77.9500  220.3900 C   0  0  2  0  0  0  0  0  0  0  0  0
  141.8230   78.7660  221.3930 C   0  0  0  0  0  0  0  0  0  0  0  0
  141.1820   78.4860  222.7610 C   0  0  0  0  0  0  0  0  0  0  0  0
  142.0050   79.1110  223.8670 C   0  0  0  0  0  0  0  0  0  0  0  0
  142.3980   80.5330  223.5380 C   0  0  0  0  0  0  0  0  0  0  0  0
  141.4600   81.0170  222.4470 C   0  0  0  0  0  0  0  0  0  0  0  0
  141.7950   80.2310  221.1910 C   0  0  0  0  0  0  0  0  0  0  0  0
  140.0820   71.8400  222.8250 C   0  0  0  0  0  0  0  0  0  0  0  0
  139.4500   70.6230  222.6800 C   0  0  0  0  0  0  0  0  0  0  0  0
  139.3590   69.7430  223.7140 C   0  0  0  0  0  0  0  0  0  0  0  0
  139.9110   70.0740  224.9290 C   0  0  0  0  0  0  0  0  0  0  0  0
  139.8600   69.2360  226.0250 C   0  0  0  0  0  0  0  0  0  0  0  0
  140.4190   69.5860  227.2360 C   0  0  0  0  0  0  0  0  0  0  0  0
  140.3570   68.5250  228.6300 Cl  0  0  0  0  0  0  0  0  0  0  0  0
  141.0500   70.8200  227.3530 C   0  0  0  0  0  0  0  0  0  0  0  0
  141.1180   71.6850  226.2720 C   0  0  0  0  0  0  0  0  0  0  0  0
  140.5350   71.2820  225.0670 C   0  0  0  0  0  0  0  0  0  0  0  0
  140.6160   72.1460  224.0270 N   0  0  0  0  0  0  0  0  0  0  0  0
  141.2110   74.1870  222.7030 H   0  0  0  0  0  0  0  0  0  0  0  0
  140.6768   74.0730  219.7653 H   0  0  0  0  0  0  0  0  0  0  0  0
  140.0134   75.5117  220.8123 H   0  0  0  0  0  0  0  0  0  0  0  0
  143.9169   77.5148  219.1697 H   0  0  0  0  0  0  0  0  0  0  0  0
  142.9008   76.6874  217.9133 H   0  0  0  0  0  0  0  0  0  0  0  0
  142.8112   79.5698  218.8435 H   0  0  0  0  0  0  0  0  0  0  0  0
  142.9813   78.9278  217.1860 H   0  0  0  0  0  0  0  0  0  0  0  0
  140.6947   79.7133  217.5464 H   0  0  0  0  0  0  0  0  0  0  0  0
  140.7167   77.9098  217.3907 H   0  0  0  0  0  0  0  0  0  0  0  0
  140.0943   79.6482  219.7010 H   0  0  0  0  0  0  0  0  0  0  0  0
  139.4443   78.0073  219.1612 H   0  0  0  0  0  0  0  0  0  0  0  0
  140.3281   77.4809  221.0177 H   0  0  0  0  0  0  0  0  0  0  0  0
  142.8793   78.4718  221.3053 H   0  0  0  0  0  0  0  0  0  0  0  0
  140.1675   78.9108  222.7797 H   0  0  0  0  0  0  0  0  0  0  0  0
  141.1392   77.3983  222.9191 H   0  0  0  0  0  0  0  0  0  0  0  0
  141.4140   79.1103  224.7947 H   0  0  0  0  0  0  0  0  0  0  0  0
  142.9253   78.5200  223.9847 H   0  0  0  0  0  0  0  0  0  0  0  0
  142.2973   81.1679  224.4306 H   0  0  0  0  0  0  0  0  0  0  0  0
  143.4446   80.5813  223.2029 H   0  0  0  0  0  0  0  0  0  0  0  0
  140.4152   80.8348  222.7390 H   0  0  0  0  0  0  0  0  0  0  0  0
  141.5801   82.0972  222.2773 H   0  0  0  0  0  0  0  0  0  0  0  0
  141.0389   80.4612  220.4259 H   0  0  0  0  0  0  0  0  0  0  0  0
  142.8081   80.5316  220.8857 H   0  0  0  0  0  0  0  0  0  0  0  0
  139.0099   70.3578  221.7074 H   0  0  0  0  0  0  0  0  0  0  0  0
  138.8494   68.7775  223.5793 H   0  0  0  0  0  0  0  0  0  0  0  0
  139.3592   68.2613  225.9295 H   0  0  0  0  0  0  0  0  0  0  0  0
  141.4997   71.1125  228.3133 H   0  0  0  0  0  0  0  0  0  0  0  0
  141.6168   72.6614  226.3599 H   0  0  0  0  0  0  0  0  0  0  0  0
  1  2  2  0
  2  3  1  0
  3  4  1  0
  4  5  1  0
  5  6  2  0
  5  7  1  0
  7  8  1  0
  8  9  1  0
  9 10  1  0
 10 11  1  0
 11 12  1  0
 12 13  1  0
 13 14  1  0
 14 15  1  0
 15 16  1  0
 16 17  1  0
 17 18  1  0
  2 19  1  0
 19 20  2  0
 20 21  1  0
 21 22  2  0
 22 23  1  0
 23 24  2  0
 24 25  1  0
 24 26  1  0
 26 27  2  0
 27 28  1  0
 28 29  2  0
 12  7  1  0
 18 13  1  0
 29 19  1  0
 28 22  1  0
  3 30  1  0
  4 31  1  0
  4 32  1  0
  8 33  1  0
  8 34  1  0
  9 35  1  0
  9 36  1  0
 10 37  1  0
 10 38  1  0
 11 39  1  0
 11 40  1  0
 12 41  1  1
 13 42  1  0
 14 43  1  0
 14 44  1  0
 15 45  1  0
 15 46  1  0
 16 47  1  0
 16 48  1  0
 17 49  1  0
 17 50  1  0
 18 51  1  0
 18 52  1  0
 20 53  1  0
 21 54  1  0
 23 55  1  0
 26 56  1  0
 27 57  1  0
M  END
>  <smiles>  (7) 
O=C(NCC(=O)N1CCCCC1C1CCCCC1)c1ccc2cc(Cl)ccc2n1

>  <score_type>  (7) 
oracle

>  <origin>  (7) 
autodockgpu

>  <m_score__min__energy>  (7) 
-9.3699999999999992

>  <m_primary>  (7) 
energy

>  <rmsd>  (7) 
2.5641350438442614

>  <m_score__min__rmsd>  (7) 
2.5641350438442614

>  <meeko>  (7) 
{"free_energy": -8.4, "intermolecular_energy": -9.89, "internal_energy": -1.61, "cluster_size": 38, "cluster_id": 1, "rank_in_cluster": 27}

>  <energy>  (7) 
-9.29

>  <cluster_rmsd>  (7) 
0.49

>  <cluster>  (7) 
1

$$$$

     RDKit          3D

 57 60  0  0  0  0  0  0  0  0999 V2000
  135.0960   68.5240  225.3310 O   0  0  0  0  0  0  0  0  0  0  0  0
  134.9350   69.6580  224.7740 C   0  0  0  0  0  0  0  0  0  0  0  0
  135.4230   69.7850  223.4040 N   0  0  0  0  0  0  0  0  0  0  0  0
  136.0180   68.6210  222.8630 C   0  0  0  0  0  0  0  0  0  0  0  0
  137.4500   68.4720  222.7360 C   0  0  0  0  0  0  0  0  0  0  0  0
  137.8130   67.2430  222.4320 O   0  0  0  0  0  0  0  0  0  0  0  0
  138.5330   69.3610  222.8670 N   0  0  0  0  0  0  0  0  0  0  0  0
  139.5360   69.6020  221.8460 C   0  0  0  0  0  0  0  0  0  0  0  0
  140.3150   70.8760  222.1040 C   0  0  0  0  0  0  0  0  0  0  0  0
  139.3520   71.9180  222.5970 C   0  0  0  0  0  0  0  0  0  0  0  0
  138.7370   71.5170  223.8980 C   0  0  0  0  0  0  0  0  0  0  0  0
  138.6620   70.0690  224.1540 C   0  0  2  0  0  0  0  0  0  0  0  0
  139.6940   69.4410  225.0120 C   0  0  0  0  0  0  0  0  0  0  0  0
  139.0260   68.2720  225.7530 C   0  0  0  0  0  0  0  0  0  0  0  0
  140.0660   67.4460  226.4790 C   0  0  0  0  0  0  0  0  0  0  0  0
  141.0400   68.3140  227.2410 C   0  0  0  0  0  0  0  0  0  0  0  0
  140.3890   69.6740  227.4140 C   0  0  0  0  0  0  0  0  0  0  0  0
  140.3120   70.3100  226.0370 C   0  0  0  0  0  0  0  0  0  0  0  0
  134.3130   70.7770  225.4270 C   0  0  0  0  0  0  0  0  0  0  0  0
  133.3670   70.5200  226.3970 C   0  0  0  0  0  0  0  0  0  0  0  0
  132.7340   71.5270  227.0580 C   0  0  0  0  0  0  0  0  0  0  0  0
  133.0460   72.8310  226.7520 C   0  0  0  0  0  0  0  0  0  0  0  0
  132.4490   73.9070  227.3770 C   0  0  0  0  0  0  0  0  0  0  0  0
  132.7750   75.2090  227.0570 C   0  0  0  0  0  0  0  0  0  0  0  0
  132.0200   76.5780  227.8470 Cl  0  0  0  0  0  0  0  0  0  0  0  0
  133.7330   75.4380  226.0740 C   0  0  0  0  0  0  0  0  0  0  0  0
  134.3510   74.3790  225.4270 C   0  0  0  0  0  0  0  0  0  0  0  0
  133.9840   73.0800  225.7900 C   0  0  0  0  0  0  0  0  0  0  0  0
  134.6030   72.0650  225.1420 N   0  0  0  0  0  0  0  0  0  0  0  0
  135.2610   70.7080  223.0000 H   0  0  0  0  0  0  0  0  0  0  0  0
  135.6774   67.7835  223.4896 H   0  0  0  0  0  0  0  0  0  0  0  0
  135.7008   68.6718  221.8110 H   0  0  0  0  0  0  0  0  0  0  0  0
  140.2369   68.7544  221.8298 H   0  0  0  0  0  0  0  0  0  0  0  0
  139.0190   69.7097  220.8810 H   0  0  0  0  0  0  0  0  0  0  0  0
  141.0884   70.6930  222.8645 H   0  0  0  0  0  0  0  0  0  0  0  0
  140.8065   71.2166  221.1807 H   0  0  0  0  0  0  0  0  0  0  0  0
  139.8903   72.8676  222.7328 H   0  0  0  0  0  0  0  0  0  0  0  0
  138.5493   72.0284  221.8531 H   0  0  0  0  0  0  0  0  0  0  0  0
  139.3296   71.9719  224.7054 H   0  0  0  0  0  0  0  0  0  0  0  0
  137.6948   71.8663  223.8551 H   0  0  0  0  0  0  0  0  0  0  0  0
  137.7688   69.9614  224.7870 H   0  0  0  0  0  0  0  0  0  0  0  0
  140.5089   69.1546  224.3309 H   0  0  0  0  0  0  0  0  0  0  0  0
  138.3048   68.6696  226.4823 H   0  0  0  0  0  0  0  0  0  0  0  0
  138.5095   67.6334  225.0212 H   0  0  0  0  0  0  0  0  0  0  0  0
  139.5572   66.7754  227.1872 H   0  0  0  0  0  0  0  0  0  0  0  0
  140.6321   66.8735  225.7295 H   0  0  0  0  0  0  0  0  0  0  0  0
  141.2512   67.8694  228.2247 H   0  0  0  0  0  0  0  0  0  0  0  0
  141.9918   68.4032  226.6969 H   0  0  0  0  0  0  0  0  0  0  0  0
  139.3787   69.5582  227.8333 H   0  0  0  0  0  0  0  0  0  0  0  0
  140.9717   70.3023  228.1037 H   0  0  0  0  0  0  0  0  0  0  0  0
  139.7177   71.2325  226.1138 H   0  0  0  0  0  0  0  0  0  0  0  0
  141.3460   70.5011  225.7140 H   0  0  0  0  0  0  0  0  0  0  0  0
  133.1184   69.4769  226.6420 H   0  0  0  0  0  0  0  0  0  0  0  0
  131.9817   71.3007  227.8279 H   0  0  0  0  0  0  0  0  0  0  0  0
  131.6914   73.7213  228.1526 H   0  0  0  0  0  0  0  0  0  0  0  0
  134.0029   76.4705  225.8074 H   0  0  0  0  0  0  0  0  0  0  0  0
  135.1090   74.5560  224.6497 H   0  0  0  0  0  0  0  0  0  0  0  0
  1  2  2  0
  2  3  1  0
  3  4  1  0
  4  5  1  0
  5  6  2  0
  5  7  1  0
  7  8  1  0
  8  9  1  0
  9 10  1  0
 10 11  1  0
 11 12  1  0
 12 13  1  0
 13 14  1  0
 14 15  1  0
 15 16  1  0
 16 17  1  0
 17 18  1  0
  2 19  1  0
 19 20  2  0
 20 21  1  0
 21 22  2  0
 22 23  1  0
 23 24  2  0
 24 25  1  0
 24 26  1  0
 26 27  2  0
 27 28  1  0
 28 29  2  0
 12  7  1  0
 18 13  1  0
 29 19  1  0
 28 22  1  0
  3 30  1  0
  4 31  1  0
  4 32  1  0
  8 33  1  0
  8 34  1  0
  9 35  1  0
  9 36  1  0
 10 37  1  0
 10 38  1  0
 11 39  1  0
 11 40  1  0
 12 41  1  1
 13 42  1  0
 14 43  1  0
 14 44  1  0
 15 45  1  0
 15 46  1  0
 16 47  1  0
 16 48  1  0
 17 49  1  0
 17 50  1  0
 18 51  1  0
 18 52  1  0
 20 53  1  0
 21 54  1  0
 23 55  1  0
 26 56  1  0
 27 57  1  0
M  END
>  <smiles>  (8) 
O=C(NCC(=O)N1CCCCC1C1CCCCC1)c1ccc2cc(Cl)ccc2n1

>  <score_type>  (8) 
oracle

>  <origin>  (8) 
autodockgpu

>  <m_score__min__energy>  (8) 
-9.3699999999999992

>  <m_primary>  (8) 
energy

>  <rmsd>  (8) 
7.411805764260457

>  <m_score__min__rmsd>  (8) 
7.411805764260457

>  <meeko>  (8) 
{"free_energy": -7.48, "intermolecular_energy": -8.97, "internal_energy": -2.05, "cluster_size": 4, "cluster_id": 3, "rank_in_cluster": 4}

>  <energy>  (8) 
-9.26

>  <cluster_rmsd>  (8) 
0.41

>  <cluster>  (8) 
1

$$$$

     RDKit          3D

 57 60  0  0  0  0  0  0  0  0999 V2000
  139.7170   72.1150  220.7700 O   0  0  0  0  0  0  0  0  0  0  0  0
  139.7130   72.4880  221.9880 C   0  0  0  0  0  0  0  0  0  0  0  0
  139.5600   73.9200  222.2290 N   0  0  0  0  0  0  0  0  0  0  0  0
  139.4340   74.7200  221.0690 C   0  0  0  0  0  0  0  0  0  0  0  0
  139.9260   76.0780  221.0100 C   0  0  0  0  0  0  0  0  0  0  0  0
  139.0880   76.9490  221.5320 O   0  0  0  0  0  0  0  0  0  0  0  0
  141.1070   76.6610  220.5150 N   0  0  0  0  0  0  0  0  0  0  0  0
  142.2970   75.9240  220.1290 C   0  0  0  0  0  0  0  0  0  0  0  0
  143.2270   76.7580  219.2720 C   0  0  0  0  0  0  0  0  0  0  0  0
  142.3880   77.5580  218.3170 C   0  0  0  0  0  0  0  0  0  0  0  0
  141.4990   78.5140  219.0440 C   0  0  0  0  0  0  0  0  0  0  0  0
  141.1330   78.1320  220.4180 C   0  0  2  0  0  0  0  0  0  0  0  0
  141.8780   78.7320  221.5480 C   0  0  0  0  0  0  0  0  0  0  0  0
  141.0240   78.5480  222.8120 C   0  0  0  0  0  0  0  0  0  0  0  0
  141.8130   78.9360  224.0430 C   0  0  0  0  0  0  0  0  0  0  0  0
  142.5380   80.2490  223.8540 C   0  0  0  0  0  0  0  0  0  0  0  0
  141.8700   80.9670  222.6950 C   0  0  0  0  0  0  0  0  0  0  0  0
  142.1870   80.1750  221.4380 C   0  0  0  0  0  0  0  0  0  0  0  0
  139.8490   71.5780  223.0920 C   0  0  0  0  0  0  0  0  0  0  0  0
  139.4620   70.2670  222.9060 C   0  0  0  0  0  0  0  0  0  0  0  0
  139.5610   69.3490  223.9050 C   0  0  0  0  0  0  0  0  0  0  0  0
  140.0580   69.7360  225.1270 C   0  0  0  0  0  0  0  0  0  0  0  0
  140.1890   68.8650  226.1890 C   0  0  0  0  0  0  0  0  0  0  0  0
  140.6900   69.2720  227.4080 C   0  0  0  0  0  0  0  0  0  0  0  0
  140.8590   68.1690  228.7600 Cl  0  0  0  0  0  0  0  0  0  0  0  0
  141.0720   70.6000  227.5670 C   0  0  0  0  0  0  0  0  0  0  0  0
  140.9530   71.5010  226.5200 C   0  0  0  0  0  0  0  0  0  0  0  0
  140.4400   71.0360  225.3060 C   0  0  0  0  0  0  0  0  0  0  0  0
  140.3340   71.9370  224.3000 N   0  0  0  0  0  0  0  0  0  0  0  0
  139.5520   74.1650  223.2200 H   0  0  0  0  0  0  0  0  0  0  0  0
  139.9454   74.1735  220.2629 H   0  0  0  0  0  0  0  0  0  0  0  0
  138.3457   74.8695  221.0127 H   0  0  0  0  0  0  0  0  0  0  0  0
  142.8336   75.6144  221.0380 H   0  0  0  0  0  0  0  0  0  0  0  0
  141.9802   75.0521  219.5379 H   0  0  0  0  0  0  0  0  0  0  0  0
  143.8149   77.4350  219.9093 H   0  0  0  0  0  0  0  0  0  0  0  0
  143.9208   76.1083  218.7183 H   0  0  0  0  0  0  0  0  0  0  0  0
  143.0506   78.1245  217.6461 H   0  0  0  0  0  0  0  0  0  0  0  0
  141.7559   76.8631  217.7447 H   0  0  0  0  0  0  0  0  0  0  0  0
  142.0137   79.4851  219.0897 H   0  0  0  0  0  0  0  0  0  0  0  0
  140.5557   78.5330  218.4785 H   0  0  0  0  0  0  0  0  0  0  0  0
  140.1395   78.5826  220.5590 H   0  0  0  0  0  0  0  0  0  0  0  0
  142.8501   78.2174  221.5651 H   0  0  0  0  0  0  0  0  0  0  0  0
  140.1288   79.1832  222.7402 H   0  0  0  0  0  0  0  0  0  0  0  0
  140.7318   77.4907  222.8942 H   0  0  0  0  0  0  0  0  0  0  0  0
  141.1221   79.0299  224.8938 H   0  0  0  0  0  0  0  0  0  0  0  0
  142.5642   78.1541  224.2283 H   0  0  0  0  0  0  0  0  0  0  0  0
  142.4622   80.8565  224.7679 H   0  0  0  0  0  0  0  0  0  0  0  0
  143.6049   80.0799  223.6463 H   0  0  0  0  0  0  0  0  0  0  0  0
  140.7820   81.0065  222.8520 H   0  0  0  0  0  0  0  0  0  0  0  0
  142.2371   82.0005  222.6102 H   0  0  0  0  0  0  0  0  0  0  0  0
  141.5997   80.5932  220.6072 H   0  0  0  0  0  0  0  0  0  0  0  0
  143.2710   80.2589  221.2711 H   0  0  0  0  0  0  0  0  0  0  0  0
  139.0646   69.9571  221.9282 H   0  0  0  0  0  0  0  0  0  0  0  0
  139.2468   68.3083  223.7369 H   0  0  0  0  0  0  0  0  0  0  0  0
  139.8851   67.8157  226.0598 H   0  0  0  0  0  0  0  0  0  0  0  0
  141.4728   70.9389  228.5337 H   0  0  0  0  0  0  0  0  0  0  0  0
  141.2538   72.5521  226.6414 H   0  0  0  0  0  0  0  0  0  0  0  0
  1  2  2  0
  2  3  1  0
  3  4  1  0
  4  5  1  0
  5  6  2  0
  5  7  1  0
  7  8  1  0
  8  9  1  0
  9 10  1  0
 10 11  1  0
 11 12  1  0
 12 13  1  0
 13 14  1  0
 14 15  1  0
 15 16  1  0
 16 17  1  0
 17 18  1  0
  2 19  1  0
 19 20  2  0
 20 21  1  0
 21 22  2  0
 22 23  1  0
 23 24  2  0
 24 25  1  0
 24 26  1  0
 26 27  2  0
 27 28  1  0
 28 29  2  0
 12  7  1  0
 18 13  1  0
 29 19  1  0
 28 22  1  0
  3 30  1  0
  4 31  1  0
  4 32  1  0
  8 33  1  0
  8 34  1  0
  9 35  1  0
  9 36  1  0
 10 37  1  0
 10 38  1  0
 11 39  1  0
 11 40  1  0
 12 41  1  1
 13 42  1  0
 14 43  1  0
 14 44  1  0
 15 45  1  0
 15 46  1  0
 16 47  1  0
 16 48  1  0
 17 49  1  0
 17 50  1  0
 18 51  1  0
 18 52  1  0
 20 53  1  0
 21 54  1  0
 23 55  1  0
 26 56  1  0
 27 57  1  0
M  END
>  <smiles>  (9) 
O=C(NCC(=O)N1CCCCC1C1CCCCC1)c1ccc2cc(Cl)ccc2n1

>  <score_type>  (9) 
oracle

>  <origin>  (9) 
autodockgpu

>  <m_score__min__energy>  (9) 
-9.3699999999999992

>  <m_primary>  (9) 
energy

>  <rmsd>  (9) 
2.0956352576364528

>  <m_score__min__rmsd>  (9) 
2.0956352576364528

>  <meeko>  (9) 
{"free_energy": -9.31, "intermolecular_energy": -10.8, "internal_energy": -1.47, "cluster_size": 38, "cluster_id": 1, "rank_in_cluster": 5}

>  <energy>  (9) 
-9.2

>  <cluster_rmsd>  (9) 
0.51

>  <cluster>  (9) 
1

$$$$

     RDKit          3D

 57 60  0  0  0  0  0  0  0  0999 V2000
  140.0340   74.1110  222.0710 O   0  0  0  0  0  0  0  0  0  0  0  0
  139.8670   72.8550  221.9490 C   0  0  0  0  0  0  0  0  0  0  0  0
  139.5770   72.3650  220.6040 N   0  0  0  0  0  0  0  0  0  0  0  0
  139.5170   73.3580  219.5980 C   0  0  0  0  0  0  0  0  0  0  0  0
  140.5900   73.5640  218.6510 C   0  0  0  0  0  0  0  0  0  0  0  0
  140.4110   72.9090  217.5230 O   0  0  0  0  0  0  0  0  0  0  0  0
  141.7780   74.3170  218.6820 N   0  0  0  0  0  0  0  0  0  0  0  0
  142.4990   74.7760  217.5080 C   0  0  0  0  0  0  0  0  0  0  0  0
  143.4830   75.8780  217.8420 C   0  0  0  0  0  0  0  0  0  0  0  0
  142.8350   76.7940  218.8410 C   0  0  0  0  0  0  0  0  0  0  0  0
  142.5370   76.0800  220.1190 C   0  0  0  0  0  0  0  0  0  0  0  0
  142.3370   74.6260  220.0110 C   0  0  2  0  0  0  0  0  0  0  0  0
  143.4640   73.7240  220.3440 C   0  0  0  0  0  0  0  0  0  0  0  0
  144.7270   74.5910  220.4580 C   0  0  0  0  0  0  0  0  0  0  0  0
  145.8770   73.7770  221.0120 C   0  0  0  0  0  0  0  0  0  0  0  0
  145.9900   72.4320  220.3310 C   0  0  0  0  0  0  0  0  0  0  0  0
  145.2310   72.5270  219.0200 C   0  0  0  0  0  0  0  0  0  0  0  0
  143.7580   72.6530  219.3660 C   0  0  0  0  0  0  0  0  0  0  0  0
  139.9520   71.9360  223.0510 C   0  0  0  0  0  0  0  0  0  0  0  0
  139.4970   70.6480  222.8600 C   0  0  0  0  0  0  0  0  0  0  0  0
  139.5440   69.7230  223.8570 C   0  0  0  0  0  0  0  0  0  0  0  0
  140.0570   70.0810  225.0810 C   0  0  0  0  0  0  0  0  0  0  0  0
  140.1380   69.2010  226.1420 C   0  0  0  0  0  0  0  0  0  0  0  0
  140.6550   69.5780  227.3640 C   0  0  0  0  0  0  0  0  0  0  0  0
  140.7610   68.4650  228.7130 Cl  0  0  0  0  0  0  0  0  0  0  0  0
  141.1060   70.8840  227.5280 C   0  0  0  0  0  0  0  0  0  0  0  0
  141.0380   71.7920  226.4830 C   0  0  0  0  0  0  0  0  0  0  0  0
  140.5050   71.3590  225.2660 C   0  0  0  0  0  0  0  0  0  0  0  0
  140.4500   72.2660  224.2620 N   0  0  0  0  0  0  0  0  0  0  0  0
  139.4630   71.3520  220.5580 H   0  0  0  0  0  0  0  0  0  0  0  0
  138.6200   73.1359  219.0013 H   0  0  0  0  0  0  0  0  0  0  0  0
  139.5547   74.2844  220.1899 H   0  0  0  0  0  0  0  0  0  0  0  0
  143.0492   73.9277  217.0748 H   0  0  0  0  0  0  0  0  0  0  0  0
  141.7654   75.1799  216.7948 H   0  0  0  0  0  0  0  0  0  0  0  0
  144.3974   75.4437  218.2724 H   0  0  0  0  0  0  0  0  0  0  0  0
  143.7545   76.4354  216.9333 H   0  0  0  0  0  0  0  0  0  0  0  0
  143.5138   77.6341  219.0498 H   0  0  0  0  0  0  0  0  0  0  0  0
  141.8870   77.1558  218.4163 H   0  0  0  0  0  0  0  0  0  0  0  0
  143.3777   76.2545  220.8066 H   0  0  0  0  0  0  0  0  0  0  0  0
  141.5777   76.4873  220.4710 H   0  0  0  0  0  0  0  0  0  0  0  0
  141.6365   74.3965  220.8274 H   0  0  0  0  0  0  0  0  0  0  0  0
  143.1671   73.2107  221.2705 H   0  0  0  0  0  0  0  0  0  0  0  0
  144.9979   74.9698  219.4614 H   0  0  0  0  0  0  0  0  0  0  0  0
  144.5234   75.4307  221.1387 H   0  0  0  0  0  0  0  0  0  0  0  0
  146.8135   74.3335  220.8594 H   0  0  0  0  0  0  0  0  0  0  0  0
  145.6904   73.6045  222.0822 H   0  0  0  0  0  0  0  0  0  0  0  0
  147.0467   72.1948  220.1383 H   0  0  0  0  0  0  0  0  0  0  0  0
  145.5734   71.6366  220.9664 H   0  0  0  0  0  0  0  0  0  0  0  0
  145.5629   73.4104  218.4549 H   0  0  0  0  0  0  0  0  0  0  0  0
  145.4126   71.6389  218.3969 H   0  0  0  0  0  0  0  0  0  0  0  0
  143.2014   72.8654  218.4413 H   0  0  0  0  0  0  0  0  0  0  0  0
  143.4555   71.7029  219.8305 H   0  0  0  0  0  0  0  0  0  0  0  0
  139.0870   70.3622  221.8801 H   0  0  0  0  0  0  0  0  0  0  0  0
  139.1758   68.7008  223.6854 H   0  0  0  0  0  0  0  0  0  0  0  0
  139.7799   68.1695  226.0089 H   0  0  0  0  0  0  0  0  0  0  0  0
  141.5208   71.1991  228.4969 H   0  0  0  0  0  0  0  0  0  0  0  0
  141.3939   72.8253  226.6083 H   0  0  0  0  0  0  0  0  0  0  0  0
  1  2  2  0
  2  3  1  0
  3  4  1  0
  4  5  1  0
  5  6  2  0
  5  7  1  0
  7  8  1  0
  8  9  1  0
  9 10  1  0
 10 11  1  0
 11 12  1  0
 12 13  1  0
 13 14  1  0
 14 15  1  0
 15 16  1  0
 16 17  1  0
 17 18  1  0
  2 19  1  0
 19 20  2  0
 20 21  1  0
 21 22  2  0
 22 23  1  0
 23 24  2  0
 24 25  1  0
 24 26  1  0
 26 27  2  0
 27 28  1  0
 28 29  2  0
 12  7  1  0
 18 13  1  0
 29 19  1  0
 28 22  1  0
  3 30  1  0
  4 31  1  0
  4 32  1  0
  8 33  1  0
  8 34  1  0
  9 35  1  0
  9 36  1  0
 10 37  1  0
 10 38  1  0
 11 39  1  0
 11 40  1  0
 12 41  1  1
 13 42  1  0
 14 43  1  0
 14 44  1  0
 15 45  1  0
 15 46  1  0
 16 47  1  0
 16 48  1  0
 17 49  1  0
 17 50  1  0
 18 51  1  0
 18 52  1  0
 20 53  1  0
 21 54  1  0
 23 55  1  0
 26 56  1  0
 27 57  1  0
M  END
>  <smiles>  (10) 
O=C(NCC(=O)N1CCCCC1C1CCCCC1)c1ccc2cc(Cl)ccc2n1

>  <score_type>  (10) 
oracle

>  <origin>  (10) 
autodockgpu

>  <m_score__min__energy>  (10) 
-9.3699999999999992

>  <m_primary>  (10) 
energy

>  <rmsd>  (10) 
2.5835540746093226

>  <m_score__min__rmsd>  (10) 
2.5835540746093226

>  <meeko>  (10) 
{"free_energy": -8.07, "intermolecular_energy": -9.56, "internal_energy": -1.69, "cluster_size": 1, "cluster_id": 5, "rank_in_cluster": 1}

>  <energy>  (10) 
-9.2

>  <cluster_rmsd>  (10) 
0.33

>  <cluster>  (10) 
1

$$$$

     RDKit          3D

 57 60  0  0  0  0  0  0  0  0999 V2000
  141.2200   72.8060  221.3460 O   0  0  0  0  0  0  0  0  0  0  0  0
  140.2910   72.7900  222.2160 C   0  0  0  0  0  0  0  0  0  0  0  0
  139.2520   73.8060  222.0790 N   0  0  0  0  0  0  0  0  0  0  0  0
  139.4100   74.6900  220.9860 C   0  0  0  0  0  0  0  0  0  0  0  0
  139.9090   76.0370  221.1460 C   0  0  0  0  0  0  0  0  0  0  0  0
  139.2090   76.7430  222.0110 O   0  0  0  0  0  0  0  0  0  0  0  0
  140.9810   76.7490  220.5770 N   0  0  0  0  0  0  0  0  0  0  0  0
  142.1620   76.1410  219.9920 C   0  0  0  0  0  0  0  0  0  0  0  0
  142.9260   77.1120  219.1160 C   0  0  0  0  0  0  0  0  0  0  0  0
  141.9280   77.9230  218.3410 C   0  0  0  0  0  0  0  0  0  0  0  0
  141.0710   78.7430  219.2490 C   0  0  0  0  0  0  0  0  0  0  0  0
  140.8970   78.2210  220.6140 C   0  0  2  0  0  0  0  0  0  0  0  0
  141.7310   78.7790  221.7030 C   0  0  0  0  0  0  0  0  0  0  0  0
  140.9140   78.6860  223.0010 C   0  0  0  0  0  0  0  0  0  0  0  0
  141.7790   79.0320  224.1950 C   0  0  0  0  0  0  0  0  0  0  0  0
  142.5970   80.2790  223.9510 C   0  0  0  0  0  0  0  0  0  0  0  0
  141.9440   81.0270  222.8030 C   0  0  0  0  0  0  0  0  0  0  0  0
  142.1490   80.1900  221.5520 C   0  0  0  0  0  0  0  0  0  0  0  0
  140.2340   71.8370  223.2920 C   0  0  0  0  0  0  0  0  0  0  0  0
  139.6780   70.6010  223.0360 C   0  0  0  0  0  0  0  0  0  0  0  0
  139.5890   69.6490  224.0040 C   0  0  0  0  0  0  0  0  0  0  0  0
  140.0640   69.9250  225.2640 C   0  0  0  0  0  0  0  0  0  0  0  0
  140.0100   69.0130  226.2980 C   0  0  0  0  0  0  0  0  0  0  0  0
  140.4920   69.3070  227.5570 C   0  0  0  0  0  0  0  0  0  0  0  0
  140.4250   68.1530  228.8730 Cl  0  0  0  0  0  0  0  0  0  0  0  0
  141.0470   70.5630  227.7850 C   0  0  0  0  0  0  0  0  0  0  0  0
  141.1160   71.5020  226.7680 C   0  0  0  0  0  0  0  0  0  0  0  0
  140.6130   71.1510  225.5120 C   0  0  0  0  0  0  0  0  0  0  0  0
  140.6940   72.0880  224.5360 N   0  0  0  0  0  0  0  0  0  0  0  0
  138.5260   73.7430  222.7940 H   0  0  0  0  0  0  0  0  0  0  0  0
  140.0955   74.1909  220.2853 H   0  0  0  0  0  0  0  0  0  0  0  0
  138.3669   74.8686  220.6861 H   0  0  0  0  0  0  0  0  0  0  0  0
  142.8228   75.7979  220.8017 H   0  0  0  0  0  0  0  0  0  0  0  0
  141.8346   75.3007  219.3621 H   0  0  0  0  0  0  0  0  0  0  0  0
  143.5404   77.7756  219.7422 H   0  0  0  0  0  0  0  0  0  0  0  0
  143.5897   76.5660  218.4295 H   0  0  0  0  0  0  0  0  0  0  0  0
  142.4666   78.5932  217.6550 H   0  0  0  0  0  0  0  0  0  0  0  0
  141.2793   77.2325  217.7820 H   0  0  0  0  0  0  0  0  0  0  0  0
  141.5221   79.7433  219.3257 H   0  0  0  0  0  0  0  0  0  0  0  0
  140.0678   78.7363  218.7977 H   0  0  0  0  0  0  0  0  0  0  0  0
  139.8998   78.5810  220.9073 H   0  0  0  0  0  0  0  0  0  0  0  0
  142.6593   78.1889  221.6947 H   0  0  0  0  0  0  0  0  0  0  0  0
  140.0697   79.3892  222.9491 H   0  0  0  0  0  0  0  0  0  0  0  0
  140.5423   77.6571  223.1158 H   0  0  0  0  0  0  0  0  0  0  0  0
  141.1312   79.1961  225.0687 H   0  0  0  0  0  0  0  0  0  0  0  0
  142.4725   78.1961  224.3693 H   0  0  0  0  0  0  0  0  0  0  0  0
  142.6049   80.9071  224.8540 H   0  0  0  0  0  0  0  0  0  0  0  0
  143.6382   80.0213  223.7070 H   0  0  0  0  0  0  0  0  0  0  0  0
  140.8693   81.1559  222.9991 H   0  0  0  0  0  0  0  0  0  0  0  0
  142.3881   82.0262  222.6832 H   0  0  0  0  0  0  0  0  0  0  0  0
  141.5656   80.6391  220.7347 H   0  0  0  0  0  0  0  0  0  0  0  0
  143.2291   80.1838  221.3439 H   0  0  0  0  0  0  0  0  0  0  0  0
  139.2983   70.3802  222.0275 H   0  0  0  0  0  0  0  0  0  0  0  0
  139.1418   68.6691  223.7807 H   0  0  0  0  0  0  0  0  0  0  0  0
  139.5696   68.0221  226.1131 H   0  0  0  0  0  0  0  0  0  0  0  0
  141.4351   70.8131  228.7834 H   0  0  0  0  0  0  0  0  0  0  0  0
  141.5542   72.4954  226.9443 H   0  0  0  0  0  0  0  0  0  0  0  0
  1  2  2  0
  2  3  1  0
  3  4  1  0
  4  5  1  0
  5  6  2  0
  5  7  1  0
  7  8  1  0
  8  9  1  0
  9 10  1  0
 10 11  1  0
 11 12  1  0
 12 13  1  0
 13 14  1  0
 14 15  1  0
 15 16  1  0
 16 17  1  0
 17 18  1  0
  2 19  1  0
 19 20  2  0
 20 21  1  0
 21 22  2  0
 22 23  1  0
 23 24  2  0
 24 25  1  0
 24 26  1  0
 26 27  2  0
 27 28  1  0
 28 29  2  0
 12  7  1  0
 18 13  1  0
 29 19  1  0
 28 22  1  0
  3 30  1  0
  4 31  1  0
  4 32  1  0
  8 33  1  0
  8 34  1  0
  9 35  1  0
  9 36  1  0
 10 37  1  0
 10 38  1  0
 11 39  1  0
 11 40  1  0
 12 41  1  1
 13 42  1  0
 14 43  1  0
 14 44  1  0
 15 45  1  0
 15 46  1  0
 16 47  1  0
 16 48  1  0
 17 49  1  0
 17 50  1  0
 18 51  1  0
 18 52  1  0
 20 53  1  0
 21 54  1  0
 23 55  1  0
 26 56  1  0
 27 57  1  0
M  END
>  <smiles>  (11) 
O=C(NCC(=O)N1CCCCC1C1CCCCC1)c1ccc2cc(Cl)ccc2n1

>  <score_type>  (11) 
oracle

>  <origin>  (11) 
autodockgpu

>  <m_score__min__energy>  (11) 
-9.3699999999999992

>  <m_primary>  (11) 
energy

>  <rmsd>  (11) 
2.1671385870636333

>  <m_score__min__rmsd>  (11) 
2.1671385870636333

>  <meeko>  (11) 
{"free_energy": -9.26, "intermolecular_energy": -10.75, "internal_energy": -1.35, "cluster_size": 38, "cluster_id": 1, "rank_in_cluster": 8}

>  <energy>  (11) 
-9.18

>  <cluster_rmsd>  (11) 
0.47

>  <cluster>  (11) 
1

$$$$

     RDKit          3D

 57 60  0  0  0  0  0  0  0  0999 V2000
  140.5970   72.5710  220.7750 O   0  0  0  0  0  0  0  0  0  0  0  0
  140.2290   72.9010  221.9480 C   0  0  0  0  0  0  0  0  0  0  0  0
  139.8440   74.2950  222.1420 N   0  0  0  0  0  0  0  0  0  0  0  0
  139.9300   75.1130  220.9910 C   0  0  0  0  0  0  0  0  0  0  0  0
  141.1850   75.6470  220.5140 C   0  0  0  0  0  0  0  0  0  0  0  0
  142.1600   74.7610  220.5330 O   0  0  0  0  0  0  0  0  0  0  0  0
  141.5830   76.9090  220.0350 N   0  0  0  0  0  0  0  0  0  0  0  0
  142.6460   77.1330  219.0710 C   0  0  0  0  0  0  0  0  0  0  0  0
  142.5710   78.5150  218.4550 C   0  0  0  0  0  0  0  0  0  0  0  0
  141.1250   78.8320  218.1990 C   0  0  0  0  0  0  0  0  0  0  0  0
  140.3470   78.8860  219.4730 C   0  0  0  0  0  0  0  0  0  0  0  0
  140.8800   78.0820  220.5860 C   0  0  2  0  0  0  0  0  0  0  0  0
  141.6910   78.7550  221.6270 C   0  0  0  0  0  0  0  0  0  0  0  0
  140.9440   78.6000  222.9610 C   0  0  0  0  0  0  0  0  0  0  0  0
  141.8130   79.0670  224.1090 C   0  0  0  0  0  0  0  0  0  0  0  0
  142.4760   80.3910  223.8080 C   0  0  0  0  0  0  0  0  0  0  0  0
  141.6960   81.0370  222.6770 C   0  0  0  0  0  0  0  0  0  0  0  0
  141.9410   80.1990  221.4330 C   0  0  0  0  0  0  0  0  0  0  0  0
  140.1820   71.9770  223.0490 C   0  0  0  0  0  0  0  0  0  0  0  0
  139.6270   70.7330  222.8300 C   0  0  0  0  0  0  0  0  0  0  0  0
  139.5470   69.8070  223.8240 C   0  0  0  0  0  0  0  0  0  0  0  0
  140.0300   70.1180  225.0720 C   0  0  0  0  0  0  0  0  0  0  0  0
  139.9850   69.2330  226.1310 C   0  0  0  0  0  0  0  0  0  0  0  0
  140.4750   69.5620  227.3780 C   0  0  0  0  0  0  0  0  0  0  0  0
  140.4200   68.4430  228.7250 Cl  0  0  0  0  0  0  0  0  0  0  0  0
  141.0290   70.8240  227.5690 C   0  0  0  0  0  0  0  0  0  0  0  0
  141.0890   71.7360  226.5270 C   0  0  0  0  0  0  0  0  0  0  0  0
  140.5780   71.3510  225.2840 C   0  0  0  0  0  0  0  0  0  0  0  0
  140.6490   72.2610  224.2830 N   0  0  0  0  0  0  0  0  0  0  0  0
  139.5470   74.5050  223.0960 H   0  0  0  0  0  0  0  0  0  0  0  0
  139.5147   74.5204  220.1625 H   0  0  0  0  0  0  0  0  0  0  0  0
  139.4062   76.0228  221.3193 H   0  0  0  0  0  0  0  0  0  0  0  0
  143.6154   77.0227  219.5791 H   0  0  0  0  0  0  0  0  0  0  0  0
  142.5339   76.3944  218.2636 H   0  0  0  0  0  0  0  0  0  0  0  0
  142.9986   79.2556  219.1468 H   0  0  0  0  0  0  0  0  0  0  0  0
  143.1409   78.5454  217.5146 H   0  0  0  0  0  0  0  0  0  0  0  0
  141.0558   79.8075  217.6954 H   0  0  0  0  0  0  0  0  0  0  0  0
  140.7020   78.0369  217.5675 H   0  0  0  0  0  0  0  0  0  0  0  0
  140.3110   79.9351  219.8019 H   0  0  0  0  0  0  0  0  0  0  0  0
  139.3622   78.4554  219.2392 H   0  0  0  0  0  0  0  0  0  0  0  0
  139.9849   77.8055  221.1625 H   0  0  0  0  0  0  0  0  0  0  0  0
  142.6790   78.2731  221.5880 H   0  0  0  0  0  0  0  0  0  0  0  0
  140.0244   79.2030  222.9338 H   0  0  0  0  0  0  0  0  0  0  0  0
  140.6955   77.5388  223.1099 H   0  0  0  0  0  0  0  0  0  0  0  0
  141.1874   79.1780  225.0069 H   0  0  0  0  0  0  0  0  0  0  0  0
  142.6023   78.3174  224.2674 H   0  0  0  0  0  0  0  0  0  0  0  0
  142.4517   81.0358  224.6989 H   0  0  0  0  0  0  0  0  0  0  0  0
  143.5283   80.2448  223.5228 H   0  0  0  0  0  0  0  0  0  0  0  0
  140.6228   81.0508  222.9179 H   0  0  0  0  0  0  0  0  0  0  0  0
  142.0201   82.0764  222.5202 H   0  0  0  0  0  0  0  0  0  0  0  0
  141.2771   80.5616  220.6344 H   0  0  0  0  0  0  0  0  0  0  0  0
  143.0054   80.3082  221.1779 H   0  0  0  0  0  0  0  0  0  0  0  0
  139.2409   70.4843  221.8305 H   0  0  0  0  0  0  0  0  0  0  0  0
  139.1006   68.8205  223.6304 H   0  0  0  0  0  0  0  0  0  0  0  0
  139.5456   68.2366  225.9758 H   0  0  0  0  0  0  0  0  0  0  0  0
  141.4237   71.1009  228.5577 H   0  0  0  0  0  0  0  0  0  0  0  0
  141.5264   72.7346  226.6739 H   0  0  0  0  0  0  0  0  0  0  0  0
  1  2  2  0
  2  3  1  0
  3  4  1  0
  4  5  1  0
  5  6  2  0
  5  7  1  0
  7  8  1  0
  8  9  1  0
  9 10  1  0
 10 11  1  0
 11 12  1  0
 12 13  1  0
 13 14  1  0
 14 15  1  0
 15 16  1  0
 16 17  1  0
 17 18  1  0
  2 19  1  0
 19 20  2  0
 20 21  1  0
 21 22  2  0
 22 23  1  0
 23 24  2  0
 24 25  1  0
 24 26  1  0
 26 27  2  0
 27 28  1  0
 28 29  2  0
 12  7  1  0
 18 13  1  0
 29 19  1  0
 28 22  1  0
  3 30  1  0
  4 31  1  0
  4 32  1  0
  8 33  1  0
  8 34  1  0
  9 35  1  0
  9 36  1  0
 10 37  1  0
 10 38  1  0
 11 39  1  0
 11 40  1  0
 12 41  1  1
 13 42  1  0
 14 43  1  0
 14 44  1  0
 15 45  1  0
 15 46  1  0
 16 47  1  0
 16 48  1  0
 17 49  1  0
 17 50  1  0
 18 51  1  0
 18 52  1  0
 20 53  1  0
 21 54  1  0
 23 55  1  0
 26 56  1  0
 27 57  1  0
M  END
>  <smiles>  (12) 
O=C(NCC(=O)N1CCCCC1C1CCCCC1)c1ccc2cc(Cl)ccc2n1

>  <score_type>  (12) 
oracle

>  <origin>  (12) 
autodockgpu

>  <m_score__min__energy>  (12) 
-9.3699999999999992

>  <m_primary>  (12) 
energy

>  <rmsd>  (12) 
2.425482129470997

>  <m_score__min__rmsd>  (12) 
2.425482129470997

>  <meeko>  (12) 
{"free_energy": -9.1, "intermolecular_energy": -10.59, "internal_energy": -1.43, "cluster_size": 38, "cluster_id": 1, "rank_in_cluster": 14}

>  <energy>  (12) 
-9.18

>  <cluster_rmsd>  (12) 
0.47

>  <cluster>  (12) 
1

$$$$

     RDKit          3D

 57 60  0  0  0  0  0  0  0  0999 V2000
  140.0430   72.5070  220.6970 O   0  0  0  0  0  0  0  0  0  0  0  0
  139.6480   72.7810  221.8770 C   0  0  0  0  0  0  0  0  0  0  0  0
  139.0240   74.0860  222.0680 N   0  0  0  0  0  0  0  0  0  0  0  0
  138.9350   74.8910  220.9070 C   0  0  0  0  0  0  0  0  0  0  0  0
  139.6440   76.1430  220.7790 C   0  0  0  0  0  0  0  0  0  0  0  0
  138.8740   77.1920  220.9840 O   0  0  0  0  0  0  0  0  0  0  0  0
  140.9790   76.4760  220.4850 N   0  0  0  0  0  0  0  0  0  0  0  0
  142.0870   75.5370  220.4850 C   0  0  0  0  0  0  0  0  0  0  0  0
  143.2940   76.0830  219.7500 C   0  0  0  0  0  0  0  0  0  0  0  0
  142.8050   76.8050  218.5260 C   0  0  0  0  0  0  0  0  0  0  0  0
  141.9560   77.9790  218.8910 C   0  0  0  0  0  0  0  0  0  0  0  0
  141.2630   77.8920  220.1880 C   0  0  2  0  0  0  0  0  0  0  0  0
  141.8530   78.5790  221.3590 C   0  0  0  0  0  0  0  0  0  0  0  0
  141.0640   78.1320  222.6000 C   0  0  0  0  0  0  0  0  0  0  0  0
  141.7450   78.6180  223.8610 C   0  0  0  0  0  0  0  0  0  0  0  0
  142.1510   80.0700  223.7550 C   0  0  0  0  0  0  0  0  0  0  0  0
  141.3370   80.6830  222.6310 C   0  0  0  0  0  0  0  0  0  0  0  0
  141.8250   80.0580  221.3360 C   0  0  0  0  0  0  0  0  0  0  0  0
  139.7930   71.8780  222.9860 C   0  0  0  0  0  0  0  0  0  0  0  0
  139.3960   70.5680  222.8140 C   0  0  0  0  0  0  0  0  0  0  0  0
  139.5020   69.6570  223.8190 C   0  0  0  0  0  0  0  0  0  0  0  0
  140.0160   70.0500  225.0320 C   0  0  0  0  0  0  0  0  0  0  0  0
  140.1550   69.1860  226.0990 C   0  0  0  0  0  0  0  0  0  0  0  0
  140.6740   69.5980  227.3090 C   0  0  0  0  0  0  0  0  0  0  0  0
  140.8530   68.5050  228.6660 Cl  0  0  0  0  0  0  0  0  0  0  0  0
  141.0650   70.9260  227.4530 C   0  0  0  0  0  0  0  0  0  0  0  0
  140.9390   71.8190  226.4010 C   0  0  0  0  0  0  0  0  0  0  0  0
  140.4070   71.3490  225.1970 C   0  0  0  0  0  0  0  0  0  0  0  0
  140.2940   72.2430  224.1850 N   0  0  0  0  0  0  0  0  0  0  0  0
  138.7150   74.2510  223.0270 H   0  0  0  0  0  0  0  0  0  0  0  0
  139.2724   74.2610  220.0708 H   0  0  0  0  0  0  0  0  0  0  0  0
  137.8876   75.2253  220.9418 H   0  0  0  0  0  0  0  0  0  0  0  0
  142.3717   75.3237  221.5259 H   0  0  0  0  0  0  0  0  0  0  0  0
  141.7584   74.6239  219.9671 H   0  0  0  0  0  0  0  0  0  0  0  0
  143.8431   76.7800  220.4001 H   0  0  0  0  0  0  0  0  0  0  0  0
  143.9709   75.2639  219.4656 H   0  0  0  0  0  0  0  0  0  0  0  0
  143.6718   77.1559  217.9468 H   0  0  0  0  0  0  0  0  0  0  0  0
  142.1962   76.1077  217.9317 H   0  0  0  0  0  0  0  0  0  0  0  0
  142.6024   78.8688  218.9130 H   0  0  0  0  0  0  0  0  0  0  0  0
  141.1620   78.0206  218.1309 H   0  0  0  0  0  0  0  0  0  0  0  0
  140.3480   78.4835  220.0365 H   0  0  0  0  0  0  0  0  0  0  0  0
  142.9168   78.2992  221.3581 H   0  0  0  0  0  0  0  0  0  0  0  0
  140.0474   78.5496  222.5531 H   0  0  0  0  0  0  0  0  0  0  0  0
  141.0206   77.0330  222.6186 H   0  0  0  0  0  0  0  0  0  0  0  0
  141.0517   78.5029  224.7072 H   0  0  0  0  0  0  0  0  0  0  0  0
  142.6549   78.0184  224.0113 H   0  0  0  0  0  0  0  0  0  0  0  0
  141.9393   80.5904  224.7007 H   0  0  0  0  0  0  0  0  0  0  0  0
  143.2281   80.1602  223.5509 H   0  0  0  0  0  0  0  0  0  0  0  0
  140.2686   80.4651  222.7763 H   0  0  0  0  0  0  0  0  0  0  0  0
  141.4592   81.7760  222.6093 H   0  0  0  0  0  0  0  0  0  0  0  0
  141.1575   80.3794  220.5229 H   0  0  0  0  0  0  0  0  0  0  0  0
  142.8616   80.3953  221.1887 H   0  0  0  0  0  0  0  0  0  0  0  0
  138.9849   70.2532  221.8435 H   0  0  0  0  0  0  0  0  0  0  0  0
  139.1798   68.6169  223.6626 H   0  0  0  0  0  0  0  0  0  0  0  0
  139.8428   68.1378  225.9813 H   0  0  0  0  0  0  0  0  0  0  0  0
  141.4785   71.2704  228.4124 H   0  0  0  0  0  0  0  0  0  0  0  0
  141.2491   72.8687  226.5104 H   0  0  0  0  0  0  0  0  0  0  0  0
  1  2  2  0
  2  3  1  0
  3  4  1  0
  4  5  1  0
  5  6  2  0
  5  7  1  0
  7  8  1  0
  8  9  1  0
  9 10  1  0
 10 11  1  0
 11 12  1  0
 12 13  1  0
 13 14  1  0
 14 15  1  0
 15 16  1  0
 16 17  1  0
 17 18  1  0
  2 19  1  0
 19 20  2  0
 20 21  1  0
 21 22  2  0
 22 23  1  0
 23 24  2  0
 24 25  1  0
 24 26  1  0
 26 27  2  0
 27 28  1  0
 28 29  2  0
 12  7  1  0
 18 13  1  0
 29 19  1  0
 28 22  1  0
  3 30  1  0
  4 31  1  0
  4 32  1  0
  8 33  1  0
  8 34  1  0
  9 35  1  0
  9 36  1  0
 10 37  1  0
 10 38  1  0
 11 39  1  0
 11 40  1  0
 12 41  1  6
 13 42  1  0
 14 43  1  0
 14 44  1  0
 15 45  1  0
 15 46  1  0
 16 47  1  0
 16 48  1  0
 17 49  1  0
 17 50  1  0
 18 51  1  0
 18 52  1  0
 20 53  1  0
 21 54  1  0
 23 55  1  0
 26 56  1  0
 27 57  1  0
M  END
>  <smiles>  (13) 
O=C(NCC(=O)N1CCCCC1C1CCCCC1)c1ccc2cc(Cl)ccc2n1

>  <score_type>  (13) 
oracle

>  <origin>  (13) 
autodockgpu

>  <m_score__min__energy>  (13) 
-9.3699999999999992

>  <m_primary>  (13) 
energy

>  <rmsd>  (13) 
2.1212767577325837

>  <m_score__min__rmsd>  (13) 
2.1212767577325837

>  <meeko>  (13) 
{"free_energy": -9.2, "intermolecular_energy": -10.69, "internal_energy": -1.47, "cluster_size": 38, "cluster_id": 1, "rank_in_cluster": 10}

>  <energy>  (13) 
-9.14

>  <cluster_rmsd>  (13) 
0.58

>  <cluster>  (13) 
1

$$$$

     RDKit          3D

 57 60  0  0  0  0  0  0  0  0999 V2000
  139.3190   72.6430  220.7330 O   0  0  0  0  0  0  0  0  0  0  0  0
  139.4070   72.9310  221.9700 C   0  0  0  0  0  0  0  0  0  0  0  0
  139.2650   74.3410  222.3220 N   0  0  0  0  0  0  0  0  0  0  0  0
  139.0450   75.2180  221.2330 C   0  0  0  0  0  0  0  0  0  0  0  0
  139.9780   75.3380  220.1370 C   0  0  0  0  0  0  0  0  0  0  0  0
  139.4750   74.9330  218.9890 O   0  0  0  0  0  0  0  0  0  0  0  0
  141.3050   75.7960  220.0380 N   0  0  0  0  0  0  0  0  0  0  0  0
  142.4830   74.9810  220.2760 C   0  0  0  0  0  0  0  0  0  0  0  0
  143.7360   75.6160  219.7090 C   0  0  0  0  0  0  0  0  0  0  0  0
  143.3890   76.2230  218.3790 C   0  0  0  0  0  0  0  0  0  0  0  0
  142.3810   77.3150  218.5270 C   0  0  0  0  0  0  0  0  0  0  0  0
  141.4950   77.2180  219.6990 C   0  0  2  0  0  0  0  0  0  0  0  0
  141.8140   78.0200  220.9030 C   0  0  0  0  0  0  0  0  0  0  0  0
  140.7520   77.6960  221.9650 C   0  0  0  0  0  0  0  0  0  0  0  0
  141.1340   78.3060  223.2960 C   0  0  0  0  0  0  0  0  0  0  0  0
  141.5820   79.7420  223.1460 C   0  0  0  0  0  0  0  0  0  0  0  0
  141.0610   80.2380  221.8100 C   0  0  0  0  0  0  0  0  0  0  0  0
  141.8220   79.4890  220.7290 C   0  0  0  0  0  0  0  0  0  0  0  0
  139.6350   71.9490  222.9950 C   0  0  0  0  0  0  0  0  0  0  0  0
  139.3070   70.6370  222.7220 C   0  0  0  0  0  0  0  0  0  0  0  0
  139.4930   69.6530  223.6420 C   0  0  0  0  0  0  0  0  0  0  0  0
  140.0210   69.9720  224.8710 C   0  0  0  0  0  0  0  0  0  0  0  0
  140.2400   69.0310  225.8570 C   0  0  0  0  0  0  0  0  0  0  0  0
  140.7710   69.3710  227.0840 C   0  0  0  0  0  0  0  0  0  0  0  0
  141.0510   68.1800  228.3380 Cl  0  0  0  0  0  0  0  0  0  0  0  0
  141.0920   70.7020  227.3310 C   0  0  0  0  0  0  0  0  0  0  0  0
  140.8850   71.6710  226.3620 C   0  0  0  0  0  0  0  0  0  0  0  0
  140.3440   71.2730  225.1360 C   0  0  0  0  0  0  0  0  0  0  0  0
  140.1520   72.2410  224.2070 N   0  0  0  0  0  0  0  0  0  0  0  0
  139.3330   74.5170  223.3250 H   0  0  0  0  0  0  0  0  0  0  0  0
  138.0854   74.9176  220.7869 H   0  0  0  0  0  0  0  0  0  0  0  0
  139.1313   76.2036  221.7139 H   0  0  0  0  0  0  0  0  0  0  0  0
  142.6109   74.8498  221.3606 H   0  0  0  0  0  0  0  0  0  0  0  0
  142.3346   74.0140  219.7731 H   0  0  0  0  0  0  0  0  0  0  0  0
  144.1002   76.3974  220.3922 H   0  0  0  0  0  0  0  0  0  0  0  0
  144.5263   74.8603  219.5892 H   0  0  0  0  0  0  0  0  0  0  0  0
  144.3015   76.6369  217.9251 H   0  0  0  0  0  0  0  0  0  0  0  0
  142.9585   75.4374  217.7407 H   0  0  0  0  0  0  0  0  0  0  0  0
  142.9248   78.2689  218.5937 H   0  0  0  0  0  0  0  0  0  0  0  0
  141.7232   77.2338  217.6491 H   0  0  0  0  0  0  0  0  0  0  0  0
  140.5647   77.7011  219.3655 H   0  0  0  0  0  0  0  0  0  0  0  0
  142.8434   77.7449  221.1762 H   0  0  0  0  0  0  0  0  0  0  0  0
  139.7822   78.1042  221.6442 H   0  0  0  0  0  0  0  0  0  0  0  0
  140.6832   76.6041  222.0794 H   0  0  0  0  0  0  0  0  0  0  0  0
  140.2625   78.2728  223.9664 H   0  0  0  0  0  0  0  0  0  0  0  0
  141.9727   77.7270  223.7100 H   0  0  0  0  0  0  0  0  0  0  0  0
  141.1685   80.3529  223.9620 H   0  0  0  0  0  0  0  0  0  0  0  0
  142.6787   79.8151  223.1886 H   0  0  0  0  0  0  0  0  0  0  0  0
  139.9838   80.0322  221.7249 H   0  0  0  0  0  0  0  0  0  0  0  0
  141.2067   81.3238  221.7111 H   0  0  0  0  0  0  0  0  0  0  0  0
  141.3660   79.7257  219.7564 H   0  0  0  0  0  0  0  0  0  0  0  0
  142.8711   79.8137  220.7919 H   0  0  0  0  0  0  0  0  0  0  0  0
  138.8858   70.3813  221.7385 H   0  0  0  0  0  0  0  0  0  0  0  0
  139.2239   68.6129  223.4056 H   0  0  0  0  0  0  0  0  0  0  0  0
  139.9838   67.9798  225.6586 H   0  0  0  0  0  0  0  0  0  0  0  0
  141.5145   70.9882  228.3055 H   0  0  0  0  0  0  0  0  0  0  0  0
  141.1394   72.7241  226.5524 H   0  0  0  0  0  0  0  0  0  0  0  0
  1  2  2  0
  2  3  1  0
  3  4  1  0
  4  5  1  0
  5  6  2  0
  5  7  1  0
  7  8  1  0
  8  9  1  0
  9 10  1  0
 10 11  1  0
 11 12  1  0
 12 13  1  0
 13 14  1  0
 14 15  1  0
 15 16  1  0
 16 17  1  0
 17 18  1  0
  2 19  1  0
 19 20  2  0
 20 21  1  0
 21 22  2  0
 22 23  1  0
 23 24  2  0
 24 25  1  0
 24 26  1  0
 26 27  2  0
 27 28  1  0
 28 29  2  0
 12  7  1  0
 18 13  1  0
 29 19  1  0
 28 22  1  0
  3 30  1  0
  4 31  1  0
  4 32  1  0
  8 33  1  0
  8 34  1  0
  9 35  1  0
  9 36  1  0
 10 37  1  0
 10 38  1  0
 11 39  1  0
 11 40  1  0
 12 41  1  6
 13 42  1  0
 14 43  1  0
 14 44  1  0
 15 45  1  0
 15 46  1  0
 16 47  1  0
 16 48  1  0
 17 49  1  0
 17 50  1  0
 18 51  1  0
 18 52  1  0
 20 53  1  0
 21 54  1  0
 23 55  1  0
 26 56  1  0
 27 57  1  0
M  END
>  <smiles>  (14) 
O=C(NCC(=O)N1CCCCC1C1CCCCC1)c1ccc2cc(Cl)ccc2n1

>  <score_type>  (14) 
oracle

>  <origin>  (14) 
autodockgpu

>  <m_score__min__energy>  (14) 
-9.3699999999999992

>  <m_primary>  (14) 
energy

>  <rmsd>  (14) 
2.2250313970531783

>  <m_score__min__rmsd>  (14) 
2.2250313970531783

>  <meeko>  (14) 
{"free_energy": -8.27, "intermolecular_energy": -9.76, "internal_energy": -1.59, "cluster_size": 38, "cluster_id": 1, "rank_in_cluster": 31}

>  <energy>  (14) 
-9.1

>  <cluster_rmsd>  (14) 
0.75

>  <cluster>  (14) 
1

$$$$

     RDKit          3D

 57 60  0  0  0  0  0  0  0  0999 V2000
  139.3090   72.1180  220.8410 O   0  0  0  0  0  0  0  0  0  0  0  0
  139.4680   72.4900  222.0490 C   0  0  0  0  0  0  0  0  0  0  0  0
  139.4250   73.9280  222.2980 N   0  0  0  0  0  0  0  0  0  0  0  0
  139.2090   74.7350  221.1560 C   0  0  0  0  0  0  0  0  0  0  0  0
  139.7850   76.0540  221.0220 C   0  0  0  0  0  0  0  0  0  0  0  0
  138.9420   77.0150  221.3390 O   0  0  0  0  0  0  0  0  0  0  0  0
  141.0510   76.5240  220.6280 N   0  0  0  0  0  0  0  0  0  0  0  0
  142.2240   75.6890  220.4400 C   0  0  0  0  0  0  0  0  0  0  0  0
  143.2990   76.3930  219.6390 C   0  0  0  0  0  0  0  0  0  0  0  0
  142.6300   77.1600  218.5350 C   0  0  0  0  0  0  0  0  0  0  0  0
  141.7320   78.2230  219.0790 C   0  0  0  0  0  0  0  0  0  0  0  0
  141.1870   77.9780  220.4240 C   0  0  2  0  0  0  0  0  0  0  0  0
  141.8400   78.6240  221.5870 C   0  0  0  0  0  0  0  0  0  0  0  0
  140.8700   78.5210  222.7740 C   0  0  0  0  0  0  0  0  0  0  0  0
  141.5520   78.9600  224.0520 C   0  0  0  0  0  0  0  0  0  0  0  0
  142.3190   80.2490  223.8630 C   0  0  0  0  0  0  0  0  0  0  0  0
  141.7750   80.9160  222.6130 C   0  0  0  0  0  0  0  0  0  0  0  0
  142.1880   80.0530  221.4330 C   0  0  0  0  0  0  0  0  0  0  0  0
  139.6820   71.5730  223.1340 C   0  0  0  0  0  0  0  0  0  0  0  0
  139.3660   70.2450  222.9360 C   0  0  0  0  0  0  0  0  0  0  0  0
  139.5400   69.3190  223.9170 C   0  0  0  0  0  0  0  0  0  0  0  0
  140.0440   69.7150  225.1330 C   0  0  0  0  0  0  0  0  0  0  0  0
  140.2490   68.8370  226.1780 C   0  0  0  0  0  0  0  0  0  0  0  0
  140.7550   69.2530  227.3920 C   0  0  0  0  0  0  0  0  0  0  0  0
  141.0180   68.1420  228.7210 Cl  0  0  0  0  0  0  0  0  0  0  0  0
  141.0650   70.5990  227.5630 C   0  0  0  0  0  0  0  0  0  0  0  0
  140.8710   71.5070  226.5350 C   0  0  0  0  0  0  0  0  0  0  0  0
  140.3550   71.0320  225.3250 C   0  0  0  0  0  0  0  0  0  0  0  0
  140.1750   71.9400  224.3370 N   0  0  0  0  0  0  0  0  0  0  0  0
  139.5460   74.1720  223.2820 H   0  0  0  0  0  0  0  0  0  0  0  0
  139.5727   74.1530  220.2963 H   0  0  0  0  0  0  0  0  0  0  0  0
  138.1359   74.9625  221.2377 H   0  0  0  0  0  0  0  0  0  0  0  0
  142.6326   75.4233  221.4262 H   0  0  0  0  0  0  0  0  0  0  0  0
  141.9168   74.7923  219.8819 H   0  0  0  0  0  0  0  0  0  0  0  0
  143.8561   77.0840  220.2888 H   0  0  0  0  0  0  0  0  0  0  0  0
  144.0047   75.6601  219.2210 H   0  0  0  0  0  0  0  0  0  0  0  0
  143.4012   77.6295  217.9066 H   0  0  0  0  0  0  0  0  0  0  0  0
  142.0208   76.4593  217.9453 H   0  0  0  0  0  0  0  0  0  0  0  0
  142.3036   79.1622  219.1129 H   0  0  0  0  0  0  0  0  0  0  0  0
  140.8623   78.2510  218.4060 H   0  0  0  0  0  0  0  0  0  0  0  0
  140.2167   78.4960  220.4115 H   0  0  0  0  0  0  0  0  0  0  0  0
  142.7952   78.0949  221.7198 H   0  0  0  0  0  0  0  0  0  0  0  0
  139.9992   79.1667  222.5876 H   0  0  0  0  0  0  0  0  0  0  0  0
  140.5483   77.4747  222.8823 H   0  0  0  0  0  0  0  0  0  0  0  0
  140.7888   79.1102  224.8298 H   0  0  0  0  0  0  0  0  0  0  0  0
  142.2659   78.1765  224.3459 H   0  0  0  0  0  0  0  0  0  0  0  0
  142.1737   80.9051  224.7339 H   0  0  0  0  0  0  0  0  0  0  0  0
  143.3964   80.0511  223.7625 H   0  0  0  0  0  0  0  0  0  0  0  0
  140.6783   80.9822  222.6670 H   0  0  0  0  0  0  0  0  0  0  0  0
  142.1702   81.9373  222.5096 H   0  0  0  0  0  0  0  0  0  0  0  0
  141.6880   80.4363  220.5313 H   0  0  0  0  0  0  0  0  0  0  0  0
  143.2843   80.1097  221.3632 H   0  0  0  0  0  0  0  0  0  0  0  0
  138.9641   69.9276  221.9625 H   0  0  0  0  0  0  0  0  0  0  0  0
  139.2803   68.2650  223.7392 H   0  0  0  0  0  0  0  0  0  0  0  0
  140.0016   67.7743  226.0387 H   0  0  0  0  0  0  0  0  0  0  0  0
  141.4688   70.9458  228.5257 H   0  0  0  0  0  0  0  0  0  0  0  0
  141.1158   72.5713  226.6666 H   0  0  0  0  0  0  0  0  0  0  0  0
  1  2  2  0
  2  3  1  0
  3  4  1  0
  4  5  1  0
  5  6  2  0
  5  7  1  0
  7  8  1  0
  8  9  1  0
  9 10  1  0
 10 11  1  0
 11 12  1  0
 12 13  1  0
 13 14  1  0
 14 15  1  0
 15 16  1  0
 16 17  1  0
 17 18  1  0
  2 19  1  0
 19 20  2  0
 20 21  1  0
 21 22  2  0
 22 23  1  0
 23 24  2  0
 24 25  1  0
 24 26  1  0
 26 27  2  0
 27 28  1  0
 28 29  2  0
 12  7  1  0
 18 13  1  0
 29 19  1  0
 28 22  1  0
  3 30  1  0
  4 31  1  0
  4 32  1  0
  8 33  1  0
  8 34  1  0
  9 35  1  0
  9 36  1  0
 10 37  1  0
 10 38  1  0
 11 39  1  0
 11 40  1  0
 12 41  1  6
 13 42  1  0
 14 43  1  0
 14 44  1  0
 15 45  1  0
 15 46  1  0
 16 47  1  0
 16 48  1  0
 17 49  1  0
 17 50  1  0
 18 51  1  0
 18 52  1  0
 20 53  1  0
 21 54  1  0
 23 55  1  0
 26 56  1  0
 27 57  1  0
M  END
>  <smiles>  (15) 
O=C(NCC(=O)N1CCCCC1C1CCCCC1)c1ccc2cc(Cl)ccc2n1

>  <score_type>  (15) 
oracle

>  <origin>  (15) 
autodockgpu

>  <m_score__min__energy>  (15) 
-9.3699999999999992

>  <m_primary>  (15) 
energy

>  <rmsd>  (15) 
2.083027497364875

>  <m_score__min__rmsd>  (15) 
2.083027497364875

>  <meeko>  (15) 
{"free_energy": -9.2, "intermolecular_energy": -10.69, "internal_energy": -1.52, "cluster_size": 38, "cluster_id": 1, "rank_in_cluster": 9}

>  <energy>  (15) 
-9.09

>  <cluster_rmsd>  (15) 
0.75

>  <cluster>  (15) 
1

$$$$

     RDKit          3D

 57 60  0  0  0  0  0  0  0  0999 V2000
  138.8090   71.8270  220.6510 O   0  0  0  0  0  0  0  0  0  0  0  0
  138.9830   72.2820  221.8270 C   0  0  0  0  0  0  0  0  0  0  0  0
  138.8650   73.7280  221.9900 N   0  0  0  0  0  0  0  0  0  0  0  0
  138.5690   74.4480  220.8090 C   0  0  0  0  0  0  0  0  0  0  0  0
  139.5200   75.3450  220.1920 C   0  0  0  0  0  0  0  0  0  0  0  0
  138.9520   76.2180  219.3850 O   0  0  0  0  0  0  0  0  0  0  0  0
  140.9180   75.4810  220.2730 N   0  0  0  0  0  0  0  0  0  0  0  0
  141.8130   74.5040  220.8650 C   0  0  0  0  0  0  0  0  0  0  0  0
  143.2530   74.7270  220.4490 C   0  0  0  0  0  0  0  0  0  0  0  0
  143.2630   75.1020  218.9940 C   0  0  0  0  0  0  0  0  0  0  0  0
  142.5420   76.3890  218.7600 C   0  0  0  0  0  0  0  0  0  0  0  0
  141.4970   76.7280  219.7410 C   0  0  2  0  0  0  0  0  0  0  0  0
  141.8220   77.6780  220.8300 C   0  0  0  0  0  0  0  0  0  0  0  0
  140.7740   77.4820  221.9370 C   0  0  0  0  0  0  0  0  0  0  0  0
  141.1650   78.2580  223.1770 C   0  0  0  0  0  0  0  0  0  0  0  0
  141.6000   79.6660  222.8420 C   0  0  0  0  0  0  0  0  0  0  0  0
  141.0600   79.9870  221.4600 C   0  0  0  0  0  0  0  0  0  0  0  0
  141.8160   79.1130  220.4740 C   0  0  0  0  0  0  0  0  0  0  0  0
  139.2820   71.4480  222.9590 C   0  0  0  0  0  0  0  0  0  0  0  0
  138.9270   70.1160  222.8970 C   0  0  0  0  0  0  0  0  0  0  0  0
  139.1770   69.2660  223.9300 C   0  0  0  0  0  0  0  0  0  0  0  0
  139.7970   69.7450  225.0590 C   0  0  0  0  0  0  0  0  0  0  0  0
  140.0850   68.9460  226.1480 C   0  0  0  0  0  0  0  0  0  0  0  0
  140.7080   69.4440  227.2730 C   0  0  0  0  0  0  0  0  0  0  0  0
  141.0750   68.4350  228.6580 Cl  0  0  0  0  0  0  0  0  0  0  0  0
  141.0540   70.7920  227.3070 C   0  0  0  0  0  0  0  0  0  0  0  0
  140.7790   71.6200  226.2310 C   0  0  0  0  0  0  0  0  0  0  0  0
  140.1460   71.0650  225.1160 C   0  0  0  0  0  0  0  0  0  0  0  0
  139.8890   71.8970  224.0780 N   0  0  0  0  0  0  0  0  0  0  0  0
  139.0020   74.0400  222.9520 H   0  0  0  0  0  0  0  0  0  0  0  0
  138.3179   73.6960  220.0465 H   0  0  0  0  0  0  0  0  0  0  0  0
  137.7914   75.1444  221.1560 H   0  0  0  0  0  0  0  0  0  0  0  0
  141.7444   74.5776  221.9604 H   0  0  0  0  0  0  0  0  0  0  0  0
  141.5084   73.5073  220.5130 H   0  0  0  0  0  0  0  0  0  0  0  0
  143.6929   75.5389  221.0468 H   0  0  0  0  0  0  0  0  0  0  0  0
  143.8439   73.8137  220.6124 H   0  0  0  0  0  0  0  0  0  0  0  0
  144.3052   75.2091  218.6588 H   0  0  0  0  0  0  0  0  0  0  0  0
  142.7514   74.3097  218.4279 H   0  0  0  0  0  0  0  0  0  0  0  0
  143.2866   77.1987  218.7672 H   0  0  0  0  0  0  0  0  0  0  0  0
  142.0205   76.2678  217.7991 H   0  0  0  0  0  0  0  0  0  0  0  0
  140.7718   77.3160  219.1593 H   0  0  0  0  0  0  0  0  0  0  0  0
  142.8571   77.4474  221.1224 H   0  0  0  0  0  0  0  0  0  0  0  0
  139.7972   77.8392  221.5788 H   0  0  0  0  0  0  0  0  0  0  0  0
  140.7162   76.4127  222.1885 H   0  0  0  0  0  0  0  0  0  0  0  0
  140.3007   78.3041  223.8559 H   0  0  0  0  0  0  0  0  0  0  0  0
  142.0123   77.7414  223.6515 H   0  0  0  0  0  0  0  0  0  0  0  0
  141.1910   80.3722  223.5796 H   0  0  0  0  0  0  0  0  0  0  0  0
  142.6966   79.7505  222.8616 H   0  0  0  0  0  0  0  0  0  0  0  0
  139.9837   79.7647  221.4139 H   0  0  0  0  0  0  0  0  0  0  0  0
  141.1948   81.0528  221.2236 H   0  0  0  0  0  0  0  0  0  0  0  0
  141.3485   79.2227  219.4843 H   0  0  0  0  0  0  0  0  0  0  0  0
  142.8631   79.4499  220.4852 H   0  0  0  0  0  0  0  0  0  0  0  0
  138.4311   69.7329  221.9929 H   0  0  0  0  0  0  0  0  0  0  0  0
  138.8860   68.2074  223.8620 H   0  0  0  0  0  0  0  0  0  0  0  0
  139.8095   67.8815  226.1171 H   0  0  0  0  0  0  0  0  0  0  0  0
  141.5510   71.2040  228.1977 H   0  0  0  0  0  0  0  0  0  0  0  0
  141.0516   72.6854  226.2538 H   0  0  0  0  0  0  0  0  0  0  0  0
  1  2  2  0
  2  3  1  0
  3  4  1  0
  4  5  1  0
  5  6  2  0
  5  7  1  0
  7  8  1  0
  8  9  1  0
  9 10  1  0
 10 11  1  0
 11 12  1  0
 12 13  1  0
 13 14  1  0
 14 15  1  0
 15 16  1  0
 16 17  1  0
 17 18  1  0
  2 19  1  0
 19 20  2  0
 20 21  1  0
 21 22  2  0
 22 23  1  0
 23 24  2  0
 24 25  1  0
 24 26  1  0
 26 27  2  0
 27 28  1  0
 28 29  2  0
 12  7  1  0
 18 13  1  0
 29 19  1  0
 28 22  1  0
  3 30  1  0
  4 31  1  0
  4 32  1  0
  8 33  1  0
  8 34  1  0
  9 35  1  0
  9 36  1  0
 10 37  1  0
 10 38  1  0
 11 39  1  0
 11 40  1  0
 12 41  1  6
 13 42  1  0
 14 43  1  0
 14 44  1  0
 15 45  1  0
 15 46  1  0
 16 47  1  0
 16 48  1  0
 17 49  1  0
 17 50  1  0
 18 51  1  0
 18 52  1  0
 20 53  1  0
 21 54  1  0
 23 55  1  0
 26 56  1  0
 27 57  1  0
M  END
>  <smiles>  (16) 
O=C(NCC(=O)N1CCCCC1C1CCCCC1)c1ccc2cc(Cl)ccc2n1

>  <score_type>  (16) 
oracle

>  <origin>  (16) 
autodockgpu

>  <m_score__min__energy>  (16) 
-9.3699999999999992

>  <m_primary>  (16) 
energy

>  <rmsd>  (16) 
2.05183372018877

>  <m_score__min__rmsd>  (16) 
2.05183372018877

>  <meeko>  (16) 
{"free_energy": -8.22, "intermolecular_energy": -9.71, "internal_energy": -1.69, "cluster_size": 38, "cluster_id": 1, "rank_in_cluster": 32}

>  <energy>  (16) 
-9.05

>  <cluster_rmsd>  (16) 
0.76

>  <cluster>  (16) 
1

$$$$

     RDKit          3D

 57 60  0  0  0  0  0  0  0  0999 V2000
  139.6310   72.1080  220.8000 O   0  0  0  0  0  0  0  0  0  0  0  0
  139.6560   72.4810  222.0170 C   0  0  0  0  0  0  0  0  0  0  0  0
  139.5240   73.9150  222.2610 N   0  0  0  0  0  0  0  0  0  0  0  0
  139.3830   74.7160  221.1030 C   0  0  0  0  0  0  0  0  0  0  0  0
  139.8810   76.0710  221.0360 C   0  0  0  0  0  0  0  0  0  0  0  0
  139.0470   76.9490  221.5550 O   0  0  0  0  0  0  0  0  0  0  0  0
  141.0630   76.6470  220.5360 N   0  0  0  0  0  0  0  0  0  0  0  0
  142.2460   75.9020  220.1420 C   0  0  0  0  0  0  0  0  0  0  0  0
  143.1780   76.7310  219.2820 C   0  0  0  0  0  0  0  0  0  0  0  0
  142.3400   77.5390  218.3330 C   0  0  0  0  0  0  0  0  0  0  0  0
  141.4620   78.5000  219.0670 C   0  0  0  0  0  0  0  0  0  0  0  0
  141.1000   78.1180  220.4420 C   0  0  2  0  0  0  0  0  0  0  0  0
  141.8560   78.7100  221.5700 C   0  0  0  0  0  0  0  0  0  0  0  0
  140.9910   78.5620  222.8310 C   0  0  0  0  0  0  0  0  0  0  0  0
  141.7840   78.9420  224.0630 C   0  0  0  0  0  0  0  0  0  0  0  0
  142.5440   80.2330  223.8630 C   0  0  0  0  0  0  0  0  0  0  0  0
  141.9020   80.9560  222.6930 C   0  0  0  0  0  0  0  0  0  0  0  0
  142.2040   80.1420  221.4470 C   0  0  0  0  0  0  0  0  0  0  0  0
  139.8060   71.5700  223.1180 C   0  0  0  0  0  0  0  0  0  0  0  0
  139.4170   70.2600  222.9360 C   0  0  0  0  0  0  0  0  0  0  0  0
  139.5270   69.3400  223.9320 C   0  0  0  0  0  0  0  0  0  0  0  0
  140.0390   69.7260  225.1480 C   0  0  0  0  0  0  0  0  0  0  0  0
  140.1830   68.8540  226.2080 C   0  0  0  0  0  0  0  0  0  0  0  0
  140.6990   69.2590  227.4220 C   0  0  0  0  0  0  0  0  0  0  0  0
  140.8840   68.1550  228.7700 Cl  0  0  0  0  0  0  0  0  0  0  0  0
  141.0830   70.5870  227.5770 C   0  0  0  0  0  0  0  0  0  0  0  0
  140.9510   71.4890  226.5330 C   0  0  0  0  0  0  0  0  0  0  0  0
  140.4230   71.0260  225.3250 C   0  0  0  0  0  0  0  0  0  0  0  0
  140.3050   71.9280  224.3210 N   0  0  0  0  0  0  0  0  0  0  0  0
  139.5400   74.1600  223.2520 H   0  0  0  0  0  0  0  0  0  0  0  0
  139.8780   74.1669  220.2885 H   0  0  0  0  0  0  0  0  0  0  0  0
  138.2947   74.8713  221.0647 H   0  0  0  0  0  0  0  0  0  0  0  0
  142.7849   75.5863  221.0475 H   0  0  0  0  0  0  0  0  0  0  0  0
  141.9197   75.0339  219.5505 H   0  0  0  0  0  0  0  0  0  0  0  0
  143.7740   77.4023  219.9177 H   0  0  0  0  0  0  0  0  0  0  0  0
  143.8643   76.0775  218.7235 H   0  0  0  0  0  0  0  0  0  0  0  0
  143.0031   78.1020  217.6597 H   0  0  0  0  0  0  0  0  0  0  0  0
  141.6998   76.8501  217.7624 H   0  0  0  0  0  0  0  0  0  0  0  0
  141.9844   79.4670  219.1122 H   0  0  0  0  0  0  0  0  0  0  0  0
  140.5159   78.5272  218.5064 H   0  0  0  0  0  0  0  0  0  0  0  0
  140.1108   78.5761  220.5891 H   0  0  0  0  0  0  0  0  0  0  0  0
  142.8140   78.1700  221.5973 H   0  0  0  0  0  0  0  0  0  0  0  0
  140.1134   79.2200  222.7477 H   0  0  0  0  0  0  0  0  0  0  0  0
  140.6704   77.5137  222.9225 H   0  0  0  0  0  0  0  0  0  0  0  0
  141.0916   79.0635  224.9091 H   0  0  0  0  0  0  0  0  0  0  0  0
  142.5129   78.1424  224.2615 H   0  0  0  0  0  0  0  0  0  0  0  0
  142.4797   80.8524  224.7698 H   0  0  0  0  0  0  0  0  0  0  0  0
  143.6069   80.0330  223.6623 H   0  0  0  0  0  0  0  0  0  0  0  0
  140.8146   81.0267  222.8435 H   0  0  0  0  0  0  0  0  0  0  0  0
  142.2973   81.9782  222.5990 H   0  0  0  0  0  0  0  0  0  0  0  0
  141.6327   80.5668  220.6085 H   0  0  0  0  0  0  0  0  0  0  0  0
  143.2909   80.1946  221.2859 H   0  0  0  0  0  0  0  0  0  0  0  0
  139.0081   69.9514  221.9626 H   0  0  0  0  0  0  0  0  0  0  0  0
  139.2101   68.2997  223.7664 H   0  0  0  0  0  0  0  0  0  0  0  0
  139.8773   67.8049  226.0813 H   0  0  0  0  0  0  0  0  0  0  0  0
  141.4960   70.9250  228.5389 H   0  0  0  0  0  0  0  0  0  0  0  0
  141.2534   72.5399  226.6521 H   0  0  0  0  0  0  0  0  0  0  0  0
  1  2  2  0
  2  3  1  0
  3  4  1  0
  4  5  1  0
  5  6  2  0
  5  7  1  0
  7  8  1  0
  8  9  1  0
  9 10  1  0
 10 11  1  0
 11 12  1  0
 12 13  1  0
 13 14  1  0
 14 15  1  0
 15 16  1  0
 16 17  1  0
 17 18  1  0
  2 19  1  0
 19 20  2  0
 20 21  1  0
 21 22  2  0
 22 23  1  0
 23 24  2  0
 24 25  1  0
 24 26  1  0
 26 27  2  0
 27 28  1  0
 28 29  2  0
 12  7  1  0
 18 13  1  0
 29 19  1  0
 28 22  1  0
  3 30  1  0
  4 31  1  0
  4 32  1  0
  8 33  1  0
  8 34  1  0
  9 35  1  0
  9 36  1  0
 10 37  1  0
 10 38  1  0
 11 39  1  0
 11 40  1  0
 12 41  1  1
 13 42  1  0
 14 43  1  0
 14 44  1  0
 15 45  1  0
 15 46  1  0
 16 47  1  0
 16 48  1  0
 17 49  1  0
 17 50  1  0
 18 51  1  0
 18 52  1  0
 20 53  1  0
 21 54  1  0
 23 55  1  0
 26 56  1  0
 27 57  1  0
M  END
>  <smiles>  (17) 
O=C(NCC(=O)N1CCCCC1C1CCCCC1)c1ccc2cc(Cl)ccc2n1

>  <score_type>  (17) 
oracle

>  <origin>  (17) 
autodockgpu

>  <m_score__min__energy>  (17) 
-9.3699999999999992

>  <m_primary>  (17) 
energy

>  <rmsd>  (17) 
2.073696791371654

>  <m_score__min__rmsd>  (17) 
2.073696791371654

>  <meeko>  (17) 
{"free_energy": -9.29, "intermolecular_energy": -10.78, "internal_energy": -1.48, "cluster_size": 38, "cluster_id": 1, "rank_in_cluster": 7}

>  <energy>  (17) 
-9.0

>  <cluster_rmsd>  (17) 
0.77

>  <cluster>  (17) 
1

$$$$

     RDKit          3D

 57 60  0  0  0  0  0  0  0  0999 V2000
  133.6310   69.6870  226.8330 O   0  0  0  0  0  0  0  0  0  0  0  0
  133.9970   70.8110  226.3590 C   0  0  0  0  0  0  0  0  0  0  0  0
  135.1430   70.7940  225.4550 N   0  0  0  0  0  0  0  0  0  0  0  0
  135.7080   69.5180  225.2170 C   0  0  0  0  0  0  0  0  0  0  0  0
  136.4250   69.2050  224.0020 C   0  0  0  0  0  0  0  0  0  0  0  0
  135.7110   68.4950  223.1540 O   0  0  0  0  0  0  0  0  0  0  0  0
  137.7200   69.5000  223.5370 N   0  0  0  0  0  0  0  0  0  0  0  0
  138.3280   68.9190  222.3530 C   0  0  0  0  0  0  0  0  0  0  0  0
  139.5310   69.7120  221.8860 C   0  0  0  0  0  0  0  0  0  0  0  0
  139.2120   71.1720  222.0350 C   0  0  0  0  0  0  0  0  0  0  0  0
  138.9850   71.5360  223.4660 C   0  0  0  0  0  0  0  0  0  0  0  0
  138.5160   70.4470  224.3390 C   0  0  2  0  0  0  0  0  0  0  0  0
  139.5010   69.7380  225.1870 C   0  0  0  0  0  0  0  0  0  0  0  0
  138.8100   68.4810  225.7400 C   0  0  0  0  0  0  0  0  0  0  0  0
  139.8160   67.5890  226.4350 C   0  0  0  0  0  0  0  0  0  0  0  0
  140.7190   68.3760  227.3580 C   0  0  0  0  0  0  0  0  0  0  0  0
  140.0290   69.6970  227.6420 C   0  0  0  0  0  0  0  0  0  0  0  0
  140.0310   70.4880  226.3460 C   0  0  0  0  0  0  0  0  0  0  0  0
  133.3420   72.0510  226.6750 C   0  0  0  0  0  0  0  0  0  0  0  0
  132.0820   71.9970  227.2330 C   0  0  0  0  0  0  0  0  0  0  0  0
  131.3990   73.1290  227.5570 C   0  0  0  0  0  0  0  0  0  0  0  0
  131.9800   74.3530  227.3240 C   0  0  0  0  0  0  0  0  0  0  0  0
  131.3530   75.5450  227.6250 C   0  0  0  0  0  0  0  0  0  0  0  0
  131.9510   76.7650  227.3840 C   0  0  0  0  0  0  0  0  0  0  0  0
  131.1590   78.2810  227.7640 Cl  0  0  0  0  0  0  0  0  0  0  0  0
  133.2230   76.7880  226.8200 C   0  0  0  0  0  0  0  0  0  0  0  0
  133.8800   75.6090  226.5060 C   0  0  0  0  0  0  0  0  0  0  0  0
  133.2280   74.4010  226.7700 C   0  0  0  0  0  0  0  0  0  0  0  0
  133.8930   73.2630  226.4540 N   0  0  0  0  0  0  0  0  0  0  0  0
  135.3880   71.7170  225.0950 H   0  0  0  0  0  0  0  0  0  0  0  0
  136.4108   69.3352  226.0432 H   0  0  0  0  0  0  0  0  0  0  0  0
  134.8122   68.8868  225.1215 H   0  0  0  0  0  0  0  0  0  0  0  0
  138.6477   67.8924  222.5852 H   0  0  0  0  0  0  0  0  0  0  0  0
  137.5799   68.9298  221.5466 H   0  0  0  0  0  0  0  0  0  0  0  0
  140.4073   69.4570  222.5001 H   0  0  0  0  0  0  0  0  0  0  0  0
  139.7593   69.4764  220.8361 H   0  0  0  0  0  0  0  0  0  0  0  0
  140.0527   71.7639  221.6440 H   0  0  0  0  0  0  0  0  0  0  0  0
  138.2907   71.3846  221.4729 H   0  0  0  0  0  0  0  0  0  0  0  0
  139.9359   71.9094  223.8739 H   0  0  0  0  0  0  0  0  0  0  0  0
  138.1765   72.2818  223.4592 H   0  0  0  0  0  0  0  0  0  0  0  0
  137.9154   70.9633  225.1023 H   0  0  0  0  0  0  0  0  0  0  0  0
  140.3655   69.5455  224.5347 H   0  0  0  0  0  0  0  0  0  0  0  0
  138.0336   68.7809  226.4592 H   0  0  0  0  0  0  0  0  0  0  0  0
  138.3574   67.9259  224.9051 H   0  0  0  0  0  0  0  0  0  0  0  0
  139.2753   66.8337  227.0242 H   0  0  0  0  0  0  0  0  0  0  0  0
  140.4426   67.1147  225.6653 H   0  0  0  0  0  0  0  0  0  0  0  0
  140.8738   67.8225  228.2959 H   0  0  0  0  0  0  0  0  0  0  0  0
  141.7027   68.5411  226.8944 H   0  0  0  0  0  0  0  0  0  0  0  0
  138.9956   69.5194  227.9743 H   0  0  0  0  0  0  0  0  0  0  0  0
  140.5502   70.2482  228.4385 H   0  0  0  0  0  0  0  0  0  0  0  0
  139.4142   71.3877  226.4881 H   0  0  0  0  0  0  0  0  0  0  0  0
  141.0803   70.7277  226.1192 H   0  0  0  0  0  0  0  0  0  0  0  0
  131.6185   71.0172  227.4205 H   0  0  0  0  0  0  0  0  0  0  0  0
  130.3942   73.0652  228.0000 H   0  0  0  0  0  0  0  0  0  0  0  0
  130.3473   75.5219  228.0700 H   0  0  0  0  0  0  0  0  0  0  0  0
  133.7124   77.7529  226.6212 H   0  0  0  0  0  0  0  0  0  0  0  0
  134.8861   75.6233  226.0616 H   0  0  0  0  0  0  0  0  0  0  0  0
  1  2  2  0
  2  3  1  0
  3  4  1  0
  4  5  1  0
  5  6  2  0
  5  7  1  0
  7  8  1  0
  8  9  1  0
  9 10  1  0
 10 11  1  0
 11 12  1  0
 12 13  1  0
 13 14  1  0
 14 15  1  0
 15 16  1  0
 16 17  1  0
 17 18  1  0
  2 19  1  0
 19 20  2  0
 20 21  1  0
 21 22  2  0
 22 23  1  0
 23 24  2  0
 24 25  1  0
 24 26  1  0
 26 27  2  0
 27 28  1  0
 28 29  2  0
 12  7  1  0
 18 13  1  0
 29 19  1  0
 28 22  1  0
  3 30  1  0
  4 31  1  0
  4 32  1  0
  8 33  1  0
  8 34  1  0
  9 35  1  0
  9 36  1  0
 10 37  1  0
 10 38  1  0
 11 39  1  0
 11 40  1  0
 12 41  1  1
 13 42  1  0
 14 43  1  0
 14 44  1  0
 15 45  1  0
 15 46  1  0
 16 47  1  0
 16 48  1  0
 17 49  1  0
 17 50  1  0
 18 51  1  0
 18 52  1  0
 20 53  1  0
 21 54  1  0
 23 55  1  0
 26 56  1  0
 27 57  1  0
M  END
>  <smiles>  (18) 
O=C(NCC(=O)N1CCCCC1C1CCCCC1)c1ccc2cc(Cl)ccc2n1

>  <score_type>  (18) 
oracle

>  <origin>  (18) 
autodockgpu

>  <m_score__min__energy>  (18) 
-9.3699999999999992

>  <m_primary>  (18) 
energy

>  <rmsd>  (18) 
8.279425451006105

>  <m_score__min__rmsd>  (18) 
8.279425451006105

>  <meeko>  (18) 
{"free_energy": -8.48, "intermolecular_energy": -9.97, "internal_energy": -1.57, "cluster_size": 4, "cluster_id": 3, "rank_in_cluster": 1}

>  <energy>  (18) 
-8.97

>  <cluster_rmsd>  (18) 
0.73

>  <cluster>  (18) 
1

$$$$

     RDKit          3D

 57 60  0  0  0  0  0  0  0  0999 V2000
  138.9890   71.9700  220.7940 O   0  0  0  0  0  0  0  0  0  0  0  0
  139.2760   72.3820  221.9640 C   0  0  0  0  0  0  0  0  0  0  0  0
  139.3490   73.8290  222.1450 N   0  0  0  0  0  0  0  0  0  0  0  0
  139.0890   74.5980  220.9860 C   0  0  0  0  0  0  0  0  0  0  0  0
  139.8440   74.4360  219.7650 C   0  0  0  0  0  0  0  0  0  0  0  0
  139.2040   73.7280  218.8570 O   0  0  0  0  0  0  0  0  0  0  0  0
  141.1130   74.8730  219.3430 N   0  0  0  0  0  0  0  0  0  0  0  0
  141.5660   74.8980  217.9640 C   0  0  0  0  0  0  0  0  0  0  0  0
  142.7850   75.7790  217.7830 C   0  0  0  0  0  0  0  0  0  0  0  0
  142.6020   77.0070  218.6280 C   0  0  0  0  0  0  0  0  0  0  0  0
  142.5310   76.6620  220.0800 C   0  0  0  0  0  0  0  0  0  0  0  0
  142.0520   75.3060  220.3950 C   0  0  2  0  0  0  0  0  0  0  0  0
  143.0450   74.2490  220.6970 C   0  0  0  0  0  0  0  0  0  0  0  0
  144.4160   74.7600  220.2260 C   0  0  0  0  0  0  0  0  0  0  0  0
  145.5150   73.8330  220.6990 C   0  0  0  0  0  0  0  0  0  0  0  0
  145.1680   72.3820  220.4540 C   0  0  0  0  0  0  0  0  0  0  0  0
  144.0690   72.3540  219.4060 C   0  0  0  0  0  0  0  0  0  0  0  0
  142.8240   72.9370  220.0510 C   0  0  0  0  0  0  0  0  0  0  0  0
  139.5230   71.5010  223.0730 C   0  0  0  0  0  0  0  0  0  0  0  0
  139.1710   70.1740  222.9390 C   0  0  0  0  0  0  0  0  0  0  0  0
  139.3720   69.2810  223.9450 C   0  0  0  0  0  0  0  0  0  0  0  0
  139.9410   69.7110  225.1210 C   0  0  0  0  0  0  0  0  0  0  0  0
  140.1780   68.8670  226.1870 C   0  0  0  0  0  0  0  0  0  0  0  0
  140.7490   69.3160  227.3600 C   0  0  0  0  0  0  0  0  0  0  0  0
  141.0530   68.2490  228.7160 Cl  0  0  0  0  0  0  0  0  0  0  0  0
  141.0950   70.6600  227.4660 C   0  0  0  0  0  0  0  0  0  0  0  0
  140.8700   71.5340  226.4140 C   0  0  0  0  0  0  0  0  0  0  0  0
  140.2880   71.0260  225.2480 C   0  0  0  0  0  0  0  0  0  0  0  0
  140.0790   71.9020  224.2360 N   0  0  0  0  0  0  0  0  0  0  0  0
  139.5710   74.1080  223.1010 H   0  0  0  0  0  0  0  0  0  0  0  0
  138.0376   74.4096  220.7231 H   0  0  0  0  0  0  0  0  0  0  0  0
  139.3927   75.6048  221.3088 H   0  0  0  0  0  0  0  0  0  0  0  0
  141.8194   73.8732  217.6548 H   0  0  0  0  0  0  0  0  0  0  0  0
  140.7540   75.3105  217.3471 H   0  0  0  0  0  0  0  0  0  0  0  0
  143.6874   75.2373  218.1027 H   0  0  0  0  0  0  0  0  0  0  0  0
  142.9004   76.0577  216.7252 H   0  0  0  0  0  0  0  0  0  0  0  0
  143.4516   77.6858  218.4622 H   0  0  0  0  0  0  0  0  0  0  0  0
  141.6563   77.4890  218.3393 H   0  0  0  0  0  0  0  0  0  0  0  0
  143.5412   76.7693  220.5019 H   0  0  0  0  0  0  0  0  0  0  0  0
  141.7890   77.3485  220.5136 H   0  0  0  0  0  0  0  0  0  0  0  0
  141.5656   75.4225  221.3747 H   0  0  0  0  0  0  0  0  0  0  0  0
  142.9625   74.0675  221.7788 H   0  0  0  0  0  0  0  0  0  0  0  0
  144.4280   74.8054  219.1270 H   0  0  0  0  0  0  0  0  0  0  0  0
  144.5877   75.7615  220.6473 H   0  0  0  0  0  0  0  0  0  0  0  0
  146.4419   74.0740  220.1579 H   0  0  0  0  0  0  0  0  0  0  0  0
  145.6416   73.9767  221.7822 H   0  0  0  0  0  0  0  0  0  0  0  0
  146.0521   71.8397  220.0876 H   0  0  0  0  0  0  0  0  0  0  0  0
  144.8337   71.8981  221.3835 H   0  0  0  0  0  0  0  0  0  0  0  0
  144.3619   72.9592  218.5354 H   0  0  0  0  0  0  0  0  0  0  0  0
  143.8857   71.3269  219.0574 H   0  0  0  0  0  0  0  0  0  0  0  0
  142.0551   73.0583  219.2738 H   0  0  0  0  0  0  0  0  0  0  0  0
  142.5160   72.2380  220.8425 H   0  0  0  0  0  0  0  0  0  0  0  0
  138.7177   69.8304  221.9975 H   0  0  0  0  0  0  0  0  0  0  0  0
  139.0828   68.2271  223.8195 H   0  0  0  0  0  0  0  0  0  0  0  0
  139.9036   67.8054  226.0988 H   0  0  0  0  0  0  0  0  0  0  0  0
  141.5519   71.0326  228.3947 H   0  0  0  0  0  0  0  0  0  0  0  0
  141.1414   72.5970  226.4939 H   0  0  0  0  0  0  0  0  0  0  0  0
  1  2  2  0
  2  3  1  0
  3  4  1  0
  4  5  1  0
  5  6  2  0
  5  7  1  0
  7  8  1  0
  8  9  1  0
  9 10  1  0
 10 11  1  0
 11 12  1  0
 12 13  1  0
 13 14  1  0
 14 15  1  0
 15 16  1  0
 16 17  1  0
 17 18  1  0
  2 19  1  0
 19 20  2  0
 20 21  1  0
 21 22  2  0
 22 23  1  0
 23 24  2  0
 24 25  1  0
 24 26  1  0
 26 27  2  0
 27 28  1  0
 28 29  2  0
 12  7  1  0
 18 13  1  0
 29 19  1  0
 28 22  1  0
  3 30  1  0
  4 31  1  0
  4 32  1  0
  8 33  1  0
  8 34  1  0
  9 35  1  0
  9 36  1  0
 10 37  1  0
 10 38  1  0
 11 39  1  0
 11 40  1  0
 12 41  1  1
 13 42  1  0
 14 43  1  0
 14 44  1  0
 15 45  1  0
 15 46  1  0
 16 47  1  0
 16 48  1  0
 17 49  1  0
 17 50  1  0
 18 51  1  0
 18 52  1  0
 20 53  1  0
 21 54  1  0
 23 55  1  0
 26 56  1  0
 27 57  1  0
M  END
>  <smiles>  (19) 
O=C(NCC(=O)N1CCCCC1C1CCCCC1)c1ccc2cc(Cl)ccc2n1

>  <score_type>  (19) 
oracle

>  <origin>  (19) 
autodockgpu

>  <m_score__min__energy>  (19) 
-9.3699999999999992

>  <m_primary>  (19) 
energy

>  <rmsd>  (19) 
1.9754925025109962

>  <m_score__min__rmsd>  (19) 
1.9754925025109962

>  <meeko>  (19) 
{"free_energy": -7.8, "intermolecular_energy": -9.29, "internal_energy": -1.84, "cluster_size": 38, "cluster_id": 1, "rank_in_cluster": 35}

>  <energy>  (19) 
-8.85

>  <cluster_rmsd>  (19) 
1.17

>  <cluster>  (19) 
1

$$$$

     RDKit          3D

 57 60  0  0  0  0  0  0  0  0999 V2000
  140.5140   72.5370  220.7420 O   0  0  0  0  0  0  0  0  0  0  0  0
  140.1870   72.8830  221.9240 C   0  0  0  0  0  0  0  0  0  0  0  0
  139.8460   74.2890  222.1200 N   0  0  0  0  0  0  0  0  0  0  0  0
  139.9220   75.0980  220.9610 C   0  0  0  0  0  0  0  0  0  0  0  0
  141.1730   75.6300  220.4710 C   0  0  0  0  0  0  0  0  0  0  0  0
  142.1360   74.7310  220.4420 O   0  0  0  0  0  0  0  0  0  0  0  0
  141.5760   76.8990  220.0190 N   0  0  0  0  0  0  0  0  0  0  0  0
  142.6310   77.1380  219.0490 C   0  0  0  0  0  0  0  0  0  0  0  0
  142.5610   78.5350  218.4670 C   0  0  0  0  0  0  0  0  0  0  0  0
  141.1150   78.8710  218.2350 C   0  0  0  0  0  0  0  0  0  0  0  0
  140.3520   78.9000  219.5190 C   0  0  0  0  0  0  0  0  0  0  0  0
  140.8900   78.0650  220.6060 C   0  0  2  0  0  0  0  0  0  0  0  0
  141.7170   78.7040  221.6540 C   0  0  0  0  0  0  0  0  0  0  0  0
  140.9520   78.5820  222.9810 C   0  0  0  0  0  0  0  0  0  0  0  0
  141.8290   79.0140  224.1370 C   0  0  0  0  0  0  0  0  0  0  0  0
  142.5480   80.3100  223.8410 C   0  0  0  0  0  0  0  0  0  0  0  0
  141.8060   80.9850  222.7020 C   0  0  0  0  0  0  0  0  0  0  0  0
  142.0280   80.1370  221.4620 C   0  0  0  0  0  0  0  0  0  0  0  0
  140.1460   71.9670  223.0300 C   0  0  0  0  0  0  0  0  0  0  0  0
  139.5980   70.7180  222.8210 C   0  0  0  0  0  0  0  0  0  0  0  0
  139.5230   69.7980  223.8200 C   0  0  0  0  0  0  0  0  0  0  0  0
  140.0050   70.1210  225.0670 C   0  0  0  0  0  0  0  0  0  0  0  0
  139.9650   69.2430  226.1320 C   0  0  0  0  0  0  0  0  0  0  0  0
  140.4540   69.5840  227.3760 C   0  0  0  0  0  0  0  0  0  0  0  0
  140.4060   68.4730  228.7310 Cl  0  0  0  0  0  0  0  0  0  0  0  0
  141.0000   70.8500  227.5580 C   0  0  0  0  0  0  0  0  0  0  0  0
  141.0550   71.7550  226.5100 C   0  0  0  0  0  0  0  0  0  0  0  0
  140.5460   71.3590  225.2700 C   0  0  0  0  0  0  0  0  0  0  0  0
  140.6120   72.2620  224.2620 N   0  0  0  0  0  0  0  0  0  0  0  0
  139.5810   74.5110  223.0800 H   0  0  0  0  0  0  0  0  0  0  0  0
  139.5019   74.4979  220.1404 H   0  0  0  0  0  0  0  0  0  0  0  0
  139.3985   76.0095  221.2851 H   0  0  0  0  0  0  0  0  0  0  0  0
  143.6047   77.0079  219.5440 H   0  0  0  0  0  0  0  0  0  0  0  0
  142.5043   76.4200  218.2253 H   0  0  0  0  0  0  0  0  0  0  0  0
  143.0030   79.2551  219.1713 H   0  0  0  0  0  0  0  0  0  0  0  0
  143.1203   78.5827  217.5210 H   0  0  0  0  0  0  0  0  0  0  0  0
  141.0490   79.8593  217.7565 H   0  0  0  0  0  0  0  0  0  0  0  0
  140.6777   78.0958  217.5886 H   0  0  0  0  0  0  0  0  0  0  0  0
  140.3287   79.9410  219.8737 H   0  0  0  0  0  0  0  0  0  0  0  0
  139.3612   78.4829  219.2859 H   0  0  0  0  0  0  0  0  0  0  0  0
  139.9985   77.7833  221.1856 H   0  0  0  0  0  0  0  0  0  0  0  0
  142.6842   78.1808  221.6246 H   0  0  0  0  0  0  0  0  0  0  0  0
  140.0586   79.2227  222.9446 H   0  0  0  0  0  0  0  0  0  0  0  0
  140.6584   77.5322  223.1286 H   0  0  0  0  0  0  0  0  0  0  0  0
  141.2004   79.1511  225.0292 H   0  0  0  0  0  0  0  0  0  0  0  0
  142.5856   78.2330  224.3032 H   0  0  0  0  0  0  0  0  0  0  0  0
  142.5410   80.9566  224.7309 H   0  0  0  0  0  0  0  0  0  0  0  0
  143.5963   80.1210  223.5664 H   0  0  0  0  0  0  0  0  0  0  0  0
  140.7320   81.0427  222.9327 H   0  0  0  0  0  0  0  0  0  0  0  0
  142.1739   82.0100  222.5472 H   0  0  0  0  0  0  0  0  0  0  0  0
  141.3872   80.5259  220.6569 H   0  0  0  0  0  0  0  0  0  0  0  0
  143.0985   80.2020  221.2175 H   0  0  0  0  0  0  0  0  0  0  0  0
  139.2129   70.4604  221.8233 H   0  0  0  0  0  0  0  0  0  0  0  0
  139.0822   68.8077  223.6329 H   0  0  0  0  0  0  0  0  0  0  0  0
  139.5308   68.2432  225.9842 H   0  0  0  0  0  0  0  0  0  0  0  0
  141.3926   71.1362  228.5449 H   0  0  0  0  0  0  0  0  0  0  0  0
  141.4871   72.7568  226.6501 H   0  0  0  0  0  0  0  0  0  0  0  0
  1  2  2  0
  2  3  1  0
  3  4  1  0
  4  5  1  0
  5  6  2  0
  5  7  1  0
  7  8  1  0
  8  9  1  0
  9 10  1  0
 10 11  1  0
 11 12  1  0
 12 13  1  0
 13 14  1  0
 14 15  1  0
 15 16  1  0
 16 17  1  0
 17 18  1  0
  2 19  1  0
 19 20  2  0
 20 21  1  0
 21 22  2  0
 22 23  1  0
 23 24  2  0
 24 25  1  0
 24 26  1  0
 26 27  2  0
 27 28  1  0
 28 29  2  0
 12  7  1  0
 18 13  1  0
 29 19  1  0
 28 22  1  0
  3 30  1  0
  4 31  1  0
  4 32  1  0
  8 33  1  0
  8 34  1  0
  9 35  1  0
  9 36  1  0
 10 37  1  0
 10 38  1  0
 11 39  1  0
 11 40  1  0
 12 41  1  1
 13 42  1  0
 14 43  1  0
 14 44  1  0
 15 45  1  0
 15 46  1  0
 16 47  1  0
 16 48  1  0
 17 49  1  0
 17 50  1  0
 18 51  1  0
 18 52  1  0
 20 53  1  0
 21 54  1  0
 23 55  1  0
 26 56  1  0
 27 57  1  0
M  END
>  <smiles>  (20) 
O=C(NCC(=O)N1CCCCC1C1CCCCC1)c1ccc2cc(Cl)ccc2n1

>  <score_type>  (20) 
oracle

>  <origin>  (20) 
autodockgpu

>  <m_score__min__energy>  (20) 
-9.3699999999999992

>  <m_primary>  (20) 
energy

>  <rmsd>  (20) 
2.4232441493755474

>  <m_score__min__rmsd>  (20) 
2.4232441493755474

>  <meeko>  (20) 
{"free_energy": -9.09, "intermolecular_energy": -10.58, "internal_energy": -1.45, "cluster_size": 38, "cluster_id": 1, "rank_in_cluster": 15}

>  <energy>  (20) 
-8.8

>  <cluster_rmsd>  (20) 
0.77

>  <cluster>  (20) 
1

$$$$

     RDKit          3D

 57 60  0  0  0  0  0  0  0  0999 V2000
  140.9410   75.2270  221.3340 O   0  0  0  0  0  0  0  0  0  0  0  0
  139.8620   75.5020  221.9510 C   0  0  0  0  0  0  0  0  0  0  0  0
  138.9520   74.3890  222.2010 N   0  0  0  0  0  0  0  0  0  0  0  0
  139.3880   73.1310  221.7220 C   0  0  0  0  0  0  0  0  0  0  0  0
  139.7840   72.0610  222.6100 C   0  0  0  0  0  0  0  0  0  0  0  0
  141.0830   71.8440  222.6050 O   0  0  0  0  0  0  0  0  0  0  0  0
  139.0750   71.2070  223.4750 N   0  0  0  0  0  0  0  0  0  0  0  0
  137.6290   71.1450  223.5780 C   0  0  0  0  0  0  0  0  0  0  0  0
  137.1620   69.8810  224.2700 C   0  0  0  0  0  0  0  0  0  0  0  0
  138.0190   68.7440  223.7900 C   0  0  0  0  0  0  0  0  0  0  0  0
  139.4500   68.9430  224.1730 C   0  0  0  0  0  0  0  0  0  0  0  0
  139.8770   70.3400  224.3580 C   0  0  2  0  0  0  0  0  0  0  0  0
  139.9450   70.8890  225.7320 C   0  0  0  0  0  0  0  0  0  0  0  0
  141.3200   71.5560  225.8920 C   0  0  0  0  0  0  0  0  0  0  0  0
  141.3820   72.3320  227.1910 C   0  0  0  0  0  0  0  0  0  0  0  0
  140.8360   71.5290  228.3490 C   0  0  0  0  0  0  0  0  0  0  0  0
  140.8460   70.0700  227.9290 C   0  0  0  0  0  0  0  0  0  0  0  0
  139.8030   69.9150  226.8360 C   0  0  0  0  0  0  0  0  0  0  0  0
  139.5220   76.8280  222.3920 C   0  0  0  0  0  0  0  0  0  0  0  0
  140.5500   77.7050  222.6660 C   0  0  0  0  0  0  0  0  0  0  0  0
  140.3070   78.9750  223.0890 C   0  0  0  0  0  0  0  0  0  0  0  0
  139.0070   79.3930  223.2460 C   0  0  0  0  0  0  0  0  0  0  0  0
  138.6780   80.6650  223.6710 C   0  0  0  0  0  0  0  0  0  0  0  0
  137.3670   81.0660  223.8230 C   0  0  0  0  0  0  0  0  0  0  0  0
  136.9450   82.6790  224.3620 Cl  0  0  0  0  0  0  0  0  0  0  0  0
  136.3500   80.1600  223.5400 C   0  0  0  0  0  0  0  0  0  0  0  0
  136.6470   78.8750  223.1120 C   0  0  0  0  0  0  0  0  0  0  0  0
  137.9920   78.5200  222.9740 C   0  0  0  0  0  0  0  0  0  0  0  0
  138.2530   77.2590  222.5540 N   0  0  0  0  0  0  0  0  0  0  0  0
  138.1080   74.6600  222.7070 H   0  0  0  0  0  0  0  0  0  0  0  0
  138.5640   72.7333  221.1114 H   0  0  0  0  0  0  0  0  0  0  0  0
  140.3414   73.3897  221.2381 H   0  0  0  0  0  0  0  0  0  0  0  0
  137.2764   72.0147  224.1518 H   0  0  0  0  0  0  0  0  0  0  0  0
  137.2159   71.1461  222.5585 H   0  0  0  0  0  0  0  0  0  0  0  0
  137.2654   69.9921  225.3595 H   0  0  0  0  0  0  0  0  0  0  0  0
  136.1046   69.6867  224.0372 H   0  0  0  0  0  0  0  0  0  0  0  0
  137.6552   67.8074  224.2376 H   0  0  0  0  0  0  0  0  0  0  0  0
  137.9561   68.7012  222.6926 H   0  0  0  0  0  0  0  0  0  0  0  0
  139.6232   68.4093  225.1192 H   0  0  0  0  0  0  0  0  0  0  0  0
  140.0408   68.5601  223.3278 H   0  0  0  0  0  0  0  0  0  0  0  0
  140.9421   70.3267  224.0833 H   0  0  0  0  0  0  0  0  0  0  0  0
  139.0848   71.5689  225.8201 H   0  0  0  0  0  0  0  0  0  0  0  0
  142.1007   70.7811  225.8951 H   0  0  0  0  0  0  0  0  0  0  0  0
  141.4798   72.2500  225.0536 H   0  0  0  0  0  0  0  0  0  0  0  0
  142.4299   72.5927  227.4007 H   0  0  0  0  0  0  0  0  0  0  0  0
  140.7653   73.2360  227.0799 H   0  0  0  0  0  0  0  0  0  0  0  0
  141.4697   71.6697  229.2370 H   0  0  0  0  0  0  0  0  0  0  0  0
  139.8166   71.8548  228.6034 H   0  0  0  0  0  0  0  0  0  0  0  0
  141.8393   69.7943  227.5451 H   0  0  0  0  0  0  0  0  0  0  0  0
  140.6200   69.4143  228.7828 H   0  0  0  0  0  0  0  0  0  0  0  0
  139.8878   68.9014  226.4171 H   0  0  0  0  0  0  0  0  0  0  0  0
  138.8229   70.0984  227.3005 H   0  0  0  0  0  0  0  0  0  0  0  0
  141.5902   77.3703  222.5397 H   0  0  0  0  0  0  0  0  0  0  0  0
  141.1412   79.6594  223.3029 H   0  0  0  0  0  0  0  0  0  0  0  0
  139.4844   81.3789  223.8947 H   0  0  0  0  0  0  0  0  0  0  0  0
  135.2999   80.4660  223.6569 H   0  0  0  0  0  0  0  0  0  0  0  0
  135.8464   78.1549  222.8873 H   0  0  0  0  0  0  0  0  0  0  0  0
  1  2  2  0
  2  3  1  0
  3  4  1  0
  4  5  1  0
  5  6  2  0
  5  7  1  0
  7  8  1  0
  8  9  1  0
  9 10  1  0
 10 11  1  0
 11 12  1  0
 12 13  1  0
 13 14  1  0
 14 15  1  0
 15 16  1  0
 16 17  1  0
 17 18  1  0
  2 19  1  0
 19 20  2  0
 20 21  1  0
 21 22  2  0
 22 23  1  0
 23 24  2  0
 24 25  1  0
 24 26  1  0
 26 27  2  0
 27 28  1  0
 28 29  2  0
 12  7  1  0
 18 13  1  0
 29 19  1  0
 28 22  1  0
  3 30  1  0
  4 31  1  0
  4 32  1  0
  8 33  1  0
  8 34  1  0
  9 35  1  0
  9 36  1  0
 10 37  1  0
 10 38  1  0
 11 39  1  0
 11 40  1  0
 12 41  1  6
 13 42  1  0
 14 43  1  0
 14 44  1  0
 15 45  1  0
 15 46  1  0
 16 47  1  0
 16 48  1  0
 17 49  1  0
 17 50  1  0
 18 51  1  0
 18 52  1  0
 20 53  1  0
 21 54  1  0
 23 55  1  0
 26 56  1  0
 27 57  1  0
M  END
>  <smiles>  (21) 
O=C(NCC(=O)N1CCCCC1C1CCCCC1)c1ccc2cc(Cl)ccc2n1

>  <score_type>  (21) 
oracle

>  <origin>  (21) 
autodockgpu

>  <m_score__min__energy>  (21) 
-9.3699999999999992

>  <m_primary>  (21) 
energy

>  <rmsd>  (21) 
8.566514004620187

>  <m_score__min__rmsd>  (21) 
8.566514004620187

>  <meeko>  (21) 
{"free_energy": -8.42, "intermolecular_energy": -9.91, "internal_energy": -1.56, "cluster_size": 3, "cluster_id": 2, "rank_in_cluster": 3}

>  <energy>  (21) 
-8.71

>  <cluster_rmsd>  (21) 
0.65

>  <cluster>  (21) 
1

$$$$

     RDKit          3D

 57 60  0  0  0  0  0  0  0  0999 V2000
  139.4180   72.1310  220.7750 O   0  0  0  0  0  0  0  0  0  0  0  0
  139.4990   72.5130  221.9870 C   0  0  0  0  0  0  0  0  0  0  0  0
  139.3740   73.9480  222.2260 N   0  0  0  0  0  0  0  0  0  0  0  0
  139.1780   74.7400  221.0700 C   0  0  0  0  0  0  0  0  0  0  0  0
  139.7790   76.0450  220.9160 C   0  0  0  0  0  0  0  0  0  0  0  0
  138.9420   77.0290  221.1740 O   0  0  0  0  0  0  0  0  0  0  0  0
  141.0660   76.4830  220.5520 N   0  0  0  0  0  0  0  0  0  0  0  0
  142.2330   75.6270  220.4410 C   0  0  0  0  0  0  0  0  0  0  0  0
  143.3480   76.2850  219.6550 C   0  0  0  0  0  0  0  0  0  0  0  0
  142.7300   77.0180  218.4970 C   0  0  0  0  0  0  0  0  0  0  0  0
  141.8280   78.1120  218.9660 C   0  0  0  0  0  0  0  0  0  0  0  0
  141.2310   77.9270  220.2990 C   0  0  2  0  0  0  0  0  0  0  0  0
  141.8490   78.6090  221.4590 C   0  0  0  0  0  0  0  0  0  0  0  0
  141.0800   78.1690  222.7140 C   0  0  0  0  0  0  0  0  0  0  0  0
  141.7880   78.6480  223.9630 C   0  0  0  0  0  0  0  0  0  0  0  0
  142.2050   80.0960  223.8490 C   0  0  0  0  0  0  0  0  0  0  0  0
  141.3760   80.7170  222.7400 C   0  0  0  0  0  0  0  0  0  0  0  0
  141.8340   80.0870  221.4360 C   0  0  0  0  0  0  0  0  0  0  0  0
  139.7020   71.6110  223.0870 C   0  0  0  0  0  0  0  0  0  0  0  0
  139.3540   70.2880  222.9150 C   0  0  0  0  0  0  0  0  0  0  0  0
  139.5160   69.3750  223.9120 C   0  0  0  0  0  0  0  0  0  0  0  0
  140.0390   69.7820  225.1160 C   0  0  0  0  0  0  0  0  0  0  0  0
  140.2330   68.9180  226.1750 C   0  0  0  0  0  0  0  0  0  0  0  0
  140.7590   69.3440  227.3770 C   0  0  0  0  0  0  0  0  0  0  0  0
  141.0080   68.2510  228.7230 Cl  0  0  0  0  0  0  0  0  0  0  0  0
  141.1000   70.6850  227.5220 C   0  0  0  0  0  0  0  0  0  0  0  0
  140.9170   71.5790  226.4780 C   0  0  0  0  0  0  0  0  0  0  0  0
  140.3810   71.0940  225.2820 C   0  0  0  0  0  0  0  0  0  0  0  0
  140.2120   71.9890  224.2790 N   0  0  0  0  0  0  0  0  0  0  0  0
  139.4340   74.2010  223.2130 H   0  0  0  0  0  0  0  0  0  0  0  0
  139.5338   74.1369  220.2217 H   0  0  0  0  0  0  0  0  0  0  0  0
  138.1092   74.9894  221.1440 H   0  0  0  0  0  0  0  0  0  0  0  0
  142.6003   75.3948  221.4515 H   0  0  0  0  0  0  0  0  0  0  0  0
  141.9341   74.7135  219.9060 H   0  0  0  0  0  0  0  0  0  0  0  0
  143.8907   76.9932  220.2984 H   0  0  0  0  0  0  0  0  0  0  0  0
  144.0586   75.5276  219.2925 H   0  0  0  0  0  0  0  0  0  0  0  0
  143.5302   77.4531  217.8802 H   0  0  0  0  0  0  0  0  0  0  0  0
  142.1330   76.3027  217.9122 H   0  0  0  0  0  0  0  0  0  0  0  0
  142.4110   79.0446  218.9844 H   0  0  0  0  0  0  0  0  0  0  0  0
  140.9836   78.1240  218.2611 H   0  0  0  0  0  0  0  0  0  0  0  0
  140.2698   78.4577  220.2321 H   0  0  0  0  0  0  0  0  0  0  0  0
  142.9101   78.3199  221.4384 H   0  0  0  0  0  0  0  0  0  0  0  0
  140.0665   78.5956  222.6860 H   0  0  0  0  0  0  0  0  0  0  0  0
  141.0279   77.0704  222.7331 H   0  0  0  0  0  0  0  0  0  0  0  0
  141.1090   78.5392  224.8215 H   0  0  0  0  0  0  0  0  0  0  0  0
  142.6946   78.0398  224.0977 H   0  0  0  0  0  0  0  0  0  0  0  0
  142.0157   80.6183  224.7984 H   0  0  0  0  0  0  0  0  0  0  0  0
  143.2789   80.1760  223.6247 H   0  0  0  0  0  0  0  0  0  0  0  0
  140.3084   80.5095  222.9051 H   0  0  0  0  0  0  0  0  0  0  0  0
  141.5083   81.8088  222.7158 H   0  0  0  0  0  0  0  0  0  0  0  0
  141.1543   80.4143  220.6355 H   0  0  0  0  0  0  0  0  0  0  0  0
  142.8707   80.4148  221.2692 H   0  0  0  0  0  0  0  0  0  0  0  0
  138.9362   69.9629  221.9508 H   0  0  0  0  0  0  0  0  0  0  0  0
  139.2316   68.3240  223.7557 H   0  0  0  0  0  0  0  0  0  0  0  0
  139.9602   67.8589  226.0569 H   0  0  0  0  0  0  0  0  0  0  0  0
  141.5193   71.0398  228.4751 H   0  0  0  0  0  0  0  0  0  0  0  0
  141.1861   72.6399  226.5881 H   0  0  0  0  0  0  0  0  0  0  0  0
  1  2  2  0
  2  3  1  0
  3  4  1  0
  4  5  1  0
  5  6  2  0
  5  7  1  0
  7  8  1  0
  8  9  1  0
  9 10  1  0
 10 11  1  0
 11 12  1  0
 12 13  1  0
 13 14  1  0
 14 15  1  0
 15 16  1  0
 16 17  1  0
 17 18  1  0
  2 19  1  0
 19 20  2  0
 20 21  1  0
 21 22  2  0
 22 23  1  0
 23 24  2  0
 24 25  1  0
 24 26  1  0
 26 27  2  0
 27 28  1  0
 28 29  2  0
 12  7  1  0
 18 13  1  0
 29 19  1  0
 28 22  1  0
  3 30  1  0
  4 31  1  0
  4 32  1  0
  8 33  1  0
  8 34  1  0
  9 35  1  0
  9 36  1  0
 10 37  1  0
 10 38  1  0
 11 39  1  0
 11 40  1  0
 12 41  1  6
 13 42  1  0
 14 43  1  0
 14 44  1  0
 15 45  1  0
 15 46  1  0
 16 47  1  0
 16 48  1  0
 17 49  1  0
 17 50  1  0
 18 51  1  0
 18 52  1  0
 20 53  1  0
 21 54  1  0
 23 55  1  0
 26 56  1  0
 27 57  1  0
M  END
>  <smiles>  (22) 
O=C(NCC(=O)N1CCCCC1C1CCCCC1)c1ccc2cc(Cl)ccc2n1

>  <score_type>  (22) 
oracle

>  <origin>  (22) 
autodockgpu

>  <m_score__min__energy>  (22) 
-9.3699999999999992

>  <m_primary>  (22) 
energy

>  <rmsd>  (22) 
2.079879565111984

>  <m_score__min__rmsd>  (22) 
2.079879565111984

>  <meeko>  (22) 
{"free_energy": -9.18, "intermolecular_energy": -10.67, "internal_energy": -1.5, "cluster_size": 38, "cluster_id": 1, "rank_in_cluster": 12}

>  <energy>  (22) 
-8.69

>  <cluster_rmsd>  (22) 
0.84

>  <cluster>  (22) 
1

$$$$

     RDKit          3D

 57 60  0  0  0  0  0  0  0  0999 V2000
  138.9140   72.2120  220.7160 O   0  0  0  0  0  0  0  0  0  0  0  0
  139.2320   72.5800  221.8930 C   0  0  0  0  0  0  0  0  0  0  0  0
  139.3360   74.0180  222.1200 N   0  0  0  0  0  0  0  0  0  0  0  0
  139.0680   74.8300  220.9930 C   0  0  0  0  0  0  0  0  0  0  0  0
  139.7440   74.6460  219.7290 C   0  0  0  0  0  0  0  0  0  0  0  0
  138.9820   74.0770  218.8180 O   0  0  0  0  0  0  0  0  0  0  0  0
  141.0390   74.9470  219.2690 N   0  0  0  0  0  0  0  0  0  0  0  0
  141.5060   74.7410  217.9100 C   0  0  0  0  0  0  0  0  0  0  0  0
  142.7730   75.5180  217.6200 C   0  0  0  0  0  0  0  0  0  0  0  0
  142.6510   76.8670  218.2710 C   0  0  0  0  0  0  0  0  0  0  0  0
  142.5480   76.7460  219.7560 C   0  0  0  0  0  0  0  0  0  0  0  0
  141.9910   75.4810  220.2610 C   0  0  2  0  0  0  0  0  0  0  0  0
  142.9210   74.4290  220.7340 C   0  0  0  0  0  0  0  0  0  0  0  0
  144.3020   74.7340  220.1320 C   0  0  0  0  0  0  0  0  0  0  0  0
  145.3540   73.8330  220.7440 C   0  0  0  0  0  0  0  0  0  0  0  0
  144.8970   72.3930  220.7960 C   0  0  0  0  0  0  0  0  0  0  0  0
  143.7550   72.2480  219.8070 C   0  0  0  0  0  0  0  0  0  0  0  0
  142.5820   73.0380  220.3620 C   0  0  0  0  0  0  0  0  0  0  0  0
  139.4840   71.6570  222.9660 C   0  0  0  0  0  0  0  0  0  0  0  0
  139.1040   70.3420  222.7960 C   0  0  0  0  0  0  0  0  0  0  0  0
  139.3090   69.4120  223.7680 C   0  0  0  0  0  0  0  0  0  0  0  0
  139.9080   69.7920  224.9450 C   0  0  0  0  0  0  0  0  0  0  0  0
  140.1500   68.9090  225.9780 C   0  0  0  0  0  0  0  0  0  0  0  0
  140.7520   69.3080  227.1530 C   0  0  0  0  0  0  0  0  0  0  0  0
  141.0610   68.1900  228.4670 Cl  0  0  0  0  0  0  0  0  0  0  0  0
  141.1240   70.6410  227.2970 C   0  0  0  0  0  0  0  0  0  0  0  0
  140.8950   71.5530  226.2790 C   0  0  0  0  0  0  0  0  0  0  0  0
  140.2810   71.0960  225.1090 C   0  0  0  0  0  0  0  0  0  0  0  0
  140.0690   72.0090  224.1310 N   0  0  0  0  0  0  0  0  0  0  0  0
  139.5830   74.2600  223.0810 H   0  0  0  0  0  0  0  0  0  0  0  0
  137.9936   74.7196  220.7846 H   0  0  0  0  0  0  0  0  0  0  0  0
  139.4570   75.8060  221.3186 H   0  0  0  0  0  0  0  0  0  0  0  0
  141.7052   73.6694  217.7618 H   0  0  0  0  0  0  0  0  0  0  0  0
  140.7239   75.0996  217.2247 H   0  0  0  0  0  0  0  0  0  0  0  0
  143.6414   74.9825  218.0311 H   0  0  0  0  0  0  0  0  0  0  0  0
  142.9125   75.6292  216.5346 H   0  0  0  0  0  0  0  0  0  0  0  0
  143.5385   77.4669  218.0211 H   0  0  0  0  0  0  0  0  0  0  0  0
  141.7363   77.3509  217.8980 H   0  0  0  0  0  0  0  0  0  0  0  0
  143.5590   76.8598  220.1743 H   0  0  0  0  0  0  0  0  0  0  0  0
  141.8415   77.5285  220.0700 H   0  0  0  0  0  0  0  0  0  0  0  0
  141.5027   75.7685  221.2038 H   0  0  0  0  0  0  0  0  0  0  0  0
  142.8735   74.4654  221.8324 H   0  0  0  0  0  0  0  0  0  0  0  0
  144.2689   74.5667  219.0453 H   0  0  0  0  0  0  0  0  0  0  0  0
  144.5611   75.7816  220.3449 H   0  0  0  0  0  0  0  0  0  0  0  0
  146.2709   73.8942  220.1394 H   0  0  0  0  0  0  0  0  0  0  0  0
  145.5372   74.1715  221.7745 H   0  0  0  0  0  0  0  0  0  0  0  0
  145.7247   71.7247  220.5164 H   0  0  0  0  0  0  0  0  0  0  0  0
  144.5705   72.1236  221.8113 H   0  0  0  0  0  0  0  0  0  0  0  0
  144.0510   72.6501  218.8269 H   0  0  0  0  0  0  0  0  0  0  0  0
  143.4860   71.1901  219.6712 H   0  0  0  0  0  0  0  0  0  0  0  0
  141.7907   73.0663  219.5984 H   0  0  0  0  0  0  0  0  0  0  0  0
  142.2606   72.5295  221.2830 H   0  0  0  0  0  0  0  0  0  0  0  0
  138.6246   70.0383  221.8537 H   0  0  0  0  0  0  0  0  0  0  0  0
  138.9988   68.3680  223.6134 H   0  0  0  0  0  0  0  0  0  0  0  0
  139.8540   67.8561  225.8606 H   0  0  0  0  0  0  0  0  0  0  0  0
  141.6048   70.9744  228.2285 H   0  0  0  0  0  0  0  0  0  0  0  0
  141.1883   72.6075  226.3885 H   0  0  0  0  0  0  0  0  0  0  0  0
  1  2  2  0
  2  3  1  0
  3  4  1  0
  4  5  1  0
  5  6  2  0
  5  7  1  0
  7  8  1  0
  8  9  1  0
  9 10  1  0
 10 11  1  0
 11 12  1  0
 12 13  1  0
 13 14  1  0
 14 15  1  0
 15 16  1  0
 16 17  1  0
 17 18  1  0
  2 19  1  0
 19 20  2  0
 20 21  1  0
 21 22  2  0
 22 23  1  0
 23 24  2  0
 24 25  1  0
 24 26  1  0
 26 27  2  0
 27 28  1  0
 28 29  2  0
 12  7  1  0
 18 13  1  0
 29 19  1  0
 28 22  1  0
  3 30  1  0
  4 31  1  0
  4 32  1  0
  8 33  1  0
  8 34  1  0
  9 35  1  0
  9 36  1  0
 10 37  1  0
 10 38  1  0
 11 39  1  0
 11 40  1  0
 12 41  1  1
 13 42  1  0
 14 43  1  0
 14 44  1  0
 15 45  1  0
 15 46  1  0
 16 47  1  0
 16 48  1  0
 17 49  1  0
 17 50  1  0
 18 51  1  0
 18 52  1  0
 20 53  1  0
 21 54  1  0
 23 55  1  0
 26 56  1  0
 27 57  1  0
M  END
>  <smiles>  (23) 
O=C(NCC(=O)N1CCCCC1C1CCCCC1)c1ccc2cc(Cl)ccc2n1

>  <score_type>  (23) 
oracle

>  <origin>  (23) 
autodockgpu

>  <m_score__min__energy>  (23) 
-9.3699999999999992

>  <m_primary>  (23) 
energy

>  <rmsd>  (23) 
1.9649780039189093

>  <m_score__min__rmsd>  (23) 
1.9649780039189093

>  <meeko>  (23) 
{"free_energy": -7.57, "intermolecular_energy": -9.07, "internal_energy": -1.89, "cluster_size": 38, "cluster_id": 1, "rank_in_cluster": 38}

>  <energy>  (23) 
-8.63

>  <cluster_rmsd>  (23) 
1.04

>  <cluster>  (23) 
1

$$$$

     RDKit          3D

 57 60  0  0  0  0  0  0  0  0999 V2000
  133.5950   69.6700  226.8040 O   0  0  0  0  0  0  0  0  0  0  0  0
  133.9870   70.8000  226.3660 C   0  0  0  0  0  0  0  0  0  0  0  0
  135.1620   70.7910  225.5010 N   0  0  0  0  0  0  0  0  0  0  0  0
  135.7230   69.5150  225.2540 C   0  0  0  0  0  0  0  0  0  0  0  0
  136.4070   69.1970  224.0210 C   0  0  0  0  0  0  0  0  0  0  0  0
  135.6560   68.5170  223.1800 O   0  0  0  0  0  0  0  0  0  0  0  0
  137.7000   69.4600  223.5330 N   0  0  0  0  0  0  0  0  0  0  0  0
  138.2910   68.8280  222.3680 C   0  0  0  0  0  0  0  0  0  0  0  0
  139.4980   69.5900  221.8590 C   0  0  0  0  0  0  0  0  0  0  0  0
  139.1950   71.0580  221.9550 C   0  0  0  0  0  0  0  0  0  0  0  0
  138.9850   71.4780  223.3730 C   0  0  0  0  0  0  0  0  0  0  0  0
  138.5130   70.4290  224.2910 C   0  0  2  0  0  0  0  0  0  0  0  0
  139.4990   69.7420  225.1570 C   0  0  0  0  0  0  0  0  0  0  0  0
  138.8090   68.5020  225.7450 C   0  0  0  0  0  0  0  0  0  0  0  0
  139.8150   67.6280  226.4630 C   0  0  0  0  0  0  0  0  0  0  0  0
  140.7200   68.4390  227.3630 C   0  0  0  0  0  0  0  0  0  0  0  0
  140.0310   69.7680  227.6120 C   0  0  0  0  0  0  0  0  0  0  0  0
  140.0320   70.5240  226.2940 C   0  0  0  0  0  0  0  0  0  0  0  0
  133.3330   72.0390  226.6860 C   0  0  0  0  0  0  0  0  0  0  0  0
  132.0720   71.9840  227.2420 C   0  0  0  0  0  0  0  0  0  0  0  0
  131.3910   73.1160  227.5710 C   0  0  0  0  0  0  0  0  0  0  0  0
  131.9740   74.3400  227.3440 C   0  0  0  0  0  0  0  0  0  0  0  0
  131.3480   75.5320  227.6500 C   0  0  0  0  0  0  0  0  0  0  0  0
  131.9470   76.7520  227.4150 C   0  0  0  0  0  0  0  0  0  0  0  0
  131.1570   78.2670  227.8010 Cl  0  0  0  0  0  0  0  0  0  0  0  0
  133.2200   76.7760  226.8530 C   0  0  0  0  0  0  0  0  0  0  0  0
  133.8760   75.5970  226.5340 C   0  0  0  0  0  0  0  0  0  0  0  0
  133.2230   74.3890  226.7930 C   0  0  0  0  0  0  0  0  0  0  0  0
  133.8860   73.2520  226.4720 N   0  0  0  0  0  0  0  0  0  0  0  0
  135.4280   71.7180  225.1690 H   0  0  0  0  0  0  0  0  0  0  0  0
  136.4488   69.3380  226.0614 H   0  0  0  0  0  0  0  0  0  0  0  0
  134.8263   68.8815  225.1865 H   0  0  0  0  0  0  0  0  0  0  0  0
  138.6027   67.8080  222.6372 H   0  0  0  0  0  0  0  0  0  0  0  0
  137.5355   68.8156  221.5686 H   0  0  0  0  0  0  0  0  0  0  0  0
  140.3778   69.3495  222.4740 H   0  0  0  0  0  0  0  0  0  0  0  0
  139.7137   69.3119  220.8168 H   0  0  0  0  0  0  0  0  0  0  0  0
  140.0379   71.6260  221.5343 H   0  0  0  0  0  0  0  0  0  0  0  0
  138.2708   71.2589  221.3932 H   0  0  0  0  0  0  0  0  0  0  0  0
  139.9435   71.8564  223.7579 H   0  0  0  0  0  0  0  0  0  0  0  0
  138.1839   72.2313  223.3448 H   0  0  0  0  0  0  0  0  0  0  0  0
  137.9248   70.9809  225.0390 H   0  0  0  0  0  0  0  0  0  0  0  0
  140.3621   69.5302  224.5087 H   0  0  0  0  0  0  0  0  0  0  0  0
  138.0339   68.8221  226.4568 H   0  0  0  0  0  0  0  0  0  0  0  0
  138.3554   67.9245  224.9260 H   0  0  0  0  0  0  0  0  0  0  0  0
  139.2742   66.8897  227.0733 H   0  0  0  0  0  0  0  0  0  0  0  0
  140.4400   67.1321  225.7058 H   0  0  0  0  0  0  0  0  0  0  0  0
  140.8759   67.9110  228.3153 H   0  0  0  0  0  0  0  0  0  0  0  0
  141.7033   68.5907  226.8938 H   0  0  0  0  0  0  0  0  0  0  0  0
  138.9978   69.6001  227.9502 H   0  0  0  0  0  0  0  0  0  0  0  0
  140.5535   70.3403  228.3927 H   0  0  0  0  0  0  0  0  0  0  0  0
  139.4164   71.4279  226.4122 H   0  0  0  0  0  0  0  0  0  0  0  0
  141.0810   70.7570  226.0590 H   0  0  0  0  0  0  0  0  0  0  0  0
  131.6064   71.0041  227.4236 H   0  0  0  0  0  0  0  0  0  0  0  0
  130.3859   73.0519  228.0133 H   0  0  0  0  0  0  0  0  0  0  0  0
  130.3420   75.5080  228.0943 H   0  0  0  0  0  0  0  0  0  0  0  0
  133.7111   77.7411  226.6598 H   0  0  0  0  0  0  0  0  0  0  0  0
  134.8821   75.6120  226.0896 H   0  0  0  0  0  0  0  0  0  0  0  0
  1  2  2  0
  2  3  1  0
  3  4  1  0
  4  5  1  0
  5  6  2  0
  5  7  1  0
  7  8  1  0
  8  9  1  0
  9 10  1  0
 10 11  1  0
 11 12  1  0
 12 13  1  0
 13 14  1  0
 14 15  1  0
 15 16  1  0
 16 17  1  0
 17 18  1  0
  2 19  1  0
 19 20  2  0
 20 21  1  0
 21 22  2  0
 22 23  1  0
 23 24  2  0
 24 25  1  0
 24 26  1  0
 26 27  2  0
 27 28  1  0
 28 29  2  0
 12  7  1  0
 18 13  1  0
 29 19  1  0
 28 22  1  0
  3 30  1  0
  4 31  1  0
  4 32  1  0
  8 33  1  0
  8 34  1  0
  9 35  1  0
  9 36  1  0
 10 37  1  0
 10 38  1  0
 11 39  1  0
 11 40  1  0
 12 41  1  1
 13 42  1  0
 14 43  1  0
 14 44  1  0
 15 45  1  0
 15 46  1  0
 16 47  1  0
 16 48  1  0
 17 49  1  0
 17 50  1  0
 18 51  1  0
 18 52  1  0
 20 53  1  0
 21 54  1  0
 23 55  1  0
 26 56  1  0
 27 57  1  0
M  END
>  <smiles>  (24) 
O=C(NCC(=O)N1CCCCC1C1CCCCC1)c1ccc2cc(Cl)ccc2n1

>  <score_type>  (24) 
oracle

>  <origin>  (24) 
autodockgpu

>  <m_score__min__energy>  (24) 
-9.3699999999999992

>  <m_primary>  (24) 
energy

>  <rmsd>  (24) 
8.289926531894416

>  <m_score__min__rmsd>  (24) 
8.289926531894416

>  <meeko>  (24) 
{"free_energy": -8.47, "intermolecular_energy": -9.96, "internal_energy": -1.56, "cluster_size": 4, "cluster_id": 3, "rank_in_cluster": 2}

>  <energy>  (24) 
-8.6

>  <cluster_rmsd>  (24) 
0.88

>  <cluster>  (24) 
1

$$$$

     RDKit          3D

 57 60  0  0  0  0  0  0  0  0999 V2000
  141.1610   72.9770  221.4700 O   0  0  0  0  0  0  0  0  0  0  0  0
  140.2580   72.9020  222.3650 C   0  0  0  0  0  0  0  0  0  0  0  0
  139.1760   73.8780  222.2810 N   0  0  0  0  0  0  0  0  0  0  0  0
  139.2670   74.7930  221.2050 C   0  0  0  0  0  0  0  0  0  0  0  0
  139.3960   76.2170  221.4110 C   0  0  0  0  0  0  0  0  0  0  0  0
  138.4860   76.7020  222.2310 O   0  0  0  0  0  0  0  0  0  0  0  0
  140.2870   77.1910  220.9230 N   0  0  0  0  0  0  0  0  0  0  0  0
  141.6350   76.9210  220.4550 C   0  0  0  0  0  0  0  0  0  0  0  0
  142.1880   78.0650  219.6290 C   0  0  0  0  0  0  0  0  0  0  0  0
  141.0830   78.5830  218.7540 C   0  0  0  0  0  0  0  0  0  0  0  0
  139.9620   79.1420  219.5680 C   0  0  0  0  0  0  0  0  0  0  0  0
  139.8130   78.5870  220.9230 C   0  0  2  0  0  0  0  0  0  0  0  0
  140.3680   79.3430  222.0690 C   0  0  0  0  0  0  0  0  0  0  0  0
  141.1120   80.5610  221.4990 C   0  0  0  0  0  0  0  0  0  0  0  0
  141.5180   81.5010  222.6140 C   0  0  0  0  0  0  0  0  0  0  0  0
  142.1420   80.7580  223.7730 C   0  0  0  0  0  0  0  0  0  0  0  0
  142.5830   79.4020  223.2530 C   0  0  0  0  0  0  0  0  0  0  0  0
  141.3220   78.6160  222.9340 C   0  0  0  0  0  0  0  0  0  0  0  0
  140.2710   71.9240  223.4180 C   0  0  0  0  0  0  0  0  0  0  0  0
  139.8520   70.6440  223.1210 C   0  0  0  0  0  0  0  0  0  0  0  0
  139.8350   69.6640  224.0650 C   0  0  0  0  0  0  0  0  0  0  0  0
  140.2450   69.9580  225.3440 C   0  0  0  0  0  0  0  0  0  0  0  0
  140.2570   69.0200  226.3570 C   0  0  0  0  0  0  0  0  0  0  0  0
  140.6720   69.3320  227.6350 C   0  0  0  0  0  0  0  0  0  0  0  0
  140.6890   68.1460  228.9240 Cl  0  0  0  0  0  0  0  0  0  0  0  0
  141.0900   70.6320  227.9060 C   0  0  0  0  0  0  0  0  0  0  0  0
  141.0900   71.5970  226.9110 C   0  0  0  0  0  0  0  0  0  0  0  0
  140.6590   71.2270  225.6330 C   0  0  0  0  0  0  0  0  0  0  0  0
  140.6690   72.1900  224.6800 N   0  0  0  0  0  0  0  0  0  0  0  0
  138.4730   73.7680  223.0140 H   0  0  0  0  0  0  0  0  0  0  0  0
  140.1449   74.4878  220.6167 H   0  0  0  0  0  0  0  0  0  0  0  0
  138.2651   74.7178  220.7571 H   0  0  0  0  0  0  0  0  0  0  0  0
  142.2884   76.7631  221.3257 H   0  0  0  0  0  0  0  0  0  0  0  0
  141.6005   76.0260  219.8165 H   0  0  0  0  0  0  0  0  0  0  0  0
  142.5450   78.8661  220.2929 H   0  0  0  0  0  0  0  0  0  0  0  0
  143.0317   77.7189  219.0139 H   0  0  0  0  0  0  0  0  0  0  0  0
  141.4826   79.3747  218.1033 H   0  0  0  0  0  0  0  0  0  0  0  0
  140.6934   77.7464  218.1553 H   0  0  0  0  0  0  0  0  0  0  0  0
  140.1227   80.2260  219.6635 H   0  0  0  0  0  0  0  0  0  0  0  0
  139.0406   78.8706  219.0320 H   0  0  0  0  0  0  0  0  0  0  0  0
  138.7340   78.6672  221.1215 H   0  0  0  0  0  0  0  0  0  0  0  0
  139.5058   79.5826  222.7088 H   0  0  0  0  0  0  0  0  0  0  0  0
  142.0122   80.2194  220.9671 H   0  0  0  0  0  0  0  0  0  0  0  0
  140.4441   81.0954  220.8074 H   0  0  0  0  0  0  0  0  0  0  0  0
  142.2466   82.2257  222.2216 H   0  0  0  0  0  0  0  0  0  0  0  0
  140.6137   82.0094  222.9799 H   0  0  0  0  0  0  0  0  0  0  0  0
  143.0101   81.3157  224.1544 H   0  0  0  0  0  0  0  0  0  0  0  0
  141.4218   80.6445  224.5966 H   0  0  0  0  0  0  0  0  0  0  0  0
  143.1910   79.5254  222.3446 H   0  0  0  0  0  0  0  0  0  0  0  0
  143.1949   78.8755  224.0002 H   0  0  0  0  0  0  0  0  0  0  0  0
  141.6129   77.6857  222.4241 H   0  0  0  0  0  0  0  0  0  0  0  0
  140.8102   78.4301  223.8897 H   0  0  0  0  0  0  0  0  0  0  0  0
  139.5240   70.4099  222.0975 H   0  0  0  0  0  0  0  0  0  0  0  0
  139.4974   68.6491  223.8080 H   0  0  0  0  0  0  0  0  0  0  0  0
  139.9260   67.9940  226.1386 H   0  0  0  0  0  0  0  0  0  0  0  0
  141.4237   70.8961  228.9203 H   0  0  0  0  0  0  0  0  0  0  0  0
  141.4198   72.6252  227.1207 H   0  0  0  0  0  0  0  0  0  0  0  0
  1  2  2  0
  2  3  1  0
  3  4  1  0
  4  5  1  0
  5  6  2  0
  5  7  1  0
  7  8  1  0
  8  9  1  0
  9 10  1  0
 10 11  1  0
 11 12  1  0
 12 13  1  0
 13 14  1  0
 14 15  1  0
 15 16  1  0
 16 17  1  0
 17 18  1  0
  2 19  1  0
 19 20  2  0
 20 21  1  0
 21 22  2  0
 22 23  1  0
 23 24  2  0
 24 25  1  0
 24 26  1  0
 26 27  2  0
 27 28  1  0
 28 29  2  0
 12  7  1  0
 18 13  1  0
 29 19  1  0
 28 22  1  0
  3 30  1  0
  4 31  1  0
  4 32  1  0
  8 33  1  0
  8 34  1  0
  9 35  1  0
  9 36  1  0
 10 37  1  0
 10 38  1  0
 11 39  1  0
 11 40  1  0
 12 41  1  1
 13 42  1  0
 14 43  1  0
 14 44  1  0
 15 45  1  0
 15 46  1  0
 16 47  1  0
 16 48  1  0
 17 49  1  0
 17 50  1  0
 18 51  1  0
 18 52  1  0
 20 53  1  0
 21 54  1  0
 23 55  1  0
 26 56  1  0
 27 57  1  0
M  END
>  <smiles>  (25) 
O=C(NCC(=O)N1CCCCC1C1CCCCC1)c1ccc2cc(Cl)ccc2n1

>  <score_type>  (25) 
oracle

>  <origin>  (25) 
autodockgpu

>  <m_score__min__energy>  (25) 
-9.3699999999999992

>  <m_primary>  (25) 
energy

>  <rmsd>  (25) 
2.4105445283665095

>  <m_score__min__rmsd>  (25) 
2.4105445283665095

>  <meeko>  (25) 
{"free_energy": -8.8, "intermolecular_energy": -10.29, "internal_energy": -1.35, "cluster_size": 38, "cluster_id": 1, "rank_in_cluster": 20}

>  <energy>  (25) 
-8.51

>  <cluster_rmsd>  (25) 
0.99

>  <cluster>  (25) 
1

$$$$

     RDKit          3D

 57 60  0  0  0  0  0  0  0  0999 V2000
  138.9810   73.3000  221.9870 O   0  0  0  0  0  0  0  0  0  0  0  0
  140.0520   72.7410  222.3880 C   0  0  0  0  0  0  0  0  0  0  0  0
  141.2800   73.1110  221.6910 N   0  0  0  0  0  0  0  0  0  0  0  0
  141.1240   74.0550  220.6480 C   0  0  0  0  0  0  0  0  0  0  0  0
  141.0510   75.4770  220.8960 C   0  0  0  0  0  0  0  0  0  0  0  0
  140.3000   75.7780  221.9350 O   0  0  0  0  0  0  0  0  0  0  0  0
  141.6140   76.6010  220.2650 N   0  0  0  0  0  0  0  0  0  0  0  0
  142.7820   76.5710  219.4030 C   0  0  0  0  0  0  0  0  0  0  0  0
  142.9010   77.8270  218.5640 C   0  0  0  0  0  0  0  0  0  0  0  0
  141.5240   78.2090  218.1000 C   0  0  0  0  0  0  0  0  0  0  0  0
  140.6360   78.5430  219.2530 C   0  0  0  0  0  0  0  0  0  0  0  0
  140.9780   77.9040  220.5350 C   0  0  2  0  0  0  0  0  0  0  0  0
  141.7450   78.6800  221.5360 C   0  0  0  0  0  0  0  0  0  0  0  0
  140.9910   78.5780  222.8710 C   0  0  0  0  0  0  0  0  0  0  0  0
  141.8250   79.1590  223.9930 C   0  0  0  0  0  0  0  0  0  0  0  0
  142.4290   80.4900  223.6110 C   0  0  0  0  0  0  0  0  0  0  0  0
  141.6340   81.0230  222.4330 C   0  0  0  0  0  0  0  0  0  0  0  0
  141.9310   80.1190  221.2500 C   0  0  0  0  0  0  0  0  0  0  0  0
  140.0910   71.7900  223.4650 C   0  0  0  0  0  0  0  0  0  0  0  0
  139.6150   70.5170  223.2260 C   0  0  0  0  0  0  0  0  0  0  0  0
  139.6180   69.5640  224.1970 C   0  0  0  0  0  0  0  0  0  0  0  0
  140.1070   69.8760  225.4430 C   0  0  0  0  0  0  0  0  0  0  0  0
  140.1430   68.9650  226.4800 C   0  0  0  0  0  0  0  0  0  0  0  0
  140.6370   69.2960  227.7240 C   0  0  0  0  0  0  0  0  0  0  0  0
  140.6860   68.1440  229.0430 Cl  0  0  0  0  0  0  0  0  0  0  0  0
  141.1090   70.5880  227.9370 C   0  0  0  0  0  0  0  0  0  0  0  0
  141.0860   71.5260  226.9170 C   0  0  0  0  0  0  0  0  0  0  0  0
  140.5760   71.1380  225.6750 C   0  0  0  0  0  0  0  0  0  0  0  0
  140.5650   72.0750  224.6960 N   0  0  0  0  0  0  0  0  0  0  0  0
  142.1110   72.6450  222.0570 H   0  0  0  0  0  0  0  0  0  0  0  0
  141.9773   73.9059  219.9700 H   0  0  0  0  0  0  0  0  0  0  0  0
  140.1068   73.8342  220.2923 H   0  0  0  0  0  0  0  0  0  0  0  0
  143.6821   76.4748  220.0279 H   0  0  0  0  0  0  0  0  0  0  0  0
  142.6782   75.7149  218.7201 H   0  0  0  0  0  0  0  0  0  0  0  0
  143.3300   78.6400  219.1681 H   0  0  0  0  0  0  0  0  0  0  0  0
  143.5588   77.6483  217.7006 H   0  0  0  0  0  0  0  0  0  0  0  0
  141.5988   79.0856  217.4397 H   0  0  0  0  0  0  0  0  0  0  0  0
  141.0888   77.3532  217.5632 H   0  0  0  0  0  0  0  0  0  0  0  0
  140.6701   79.6326  219.4000 H   0  0  0  0  0  0  0  0  0  0  0  0
  139.6416   78.1571  218.9842 H   0  0  0  0  0  0  0  0  0  0  0  0
  140.0088   77.8033  221.0454 H   0  0  0  0  0  0  0  0  0  0  0  0
  142.7543   78.2427  221.5367 H   0  0  0  0  0  0  0  0  0  0  0  0
  140.0451   79.1346  222.7966 H   0  0  0  0  0  0  0  0  0  0  0  0
  140.7897   77.5185  223.0874 H   0  0  0  0  0  0  0  0  0  0  0  0
  141.1852   79.2987  224.8768 H   0  0  0  0  0  0  0  0  0  0  0  0
  142.6464   78.4592  224.2066 H   0  0  0  0  0  0  0  0  0  0  0  0
  142.3639   81.1900  224.4570 H   0  0  0  0  0  0  0  0  0  0  0  0
  143.4903   80.3750  223.3455 H   0  0  0  0  0  0  0  0  0  0  0  0
  140.5585   81.0026  222.6631 H   0  0  0  0  0  0  0  0  0  0  0  0
  141.9125   82.0637  222.2108 H   0  0  0  0  0  0  0  0  0  0  0  0
  141.2604   80.3977  220.4238 H   0  0  0  0  0  0  0  0  0  0  0  0
  142.9922   80.2606  220.9975 H   0  0  0  0  0  0  0  0  0  0  0  0
  139.2245   70.2672  222.2284 H   0  0  0  0  0  0  0  0  0  0  0  0
  139.2333   68.5550  223.9872 H   0  0  0  0  0  0  0  0  0  0  0  0
  139.7667   67.9457  226.3087 H   0  0  0  0  0  0  0  0  0  0  0  0
  141.5042   70.8673  228.9248 H   0  0  0  0  0  0  0  0  0  0  0  0
  141.4589   72.5479  227.0805 H   0  0  0  0  0  0  0  0  0  0  0  0
  1  2  2  0
  2  3  1  0
  3  4  1  0
  4  5  1  0
  5  6  2  0
  5  7  1  0
  7  8  1  0
  8  9  1  0
  9 10  1  0
 10 11  1  0
 11 12  1  0
 12 13  1  0
 13 14  1  0
 14 15  1  0
 15 16  1  0
 16 17  1  0
 17 18  1  0
  2 19  1  0
 19 20  2  0
 20 21  1  0
 21 22  2  0
 22 23  1  0
 23 24  2  0
 24 25  1  0
 24 26  1  0
 26 27  2  0
 27 28  1  0
 28 29  2  0
 12  7  1  0
 18 13  1  0
 29 19  1  0
 28 22  1  0
  3 30  1  0
  4 31  1  0
  4 32  1  0
  8 33  1  0
  8 34  1  0
  9 35  1  0
  9 36  1  0
 10 37  1  0
 10 38  1  0
 11 39  1  0
 11 40  1  0
 12 41  1  1
 13 42  1  0
 14 43  1  0
 14 44  1  0
 15 45  1  0
 15 46  1  0
 16 47  1  0
 16 48  1  0
 17 49  1  0
 17 50  1  0
 18 51  1  0
 18 52  1  0
 20 53  1  0
 21 54  1  0
 23 55  1  0
 26 56  1  0
 27 57  1  0
M  END
>  <smiles>  (26) 
O=C(NCC(=O)N1CCCCC1C1CCCCC1)c1ccc2cc(Cl)ccc2n1

>  <score_type>  (26) 
oracle

>  <origin>  (26) 
autodockgpu

>  <m_score__min__energy>  (26) 
-9.3699999999999992

>  <m_primary>  (26) 
energy

>  <rmsd>  (26) 
2.4257282122408976

>  <m_score__min__rmsd>  (26) 
2.4257282122408976

>  <meeko>  (26) 
{"free_energy": -8.85, "intermolecular_energy": -10.35, "internal_energy": -1.35, "cluster_size": 38, "cluster_id": 1, "rank_in_cluster": 19}

>  <energy>  (26) 
-8.48

>  <cluster_rmsd>  (26) 
0.77

>  <cluster>  (26) 
1

$$$$

     RDKit          3D

 57 60  0  0  0  0  0  0  0  0999 V2000
  140.5910   72.5760  220.7620 O   0  0  0  0  0  0  0  0  0  0  0  0
  140.2170   72.9100  221.9330 C   0  0  0  0  0  0  0  0  0  0  0  0
  139.8440   74.3090  222.1230 N   0  0  0  0  0  0  0  0  0  0  0  0
  139.9450   75.1250  220.9710 C   0  0  0  0  0  0  0  0  0  0  0  0
  141.2070   75.6520  220.5050 C   0  0  0  0  0  0  0  0  0  0  0  0
  142.1960   74.7880  220.6180 O   0  0  0  0  0  0  0  0  0  0  0  0
  141.6000   76.8870  219.9580 N   0  0  0  0  0  0  0  0  0  0  0  0
  142.6880   77.0670  219.0140 C   0  0  0  0  0  0  0  0  0  0  0  0
  142.6110   78.4050  218.3080 C   0  0  0  0  0  0  0  0  0  0  0  0
  141.1690   78.6810  217.9900 C   0  0  0  0  0  0  0  0  0  0  0  0
  140.3520   78.8030  219.2350 C   0  0  0  0  0  0  0  0  0  0  0  0
  140.8630   78.0810  220.4120 C   0  0  2  0  0  0  0  0  0  0  0  0
  141.6310   78.8310  221.4320 C   0  0  0  0  0  0  0  0  0  0  0  0
  141.0210   78.4990  222.8030 C   0  0  0  0  0  0  0  0  0  0  0  0
  141.8880   79.0530  223.9130 C   0  0  0  0  0  0  0  0  0  0  0  0
  142.3050   80.4800  223.6410 C   0  0  0  0  0  0  0  0  0  0  0  0
  141.3480   81.0360  222.6020 C   0  0  0  0  0  0  0  0  0  0  0  0
  141.6310   80.3050  221.3010 C   0  0  0  0  0  0  0  0  0  0  0  0
  140.1550   71.9890  223.0340 C   0  0  0  0  0  0  0  0  0  0  0  0
  139.5730   70.7570  222.8180 C   0  0  0  0  0  0  0  0  0  0  0  0
  139.4770   69.8320  223.8120 C   0  0  0  0  0  0  0  0  0  0  0  0
  139.9710   70.1330  225.0590 C   0  0  0  0  0  0  0  0  0  0  0  0
  139.9110   69.2500  226.1180 C   0  0  0  0  0  0  0  0  0  0  0  0
  140.4120   69.5700  227.3630 C   0  0  0  0  0  0  0  0  0  0  0  0
  140.3390   68.4520  228.7110 Cl  0  0  0  0  0  0  0  0  0  0  0  0
  140.9930   70.8200  227.5520 C   0  0  0  0  0  0  0  0  0  0  0  0
  141.0680   71.7300  226.5090 C   0  0  0  0  0  0  0  0  0  0  0  0
  140.5450   71.3550  225.2680 C   0  0  0  0  0  0  0  0  0  0  0  0
  140.6320   72.2630  224.2660 N   0  0  0  0  0  0  0  0  0  0  0  0
  139.5420   74.5220  223.0740 H   0  0  0  0  0  0  0  0  0  0  0  0
  139.5347   74.5331  220.1396 H   0  0  0  0  0  0  0  0  0  0  0  0
  139.4227   76.0380  221.2929 H   0  0  0  0  0  0  0  0  0  0  0  0
  143.6428   77.0063  219.5568 H   0  0  0  0  0  0  0  0  0  0  0  0
  142.6120   76.2763  218.2530 H   0  0  0  0  0  0  0  0  0  0  0  0
  143.0066   79.1956  218.9626 H   0  0  0  0  0  0  0  0  0  0  0  0
  143.2083   78.3842  217.3845 H   0  0  0  0  0  0  0  0  0  0  0  0
  141.1007   79.6212  217.4231 H   0  0  0  0  0  0  0  0  0  0  0  0
  140.7770   77.8405  217.3986 H   0  0  0  0  0  0  0  0  0  0  0  0
  140.2904   79.8701  219.4946 H   0  0  0  0  0  0  0  0  0  0  0  0
  139.3812   78.3418  219.0008 H   0  0  0  0  0  0  0  0  0  0  0  0
  139.9546   77.8276  220.9782 H   0  0  0  0  0  0  0  0  0  0  0  0
  142.6774   78.5183  221.3009 H   0  0  0  0  0  0  0  0  0  0  0  0
  140.0172   78.9437  222.8706 H   0  0  0  0  0  0  0  0  0  0  0  0
  140.9576   77.4061  222.9107 H   0  0  0  0  0  0  0  0  0  0  0  0
  141.3226   79.0210  224.8560 H   0  0  0  0  0  0  0  0  0  0  0  0
  142.7974   78.4373  223.9759 H   0  0  0  0  0  0  0  0  0  0  0  0
  142.2442   81.0733  224.5653 H   0  0  0  0  0  0  0  0  0  0  0  0
  143.3427   80.5217  223.2786 H   0  0  0  0  0  0  0  0  0  0  0  0
  140.3079   80.8616  222.9148 H   0  0  0  0  0  0  0  0  0  0  0  0
  141.4869   82.1205  222.4811 H   0  0  0  0  0  0  0  0  0  0  0  0
  140.8600   80.5882  220.5693 H   0  0  0  0  0  0  0  0  0  0  0  0
  142.6421   80.5983  220.9820 H   0  0  0  0  0  0  0  0  0  0  0  0
  139.1776   70.5168  221.8200 H   0  0  0  0  0  0  0  0  0  0  0  0
  139.0096   68.8550  223.6196 H   0  0  0  0  0  0  0  0  0  0  0  0
  139.4505   68.2628  225.9650 H   0  0  0  0  0  0  0  0  0  0  0  0
  141.3970   71.0889  228.5392 H   0  0  0  0  0  0  0  0  0  0  0  0
  141.5262   72.7195  226.6538 H   0  0  0  0  0  0  0  0  0  0  0  0
  1  2  2  0
  2  3  1  0
  3  4  1  0
  4  5  1  0
  5  6  2  0
  5  7  1  0
  7  8  1  0
  8  9  1  0
  9 10  1  0
 10 11  1  0
 11 12  1  0
 12 13  1  0
 13 14  1  0
 14 15  1  0
 15 16  1  0
 16 17  1  0
 17 18  1  0
  2 19  1  0
 19 20  2  0
 20 21  1  0
 21 22  2  0
 22 23  1  0
 23 24  2  0
 24 25  1  0
 24 26  1  0
 26 27  2  0
 27 28  1  0
 28 29  2  0
 12  7  1  0
 18 13  1  0
 29 19  1  0
 28 22  1  0
  3 30  1  0
  4 31  1  0
  4 32  1  0
  8 33  1  0
  8 34  1  0
  9 35  1  0
  9 36  1  0
 10 37  1  0
 10 38  1  0
 11 39  1  0
 11 40  1  0
 12 41  1  1
 13 42  1  0
 14 43  1  0
 14 44  1  0
 15 45  1  0
 15 46  1  0
 16 47  1  0
 16 48  1  0
 17 49  1  0
 17 50  1  0
 18 51  1  0
 18 52  1  0
 20 53  1  0
 21 54  1  0
 23 55  1  0
 26 56  1  0
 27 57  1  0
M  END
>  <smiles>  (27) 
O=C(NCC(=O)N1CCCCC1C1CCCCC1)c1ccc2cc(Cl)ccc2n1

>  <score_type>  (27) 
oracle

>  <origin>  (27) 
autodockgpu

>  <m_score__min__energy>  (27) 
-9.3699999999999992

>  <m_primary>  (27) 
energy

>  <rmsd>  (27) 
2.3929814700217773

>  <m_score__min__rmsd>  (27) 
2.3929814700217773

>  <meeko>  (27) 
{"free_energy": -9.0, "intermolecular_energy": -10.49, "internal_energy": -1.45, "cluster_size": 38, "cluster_id": 1, "rank_in_cluster": 17}

>  <energy>  (27) 
-8.4

>  <cluster_rmsd>  (27) 
1.09

>  <cluster>  (27) 
1

$$$$

     RDKit          3D

 57 60  0  0  0  0  0  0  0  0999 V2000
  140.7910   72.4440  221.0240 O   0  0  0  0  0  0  0  0  0  0  0  0
  140.1430   72.6400  222.1030 C   0  0  0  0  0  0  0  0  0  0  0  0
  139.3800   73.8810  222.1860 N   0  0  0  0  0  0  0  0  0  0  0  0
  139.4560   74.7180  221.0470 C   0  0  0  0  0  0  0  0  0  0  0  0
  139.9220   76.0840  221.1220 C   0  0  0  0  0  0  0  0  0  0  0  0
  139.1700   76.8400  221.8960 O   0  0  0  0  0  0  0  0  0  0  0  0
  141.0040   76.7720  220.5450 N   0  0  0  0  0  0  0  0  0  0  0  0
  142.1830   76.1400  219.9800 C   0  0  0  0  0  0  0  0  0  0  0  0
  142.9620   77.0850  219.0890 C   0  0  0  0  0  0  0  0  0  0  0  0
  141.9770   77.8900  218.2900 C   0  0  0  0  0  0  0  0  0  0  0  0
  141.1240   78.7380  219.1760 C   0  0  0  0  0  0  0  0  0  0  0  0
  140.9370   78.2450  220.5510 C   0  0  2  0  0  0  0  0  0  0  0  0
  141.7700   78.8170  221.6340 C   0  0  0  0  0  0  0  0  0  0  0  0
  140.9600   78.7210  222.9360 C   0  0  0  0  0  0  0  0  0  0  0  0
  141.8270   79.0810  224.1240 C   0  0  0  0  0  0  0  0  0  0  0  0
  142.6310   80.3360  223.8700 C   0  0  0  0  0  0  0  0  0  0  0  0
  141.9650   81.0720  222.7230 C   0  0  0  0  0  0  0  0  0  0  0  0
  142.1720   80.2320  221.4750 C   0  0  0  0  0  0  0  0  0  0  0  0
  140.1400   71.7130  223.2010 C   0  0  0  0  0  0  0  0  0  0  0  0
  139.6250   70.4520  222.9860 C   0  0  0  0  0  0  0  0  0  0  0  0
  139.5870   69.5210  223.9780 C   0  0  0  0  0  0  0  0  0  0  0  0
  140.0750   69.8450  225.2210 C   0  0  0  0  0  0  0  0  0  0  0  0
  140.0720   68.9570  226.2780 C   0  0  0  0  0  0  0  0  0  0  0  0
  140.5650   69.3000  227.5200 C   0  0  0  0  0  0  0  0  0  0  0  0
  140.5640   68.1760  228.8640 Cl  0  0  0  0  0  0  0  0  0  0  0  0
  141.0790   70.5790  227.7080 C   0  0  0  0  0  0  0  0  0  0  0  0
  141.0960   71.4950  226.6680 C   0  0  0  0  0  0  0  0  0  0  0  0
  140.5840   71.0960  225.4300 C   0  0  0  0  0  0  0  0  0  0  0  0
  140.6130   72.0100  224.4300 N   0  0  0  0  0  0  0  0  0  0  0  0
  138.8700   73.9850  223.0650 H   0  0  0  0  0  0  0  0  0  0  0  0
  140.1199   74.2064  220.3346 H   0  0  0  0  0  0  0  0  0  0  0  0
  138.3944   74.8533  220.7928 H   0  0  0  0  0  0  0  0  0  0  0  0
  142.8353   75.8072  220.8008 H   0  0  0  0  0  0  0  0  0  0  0  0
  141.8512   75.2901  219.3656 H   0  0  0  0  0  0  0  0  0  0  0  0
  143.5789   77.7555  219.7054 H   0  0  0  0  0  0  0  0  0  0  0  0
  143.6245   76.5180  218.4184 H   0  0  0  0  0  0  0  0  0  0  0  0
  142.5267   78.5397  217.5931 H   0  0  0  0  0  0  0  0  0  0  0  0
  141.3244   77.1950  217.7413 H   0  0  0  0  0  0  0  0  0  0  0  0
  141.5856   79.7347  219.2350 H   0  0  0  0  0  0  0  0  0  0  0  0
  140.1233   78.7337  218.7192 H   0  0  0  0  0  0  0  0  0  0  0  0
  139.9420   78.6215  220.8308 H   0  0  0  0  0  0  0  0  0  0  0  0
  142.7045   78.2369  221.6239 H   0  0  0  0  0  0  0  0  0  0  0  0
  140.1083   79.4152  222.8851 H   0  0  0  0  0  0  0  0  0  0  0  0
  140.5993   77.6889  223.0569 H   0  0  0  0  0  0  0  0  0  0  0  0
  141.1819   79.2422  225.0002 H   0  0  0  0  0  0  0  0  0  0  0  0
  142.5299   78.2531  224.2988 H   0  0  0  0  0  0  0  0  0  0  0  0
  142.6371   80.9681  224.7702 H   0  0  0  0  0  0  0  0  0  0  0  0
  143.6734   80.0878  223.6214 H   0  0  0  0  0  0  0  0  0  0  0  0
  140.8901   81.1908  222.9241 H   0  0  0  0  0  0  0  0  0  0  0  0
  142.3983   82.0752  222.5967 H   0  0  0  0  0  0  0  0  0  0  0  0
  141.5793   80.6713  220.6591 H   0  0  0  0  0  0  0  0  0  0  0  0
  143.2510   80.2364  221.2613 H   0  0  0  0  0  0  0  0  0  0  0  0
  139.2361   70.1927  221.9902 H   0  0  0  0  0  0  0  0  0  0  0  0
  139.1706   68.5210  223.7870 H   0  0  0  0  0  0  0  0  0  0  0  0
  139.6647   67.9466  226.1255 H   0  0  0  0  0  0  0  0  0  0  0  0
  141.4762   70.8664  228.6927 H   0  0  0  0  0  0  0  0  0  0  0  0
  141.5010   72.5074  226.8127 H   0  0  0  0  0  0  0  0  0  0  0  0
  1  2  2  0
  2  3  1  0
  3  4  1  0
  4  5  1  0
  5  6  2  0
  5  7  1  0
  7  8  1  0
  8  9  1  0
  9 10  1  0
 10 11  1  0
 11 12  1  0
 12 13  1  0
 13 14  1  0
 14 15  1  0
 15 16  1  0
 16 17  1  0
 17 18  1  0
  2 19  1  0
 19 20  2  0
 20 21  1  0
 21 22  2  0
 22 23  1  0
 23 24  2  0
 24 25  1  0
 24 26  1  0
 26 27  2  0
 27 28  1  0
 28 29  2  0
 12  7  1  0
 18 13  1  0
 29 19  1  0
 28 22  1  0
  3 30  1  0
  4 31  1  0
  4 32  1  0
  8 33  1  0
  8 34  1  0
  9 35  1  0
  9 36  1  0
 10 37  1  0
 10 38  1  0
 11 39  1  0
 11 40  1  0
 12 41  1  1
 13 42  1  0
 14 43  1  0
 14 44  1  0
 15 45  1  0
 15 46  1  0
 16 47  1  0
 16 48  1  0
 17 49  1  0
 17 50  1  0
 18 51  1  0
 18 52  1  0
 20 53  1  0
 21 54  1  0
 23 55  1  0
 26 56  1  0
 27 57  1  0
M  END
>  <smiles>  (28) 
O=C(NCC(=O)N1CCCCC1C1CCCCC1)c1ccc2cc(Cl)ccc2n1

>  <score_type>  (28) 
oracle

>  <origin>  (28) 
autodockgpu

>  <m_score__min__energy>  (28) 
-9.3699999999999992

>  <m_primary>  (28) 
energy

>  <rmsd>  (28) 
2.132155941245713

>  <m_score__min__rmsd>  (28) 
2.132155941245713

>  <meeko>  (28) 
{"free_energy": -9.33, "intermolecular_energy": -10.82, "internal_energy": -1.37, "cluster_size": 38, "cluster_id": 1, "rank_in_cluster": 4}

>  <energy>  (28) 
-8.4

>  <cluster_rmsd>  (28) 
1.06

>  <cluster>  (28) 
1

$$$$

     RDKit          3D

 57 60  0  0  0  0  0  0  0  0999 V2000
  140.9060   72.8880  221.0880 O   0  0  0  0  0  0  0  0  0  0  0  0
  140.0600   72.8870  222.0400 C   0  0  0  0  0  0  0  0  0  0  0  0
  139.0270   73.9180  221.9930 N   0  0  0  0  0  0  0  0  0  0  0  0
  139.0960   74.7950  220.8850 C   0  0  0  0  0  0  0  0  0  0  0  0
  139.7690   76.0730  220.9520 C   0  0  0  0  0  0  0  0  0  0  0  0
  139.0400   77.0060  221.5280 O   0  0  0  0  0  0  0  0  0  0  0  0
  141.0330   76.5260  220.5330 N   0  0  0  0  0  0  0  0  0  0  0  0
  142.1980   75.6800  220.3480 C   0  0  0  0  0  0  0  0  0  0  0  0
  143.2690   76.3610  219.5210 C   0  0  0  0  0  0  0  0  0  0  0  0
  142.5910   77.1110  218.4100 C   0  0  0  0  0  0  0  0  0  0  0  0
  141.7070   78.1910  218.9430 C   0  0  0  0  0  0  0  0  0  0  0  0
  141.1780   77.9750  220.3000 C   0  0  2  0  0  0  0  0  0  0  0  0
  141.8480   78.6390  221.4420 C   0  0  0  0  0  0  0  0  0  0  0  0
  141.0560   78.2850  222.7090 C   0  0  0  0  0  0  0  0  0  0  0  0
  141.8030   78.7420  223.9440 C   0  0  0  0  0  0  0  0  0  0  0  0
  142.3210   80.1540  223.7940 C   0  0  0  0  0  0  0  0  0  0  0  0
  141.5320   80.8050  222.6730 C   0  0  0  0  0  0  0  0  0  0  0  0
  141.9390   80.1140  221.3830 C   0  0  0  0  0  0  0  0  0  0  0  0
  140.0890   71.9400  223.1210 C   0  0  0  0  0  0  0  0  0  0  0  0
  139.5960   70.6730  222.8880 C   0  0  0  0  0  0  0  0  0  0  0  0
  139.5890   69.7230  223.8620 C   0  0  0  0  0  0  0  0  0  0  0  0
  140.0850   70.0340  225.1060 C   0  0  0  0  0  0  0  0  0  0  0  0
  140.1130   69.1260  226.1460 C   0  0  0  0  0  0  0  0  0  0  0  0
  140.6140   69.4560  227.3880 C   0  0  0  0  0  0  0  0  0  0  0  0
  140.6520   68.3070  228.7110 Cl  0  0  0  0  0  0  0  0  0  0  0  0
  141.1040   70.7420  227.5940 C   0  0  0  0  0  0  0  0  0  0  0  0
  141.0910   71.6760  226.5710 C   0  0  0  0  0  0  0  0  0  0  0  0
  140.5710   71.2910  225.3320 C   0  0  0  0  0  0  0  0  0  0  0  0
  140.5700   72.2240  224.3500 N   0  0  0  0  0  0  0  0  0  0  0  0
  138.3680   73.8680  222.7710 H   0  0  0  0  0  0  0  0  0  0  0  0
  139.5878   74.2316  220.0784 H   0  0  0  0  0  0  0  0  0  0  0  0
  138.0448   75.0971  220.7679 H   0  0  0  0  0  0  0  0  0  0  0  0
  142.6160   75.4308  221.3345 H   0  0  0  0  0  0  0  0  0  0  0  0
  141.8784   74.7749  219.8108 H   0  0  0  0  0  0  0  0  0  0  0  0
  143.8383   77.0607  220.1506 H   0  0  0  0  0  0  0  0  0  0  0  0
  143.9655   75.6157  219.1094 H   0  0  0  0  0  0  0  0  0  0  0  0
  143.3574   77.5624  217.7628 H   0  0  0  0  0  0  0  0  0  0  0  0
  141.9694   76.4028  217.8425 H   0  0  0  0  0  0  0  0  0  0  0  0
  142.2850   79.1269  218.9511 H   0  0  0  0  0  0  0  0  0  0  0  0
  140.8293   78.2128  218.2803 H   0  0  0  0  0  0  0  0  0  0  0  0
  140.2115   78.5001  220.2900 H   0  0  0  0  0  0  0  0  0  0  0  0
  142.8857   78.2745  221.4257 H   0  0  0  0  0  0  0  0  0  0  0  0
  140.0754   78.7821  222.6740 H   0  0  0  0  0  0  0  0  0  0  0  0
  140.9255   77.1937  222.7547 H   0  0  0  0  0  0  0  0  0  0  0  0
  141.1225   78.7018  224.8073 H   0  0  0  0  0  0  0  0  0  0  0  0
  142.6650   78.0744  224.0898 H   0  0  0  0  0  0  0  0  0  0  0  0
  142.1738   80.7109  224.7311 H   0  0  0  0  0  0  0  0  0  0  0  0
  143.3968   80.1528  223.5646 H   0  0  0  0  0  0  0  0  0  0  0  0
  140.4534   80.6764  222.8463 H   0  0  0  0  0  0  0  0  0  0  0  0
  141.7398   81.8840  222.6224 H   0  0  0  0  0  0  0  0  0  0  0  0
  141.2814   80.4701  220.5763 H   0  0  0  0  0  0  0  0  0  0  0  0
  142.9956   80.3631  221.2055 H   0  0  0  0  0  0  0  0  0  0  0  0
  139.1996   70.4251  221.8923 H   0  0  0  0  0  0  0  0  0  0  0  0
  139.1913   68.7182  223.6566 H   0  0  0  0  0  0  0  0  0  0  0  0
  139.7247   68.1104  225.9792 H   0  0  0  0  0  0  0  0  0  0  0  0
  141.5059   71.0199  228.5795 H   0  0  0  0  0  0  0  0  0  0  0  0
  141.4793   72.6929  226.7294 H   0  0  0  0  0  0  0  0  0  0  0  0
  1  2  2  0
  2  3  1  0
  3  4  1  0
  4  5  1  0
  5  6  2  0
  5  7  1  0
  7  8  1  0
  8  9  1  0
  9 10  1  0
 10 11  1  0
 11 12  1  0
 12 13  1  0
 13 14  1  0
 14 15  1  0
 15 16  1  0
 16 17  1  0
 17 18  1  0
  2 19  1  0
 19 20  2  0
 20 21  1  0
 21 22  2  0
 22 23  1  0
 23 24  2  0
 24 25  1  0
 24 26  1  0
 26 27  2  0
 27 28  1  0
 28 29  2  0
 12  7  1  0
 18 13  1  0
 29 19  1  0
 28 22  1  0
  3 30  1  0
  4 31  1  0
  4 32  1  0
  8 33  1  0
  8 34  1  0
  9 35  1  0
  9 36  1  0
 10 37  1  0
 10 38  1  0
 11 39  1  0
 11 40  1  0
 12 41  1  6
 13 42  1  0
 14 43  1  0
 14 44  1  0
 15 45  1  0
 15 46  1  0
 16 47  1  0
 16 48  1  0
 17 49  1  0
 17 50  1  0
 18 51  1  0
 18 52  1  0
 20 53  1  0
 21 54  1  0
 23 55  1  0
 26 56  1  0
 27 57  1  0
M  END
>  <smiles>  (29) 
O=C(NCC(=O)N1CCCCC1C1CCCCC1)c1ccc2cc(Cl)ccc2n1

>  <score_type>  (29) 
oracle

>  <origin>  (29) 
autodockgpu

>  <m_score__min__energy>  (29) 
-9.3699999999999992

>  <m_primary>  (29) 
energy

>  <rmsd>  (29) 
2.147163486090367

>  <m_score__min__rmsd>  (29) 
2.147163486090367

>  <meeko>  (29) 
{"free_energy": -9.37, "intermolecular_energy": -10.86, "internal_energy": -1.3, "cluster_size": 38, "cluster_id": 1, "rank_in_cluster": 1}

>  <energy>  (29) 
-8.32

>  <cluster_rmsd>  (29) 
1.33

>  <cluster>  (29) 
1

$$$$

     RDKit          3D

 57 60  0  0  0  0  0  0  0  0999 V2000
  138.7400   72.2330  221.1180 O   0  0  0  0  0  0  0  0  0  0  0  0
  139.5860   72.4060  222.0550 C   0  0  0  0  0  0  0  0  0  0  0  0
  140.4380   73.5870  221.9520 N   0  0  0  0  0  0  0  0  0  0  0  0
  140.2150   74.3980  220.8140 C   0  0  0  0  0  0  0  0  0  0  0  0
  140.3210   75.8390  220.8590 C   0  0  0  0  0  0  0  0  0  0  0  0
  139.3740   76.4010  221.5810 O   0  0  0  0  0  0  0  0  0  0  0  0
  141.2220   76.7630  220.2980 N   0  0  0  0  0  0  0  0  0  0  0  0
  142.4240   76.4080  219.5650 C   0  0  0  0  0  0  0  0  0  0  0  0
  142.9560   77.5700  218.7510 C   0  0  0  0  0  0  0  0  0  0  0  0
  141.7840   78.2870  218.1440 C   0  0  0  0  0  0  0  0  0  0  0  0
  140.8980   78.8690  219.1970 C   0  0  0  0  0  0  0  0  0  0  0  0
  140.9250   78.1920  220.5050 C   0  0  2  0  0  0  0  0  0  0  0  0
  141.7590   78.7640  221.5870 C   0  0  0  0  0  0  0  0  0  0  0  0
  140.9640   78.6380  222.8950 C   0  0  0  0  0  0  0  0  0  0  0  0
  141.8360   78.9970  224.0790 C   0  0  0  0  0  0  0  0  0  0  0  0
  142.6180   80.2670  223.8350 C   0  0  0  0  0  0  0  0  0  0  0  0
  141.9290   81.0070  222.7030 C   0  0  0  0  0  0  0  0  0  0  0  0
  142.1380   80.1860  221.4420 C   0  0  0  0  0  0  0  0  0  0  0  0
  139.7230   71.5090  223.1690 C   0  0  0  0  0  0  0  0  0  0  0  0
  139.2520   70.2200  223.0280 C   0  0  0  0  0  0  0  0  0  0  0  0
  139.3470   69.3150  224.0390 C   0  0  0  0  0  0  0  0  0  0  0  0
  139.9260   69.6930  225.2270 C   0  0  0  0  0  0  0  0  0  0  0  0
  140.0580   68.8330  226.2990 C   0  0  0  0  0  0  0  0  0  0  0  0
  140.6420   69.2300  227.4840 C   0  0  0  0  0  0  0  0  0  0  0  0
  140.8130   68.1430  228.8480 Cl  0  0  0  0  0  0  0  0  0  0  0  0
  141.1080   70.5360  227.5980 C   0  0  0  0  0  0  0  0  0  0  0  0
  140.9900   71.4240  226.5400 C   0  0  0  0  0  0  0  0  0  0  0  0
  140.3900   70.9710  225.3620 C   0  0  0  0  0  0  0  0  0  0  0  0
  140.2870   71.8590  224.3450 N   0  0  0  0  0  0  0  0  0  0  0  0
  141.0890   73.6860  222.7320 H   0  0  0  0  0  0  0  0  0  0  0  0
  140.9339   74.0616  220.0524 H   0  0  0  0  0  0  0  0  0  0  0  0
  139.1384   74.2545  220.6399 H   0  0  0  0  0  0  0  0  0  0  0  0
  143.1969   76.0929  220.2815 H   0  0  0  0  0  0  0  0  0  0  0  0
  142.1704   75.5940  218.8700 H   0  0  0  0  0  0  0  0  0  0  0  0
  143.5168   78.2563  219.4025 H   0  0  0  0  0  0  0  0  0  0  0  0
  143.6315   77.2066  217.9626 H   0  0  0  0  0  0  0  0  0  0  0  0
  142.1547   79.0977  217.4996 H   0  0  0  0  0  0  0  0  0  0  0  0
  141.1984   77.5619  217.5598 H   0  0  0  0  0  0  0  0  0  0  0  0
  141.2009   79.9150  219.3523 H   0  0  0  0  0  0  0  0  0  0  0  0
  139.8709   78.7511  218.8212 H   0  0  0  0  0  0  0  0  0  0  0  0
  139.9152   78.3592  220.9080 H   0  0  0  0  0  0  0  0  0  0  0  0
  142.7026   78.1993  221.5606 H   0  0  0  0  0  0  0  0  0  0  0  0
  140.1004   79.3185  222.8613 H   0  0  0  0  0  0  0  0  0  0  0  0
  140.6219   77.5985  223.0060 H   0  0  0  0  0  0  0  0  0  0  0  0
  141.1964   79.1369  224.9629 H   0  0  0  0  0  0  0  0  0  0  0  0
  142.5536   78.1782  224.2360 H   0  0  0  0  0  0  0  0  0  0  0  0
  142.6224   80.8874  224.7434 H   0  0  0  0  0  0  0  0  0  0  0  0
  143.6621   80.0390  223.5745 H   0  0  0  0  0  0  0  0  0  0  0  0
  140.8542   81.1057  222.9155 H   0  0  0  0  0  0  0  0  0  0  0  0
  142.3447   82.0186  222.5856 H   0  0  0  0  0  0  0  0  0  0  0  0
  141.5316   80.6263  220.6368 H   0  0  0  0  0  0  0  0  0  0  0  0
  143.2148   80.2098  221.2186 H   0  0  0  0  0  0  0  0  0  0  0  0
  138.7894   69.9174  222.0770 H   0  0  0  0  0  0  0  0  0  0  0  0
  138.9647   68.2920  223.9074 H   0  0  0  0  0  0  0  0  0  0  0  0
  139.6869   67.8017  226.2055 H   0  0  0  0  0  0  0  0  0  0  0  0
  141.5749   70.8673  228.5373 H   0  0  0  0  0  0  0  0  0  0  0  0
  141.3586   72.4569  226.6254 H   0  0  0  0  0  0  0  0  0  0  0  0
  1  2  2  0
  2  3  1  0
  3  4  1  0
  4  5  1  0
  5  6  2  0
  5  7  1  0
  7  8  1  0
  8  9  1  0
  9 10  1  0
 10 11  1  0
 11 12  1  0
 12 13  1  0
 13 14  1  0
 14 15  1  0
 15 16  1  0
 16 17  1  0
 17 18  1  0
  2 19  1  0
 19 20  2  0
 20 21  1  0
 21 22  2  0
 22 23  1  0
 23 24  2  0
 24 25  1  0
 24 26  1  0
 26 27  2  0
 27 28  1  0
 28 29  2  0
 12  7  1  0
 18 13  1  0
 29 19  1  0
 28 22  1  0
  3 30  1  0
  4 31  1  0
  4 32  1  0
  8 33  1  0
  8 34  1  0
  9 35  1  0
  9 36  1  0
 10 37  1  0
 10 38  1  0
 11 39  1  0
 11 40  1  0
 12 41  1  1
 13 42  1  0
 14 43  1  0
 14 44  1  0
 15 45  1  0
 15 46  1  0
 16 47  1  0
 16 48  1  0
 17 49  1  0
 17 50  1  0
 18 51  1  0
 18 52  1  0
 20 53  1  0
 21 54  1  0
 23 55  1  0
 26 56  1  0
 27 57  1  0
M  END
>  <smiles>  (30) 
O=C(NCC(=O)N1CCCCC1C1CCCCC1)c1ccc2cc(Cl)ccc2n1

>  <score_type>  (30) 
oracle

>  <origin>  (30) 
autodockgpu

>  <m_score__min__energy>  (30) 
-9.3699999999999992

>  <m_primary>  (30) 
energy

>  <rmsd>  (30) 
2.1829677190371206

>  <m_score__min__rmsd>  (30) 
2.1829677190371206

>  <meeko>  (30) 
{"free_energy": -8.6, "intermolecular_energy": -10.09, "internal_energy": -1.51, "cluster_size": 38, "cluster_id": 1, "rank_in_cluster": 24}

>  <energy>  (30) 
-8.27

>  <cluster_rmsd>  (30) 
1.0

>  <cluster>  (30) 
1

$$$$

     RDKit          3D

 57 60  0  0  0  0  0  0  0  0999 V2000
  140.2020   72.2670  220.7110 O   0  0  0  0  0  0  0  0  0  0  0  0
  139.9140   72.5940  221.9070 C   0  0  0  0  0  0  0  0  0  0  0  0
  139.5000   73.9770  222.1220 N   0  0  0  0  0  0  0  0  0  0  0  0
  139.4710   74.7880  220.9630 C   0  0  0  0  0  0  0  0  0  0  0  0
  139.8970   76.1690  220.9750 C   0  0  0  0  0  0  0  0  0  0  0  0
  139.0730   76.9540  221.6380 O   0  0  0  0  0  0  0  0  0  0  0  0
  141.0030   76.8480  220.4310 N   0  0  0  0  0  0  0  0  0  0  0  0
  142.1880   76.2040  219.8920 C   0  0  0  0  0  0  0  0  0  0  0  0
  143.0020   77.1460  219.0280 C   0  0  0  0  0  0  0  0  0  0  0  0
  142.0470   77.9690  218.2100 C   0  0  0  0  0  0  0  0  0  0  0  0
  141.1820   78.8210  219.0800 C   0  0  0  0  0  0  0  0  0  0  0  0
  140.9530   78.3210  220.4460 C   0  0  2  0  0  0  0  0  0  0  0  0
  141.7660   78.8750  221.5540 C   0  0  0  0  0  0  0  0  0  0  0  0
  140.9560   78.7020  222.8480 C   0  0  0  0  0  0  0  0  0  0  0  0
  141.8080   79.0410  224.0520 C   0  0  0  0  0  0  0  0  0  0  0  0
  142.5730   80.3290  223.8530 C   0  0  0  0  0  0  0  0  0  0  0  0
  141.8880   81.0900  222.7320 C   0  0  0  0  0  0  0  0  0  0  0  0
  142.1240   80.3060  221.4530 C   0  0  0  0  0  0  0  0  0  0  0  0
  139.9810   71.6780  223.0130 C   0  0  0  0  0  0  0  0  0  0  0  0
  139.5230   70.3910  222.8200 C   0  0  0  0  0  0  0  0  0  0  0  0
  139.5530   69.4690  223.8210 C   0  0  0  0  0  0  0  0  0  0  0  0
  140.0530   69.8280  225.0500 C   0  0  0  0  0  0  0  0  0  0  0  0
  140.1170   68.9510  226.1140 C   0  0  0  0  0  0  0  0  0  0  0  0
  140.6210   69.3290  227.3410 C   0  0  0  0  0  0  0  0  0  0  0  0
  140.7050   68.2200  228.6950 Cl  0  0  0  0  0  0  0  0  0  0  0  0
  141.0750   70.6340  227.5070 C   0  0  0  0  0  0  0  0  0  0  0  0
  141.0240   71.5390  226.4580 C   0  0  0  0  0  0  0  0  0  0  0  0
  140.5040   71.1040  225.2360 C   0  0  0  0  0  0  0  0  0  0  0  0
  140.4660   72.0090  224.2290 N   0  0  0  0  0  0  0  0  0  0  0  0
  139.2700   74.1850  223.0950 H   0  0  0  0  0  0  0  0  0  0  0  0
  140.1005   74.2798  220.2177 H   0  0  0  0  0  0  0  0  0  0  0  0
  138.3906   74.8850  220.7805 H   0  0  0  0  0  0  0  0  0  0  0  0
  142.8145   75.8569  220.7269 H   0  0  0  0  0  0  0  0  0  0  0  0
  141.8615   75.3625  219.2633 H   0  0  0  0  0  0  0  0  0  0  0  0
  143.6110   77.8043  219.6650 H   0  0  0  0  0  0  0  0  0  0  0  0
  143.6748   76.5759  218.3705 H   0  0  0  0  0  0  0  0  0  0  0  0
  142.6221   78.6169  217.5321 H   0  0  0  0  0  0  0  0  0  0  0  0
  141.4002   77.2859  217.6399 H   0  0  0  0  0  0  0  0  0  0  0  0
  141.6543   79.8114  219.1583 H   0  0  0  0  0  0  0  0  0  0  0  0
  140.1936   78.8322  218.5974 H   0  0  0  0  0  0  0  0  0  0  0  0
  139.9556   78.7074  220.7028 H   0  0  0  0  0  0  0  0  0  0  0  0
  142.7183   78.3252  221.5241 H   0  0  0  0  0  0  0  0  0  0  0  0
  140.0831   79.3709  222.8216 H   0  0  0  0  0  0  0  0  0  0  0  0
  140.6273   77.6552  222.9264 H   0  0  0  0  0  0  0  0  0  0  0  0
  141.1558   79.1464  224.9315 H   0  0  0  0  0  0  0  0  0  0  0  0
  142.5363   78.2292  224.1952 H   0  0  0  0  0  0  0  0  0  0  0  0
  142.5558   80.9242  224.7779 H   0  0  0  0  0  0  0  0  0  0  0  0
  143.6237   80.1238  223.6002 H   0  0  0  0  0  0  0  0  0  0  0  0
  140.8094   81.1687  222.9331 H   0  0  0  0  0  0  0  0  0  0  0  0
  142.2912   82.1099  222.6469 H   0  0  0  0  0  0  0  0  0  0  0  0
  141.5202   80.7586  220.6527 H   0  0  0  0  0  0  0  0  0  0  0  0
  143.2031   80.3517  221.2444 H   0  0  0  0  0  0  0  0  0  0  0  0
  139.1249   70.1036  221.8357 H   0  0  0  0  0  0  0  0  0  0  0  0
  139.1813   68.4482  223.6483 H   0  0  0  0  0  0  0  0  0  0  0  0
  139.7556   67.9208  225.9795 H   0  0  0  0  0  0  0  0  0  0  0  0
  141.4783   70.9506  228.4802 H   0  0  0  0  0  0  0  0  0  0  0  0
  141.3830   72.5711  226.5841 H   0  0  0  0  0  0  0  0  0  0  0  0
  1  2  2  0
  2  3  1  0
  3  4  1  0
  4  5  1  0
  5  6  2  0
  5  7  1  0
  7  8  1  0
  8  9  1  0
  9 10  1  0
 10 11  1  0
 11 12  1  0
 12 13  1  0
 13 14  1  0
 14 15  1  0
 15 16  1  0
 16 17  1  0
 17 18  1  0
  2 19  1  0
 19 20  2  0
 20 21  1  0
 21 22  2  0
 22 23  1  0
 23 24  2  0
 24 25  1  0
 24 26  1  0
 26 27  2  0
 27 28  1  0
 28 29  2  0
 12  7  1  0
 18 13  1  0
 29 19  1  0
 28 22  1  0
  3 30  1  0
  4 31  1  0
  4 32  1  0
  8 33  1  0
  8 34  1  0
  9 35  1  0
  9 36  1  0
 10 37  1  0
 10 38  1  0
 11 39  1  0
 11 40  1  0
 12 41  1  1
 13 42  1  0
 14 43  1  0
 14 44  1  0
 15 45  1  0
 15 46  1  0
 16 47  1  0
 16 48  1  0
 17 49  1  0
 17 50  1  0
 18 51  1  0
 18 52  1  0
 20 53  1  0
 21 54  1  0
 23 55  1  0
 26 56  1  0
 27 57  1  0
M  END
>  <smiles>  (31) 
O=C(NCC(=O)N1CCCCC1C1CCCCC1)c1ccc2cc(Cl)ccc2n1

>  <score_type>  (31) 
oracle

>  <origin>  (31) 
autodockgpu

>  <m_score__min__energy>  (31) 
-9.3699999999999992

>  <m_primary>  (31) 
energy

>  <rmsd>  (31) 
2.1351004232375477

>  <m_score__min__rmsd>  (31) 
2.1351004232375477

>  <meeko>  (31) 
{"free_energy": -9.3, "intermolecular_energy": -10.79, "internal_energy": -1.42, "cluster_size": 38, "cluster_id": 1, "rank_in_cluster": 6}

>  <energy>  (31) 
-8.27

>  <cluster_rmsd>  (31) 
0.97

>  <cluster>  (31) 
1

$$$$

     RDKit          3D

 57 60  0  0  0  0  0  0  0  0999 V2000
  141.0900   75.1150  221.3910 O   0  0  0  0  0  0  0  0  0  0  0  0
  139.9910   75.3890  221.9720 C   0  0  0  0  0  0  0  0  0  0  0  0
  139.0760   74.2730  222.1930 N   0  0  0  0  0  0  0  0  0  0  0  0
  139.5310   73.0160  221.7300 C   0  0  0  0  0  0  0  0  0  0  0  0
  139.8650   71.9350  222.6290 C   0  0  0  0  0  0  0  0  0  0  0  0
  141.1470   71.6330  222.6150 O   0  0  0  0  0  0  0  0  0  0  0  0
  139.1110   71.1420  223.5150 N   0  0  0  0  0  0  0  0  0  0  0  0
  137.6650   71.1820  223.6370 C   0  0  0  0  0  0  0  0  0  0  0  0
  137.1220   69.9620  224.3520 C   0  0  0  0  0  0  0  0  0  0  0  0
  137.8910   68.7630  223.8750 C   0  0  0  0  0  0  0  0  0  0  0  0
  139.3370   68.8670  224.2360 C   0  0  0  0  0  0  0  0  0  0  0  0
  139.8630   70.2320  224.3980 C   0  0  2  0  0  0  0  0  0  0  0  0
  139.9880   70.7910  225.7640 C   0  0  0  0  0  0  0  0  0  0  0  0
  141.3650   71.4660  225.8600 C   0  0  0  0  0  0  0  0  0  0  0  0
  141.4790   72.2510  227.1490 C   0  0  0  0  0  0  0  0  0  0  0  0
  140.9880   71.4540  228.3360 C   0  0  0  0  0  0  0  0  0  0  0  0
  140.9870   69.9930  227.9260 C   0  0  0  0  0  0  0  0  0  0  0  0
  139.8980   69.8250  226.8800 C   0  0  0  0  0  0  0  0  0  0  0  0
  139.6340   76.7130  222.4010 C   0  0  0  0  0  0  0  0  0  0  0  0
  140.6500   77.6060  222.6700 C   0  0  0  0  0  0  0  0  0  0  0  0
  140.3900   78.8770  223.0810 C   0  0  0  0  0  0  0  0  0  0  0  0
  139.0840   79.2790  223.2320 C   0  0  0  0  0  0  0  0  0  0  0  0
  138.7380   80.5500  223.6450 C   0  0  0  0  0  0  0  0  0  0  0  0
  137.4220   80.9370  223.7910 C   0  0  0  0  0  0  0  0  0  0  0  0
  136.9780   82.5490  224.3140 Cl  0  0  0  0  0  0  0  0  0  0  0  0
  136.4180   80.0150  223.5130 C   0  0  0  0  0  0  0  0  0  0  0  0
  136.7310   78.7300  223.0970 C   0  0  0  0  0  0  0  0  0  0  0  0
  138.0800   78.3910  222.9650 C   0  0  0  0  0  0  0  0  0  0  0  0
  138.3590   77.1300  222.5570 N   0  0  0  0  0  0  0  0  0  0  0  0
  138.2160   74.5420  222.6720 H   0  0  0  0  0  0  0  0  0  0  0  0
  138.7425   72.6303  221.0671 H   0  0  0  0  0  0  0  0  0  0  0  0
  140.5140   73.2719  221.3078 H   0  0  0  0  0  0  0  0  0  0  0  0
  137.3811   72.0812  224.2034 H   0  0  0  0  0  0  0  0  0  0  0  0
  137.2388   71.1994  222.6231 H   0  0  0  0  0  0  0  0  0  0  0  0
  137.2490   70.0788  225.4384 H   0  0  0  0  0  0  0  0  0  0  0  0
  136.0503   69.8387  224.1367 H   0  0  0  0  0  0  0  0  0  0  0  0
  137.4698   67.8591  224.3394 H   0  0  0  0  0  0  0  0  0  0  0  0
  137.8094   68.7115  222.7792 H   0  0  0  0  0  0  0  0  0  0  0  0
  139.4863   68.3334  225.1863 H   0  0  0  0  0  0  0  0  0  0  0  0
  139.8873   68.4349  223.3872 H   0  0  0  0  0  0  0  0  0  0  0  0
  140.9208   70.1412  224.1101 H   0  0  0  0  0  0  0  0  0  0  0  0
  139.1290   71.4675  225.8842 H   0  0  0  0  0  0  0  0  0  0  0  0
  142.1492   70.6950  225.8346 H   0  0  0  0  0  0  0  0  0  0  0  0
  141.4847   72.1549  225.0109 H   0  0  0  0  0  0  0  0  0  0  0  0
  142.5336   72.5184  227.3111 H   0  0  0  0  0  0  0  0  0  0  0  0
  140.8528   73.1508  227.0583 H   0  0  0  0  0  0  0  0  0  0  0  0
  141.6593   71.6041  229.1944 H   0  0  0  0  0  0  0  0  0  0  0  0
  139.9793   71.7770  228.6329 H   0  0  0  0  0  0  0  0  0  0  0  0
  141.9641   69.7193  227.5012 H   0  0  0  0  0  0  0  0  0  0  0  0
  140.8014   69.3424  228.7933 H   0  0  0  0  0  0  0  0  0  0  0  0
  139.9692   68.8086  226.4654 H   0  0  0  0  0  0  0  0  0  0  0  0
  138.9380   70.0075  227.3850 H   0  0  0  0  0  0  0  0  0  0  0  0
  141.6947   77.2834  222.5495 H   0  0  0  0  0  0  0  0  0  0  0  0
  141.2148   79.5742  223.2898 H   0  0  0  0  0  0  0  0  0  0  0  0
  139.5352   81.2756  223.8641 H   0  0  0  0  0  0  0  0  0  0  0  0
  135.3638   80.3088  223.6245 H   0  0  0  0  0  0  0  0  0  0  0  0
  135.9398   77.9982  222.8771 H   0  0  0  0  0  0  0  0  0  0  0  0
  1  2  2  0
  2  3  1  0
  3  4  1  0
  4  5  1  0
  5  6  2  0
  5  7  1  0
  7  8  1  0
  8  9  1  0
  9 10  1  0
 10 11  1  0
 11 12  1  0
 12 13  1  0
 13 14  1  0
 14 15  1  0
 15 16  1  0
 16 17  1  0
 17 18  1  0
  2 19  1  0
 19 20  2  0
 20 21  1  0
 21 22  2  0
 22 23  1  0
 23 24  2  0
 24 25  1  0
 24 26  1  0
 26 27  2  0
 27 28  1  0
 28 29  2  0
 12  7  1  0
 18 13  1  0
 29 19  1  0
 28 22  1  0
  3 30  1  0
  4 31  1  0
  4 32  1  0
  8 33  1  0
  8 34  1  0
  9 35  1  0
  9 36  1  0
 10 37  1  0
 10 38  1  0
 11 39  1  0
 11 40  1  0
 12 41  1  6
 13 42  1  0
 14 43  1  0
 14 44  1  0
 15 45  1  0
 15 46  1  0
 16 47  1  0
 16 48  1  0
 17 49  1  0
 17 50  1  0
 18 51  1  0
 18 52  1  0
 20 53  1  0
 21 54  1  0
 23 55  1  0
 26 56  1  0
 27 57  1  0
M  END
>  <smiles>  (32) 
O=C(NCC(=O)N1CCCCC1C1CCCCC1)c1ccc2cc(Cl)ccc2n1

>  <score_type>  (32) 
oracle

>  <origin>  (32) 
autodockgpu

>  <m_score__min__energy>  (32) 
-9.3699999999999992

>  <m_primary>  (32) 
energy

>  <rmsd>  (32) 
8.543516643468775

>  <m_score__min__rmsd>  (32) 
8.543516643468775

>  <meeko>  (32) 
{"free_energy": -8.49, "intermolecular_energy": -9.98, "internal_energy": -1.58, "cluster_size": 3, "cluster_id": 2, "rank_in_cluster": 1}

>  <energy>  (32) 
-8.22

>  <cluster_rmsd>  (32) 
1.05

>  <cluster>  (32) 
1

$$$$

     RDKit          3D

 57 60  0  0  0  0  0  0  0  0999 V2000
  139.5190   71.9850  220.6660 O   0  0  0  0  0  0  0  0  0  0  0  0
  139.4670   72.3780  221.8760 C   0  0  0  0  0  0  0  0  0  0  0  0
  139.1760   73.7930  222.0880 N   0  0  0  0  0  0  0  0  0  0  0  0
  138.9880   74.5560  220.9110 C   0  0  0  0  0  0  0  0  0  0  0  0
  139.9670   75.5100  220.4440 C   0  0  0  0  0  0  0  0  0  0  0  0
  139.7400   76.7330  220.8780 O   0  0  0  0  0  0  0  0  0  0  0  0
  141.1080   75.4080  219.6270 N   0  0  0  0  0  0  0  0  0  0  0  0
  141.1000   74.9710  218.2420 C   0  0  0  0  0  0  0  0  0  0  0  0
  142.3780   75.3460  217.5210 C   0  0  0  0  0  0  0  0  0  0  0  0
  142.7750   76.7260  217.9640 C   0  0  0  0  0  0  0  0  0  0  0  0
  143.0780   76.7600  219.4270 C   0  0  0  0  0  0  0  0  0  0  0  0
  142.4040   75.7410  220.2470 C   0  0  2  0  0  0  0  0  0  0  0  0
  143.1510   74.5180  220.6220 C   0  0  0  0  0  0  0  0  0  0  0  0
  144.4480   74.5010  219.7980 C   0  0  0  0  0  0  0  0  0  0  0  0
  145.3670   73.4010  220.2840 C   0  0  0  0  0  0  0  0  0  0  0  0
  144.6260   72.0980  220.4800 C   0  0  0  0  0  0  0  0  0  0  0  0
  143.3340   72.1930  219.6900 C   0  0  0  0  0  0  0  0  0  0  0  0
  142.4650   73.2300  220.3790 C   0  0  0  0  0  0  0  0  0  0  0  0
  139.6770   71.5060  222.9990 C   0  0  0  0  0  0  0  0  0  0  0  0
  139.3410   70.1760  222.8610 C   0  0  0  0  0  0  0  0  0  0  0  0
  139.5100   69.2910  223.8810 C   0  0  0  0  0  0  0  0  0  0  0  0
  140.0300   69.7330  225.0740 C   0  0  0  0  0  0  0  0  0  0  0  0
  140.2320   68.8980  226.1550 C   0  0  0  0  0  0  0  0  0  0  0  0
  140.7540   69.3590  227.3450 C   0  0  0  0  0  0  0  0  0  0  0  0
  141.0130   68.3030  228.7190 Cl  0  0  0  0  0  0  0  0  0  0  0  0
  141.0850   70.7060  227.4550 C   0  0  0  0  0  0  0  0  0  0  0  0
  140.8940   71.5710  226.3890 C   0  0  0  0  0  0  0  0  0  0  0  0
  140.3610   71.0520  225.2060 C   0  0  0  0  0  0  0  0  0  0  0  0
  140.1850   71.9190  224.1800 N   0  0  0  0  0  0  0  0  0  0  0  0
  139.1340   74.0550  223.0740 H   0  0  0  0  0  0  0  0  0  0  0  0
  138.8529   73.8313  220.0946 H   0  0  0  0  0  0  0  0  0  0  0  0
  138.1509   75.2103  221.1956 H   0  0  0  0  0  0  0  0  0  0  0  0
  140.9851   73.8773  218.2154 H   0  0  0  0  0  0  0  0  0  0  0  0
  140.2633   75.4716  217.7328 H   0  0  0  0  0  0  0  0  0  0  0  0
  143.1733   74.6296  217.7745 H   0  0  0  0  0  0  0  0  0  0  0  0
  142.2221   75.3249  216.4323 H   0  0  0  0  0  0  0  0  0  0  0  0
  143.6696   77.0383  217.4053 H   0  0  0  0  0  0  0  0  0  0  0  0
  141.9355   77.4090  217.7672 H   0  0  0  0  0  0  0  0  0  0  0  0
  144.1631   76.6275  219.5496 H   0  0  0  0  0  0  0  0  0  0  0  0
  142.7006   77.7286  219.7866 H   0  0  0  0  0  0  0  0  0  0  0  0
  142.2910   76.2266  221.2275 H   0  0  0  0  0  0  0  0  0  0  0  0
  143.2926   74.5820  221.7110 H   0  0  0  0  0  0  0  0  0  0  0  0
  144.2029   74.3275  218.7398 H   0  0  0  0  0  0  0  0  0  0  0  0
  144.9574   75.4690  219.9141 H   0  0  0  0  0  0  0  0  0  0  0  0
  146.1646   73.2492  219.5418 H   0  0  0  0  0  0  0  0  0  0  0  0
  145.7842   73.7071  221.2547 H   0  0  0  0  0  0  0  0  0  0  0  0
  145.2337   71.2595  220.1091 H   0  0  0  0  0  0  0  0  0  0  0  0
  144.4197   71.9228  221.5462 H   0  0  0  0  0  0  0  0  0  0  0  0
  143.5457   72.5045  218.6565 H   0  0  0  0  0  0  0  0  0  0  0  0
  142.8254   71.2184  219.6524 H   0  0  0  0  0  0  0  0  0  0  0  0
  141.5847   73.4198  219.7473 H   0  0  0  0  0  0  0  0  0  0  0  0
  142.1963   72.8196  221.3635 H   0  0  0  0  0  0  0  0  0  0  0  0
  138.9271   69.8223  221.9052 H   0  0  0  0  0  0  0  0  0  0  0  0
  139.2336   68.2341  223.7521 H   0  0  0  0  0  0  0  0  0  0  0  0
  139.9688   67.8338  226.0641 H   0  0  0  0  0  0  0  0  0  0  0  0
  141.5027   71.0884  228.3980 H   0  0  0  0  0  0  0  0  0  0  0  0
  141.1547   72.6364  226.4719 H   0  0  0  0  0  0  0  0  0  0  0  0
  1  2  2  0
  2  3  1  0
  3  4  1  0
  4  5  1  0
  5  6  2  0
  5  7  1  0
  7  8  1  0
  8  9  1  0
  9 10  1  0
 10 11  1  0
 11 12  1  0
 12 13  1  0
 13 14  1  0
 14 15  1  0
 15 16  1  0
 16 17  1  0
 17 18  1  0
  2 19  1  0
 19 20  2  0
 20 21  1  0
 21 22  2  0
 22 23  1  0
 23 24  2  0
 24 25  1  0
 24 26  1  0
 26 27  2  0
 27 28  1  0
 28 29  2  0
 12  7  1  0
 18 13  1  0
 29 19  1  0
 28 22  1  0
  3 30  1  0
  4 31  1  0
  4 32  1  0
  8 33  1  0
  8 34  1  0
  9 35  1  0
  9 36  1  0
 10 37  1  0
 10 38  1  0
 11 39  1  0
 11 40  1  0
 12 41  1  1
 13 42  1  0
 14 43  1  0
 14 44  1  0
 15 45  1  0
 15 46  1  0
 16 47  1  0
 16 48  1  0
 17 49  1  0
 17 50  1  0
 18 51  1  0
 18 52  1  0
 20 53  1  0
 21 54  1  0
 23 55  1  0
 26 56  1  0
 27 57  1  0
M  END
>  <smiles>  (33) 
O=C(NCC(=O)N1CCCCC1C1CCCCC1)c1ccc2cc(Cl)ccc2n1

>  <score_type>  (33) 
oracle

>  <origin>  (33) 
autodockgpu

>  <m_score__min__energy>  (33) 
-9.3699999999999992

>  <m_primary>  (33) 
energy

>  <rmsd>  (33) 
1.751922292379977

>  <m_score__min__rmsd>  (33) 
1.751922292379977

>  <meeko>  (33) 
{"free_energy": -7.71, "intermolecular_energy": -9.21, "internal_energy": -1.97, "cluster_size": 38, "cluster_id": 1, "rank_in_cluster": 36}

>  <energy>  (33) 
-8.08

>  <cluster_rmsd>  (33) 
1.05

>  <cluster>  (33) 
1

$$$$

     RDKit          3D

 57 60  0  0  0  0  0  0  0  0999 V2000
  140.0180   72.4660  220.8450 O   0  0  0  0  0  0  0  0  0  0  0  0
  139.8230   72.7720  222.0660 C   0  0  0  0  0  0  0  0  0  0  0  0
  139.4800   74.1640  222.3410 N   0  0  0  0  0  0  0  0  0  0  0  0
  139.4070   75.0060  221.2060 C   0  0  0  0  0  0  0  0  0  0  0  0
  139.4550   76.4460  221.3090 C   0  0  0  0  0  0  0  0  0  0  0  0
  138.4710   76.9420  222.0300 O   0  0  0  0  0  0  0  0  0  0  0  0
  140.3290   77.4260  220.8020 N   0  0  0  0  0  0  0  0  0  0  0  0
  141.6430   77.1570  220.2450 C   0  0  0  0  0  0  0  0  0  0  0  0
  142.1620   78.3220  219.4290 C   0  0  0  0  0  0  0  0  0  0  0  0
  141.0150   78.8860  218.6400 C   0  0  0  0  0  0  0  0  0  0  0  0
  139.9530   79.4290  219.5390 C   0  0  0  0  0  0  0  0  0  0  0  0
  139.8760   78.8270  220.8800 C   0  0  2  0  0  0  0  0  0  0  0  0
  140.5100   79.5340  222.0170 C   0  0  0  0  0  0  0  0  0  0  0  0
  141.2940   80.7230  221.4390 C   0  0  0  0  0  0  0  0  0  0  0  0
  141.7860   81.6220  222.5530 C   0  0  0  0  0  0  0  0  0  0  0  0
  142.4130   80.8290  223.6770 C   0  0  0  0  0  0  0  0  0  0  0  0
  142.7660   79.4620  223.1190 C   0  0  0  0  0  0  0  0  0  0  0  0
  141.4570   78.7460  222.8350 C   0  0  0  0  0  0  0  0  0  0  0  0
  139.9260   71.8250  223.1430 C   0  0  0  0  0  0  0  0  0  0  0  0
  139.5230   70.5270  222.9080 C   0  0  0  0  0  0  0  0  0  0  0  0
  139.5900   69.5760  223.8780 C   0  0  0  0  0  0  0  0  0  0  0  0
  140.0720   69.9160  225.1200 C   0  0  0  0  0  0  0  0  0  0  0  0
  140.1710   69.0090  226.1560 C   0  0  0  0  0  0  0  0  0  0  0  0
  140.6560   69.3690  227.3960 C   0  0  0  0  0  0  0  0  0  0  0  0
  140.7850   68.2220  228.7140 Cl  0  0  0  0  0  0  0  0  0  0  0  0
  141.0550   70.6860  227.6040 C   0  0  0  0  0  0  0  0  0  0  0  0
  140.9680   71.6210  226.5850 C   0  0  0  0  0  0  0  0  0  0  0  0
  140.4690   71.2040  225.3480 C   0  0  0  0  0  0  0  0  0  0  0  0
  140.3950   72.1380  224.3700 N   0  0  0  0  0  0  0  0  0  0  0  0
  139.3230   74.3540  223.3320 H   0  0  0  0  0  0  0  0  0  0  0  0
  140.2458   74.7171  220.5556 H   0  0  0  0  0  0  0  0  0  0  0  0
  138.3758   74.8365  220.8626 H   0  0  0  0  0  0  0  0  0  0  0  0
  142.3446   76.9600  221.0690 H   0  0  0  0  0  0  0  0  0  0  0  0
  141.5579   76.2862  219.5784 H   0  0  0  0  0  0  0  0  0  0  0  0
  142.5696   79.0939  220.0983 H   0  0  0  0  0  0  0  0  0  0  0  0
  142.9622   77.9873  218.7525 H   0  0  0  0  0  0  0  0  0  0  0  0
  141.3874   79.6958  217.9954 H   0  0  0  0  0  0  0  0  0  0  0  0
  140.5783   78.0772  218.0357 H   0  0  0  0  0  0  0  0  0  0  0  0
  140.1353   80.5066  219.6633 H   0  0  0  0  0  0  0  0  0  0  0  0
  138.9975   79.1889  219.0497 H   0  0  0  0  0  0  0  0  0  0  0  0
  138.8120   78.9134  221.1454 H   0  0  0  0  0  0  0  0  0  0  0  0
  139.6843   79.8043  222.6917 H   0  0  0  0  0  0  0  0  0  0  0  0
  142.1565   80.3461  220.8697 H   0  0  0  0  0  0  0  0  0  0  0  0
  140.6301   81.3019  220.7801 H   0  0  0  0  0  0  0  0  0  0  0  0
  142.5355   82.3165  222.1457 H   0  0  0  0  0  0  0  0  0  0  0  0
  140.9218   82.1679  222.9595 H   0  0  0  0  0  0  0  0  0  0  0  0
  143.3212   81.3360  224.0350 H   0  0  0  0  0  0  0  0  0  0  0  0
  141.7184   80.7373  224.5251 H   0  0  0  0  0  0  0  0  0  0  0  0
  143.3458   79.5713  222.1906 H   0  0  0  0  0  0  0  0  0  0  0  0
  143.3776   78.8924  223.8342 H   0  0  0  0  0  0  0  0  0  0  0  0
  141.6820   77.8112  222.3007 H   0  0  0  0  0  0  0  0  0  0  0  0
  140.9713   78.5699  223.8062 H   0  0  0  0  0  0  0  0  0  0  0  0
  139.1388   70.2549  221.9138 H   0  0  0  0  0  0  0  0  0  0  0  0
  139.2623   68.5465  223.6712 H   0  0  0  0  0  0  0  0  0  0  0  0
  139.8540   67.9692  225.9877 H   0  0  0  0  0  0  0  0  0  0  0  0
  141.4435   70.9879  228.5878 H   0  0  0  0  0  0  0  0  0  0  0  0
  141.2830   72.6627  226.7453 H   0  0  0  0  0  0  0  0  0  0  0  0
  1  2  2  0
  2  3  1  0
  3  4  1  0
  4  5  1  0
  5  6  2  0
  5  7  1  0
  7  8  1  0
  8  9  1  0
  9 10  1  0
 10 11  1  0
 11 12  1  0
 12 13  1  0
 13 14  1  0
 14 15  1  0
 15 16  1  0
 16 17  1  0
 17 18  1  0
  2 19  1  0
 19 20  2  0
 20 21  1  0
 21 22  2  0
 22 23  1  0
 23 24  2  0
 24 25  1  0
 24 26  1  0
 26 27  2  0
 27 28  1  0
 28 29  2  0
 12  7  1  0
 18 13  1  0
 29 19  1  0
 28 22  1  0
  3 30  1  0
  4 31  1  0
  4 32  1  0
  8 33  1  0
  8 34  1  0
  9 35  1  0
  9 36  1  0
 10 37  1  0
 10 38  1  0
 11 39  1  0
 11 40  1  0
 12 41  1  1
 13 42  1  0
 14 43  1  0
 14 44  1  0
 15 45  1  0
 15 46  1  0
 16 47  1  0
 16 48  1  0
 17 49  1  0
 17 50  1  0
 18 51  1  0
 18 52  1  0
 20 53  1  0
 21 54  1  0
 23 55  1  0
 26 56  1  0
 27 57  1  0
M  END
>  <smiles>  (34) 
O=C(NCC(=O)N1CCCCC1C1CCCCC1)c1ccc2cc(Cl)ccc2n1

>  <score_type>  (34) 
oracle

>  <origin>  (34) 
autodockgpu

>  <m_score__min__energy>  (34) 
-9.3699999999999992

>  <m_primary>  (34) 
energy

>  <rmsd>  (34) 
2.4340908383303548

>  <m_score__min__rmsd>  (34) 
2.4340908383303548

>  <meeko>  (34) 
{"free_energy": -8.69, "intermolecular_energy": -10.18, "internal_energy": -1.43, "cluster_size": 38, "cluster_id": 1, "rank_in_cluster": 22}

>  <energy>  (34) 
-8.0

>  <cluster_rmsd>  (34) 
1.11

>  <cluster>  (34) 
1

$$$$

     RDKit          3D

 57 60  0  0  0  0  0  0  0  0999 V2000
  140.9000   73.3030  221.6480 O   0  0  0  0  0  0  0  0  0  0  0  0
  139.9170   72.9670  222.3840 C   0  0  0  0  0  0  0  0  0  0  0  0
  138.6500   73.6470  222.1300 N   0  0  0  0  0  0  0  0  0  0  0  0
  138.6740   74.6020  221.0860 C   0  0  0  0  0  0  0  0  0  0  0  0
  139.1410   75.9550  221.2870 C   0  0  0  0  0  0  0  0  0  0  0  0
  138.3060   76.6840  221.9990 O   0  0  0  0  0  0  0  0  0  0  0  0
  140.2950   76.6520  220.8850 N   0  0  0  0  0  0  0  0  0  0  0  0
  141.6330   76.0900  220.8490 C   0  0  0  0  0  0  0  0  0  0  0  0
  142.5770   76.9250  220.0080 C   0  0  0  0  0  0  0  0  0  0  0  0
  141.8280   77.3900  218.7910 C   0  0  0  0  0  0  0  0  0  0  0  0
  140.6830   78.2750  219.1630 C   0  0  0  0  0  0  0  0  0  0  0  0
  140.1200   78.0670  220.5070 C   0  0  2  0  0  0  0  0  0  0  0  0
  140.5360   78.9720  221.6030 C   0  0  0  0  0  0  0  0  0  0  0  0
  141.7820   79.7320  221.1230 C   0  0  0  0  0  0  0  0  0  0  0  0
  142.1360   80.8340  222.0990 C   0  0  0  0  0  0  0  0  0  0  0  0
  142.1000   80.3480  223.5300 C   0  0  0  0  0  0  0  0  0  0  0  0
  142.1860   78.8330  223.4920 C   0  0  0  0  0  0  0  0  0  0  0  0
  140.8870   78.3280  222.8880 C   0  0  0  0  0  0  0  0  0  0  0  0
  140.0110   71.9770  223.4220 C   0  0  0  0  0  0  0  0  0  0  0  0
  139.5900   70.6950  223.1370 C   0  0  0  0  0  0  0  0  0  0  0  0
  139.6480   69.7040  224.0680 C   0  0  0  0  0  0  0  0  0  0  0  0
  140.1370   69.9890  225.3210 C   0  0  0  0  0  0  0  0  0  0  0  0
  140.2280   69.0400  226.3200 C   0  0  0  0  0  0  0  0  0  0  0  0
  140.7220   69.3430  227.5710 C   0  0  0  0  0  0  0  0  0  0  0  0
  140.8390   68.1420  228.8420 Cl  0  0  0  0  0  0  0  0  0  0  0  0
  141.1390   70.6450  227.8300 C   0  0  0  0  0  0  0  0  0  0  0  0
  141.0610   71.6210  226.8490 C   0  0  0  0  0  0  0  0  0  0  0  0
  140.5520   71.2610  225.5990 C   0  0  0  0  0  0  0  0  0  0  0  0
  140.4870   72.2340  224.6590 N   0  0  0  0  0  0  0  0  0  0  0  0
  137.8930   73.3340  222.7380 H   0  0  0  0  0  0  0  0  0  0  0  0
  139.3062   74.1742  220.2939 H   0  0  0  0  0  0  0  0  0  0  0  0
  137.6019   74.7574  220.8952 H   0  0  0  0  0  0  0  0  0  0  0  0
  142.0240   76.0378  221.8758 H   0  0  0  0  0  0  0  0  0  0  0  0
  141.5692   75.0896  220.3962 H   0  0  0  0  0  0  0  0  0  0  0  0
  142.9237   77.7935  220.5872 H   0  0  0  0  0  0  0  0  0  0  0  0
  143.4534   76.3295  219.7126 H   0  0  0  0  0  0  0  0  0  0  0  0
  142.5155   77.9487  218.1390 H   0  0  0  0  0  0  0  0  0  0  0  0
  141.4291   76.5068  218.2705 H   0  0  0  0  0  0  0  0  0  0  0  0
  141.0284   79.3175  219.0999 H   0  0  0  0  0  0  0  0  0  0  0  0
  139.8743   78.0269  218.4598 H   0  0  0  0  0  0  0  0  0  0  0  0
  139.0622   78.3469  220.3944 H   0  0  0  0  0  0  0  0  0  0  0  0
  139.6593   79.6023  221.8132 H   0  0  0  0  0  0  0  0  0  0  0  0
  142.6265   79.0314  221.0454 H   0  0  0  0  0  0  0  0  0  0  0  0
  141.5708   80.1794  220.1405 H   0  0  0  0  0  0  0  0  0  0  0  0
  143.1485   81.1991  221.8721 H   0  0  0  0  0  0  0  0  0  0  0  0
  141.3931   81.6381  221.9917 H   0  0  0  0  0  0  0  0  0  0  0  0
  142.9528   80.7599  224.0894 H   0  0  0  0  0  0  0  0  0  0  0  0
  141.1761   80.6742  224.0299 H   0  0  0  0  0  0  0  0  0  0  0  0
  143.0382   78.5187  222.8715 H   0  0  0  0  0  0  0  0  0  0  0  0
  142.3339   78.4234  224.5021 H   0  0  0  0  0  0  0  0  0  0  0  0
  140.9810   77.2451  222.7190 H   0  0  0  0  0  0  0  0  0  0  0  0
  140.0854   78.5750  223.5997 H   0  0  0  0  0  0  0  0  0  0  0  0
  139.1984   70.4683  222.1344 H   0  0  0  0  0  0  0  0  0  0  0  0
  139.3078   68.6875  223.8210 H   0  0  0  0  0  0  0  0  0  0  0  0
  139.8966   68.0120  226.1116 H   0  0  0  0  0  0  0  0  0  0  0  0
  141.5347   70.9023  228.8236 H   0  0  0  0  0  0  0  0  0  0  0  0
  141.3909   72.6511  227.0493 H   0  0  0  0  0  0  0  0  0  0  0  0
  1  2  2  0
  2  3  1  0
  3  4  1  0
  4  5  1  0
  5  6  2  0
  5  7  1  0
  7  8  1  0
  8  9  1  0
  9 10  1  0
 10 11  1  0
 11 12  1  0
 12 13  1  0
 13 14  1  0
 14 15  1  0
 15 16  1  0
 16 17  1  0
 17 18  1  0
  2 19  1  0
 19 20  2  0
 20 21  1  0
 21 22  2  0
 22 23  1  0
 23 24  2  0
 24 25  1  0
 24 26  1  0
 26 27  2  0
 27 28  1  0
 28 29  2  0
 12  7  1  0
 18 13  1  0
 29 19  1  0
 28 22  1  0
  3 30  1  0
  4 31  1  0
  4 32  1  0
  8 33  1  0
  8 34  1  0
  9 35  1  0
  9 36  1  0
 10 37  1  0
 10 38  1  0
 11 39  1  0
 11 40  1  0
 12 41  1  6
 13 42  1  0
 14 43  1  0
 14 44  1  0
 15 45  1  0
 15 46  1  0
 16 47  1  0
 16 48  1  0
 17 49  1  0
 17 50  1  0
 18 51  1  0
 18 52  1  0
 20 53  1  0
 21 54  1  0
 23 55  1  0
 26 56  1  0
 27 57  1  0
M  END
>  <smiles>  (35) 
O=C(NCC(=O)N1CCCCC1C1CCCCC1)c1ccc2cc(Cl)ccc2n1

>  <score_type>  (35) 
oracle

>  <origin>  (35) 
autodockgpu

>  <m_score__min__energy>  (35) 
-9.3699999999999992

>  <m_primary>  (35) 
energy

>  <rmsd>  (35) 
2.163087362035268

>  <m_score__min__rmsd>  (35) 
2.163087362035268

>  <meeko>  (35) 
{"free_energy": -8.71, "intermolecular_energy": -10.2, "internal_energy": -1.43, "cluster_size": 38, "cluster_id": 1, "rank_in_cluster": 21}

>  <energy>  (35) 
-7.8

>  <cluster_rmsd>  (35) 
1.8

>  <cluster>  (35) 
1

$$$$

     RDKit          3D

 57 60  0  0  0  0  0  0  0  0999 V2000
  136.4100   77.6320  222.6390 O   0  0  0  0  0  0  0  0  0  0  0  0
  136.4700   76.4470  223.1010 C   0  0  0  0  0  0  0  0  0  0  0  0
  137.6150   75.6430  222.6850 N   0  0  0  0  0  0  0  0  0  0  0  0
  138.5230   76.2880  221.8120 C   0  0  0  0  0  0  0  0  0  0  0  0
  139.8660   75.8010  221.5960 C   0  0  0  0  0  0  0  0  0  0  0  0
  140.0570   74.5910  222.0800 O   0  0  0  0  0  0  0  0  0  0  0  0
  141.0080   76.3460  220.9800 N   0  0  0  0  0  0  0  0  0  0  0  0
  142.1870   75.5880  220.6010 C   0  0  0  0  0  0  0  0  0  0  0  0
  143.0540   76.3430  219.6150 C   0  0  0  0  0  0  0  0  0  0  0  0
  142.1500   77.0360  218.6350 C   0  0  0  0  0  0  0  0  0  0  0  0
  141.2870   78.0480  219.3140 C   0  0  0  0  0  0  0  0  0  0  0  0
  141.0040   77.8010  220.7370 C   0  0  2  0  0  0  0  0  0  0  0  0
  141.8010   78.5180  221.7590 C   0  0  0  0  0  0  0  0  0  0  0  0
  140.9950   78.5000  223.0670 C   0  0  0  0  0  0  0  0  0  0  0  0
  141.8370   79.0180  224.2130 C   0  0  0  0  0  0  0  0  0  0  0  0
  142.5690   80.2870  223.8410 C   0  0  0  0  0  0  0  0  0  0  0  0
  141.8650   80.8730  222.6300 C   0  0  0  0  0  0  0  0  0  0  0  0
  142.1230   79.9320  221.4660 C   0  0  0  0  0  0  0  0  0  0  0  0
  135.4820   75.8950  223.9880 C   0  0  0  0  0  0  0  0  0  0  0  0
  134.6010   76.7620  224.5990 C   0  0  0  0  0  0  0  0  0  0  0  0
  133.6400   76.3130  225.4520 C   0  0  0  0  0  0  0  0  0  0  0  0
  133.5450   74.9660  225.7080 C   0  0  0  0  0  0  0  0  0  0  0  0
  132.5980   74.4340  226.5600 C   0  0  0  0  0  0  0  0  0  0  0  0
  132.5180   73.0790  226.8060 C   0  0  0  0  0  0  0  0  0  0  0  0
  131.3180   72.3980  227.8860 Cl  0  0  0  0  0  0  0  0  0  0  0  0
  133.4210   72.2280  226.1750 C   0  0  0  0  0  0  0  0  0  0  0  0
  134.3840   72.7310  225.3150 C   0  0  0  0  0  0  0  0  0  0  0  0
  134.4210   74.1120  225.1010 C   0  0  0  0  0  0  0  0  0  0  0  0
  135.3720   74.5760  224.2550 N   0  0  0  0  0  0  0  0  0  0  0  0
  137.6230   74.7070  223.0920 H   0  0  0  0  0  0  0  0  0  0  0  0
  138.0399   76.3025  220.8239 H   0  0  0  0  0  0  0  0  0  0  0  0
  138.7072   77.2372  222.3366 H   0  0  0  0  0  0  0  0  0  0  0  0
  142.7783   75.3758  221.5040 H   0  0  0  0  0  0  0  0  0  0  0  0
  141.8524   74.6586  220.1171 H   0  0  0  0  0  0  0  0  0  0  0  0
  143.6653   77.0859  220.1484 H   0  0  0  0  0  0  0  0  0  0  0  0
  143.7264   75.6492  219.0891 H   0  0  0  0  0  0  0  0  0  0  0  0
  142.7650   77.5413  217.8757 H   0  0  0  0  0  0  0  0  0  0  0  0
  141.4991   76.2812  218.1696 H   0  0  0  0  0  0  0  0  0  0  0  0
  141.7867   79.0247  219.2344 H   0  0  0  0  0  0  0  0  0  0  0  0
  140.3135   77.9988  218.8042 H   0  0  0  0  0  0  0  0  0  0  0  0
  140.0128   78.2532  220.8886 H   0  0  0  0  0  0  0  0  0  0  0  0
  142.7665   77.9925  221.8010 H   0  0  0  0  0  0  0  0  0  0  0  0
  140.1058   79.1375  222.9536 H   0  0  0  0  0  0  0  0  0  0  0  0
  140.6929   77.4651  223.2856 H   0  0  0  0  0  0  0  0  0  0  0  0
  141.1816   79.2235  225.0722 H   0  0  0  0  0  0  0  0  0  0  0  0
  142.5854   78.2513  224.4620 H   0  0  0  0  0  0  0  0  0  0  0  0
  142.5360   81.0002  224.6778 H   0  0  0  0  0  0  0  0  0  0  0  0
  143.6248   80.0768  223.6150 H   0  0  0  0  0  0  0  0  0  0  0  0
  140.7845   80.9491  222.8216 H   0  0  0  0  0  0  0  0  0  0  0  0
  142.2411   81.8827  222.4085 H   0  0  0  0  0  0  0  0  0  0  0  0
  141.5090   80.2582  220.6136 H   0  0  0  0  0  0  0  0  0  0  0  0
  143.2007   79.9772  221.2501 H   0  0  0  0  0  0  0  0  0  0  0  0
  134.6764   77.8398  224.3926 H   0  0  0  0  0  0  0  0  0  0  0  0
  132.9471   77.0204  225.9311 H   0  0  0  0  0  0  0  0  0  0  0  0
  131.8867   75.1100  227.0570 H   0  0  0  0  0  0  0  0  0  0  0  0
  133.3695   71.1451  226.3610 H   0  0  0  0  0  0  0  0  0  0  0  0
  135.0996   72.0621  224.8145 H   0  0  0  0  0  0  0  0  0  0  0  0
  1  2  2  0
  2  3  1  0
  3  4  1  0
  4  5  1  0
  5  6  2  0
  5  7  1  0
  7  8  1  0
  8  9  1  0
  9 10  1  0
 10 11  1  0
 11 12  1  0
 12 13  1  0
 13 14  1  0
 14 15  1  0
 15 16  1  0
 16 17  1  0
 17 18  1  0
  2 19  1  0
 19 20  2  0
 20 21  1  0
 21 22  2  0
 22 23  1  0
 23 24  2  0
 24 25  1  0
 24 26  1  0
 26 27  2  0
 27 28  1  0
 28 29  2  0
 12  7  1  0
 18 13  1  0
 29 19  1  0
 28 22  1  0
  3 30  1  0
  4 31  1  0
  4 32  1  0
  8 33  1  0
  8 34  1  0
  9 35  1  0
  9 36  1  0
 10 37  1  0
 10 38  1  0
 11 39  1  0
 11 40  1  0
 12 41  1  6
 13 42  1  0
 14 43  1  0
 14 44  1  0
 15 45  1  0
 15 46  1  0
 16 47  1  0
 16 48  1  0
 17 49  1  0
 17 50  1  0
 18 51  1  0
 18 52  1  0
 20 53  1  0
 21 54  1  0
 23 55  1  0
 26 56  1  0
 27 57  1  0
M  END
>  <smiles>  (36) 
O=C(NCC(=O)N1CCCCC1C1CCCCC1)c1ccc2cc(Cl)ccc2n1

>  <score_type>  (36) 
oracle

>  <origin>  (36) 
autodockgpu

>  <m_score__min__energy>  (36) 
-9.3699999999999992

>  <m_primary>  (36) 
energy

>  <rmsd>  (36) 
6.029686735254743

>  <m_score__min__rmsd>  (36) 
6.029686735254743

>  <meeko>  (36) 
{"free_energy": -8.13, "intermolecular_energy": -9.63, "internal_energy": -1.77, "cluster_size": 4, "cluster_id": 4, "rank_in_cluster": 1}

>  <energy>  (36) 
-7.71

>  <cluster_rmsd>  (36) 
1.63

>  <cluster>  (36) 
1

$$$$

     RDKit          3D

 57 60  0  0  0  0  0  0  0  0999 V2000
  139.7070   72.6120  220.7500 O   0  0  0  0  0  0  0  0  0  0  0  0
  139.6170   72.9040  221.9860 C   0  0  0  0  0  0  0  0  0  0  0  0
  139.3430   74.3010  222.3070 N   0  0  0  0  0  0  0  0  0  0  0  0
  139.2100   75.1640  221.1930 C   0  0  0  0  0  0  0  0  0  0  0  0
  140.3370   75.8640  220.6200 C   0  0  0  0  0  0  0  0  0  0  0  0
  140.4760   77.0850  221.0930 O   0  0  0  0  0  0  0  0  0  0  0  0
  141.3130   75.5170  219.6670 N   0  0  0  0  0  0  0  0  0  0  0  0
  141.0330   74.9120  218.3770 C   0  0  0  0  0  0  0  0  0  0  0  0
  142.2090   75.0300  217.4290 C   0  0  0  0  0  0  0  0  0  0  0  0
  142.8130   76.3940  217.6040 C   0  0  0  0  0  0  0  0  0  0  0  0
  143.3530   76.5760  218.9850 C   0  0  0  0  0  0  0  0  0  0  0  0
  142.7190   75.7610  220.0350 C   0  0  2  0  0  0  0  0  0  0  0  0
  143.3870   74.5120  220.4690 C   0  0  0  0  0  0  0  0  0  0  0  0
  144.4620   74.1790  219.4240 C   0  0  0  0  0  0  0  0  0  0  0  0
  145.3350   73.0410  219.9090 C   0  0  0  0  0  0  0  0  0  0  0  0
  144.5120   71.9070  220.4770 C   0  0  0  0  0  0  0  0  0  0  0  0
  143.0970   72.0710  219.9510 C   0  0  0  0  0  0  0  0  0  0  0  0
  142.5230   73.3190  220.6010 C   0  0  0  0  0  0  0  0  0  0  0  0
  139.7720   71.9370  223.0380 C   0  0  0  0  0  0  0  0  0  0  0  0
  139.3760   70.6390  222.7910 C   0  0  0  0  0  0  0  0  0  0  0  0
  139.4900   69.6680  223.7390 C   0  0  0  0  0  0  0  0  0  0  0  0
  140.0130   69.9900  224.9690 C   0  0  0  0  0  0  0  0  0  0  0  0
  140.1620   69.0630  225.9810 C   0  0  0  0  0  0  0  0  0  0  0  0
  140.6880   69.4040  227.2100 C   0  0  0  0  0  0  0  0  0  0  0  0
  140.8790   68.2310  228.4980 Cl  0  0  0  0  0  0  0  0  0  0  0  0
  141.0790   70.7210  227.4300 C   0  0  0  0  0  0  0  0  0  0  0  0
  140.9430   71.6750  226.4350 C   0  0  0  0  0  0  0  0  0  0  0  0
  140.4030   71.2770  225.2090 C   0  0  0  0  0  0  0  0  0  0  0  0
  140.2810   72.2300  224.2530 N   0  0  0  0  0  0  0  0  0  0  0  0
  139.2690   74.4800  223.3090 H   0  0  0  0  0  0  0  0  0  0  0  0
  138.7833   74.5548  220.3826 H   0  0  0  0  0  0  0  0  0  0  0  0
  138.6188   75.9904  221.6143 H   0  0  0  0  0  0  0  0  0  0  0  0
  140.8026   73.8469  218.5265 H   0  0  0  0  0  0  0  0  0  0  0  0
  140.1804   75.4439  217.9295 H   0  0  0  0  0  0  0  0  0  0  0  0
  142.9565   74.2580  217.6640 H   0  0  0  0  0  0  0  0  0  0  0  0
  141.8768   74.8903  216.3897 H   0  0  0  0  0  0  0  0  0  0  0  0
  143.6316   76.5189  216.8799 H   0  0  0  0  0  0  0  0  0  0  0  0
  142.0273   77.1454  217.4369 H   0  0  0  0  0  0  0  0  0  0  0  0
  144.4239   76.3254  218.9641 H   0  0  0  0  0  0  0  0  0  0  0  0
  143.1427   77.6222  219.2519 H   0  0  0  0  0  0  0  0  0  0  0  0
  142.8172   76.3769  220.9411 H   0  0  0  0  0  0  0  0  0  0  0  0
  143.7700   74.7181  221.4794 H   0  0  0  0  0  0  0  0  0  0  0  0
  143.9740   73.8857  218.4828 H   0  0  0  0  0  0  0  0  0  0  0  0
  145.0905   75.0673  219.2631 H   0  0  0  0  0  0  0  0  0  0  0  0
  145.9286   72.6621  219.0640 H   0  0  0  0  0  0  0  0  0  0  0  0
  145.9864   73.4252  220.7078 H   0  0  0  0  0  0  0  0  0  0  0  0
  144.9256   70.9412  220.1510 H   0  0  0  0  0  0  0  0  0  0  0  0
  144.5244   71.9285  221.5767 H   0  0  0  0  0  0  0  0  0  0  0  0
  143.1117   72.1874  218.8573 H   0  0  0  0  0  0  0  0  0  0  0  0
  142.4853   71.1881  220.1883 H   0  0  0  0  0  0  0  0  0  0  0  0
  141.5530   73.5397  220.1316 H   0  0  0  0  0  0  0  0  0  0  0  0
  142.4317   73.1070  221.6765 H   0  0  0  0  0  0  0  0  0  0  0  0
  138.9587   70.3824  221.8061 H   0  0  0  0  0  0  0  0  0  0  0  0
  139.1676   68.6387  223.5233 H   0  0  0  0  0  0  0  0  0  0  0  0
  139.8525   68.0227  225.8024 H   0  0  0  0  0  0  0  0  0  0  0  0
  141.5007   71.0077  228.4046 H   0  0  0  0  0  0  0  0  0  0  0  0
  141.2515   72.7171  226.6051 H   0  0  0  0  0  0  0  0  0  0  0  0
  1  2  2  0
  2  3  1  0
  3  4  1  0
  4  5  1  0
  5  6  2  0
  5  7  1  0
  7  8  1  0
  8  9  1  0
  9 10  1  0
 10 11  1  0
 11 12  1  0
 12 13  1  0
 13 14  1  0
 14 15  1  0
 15 16  1  0
 16 17  1  0
 17 18  1  0
  2 19  1  0
 19 20  2  0
 20 21  1  0
 21 22  2  0
 22 23  1  0
 23 24  2  0
 24 25  1  0
 24 26  1  0
 26 27  2  0
 27 28  1  0
 28 29  2  0
 12  7  1  0
 18 13  1  0
 29 19  1  0
 28 22  1  0
  3 30  1  0
  4 31  1  0
  4 32  1  0
  8 33  1  0
  8 34  1  0
  9 35  1  0
  9 36  1  0
 10 37  1  0
 10 38  1  0
 11 39  1  0
 11 40  1  0
 12 41  1  1
 13 42  1  0
 14 43  1  0
 14 44  1  0
 15 45  1  0
 15 46  1  0
 16 47  1  0
 16 48  1  0
 17 49  1  0
 17 50  1  0
 18 51  1  0
 18 52  1  0
 20 53  1  0
 21 54  1  0
 23 55  1  0
 26 56  1  0
 27 57  1  0
M  END
>  <smiles>  (37) 
O=C(NCC(=O)N1CCCCC1C1CCCCC1)c1ccc2cc(Cl)ccc2n1

>  <score_type>  (37) 
oracle

>  <origin>  (37) 
autodockgpu

>  <m_score__min__energy>  (37) 
-9.3699999999999992

>  <m_primary>  (37) 
energy

>  <rmsd>  (37) 
1.933914080645119

>  <m_score__min__rmsd>  (37) 
1.933914080645119

>  <meeko>  (37) 
{"free_energy": -7.61, "intermolecular_energy": -9.1, "internal_energy": -2.03, "cluster_size": 38, "cluster_id": 1, "rank_in_cluster": 37}

>  <energy>  (37) 
-7.61

>  <cluster_rmsd>  (37) 
1.69

>  <cluster>  (37) 
1

$$$$

     RDKit          3D

 57 60  0  0  0  0  0  0  0  0999 V2000
  139.9210   72.3660  220.6910 O   0  0  0  0  0  0  0  0  0  0  0  0
  139.7330   72.7190  221.9000 C   0  0  0  0  0  0  0  0  0  0  0  0
  139.3810   74.1180  222.1220 N   0  0  0  0  0  0  0  0  0  0  0  0
  139.2910   74.9130  220.9550 C   0  0  0  0  0  0  0  0  0  0  0  0
  139.8380   76.2490  220.8870 C   0  0  0  0  0  0  0  0  0  0  0  0
  139.0090   77.1670  221.3400 O   0  0  0  0  0  0  0  0  0  0  0  0
  141.0660   76.7720  220.4410 N   0  0  0  0  0  0  0  0  0  0  0  0
  142.2400   75.9790  220.1260 C   0  0  0  0  0  0  0  0  0  0  0  0
  143.2460   76.7560  219.3020 C   0  0  0  0  0  0  0  0  0  0  0  0
  142.4900   77.5730  218.2940 C   0  0  0  0  0  0  0  0  0  0  0  0
  141.6090   78.5790  218.9610 C   0  0  0  0  0  0  0  0  0  0  0  0
  141.1610   78.2390  220.3210 C   0  0  2  0  0  0  0  0  0  0  0  0
  141.8760   78.8280  221.4770 C   0  0  0  0  0  0  0  0  0  0  0  0
  141.0170   78.5760  222.7260 C   0  0  0  0  0  0  0  0  0  0  0  0
  141.7820   78.9510  223.9770 C   0  0  0  0  0  0  0  0  0  0  0  0
  142.4640   80.2930  223.8350 C   0  0  0  0  0  0  0  0  0  0  0  0
  141.7830   81.0240  222.6920 C   0  0  0  0  0  0  0  0  0  0  0  0
  142.1380   80.2820  221.4150 C   0  0  0  0  0  0  0  0  0  0  0  0
  139.8530   71.8170  223.0120 C   0  0  0  0  0  0  0  0  0  0  0  0
  139.4550   70.5080  222.8340 C   0  0  0  0  0  0  0  0  0  0  0  0
  139.5380   69.5970  223.8410 C   0  0  0  0  0  0  0  0  0  0  0  0
  140.0310   69.9900  225.0630 C   0  0  0  0  0  0  0  0  0  0  0  0
  140.1460   69.1260  226.1340 C   0  0  0  0  0  0  0  0  0  0  0  0
  140.6420   69.5380  227.3530 C   0  0  0  0  0  0  0  0  0  0  0  0
  140.7910   68.4450  228.7150 Cl  0  0  0  0  0  0  0  0  0  0  0  0
  141.0360   70.8640  227.5040 C   0  0  0  0  0  0  0  0  0  0  0  0
  140.9330   71.7570  226.4490 C   0  0  0  0  0  0  0  0  0  0  0  0
  140.4230   71.2870  225.2350 C   0  0  0  0  0  0  0  0  0  0  0  0
  140.3330   72.1810  224.2210 N   0  0  0  0  0  0  0  0  0  0  0  0
  139.2300   74.3460  223.1060 H   0  0  0  0  0  0  0  0  0  0  0  0
  139.7820   74.3397  220.1549 H   0  0  0  0  0  0  0  0  0  0  0  0
  138.2098   75.1061  220.8937 H   0  0  0  0  0  0  0  0  0  0  0  0
  142.7181   75.6639  221.0653 H   0  0  0  0  0  0  0  0  0  0  0  0
  141.9145   75.1108  219.5341 H   0  0  0  0  0  0  0  0  0  0  0  0
  143.8314   77.4189  219.9560 H   0  0  0  0  0  0  0  0  0  0  0  0
  143.9367   76.0669  218.7940 H   0  0  0  0  0  0  0  0  0  0  0  0
  143.2082   78.0985  217.6475 H   0  0  0  0  0  0  0  0  0  0  0  0
  141.8570   76.8953  217.7023 H   0  0  0  0  0  0  0  0  0  0  0  0
  142.1623   79.5281  219.0157 H   0  0  0  0  0  0  0  0  0  0  0  0
  140.6957   78.6270  218.3498 H   0  0  0  0  0  0  0  0  0  0  0  0
  140.1826   78.7345  220.4055 H   0  0  0  0  0  0  0  0  0  0  0  0
  142.8646   78.3458  221.4879 H   0  0  0  0  0  0  0  0  0  0  0  0
  140.1019   79.1833  222.6651 H   0  0  0  0  0  0  0  0  0  0  0  0
  140.7593   77.5076  222.7722 H   0  0  0  0  0  0  0  0  0  0  0  0
  141.0810   78.9953  224.8236 H   0  0  0  0  0  0  0  0  0  0  0  0
  142.5570   78.1889  224.1460 H   0  0  0  0  0  0  0  0  0  0  0  0
  142.3596   80.8692  224.7662 H   0  0  0  0  0  0  0  0  0  0  0  0
  143.5377   80.1658  223.6325 H   0  0  0  0  0  0  0  0  0  0  0  0
  140.6929   81.0225  222.8390 H   0  0  0  0  0  0  0  0  0  0  0  0
  142.1159   82.0713  222.6425 H   0  0  0  0  0  0  0  0  0  0  0  0
  141.5453   80.7063  220.5912 H   0  0  0  0  0  0  0  0  0  0  0  0
  143.2203   80.4063  221.2626 H   0  0  0  0  0  0  0  0  0  0  0  0
  139.0617   70.1939  221.8559 H   0  0  0  0  0  0  0  0  0  0  0  0
  139.2145   68.5581  223.6795 H   0  0  0  0  0  0  0  0  0  0  0  0
  139.8329   68.0787  226.0113 H   0  0  0  0  0  0  0  0  0  0  0  0
  141.4333   71.2070  228.4707 H   0  0  0  0  0  0  0  0  0  0  0  0
  141.2437   72.8060  226.5636 H   0  0  0  0  0  0  0  0  0  0  0  0
  1  2  2  0
  2  3  1  0
  3  4  1  0
  4  5  1  0
  5  6  2  0
  5  7  1  0
  7  8  1  0
  8  9  1  0
  9 10  1  0
 10 11  1  0
 11 12  1  0
 12 13  1  0
 13 14  1  0
 14 15  1  0
 15 16  1  0
 16 17  1  0
 17 18  1  0
  2 19  1  0
 19 20  2  0
 20 21  1  0
 21 22  2  0
 22 23  1  0
 23 24  2  0
 24 25  1  0
 24 26  1  0
 26 27  2  0
 27 28  1  0
 28 29  2  0
 12  7  1  0
 18 13  1  0
 29 19  1  0
 28 22  1  0
  3 30  1  0
  4 31  1  0
  4 32  1  0
  8 33  1  0
  8 34  1  0
  9 35  1  0
  9 36  1  0
 10 37  1  0
 10 38  1  0
 11 39  1  0
 11 40  1  0
 12 41  1  6
 13 42  1  0
 14 43  1  0
 14 44  1  0
 15 45  1  0
 15 46  1  0
 16 47  1  0
 16 48  1  0
 17 49  1  0
 17 50  1  0
 18 51  1  0
 18 52  1  0
 20 53  1  0
 21 54  1  0
 23 55  1  0
 26 56  1  0
 27 57  1  0
M  END
>  <smiles>  (38) 
O=C(NCC(=O)N1CCCCC1C1CCCCC1)c1ccc2cc(Cl)ccc2n1

>  <score_type>  (38) 
oracle

>  <origin>  (38) 
autodockgpu

>  <m_score__min__energy>  (38) 
-9.3699999999999992

>  <m_primary>  (38) 
energy

>  <rmsd>  (38) 
2.162969507451683

>  <m_score__min__rmsd>  (38) 
2.162969507451683

>  <meeko>  (38) 
{"free_energy": -9.33, "intermolecular_energy": -10.82, "internal_energy": -1.45, "cluster_size": 38, "cluster_id": 1, "rank_in_cluster": 3}

>  <energy>  (38) 
-7.57

>  <cluster_rmsd>  (38) 
1.78

>  <cluster>  (38) 
1

$$$$

     RDKit          3D

 57 60  0  0  0  0  0  0  0  0999 V2000
  140.3070   72.5430  220.7320 O   0  0  0  0  0  0  0  0  0  0  0  0
  140.0470   72.8950  221.9280 C   0  0  0  0  0  0  0  0  0  0  0  0
  139.7600   74.3100  222.1420 N   0  0  0  0  0  0  0  0  0  0  0  0
  139.8080   75.1200  220.9820 C   0  0  0  0  0  0  0  0  0  0  0  0
  141.0540   75.5230  220.3710 C   0  0  0  0  0  0  0  0  0  0  0  0
  141.9110   74.5300  220.2520 O   0  0  0  0  0  0  0  0  0  0  0  0
  141.5410   76.7480  219.8790 N   0  0  0  0  0  0  0  0  0  0  0  0
  142.6640   76.8880  218.9690 C   0  0  0  0  0  0  0  0  0  0  0  0
  142.6930   78.2520  218.3100 C   0  0  0  0  0  0  0  0  0  0  0  0
  141.2810   78.6330  217.9670 C   0  0  0  0  0  0  0  0  0  0  0  0
  140.4410   78.7660  219.1940 C   0  0  0  0  0  0  0  0  0  0  0  0
  140.8710   77.9720  220.3570 C   0  0  2  0  0  0  0  0  0  0  0  0
  141.6590   78.6350  221.4220 C   0  0  0  0  0  0  0  0  0  0  0  0
  140.9380   78.3790  222.7540 C   0  0  0  0  0  0  0  0  0  0  0  0
  141.7960   78.8350  223.9140 C   0  0  0  0  0  0  0  0  0  0  0  0
  142.3860   80.2050  223.6710 C   0  0  0  0  0  0  0  0  0  0  0  0
  141.5610   80.8610  222.5790 C   0  0  0  0  0  0  0  0  0  0  0  0
  141.8330   80.0980  221.2950 C   0  0  0  0  0  0  0  0  0  0  0  0
  140.0280   71.9770  223.0340 C   0  0  0  0  0  0  0  0  0  0  0  0
  139.4560   70.7380  222.8400 C   0  0  0  0  0  0  0  0  0  0  0  0
  139.4000   69.8170  223.8410 C   0  0  0  0  0  0  0  0  0  0  0  0
  139.9270   70.1300  225.0710 C   0  0  0  0  0  0  0  0  0  0  0  0
  139.9090   69.2510  226.1360 C   0  0  0  0  0  0  0  0  0  0  0  0
  140.4430   69.5820  227.3640 C   0  0  0  0  0  0  0  0  0  0  0  0
  140.4230   68.4700  228.7180 Cl  0  0  0  0  0  0  0  0  0  0  0  0
  141.0140   70.8400  227.5300 C   0  0  0  0  0  0  0  0  0  0  0  0
  141.0470   71.7460  226.4810 C   0  0  0  0  0  0  0  0  0  0  0  0
  140.4930   71.3590  225.2580 C   0  0  0  0  0  0  0  0  0  0  0  0
  140.5390   72.2640  224.2500 N   0  0  0  0  0  0  0  0  0  0  0  0
  139.5480   74.5380  223.1130 H   0  0  0  0  0  0  0  0  0  0  0  0
  139.2481   74.5772  220.2062 H   0  0  0  0  0  0  0  0  0  0  0  0
  139.4192   76.0779  221.3578 H   0  0  0  0  0  0  0  0  0  0  0  0
  143.5979   76.7458  219.5326 H   0  0  0  0  0  0  0  0  0  0  0  0
  142.5576   76.1306  218.1784 H   0  0  0  0  0  0  0  0  0  0  0  0
  143.1214   78.9918  219.0022 H   0  0  0  0  0  0  0  0  0  0  0  0
  143.3122   78.2238  217.4013 H   0  0  0  0  0  0  0  0  0  0  0  0
  141.2892   79.5944  217.4326 H   0  0  0  0  0  0  0  0  0  0  0  0
  140.8513   77.8406  217.3366 H   0  0  0  0  0  0  0  0  0  0  0  0
  140.4423   79.8254  219.4901 H   0  0  0  0  0  0  0  0  0  0  0  0
  139.4491   78.3781  218.9191 H   0  0  0  0  0  0  0  0  0  0  0  0
  139.9329   77.7599  220.8909 H   0  0  0  0  0  0  0  0  0  0  0  0
  142.6694   78.2060  221.3507 H   0  0  0  0  0  0  0  0  0  0  0  0
  139.9886   78.9345  222.7649 H   0  0  0  0  0  0  0  0  0  0  0  0
  140.7459   77.3006  222.8544 H   0  0  0  0  0  0  0  0  0  0  0  0
  141.1770   78.8699  224.8226 H   0  0  0  0  0  0  0  0  0  0  0  0
  142.6250   78.1209  224.0276 H   0  0  0  0  0  0  0  0  0  0  0  0
  142.3378   80.8049  224.5917 H   0  0  0  0  0  0  0  0  0  0  0  0
  143.4414   80.1282  223.3706 H   0  0  0  0  0  0  0  0  0  0  0  0
  140.4915   80.8075  222.8304 H   0  0  0  0  0  0  0  0  0  0  0  0
  141.8302   81.9218  222.4686 H   0  0  0  0  0  0  0  0  0  0  0  0
  141.1419   80.4636  220.5213 H   0  0  0  0  0  0  0  0  0  0  0  0
  142.8872   80.2739  221.0349 H   0  0  0  0  0  0  0  0  0  0  0  0
  139.0355   70.4879  221.8548 H   0  0  0  0  0  0  0  0  0  0  0  0
  138.9383   68.8338  223.6673 H   0  0  0  0  0  0  0  0  0  0  0  0
  139.4556   68.2579  226.0011 H   0  0  0  0  0  0  0  0  0  0  0  0
  141.4437   71.1186  228.5035 H   0  0  0  0  0  0  0  0  0  0  0  0
  141.4968   72.7418  226.6080 H   0  0  0  0  0  0  0  0  0  0  0  0
  1  2  2  0
  2  3  1  0
  3  4  1  0
  4  5  1  0
  5  6  2  0
  5  7  1  0
  7  8  1  0
  8  9  1  0
  9 10  1  0
 10 11  1  0
 11 12  1  0
 12 13  1  0
 13 14  1  0
 14 15  1  0
 15 16  1  0
 16 17  1  0
 17 18  1  0
  2 19  1  0
 19 20  2  0
 20 21  1  0
 21 22  2  0
 22 23  1  0
 23 24  2  0
 24 25  1  0
 24 26  1  0
 26 27  2  0
 27 28  1  0
 28 29  2  0
 12  7  1  0
 18 13  1  0
 29 19  1  0
 28 22  1  0
  3 30  1  0
  4 31  1  0
  4 32  1  0
  8 33  1  0
  8 34  1  0
  9 35  1  0
  9 36  1  0
 10 37  1  0
 10 38  1  0
 11 39  1  0
 11 40  1  0
 12 41  1  1
 13 42  1  0
 14 43  1  0
 14 44  1  0
 15 45  1  0
 15 46  1  0
 16 47  1  0
 16 48  1  0
 17 49  1  0
 17 50  1  0
 18 51  1  0
 18 52  1  0
 20 53  1  0
 21 54  1  0
 23 55  1  0
 26 56  1  0
 27 57  1  0
M  END
>  <smiles>  (39) 
O=C(NCC(=O)N1CCCCC1C1CCCCC1)c1ccc2cc(Cl)ccc2n1

>  <score_type>  (39) 
oracle

>  <origin>  (39) 
autodockgpu

>  <m_score__min__energy>  (39) 
-9.3699999999999992

>  <m_primary>  (39) 
energy

>  <rmsd>  (39) 
2.3314347126102044

>  <m_score__min__rmsd>  (39) 
2.3314347126102044

>  <meeko>  (39) 
{"free_energy": -8.97, "intermolecular_energy": -10.46, "internal_energy": -1.44, "cluster_size": 38, "cluster_id": 1, "rank_in_cluster": 18}

>  <energy>  (39) 
-8.49

>  <cluster_rmsd>  (39) 
0.0

>  <cluster>  (39) 
2

$$$$

     RDKit          3D

 57 60  0  0  0  0  0  0  0  0999 V2000
  140.6000   72.4890  220.7470 O   0  0  0  0  0  0  0  0  0  0  0  0
  140.2300   72.8260  221.9180 C   0  0  0  0  0  0  0  0  0  0  0  0
  139.8580   74.2260  222.1050 N   0  0  0  0  0  0  0  0  0  0  0  0
  139.9580   75.0390  220.9510 C   0  0  0  0  0  0  0  0  0  0  0  0
  141.2030   75.6430  220.5370 C   0  0  0  0  0  0  0  0  0  0  0  0
  142.2270   74.8190  220.6250 O   0  0  0  0  0  0  0  0  0  0  0  0
  141.5500   76.9200  220.0600 N   0  0  0  0  0  0  0  0  0  0  0  0
  142.5690   77.1840  219.0600 C   0  0  0  0  0  0  0  0  0  0  0  0
  142.4360   78.5710  218.4650 C   0  0  0  0  0  0  0  0  0  0  0  0
  140.9740   78.8540  218.2680 C   0  0  0  0  0  0  0  0  0  0  0  0
  140.2440   78.8710  219.5720 C   0  0  0  0  0  0  0  0  0  0  0  0
  140.8390   78.0680  220.6520 C   0  0  2  0  0  0  0  0  0  0  0  0
  141.6710   78.7480  221.6720 C   0  0  0  0  0  0  0  0  0  0  0  0
  140.9540   78.6020  223.0230 C   0  0  0  0  0  0  0  0  0  0  0  0
  141.8470   79.0770  224.1480 C   0  0  0  0  0  0  0  0  0  0  0  0
  142.5010   80.4010  223.8240 C   0  0  0  0  0  0  0  0  0  0  0  0
  141.6950   81.0370  222.7060 C   0  0  0  0  0  0  0  0  0  0  0  0
  141.9150   80.1920  221.4630 C   0  0  0  0  0  0  0  0  0  0  0  0
  140.1680   71.9070  223.0220 C   0  0  0  0  0  0  0  0  0  0  0  0
  139.5900   70.6730  222.8080 C   0  0  0  0  0  0  0  0  0  0  0  0
  139.4950   69.7510  223.8040 C   0  0  0  0  0  0  0  0  0  0  0  0
  139.9870   70.0570  225.0510 C   0  0  0  0  0  0  0  0  0  0  0  0
  139.9280   69.1770  226.1130 C   0  0  0  0  0  0  0  0  0  0  0  0
  140.4260   69.5010  227.3580 C   0  0  0  0  0  0  0  0  0  0  0  0
  140.3540   68.3870  228.7080 Cl  0  0  0  0  0  0  0  0  0  0  0  0
  141.0030   70.7530  227.5440 C   0  0  0  0  0  0  0  0  0  0  0  0
  141.0780   71.6610  226.4980 C   0  0  0  0  0  0  0  0  0  0  0  0
  140.5570   71.2810  225.2580 C   0  0  0  0  0  0  0  0  0  0  0  0
  140.6430   72.1870  224.2540 N   0  0  0  0  0  0  0  0  0  0  0  0
  139.5590   74.4420  223.0570 H   0  0  0  0  0  0  0  0  0  0  0  0
  139.6244   74.4163  220.1078 H   0  0  0  0  0  0  0  0  0  0  0  0
  139.3639   75.9184  221.2404 H   0  0  0  0  0  0  0  0  0  0  0  0
  143.5594   77.0928  219.5298 H   0  0  0  0  0  0  0  0  0  0  0  0
  142.4446   76.4529  218.2476 H   0  0  0  0  0  0  0  0  0  0  0  0
  142.8710   79.3140  219.1496 H   0  0  0  0  0  0  0  0  0  0  0  0
  142.9687   78.6271  217.5042 H   0  0  0  0  0  0  0  0  0  0  0  0
  140.8611   79.8340  217.7813 H   0  0  0  0  0  0  0  0  0  0  0  0
  140.5473   78.0569  217.6414 H   0  0  0  0  0  0  0  0  0  0  0  0
  140.1935   79.9145  219.9164 H   0  0  0  0  0  0  0  0  0  0  0  0
  139.2626   78.4173  219.3697 H   0  0  0  0  0  0  0  0  0  0  0  0
  139.9731   77.7619  221.2573 H   0  0  0  0  0  0  0  0  0  0  0  0
  142.6579   78.2654  221.6153 H   0  0  0  0  0  0  0  0  0  0  0  0
  140.0336   79.2043  223.0118 H   0  0  0  0  0  0  0  0  0  0  0  0
  140.7099   77.5417  223.1846 H   0  0  0  0  0  0  0  0  0  0  0  0
  141.2414   79.1924  225.0590 H   0  0  0  0  0  0  0  0  0  0  0  0
  142.6410   78.3297  224.2935 H   0  0  0  0  0  0  0  0  0  0  0  0
  142.4945   81.0518  224.7108 H   0  0  0  0  0  0  0  0  0  0  0  0
  143.5474   80.2555  223.5175 H   0  0  0  0  0  0  0  0  0  0  0  0
  140.6273   81.0495  222.9701 H   0  0  0  0  0  0  0  0  0  0  0  0
  142.0129   82.0761  222.5353 H   0  0  0  0  0  0  0  0  0  0  0  0
  141.2339   80.5485  220.6762 H   0  0  0  0  0  0  0  0  0  0  0  0
  142.9736   80.3011  221.1846 H   0  0  0  0  0  0  0  0  0  0  0  0
  139.1972   70.4289  221.8099 H   0  0  0  0  0  0  0  0  0  0  0  0
  139.0301   68.7724  223.6139 H   0  0  0  0  0  0  0  0  0  0  0  0
  139.4703   68.1882  225.9620 H   0  0  0  0  0  0  0  0  0  0  0  0
  141.4041   71.0259  228.5312 H   0  0  0  0  0  0  0  0  0  0  0  0
  141.5344   72.6517  226.6404 H   0  0  0  0  0  0  0  0  0  0  0  0
  1  2  2  0
  2  3  1  0
  3  4  1  0
  4  5  1  0
  5  6  2  0
  5  7  1  0
  7  8  1  0
  8  9  1  0
  9 10  1  0
 10 11  1  0
 11 12  1  0
 12 13  1  0
 13 14  1  0
 14 15  1  0
 15 16  1  0
 16 17  1  0
 17 18  1  0
  2 19  1  0
 19 20  2  0
 20 21  1  0
 21 22  2  0
 22 23  1  0
 23 24  2  0
 24 25  1  0
 24 26  1  0
 26 27  2  0
 27 28  1  0
 28 29  2  0
 12  7  1  0
 18 13  1  0
 29 19  1  0
 28 22  1  0
  3 30  1  0
  4 31  1  0
  4 32  1  0
  8 33  1  0
  8 34  1  0
  9 35  1  0
  9 36  1  0
 10 37  1  0
 10 38  1  0
 11 39  1  0
 11 40  1  0
 12 41  1  1
 13 42  1  0
 14 43  1  0
 14 44  1  0
 15 45  1  0
 15 46  1  0
 16 47  1  0
 16 48  1  0
 17 49  1  0
 17 50  1  0
 18 51  1  0
 18 52  1  0
 20 53  1  0
 21 54  1  0
 23 55  1  0
 26 56  1  0
 27 57  1  0
M  END
>  <smiles>  (40) 
O=C(NCC(=O)N1CCCCC1C1CCCCC1)c1ccc2cc(Cl)ccc2n1

>  <score_type>  (40) 
oracle

>  <origin>  (40) 
autodockgpu

>  <m_score__min__energy>  (40) 
-9.3699999999999992

>  <m_primary>  (40) 
energy

>  <rmsd>  (40) 
2.4083460103576533

>  <m_score__min__rmsd>  (40) 
2.4083460103576533

>  <meeko>  (40) 
{"free_energy": -9.05, "intermolecular_energy": -10.54, "internal_energy": -1.44, "cluster_size": 38, "cluster_id": 1, "rank_in_cluster": 16}

>  <energy>  (40) 
-8.48

>  <cluster_rmsd>  (40) 
1.65

>  <cluster>  (40) 
2

$$$$

     RDKit          3D

 57 60  0  0  0  0  0  0  0  0999 V2000
  140.1760   72.2180  220.7200 O   0  0  0  0  0  0  0  0  0  0  0  0
  139.9040   72.5520  221.9180 C   0  0  0  0  0  0  0  0  0  0  0  0
  139.4990   73.9390  222.1300 N   0  0  0  0  0  0  0  0  0  0  0  0
  139.4600   74.7430  220.9670 C   0  0  0  0  0  0  0  0  0  0  0  0
  139.9600   76.0990  220.9480 C   0  0  0  0  0  0  0  0  0  0  0  0
  139.1310   76.9590  221.5040 O   0  0  0  0  0  0  0  0  0  0  0  0
  141.1410   76.6910  220.4650 N   0  0  0  0  0  0  0  0  0  0  0  0
  142.3400   75.9620  220.0890 C   0  0  0  0  0  0  0  0  0  0  0  0
  143.2720   76.8020  219.2410 C   0  0  0  0  0  0  0  0  0  0  0  0
  142.4370   77.5970  218.2780 C   0  0  0  0  0  0  0  0  0  0  0  0
  141.5350   78.5460  218.9970 C   0  0  0  0  0  0  0  0  0  0  0  0
  141.1580   78.1620  220.3680 C   0  0  2  0  0  0  0  0  0  0  0  0
  141.8890   78.7670  221.5050 C   0  0  0  0  0  0  0  0  0  0  0  0
  141.0290   78.5680  222.7620 C   0  0  0  0  0  0  0  0  0  0  0  0
  141.8060   78.9610  224.0000 C   0  0  0  0  0  0  0  0  0  0  0  0
  142.5160   80.2830  223.8200 C   0  0  0  0  0  0  0  0  0  0  0  0
  141.8470   80.9970  222.6590 C   0  0  0  0  0  0  0  0  0  0  0  0
  142.1810   80.2130  221.4020 C   0  0  0  0  0  0  0  0  0  0  0  0
  139.9800   71.6420  223.0280 C   0  0  0  0  0  0  0  0  0  0  0  0
  139.5310   70.3510  222.8420 C   0  0  0  0  0  0  0  0  0  0  0  0
  139.5710   69.4340  223.8460 C   0  0  0  0  0  0  0  0  0  0  0  0
  140.0690   69.8020  225.0730 C   0  0  0  0  0  0  0  0  0  0  0  0
  140.1420   68.9300  226.1410 C   0  0  0  0  0  0  0  0  0  0  0  0
  140.6450   69.3180  227.3650 C   0  0  0  0  0  0  0  0  0  0  0  0
  140.7410   68.2150  228.7230 Cl  0  0  0  0  0  0  0  0  0  0  0  0
  141.0900   70.6270  227.5240 C   0  0  0  0  0  0  0  0  0  0  0  0
  141.0300   71.5270  226.4720 C   0  0  0  0  0  0  0  0  0  0  0  0
  140.5110   71.0820  225.2520 C   0  0  0  0  0  0  0  0  0  0  0  0
  140.4640   71.9830  224.2410 N   0  0  0  0  0  0  0  0  0  0  0  0
  139.2810   74.1520  223.1040 H   0  0  0  0  0  0  0  0  0  0  0  0
  140.0260   74.1969  220.1979 H   0  0  0  0  0  0  0  0  0  0  0  0
  138.3791   74.8972  220.8331 H   0  0  0  0  0  0  0  0  0  0  0  0
  142.8704   75.6555  221.0026 H   0  0  0  0  0  0  0  0  0  0  0  0
  142.0342   75.0885  219.4945 H   0  0  0  0  0  0  0  0  0  0  0  0
  143.8495   77.4826  219.8839 H   0  0  0  0  0  0  0  0  0  0  0  0
  143.9749   76.1568  218.6936 H   0  0  0  0  0  0  0  0  0  0  0  0
  143.1022   78.1684  217.6139 H   0  0  0  0  0  0  0  0  0  0  0  0
  141.8153   76.8984  217.6988 H   0  0  0  0  0  0  0  0  0  0  0  0
  142.0426   79.5205  219.0476 H   0  0  0  0  0  0  0  0  0  0  0  0
  140.5969   78.5577  218.4227 H   0  0  0  0  0  0  0  0  0  0  0  0
  140.1603   78.6061  220.4995 H   0  0  0  0  0  0  0  0  0  0  0  0
  142.8673   78.2645  221.5268 H   0  0  0  0  0  0  0  0  0  0  0  0
  140.1268   79.1928  222.6867 H   0  0  0  0  0  0  0  0  0  0  0  0
  140.7485   77.5071  222.8384 H   0  0  0  0  0  0  0  0  0  0  0  0
  141.1088   79.0435  224.8468 H   0  0  0  0  0  0  0  0  0  0  0  0
  142.5653   78.1875  224.1874 H   0  0  0  0  0  0  0  0  0  0  0  0
  142.4269   80.8864  224.7354 H   0  0  0  0  0  0  0  0  0  0  0  0
  143.5862   80.1274  223.6186 H   0  0  0  0  0  0  0  0  0  0  0  0
  140.7576   81.0234  222.8092 H   0  0  0  0  0  0  0  0  0  0  0  0
  142.2026   82.0349  222.5797 H   0  0  0  0  0  0  0  0  0  0  0  0
  141.5939   80.6268  220.5689 H   0  0  0  0  0  0  0  0  0  0  0  0
  143.2650   80.3103  221.2424 H   0  0  0  0  0  0  0  0  0  0  0  0
  139.1318   70.0565  221.8602 H   0  0  0  0  0  0  0  0  0  0  0  0
  139.2087   68.4091  223.6777 H   0  0  0  0  0  0  0  0  0  0  0  0
  139.7888   67.8963  226.0119 H   0  0  0  0  0  0  0  0  0  0  0  0
  141.4935   70.9506  228.4948 H   0  0  0  0  0  0  0  0  0  0  0  0
  141.3808   72.5625  226.5931 H   0  0  0  0  0  0  0  0  0  0  0  0
  1  2  2  0
  2  3  1  0
  3  4  1  0
  4  5  1  0
  5  6  2  0
  5  7  1  0
  7  8  1  0
  8  9  1  0
  9 10  1  0
 10 11  1  0
 11 12  1  0
 12 13  1  0
 13 14  1  0
 14 15  1  0
 15 16  1  0
 16 17  1  0
 17 18  1  0
  2 19  1  0
 19 20  2  0
 20 21  1  0
 21 22  2  0
 22 23  1  0
 23 24  2  0
 24 25  1  0
 24 26  1  0
 26 27  2  0
 27 28  1  0
 28 29  2  0
 12  7  1  0
 18 13  1  0
 29 19  1  0
 28 22  1  0
  3 30  1  0
  4 31  1  0
  4 32  1  0
  8 33  1  0
  8 34  1  0
  9 35  1  0
  9 36  1  0
 10 37  1  0
 10 38  1  0
 11 39  1  0
 11 40  1  0
 12 41  1  1
 13 42  1  0
 14 43  1  0
 14 44  1  0
 15 45  1  0
 15 46  1  0
 16 47  1  0
 16 48  1  0
 17 49  1  0
 17 50  1  0
 18 51  1  0
 18 52  1  0
 20 53  1  0
 21 54  1  0
 23 55  1  0
 26 56  1  0
 27 57  1  0
M  END
>  <smiles>  (41) 
O=C(NCC(=O)N1CCCCC1C1CCCCC1)c1ccc2cc(Cl)ccc2n1

>  <score_type>  (41) 
oracle

>  <origin>  (41) 
autodockgpu

>  <m_score__min__energy>  (41) 
-9.3699999999999992

>  <m_primary>  (41) 
energy

>  <rmsd>  (41) 
2.132403923238937

>  <m_score__min__rmsd>  (41) 
2.132403923238937

>  <meeko>  (41) 
{"free_energy": -9.35, "intermolecular_energy": -10.84, "internal_energy": -1.41, "cluster_size": 38, "cluster_id": 1, "rank_in_cluster": 2}

>  <energy>  (41) 
-8.42

>  <cluster_rmsd>  (41) 
0.15

>  <cluster>  (41) 
2

$$$$

     RDKit          3D

 57 60  0  0  0  0  0  0  0  0999 V2000
  139.8490   73.2390  220.3610 O   0  0  0  0  0  0  0  0  0  0  0  0
  139.7460   73.4100  221.6190 C   0  0  0  0  0  0  0  0  0  0  0  0
  139.6520   74.7920  222.0820 N   0  0  0  0  0  0  0  0  0  0  0  0
  139.6870   75.7750  221.0650 C   0  0  0  0  0  0  0  0  0  0  0  0
  140.9060   76.1270  220.3720 C   0  0  0  0  0  0  0  0  0  0  0  0
  141.7030   75.0960  220.1810 O   0  0  0  0  0  0  0  0  0  0  0  0
  141.4160   77.3340  219.8590 N   0  0  0  0  0  0  0  0  0  0  0  0
  142.5000   77.4340  218.8990 C   0  0  0  0  0  0  0  0  0  0  0  0
  142.5510   78.7980  218.2410 C   0  0  0  0  0  0  0  0  0  0  0  0
  141.1410   79.2330  217.9630 C   0  0  0  0  0  0  0  0  0  0  0  0
  140.3630   79.3940  219.2280 C   0  0  0  0  0  0  0  0  0  0  0  0
  140.8150   78.5800  220.3680 C   0  0  2  0  0  0  0  0  0  0  0  0
  141.6760   79.2100  221.3970 C   0  0  0  0  0  0  0  0  0  0  0  0
  141.1820   78.7240  222.7680 C   0  0  0  0  0  0  0  0  0  0  0  0
  142.1470   79.1470  223.8560 C   0  0  0  0  0  0  0  0  0  0  0  0
  142.5520   80.5960  223.7130 C   0  0  0  0  0  0  0  0  0  0  0  0
  141.5160   81.2670  222.8300 C   0  0  0  0  0  0  0  0  0  0  0  0
  141.6780   80.6880  221.4340 C   0  0  0  0  0  0  0  0  0  0  0  0
  139.7210   72.3270  222.5630 C   0  0  0  0  0  0  0  0  0  0  0  0
  138.9490   71.2240  222.2670 C   0  0  0  0  0  0  0  0  0  0  0  0
  138.8750   70.1600  223.1120 C   0  0  0  0  0  0  0  0  0  0  0  0
  139.5870   70.1870  224.2880 C   0  0  0  0  0  0  0  0  0  0  0  0
  139.5640   69.1480  225.1980 C   0  0  0  0  0  0  0  0  0  0  0  0
  140.2840   69.1920  226.3730 C   0  0  0  0  0  0  0  0  0  0  0  0
  140.2590   67.8770  227.5300 Cl  0  0  0  0  0  0  0  0  0  0  0  0
  141.0550   70.3190  226.6460 C   0  0  0  0  0  0  0  0  0  0  0  0
  141.0990   71.3790  225.7540 C   0  0  0  0  0  0  0  0  0  0  0  0
  140.3500   71.2830  224.5780 C   0  0  0  0  0  0  0  0  0  0  0  0
  140.4110   72.3320  223.7240 N   0  0  0  0  0  0  0  0  0  0  0  0
  139.5600   74.8740  223.0950 H   0  0  0  0  0  0  0  0  0  0  0  0
  138.9803   75.4406  220.2912 H   0  0  0  0  0  0  0  0  0  0  0  0
  139.4728   76.6943  221.6297 H   0  0  0  0  0  0  0  0  0  0  0  0
  143.4526   77.2546  219.4189 H   0  0  0  0  0  0  0  0  0  0  0  0
  142.3284   76.6837  218.1131 H   0  0  0  0  0  0  0  0  0  0  0  0
  143.0381   79.5190  218.9140 H   0  0  0  0  0  0  0  0  0  0  0  0
  143.1270   78.7491  217.3051 H   0  0  0  0  0  0  0  0  0  0  0  0
  141.1614   80.1950  217.4300 H   0  0  0  0  0  0  0  0  0  0  0  0
  140.6533   78.4595  217.3516 H   0  0  0  0  0  0  0  0  0  0  0  0
  140.4186   80.4515  219.5257 H   0  0  0  0  0  0  0  0  0  0  0  0
  139.3452   79.0458  218.9982 H   0  0  0  0  0  0  0  0  0  0  0  0
  139.8945   78.4007  220.9429 H   0  0  0  0  0  0  0  0  0  0  0  0
  142.7046   78.9151  221.1421 H   0  0  0  0  0  0  0  0  0  0  0  0
  140.1924   79.1588  222.9719 H   0  0  0  0  0  0  0  0  0  0  0  0
  141.1166   77.6260  222.7555 H   0  0  0  0  0  0  0  0  0  0  0  0
  141.6644   79.0068  224.8345 H   0  0  0  0  0  0  0  0  0  0  0  0
  143.0524   78.5283  223.7702 H   0  0  0  0  0  0  0  0  0  0  0  0
  142.5756   81.0799  224.7006 H   0  0  0  0  0  0  0  0  0  0  0  0
  143.5553   80.6789  223.2696 H   0  0  0  0  0  0  0  0  0  0  0  0
  140.5048   81.0594  223.2098 H   0  0  0  0  0  0  0  0  0  0  0  0
  141.6563   82.3580  222.8206 H   0  0  0  0  0  0  0  0  0  0  0  0
  140.8488   81.0517  220.8094 H   0  0  0  0  0  0  0  0  0  0  0  0
  142.6601   81.0164  221.0630 H   0  0  0  0  0  0  0  0  0  0  0  0
  138.3797   71.2035  221.3260 H   0  0  0  0  0  0  0  0  0  0  0  0
  138.2532   69.2890  222.8574 H   0  0  0  0  0  0  0  0  0  0  0  0
  138.9534   68.2596  224.9788 H   0  0  0  0  0  0  0  0  0  0  0  0
  141.6351   70.3686  227.5793 H   0  0  0  0  0  0  0  0  0  0  0  0
  141.7066   72.2711  225.9659 H   0  0  0  0  0  0  0  0  0  0  0  0
  1  2  2  0
  2  3  1  0
  3  4  1  0
  4  5  1  0
  5  6  2  0
  5  7  1  0
  7  8  1  0
  8  9  1  0
  9 10  1  0
 10 11  1  0
 11 12  1  0
 12 13  1  0
 13 14  1  0
 14 15  1  0
 15 16  1  0
 16 17  1  0
 17 18  1  0
  2 19  1  0
 19 20  2  0
 20 21  1  0
 21 22  2  0
 22 23  1  0
 23 24  2  0
 24 25  1  0
 24 26  1  0
 26 27  2  0
 27 28  1  0
 28 29  2  0
 12  7  1  0
 18 13  1  0
 29 19  1  0
 28 22  1  0
  3 30  1  0
  4 31  1  0
  4 32  1  0
  8 33  1  0
  8 34  1  0
  9 35  1  0
  9 36  1  0
 10 37  1  0
 10 38  1  0
 11 39  1  0
 11 40  1  0
 12 41  1  1
 13 42  1  0
 14 43  1  0
 14 44  1  0
 15 45  1  0
 15 46  1  0
 16 47  1  0
 16 48  1  0
 17 49  1  0
 17 50  1  0
 18 51  1  0
 18 52  1  0
 20 53  1  0
 21 54  1  0
 23 55  1  0
 26 56  1  0
 27 57  1  0
M  END
>  <smiles>  (42) 
O=C(NCC(=O)N1CCCCC1C1CCCCC1)c1ccc2cc(Cl)ccc2n1

>  <score_type>  (42) 
oracle

>  <origin>  (42) 
autodockgpu

>  <m_score__min__energy>  (42) 
-9.3699999999999992

>  <m_primary>  (42) 
energy

>  <rmsd>  (42) 
2.692399604607071

>  <m_score__min__rmsd>  (42) 
2.692399604607071

>  <meeko>  (42) 
{"free_energy": -8.4, "intermolecular_energy": -9.89, "internal_energy": -1.44, "cluster_size": 38, "cluster_id": 1, "rank_in_cluster": 28}

>  <energy>  (42) 
-8.48

>  <cluster_rmsd>  (42) 
0.0

>  <cluster>  (42) 
3

$$$$

     RDKit          3D

 57 60  0  0  0  0  0  0  0  0999 V2000
  139.3760   71.9220  220.6680 O   0  0  0  0  0  0  0  0  0  0  0  0
  139.3110   72.3200  221.8760 C   0  0  0  0  0  0  0  0  0  0  0  0
  138.9910   73.7290  222.0820 N   0  0  0  0  0  0  0  0  0  0  0  0
  138.7910   74.4830  220.9010 C   0  0  0  0  0  0  0  0  0  0  0  0
  139.8600   74.7530  219.9660 C   0  0  0  0  0  0  0  0  0  0  0  0
  139.5960   74.3290  218.7480 O   0  0  0  0  0  0  0  0  0  0  0  0
  141.1180   75.3730  220.0840 N   0  0  0  0  0  0  0  0  0  0  0  0
  142.3540   74.6840  220.4090 C   0  0  0  0  0  0  0  0  0  0  0  0
  143.5740   75.5160  220.0690 C   0  0  0  0  0  0  0  0  0  0  0  0
  143.3160   76.2060  218.7600 C   0  0  0  0  0  0  0  0  0  0  0  0
  142.1640   77.1510  218.8620 C   0  0  0  0  0  0  0  0  0  0  0  0
  141.1610   76.8340  219.8920 C   0  0  2  0  0  0  0  0  0  0  0  0
  141.2230   77.5450  221.1900 C   0  0  0  0  0  0  0  0  0  0  0  0
  139.7780   77.7690  221.6610 C   0  0  0  0  0  0  0  0  0  0  0  0
  139.7600   78.2910  223.0810 C   0  0  0  0  0  0  0  0  0  0  0  0
  140.7600   79.4080  223.2800 C   0  0  0  0  0  0  0  0  0  0  0  0
  141.1070   79.9500  221.9060 C   0  0  0  0  0  0  0  0  0  0  0  0
  141.8880   78.8660  221.1840 C   0  0  0  0  0  0  0  0  0  0  0  0
  139.5350   71.4570  223.0040 C   0  0  0  0  0  0  0  0  0  0  0  0
  139.1470   70.1370  222.9000 C   0  0  0  0  0  0  0  0  0  0  0  0
  139.3260   69.2610  223.9260 C   0  0  0  0  0  0  0  0  0  0  0  0
  139.9070   69.7020  225.0910 C   0  0  0  0  0  0  0  0  0  0  0  0
  140.1230   68.8760  226.1760 C   0  0  0  0  0  0  0  0  0  0  0  0
  140.7080   69.3350  227.3380 C   0  0  0  0  0  0  0  0  0  0  0  0
  140.9840   68.2900  228.7170 Cl  0  0  0  0  0  0  0  0  0  0  0  0
  141.0900   70.6710  227.4140 C   0  0  0  0  0  0  0  0  0  0  0  0
  140.8870   71.5270  226.3420 C   0  0  0  0  0  0  0  0  0  0  0  0
  140.2900   71.0100  225.1890 C   0  0  0  0  0  0  0  0  0  0  0  0
  140.1040   71.8680  224.1580 N   0  0  0  0  0  0  0  0  0  0  0  0
  138.9400   73.9940  223.0660 H   0  0  0  0  0  0  0  0  0  0  0  0
  138.0106   73.9578  220.3307 H   0  0  0  0  0  0  0  0  0  0  0  0
  138.5825   75.4852  221.3036 H   0  0  0  0  0  0  0  0  0  0  0  0
  142.3643   74.4623  221.4864 H   0  0  0  0  0  0  0  0  0  0  0  0
  142.3953   73.7608  219.8124 H   0  0  0  0  0  0  0  0  0  0  0  0
  143.7473   76.2636  220.8571 H   0  0  0  0  0  0  0  0  0  0  0  0
  144.4646   74.8748  219.9936 H   0  0  0  0  0  0  0  0  0  0  0  0
  144.2154   76.7678  218.4678 H   0  0  0  0  0  0  0  0  0  0  0  0
  143.0724   75.4419  218.0071 H   0  0  0  0  0  0  0  0  0  0  0  0
  142.5668   78.1510  219.0804 H   0  0  0  0  0  0  0  0  0  0  0  0
  141.6352   77.0803  217.9001 H   0  0  0  0  0  0  0  0  0  0  0  0
  140.2236   77.2334  219.4775 H   0  0  0  0  0  0  0  0  0  0  0  0
  141.8322   76.9058  221.8460 H   0  0  0  0  0  0  0  0  0  0  0  0
  139.2908   78.5008  220.9998 H   0  0  0  0  0  0  0  0  0  0  0  0
  139.2394   76.8105  221.6268 H   0  0  0  0  0  0  0  0  0  0  0  0
  138.7527   78.6698  223.3086 H   0  0  0  0  0  0  0  0  0  0  0  0
  140.0319   77.4640  223.7534 H   0  0  0  0  0  0  0  0  0  0  0  0
  140.3184   80.2034  223.8983 H   0  0  0  0  0  0  0  0  0  0  0  0
  141.6604   79.0390  223.7929 H   0  0  0  0  0  0  0  0  0  0  0  0
  140.1877   80.1867  221.3503 H   0  0  0  0  0  0  0  0  0  0  0  0
  141.7002   80.8728  221.9869 H   0  0  0  0  0  0  0  0  0  0  0  0
  142.0290   79.1783  220.1387 H   0  0  0  0  0  0  0  0  0  0  0  0
  142.8408   78.7469  221.7207 H   0  0  0  0  0  0  0  0  0  0  0  0
  138.6827   69.7849  221.9670 H   0  0  0  0  0  0  0  0  0  0  0  0
  139.0095   68.2125  223.8242 H   0  0  0  0  0  0  0  0  0  0  0  0
  139.8196   67.8206  226.1120 H   0  0  0  0  0  0  0  0  0  0  0  0
  141.5578   71.0519  228.3338 H   0  0  0  0  0  0  0  0  0  0  0  0
  141.1876   72.5837  226.3977 H   0  0  0  0  0  0  0  0  0  0  0  0
  1  2  2  0
  2  3  1  0
  3  4  1  0
  4  5  1  0
  5  6  2  0
  5  7  1  0
  7  8  1  0
  8  9  1  0
  9 10  1  0
 10 11  1  0
 11 12  1  0
 12 13  1  0
 13 14  1  0
 14 15  1  0
 15 16  1  0
 16 17  1  0
 17 18  1  0
  2 19  1  0
 19 20  2  0
 20 21  1  0
 21 22  2  0
 22 23  1  0
 23 24  2  0
 24 25  1  0
 24 26  1  0
 26 27  2  0
 27 28  1  0
 28 29  2  0
 12  7  1  0
 18 13  1  0
 29 19  1  0
 28 22  1  0
  3 30  1  0
  4 31  1  0
  4 32  1  0
  8 33  1  0
  8 34  1  0
  9 35  1  0
  9 36  1  0
 10 37  1  0
 10 38  1  0
 11 39  1  0
 11 40  1  0
 12 41  1  6
 13 42  1  0
 14 43  1  0
 14 44  1  0
 15 45  1  0
 15 46  1  0
 16 47  1  0
 16 48  1  0
 17 49  1  0
 17 50  1  0
 18 51  1  0
 18 52  1  0
 20 53  1  0
 21 54  1  0
 23 55  1  0
 26 56  1  0
 27 57  1  0
M  END
>  <smiles>  (43) 
O=C(NCC(=O)N1CCCCC1C1CCCCC1)c1ccc2cc(Cl)ccc2n1

>  <score_type>  (43) 
oracle

>  <origin>  (43) 
autodockgpu

>  <m_score__min__energy>  (43) 
-9.3699999999999992

>  <m_primary>  (43) 
energy

>  <rmsd>  (43) 
2.0400895204859593

>  <m_score__min__rmsd>  (43) 
2.0400895204859593

>  <meeko>  (43) 
{"free_energy": -8.08, "intermolecular_energy": -9.58, "internal_energy": -1.69, "cluster_size": 38, "cluster_id": 1, "rank_in_cluster": 33}

>  <energy>  (43) 
-8.47

>  <cluster_rmsd>  (43) 
0.06

>  <cluster>  (43) 
3

$$$$

     RDKit          3D

 57 60  0  0  0  0  0  0  0  0999 V2000
  136.5790   77.6050  222.9210 O   0  0  0  0  0  0  0  0  0  0  0  0
  136.5430   76.3750  223.2490 C   0  0  0  0  0  0  0  0  0  0  0  0
  137.6050   75.5270  222.7150 N   0  0  0  0  0  0  0  0  0  0  0  0
  138.5500   76.1860  221.8930 C   0  0  0  0  0  0  0  0  0  0  0  0
  139.8530   75.6260  221.6130 C   0  0  0  0  0  0  0  0  0  0  0  0
  139.9800   74.3860  222.0370 O   0  0  0  0  0  0  0  0  0  0  0  0
  141.0070   76.1260  220.9830 N   0  0  0  0  0  0  0  0  0  0  0  0
  142.2100   75.3540  220.7230 C   0  0  0  0  0  0  0  0  0  0  0  0
  143.1010   76.0210  219.6950 C   0  0  0  0  0  0  0  0  0  0  0  0
  142.2220   76.5950  218.6200 C   0  0  0  0  0  0  0  0  0  0  0  0
  141.3210   77.6560  219.1640 C   0  0  0  0  0  0  0  0  0  0  0  0
  140.9920   77.5480  220.5940 C   0  0  2  0  0  0  0  0  0  0  0  0
  141.7420   78.3790  221.5640 C   0  0  0  0  0  0  0  0  0  0  0  0
  140.9760   78.3360  222.8950 C   0  0  0  0  0  0  0  0  0  0  0  0
  141.7930   78.9780  223.9950 C   0  0  0  0  0  0  0  0  0  0  0  0
  142.3900   80.2950  223.5540 C   0  0  0  0  0  0  0  0  0  0  0  0
  141.6020   80.7620  222.3440 C   0  0  0  0  0  0  0  0  0  0  0  0
  141.9190   79.8030  221.2090 C   0  0  0  0  0  0  0  0  0  0  0  0
  135.5260   75.8140  224.0960 C   0  0  0  0  0  0  0  0  0  0  0  0
  134.6060   76.6720  224.6620 C   0  0  0  0  0  0  0  0  0  0  0  0
  133.6150   76.2150  225.4760 C   0  0  0  0  0  0  0  0  0  0  0  0
  133.5300   74.8680  225.7380 C   0  0  0  0  0  0  0  0  0  0  0  0
  132.5560   74.3270  226.5530 C   0  0  0  0  0  0  0  0  0  0  0  0
  132.4860   72.9730  226.8060 C   0  0  0  0  0  0  0  0  0  0  0  0
  131.2500   72.2810  227.8380 Cl  0  0  0  0  0  0  0  0  0  0  0  0
  133.4270   72.1320  226.2210 C   0  0  0  0  0  0  0  0  0  0  0  0
  134.4190   72.6430  225.3990 C   0  0  0  0  0  0  0  0  0  0  0  0
  134.4450   74.0230  225.1760 C   0  0  0  0  0  0  0  0  0  0  0  0
  135.4240   74.4960  224.3680 N   0  0  0  0  0  0  0  0  0  0  0  0
  137.5370   74.5540  223.0160 H   0  0  0  0  0  0  0  0  0  0  0  0
  138.0615   76.3284  220.9178 H   0  0  0  0  0  0  0  0  0  0  0  0
  138.8061   77.0664  222.5007 H   0  0  0  0  0  0  0  0  0  0  0  0
  142.7718   75.2446  221.6624 H   0  0  0  0  0  0  0  0  0  0  0  0
  141.9060   74.3746  220.3250 H   0  0  0  0  0  0  0  0  0  0  0  0
  143.6823   76.8248  220.1704 H   0  0  0  0  0  0  0  0  0  0  0  0
  143.8017   75.2900  219.2653 H   0  0  0  0  0  0  0  0  0  0  0  0
  142.8558   77.0315  217.8340 H   0  0  0  0  0  0  0  0  0  0  0  0
  141.5985   75.7856  218.2124 H   0  0  0  0  0  0  0  0  0  0  0  0
  141.8096   78.6283  219.0030 H   0  0  0  0  0  0  0  0  0  0  0  0
  140.3668   77.5395  218.6292 H   0  0  0  0  0  0  0  0  0  0  0  0
  139.9895   77.9951  220.6660 H   0  0  0  0  0  0  0  0  0  0  0  0
  142.7547   77.9508  221.5968 H   0  0  0  0  0  0  0  0  0  0  0  0
  140.0263   78.8800  222.7843 H   0  0  0  0  0  0  0  0  0  0  0  0
  140.7818   77.2865  223.1611 H   0  0  0  0  0  0  0  0  0  0  0  0
  141.1430   79.1549  224.8646 H   0  0  0  0  0  0  0  0  0  0  0  0
  142.6179   78.2968  224.2507 H   0  0  0  0  0  0  0  0  0  0  0  0
  142.3105   81.0349  224.3641 H   0  0  0  0  0  0  0  0  0  0  0  0
  143.4549   80.1771  223.3048 H   0  0  0  0  0  0  0  0  0  0  0  0
  140.5245   80.7428  222.5647 H   0  0  0  0  0  0  0  0  0  0  0  0
  141.8733   81.7931  222.0735 H   0  0  0  0  0  0  0  0  0  0  0  0
  141.2547   80.0348  220.3634 H   0  0  0  0  0  0  0  0  0  0  0  0
  142.9815   79.9414  220.9600 H   0  0  0  0  0  0  0  0  0  0  0  0
  134.6746   77.7494  224.4510 H   0  0  0  0  0  0  0  0  0  0  0  0
  132.8911   76.9150  225.9187 H   0  0  0  0  0  0  0  0  0  0  0  0
  131.8140   74.9954  227.0141 H   0  0  0  0  0  0  0  0  0  0  0  0
  133.3833   71.0497  226.4128 H   0  0  0  0  0  0  0  0  0  0  0  0
  135.1651   71.9812  224.9350 H   0  0  0  0  0  0  0  0  0  0  0  0
  1  2  2  0
  2  3  1  0
  3  4  1  0
  4  5  1  0
  5  6  2  0
  5  7  1  0
  7  8  1  0
  8  9  1  0
  9 10  1  0
 10 11  1  0
 11 12  1  0
 12 13  1  0
 13 14  1  0
 14 15  1  0
 15 16  1  0
 16 17  1  0
 17 18  1  0
  2 19  1  0
 19 20  2  0
 20 21  1  0
 21 22  2  0
 22 23  1  0
 23 24  2  0
 24 25  1  0
 24 26  1  0
 26 27  2  0
 27 28  1  0
 28 29  2  0
 12  7  1  0
 18 13  1  0
 29 19  1  0
 28 22  1  0
  3 30  1  0
  4 31  1  0
  4 32  1  0
  8 33  1  0
  8 34  1  0
  9 35  1  0
  9 36  1  0
 10 37  1  0
 10 38  1  0
 11 39  1  0
 11 40  1  0
 12 41  1  6
 13 42  1  0
 14 43  1  0
 14 44  1  0
 15 45  1  0
 15 46  1  0
 16 47  1  0
 16 48  1  0
 17 49  1  0
 17 50  1  0
 18 51  1  0
 18 52  1  0
 20 53  1  0
 21 54  1  0
 23 55  1  0
 26 56  1  0
 27 57  1  0
M  END
>  <smiles>  (44) 
O=C(NCC(=O)N1CCCCC1C1CCCCC1)c1ccc2cc(Cl)ccc2n1

>  <score_type>  (44) 
oracle

>  <origin>  (44) 
autodockgpu

>  <m_score__min__energy>  (44) 
-9.3699999999999992

>  <m_primary>  (44) 
energy

>  <rmsd>  (44) 
5.983424855435795

>  <m_score__min__rmsd>  (44) 
5.983424855435795

>  <meeko>  (44) 
{"free_energy": -8.05, "intermolecular_energy": -9.55, "internal_energy": -1.79, "cluster_size": 4, "cluster_id": 4, "rank_in_cluster": 4}

>  <energy>  (44) 
-8.39

>  <cluster_rmsd>  (44) 
0.33

>  <cluster>  (44) 
3

$$$$

     RDKit          3D

 57 60  0  0  0  0  0  0  0  0999 V2000
  136.6180   77.4770  222.8230 O   0  0  0  0  0  0  0  0  0  0  0  0
  136.5640   76.2530  223.1690 C   0  0  0  0  0  0  0  0  0  0  0  0
  137.5890   75.3740  222.6160 N   0  0  0  0  0  0  0  0  0  0  0  0
  138.5230   75.9980  221.7560 C   0  0  0  0  0  0  0  0  0  0  0  0
  139.8870   75.5350  221.6290 C   0  0  0  0  0  0  0  0  0  0  0  0
  140.1000   74.3940  222.2510 O   0  0  0  0  0  0  0  0  0  0  0  0
  141.0280   76.0450  220.9830 N   0  0  0  0  0  0  0  0  0  0  0  0
  142.2410   75.2900  220.7240 C   0  0  0  0  0  0  0  0  0  0  0  0
  143.1120   75.9570  219.6790 C   0  0  0  0  0  0  0  0  0  0  0  0
  142.2150   76.4990  218.6030 C   0  0  0  0  0  0  0  0  0  0  0  0
  141.3010   77.5530  219.1380 C   0  0  0  0  0  0  0  0  0  0  0  0
  140.9850   77.4610  220.5730 C   0  0  2  0  0  0  0  0  0  0  0  0
  141.7280   78.3190  221.5240 C   0  0  0  0  0  0  0  0  0  0  0  0
  141.0050   78.2380  222.8780 C   0  0  0  0  0  0  0  0  0  0  0  0
  141.8270   78.9100  223.9560 C   0  0  0  0  0  0  0  0  0  0  0  0
  142.3540   80.2530  223.5040 C   0  0  0  0  0  0  0  0  0  0  0  0
  141.5110   80.6910  222.3210 C   0  0  0  0  0  0  0  0  0  0  0  0
  141.8330   79.7510  221.1720 C   0  0  0  0  0  0  0  0  0  0  0  0
  135.5610   75.7280  224.0550 C   0  0  0  0  0  0  0  0  0  0  0  0
  134.6930   76.6170  224.6540 C   0  0  0  0  0  0  0  0  0  0  0  0
  133.7190   76.1950  225.5060 C   0  0  0  0  0  0  0  0  0  0  0  0
  133.5970   74.8520  225.7730 C   0  0  0  0  0  0  0  0  0  0  0  0
  132.6360   74.3450  226.6240 C   0  0  0  0  0  0  0  0  0  0  0  0
  132.5280   72.9940  226.8810 C   0  0  0  0  0  0  0  0  0  0  0  0
  131.3090   72.3460  227.9600 Cl  0  0  0  0  0  0  0  0  0  0  0  0
  133.4170   72.1210  226.2620 C   0  0  0  0  0  0  0  0  0  0  0  0
  134.3940   72.5980  225.4020 C   0  0  0  0  0  0  0  0  0  0  0  0
  134.4600   73.9760  225.1770 C   0  0  0  0  0  0  0  0  0  0  0  0
  135.4240   74.4140  224.3330 N   0  0  0  0  0  0  0  0  0  0  0  0
  137.5080   74.4070  222.9330 H   0  0  0  0  0  0  0  0  0  0  0  0
  138.0885   75.9514  220.7465 H   0  0  0  0  0  0  0  0  0  0  0  0
  138.6592   76.9763  222.2400 H   0  0  0  0  0  0  0  0  0  0  0  0
  142.8123   75.2036  221.6600 H   0  0  0  0  0  0  0  0  0  0  0  0
  141.9503   74.3000  220.3427 H   0  0  0  0  0  0  0  0  0  0  0  0
  143.6827   76.7780  220.1377 H   0  0  0  0  0  0  0  0  0  0  0  0
  143.8222   75.2320  219.2547 H   0  0  0  0  0  0  0  0  0  0  0  0
  142.8349   76.9337  217.8050 H   0  0  0  0  0  0  0  0  0  0  0  0
  141.6019   75.6730  218.2133 H   0  0  0  0  0  0  0  0  0  0  0  0
  141.7721   78.5307  218.9585 H   0  0  0  0  0  0  0  0  0  0  0  0
  140.3447   77.4129  218.6127 H   0  0  0  0  0  0  0  0  0  0  0  0
  139.9756   77.8918  220.6467 H   0  0  0  0  0  0  0  0  0  0  0  0
  142.7585   77.9342  221.5234 H   0  0  0  0  0  0  0  0  0  0  0  0
  140.0301   78.7413  222.7990 H   0  0  0  0  0  0  0  0  0  0  0  0
  140.8638   77.1801  223.1444 H   0  0  0  0  0  0  0  0  0  0  0  0
  141.1967   79.0558  224.8457 H   0  0  0  0  0  0  0  0  0  0  0  0
  142.6875   78.2635  224.1832 H   0  0  0  0  0  0  0  0  0  0  0  0
  142.2678   80.9856  224.3200 H   0  0  0  0  0  0  0  0  0  0  0  0
  143.4149   80.1813  223.2221 H   0  0  0  0  0  0  0  0  0  0  0  0
  140.4425   80.6257  222.5741 H   0  0  0  0  0  0  0  0  0  0  0  0
  141.7307   81.7336  222.0478 H   0  0  0  0  0  0  0  0  0  0  0  0
  141.1335   79.9577  220.3486 H   0  0  0  0  0  0  0  0  0  0  0  0
  142.8805   79.9356  220.8916 H   0  0  0  0  0  0  0  0  0  0  0  0
  134.7901   77.6913  224.4383 H   0  0  0  0  0  0  0  0  0  0  0  0
  133.0376   76.9199  225.9753 H   0  0  0  0  0  0  0  0  0  0  0  0
  131.9354   75.0388  227.1118 H   0  0  0  0  0  0  0  0  0  0  0  0
  133.3439   71.0409  226.4571 H   0  0  0  0  0  0  0  0  0  0  0  0
  135.0981   71.9108  224.9100 H   0  0  0  0  0  0  0  0  0  0  0  0
  1  2  2  0
  2  3  1  0
  3  4  1  0
  4  5  1  0
  5  6  2  0
  5  7  1  0
  7  8  1  0
  8  9  1  0
  9 10  1  0
 10 11  1  0
 11 12  1  0
 12 13  1  0
 13 14  1  0
 14 15  1  0
 15 16  1  0
 16 17  1  0
 17 18  1  0
  2 19  1  0
 19 20  2  0
 20 21  1  0
 21 22  2  0
 22 23  1  0
 23 24  2  0
 24 25  1  0
 24 26  1  0
 26 27  2  0
 27 28  1  0
 28 29  2  0
 12  7  1  0
 18 13  1  0
 29 19  1  0
 28 22  1  0
  3 30  1  0
  4 31  1  0
  4 32  1  0
  8 33  1  0
  8 34  1  0
  9 35  1  0
  9 36  1  0
 10 37  1  0
 10 38  1  0
 11 39  1  0
 11 40  1  0
 12 41  1  6
 13 42  1  0
 14 43  1  0
 14 44  1  0
 15 45  1  0
 15 46  1  0
 16 47  1  0
 16 48  1  0
 17 49  1  0
 17 50  1  0
 18 51  1  0
 18 52  1  0
 20 53  1  0
 21 54  1  0
 23 55  1  0
 26 56  1  0
 27 57  1  0
M  END
>  <smiles>  (45) 
O=C(NCC(=O)N1CCCCC1C1CCCCC1)c1ccc2cc(Cl)ccc2n1

>  <score_type>  (45) 
oracle

>  <origin>  (45) 
autodockgpu

>  <m_score__min__energy>  (45) 
-9.3699999999999992

>  <m_primary>  (45) 
energy

>  <rmsd>  (45) 
5.93241796911527

>  <m_score__min__rmsd>  (45) 
5.93241796911527

>  <meeko>  (45) 
{"free_energy": -8.06, "intermolecular_energy": -9.55, "internal_energy": -1.78, "cluster_size": 4, "cluster_id": 4, "rank_in_cluster": 3}

>  <energy>  (45) 
-7.48

>  <cluster_rmsd>  (45) 
1.33

>  <cluster>  (45) 
3

$$$$

     RDKit          3D

 57 60  0  0  0  0  0  0  0  0999 V2000
  140.4260   72.9490  221.2610 O   0  0  0  0  0  0  0  0  0  0  0  0
  139.6180   72.7860  222.2320 C   0  0  0  0  0  0  0  0  0  0  0  0
  138.4410   73.6490  222.2520 N   0  0  0  0  0  0  0  0  0  0  0  0
  138.3450   74.5680  221.1800 C   0  0  0  0  0  0  0  0  0  0  0  0
  138.9500   75.8790  221.2300 C   0  0  0  0  0  0  0  0  0  0  0  0
  138.1220   76.8100  221.6580 O   0  0  0  0  0  0  0  0  0  0  0  0
  140.2320   76.3680  220.9200 N   0  0  0  0  0  0  0  0  0  0  0  0
  141.4260   75.5500  220.8030 C   0  0  0  0  0  0  0  0  0  0  0  0
  142.5410   76.2730  220.0760 C   0  0  0  0  0  0  0  0  0  0  0  0
  141.9330   77.0380  218.9350 C   0  0  0  0  0  0  0  0  0  0  0  0
  140.9880   78.0860  219.4270 C   0  0  0  0  0  0  0  0  0  0  0  0
  140.3620   77.8250  220.7340 C   0  0  2  0  0  0  0  0  0  0  0  0
  140.9310   78.4720  221.9390 C   0  0  0  0  0  0  0  0  0  0  0  0
  139.8720   79.4460  222.4800 C   0  0  0  0  0  0  0  0  0  0  0  0
  140.2900   79.9810  223.8330 C   0  0  0  0  0  0  0  0  0  0  0  0
  141.7360   80.4190  223.8390 C   0  0  0  0  0  0  0  0  0  0  0  0
  142.1510   80.6200  222.3930 C   0  0  0  0  0  0  0  0  0  0  0  0
  142.1740   79.2480  221.7420 C   0  0  0  0  0  0  0  0  0  0  0  0
  139.8210   71.8140  223.2710 C   0  0  0  0  0  0  0  0  0  0  0  0
  139.5380   70.4930  222.9910 C   0  0  0  0  0  0  0  0  0  0  0  0
  139.7040   69.5170  223.9240 C   0  0  0  0  0  0  0  0  0  0  0  0
  140.1660   69.8550  225.1740 C   0  0  0  0  0  0  0  0  0  0  0  0
  140.3600   68.9240  226.1740 C   0  0  0  0  0  0  0  0  0  0  0  0
  140.8240   69.2810  227.4230 C   0  0  0  0  0  0  0  0  0  0  0  0
  141.0730   68.1030  228.6960 Cl  0  0  0  0  0  0  0  0  0  0  0  0
  141.1010   70.6210  227.6770 C   0  0  0  0  0  0  0  0  0  0  0  0
  140.9170   71.5810  226.6950 C   0  0  0  0  0  0  0  0  0  0  0  0
  140.4440   71.1650  225.4470 C   0  0  0  0  0  0  0  0  0  0  0  0
  140.2720   72.1230  224.5050 N   0  0  0  0  0  0  0  0  0  0  0  0
  137.8210   73.4700  223.0430 H   0  0  0  0  0  0  0  0  0  0  0  0
  138.7791   74.0635  220.3042 H   0  0  0  0  0  0  0  0  0  0  0  0
  137.2724   74.8121  221.1850 H   0  0  0  0  0  0  0  0  0  0  0  0
  141.7742   75.2837  221.8119 H   0  0  0  0  0  0  0  0  0  0  0  0
  141.1673   74.6529  220.2213 H   0  0  0  0  0  0  0  0  0  0  0  0
  143.0460   76.9673  220.7637 H   0  0  0  0  0  0  0  0  0  0  0  0
  143.2821   75.5521  219.7004 H   0  0  0  0  0  0  0  0  0  0  0  0
  142.7360   77.5213  218.3592 H   0  0  0  0  0  0  0  0  0  0  0  0
  141.3720   76.3330  218.3038 H   0  0  0  0  0  0  0  0  0  0  0  0
  141.5437   79.0323  219.5024 H   0  0  0  0  0  0  0  0  0  0  0  0
  140.1624   78.1071  218.7004 H   0  0  0  0  0  0  0  0  0  0  0  0
  139.3876   78.3305  220.6637 H   0  0  0  0  0  0  0  0  0  0  0  0
  141.1962   77.6481  222.6179 H   0  0  0  0  0  0  0  0  0  0  0  0
  139.7586   80.2850  221.7777 H   0  0  0  0  0  0  0  0  0  0  0  0
  138.9167   78.9113  222.5871 H   0  0  0  0  0  0  0  0  0  0  0  0
  139.6555   80.8429  224.0869 H   0  0  0  0  0  0  0  0  0  0  0  0
  140.1733   79.1741  224.5714 H   0  0  0  0  0  0  0  0  0  0  0  0
  141.8417   81.3618  224.3958 H   0  0  0  0  0  0  0  0  0  0  0  0
  142.3704   79.6635  224.3255 H   0  0  0  0  0  0  0  0  0  0  0  0
  141.4272   81.2697  221.8792 H   0  0  0  0  0  0  0  0  0  0  0  0
  143.1389   81.0999  222.3315 H   0  0  0  0  0  0  0  0  0  0  0  0
  142.3329   79.3797  220.6615 H   0  0  0  0  0  0  0  0  0  0  0  0
  142.9850   78.6801  222.2212 H   0  0  0  0  0  0  0  0  0  0  0  0
  139.1697   70.2228  221.9903 H   0  0  0  0  0  0  0  0  0  0  0  0
  139.4713   68.4697  223.6812 H   0  0  0  0  0  0  0  0  0  0  0  0
  140.1381   67.8663  225.9691 H   0  0  0  0  0  0  0  0  0  0  0  0
  141.4702   70.9214  228.6687 H   0  0  0  0  0  0  0  0  0  0  0  0
  141.1369   72.6407  226.8919 H   0  0  0  0  0  0  0  0  0  0  0  0
  1  2  2  0
  2  3  1  0
  3  4  1  0
  4  5  1  0
  5  6  2  0
  5  7  1  0
  7  8  1  0
  8  9  1  0
  9 10  1  0
 10 11  1  0
 11 12  1  0
 12 13  1  0
 13 14  1  0
 14 15  1  0
 15 16  1  0
 16 17  1  0
 17 18  1  0
  2 19  1  0
 19 20  2  0
 20 21  1  0
 21 22  2  0
 22 23  1  0
 23 24  2  0
 24 25  1  0
 24 26  1  0
 26 27  2  0
 27 28  1  0
 28 29  2  0
 12  7  1  0
 18 13  1  0
 29 19  1  0
 28 22  1  0
  3 30  1  0
  4 31  1  0
  4 32  1  0
  8 33  1  0
  8 34  1  0
  9 35  1  0
  9 36  1  0
 10 37  1  0
 10 38  1  0
 11 39  1  0
 11 40  1  0
 12 41  1  6
 13 42  1  0
 14 43  1  0
 14 44  1  0
 15 45  1  0
 15 46  1  0
 16 47  1  0
 16 48  1  0
 17 49  1  0
 17 50  1  0
 18 51  1  0
 18 52  1  0
 20 53  1  0
 21 54  1  0
 23 55  1  0
 26 56  1  0
 27 57  1  0
M  END
>  <smiles>  (46) 
O=C(NCC(=O)N1CCCCC1C1CCCCC1)c1ccc2cc(Cl)ccc2n1

>  <score_type>  (46) 
oracle

>  <origin>  (46) 
autodockgpu

>  <m_score__min__energy>  (46) 
-9.3699999999999992

>  <m_primary>  (46) 
energy

>  <rmsd>  (46) 
2.0311228716214598

>  <m_score__min__rmsd>  (46) 
2.0311228716214598

>  <meeko>  (46) 
{"free_energy": -8.48, "intermolecular_energy": -9.97, "internal_energy": -1.45, "cluster_size": 38, "cluster_id": 1, "rank_in_cluster": 26}

>  <energy>  (46) 
-8.13

>  <cluster_rmsd>  (46) 
0.0

>  <cluster>  (46) 
4

$$$$

     RDKit          3D

 57 60  0  0  0  0  0  0  0  0999 V2000
  133.8170   69.6650  226.7830 O   0  0  0  0  0  0  0  0  0  0  0  0
  134.1540   70.7530  226.2120 C   0  0  0  0  0  0  0  0  0  0  0  0
  135.1990   70.6580  225.1970 N   0  0  0  0  0  0  0  0  0  0  0  0
  135.7100   69.3580  224.9720 C   0  0  0  0  0  0  0  0  0  0  0  0
  136.5120   69.0320  223.8150 C   0  0  0  0  0  0  0  0  0  0  0  0
  135.9110   68.1950  222.9940 O   0  0  0  0  0  0  0  0  0  0  0  0
  137.7930   69.4190  223.3830 N   0  0  0  0  0  0  0  0  0  0  0  0
  138.4250   68.9720  222.1550 C   0  0  0  0  0  0  0  0  0  0  0  0
  139.5950   69.8520  221.7650 C   0  0  0  0  0  0  0  0  0  0  0  0
  139.2170   71.2790  222.0430 C   0  0  0  0  0  0  0  0  0  0  0  0
  138.9750   71.5030  223.5000 C   0  0  0  0  0  0  0  0  0  0  0  0
  138.5510   70.3220  224.2700 C   0  0  2  0  0  0  0  0  0  0  0  0
  139.5640   69.5790  225.0540 C   0  0  0  0  0  0  0  0  0  0  0  0
  138.8280   68.4700  225.8220 C   0  0  0  0  0  0  0  0  0  0  0  0
  139.8200   67.5310  226.4730 C   0  0  0  0  0  0  0  0  0  0  0  0
  140.9220   68.2840  227.1820 C   0  0  0  0  0  0  0  0  0  0  0  0
  140.4240   69.6990  227.4110 C   0  0  0  0  0  0  0  0  0  0  0  0
  140.3280   70.3630  226.0490 C   0  0  0  0  0  0  0  0  0  0  0  0
  133.5620   72.0240  226.5250 C   0  0  0  0  0  0  0  0  0  0  0  0
  132.3730   72.0330  227.2240 C   0  0  0  0  0  0  0  0  0  0  0  0
  131.7520   73.1980  227.5550 C   0  0  0  0  0  0  0  0  0  0  0  0
  132.3230   74.3920  227.1840 C   0  0  0  0  0  0  0  0  0  0  0  0
  131.7550   75.6150  227.4820 C   0  0  0  0  0  0  0  0  0  0  0  0
  132.3430   76.8030  227.1020 C   0  0  0  0  0  0  0  0  0  0  0  0
  131.6260   78.3580  227.4780 Cl  0  0  0  0  0  0  0  0  0  0  0  0
  133.5420   76.7640  226.3980 C   0  0  0  0  0  0  0  0  0  0  0  0
  134.1380   75.5530  226.0830 C   0  0  0  0  0  0  0  0  0  0  0  0
  133.5010   74.3780  226.4910 C   0  0  0  0  0  0  0  0  0  0  0  0
  134.1040   73.2090  226.1700 N   0  0  0  0  0  0  0  0  0  0  0  0
  135.4240   71.5540  224.7620 H   0  0  0  0  0  0  0  0  0  0  0  0
  136.3264   69.1150  225.8501 H   0  0  0  0  0  0  0  0  0  0  0  0
  134.7919   68.7829  224.7813 H   0  0  0  0  0  0  0  0  0  0  0  0
  138.7865   67.9427  222.2961 H   0  0  0  0  0  0  0  0  0  0  0  0
  137.6774   69.0247  221.3498 H   0  0  0  0  0  0  0  0  0  0  0  0
  140.4810   69.5787  222.3569 H   0  0  0  0  0  0  0  0  0  0  0  0
  139.8325   69.7208  220.6990 H   0  0  0  0  0  0  0  0  0  0  0  0
  140.0331   71.9371  221.7101 H   0  0  0  0  0  0  0  0  0  0  0  0
  138.2882   71.5043  221.4984 H   0  0  0  0  0  0  0  0  0  0  0  0
  139.9097   71.8768  223.9434 H   0  0  0  0  0  0  0  0  0  0  0  0
  138.1364   72.2126  223.5570 H   0  0  0  0  0  0  0  0  0  0  0  0
  137.9309   70.7436  225.0748 H   0  0  0  0  0  0  0  0  0  0  0  0
  140.3025   69.2249  224.3196 H   0  0  0  0  0  0  0  0  0  0  0  0
  138.1963   68.9252  226.5990 H   0  0  0  0  0  0  0  0  0  0  0  0
  138.2069   67.8991  225.1161 H   0  0  0  0  0  0  0  0  0  0  0  0
  139.2895   66.9036  227.2044 H   0  0  0  0  0  0  0  0  0  0  0  0
  140.2781   66.9163  225.6841 H   0  0  0  0  0  0  0  0  0  0  0  0
  141.1473   67.8033  228.1454 H   0  0  0  0  0  0  0  0  0  0  0  0
  141.8426   68.2869  226.5799 H   0  0  0  0  0  0  0  0  0  0  0  0
  139.4346   69.6779  227.8913 H   0  0  0  0  0  0  0  0  0  0  0  0
  141.1081   70.2535  228.0701 H   0  0  0  0  0  0  0  0  0  0  0  0
  139.8360   71.3390  226.1731 H   0  0  0  0  0  0  0  0  0  0  0  0
  141.3546   70.4543  225.6645 H   0  0  0  0  0  0  0  0  0  0  0  0
  131.9164   71.0772  227.5206 H   0  0  0  0  0  0  0  0  0  0  0  0
  130.8041   73.1842  228.1129 H   0  0  0  0  0  0  0  0  0  0  0  0
  130.8065   75.6422  228.0383 H   0  0  0  0  0  0  0  0  0  0  0  0
  134.0221   77.7039  226.0881 H   0  0  0  0  0  0  0  0  0  0  0  0
  135.0865   75.5177  225.5270 H   0  0  0  0  0  0  0  0  0  0  0  0
  1  2  2  0
  2  3  1  0
  3  4  1  0
  4  5  1  0
  5  6  2  0
  5  7  1  0
  7  8  1  0
  8  9  1  0
  9 10  1  0
 10 11  1  0
 11 12  1  0
 12 13  1  0
 13 14  1  0
 14 15  1  0
 15 16  1  0
 16 17  1  0
 17 18  1  0
  2 19  1  0
 19 20  2  0
 20 21  1  0
 21 22  2  0
 22 23  1  0
 23 24  2  0
 24 25  1  0
 24 26  1  0
 26 27  2  0
 27 28  1  0
 28 29  2  0
 12  7  1  0
 18 13  1  0
 29 19  1  0
 28 22  1  0
  3 30  1  0
  4 31  1  0
  4 32  1  0
  8 33  1  0
  8 34  1  0
  9 35  1  0
  9 36  1  0
 10 37  1  0
 10 38  1  0
 11 39  1  0
 11 40  1  0
 12 41  1  1
 13 42  1  0
 14 43  1  0
 14 44  1  0
 15 45  1  0
 15 46  1  0
 16 47  1  0
 16 48  1  0
 17 49  1  0
 17 50  1  0
 18 51  1  0
 18 52  1  0
 20 53  1  0
 21 54  1  0
 23 55  1  0
 26 56  1  0
 27 57  1  0
M  END
>  <smiles>  (47) 
O=C(NCC(=O)N1CCCCC1C1CCCCC1)c1ccc2cc(Cl)ccc2n1

>  <score_type>  (47) 
oracle

>  <origin>  (47) 
autodockgpu

>  <m_score__min__energy>  (47) 
-9.3699999999999992

>  <m_primary>  (47) 
energy

>  <rmsd>  (47) 
8.14865422773772

>  <m_score__min__rmsd>  (47) 
8.14865422773772

>  <meeko>  (47) 
{"free_energy": -8.39, "intermolecular_energy": -9.88, "internal_energy": -1.63, "cluster_size": 4, "cluster_id": 3, "rank_in_cluster": 3}

>  <energy>  (47) 
-8.08

>  <cluster_rmsd>  (47) 
0.29

>  <cluster>  (47) 
4

$$$$

     RDKit          3D

 57 60  0  0  0  0  0  0  0  0999 V2000
  139.0020   72.4760  221.0600 O   0  0  0  0  0  0  0  0  0  0  0  0
  139.8640   72.5640  221.9940 C   0  0  0  0  0  0  0  0  0  0  0  0
  140.8240   73.6590  221.8920 N   0  0  0  0  0  0  0  0  0  0  0  0
  140.6750   74.4920  220.7580 C   0  0  0  0  0  0  0  0  0  0  0  0
  140.5290   75.9250  220.8650 C   0  0  0  0  0  0  0  0  0  0  0  0
  139.5580   76.2820  221.6810 O   0  0  0  0  0  0  0  0  0  0  0  0
  141.2040   77.0150  220.2860 N   0  0  0  0  0  0  0  0  0  0  0  0
  142.3320   76.9050  219.3780 C   0  0  0  0  0  0  0  0  0  0  0  0
  142.5770   78.1920  218.6180 C   0  0  0  0  0  0  0  0  0  0  0  0
  141.2440   78.7660  218.2340 C   0  0  0  0  0  0  0  0  0  0  0  0
  140.4380   79.1250  219.4400 C   0  0  0  0  0  0  0  0  0  0  0  0
  140.7400   78.3630  220.6630 C   0  0  2  0  0  0  0  0  0  0  0  0
  141.6270   78.9710  221.6820 C   0  0  0  0  0  0  0  0  0  0  0  0
  140.9290   78.8270  223.0430 C   0  0  0  0  0  0  0  0  0  0  0  0
  141.8680   79.2250  224.1620 C   0  0  0  0  0  0  0  0  0  0  0  0
  142.5850   80.5200  223.8580 C   0  0  0  0  0  0  0  0  0  0  0  0
  141.7930   81.2280  222.7730 C   0  0  0  0  0  0  0  0  0  0  0  0
  141.9430   80.4050  221.5050 C   0  0  0  0  0  0  0  0  0  0  0  0
  139.9190   71.6540  223.1050 C   0  0  0  0  0  0  0  0  0  0  0  0
  139.3990   70.3880  222.9340 C   0  0  0  0  0  0  0  0  0  0  0  0
  139.4160   69.4710  223.9400 C   0  0  0  0  0  0  0  0  0  0  0  0
  139.9630   69.8160  225.1530 C   0  0  0  0  0  0  0  0  0  0  0  0
  140.0170   68.9440  226.2220 C   0  0  0  0  0  0  0  0  0  0  0  0
  140.5700   69.3060  227.4320 C   0  0  0  0  0  0  0  0  0  0  0  0
  140.6410   68.2030  228.7910 Cl  0  0  0  0  0  0  0  0  0  0  0  0
  141.0870   70.5900  227.5750 C   0  0  0  0  0  0  0  0  0  0  0  0
  141.0480   71.4900  226.5220 C   0  0  0  0  0  0  0  0  0  0  0  0
  140.4760   71.0710  225.3170 C   0  0  0  0  0  0  0  0  0  0  0  0
  140.4510   71.9710  224.3040 N   0  0  0  0  0  0  0  0  0  0  0  0
  141.4840   73.6930  222.6690 H   0  0  0  0  0  0  0  0  0  0  0  0
  141.5641   74.3207  220.1334 H   0  0  0  0  0  0  0  0  0  0  0  0
  139.6857   74.1905  220.3833 H   0  0  0  0  0  0  0  0  0  0  0  0
  143.2329   76.6589  219.9592 H   0  0  0  0  0  0  0  0  0  0  0  0
  142.1028   76.1167  218.6458 H   0  0  0  0  0  0  0  0  0  0  0  0
  143.1202   78.9045  219.2561 H   0  0  0  0  0  0  0  0  0  0  0  0
  143.1812   77.9959  217.7200 H   0  0  0  0  0  0  0  0  0  0  0  0
  141.4046   79.6702  217.6285 H   0  0  0  0  0  0  0  0  0  0  0  0
  140.6915   78.0064  217.6615 H   0  0  0  0  0  0  0  0  0  0  0  0
  140.6089   80.1901  219.6552 H   0  0  0  0  0  0  0  0  0  0  0  0
  139.3958   78.8812  219.1860 H   0  0  0  0  0  0  0  0  0  0  0  0
  139.7815   78.3443  221.2023 H   0  0  0  0  0  0  0  0  0  0  0  0
  142.5858   78.4394  221.5925 H   0  0  0  0  0  0  0  0  0  0  0  0
  140.0417   79.4768  223.0659 H   0  0  0  0  0  0  0  0  0  0  0  0
  140.6321   77.7771  223.1826 H   0  0  0  0  0  0  0  0  0  0  0  0
  141.2868   79.3485  225.0877 H   0  0  0  0  0  0  0  0  0  0  0  0
  142.6236   78.4333  224.2726 H   0  0  0  0  0  0  0  0  0  0  0  0
  142.6305   81.1465  224.7610 H   0  0  0  0  0  0  0  0  0  0  0  0
  143.6158   80.3269  223.5260 H   0  0  0  0  0  0  0  0  0  0  0  0
  140.7328   81.2910  223.0593 H   0  0  0  0  0  0  0  0  0  0  0  0
  142.1632   82.2527  222.6220 H   0  0  0  0  0  0  0  0  0  0  0  0
  141.2664   80.8174  220.7420 H   0  0  0  0  0  0  0  0  0  0  0  0
  143.0003   80.4653  221.2077 H   0  0  0  0  0  0  0  0  0  0  0  0
  138.9608   70.1132  221.9632 H   0  0  0  0  0  0  0  0  0  0  0  0
  138.9970   68.4659  223.7841 H   0  0  0  0  0  0  0  0  0  0  0  0
  139.6066   67.9302  226.1049 H   0  0  0  0  0  0  0  0  0  0  0  0
  141.5314   70.8939  228.5342 H   0  0  0  0  0  0  0  0  0  0  0  0
  141.4557   72.5058  226.6312 H   0  0  0  0  0  0  0  0  0  0  0  0
  1  2  2  0
  2  3  1  0
  3  4  1  0
  4  5  1  0
  5  6  2  0
  5  7  1  0
  7  8  1  0
  8  9  1  0
  9 10  1  0
 10 11  1  0
 11 12  1  0
 12 13  1  0
 13 14  1  0
 14 15  1  0
 15 16  1  0
 16 17  1  0
 17 18  1  0
  2 19  1  0
 19 20  2  0
 20 21  1  0
 21 22  2  0
 22 23  1  0
 23 24  2  0
 24 25  1  0
 24 26  1  0
 26 27  2  0
 27 28  1  0
 28 29  2  0
 12  7  1  0
 18 13  1  0
 29 19  1  0
 28 22  1  0
  3 30  1  0
  4 31  1  0
  4 32  1  0
  8 33  1  0
  8 34  1  0
  9 35  1  0
  9 36  1  0
 10 37  1  0
 10 38  1  0
 11 39  1  0
 11 40  1  0
 12 41  1  1
 13 42  1  0
 14 43  1  0
 14 44  1  0
 15 45  1  0
 15 46  1  0
 16 47  1  0
 16 48  1  0
 17 49  1  0
 17 50  1  0
 18 51  1  0
 18 52  1  0
 20 53  1  0
 21 54  1  0
 23 55  1  0
 26 56  1  0
 27 57  1  0
M  END
>  <smiles>  (48) 
O=C(NCC(=O)N1CCCCC1C1CCCCC1)c1ccc2cc(Cl)ccc2n1

>  <score_type>  (48) 
oracle

>  <origin>  (48) 
autodockgpu

>  <m_score__min__energy>  (48) 
-9.3699999999999992

>  <m_primary>  (48) 
energy

>  <rmsd>  (48) 
2.3738142125698243

>  <m_score__min__rmsd>  (48) 
2.3738142125698243

>  <meeko>  (48) 
{"free_energy": -8.51, "intermolecular_energy": -10.0, "internal_energy": -1.52, "cluster_size": 38, "cluster_id": 1, "rank_in_cluster": 25}

>  <energy>  (48) 
-8.06

>  <cluster_rmsd>  (48) 
0.31

>  <cluster>  (48) 
4

$$$$

     RDKit          3D

 57 60  0  0  0  0  0  0  0  0999 V2000
  139.0850   71.8880  220.6590 O   0  0  0  0  0  0  0  0  0  0  0  0
  139.1230   72.3160  221.8570 C   0  0  0  0  0  0  0  0  0  0  0  0
  138.8700   73.7410  222.0470 N   0  0  0  0  0  0  0  0  0  0  0  0
  138.6110   74.4740  220.8640 C   0  0  0  0  0  0  0  0  0  0  0  0
  139.6590   74.8470  219.9420 C   0  0  0  0  0  0  0  0  0  0  0  0
  139.3170   74.6760  218.6820 O   0  0  0  0  0  0  0  0  0  0  0  0
  140.9610   75.3550  220.1070 N   0  0  0  0  0  0  0  0  0  0  0  0
  142.1250   74.5570  220.4490 C   0  0  0  0  0  0  0  0  0  0  0  0
  143.4200   75.2880  220.1600 C   0  0  0  0  0  0  0  0  0  0  0  0
  143.2580   76.0230  218.8600 C   0  0  0  0  0  0  0  0  0  0  0  0
  142.1880   77.0610  218.9520 C   0  0  0  0  0  0  0  0  0  0  0  0
  141.1340   76.8110  219.9490 C   0  0  2  0  0  0  0  0  0  0  0  0
  141.2190   77.4880  221.2630 C   0  0  0  0  0  0  0  0  0  0  0  0
  139.7940   77.9090  221.6560 C   0  0  0  0  0  0  0  0  0  0  0  0
  139.7670   78.4090  223.0850 C   0  0  0  0  0  0  0  0  0  0  0  0
  140.9010   79.3690  223.3640 C   0  0  0  0  0  0  0  0  0  0  0  0
  141.4020   79.8750  222.0240 C   0  0  0  0  0  0  0  0  0  0  0  0
  142.0630   78.7000  221.3230 C   0  0  0  0  0  0  0  0  0  0  0  0
  139.3990   71.4730  222.9880 C   0  0  0  0  0  0  0  0  0  0  0  0
  139.0500   70.1410  222.9060 C   0  0  0  0  0  0  0  0  0  0  0  0
  139.2790   69.2820  223.9360 C   0  0  0  0  0  0  0  0  0  0  0  0
  139.8710   69.7520  225.0840 C   0  0  0  0  0  0  0  0  0  0  0  0
  140.1360   68.9450  226.1720 C   0  0  0  0  0  0  0  0  0  0  0  0
  140.7310   69.4340  227.3160 C   0  0  0  0  0  0  0  0  0  0  0  0
  141.0690   68.4130  228.6990 Cl  0  0  0  0  0  0  0  0  0  0  0  0
  141.0720   70.7820  227.3700 C   0  0  0  0  0  0  0  0  0  0  0  0
  140.8190   71.6200  226.2950 C   0  0  0  0  0  0  0  0  0  0  0  0
  140.2140   71.0730  225.1600 C   0  0  0  0  0  0  0  0  0  0  0  0
  139.9790   71.9130  224.1250 N   0  0  0  0  0  0  0  0  0  0  0  0
  138.9020   74.0320  223.0250 H   0  0  0  0  0  0  0  0  0  0  0  0
  137.8914   73.8767  220.2847 H   0  0  0  0  0  0  0  0  0  0  0  0
  138.3017   75.4507  221.2644 H   0  0  0  0  0  0  0  0  0  0  0  0
  142.0862   74.3139  221.5211 H   0  0  0  0  0  0  0  0  0  0  0  0
  142.1048   73.6459  219.8330 H   0  0  0  0  0  0  0  0  0  0  0  0
  143.6339   76.0024  220.9686 H   0  0  0  0  0  0  0  0  0  0  0  0
  144.2549   74.5748  220.0943 H   0  0  0  0  0  0  0  0  0  0  0  0
  144.2097   76.5114  218.6037 H   0  0  0  0  0  0  0  0  0  0  0  0
  142.9713   75.2972  218.0847 H   0  0  0  0  0  0  0  0  0  0  0  0
  142.6680   78.0187  219.2018 H   0  0  0  0  0  0  0  0  0  0  0  0
  141.6818   77.0542  217.9754 H   0  0  0  0  0  0  0  0  0  0  0  0
  140.2463   77.2984  219.5195 H   0  0  0  0  0  0  0  0  0  0  0  0
  141.6918   76.7602  221.9389 H   0  0  0  0  0  0  0  0  0  0  0  0
  139.4550   78.7117  220.9846 H   0  0  0  0  0  0  0  0  0  0  0  0
  139.1278   77.0379  221.5699 H   0  0  0  0  0  0  0  0  0  0  0  0
  138.8118   78.9242  223.2642 H   0  0  0  0  0  0  0  0  0  0  0  0
  139.8796   77.5425  223.7532 H   0  0  0  0  0  0  0  0  0  0  0  0
  140.5406   80.2107  223.9736 H   0  0  0  0  0  0  0  0  0  0  0  0
  141.7084   78.8683  223.9185 H   0  0  0  0  0  0  0  0  0  0  0  0
  140.5600   80.2484  221.4226 H   0  0  0  0  0  0  0  0  0  0  0  0
  142.1143   80.7023  222.1587 H   0  0  0  0  0  0  0  0  0  0  0  0
  142.3077   79.0032  220.2943 H   0  0  0  0  0  0  0  0  0  0  0  0
  142.9563   78.4390  221.9095 H   0  0  0  0  0  0  0  0  0  0  0  0
  138.5760   69.7649  221.9874 H   0  0  0  0  0  0  0  0  0  0  0  0
  138.9935   68.2231  223.8509 H   0  0  0  0  0  0  0  0  0  0  0  0
  139.8645   67.8801  226.1252 H   0  0  0  0  0  0  0  0  0  0  0  0
  141.5475   71.1871  228.2755 H   0  0  0  0  0  0  0  0  0  0  0  0
  141.0870   72.6861  226.3342 H   0  0  0  0  0  0  0  0  0  0  0  0
  1  2  2  0
  2  3  1  0
  3  4  1  0
  4  5  1  0
  5  6  2  0
  5  7  1  0
  7  8  1  0
  8  9  1  0
  9 10  1  0
 10 11  1  0
 11 12  1  0
 12 13  1  0
 13 14  1  0
 14 15  1  0
 15 16  1  0
 16 17  1  0
 17 18  1  0
  2 19  1  0
 19 20  2  0
 20 21  1  0
 21 22  2  0
 22 23  1  0
 23 24  2  0
 24 25  1  0
 24 26  1  0
 26 27  2  0
 27 28  1  0
 28 29  2  0
 12  7  1  0
 18 13  1  0
 29 19  1  0
 28 22  1  0
  3 30  1  0
  4 31  1  0
  4 32  1  0
  8 33  1  0
  8 34  1  0
  9 35  1  0
  9 36  1  0
 10 37  1  0
 10 38  1  0
 11 39  1  0
 11 40  1  0
 12 41  1  6
 13 42  1  0
 14 43  1  0
 14 44  1  0
 15 45  1  0
 15 46  1  0
 16 47  1  0
 16 48  1  0
 17 49  1  0
 17 50  1  0
 18 51  1  0
 18 52  1  0
 20 53  1  0
 21 54  1  0
 23 55  1  0
 26 56  1  0
 27 57  1  0
M  END
>  <smiles>  (49) 
O=C(NCC(=O)N1CCCCC1C1CCCCC1)c1ccc2cc(Cl)ccc2n1

>  <score_type>  (49) 
oracle

>  <origin>  (49) 
autodockgpu

>  <m_score__min__energy>  (49) 
-9.3699999999999992

>  <m_primary>  (49) 
energy

>  <rmsd>  (49) 
2.011105017653535

>  <m_score__min__rmsd>  (49) 
2.011105017653535

>  <meeko>  (49) 
{"free_energy": -8.0, "intermolecular_energy": -9.49, "internal_energy": -1.75, "cluster_size": 38, "cluster_id": 1, "rank_in_cluster": 34}

>  <energy>  (49) 
-8.05

>  <cluster_rmsd>  (49) 
0.24

>  <cluster>  (49) 
4

$$$$

     RDKit          3D

 57 60  0  0  0  0  0  0  0  0999 V2000
  139.0000   71.9750  220.7620 O   0  0  0  0  0  0  0  0  0  0  0  0
  139.2150   72.3810  221.9490 C   0  0  0  0  0  0  0  0  0  0  0  0
  139.1940   73.8260  222.1560 N   0  0  0  0  0  0  0  0  0  0  0  0
  138.9340   74.6000  221.0000 C   0  0  0  0  0  0  0  0  0  0  0  0
  139.9580   74.9020  220.0260 C   0  0  0  0  0  0  0  0  0  0  0  0
  139.7560   74.3050  218.8690 O   0  0  0  0  0  0  0  0  0  0  0  0
  141.1190   75.6960  220.0530 N   0  0  0  0  0  0  0  0  0  0  0  0
  142.4760   75.1810  220.0970 C   0  0  0  0  0  0  0  0  0  0  0  0
  143.4950   76.2330  219.7120 C   0  0  0  0  0  0  0  0  0  0  0  0
  142.9350   77.0260  218.5660 C   0  0  0  0  0  0  0  0  0  0  0  0
  141.6930   77.7540  218.9640 C   0  0  0  0  0  0  0  0  0  0  0  0
  140.9250   77.1580  220.0700 C   0  0  2  0  0  0  0  0  0  0  0  0
  141.0960   77.7070  221.4350 C   0  0  0  0  0  0  0  0  0  0  0  0
  139.7690   78.3750  221.8300 C   0  0  0  0  0  0  0  0  0  0  0  0
  139.7910   78.7650  223.2930 C   0  0  0  0  0  0  0  0  0  0  0  0
  141.0810   79.4560  223.6690 C   0  0  0  0  0  0  0  0  0  0  0  0
  141.7190   79.9480  222.3830 C   0  0  0  0  0  0  0  0  0  0  0  0
  142.1600   78.7190  221.6070 C   0  0  0  0  0  0  0  0  0  0  0  0
  139.4700   71.4960  223.0520 C   0  0  0  0  0  0  0  0  0  0  0  0
  139.1110   70.1710  222.9180 C   0  0  0  0  0  0  0  0  0  0  0  0
  139.3200   69.2740  223.9200 C   0  0  0  0  0  0  0  0  0  0  0  0
  139.9030   69.6980  225.0900 C   0  0  0  0  0  0  0  0  0  0  0  0
  140.1480   68.8500  226.1520 C   0  0  0  0  0  0  0  0  0  0  0  0
  140.7330   69.2930  227.3190 C   0  0  0  0  0  0  0  0  0  0  0  0
  141.0460   68.2200  228.6690 Cl  0  0  0  0  0  0  0  0  0  0  0  0
  141.0840   70.6350  227.4260 C   0  0  0  0  0  0  0  0  0  0  0  0
  140.8520   71.5130  226.3790 C   0  0  0  0  0  0  0  0  0  0  0  0
  140.2560   71.0110  225.2180 C   0  0  0  0  0  0  0  0  0  0  0  0
  140.0400   71.8910  224.2110 N   0  0  0  0  0  0  0  0  0  0  0  0
  139.3610   74.0990  223.1250 H   0  0  0  0  0  0  0  0  0  0  0  0
  138.1363   74.0758  220.4533 H   0  0  0  0  0  0  0  0  0  0  0  0
  138.7306   75.5914  221.4311 H   0  0  0  0  0  0  0  0  0  0  0  0
  142.6915   74.8350  221.1187 H   0  0  0  0  0  0  0  0  0  0  0  0
  142.5498   74.3558  219.3734 H   0  0  0  0  0  0  0  0  0  0  0  0
  143.6864   76.8977  220.5673 H   0  0  0  0  0  0  0  0  0  0  0  0
  144.4428   75.7573  219.4198 H   0  0  0  0  0  0  0  0  0  0  0  0
  143.6876   77.7565  218.2344 H   0  0  0  0  0  0  0  0  0  0  0  0
  142.6831   76.3295  217.7527 H   0  0  0  0  0  0  0  0  0  0  0  0
  141.9807   78.7725  219.2638 H   0  0  0  0  0  0  0  0  0  0  0  0
  141.0307   77.7149  218.0866 H   0  0  0  0  0  0  0  0  0  0  0  0
  139.8864   77.4497  219.8552 H   0  0  0  0  0  0  0  0  0  0  0  0
  141.3918   76.8523  222.0611 H   0  0  0  0  0  0  0  0  0  0  0  0
  139.6197   79.2759  221.2167 H   0  0  0  0  0  0  0  0  0  0  0  0
  138.9469   77.6637  221.6620 H   0  0  0  0  0  0  0  0  0  0  0  0
  138.9506   79.4461  223.4928 H   0  0  0  0  0  0  0  0  0  0  0  0
  139.7066   77.8471  223.8933 H   0  0  0  0  0  0  0  0  0  0  0  0
  140.8727   80.3060  224.3354 H   0  0  0  0  0  0  0  0  0  0  0  0
  141.7535   78.7652  224.1987 H   0  0  0  0  0  0  0  0  0  0  0  0
  140.9888   80.5238  221.7954 H   0  0  0  0  0  0  0  0  0  0  0  0
  142.5748   80.6054  222.5961 H   0  0  0  0  0  0  0  0  0  0  0  0
  142.4967   79.0407  220.6104 H   0  0  0  0  0  0  0  0  0  0  0  0
  142.9625   78.2435  222.1900 H   0  0  0  0  0  0  0  0  0  0  0  0
  138.6456   69.8319  221.9808 H   0  0  0  0  0  0  0  0  0  0  0  0
  139.0256   68.2216  223.7948 H   0  0  0  0  0  0  0  0  0  0  0  0
  139.8681   67.7898  226.0642 H   0  0  0  0  0  0  0  0  0  0  0  0
  141.5507   71.0032  228.3515 H   0  0  0  0  0  0  0  0  0  0  0  0
  141.1289   72.5746  226.4591 H   0  0  0  0  0  0  0  0  0  0  0  0
  1  2  2  0
  2  3  1  0
  3  4  1  0
  4  5  1  0
  5  6  2  0
  5  7  1  0
  7  8  1  0
  8  9  1  0
  9 10  1  0
 10 11  1  0
 11 12  1  0
 12 13  1  0
 13 14  1  0
 14 15  1  0
 15 16  1  0
 16 17  1  0
 17 18  1  0
  2 19  1  0
 19 20  2  0
 20 21  1  0
 21 22  2  0
 22 23  1  0
 23 24  2  0
 24 25  1  0
 24 26  1  0
 26 27  2  0
 27 28  1  0
 28 29  2  0
 12  7  1  0
 18 13  1  0
 29 19  1  0
 28 22  1  0
  3 30  1  0
  4 31  1  0
  4 32  1  0
  8 33  1  0
  8 34  1  0
  9 35  1  0
  9 36  1  0
 10 37  1  0
 10 38  1  0
 11 39  1  0
 11 40  1  0
 12 41  1  6
 13 42  1  0
 14 43  1  0
 14 44  1  0
 15 45  1  0
 15 46  1  0
 16 47  1  0
 16 48  1  0
 17 49  1  0
 17 50  1  0
 18 51  1  0
 18 52  1  0
 20 53  1  0
 21 54  1  0
 23 55  1  0
 26 56  1  0
 27 57  1  0
M  END
>  <smiles>  (50) 
O=C(NCC(=O)N1CCCCC1C1CCCCC1)c1ccc2cc(Cl)ccc2n1

>  <score_type>  (50) 
oracle

>  <origin>  (50) 
autodockgpu

>  <m_score__min__energy>  (50) 
-9.3699999999999992

>  <m_primary>  (50) 
energy

>  <rmsd>  (50) 
2.020208494171566

>  <m_score__min__rmsd>  (50) 
2.020208494171566

>  <meeko>  (50) 
{"free_energy": -8.27, "intermolecular_energy": -9.76, "internal_energy": -1.66, "cluster_size": 38, "cluster_id": 1, "rank_in_cluster": 30}

>  <energy>  (50) 
-8.07

>  <cluster_rmsd>  (50) 
0.0

>  <cluster>  (50) 
5

$$$$

     RDKit          3D

 57 60  0  0  0  0  0  0  0  0999 V2000
  140.6950   72.3840  220.7140 O   0  0  0  0  0  0  0  0  0  0  0  0
  140.1980   72.7880  221.8170 C   0  0  0  0  0  0  0  0  0  0  0  0
  139.6560   74.1140  221.9430 N   0  0  0  0  0  0  0  0  0  0  0  0
  139.7130   74.9480  220.7420 C   0  0  0  0  0  0  0  0  0  0  0  0
  138.5480   75.8650  220.6800 C   0  0  0  0  0  0  0  0  0  0  0  0
  137.8040   75.8960  219.6640 O   0  0  0  0  0  0  0  0  0  0  0  0
  138.2190   76.7400  221.7430 N   0  0  0  0  0  0  0  0  0  0  0  0
  137.3690   76.2710  222.8530 C   0  0  0  0  0  0  0  0  0  0  0  0
  136.2720   77.2590  223.1290 C   0  0  0  0  0  0  0  0  0  0  0  0
  136.1560   78.2290  221.9780 C   0  0  0  0  0  0  0  0  0  0  0  0
  137.4410   78.9960  221.7620 C   0  0  0  0  0  0  0  0  0  0  0  0
  138.6570   78.1150  221.8370 C   0  0  1  0  0  0  0  0  0  0  0  0
  139.4770   78.3550  223.0790 C   0  0  0  0  0  0  0  0  0  0  0  0
  140.9150   77.9890  222.7870 C   0  0  0  0  0  0  0  0  0  0  0  0
  141.8710   78.7260  223.7080 C   0  0  0  0  0  0  0  0  0  0  0  0
  141.8610   80.2160  223.4440 C   0  0  0  0  0  0  0  0  0  0  0  0
  140.5170   80.5400  222.7900 C   0  0  0  0  0  0  0  0  0  0  0  0
  139.4800   79.7540  223.5640 C   0  0  0  0  0  0  0  0  0  0  0  0
  140.1690   71.9070  222.9780 C   0  0  0  0  0  0  0  0  0  0  0  0
  139.6160   70.6450  222.8540 C   0  0  0  0  0  0  0  0  0  0  0  0
  139.5440   69.7460  223.8920 C   0  0  0  0  0  0  0  0  0  0  0  0
  140.0500   70.1270  225.1040 C   0  0  0  0  0  0  0  0  0  0  0  0
  139.9780   69.2190  226.1490 C   0  0  0  0  0  0  0  0  0  0  0  0
  140.4920   69.6210  227.3620 C   0  0  0  0  0  0  0  0  0  0  0  0
  140.4210   68.5060  228.7080 Cl  0  0  0  0  0  0  0  0  0  0  0  0
  141.0530   70.8780  227.5160 C   0  0  0  0  0  0  0  0  0  0  0  0
  141.1060   71.7570  226.4490 C   0  0  0  0  0  0  0  0  0  0  0  0
  140.5980   71.3740  225.2290 C   0  0  0  0  0  0  0  0  0  0  0  0
  140.6520   72.2410  224.1800 N   0  0  0  0  0  0  0  0  0  0  0  0
  139.2480   74.4480  222.8440 H   0  0  0  0  0  0  0  0  0  0  0  0
  140.6387   75.5420  220.7593 H   0  0  0  0  0  0  0  0  0  0  0  0
  139.6935   74.2938  219.8579 H   0  0  0  0  0  0  0  0  0  0  0  0
  136.9240   75.3018  222.5836 H   0  0  0  0  0  0  0  0  0  0  0  0
  137.9886   76.1659  223.7558 H   0  0  0  0  0  0  0  0  0  0  0  0
  135.3196   76.7224  223.2518 H   0  0  0  0  0  0  0  0  0  0  0  0
  136.5061   77.8139  224.0495 H   0  0  0  0  0  0  0  0  0  0  0  0
  135.9170   77.6686  221.0621 H   0  0  0  0  0  0  0  0  0  0  0  0
  135.3613   78.9512  222.2167 H   0  0  0  0  0  0  0  0  0  0  0  0
  137.4077   79.4674  220.7687 H   0  0  0  0  0  0  0  0  0  0  0  0
  137.5215   79.7456  222.5630 H   0  0  0  0  0  0  0  0  0  0  0  0
  139.3276   78.3579  220.9996 H   0  0  0  0  0  0  0  0  0  0  0  0
  139.0126   77.7376  223.8620 H   0  0  0  0  0  0  0  0  0  0  0  0
  141.0447   76.9059  222.9287 H   0  0  0  0  0  0  0  0  0  0  0  0
  141.1421   78.2763  221.7498 H   0  0  0  0  0  0  0  0  0  0  0  0
  141.5717   78.5462  224.7511 H   0  0  0  0  0  0  0  0  0  0  0  0
  142.8877   78.3501  223.5208 H   0  0  0  0  0  0  0  0  0  0  0  0
  141.9651   80.7688  224.3893 H   0  0  0  0  0  0  0  0  0  0  0  0
  142.6976   80.5068  222.7917 H   0  0  0  0  0  0  0  0  0  0  0  0
  140.3087   81.6180  222.8569 H   0  0  0  0  0  0  0  0  0  0  0  0
  140.5122   80.2741  221.7226 H   0  0  0  0  0  0  0  0  0  0  0  0
  139.7270   79.7726  224.6358 H   0  0  0  0  0  0  0  0  0  0  0  0
  138.4862   80.2017  223.4156 H   0  0  0  0  0  0  0  0  0  0  0  0
  139.2133   70.3454  221.8752 H   0  0  0  0  0  0  0  0  0  0  0  0
  139.0938   68.7522  223.7519 H   0  0  0  0  0  0  0  0  0  0  0  0
  139.5308   68.2229  226.0156 H   0  0  0  0  0  0  0  0  0  0  0  0
  141.4590   71.1793  228.4929 H   0  0  0  0  0  0  0  0  0  0  0  0
  141.5511   72.7550  226.5751 H   0  0  0  0  0  0  0  0  0  0  0  0
  1  2  2  0
  2  3  1  0
  3  4  1  0
  4  5  1  0
  5  6  2  0
  5  7  1  0
  7  8  1  0
  8  9  1  0
  9 10  1  0
 10 11  1  0
 11 12  1  0
 12 13  1  0
 13 14  1  0
 14 15  1  0
 15 16  1  0
 16 17  1  0
 17 18  1  0
  2 19  1  0
 19 20  2  0
 20 21  1  0
 21 22  2  0
 22 23  1  0
 23 24  2  0
 24 25  1  0
 24 26  1  0
 26 27  2  0
 27 28  1  0
 28 29  2  0
 12  7  1  0
 18 13  1  0
 29 19  1  0
 28 22  1  0
  3 30  1  0
  4 31  1  0
  4 32  1  0
  8 33  1  0
  8 34  1  0
  9 35  1  0
  9 36  1  0
 10 37  1  0
 10 38  1  0
 11 39  1  0
 11 40  1  0
 12 41  1  6
 13 42  1  0
 14 43  1  0
 14 44  1  0
 15 45  1  0
 15 46  1  0
 16 47  1  0
 16 48  1  0
 17 49  1  0
 17 50  1  0
 18 51  1  0
 18 52  1  0
 20 53  1  0
 21 54  1  0
 23 55  1  0
 26 56  1  0
 27 57  1  0
M  END
>  <smiles>  (51) 
O=C(NCC(=O)N1CCCCC1C1CCCCC1)c1ccc2cc(Cl)ccc2n1

>  <score_type>  (51) 
oracle

>  <origin>  (51) 
autodockgpu

>  <m_score__min__energy>  (51) 
-9.1899999999999995

>  <m_primary>  (51) 
energy

>  <rmsd>  (51) 
3.474291012659203

>  <m_score__min__rmsd>  (51) 
3.474291012659203

>  <meeko>  (51) 
{"free_energy": -8.32, "intermolecular_energy": -9.81, "internal_energy": -1.53, "cluster_size": 37, "cluster_id": 1, "rank_in_cluster": 28}

>  <energy>  (51) 
-9.19

>  <cluster_rmsd>  (51) 
0.0

>  <cluster>  (51) 
1

$$$$

     RDKit          3D

 57 60  0  0  0  0  0  0  0  0999 V2000
  138.8400   71.4890  220.5630 O   0  0  0  0  0  0  0  0  0  0  0  0
  138.8420   72.0510  221.7070 C   0  0  0  0  0  0  0  0  0  0  0  0
  138.4970   73.4400  221.8500 N   0  0  0  0  0  0  0  0  0  0  0  0
  138.1510   74.1460  220.6160 C   0  0  0  0  0  0  0  0  0  0  0  0
  139.3720   74.5920  219.9030 C   0  0  0  0  0  0  0  0  0  0  0  0
  139.4390   74.5490  218.6450 O   0  0  0  0  0  0  0  0  0  0  0  0
  140.5100   75.0820  220.5880 N   0  0  0  0  0  0  0  0  0  0  0  0
  140.3860   75.5840  221.9690 C   0  0  0  0  0  0  0  0  0  0  0  0
  141.0630   76.9170  222.1080 C   0  0  0  0  0  0  0  0  0  0  0  0
  141.3440   77.4920  220.7410 C   0  0  0  0  0  0  0  0  0  0  0  0
  142.2400   76.5880  219.9260 C   0  0  0  0  0  0  0  0  0  0  0  0
  141.8420   75.1410  220.0270 C   0  0  1  0  0  0  0  0  0  0  0  0
  142.8210   74.3200  220.8260 C   0  0  0  0  0  0  0  0  0  0  0  0
  142.5090   72.8550  220.6160 C   0  0  0  0  0  0  0  0  0  0  0  0
  143.7310   71.9890  220.8610 C   0  0  0  0  0  0  0  0  0  0  0  0
  144.8070   72.2380  219.8270 C   0  0  0  0  0  0  0  0  0  0  0  0
  144.5660   73.6400  219.2670 C   0  0  0  0  0  0  0  0  0  0  0  0
  144.2420   74.5130  220.4610 C   0  0  0  0  0  0  0  0  0  0  0  0
  139.1950   71.2920  222.9000 C   0  0  0  0  0  0  0  0  0  0  0  0
  138.8990   69.9410  222.9520 C   0  0  0  0  0  0  0  0  0  0  0  0
  139.1930   69.1430  224.0330 C   0  0  0  0  0  0  0  0  0  0  0  0
  139.8110   69.7240  225.1060 C   0  0  0  0  0  0  0  0  0  0  0  0
  140.1080   68.9190  226.1940 C   0  0  0  0  0  0  0  0  0  0  0  0
  140.7300   69.5210  227.2660 C   0  0  0  0  0  0  0  0  0  0  0  0
  141.1220   68.5410  228.6610 Cl  0  0  0  0  0  0  0  0  0  0  0  0
  141.0400   70.8710  227.2420 C   0  0  0  0  0  0  0  0  0  0  0  0
  140.7270   71.6420  226.1370 C   0  0  0  0  0  0  0  0  0  0  0  0
  140.1050   71.0590  225.0570 C   0  0  0  0  0  0  0  0  0  0  0  0
  139.7990   71.8210  223.9700 N   0  0  0  0  0  0  0  0  0  0  0  0
  138.4970   73.9030  222.7860 H   0  0  0  0  0  0  0  0  0  0  0  0
  137.5786   73.4708  219.9629 H   0  0  0  0  0  0  0  0  0  0  0  0
  137.5506   75.0310  220.8733 H   0  0  0  0  0  0  0  0  0  0  0  0
  139.3206   75.6914  222.2206 H   0  0  0  0  0  0  0  0  0  0  0  0
  140.8672   74.8682  222.6517 H   0  0  0  0  0  0  0  0  0  0  0  0
  140.4081   77.6030  222.6653 H   0  0  0  0  0  0  0  0  0  0  0  0
  142.0114   76.7882  222.6501 H   0  0  0  0  0  0  0  0  0  0  0  0
  140.3912   77.6241  220.2074 H   0  0  0  0  0  0  0  0  0  0  0  0
  141.8591   78.4548  220.8740 H   0  0  0  0  0  0  0  0  0  0  0  0
  142.1867   76.8959  218.8713 H   0  0  0  0  0  0  0  0  0  0  0  0
  143.2614   76.6827  220.3233 H   0  0  0  0  0  0  0  0  0  0  0  0
  141.8497   74.6960  219.0211 H   0  0  0  0  0  0  0  0  0  0  0  0
  142.7023   74.6536  221.8674 H   0  0  0  0  0  0  0  0  0  0  0  0
  141.7122   72.5552  221.3125 H   0  0  0  0  0  0  0  0  0  0  0  0
  142.1883   72.7149  219.5732 H   0  0  0  0  0  0  0  0  0  0  0  0
  144.1352   72.2161  221.8585 H   0  0  0  0  0  0  0  0  0  0  0  0
  143.4248   70.9347  220.7916 H   0  0  0  0  0  0  0  0  0  0  0  0
  145.8013   72.1827  220.2943 H   0  0  0  0  0  0  0  0  0  0  0  0
  144.7693   71.4823  219.0285 H   0  0  0  0  0  0  0  0  0  0  0  0
  145.4681   74.0087  218.7569 H   0  0  0  0  0  0  0  0  0  0  0  0
  143.7503   73.6457  218.5290 H   0  0  0  0  0  0  0  0  0  0  0  0
  144.8826   74.2304  221.3094 H   0  0  0  0  0  0  0  0  0  0  0  0
  144.4216   75.5688  220.2097 H   0  0  0  0  0  0  0  0  0  0  0  0
  138.4031   69.4818  222.0841 H   0  0  0  0  0  0  0  0  0  0  0  0
  138.9394   68.0726  224.0346 H   0  0  0  0  0  0  0  0  0  0  0  0
  139.8585   67.8477  226.2016 H   0  0  0  0  0  0  0  0  0  0  0  0
  141.5382   71.3328  228.1072 H   0  0  0  0  0  0  0  0  0  0  0  0
  140.9737   72.7139  226.1218 H   0  0  0  0  0  0  0  0  0  0  0  0
  1  2  2  0
  2  3  1  0
  3  4  1  0
  4  5  1  0
  5  6  2  0
  5  7  1  0
  7  8  1  0
  8  9  1  0
  9 10  1  0
 10 11  1  0
 11 12  1  0
 12 13  1  0
 13 14  1  0
 14 15  1  0
 15 16  1  0
 16 17  1  0
 17 18  1  0
  2 19  1  0
 19 20  2  0
 20 21  1  0
 21 22  2  0
 22 23  1  0
 23 24  2  0
 24 25  1  0
 24 26  1  0
 26 27  2  0
 27 28  1  0
 28 29  2  0
 12  7  1  0
 18 13  1  0
 29 19  1  0
 28 22  1  0
  3 30  1  0
  4 31  1  0
  4 32  1  0
  8 33  1  0
  8 34  1  0
  9 35  1  0
  9 36  1  0
 10 37  1  0
 10 38  1  0
 11 39  1  0
 11 40  1  0
 12 41  1  6
 13 42  1  0
 14 43  1  0
 14 44  1  0
 15 45  1  0
 15 46  1  0
 16 47  1  0
 16 48  1  0
 17 49  1  0
 17 50  1  0
 18 51  1  0
 18 52  1  0
 20 53  1  0
 21 54  1  0
 23 55  1  0
 26 56  1  0
 27 57  1  0
M  END
>  <smiles>  (52) 
O=C(NCC(=O)N1CCCCC1C1CCCCC1)c1ccc2cc(Cl)ccc2n1

>  <score_type>  (52) 
oracle

>  <origin>  (52) 
autodockgpu

>  <m_score__min__energy>  (52) 
-9.1899999999999995

>  <m_primary>  (52) 
energy

>  <rmsd>  (52) 
2.3344916507689972

>  <m_score__min__rmsd>  (52) 
2.3344916507689972

>  <meeko>  (52) 
{"free_energy": -7.75, "intermolecular_energy": -9.24, "internal_energy": -2.06, "cluster_size": 8, "cluster_id": 3, "rank_in_cluster": 7}

>  <energy>  (52) 
-9.18

>  <cluster_rmsd>  (52) 
0.39

>  <cluster>  (52) 
1

$$$$

     RDKit          3D

 57 60  0  0  0  0  0  0  0  0999 V2000
  140.2590   72.4120  220.7880 O   0  0  0  0  0  0  0  0  0  0  0  0
  139.8480   72.7770  221.9390 C   0  0  0  0  0  0  0  0  0  0  0  0
  139.2810   74.0830  222.1420 N   0  0  0  0  0  0  0  0  0  0  0  0
  139.2110   74.9440  220.9610 C   0  0  0  0  0  0  0  0  0  0  0  0
  139.0440   76.3650  221.3520 C   0  0  0  0  0  0  0  0  0  0  0  0
  138.1820   76.7030  222.2060 O   0  0  0  0  0  0  0  0  0  0  0  0
  139.8340   77.3990  220.7920 N   0  0  0  0  0  0  0  0  0  0  0  0
  139.4400   78.0250  219.5170 C   0  0  0  0  0  0  0  0  0  0  0  0
  140.6120   78.0930  218.5800 C   0  0  0  0  0  0  0  0  0  0  0  0
  141.7180   77.1940  219.0790 C   0  0  0  0  0  0  0  0  0  0  0  0
  142.1880   77.5980  220.4570 C   0  0  0  0  0  0  0  0  0  0  0  0
  141.0480   77.9140  221.3850 C   0  0  1  0  0  0  0  0  0  0  0  0
  140.9370   79.3850  221.6950 C   0  0  0  0  0  0  0  0  0  0  0  0
  140.4660   79.5440  223.1230 C   0  0  0  0  0  0  0  0  0  0  0  0
  140.8850   80.8850  223.6980 C   0  0  0  0  0  0  0  0  0  0  0  0
  142.3880   80.9830  223.8440 C   0  0  0  0  0  0  0  0  0  0  0  0
  142.9940   79.9890  222.8530 C   0  0  0  0  0  0  0  0  0  0  0  0
  142.2010   80.1450  221.5730 C   0  0  0  0  0  0  0  0  0  0  0  0
  139.9450   71.8720  223.0760 C   0  0  0  0  0  0  0  0  0  0  0  0
  139.5280   70.5600  222.9330 C   0  0  0  0  0  0  0  0  0  0  0  0
  139.5810   69.6340  223.9480 C   0  0  0  0  0  0  0  0  0  0  0  0
  140.0740   70.0390  225.1580 C   0  0  0  0  0  0  0  0  0  0  0  0
  140.1280   69.1050  226.1790 C   0  0  0  0  0  0  0  0  0  0  0  0
  140.6260   69.5310  227.3910 C   0  0  0  0  0  0  0  0  0  0  0  0
  140.7110   68.3840  228.7090 Cl  0  0  0  0  0  0  0  0  0  0  0  0
  141.0520   70.8380  227.5640 C   0  0  0  0  0  0  0  0  0  0  0  0
  140.9820   71.7420  226.5200 C   0  0  0  0  0  0  0  0  0  0  0  0
  140.4870   71.3360  225.3020 C   0  0  0  0  0  0  0  0  0  0  0  0
  140.4200   72.2280  224.2750 N   0  0  0  0  0  0  0  0  0  0  0  0
  138.9440   74.3850  223.0820 H   0  0  0  0  0  0  0  0  0  0  0  0
  140.1396   74.8366  220.3813 H   0  0  0  0  0  0  0  0  0  0  0  0
  138.3436   74.6414  220.3560 H   0  0  0  0  0  0  0  0  0  0  0  0
  138.6399   77.4293  219.0533 H   0  0  0  0  0  0  0  0  0  0  0  0
  139.0848   79.0467  219.7171 H   0  0  0  0  0  0  0  0  0  0  0  0
  140.2983   77.7645  217.5782 H   0  0  0  0  0  0  0  0  0  0  0  0
  140.9793   79.1287  218.5320 H   0  0  0  0  0  0  0  0  0  0  0  0
  141.3461   76.1595  219.1183 H   0  0  0  0  0  0  0  0  0  0  0  0
  142.5689   77.2811  218.3874 H   0  0  0  0  0  0  0  0  0  0  0  0
  142.7735   76.7716  220.8863 H   0  0  0  0  0  0  0  0  0  0  0  0
  142.7937   78.5099  220.3493 H   0  0  0  0  0  0  0  0  0  0  0  0
  141.2312   77.4302  222.3558 H   0  0  0  0  0  0  0  0  0  0  0  0
  140.2371   79.7906  220.9496 H   0  0  0  0  0  0  0  0  0  0  0  0
  139.3687   79.4708  223.1483 H   0  0  0  0  0  0  0  0  0  0  0  0
  140.9242   78.7488  223.7294 H   0  0  0  0  0  0  0  0  0  0  0  0
  140.5385   81.6850  223.0273 H   0  0  0  0  0  0  0  0  0  0  0  0
  140.4348   80.9872  224.6964 H   0  0  0  0  0  0  0  0  0  0  0  0
  142.7253   82.0037  223.6107 H   0  0  0  0  0  0  0  0  0  0  0  0
  142.7002   80.7539  224.8736 H   0  0  0  0  0  0  0  0  0  0  0  0
  144.0545   80.2222  222.6771 H   0  0  0  0  0  0  0  0  0  0  0  0
  142.9472   78.9583  223.2345 H   0  0  0  0  0  0  0  0  0  0  0  0
  141.9772   81.2088  221.4049 H   0  0  0  0  0  0  0  0  0  0  0  0
  142.7856   79.7611  220.7239 H   0  0  0  0  0  0  0  0  0  0  0  0
  139.1337   70.2416  221.9567 H   0  0  0  0  0  0  0  0  0  0  0  0
  139.2379   68.6006  223.7920 H   0  0  0  0  0  0  0  0  0  0  0  0
  139.7886   68.0695  226.0291 H   0  0  0  0  0  0  0  0  0  0  0  0
  141.4486   71.1587  228.5386 H   0  0  0  0  0  0  0  0  0  0  0  0
  141.3199   72.7791  226.6623 H   0  0  0  0  0  0  0  0  0  0  0  0
  1  2  2  0
  2  3  1  0
  3  4  1  0
  4  5  1  0
  5  6  2  0
  5  7  1  0
  7  8  1  0
  8  9  1  0
  9 10  1  0
 10 11  1  0
 11 12  1  0
 12 13  1  0
 13 14  1  0
 14 15  1  0
 15 16  1  0
 16 17  1  0
 17 18  1  0
  2 19  1  0
 19 20  2  0
 20 21  1  0
 21 22  2  0
 22 23  1  0
 23 24  2  0
 24 25  1  0
 24 26  1  0
 26 27  2  0
 27 28  1  0
 28 29  2  0
 12  7  1  0
 18 13  1  0
 29 19  1  0
 28 22  1  0
  3 30  1  0
  4 31  1  0
  4 32  1  0
  8 33  1  0
  8 34  1  0
  9 35  1  0
  9 36  1  0
 10 37  1  0
 10 38  1  0
 11 39  1  0
 11 40  1  0
 12 41  1  1
 13 42  1  0
 14 43  1  0
 14 44  1  0
 15 45  1  0
 15 46  1  0
 16 47  1  0
 16 48  1  0
 17 49  1  0
 17 50  1  0
 18 51  1  0
 18 52  1  0
 20 53  1  0
 21 54  1  0
 23 55  1  0
 26 56  1  0
 27 57  1  0
M  END
>  <smiles>  (53) 
O=C(NCC(=O)N1CCCCC1C1CCCCC1)c1ccc2cc(Cl)ccc2n1

>  <score_type>  (53) 
oracle

>  <origin>  (53) 
autodockgpu

>  <m_score__min__energy>  (53) 
-9.1899999999999995

>  <m_primary>  (53) 
energy

>  <rmsd>  (53) 
2.062258328159122

>  <m_score__min__rmsd>  (53) 
2.062258328159122

>  <meeko>  (53) 
{"free_energy": -8.89, "intermolecular_energy": -10.38, "internal_energy": -1.6, "cluster_size": 37, "cluster_id": 1, "rank_in_cluster": 14}

>  <energy>  (53) 
-9.17

>  <cluster_rmsd>  (53) 
0.39

>  <cluster>  (53) 
1

$$$$

     RDKit          3D

 57 60  0  0  0  0  0  0  0  0999 V2000
  139.5410   71.8830  220.8010 O   0  0  0  0  0  0  0  0  0  0  0  0
  139.5110   72.3540  221.9860 C   0  0  0  0  0  0  0  0  0  0  0  0
  139.2790   73.7530  222.2200 N   0  0  0  0  0  0  0  0  0  0  0  0
  139.0820   74.5800  221.0290 C   0  0  0  0  0  0  0  0  0  0  0  0
  140.3800   75.0720  220.5070 C   0  0  0  0  0  0  0  0  0  0  0  0
  141.3750   74.3040  220.4230 O   0  0  0  0  0  0  0  0  0  0  0  0
  140.5650   76.4100  220.0820 N   0  0  0  0  0  0  0  0  0  0  0  0
  139.7100   76.9770  219.0230 C   0  0  0  0  0  0  0  0  0  0  0  0
  140.5470   77.6670  217.9840 C   0  0  0  0  0  0  0  0  0  0  0  0
  141.9940   77.2680  218.1460 C   0  0  0  0  0  0  0  0  0  0  0  0
  142.5280   77.6400  219.5100 C   0  0  0  0  0  0  0  0  0  0  0  0
  141.5650   77.3080  220.6160 C   0  0  1  0  0  0  0  0  0  0  0  0
  140.9420   78.5320  221.2360 C   0  0  0  0  0  0  0  0  0  0  0  0
  140.3980   78.1620  222.5980 C   0  0  0  0  0  0  0  0  0  0  0  0
  140.3090   79.3740  223.5060 C   0  0  0  0  0  0  0  0  0  0  0  0
  141.6800   79.9170  223.8460 C   0  0  0  0  0  0  0  0  0  0  0  0
  142.6250   79.4620  222.7330 C   0  0  0  0  0  0  0  0  0  0  0  0
  141.8680   79.6690  221.4380 C   0  0  0  0  0  0  0  0  0  0  0  0
  139.7140   71.4770  223.1320 C   0  0  0  0  0  0  0  0  0  0  0  0
  139.3670   70.1410  223.0300 C   0  0  0  0  0  0  0  0  0  0  0  0
  139.5210   69.2390  224.0560 C   0  0  0  0  0  0  0  0  0  0  0  0
  140.0460   69.6950  225.2350 C   0  0  0  0  0  0  0  0  0  0  0  0
  140.2010   68.7840  226.2680 C   0  0  0  0  0  0  0  0  0  0  0  0
  140.7310   69.2610  227.4460 C   0  0  0  0  0  0  0  0  0  0  0  0
  140.9430   68.1460  228.7770 Cl  0  0  0  0  0  0  0  0  0  0  0  0
  141.0880   70.5930  227.5780 C   0  0  0  0  0  0  0  0  0  0  0  0
  140.9170   71.4720  226.5240 C   0  0  0  0  0  0  0  0  0  0  0  0
  140.3890   71.0150  225.3380 C   0  0  0  0  0  0  0  0  0  0  0  0
  140.2230   71.8820  224.3010 N   0  0  0  0  0  0  0  0  0  0  0  0
  139.2530   74.1430  223.1880 H   0  0  0  0  0  0  0  0  0  0  0  0
  138.5851   73.9804  220.2521 H   0  0  0  0  0  0  0  0  0  0  0  0
  138.4609   75.4462  221.3009 H   0  0  0  0  0  0  0  0  0  0  0  0
  139.1378   76.1669  218.5473 H   0  0  0  0  0  0  0  0  0  0  0  0
  139.0256   77.7110  219.4733 H   0  0  0  0  0  0  0  0  0  0  0  0
  140.1980   77.3767  216.9820 H   0  0  0  0  0  0  0  0  0  0  0  0
  140.4544   78.7561  218.1073 H   0  0  0  0  0  0  0  0  0  0  0  0
  142.0803   76.1793  218.0143 H   0  0  0  0  0  0  0  0  0  0  0  0
  142.5842   77.8051  217.3889 H   0  0  0  0  0  0  0  0  0  0  0  0
  143.4661   77.0922  219.6829 H   0  0  0  0  0  0  0  0  0  0  0  0
  142.6870   78.7284  219.5210 H   0  0  0  0  0  0  0  0  0  0  0  0
  142.1139   76.8209  221.4354 H   0  0  0  0  0  0  0  0  0  0  0  0
  140.1696   78.8603  220.5249 H   0  0  0  0  0  0  0  0  0  0  0  0
  139.3933   77.7308  222.4771 H   0  0  0  0  0  0  0  0  0  0  0  0
  141.0823   77.4340  223.0582 H   0  0  0  0  0  0  0  0  0  0  0  0
  139.7300   80.1591  222.9977 H   0  0  0  0  0  0  0  0  0  0  0  0
  139.8184   79.0677  224.4417 H   0  0  0  0  0  0  0  0  0  0  0  0
  141.6511   81.0156  223.8925 H   0  0  0  0  0  0  0  0  0  0  0  0
  142.0182   79.5484  224.8257 H   0  0  0  0  0  0  0  0  0  0  0  0
  143.5441   80.0663  222.7401 H   0  0  0  0  0  0  0  0  0  0  0  0
  142.9264   78.4120  222.8621 H   0  0  0  0  0  0  0  0  0  0  0  0
  141.2952   80.6066  221.4911 H   0  0  0  0  0  0  0  0  0  0  0  0
  142.5759   79.7265  220.5980 H   0  0  0  0  0  0  0  0  0  0  0  0
  138.9463   69.7825  222.0790 H   0  0  0  0  0  0  0  0  0  0  0  0
  139.2316   68.1848  223.9334 H   0  0  0  0  0  0  0  0  0  0  0  0
  139.9138   67.7285  226.1521 H   0  0  0  0  0  0  0  0  0  0  0  0
  141.5103   70.9540  228.5274 H   0  0  0  0  0  0  0  0  0  0  0  0
  141.2011   72.5291  226.6329 H   0  0  0  0  0  0  0  0  0  0  0  0
  1  2  2  0
  2  3  1  0
  3  4  1  0
  4  5  1  0
  5  6  2  0
  5  7  1  0
  7  8  1  0
  8  9  1  0
  9 10  1  0
 10 11  1  0
 11 12  1  0
 12 13  1  0
 13 14  1  0
 14 15  1  0
 15 16  1  0
 16 17  1  0
 17 18  1  0
  2 19  1  0
 19 20  2  0
 20 21  1  0
 21 22  2  0
 22 23  1  0
 23 24  2  0
 24 25  1  0
 24 26  1  0
 26 27  2  0
 27 28  1  0
 28 29  2  0
 12  7  1  0
 18 13  1  0
 29 19  1  0
 28 22  1  0
  3 30  1  0
  4 31  1  0
  4 32  1  0
  8 33  1  0
  8 34  1  0
  9 35  1  0
  9 36  1  0
 10 37  1  0
 10 38  1  0
 11 39  1  0
 11 40  1  0
 12 41  1  1
 13 42  1  0
 14 43  1  0
 14 44  1  0
 15 45  1  0
 15 46  1  0
 16 47  1  0
 16 48  1  0
 17 49  1  0
 17 50  1  0
 18 51  1  0
 18 52  1  0
 20 53  1  0
 21 54  1  0
 23 55  1  0
 26 56  1  0
 27 57  1  0
M  END
>  <smiles>  (54) 
O=C(NCC(=O)N1CCCCC1C1CCCCC1)c1ccc2cc(Cl)ccc2n1

>  <score_type>  (54) 
oracle

>  <origin>  (54) 
autodockgpu

>  <m_score__min__energy>  (54) 
-9.1899999999999995

>  <m_primary>  (54) 
energy

>  <rmsd>  (54) 
1.5001316567098812

>  <m_score__min__rmsd>  (54) 
1.5001316567098812

>  <meeko>  (54) 
{"free_energy": -8.39, "intermolecular_energy": -9.88, "internal_energy": -1.54, "cluster_size": 37, "cluster_id": 1, "rank_in_cluster": 27}

>  <energy>  (54) 
-9.16

>  <cluster_rmsd>  (54) 
0.13

>  <cluster>  (54) 
1

$$$$

     RDKit          3D

 57 60  0  0  0  0  0  0  0  0999 V2000
  140.9370   72.5730  221.0540 O   0  0  0  0  0  0  0  0  0  0  0  0
  140.1040   72.7150  222.0090 C   0  0  0  0  0  0  0  0  0  0  0  0
  139.1390   73.7810  221.9970 N   0  0  0  0  0  0  0  0  0  0  0  0
  139.1790   74.6700  220.8350 C   0  0  0  0  0  0  0  0  0  0  0  0
  140.0500   75.8420  221.0980 C   0  0  0  0  0  0  0  0  0  0  0  0
  141.2470   75.8590  220.7050 O   0  0  0  0  0  0  0  0  0  0  0  0
  139.5870   76.9850  221.7930 N   0  0  0  0  0  0  0  0  0  0  0  0
  138.4450   76.8780  222.7200 C   0  0  0  0  0  0  0  0  0  0  0  0
  137.4440   77.9660  222.4500 C   0  0  0  0  0  0  0  0  0  0  0  0
  137.7290   78.6020  221.1110 C   0  0  0  0  0  0  0  0  0  0  0  0
  139.1130   79.2080  221.0630 C   0  0  0  0  0  0  0  0  0  0  0  0
  140.1570   78.3090  221.6660 C   0  0  1  0  0  0  0  0  0  0  0  0
  140.6790   78.8200  222.9830 C   0  0  0  0  0  0  0  0  0  0  0  0
  142.1620   79.0860  222.8470 C   0  0  0  0  0  0  0  0  0  0  0  0
  142.6340   80.1170  223.8550 C   0  0  0  0  0  0  0  0  0  0  0  0
  142.0390   81.4800  223.5780 C   0  0  0  0  0  0  0  0  0  0  0  0
  140.7520   81.2480  222.7850 C   0  0  0  0  0  0  0  0  0  0  0  0
  140.0590   80.0790  223.4540 C   0  0  0  0  0  0  0  0  0  0  0  0
  140.1140   71.7940  223.1390 C   0  0  0  0  0  0  0  0  0  0  0  0
  139.5980   70.5200  222.9760 C   0  0  0  0  0  0  0  0  0  0  0  0
  139.5650   69.5830  223.9820 C   0  0  0  0  0  0  0  0  0  0  0  0
  140.0700   69.9380  225.2020 C   0  0  0  0  0  0  0  0  0  0  0  0
  140.0360   68.9920  226.2150 C   0  0  0  0  0  0  0  0  0  0  0  0
  140.5490   69.3670  227.4370 C   0  0  0  0  0  0  0  0  0  0  0  0
  140.5260   68.2050  228.7440 Cl  0  0  0  0  0  0  0  0  0  0  0  0
  141.0730   70.6350  227.6300 C   0  0  0  0  0  0  0  0  0  0  0  0
  141.0880   71.5520  226.5940 C   0  0  0  0  0  0  0  0  0  0  0  0
  140.5800   71.1970  225.3660 C   0  0  0  0  0  0  0  0  0  0  0  0
  140.5980   72.1010  224.3480 N   0  0  0  0  0  0  0  0  0  0  0  0
  138.4550   73.9000  222.7760 H   0  0  0  0  0  0  0  0  0  0  0  0
  139.5720   74.1155  219.9701 H   0  0  0  0  0  0  0  0  0  0  0  0
  138.1593   75.0276  220.6294 H   0  0  0  0  0  0  0  0  0  0  0  0
  137.9608   75.8994  222.5864 H   0  0  0  0  0  0  0  0  0  0  0  0
  138.8132   76.9814  223.7514 H   0  0  0  0  0  0  0  0  0  0  0  0
  136.4312   77.5368  222.4423 H   0  0  0  0  0  0  0  0  0  0  0  0
  137.5166   78.7301  223.2379 H   0  0  0  0  0  0  0  0  0  0  0  0
  137.6487   77.8342  220.3274 H   0  0  0  0  0  0  0  0  0  0  0  0
  136.9965   79.4069  220.9509 H   0  0  0  0  0  0  0  0  0  0  0  0
  139.3774   79.4007  220.0128 H   0  0  0  0  0  0  0  0  0  0  0  0
  139.0916   80.1369  221.6518 H   0  0  0  0  0  0  0  0  0  0  0  0
  141.0338   78.2828  221.0023 H   0  0  0  0  0  0  0  0  0  0  0  0
  140.4347   78.0388  223.7178 H   0  0  0  0  0  0  0  0  0  0  0  0
  142.7107   78.1470  223.0118 H   0  0  0  0  0  0  0  0  0  0  0  0
  142.3524   79.4771  221.8367 H   0  0  0  0  0  0  0  0  0  0  0  0
  142.3335   79.7945  224.8628 H   0  0  0  0  0  0  0  0  0  0  0  0
  143.7284   80.1973  223.7781 H   0  0  0  0  0  0  0  0  0  0  0  0
  141.8134   81.9940  224.5240 H   0  0  0  0  0  0  0  0  0  0  0  0
  142.7421   82.1100  223.0134 H   0  0  0  0  0  0  0  0  0  0  0  0
  140.1136   82.1431  222.8208 H   0  0  0  0  0  0  0  0  0  0  0  0
  140.9617   81.0413  221.7251 H   0  0  0  0  0  0  0  0  0  0  0  0
  140.1701   80.1594  224.5454 H   0  0  0  0  0  0  0  0  0  0  0  0
  138.9889   80.0851  223.1995 H   0  0  0  0  0  0  0  0  0  0  0  0
  139.1936   70.2428  221.9913 H   0  0  0  0  0  0  0  0  0  0  0  0
  139.1459   68.5805  223.8108 H   0  0  0  0  0  0  0  0  0  0  0  0
  139.6184   67.9878  226.0503 H   0  0  0  0  0  0  0  0  0  0  0  0
  141.4797   70.9145  228.6131 H   0  0  0  0  0  0  0  0  0  0  0  0
  141.5034   72.5583  226.7513 H   0  0  0  0  0  0  0  0  0  0  0  0
  1  2  2  0
  2  3  1  0
  3  4  1  0
  4  5  1  0
  5  6  2  0
  5  7  1  0
  7  8  1  0
  8  9  1  0
  9 10  1  0
 10 11  1  0
 11 12  1  0
 12 13  1  0
 13 14  1  0
 14 15  1  0
 15 16  1  0
 16 17  1  0
 17 18  1  0
  2 19  1  0
 19 20  2  0
 20 21  1  0
 21 22  2  0
 22 23  1  0
 23 24  2  0
 24 25  1  0
 24 26  1  0
 26 27  2  0
 27 28  1  0
 28 29  2  0
 12  7  1  0
 18 13  1  0
 29 19  1  0
 28 22  1  0
  3 30  1  0
  4 31  1  0
  4 32  1  0
  8 33  1  0
  8 34  1  0
  9 35  1  0
  9 36  1  0
 10 37  1  0
 10 38  1  0
 11 39  1  0
 11 40  1  0
 12 41  1  6
 13 42  1  0
 14 43  1  0
 14 44  1  0
 15 45  1  0
 15 46  1  0
 16 47  1  0
 16 48  1  0
 17 49  1  0
 17 50  1  0
 18 51  1  0
 18 52  1  0
 20 53  1  0
 21 54  1  0
 23 55  1  0
 26 56  1  0
 27 57  1  0
M  END
>  <smiles>  (55) 
O=C(NCC(=O)N1CCCCC1C1CCCCC1)c1ccc2cc(Cl)ccc2n1

>  <score_type>  (55) 
oracle

>  <origin>  (55) 
autodockgpu

>  <m_score__min__energy>  (55) 
-9.1899999999999995

>  <m_primary>  (55) 
energy

>  <rmsd>  (55) 
2.9048984729065594

>  <m_score__min__rmsd>  (55) 
2.9048984729065594

>  <meeko>  (55) 
{"free_energy": -9.02, "intermolecular_energy": -10.51, "internal_energy": -1.36, "cluster_size": 37, "cluster_id": 1, "rank_in_cluster": 6}

>  <energy>  (55) 
-9.03

>  <cluster_rmsd>  (55) 
0.16

>  <cluster>  (55) 
1

$$$$

     RDKit          3D

 57 60  0  0  0  0  0  0  0  0999 V2000
  140.0010   72.2370  220.8470 O   0  0  0  0  0  0  0  0  0  0  0  0
  139.7990   72.6440  222.0380 C   0  0  0  0  0  0  0  0  0  0  0  0
  139.4530   74.0130  222.3040 N   0  0  0  0  0  0  0  0  0  0  0  0
  139.3510   74.8890  221.1360 C   0  0  0  0  0  0  0  0  0  0  0  0
  139.1440   76.2980  221.5480 C   0  0  0  0  0  0  0  0  0  0  0  0
  138.3180   76.5920  222.4530 O   0  0  0  0  0  0  0  0  0  0  0  0
  139.8520   77.3700  220.9540 N   0  0  0  0  0  0  0  0  0  0  0  0
  139.3440   78.0040  219.7230 C   0  0  0  0  0  0  0  0  0  0  0  0
  140.4400   78.1310  218.7050 C   0  0  0  0  0  0  0  0  0  0  0  0
  141.6110   77.2650  219.1030 C   0  0  0  0  0  0  0  0  0  0  0  0
  142.1670   77.6620  220.4510 C   0  0  0  0  0  0  0  0  0  0  0  0
  141.0880   77.9200  221.4670 C   0  0  1  0  0  0  0  0  0  0  0  0
  140.9480   79.3790  221.8130 C   0  0  0  0  0  0  0  0  0  0  0  0
  140.5820   79.4970  223.2760 C   0  0  0  0  0  0  0  0  0  0  0  0
  140.9950   80.8420  223.8440 C   0  0  0  0  0  0  0  0  0  0  0  0
  142.5000   80.9930  223.8780 C   0  0  0  0  0  0  0  0  0  0  0  0
  143.0650   80.0400  222.8240 C   0  0  0  0  0  0  0  0  0  0  0  0
  142.1710   80.1890  221.6110 C   0  0  0  0  0  0  0  0  0  0  0  0
  139.9160   71.7210  223.1600 C   0  0  0  0  0  0  0  0  0  0  0  0
  139.5070   70.4080  223.0000 C   0  0  0  0  0  0  0  0  0  0  0  0
  139.5790   69.4670  224.0000 C   0  0  0  0  0  0  0  0  0  0  0  0
  140.0820   69.8570  225.2110 C   0  0  0  0  0  0  0  0  0  0  0  0
  140.1530   68.9070  226.2170 C   0  0  0  0  0  0  0  0  0  0  0  0
  140.6620   69.3180  227.4300 C   0  0  0  0  0  0  0  0  0  0  0  0
  140.7700   68.1510  228.7280 Cl  0  0  0  0  0  0  0  0  0  0  0  0
  141.0790   70.6260  227.6190 C   0  0  0  0  0  0  0  0  0  0  0  0
  140.9910   71.5450  226.5900 C   0  0  0  0  0  0  0  0  0  0  0  0
  140.4860   71.1540  225.3710 C   0  0  0  0  0  0  0  0  0  0  0  0
  140.4010   72.0620  224.3600 N   0  0  0  0  0  0  0  0  0  0  0  0
  139.2860   74.3500  223.2780 H   0  0  0  0  0  0  0  0  0  0  0  0
  140.2793   74.8177  220.5502 H   0  0  0  0  0  0  0  0  0  0  0  0
  138.4895   74.5695  220.5312 H   0  0  0  0  0  0  0  0  0  0  0  0
  138.5332   77.3880  219.3068 H   0  0  0  0  0  0  0  0  0  0  0  0
  138.9695   79.0086  219.9692 H   0  0  0  0  0  0  0  0  0  0  0  0
  140.0648   77.8087  217.7225 H   0  0  0  0  0  0  0  0  0  0  0  0
  140.7660   79.1802  218.6515 H   0  0  0  0  0  0  0  0  0  0  0  0
  141.2801   76.2169  219.1485 H   0  0  0  0  0  0  0  0  0  0  0  0
  142.4047   77.3955  218.3527 H   0  0  0  0  0  0  0  0  0  0  0  0
  142.8115   76.8503  220.8195 H   0  0  0  0  0  0  0  0  0  0  0  0
  142.7303   78.5974  220.3174 H   0  0  0  0  0  0  0  0  0  0  0  0
  141.3596   77.4272  222.4122 H   0  0  0  0  0  0  0  0  0  0  0  0
  140.1790   79.7695  221.1303 H   0  0  0  0  0  0  0  0  0  0  0  0
  139.4932   79.3827  223.3827 H   0  0  0  0  0  0  0  0  0  0  0  0
  141.1137   78.7095  223.8302 H   0  0  0  0  0  0  0  0  0  0  0  0
  140.5701   81.6400  223.2173 H   0  0  0  0  0  0  0  0  0  0  0  0
  140.6186   80.9105  224.8753 H   0  0  0  0  0  0  0  0  0  0  0  0
  142.7818   82.0295  223.6409 H   0  0  0  0  0  0  0  0  0  0  0  0
  142.8973   80.7569  224.8762 H   0  0  0  0  0  0  0  0  0  0  0  0
  144.0998   80.3162  222.5733 H   0  0  0  0  0  0  0  0  0  0  0  0
  143.0854   79.0017  223.1866 H   0  0  0  0  0  0  0  0  0  0  0  0
  141.8963   81.2464  221.4826 H   0  0  0  0  0  0  0  0  0  0  0  0
  142.7024   79.8431  220.7121 H   0  0  0  0  0  0  0  0  0  0  0  0
  139.1040   70.1021  222.0233 H   0  0  0  0  0  0  0  0  0  0  0  0
  139.2428   68.4333  223.8316 H   0  0  0  0  0  0  0  0  0  0  0  0
  139.8183   67.8718  226.0549 H   0  0  0  0  0  0  0  0  0  0  0  0
  141.4827   70.9351  228.5944 H   0  0  0  0  0  0  0  0  0  0  0  0
  141.3226   72.5824  226.7446 H   0  0  0  0  0  0  0  0  0  0  0  0
  1  2  2  0
  2  3  1  0
  3  4  1  0
  4  5  1  0
  5  6  2  0
  5  7  1  0
  7  8  1  0
  8  9  1  0
  9 10  1  0
 10 11  1  0
 11 12  1  0
 12 13  1  0
 13 14  1  0
 14 15  1  0
 15 16  1  0
 16 17  1  0
 17 18  1  0
  2 19  1  0
 19 20  2  0
 20 21  1  0
 21 22  2  0
 22 23  1  0
 23 24  2  0
 24 25  1  0
 24 26  1  0
 26 27  2  0
 27 28  1  0
 28 29  2  0
 12  7  1  0
 18 13  1  0
 29 19  1  0
 28 22  1  0
  3 30  1  0
  4 31  1  0
  4 32  1  0
  8 33  1  0
  8 34  1  0
  9 35  1  0
  9 36  1  0
 10 37  1  0
 10 38  1  0
 11 39  1  0
 11 40  1  0
 12 41  1  1
 13 42  1  0
 14 43  1  0
 14 44  1  0
 15 45  1  0
 15 46  1  0
 16 47  1  0
 16 48  1  0
 17 49  1  0
 17 50  1  0
 18 51  1  0
 18 52  1  0
 20 53  1  0
 21 54  1  0
 23 55  1  0
 26 56  1  0
 27 57  1  0
M  END
>  <smiles>  (56) 
O=C(NCC(=O)N1CCCCC1C1CCCCC1)c1ccc2cc(Cl)ccc2n1

>  <score_type>  (56) 
oracle

>  <origin>  (56) 
autodockgpu

>  <m_score__min__energy>  (56) 
-9.1899999999999995

>  <m_primary>  (56) 
energy

>  <rmsd>  (56) 
2.0410218068220494

>  <m_score__min__rmsd>  (56) 
2.0410218068220494

>  <meeko>  (56) 
{"free_energy": -8.91, "intermolecular_energy": -10.4, "internal_energy": -1.62, "cluster_size": 37, "cluster_id": 1, "rank_in_cluster": 12}

>  <energy>  (56) 
-9.02

>  <cluster_rmsd>  (56) 
0.5

>  <cluster>  (56) 
1

$$$$

     RDKit          3D

 57 60  0  0  0  0  0  0  0  0999 V2000
  139.8460   72.0190  220.7580 O   0  0  0  0  0  0  0  0  0  0  0  0
  139.7700   72.4800  221.9440 C   0  0  0  0  0  0  0  0  0  0  0  0
  139.5650   73.8830  222.1820 N   0  0  0  0  0  0  0  0  0  0  0  0
  139.4500   74.7260  220.9910 C   0  0  0  0  0  0  0  0  0  0  0  0
  140.6580   75.5710  220.8230 C   0  0  0  0  0  0  0  0  0  0  0  0
  141.8060   75.1120  221.0650 O   0  0  0  0  0  0  0  0  0  0  0  0
  140.5830   76.9170  220.3900 N   0  0  0  0  0  0  0  0  0  0  0  0
  139.4220   77.3810  219.6080 C   0  0  0  0  0  0  0  0  0  0  0  0
  139.8750   78.1450  218.3960 C   0  0  0  0  0  0  0  0  0  0  0  0
  141.3460   77.9000  218.1590 C   0  0  0  0  0  0  0  0  0  0  0  0
  142.1840   78.3390  219.3370 C   0  0  0  0  0  0  0  0  0  0  0  0
  141.5910   77.9190  220.6540 C   0  0  1  0  0  0  0  0  0  0  0  0
  141.0330   79.0780  221.4400 C   0  0  0  0  0  0  0  0  0  0  0  0
  140.8630   78.6480  222.8800 C   0  0  0  0  0  0  0  0  0  0  0  0
  140.8910   79.8390  223.8200 C   0  0  0  0  0  0  0  0  0  0  0  0
  142.2530   80.4980  223.8430 C   0  0  0  0  0  0  0  0  0  0  0  0
  142.9400   80.1390  222.5250 C   0  0  0  0  0  0  0  0  0  0  0  0
  141.8820   80.2900  221.4520 C   0  0  0  0  0  0  0  0  0  0  0  0
  139.8920   71.5870  223.0900 C   0  0  0  0  0  0  0  0  0  0  0  0
  139.4870   70.2690  222.9640 C   0  0  0  0  0  0  0  0  0  0  0  0
  139.5630   69.3550  223.9880 C   0  0  0  0  0  0  0  0  0  0  0  0
  140.0670   69.7770  225.1870 C   0  0  0  0  0  0  0  0  0  0  0  0
  140.1430   68.8540  226.2180 C   0  0  0  0  0  0  0  0  0  0  0  0
  140.6530   69.2980  227.4180 C   0  0  0  0  0  0  0  0  0  0  0  0
  140.7670   68.1650  228.7460 Cl  0  0  0  0  0  0  0  0  0  0  0  0
  141.0670   70.6110  227.5730 C   0  0  0  0  0  0  0  0  0  0  0  0
  140.9740   71.5030  226.5200 C   0  0  0  0  0  0  0  0  0  0  0  0
  140.4680   71.0790  225.3130 C   0  0  0  0  0  0  0  0  0  0  0  0
  140.3790   71.9600  224.2790 N   0  0  0  0  0  0  0  0  0  0  0  0
  139.5030   74.2640  223.1520 H   0  0  0  0  0  0  0  0  0  0  0  0
  139.3331   74.0843  220.1053 H   0  0  0  0  0  0  0  0  0  0  0  0
  138.5749   75.3823  221.1075 H   0  0  0  0  0  0  0  0  0  0  0  0
  138.8306   76.5108  219.2871 H   0  0  0  0  0  0  0  0  0  0  0  0
  138.8106   78.0436  220.2382 H   0  0  0  0  0  0  0  0  0  0  0  0
  139.3027   77.8105  217.5182 H   0  0  0  0  0  0  0  0  0  0  0  0
  139.7069   79.2197  218.5596 H   0  0  0  0  0  0  0  0  0  0  0  0
  141.5053   76.8249  217.9895 H   0  0  0  0  0  0  0  0  0  0  0  0
  141.6539   78.4880  217.2818 H   0  0  0  0  0  0  0  0  0  0  0  0
  143.1854   77.8937  219.2430 H   0  0  0  0  0  0  0  0  0  0  0  0
  142.2274   79.4381  219.3253 H   0  0  0  0  0  0  0  0  0  0  0  0
  142.3862   77.4998  221.2880 H   0  0  0  0  0  0  0  0  0  0  0  0
  140.0890   79.3438  220.9418 H   0  0  0  0  0  0  0  0  0  0  0  0
  139.8987   78.1298  222.9874 H   0  0  0  0  0  0  0  0  0  0  0  0
  141.6964   77.9798  223.1426 H   0  0  0  0  0  0  0  0  0  0  0  0
  140.1440   80.5745  223.4868 H   0  0  0  0  0  0  0  0  0  0  0  0
  140.6643   79.4816  224.8353 H   0  0  0  0  0  0  0  0  0  0  0  0
  142.1442   81.5893  223.9283 H   0  0  0  0  0  0  0  0  0  0  0  0
  142.8445   80.1517  224.7034 H   0  0  0  0  0  0  0  0  0  0  0  0
  143.7803   80.8223  222.3328 H   0  0  0  0  0  0  0  0  0  0  0  0
  143.3500   79.1185  222.5477 H   0  0  0  0  0  0  0  0  0  0  0  0
  141.2619   81.1728  221.6669 H   0  0  0  0  0  0  0  0  0  0  0  0
  142.3627   80.4173  220.4708 H   0  0  0  0  0  0  0  0  0  0  0  0
  139.0842   69.9366  221.9959 H   0  0  0  0  0  0  0  0  0  0  0  0
  139.2288   68.3165  223.8472 H   0  0  0  0  0  0  0  0  0  0  0  0
  139.8111   67.8139  226.0841 H   0  0  0  0  0  0  0  0  0  0  0  0
  141.4721   70.9461  228.5392 H   0  0  0  0  0  0  0  0  0  0  0  0
  141.3026   72.5451  226.6469 H   0  0  0  0  0  0  0  0  0  0  0  0
  1  2  2  0
  2  3  1  0
  3  4  1  0
  4  5  1  0
  5  6  2  0
  5  7  1  0
  7  8  1  0
  8  9  1  0
  9 10  1  0
 10 11  1  0
 11 12  1  0
 12 13  1  0
 13 14  1  0
 14 15  1  0
 15 16  1  0
 16 17  1  0
 17 18  1  0
  2 19  1  0
 19 20  2  0
 20 21  1  0
 21 22  2  0
 22 23  1  0
 23 24  2  0
 24 25  1  0
 24 26  1  0
 26 27  2  0
 27 28  1  0
 28 29  2  0
 12  7  1  0
 18 13  1  0
 29 19  1  0
 28 22  1  0
  3 30  1  0
  4 31  1  0
  4 32  1  0
  8 33  1  0
  8 34  1  0
  9 35  1  0
  9 36  1  0
 10 37  1  0
 10 38  1  0
 11 39  1  0
 11 40  1  0
 12 41  1  1
 13 42  1  0
 14 43  1  0
 14 44  1  0
 15 45  1  0
 15 46  1  0
 16 47  1  0
 16 48  1  0
 17 49  1  0
 17 50  1  0
 18 51  1  0
 18 52  1  0
 20 53  1  0
 21 54  1  0
 23 55  1  0
 26 56  1  0
 27 57  1  0
M  END
>  <smiles>  (57) 
O=C(NCC(=O)N1CCCCC1C1CCCCC1)c1ccc2cc(Cl)ccc2n1

>  <score_type>  (57) 
oracle

>  <origin>  (57) 
autodockgpu

>  <m_score__min__energy>  (57) 
-9.1899999999999995

>  <m_primary>  (57) 
energy

>  <rmsd>  (57) 
1.7281135621114188

>  <m_score__min__rmsd>  (57) 
1.7281135621114188

>  <meeko>  (57) 
{"free_energy": -8.76, "intermolecular_energy": -10.25, "internal_energy": -1.52, "cluster_size": 37, "cluster_id": 1, "rank_in_cluster": 19}

>  <energy>  (57) 
-8.98

>  <cluster_rmsd>  (57) 
0.35

>  <cluster>  (57) 
1

$$$$

     RDKit          3D

 57 60  0  0  0  0  0  0  0  0999 V2000
  140.1360   72.5350  220.8310 O   0  0  0  0  0  0  0  0  0  0  0  0
  139.9140   72.9150  222.0280 C   0  0  0  0  0  0  0  0  0  0  0  0
  139.5840   74.2830  222.3210 N   0  0  0  0  0  0  0  0  0  0  0  0
  139.5230   75.1890  221.1740 C   0  0  0  0  0  0  0  0  0  0  0  0
  140.6810   76.1160  221.1700 C   0  0  0  0  0  0  0  0  0  0  0  0
  141.8450   75.6950  220.9300 O   0  0  0  0  0  0  0  0  0  0  0  0
  140.5420   77.5000  221.4330 N   0  0  0  0  0  0  0  0  0  0  0  0
  141.0690   78.4930  220.4790 C   0  0  0  0  0  0  0  0  0  0  0  0
  141.8770   79.5360  221.1980 C   0  0  0  0  0  0  0  0  0  0  0  0
  142.1990   79.0600  222.5940 C   0  0  0  0  0  0  0  0  0  0  0  0
  140.9470   78.7940  223.3970 C   0  0  0  0  0  0  0  0  0  0  0  0
  139.9040   78.0500  222.6100 C   0  0  1  0  0  0  0  0  0  0  0  0
  138.7190   78.9090  222.2510 C   0  0  0  0  0  0  0  0  0  0  0  0
  137.4920   78.3490  222.9350 C   0  0  0  0  0  0  0  0  0  0  0  0
  136.4320   79.4170  223.1320 C   0  0  0  0  0  0  0  0  0  0  0  0
  136.8870   80.4790  224.1110 C   0  0  0  0  0  0  0  0  0  0  0  0
  138.4160   80.4530  224.1120 C   0  0  0  0  0  0  0  0  0  0  0  0
  138.8290   80.3260  222.6610 C   0  0  0  0  0  0  0  0  0  0  0  0
  139.9890   71.9620  223.1280 C   0  0  0  0  0  0  0  0  0  0  0  0
  139.5400   70.6680  222.9320 C   0  0  0  0  0  0  0  0  0  0  0  0
  139.5710   69.7010  223.9100 C   0  0  0  0  0  0  0  0  0  0  0  0
  140.0740   70.0450  225.1340 C   0  0  0  0  0  0  0  0  0  0  0  0
  140.1060   69.0690  226.1170 C   0  0  0  0  0  0  0  0  0  0  0  0
  140.6150   69.4340  227.3440 C   0  0  0  0  0  0  0  0  0  0  0  0
  140.6720   68.2330  228.6150 Cl  0  0  0  0  0  0  0  0  0  0  0  0
  141.0730   70.7220  227.5690 C   0  0  0  0  0  0  0  0  0  0  0  0
  141.0240   71.6690  226.5620 C   0  0  0  0  0  0  0  0  0  0  0  0
  140.5190   71.3240  225.3300 C   0  0  0  0  0  0  0  0  0  0  0  0
  140.4730   72.2580  224.3400 N   0  0  0  0  0  0  0  0  0  0  0  0
  139.4010   74.5970  223.3000 H   0  0  0  0  0  0  0  0  0  0  0  0
  139.5320   74.5973  220.2467 H   0  0  0  0  0  0  0  0  0  0  0  0
  138.5986   75.7814  221.2426 H   0  0  0  0  0  0  0  0  0  0  0  0
  141.7082   77.9839  219.7427 H   0  0  0  0  0  0  0  0  0  0  0  0
  140.2244   78.9835  219.9730 H   0  0  0  0  0  0  0  0  0  0  0  0
  142.8128   79.7161  220.6485 H   0  0  0  0  0  0  0  0  0  0  0  0
  141.2967   80.4686  221.2568 H   0  0  0  0  0  0  0  0  0  0  0  0
  142.7840   78.1308  222.5276 H   0  0  0  0  0  0  0  0  0  0  0  0
  142.7706   79.8505  223.1023 H   0  0  0  0  0  0  0  0  0  0  0  0
  141.2152   78.1960  224.2804 H   0  0  0  0  0  0  0  0  0  0  0  0
  140.5197   79.7670  223.6810 H   0  0  0  0  0  0  0  0  0  0  0  0
  139.4932   77.2419  223.2331 H   0  0  0  0  0  0  0  0  0  0  0  0
  138.6630   78.8890  221.1526 H   0  0  0  0  0  0  0  0  0  0  0  0
  137.0750   77.5407  222.3164 H   0  0  0  0  0  0  0  0  0  0  0  0
  137.7895   77.9699  223.9238 H   0  0  0  0  0  0  0  0  0  0  0  0
  136.2194   79.8922  222.1630 H   0  0  0  0  0  0  0  0  0  0  0  0
  135.5304   78.9364  223.5397 H   0  0  0  0  0  0  0  0  0  0  0  0
  136.5253   81.4677  223.7923 H   0  0  0  0  0  0  0  0  0  0  0  0
  136.4883   80.2847  225.1176 H   0  0  0  0  0  0  0  0  0  0  0  0
  138.8143   81.3832  224.5433 H   0  0  0  0  0  0  0  0  0  0  0  0
  138.8057   79.6214  224.7174 H   0  0  0  0  0  0  0  0  0  0  0  0
  138.1688   80.9435  222.0343 H   0  0  0  0  0  0  0  0  0  0  0  0
  139.8671   80.6686  222.5388 H   0  0  0  0  0  0  0  0  0  0  0  0
  139.1379   70.3988  221.9442 H   0  0  0  0  0  0  0  0  0  0  0  0
  139.2028   68.6833  223.7135 H   0  0  0  0  0  0  0  0  0  0  0  0
  139.7415   68.0488  225.9263 H   0  0  0  0  0  0  0  0  0  0  0  0
  141.4783   70.9933  228.5550 H   0  0  0  0  0  0  0  0  0  0  0  0
  141.3865   72.6913  226.7452 H   0  0  0  0  0  0  0  0  0  0  0  0
  1  2  2  0
  2  3  1  0
  3  4  1  0
  4  5  1  0
  5  6  2  0
  5  7  1  0
  7  8  1  0
  8  9  1  0
  9 10  1  0
 10 11  1  0
 11 12  1  0
 12 13  1  0
 13 14  1  0
 14 15  1  0
 15 16  1  0
 16 17  1  0
 17 18  1  0
  2 19  1  0
 19 20  2  0
 20 21  1  0
 21 22  2  0
 22 23  1  0
 23 24  2  0
 24 25  1  0
 24 26  1  0
 26 27  2  0
 27 28  1  0
 28 29  2  0
 12  7  1  0
 18 13  1  0
 29 19  1  0
 28 22  1  0
  3 30  1  0
  4 31  1  0
  4 32  1  0
  8 33  1  0
  8 34  1  0
  9 35  1  0
  9 36  1  0
 10 37  1  0
 10 38  1  0
 11 39  1  0
 11 40  1  0
 12 41  1  1
 13 42  1  0
 14 43  1  0
 14 44  1  0
 15 45  1  0
 15 46  1  0
 16 47  1  0
 16 48  1  0
 17 49  1  0
 17 50  1  0
 18 51  1  0
 18 52  1  0
 20 53  1  0
 21 54  1  0
 23 55  1  0
 26 56  1  0
 27 57  1  0
M  END
>  <smiles>  (58) 
O=C(NCC(=O)N1CCCCC1C1CCCCC1)c1ccc2cc(Cl)ccc2n1

>  <score_type>  (58) 
oracle

>  <origin>  (58) 
autodockgpu

>  <m_score__min__energy>  (58) 
-9.1899999999999995

>  <m_primary>  (58) 
energy

>  <rmsd>  (58) 
3.1691299171889127

>  <m_score__min__rmsd>  (58) 
3.1691299171889127

>  <meeko>  (58) 
{"free_energy": -8.39, "intermolecular_energy": -9.89, "internal_energy": -1.44, "cluster_size": 37, "cluster_id": 1, "rank_in_cluster": 26}

>  <energy>  (58) 
-8.97

>  <cluster_rmsd>  (58) 
0.49

>  <cluster>  (58) 
1

$$$$

     RDKit          3D

 57 60  0  0  0  0  0  0  0  0999 V2000
  139.6490   74.4860  221.9380 O   0  0  0  0  0  0  0  0  0  0  0  0
  140.1890   73.3410  221.7810 C   0  0  0  0  0  0  0  0  0  0  0  0
  140.9260   73.0280  220.5870 N   0  0  0  0  0  0  0  0  0  0  0  0
  141.0110   74.0930  219.5870 C   0  0  0  0  0  0  0  0  0  0  0  0
  141.6730   75.2950  220.1490 C   0  0  0  0  0  0  0  0  0  0  0  0
  142.7450   75.1960  220.8040 O   0  0  0  0  0  0  0  0  0  0  0  0
  141.1420   76.5970  219.9820 N   0  0  0  0  0  0  0  0  0  0  0  0
  139.7990   76.7810  219.4000 C   0  0  0  0  0  0  0  0  0  0  0  0
  139.8330   77.8240  218.3190 C   0  0  0  0  0  0  0  0  0  0  0  0
  141.2630   78.0980  217.9180 C   0  0  0  0  0  0  0  0  0  0  0  0
  142.0860   78.5960  219.0840 C   0  0  0  0  0  0  0  0  0  0  0  0
  141.8320   77.8160  220.3440 C   0  0  1  0  0  0  0  0  0  0  0  0
  141.0680   78.6040  221.3760 C   0  0  0  0  0  0  0  0  0  0  0  0
  141.3680   78.0300  222.7430 C   0  0  0  0  0  0  0  0  0  0  0  0
  141.1570   79.0630  223.8350 C   0  0  0  0  0  0  0  0  0  0  0  0
  142.1590   80.1920  223.7350 C   0  0  0  0  0  0  0  0  0  0  0  0
  142.6390   80.2300  222.2840 C   0  0  0  0  0  0  0  0  0  0  0  0
  141.4010   80.0450  221.4330 C   0  0  0  0  0  0  0  0  0  0  0  0
  140.0700   72.3230  222.8170 C   0  0  0  0  0  0  0  0  0  0  0  0
  139.2700   71.2170  222.5870 C   0  0  0  0  0  0  0  0  0  0  0  0
  139.0960   70.2060  223.5020 C   0  0  0  0  0  0  0  0  0  0  0  0
  139.7510   70.3080  224.6990 C   0  0  0  0  0  0  0  0  0  0  0  0
  139.5750   69.2880  225.6200 C   0  0  0  0  0  0  0  0  0  0  0  0
  140.2420   69.4070  226.8200 C   0  0  0  0  0  0  0  0  0  0  0  0
  140.0470   68.1430  228.0130 Cl  0  0  0  0  0  0  0  0  0  0  0  0
  141.0500   70.5030  227.0790 C   0  0  0  0  0  0  0  0  0  0  0  0
  141.2000   71.5010  226.1330 C   0  0  0  0  0  0  0  0  0  0  0  0
  140.5420   71.4000  224.9290 C   0  0  0  0  0  0  0  0  0  0  0  0
  140.6920   72.3840  223.9990 N   0  0  0  0  0  0  0  0  0  0  0  0
  141.3710   72.0930  220.4560 H   0  0  0  0  0  0  0  0  0  0  0  0
  141.5913   73.7321  218.7250 H   0  0  0  0  0  0  0  0  0  0  0  0
  139.9916   74.3660  219.2768 H   0  0  0  0  0  0  0  0  0  0  0  0
  139.4559   75.8274  218.9724 H   0  0  0  0  0  0  0  0  0  0  0  0
  139.1101   77.1110  220.1915 H   0  0  0  0  0  0  0  0  0  0  0  0
  139.2714   77.4626  217.4449 H   0  0  0  0  0  0  0  0  0  0  0  0
  139.3768   78.7518  218.6947 H   0  0  0  0  0  0  0  0  0  0  0  0
  141.7107   77.1682  217.5372 H   0  0  0  0  0  0  0  0  0  0  0  0
  141.2579   78.8795  217.1439 H   0  0  0  0  0  0  0  0  0  0  0  0
  143.1517   78.5107  218.8253 H   0  0  0  0  0  0  0  0  0  0  0  0
  141.7978   79.6404  219.2741 H   0  0  0  0  0  0  0  0  0  0  0  0
  142.7951   77.5806  220.8204 H   0  0  0  0  0  0  0  0  0  0  0  0
  140.0106   78.5232  221.0837 H   0  0  0  0  0  0  0  0  0  0  0  0
  140.7016   77.1742  222.9261 H   0  0  0  0  0  0  0  0  0  0  0  0
  142.4217   77.7149  222.7629 H   0  0  0  0  0  0  0  0  0  0  0  0
  140.1421   79.4773  223.7432 H   0  0  0  0  0  0  0  0  0  0  0  0
  141.2927   78.5678  224.8078 H   0  0  0  0  0  0  0  0  0  0  0  0
  141.6815   81.1466  224.0009 H   0  0  0  0  0  0  0  0  0  0  0  0
  143.0010   80.0344  224.4251 H   0  0  0  0  0  0  0  0  0  0  0  0
  143.1141   81.1973  222.0633 H   0  0  0  0  0  0  0  0  0  0  0  0
  143.3866   79.4480  222.0851 H   0  0  0  0  0  0  0  0  0  0  0  0
  140.5617   80.6005  221.8769 H   0  0  0  0  0  0  0  0  0  0  0  0
  141.5873   80.4244  220.4175 H   0  0  0  0  0  0  0  0  0  0  0  0
  138.7466   71.1433  221.6223 H   0  0  0  0  0  0  0  0  0  0  0  0
  138.4512   69.3431  223.2792 H   0  0  0  0  0  0  0  0  0  0  0  0
  138.9319   68.4223  225.4031 H   0  0  0  0  0  0  0  0  0  0  0  0
  141.5751   70.5796  228.0425 H   0  0  0  0  0  0  0  0  0  0  0  0
  141.8413   72.3699  226.3421 H   0  0  0  0  0  0  0  0  0  0  0  0
  1  2  2  0
  2  3  1  0
  3  4  1  0
  4  5  1  0
  5  6  2  0
  5  7  1  0
  7  8  1  0
  8  9  1  0
  9 10  1  0
 10 11  1  0
 11 12  1  0
 12 13  1  0
 13 14  1  0
 14 15  1  0
 15 16  1  0
 16 17  1  0
 17 18  1  0
  2 19  1  0
 19 20  2  0
 20 21  1  0
 21 22  2  0
 22 23  1  0
 23 24  2  0
 24 25  1  0
 24 26  1  0
 26 27  2  0
 27 28  1  0
 28 29  2  0
 12  7  1  0
 18 13  1  0
 29 19  1  0
 28 22  1  0
  3 30  1  0
  4 31  1  0
  4 32  1  0
  8 33  1  0
  8 34  1  0
  9 35  1  0
  9 36  1  0
 10 37  1  0
 10 38  1  0
 11 39  1  0
 11 40  1  0
 12 41  1  1
 13 42  1  0
 14 43  1  0
 14 44  1  0
 15 45  1  0
 15 46  1  0
 16 47  1  0
 16 48  1  0
 17 49  1  0
 17 50  1  0
 18 51  1  0
 18 52  1  0
 20 53  1  0
 21 54  1  0
 23 55  1  0
 26 56  1  0
 27 57  1  0
M  END
>  <smiles>  (59) 
O=C(NCC(=O)N1CCCCC1C1CCCCC1)c1ccc2cc(Cl)ccc2n1

>  <score_type>  (59) 
oracle

>  <origin>  (59) 
autodockgpu

>  <m_score__min__energy>  (59) 
-9.1899999999999995

>  <m_primary>  (59) 
energy

>  <rmsd>  (59) 
2.269933544141338

>  <m_score__min__rmsd>  (59) 
2.269933544141338

>  <meeko>  (59) 
{"free_energy": -7.8, "intermolecular_energy": -9.3, "internal_energy": -1.56, "cluster_size": 37, "cluster_id": 1, "rank_in_cluster": 37}

>  <energy>  (59) 
-8.95

>  <cluster_rmsd>  (59) 
0.35

>  <cluster>  (59) 
1

$$$$

     RDKit          3D

 57 60  0  0  0  0  0  0  0  0999 V2000
  141.2200   72.9980  221.5920 O   0  0  0  0  0  0  0  0  0  0  0  0
  140.2000   72.8500  222.3440 C   0  0  0  0  0  0  0  0  0  0  0  0
  139.0040   73.6180  222.1280 N   0  0  0  0  0  0  0  0  0  0  0  0
  139.0390   74.5600  221.0090 C   0  0  0  0  0  0  0  0  0  0  0  0
  138.9080   75.9570  221.4890 C   0  0  0  0  0  0  0  0  0  0  0  0
  138.1230   76.2460  222.4310 O   0  0  0  0  0  0  0  0  0  0  0  0
  139.6480   77.0230  220.9220 N   0  0  0  0  0  0  0  0  0  0  0  0
  139.1880   77.6650  219.6770 C   0  0  0  0  0  0  0  0  0  0  0  0
  140.3200   77.7830  218.6970 C   0  0  0  0  0  0  0  0  0  0  0  0
  141.4670   76.9040  219.1320 C   0  0  0  0  0  0  0  0  0  0  0  0
  141.9810   77.2910  220.5000 C   0  0  0  0  0  0  0  0  0  0  0  0
  140.8710   77.5580  221.4780 C   0  0  1  0  0  0  0  0  0  0  0  0
  140.7350   79.0190  221.8240 C   0  0  0  0  0  0  0  0  0  0  0  0
  140.4460   79.1410  223.3030 C   0  0  0  0  0  0  0  0  0  0  0  0
  140.8750   80.4930  223.8410 C   0  0  0  0  0  0  0  0  0  0  0  0
  142.3780   80.6600  223.7950 C   0  0  0  0  0  0  0  0  0  0  0  0
  142.8960   79.7060  222.7170 C   0  0  0  0  0  0  0  0  0  0  0  0
  141.9370   79.8390  221.5520 C   0  0  0  0  0  0  0  0  0  0  0  0
  140.2290   71.8940  223.4430 C   0  0  0  0  0  0  0  0  0  0  0  0
  139.7540   70.6110  223.2330 C   0  0  0  0  0  0  0  0  0  0  0  0
  139.7400   69.6410  224.2080 C   0  0  0  0  0  0  0  0  0  0  0  0
  140.2240   69.9710  225.4450 C   0  0  0  0  0  0  0  0  0  0  0  0
  140.2100   68.9920  226.4260 C   0  0  0  0  0  0  0  0  0  0  0  0
  140.7000   69.3420  227.6650 C   0  0  0  0  0  0  0  0  0  0  0  0
  140.7010   68.1380  228.9330 Cl  0  0  0  0  0  0  0  0  0  0  0  0
  141.1820   70.6190  227.9040 C   0  0  0  0  0  0  0  0  0  0  0  0
  141.1790   71.5680  226.8980 C   0  0  0  0  0  0  0  0  0  0  0  0
  140.6930   71.2380  225.6540 C   0  0  0  0  0  0  0  0  0  0  0  0
  140.6920   72.1750  224.6660 N   0  0  0  0  0  0  0  0  0  0  0  0
  138.1680   73.5000  222.7410 H   0  0  0  0  0  0  0  0  0  0  0  0
  139.9949   74.4505  220.4758 H   0  0  0  0  0  0  0  0  0  0  0  0
  138.1967   74.3389  220.3370 H   0  0  0  0  0  0  0  0  0  0  0  0
  138.3856   77.0584  219.2319 H   0  0  0  0  0  0  0  0  0  0  0  0
  138.8151   78.6726  219.9129 H   0  0  0  0  0  0  0  0  0  0  0  0
  139.9753   77.4673  217.7013 H   0  0  0  0  0  0  0  0  0  0  0  0
  140.6587   78.8288  218.6578 H   0  0  0  0  0  0  0  0  0  0  0  0
  141.1237   75.8594  219.1626 H   0  0  0  0  0  0  0  0  0  0  0  0
  142.2873   77.0286  218.4098 H   0  0  0  0  0  0  0  0  0  0  0  0
  142.6033   76.4711  220.8879 H   0  0  0  0  0  0  0  0  0  0  0  0
  142.5593   78.2201  220.3891 H   0  0  0  0  0  0  0  0  0  0  0  0
  141.1046   77.0596  222.4304 H   0  0  0  0  0  0  0  0  0  0  0  0
  139.9268   79.3991  221.1819 H   0  0  0  0  0  0  0  0  0  0  0  0
  139.3656   79.0165  223.4680 H   0  0  0  0  0  0  0  0  0  0  0  0
  141.0140   78.3617  223.8322 H   0  0  0  0  0  0  0  0  0  0  0  0
  140.4094   81.2829  223.2334 H   0  0  0  0  0  0  0  0  0  0  0  0
  140.5533   80.5632  224.8906 H   0  0  0  0  0  0  0  0  0  0  0  0
  142.6360   81.6979  223.5378 H   0  0  0  0  0  0  0  0  0  0  0  0
  142.8303   80.4345  224.7720 H   0  0  0  0  0  0  0  0  0  0  0  0
  143.9132   79.9909  222.4101 H   0  0  0  0  0  0  0  0  0  0  0  0
  142.9461   78.6701  223.0836 H   0  0  0  0  0  0  0  0  0  0  0  0
  141.6456   80.8929  221.4322 H   0  0  0  0  0  0  0  0  0  0  0  0
  142.4230   79.4926  220.6280 H   0  0  0  0  0  0  0  0  0  0  0  0
  139.3680   70.3541  222.2355 H   0  0  0  0  0  0  0  0  0  0  0  0
  139.3524   68.6327  224.0003 H   0  0  0  0  0  0  0  0  0  0  0  0
  139.8251   67.9814  226.2244 H   0  0  0  0  0  0  0  0  0  0  0  0
  141.5694   70.8795  228.9000 H   0  0  0  0  0  0  0  0  0  0  0  0
  141.5629   72.5805  227.0913 H   0  0  0  0  0  0  0  0  0  0  0  0
  1  2  2  0
  2  3  1  0
  3  4  1  0
  4  5  1  0
  5  6  2  0
  5  7  1  0
  7  8  1  0
  8  9  1  0
  9 10  1  0
 10 11  1  0
 11 12  1  0
 12 13  1  0
 13 14  1  0
 14 15  1  0
 15 16  1  0
 16 17  1  0
 17 18  1  0
  2 19  1  0
 19 20  2  0
 20 21  1  0
 21 22  2  0
 22 23  1  0
 23 24  2  0
 24 25  1  0
 24 26  1  0
 26 27  2  0
 27 28  1  0
 28 29  2  0
 12  7  1  0
 18 13  1  0
 29 19  1  0
 28 22  1  0
  3 30  1  0
  4 31  1  0
  4 32  1  0
  8 33  1  0
  8 34  1  0
  9 35  1  0
  9 36  1  0
 10 37  1  0
 10 38  1  0
 11 39  1  0
 11 40  1  0
 12 41  1  1
 13 42  1  0
 14 43  1  0
 14 44  1  0
 15 45  1  0
 15 46  1  0
 16 47  1  0
 16 48  1  0
 17 49  1  0
 17 50  1  0
 18 51  1  0
 18 52  1  0
 20 53  1  0
 21 54  1  0
 23 55  1  0
 26 56  1  0
 27 57  1  0
M  END
>  <smiles>  (60) 
O=C(NCC(=O)N1CCCCC1C1CCCCC1)c1ccc2cc(Cl)ccc2n1

>  <score_type>  (60) 
oracle

>  <origin>  (60) 
autodockgpu

>  <m_score__min__energy>  (60) 
-9.1899999999999995

>  <m_primary>  (60) 
energy

>  <rmsd>  (60) 
1.9760479413725125

>  <m_score__min__rmsd>  (60) 
1.9760479413725125

>  <meeko>  (60) 
{"free_energy": -8.72, "intermolecular_energy": -10.22, "internal_energy": -1.53, "cluster_size": 37, "cluster_id": 1, "rank_in_cluster": 21}

>  <energy>  (60) 
-8.94

>  <cluster_rmsd>  (60) 
0.49

>  <cluster>  (60) 
1

$$$$

     RDKit          3D

 57 60  0  0  0  0  0  0  0  0999 V2000
  141.0230   72.6090  221.0070 O   0  0  0  0  0  0  0  0  0  0  0  0
  140.2140   72.8030  221.9740 C   0  0  0  0  0  0  0  0  0  0  0  0
  139.3170   73.9260  221.9730 N   0  0  0  0  0  0  0  0  0  0  0  0
  139.3960   74.8110  220.8100 C   0  0  0  0  0  0  0  0  0  0  0  0
  140.3260   75.9370  221.0640 C   0  0  0  0  0  0  0  0  0  0  0  0
  141.5150   75.8990  220.6490 O   0  0  0  0  0  0  0  0  0  0  0  0
  139.9330   77.0950  221.7780 N   0  0  0  0  0  0  0  0  0  0  0  0
  138.7870   77.0420  222.7050 C   0  0  0  0  0  0  0  0  0  0  0  0
  137.8530   78.1910  222.4530 C   0  0  0  0  0  0  0  0  0  0  0  0
  138.1740   78.8300  221.1230 C   0  0  0  0  0  0  0  0  0  0  0  0
  139.5920   79.3520  221.0810 C   0  0  0  0  0  0  0  0  0  0  0  0
  140.5810   78.3840  221.6690 C   0  0  1  0  0  0  0  0  0  0  0  0
  141.1340   78.8440  222.9930 C   0  0  0  0  0  0  0  0  0  0  0  0
  142.5380   79.3630  222.7780 C   0  0  0  0  0  0  0  0  0  0  0  0
  142.9320   80.3550  223.8570 C   0  0  0  0  0  0  0  0  0  0  0  0
  142.1080   81.6210  223.7770 C   0  0  0  0  0  0  0  0  0  0  0  0
  140.8070   81.2580  223.0610 C   0  0  0  0  0  0  0  0  0  0  0  0
  140.3690   79.9310  223.6450 C   0  0  0  0  0  0  0  0  0  0  0  0
  140.1840   71.8840  223.1040 C   0  0  0  0  0  0  0  0  0  0  0  0
  139.6340   70.6250  222.9370 C   0  0  0  0  0  0  0  0  0  0  0  0
  139.5610   69.6920  223.9440 C   0  0  0  0  0  0  0  0  0  0  0  0
  140.0620   70.0330  225.1700 C   0  0  0  0  0  0  0  0  0  0  0  0
  139.9890   69.0910  226.1830 C   0  0  0  0  0  0  0  0  0  0  0  0
  140.4980   69.4530  227.4110 C   0  0  0  0  0  0  0  0  0  0  0  0
  140.4250   68.2930  228.7190 Cl  0  0  0  0  0  0  0  0  0  0  0  0
  141.0560   70.7050  227.6080 C   0  0  0  0  0  0  0  0  0  0  0  0
  141.1100   71.6190  226.5710 C   0  0  0  0  0  0  0  0  0  0  0  0
  140.6070   71.2770  225.3370 C   0  0  0  0  0  0  0  0  0  0  0  0
  140.6630   72.1780  224.3180 N   0  0  0  0  0  0  0  0  0  0  0  0
  138.6540   74.0890  222.7630 H   0  0  0  0  0  0  0  0  0  0  0  0
  139.7549   74.2360  219.9437 H   0  0  0  0  0  0  0  0  0  0  0  0
  138.3945   75.2204  220.6114 H   0  0  0  0  0  0  0  0  0  0  0  0
  138.2453   76.0961  222.5573 H   0  0  0  0  0  0  0  0  0  0  0  0
  139.1612   77.1075  223.7373 H   0  0  0  0  0  0  0  0  0  0  0  0
  136.8165   77.8229  222.4404 H   0  0  0  0  0  0  0  0  0  0  0  0
  137.9720   78.9373  223.2523 H   0  0  0  0  0  0  0  0  0  0  0  0
  138.0462   78.0810  220.3276 H   0  0  0  0  0  0  0  0  0  0  0  0
  137.4913   79.6801  220.9775 H   0  0  0  0  0  0  0  0  0  0  0  0
  139.8663   79.5433  220.0331 H   0  0  0  0  0  0  0  0  0  0  0  0
  139.6269   80.2718  221.6833 H   0  0  0  0  0  0  0  0  0  0  0  0
  141.4541   78.3153  221.0035 H   0  0  0  0  0  0  0  0  0  0  0  0
  141.0831   77.9657  223.6533 H   0  0  0  0  0  0  0  0  0  0  0  0
  143.2396   78.5160  222.7968 H   0  0  0  0  0  0  0  0  0  0  0  0
  142.5726   79.8764  221.8058 H   0  0  0  0  0  0  0  0  0  0  0  0
  142.7783   79.8906  224.8422 H   0  0  0  0  0  0  0  0  0  0  0  0
  143.9888   80.6223  223.7094 H   0  0  0  0  0  0  0  0  0  0  0  0
  141.8916   81.9963  224.7881 H   0  0  0  0  0  0  0  0  0  0  0  0
  142.6494   82.4102  223.2348 H   0  0  0  0  0  0  0  0  0  0  0  0
  140.0423   82.0274  223.2432 H   0  0  0  0  0  0  0  0  0  0  0  0
  140.9494   81.1931  221.9722 H   0  0  0  0  0  0  0  0  0  0  0  0
  140.5639   79.9217  224.7276 H   0  0  0  0  0  0  0  0  0  0  0  0
  139.2926   79.7848  223.4718 H   0  0  0  0  0  0  0  0  0  0  0  0
  139.2347   70.3571  221.9476 H   0  0  0  0  0  0  0  0  0  0  0  0
  139.1137   68.7024  223.7692 H   0  0  0  0  0  0  0  0  0  0  0  0
  139.5448   68.0989  226.0146 H   0  0  0  0  0  0  0  0  0  0  0  0
  141.4589   70.9745  228.5955 H   0  0  0  0  0  0  0  0  0  0  0  0
  141.5524   72.6131  226.7321 H   0  0  0  0  0  0  0  0  0  0  0  0
  1  2  2  0
  2  3  1  0
  3  4  1  0
  4  5  1  0
  5  6  2  0
  5  7  1  0
  7  8  1  0
  8  9  1  0
  9 10  1  0
 10 11  1  0
 11 12  1  0
 12 13  1  0
 13 14  1  0
 14 15  1  0
 15 16  1  0
 16 17  1  0
 17 18  1  0
  2 19  1  0
 19 20  2  0
 20 21  1  0
 21 22  2  0
 22 23  1  0
 23 24  2  0
 24 25  1  0
 24 26  1  0
 26 27  2  0
 27 28  1  0
 28 29  2  0
 12  7  1  0
 18 13  1  0
 29 19  1  0
 28 22  1  0
  3 30  1  0
  4 31  1  0
  4 32  1  0
  8 33  1  0
  8 34  1  0
  9 35  1  0
  9 36  1  0
 10 37  1  0
 10 38  1  0
 11 39  1  0
 11 40  1  0
 12 41  1  6
 13 42  1  0
 14 43  1  0
 14 44  1  0
 15 45  1  0
 15 46  1  0
 16 47  1  0
 16 48  1  0
 17 49  1  0
 17 50  1  0
 18 51  1  0
 18 52  1  0
 20 53  1  0
 21 54  1  0
 23 55  1  0
 26 56  1  0
 27 57  1  0
M  END
>  <smiles>  (61) 
O=C(NCC(=O)N1CCCCC1C1CCCCC1)c1ccc2cc(Cl)ccc2n1

>  <score_type>  (61) 
oracle

>  <origin>  (61) 
autodockgpu

>  <m_score__min__energy>  (61) 
-9.1899999999999995

>  <m_primary>  (61) 
energy

>  <rmsd>  (61) 
2.9190061034406476

>  <m_score__min__rmsd>  (61) 
2.9190061034406476

>  <meeko>  (61) 
{"free_energy": -9.17, "intermolecular_energy": -10.67, "internal_energy": -1.27, "cluster_size": 37, "cluster_id": 1, "rank_in_cluster": 3}

>  <energy>  (61) 
-8.93

>  <cluster_rmsd>  (61) 
1.28

>  <cluster>  (61) 
1

$$$$

     RDKit          3D

 57 60  0  0  0  0  0  0  0  0999 V2000
  140.7060   72.3670  220.9010 O   0  0  0  0  0  0  0  0  0  0  0  0
  140.1570   72.7000  222.0020 C   0  0  0  0  0  0  0  0  0  0  0  0
  139.5280   73.9840  222.1580 N   0  0  0  0  0  0  0  0  0  0  0  0
  139.5610   74.8610  220.9870 C   0  0  0  0  0  0  0  0  0  0  0  0
  140.5950   75.9130  221.1440 C   0  0  0  0  0  0  0  0  0  0  0  0
  140.6260   76.6400  222.1720 O   0  0  0  0  0  0  0  0  0  0  0  0
  141.5860   76.1500  220.1610 N   0  0  0  0  0  0  0  0  0  0  0  0
  142.2170   77.4780  220.0500 C   0  0  0  0  0  0  0  0  0  0  0  0
  142.2220   77.9400  218.6200 C   0  0  0  0  0  0  0  0  0  0  0  0
  141.2780   77.0890  217.8050 C   0  0  0  0  0  0  0  0  0  0  0  0
  141.6730   75.6310  217.8330 C   0  0  0  0  0  0  0  0  0  0  0  0
  142.0510   75.1630  219.2120 C   0  0  1  0  0  0  0  0  0  0  0  0
  143.5280   74.9020  219.3560 C   0  0  0  0  0  0  0  0  0  0  0  0
  143.7930   74.3760  220.7490 C   0  0  0  0  0  0  0  0  0  0  0  0
  145.0660   73.5520  220.7970 C   0  0  0  0  0  0  0  0  0  0  0  0
  144.9350   72.2770  219.9940 C   0  0  0  0  0  0  0  0  0  0  0  0
  143.8370   72.5180  218.9570 C   0  0  0  0  0  0  0  0  0  0  0  0
  144.0820   73.9080  218.4100 C   0  0  0  0  0  0  0  0  0  0  0  0
  140.1560   71.7800  223.1320 C   0  0  0  0  0  0  0  0  0  0  0  0
  139.6440   70.5050  222.9640 C   0  0  0  0  0  0  0  0  0  0  0  0
  139.6010   69.5690  223.9710 C   0  0  0  0  0  0  0  0  0  0  0  0
  140.0930   69.9240  225.1960 C   0  0  0  0  0  0  0  0  0  0  0  0
  140.0500   68.9790  226.2090 C   0  0  0  0  0  0  0  0  0  0  0  0
  140.5500   69.3550  227.4360 C   0  0  0  0  0  0  0  0  0  0  0  0
  140.5140   68.1930  228.7430 Cl  0  0  0  0  0  0  0  0  0  0  0  0
  141.0700   70.6240  227.6340 C   0  0  0  0  0  0  0  0  0  0  0  0
  141.0950   71.5400  226.5980 C   0  0  0  0  0  0  0  0  0  0  0  0
  140.6000   71.1830  225.3640 C   0  0  0  0  0  0  0  0  0  0  0  0
  140.6280   72.0870  224.3460 N   0  0  0  0  0  0  0  0  0  0  0  0
  139.0780   74.2600  223.0580 H   0  0  0  0  0  0  0  0  0  0  0  0
  139.7899   74.2611  220.0938 H   0  0  0  0  0  0  0  0  0  0  0  0
  138.5790   75.3455  220.8823 H   0  0  0  0  0  0  0  0  0  0  0  0
  141.6540   78.1986  220.6613 H   0  0  0  0  0  0  0  0  0  0  0  0
  143.2557   77.4094  220.4055 H   0  0  0  0  0  0  0  0  0  0  0  0
  141.8987   78.9904  218.5743 H   0  0  0  0  0  0  0  0  0  0  0  0
  143.2392   77.8475  218.2117 H   0  0  0  0  0  0  0  0  0  0  0  0
  140.2623   77.1909  218.2149 H   0  0  0  0  0  0  0  0  0  0  0  0
  141.3191   77.4350  216.7616 H   0  0  0  0  0  0  0  0  0  0  0  0
  140.8245   75.0287  217.4763 H   0  0  0  0  0  0  0  0  0  0  0  0
  142.5544   75.5110  217.1859 H   0  0  0  0  0  0  0  0  0  0  0  0
  141.5695   74.1934  219.4067 H   0  0  0  0  0  0  0  0  0  0  0  0
  144.0176   75.8640  219.1443 H   0  0  0  0  0  0  0  0  0  0  0  0
  143.8909   75.2263  221.4400 H   0  0  0  0  0  0  0  0  0  0  0  0
  142.9516   73.7304  221.0410 H   0  0  0  0  0  0  0  0  0  0  0  0
  145.8934   74.1492  220.3861 H   0  0  0  0  0  0  0  0  0  0  0  0
  145.2602   73.2800  221.8450 H   0  0  0  0  0  0  0  0  0  0  0  0
  145.8861   72.0465  219.4917 H   0  0  0  0  0  0  0  0  0  0  0  0
  144.6839   71.4257  220.6438 H   0  0  0  0  0  0  0  0  0  0  0  0
  143.9017   71.7725  218.1508 H   0  0  0  0  0  0  0  0  0  0  0  0
  142.8347   72.4294  219.4015 H   0  0  0  0  0  0  0  0  0  0  0  0
  145.1632   74.0730  218.2927 H   0  0  0  0  0  0  0  0  0  0  0  0
  143.5926   74.0138  217.4306 H   0  0  0  0  0  0  0  0  0  0  0  0
  139.2516   70.2261  221.9749 H   0  0  0  0  0  0  0  0  0  0  0  0
  139.1838   68.5663  223.7961 H   0  0  0  0  0  0  0  0  0  0  0  0
  139.6353   67.9742  226.0406 H   0  0  0  0  0  0  0  0  0  0  0  0
  141.4654   70.9047  228.6214 H   0  0  0  0  0  0  0  0  0  0  0  0
  141.5076   72.5469  226.7590 H   0  0  0  0  0  0  0  0  0  0  0  0
  1  2  2  0
  2  3  1  0
  3  4  1  0
  4  5  1  0
  5  6  2  0
  5  7  1  0
  7  8  1  0
  8  9  1  0
  9 10  1  0
 10 11  1  0
 11 12  1  0
 12 13  1  0
 13 14  1  0
 14 15  1  0
 15 16  1  0
 16 17  1  0
 17 18  1  0
  2 19  1  0
 19 20  2  0
 20 21  1  0
 21 22  2  0
 22 23  1  0
 23 24  2  0
 24 25  1  0
 24 26  1  0
 26 27  2  0
 27 28  1  0
 28 29  2  0
 12  7  1  0
 18 13  1  0
 29 19  1  0
 28 22  1  0
  3 30  1  0
  4 31  1  0
  4 32  1  0
  8 33  1  0
  8 34  1  0
  9 35  1  0
  9 36  1  0
 10 37  1  0
 10 38  1  0
 11 39  1  0
 11 40  1  0
 12 41  1  1
 13 42  1  0
 14 43  1  0
 14 44  1  0
 15 45  1  0
 15 46  1  0
 16 47  1  0
 16 48  1  0
 17 49  1  0
 17 50  1  0
 18 51  1  0
 18 52  1  0
 20 53  1  0
 21 54  1  0
 23 55  1  0
 26 56  1  0
 27 57  1  0
M  END
>  <smiles>  (62) 
O=C(NCC(=O)N1CCCCC1C1CCCCC1)c1ccc2cc(Cl)ccc2n1

>  <score_type>  (62) 
oracle

>  <origin>  (62) 
autodockgpu

>  <m_score__min__energy>  (62) 
-9.1899999999999995

>  <m_primary>  (62) 
energy

>  <rmsd>  (62) 
2.308982693628223

>  <m_score__min__rmsd>  (62) 
2.308982693628223

>  <meeko>  (62) 
{"free_energy": -7.99, "intermolecular_energy": -9.48, "internal_energy": -1.96, "cluster_size": 8, "cluster_id": 3, "rank_in_cluster": 2}

>  <energy>  (62) 
-8.91

>  <cluster_rmsd>  (62) 
1.23

>  <cluster>  (62) 
1

$$$$

     RDKit          3D

 57 60  0  0  0  0  0  0  0  0999 V2000
  141.0130   72.6550  221.0380 O   0  0  0  0  0  0  0  0  0  0  0  0
  140.1950   72.8290  222.0010 C   0  0  0  0  0  0  0  0  0  0  0  0
  139.2770   73.9360  222.0000 N   0  0  0  0  0  0  0  0  0  0  0  0
  139.3470   74.8270  220.8410 C   0  0  0  0  0  0  0  0  0  0  0  0
  140.2990   75.9380  221.0860 C   0  0  0  0  0  0  0  0  0  0  0  0
  141.4870   75.8740  220.6720 O   0  0  0  0  0  0  0  0  0  0  0  0
  139.9270   77.1110  221.7870 N   0  0  0  0  0  0  0  0  0  0  0  0
  138.7780   77.0880  222.7120 C   0  0  0  0  0  0  0  0  0  0  0  0
  137.8670   78.2530  222.4480 C   0  0  0  0  0  0  0  0  0  0  0  0
  138.2030   78.8730  221.1120 C   0  0  0  0  0  0  0  0  0  0  0  0
  139.6310   79.3670  221.0690 C   0  0  0  0  0  0  0  0  0  0  0  0
  140.6000   78.3850  221.6680 C   0  0  1  0  0  0  0  0  0  0  0  0
  141.1580   78.8470  222.9890 C   0  0  0  0  0  0  0  0  0  0  0  0
  142.5650   79.3560  222.7690 C   0  0  0  0  0  0  0  0  0  0  0  0
  142.9690   80.3490  223.8420 C   0  0  0  0  0  0  0  0  0  0  0  0
  142.1530   81.6210  223.7600 C   0  0  0  0  0  0  0  0  0  0  0  0
  140.8480   81.2630  223.0470 C   0  0  0  0  0  0  0  0  0  0  0  0
  140.4030   79.9420  223.6380 C   0  0  0  0  0  0  0  0  0  0  0  0
  140.1740   71.9050  223.1270 C   0  0  0  0  0  0  0  0  0  0  0  0
  139.6380   70.6400  222.9520 C   0  0  0  0  0  0  0  0  0  0  0  0
  139.5750   69.7010  223.9540 C   0  0  0  0  0  0  0  0  0  0  0  0
  140.0710   70.0420  225.1830 C   0  0  0  0  0  0  0  0  0  0  0  0
  140.0080   69.0940  226.1910 C   0  0  0  0  0  0  0  0  0  0  0  0
  140.5120   69.4560  227.4210 C   0  0  0  0  0  0  0  0  0  0  0  0
  140.4510   68.2890  228.7230 Cl  0  0  0  0  0  0  0  0  0  0  0  0
  141.0550   70.7130  227.6260 C   0  0  0  0  0  0  0  0  0  0  0  0
  141.1000   71.6330  226.5930 C   0  0  0  0  0  0  0  0  0  0  0  0
  140.6020   71.2910  225.3570 C   0  0  0  0  0  0  0  0  0  0  0  0
  140.6480   72.1980  224.3430 N   0  0  0  0  0  0  0  0  0  0  0  0
  138.6060   74.0820  222.7850 H   0  0  0  0  0  0  0  0  0  0  0  0
  139.6813   74.2526  219.9645 H   0  0  0  0  0  0  0  0  0  0  0  0
  138.3482   75.2520  220.6628 H   0  0  0  0  0  0  0  0  0  0  0  0
  138.2184   76.1516  222.5710 H   0  0  0  0  0  0  0  0  0  0  0  0
  139.1511   77.1548  223.7447 H   0  0  0  0  0  0  0  0  0  0  0  0
  136.8234   77.9054  222.4371 H   0  0  0  0  0  0  0  0  0  0  0  0
  137.9992   79.0043  223.2405 H   0  0  0  0  0  0  0  0  0  0  0  0
  138.0626   78.1190  220.3235 H   0  0  0  0  0  0  0  0  0  0  0  0
  137.5370   79.7345  220.9562 H   0  0  0  0  0  0  0  0  0  0  0  0
  139.9114   79.5437  220.0201 H   0  0  0  0  0  0  0  0  0  0  0  0
  139.6823   80.2911  221.6634 H   0  0  0  0  0  0  0  0  0  0  0  0
  141.4733   78.2925  221.0056 H   0  0  0  0  0  0  0  0  0  0  0  0
  141.1013   77.9717  223.6528 H   0  0  0  0  0  0  0  0  0  0  0  0
  143.2609   78.5043  222.7894 H   0  0  0  0  0  0  0  0  0  0  0  0
  142.6001   79.8659  221.7949 H   0  0  0  0  0  0  0  0  0  0  0  0
  142.8155   79.8895  224.8296 H   0  0  0  0  0  0  0  0  0  0  0  0
  144.0270   80.6087  223.6895 H   0  0  0  0  0  0  0  0  0  0  0  0
  141.9408   82.0007  224.7703 H   0  0  0  0  0  0  0  0  0  0  0  0
  142.6984   82.4056  223.2151 H   0  0  0  0  0  0  0  0  0  0  0  0
  140.0884   82.0381  223.2266 H   0  0  0  0  0  0  0  0  0  0  0  0
  140.9881   81.1923  221.9582 H   0  0  0  0  0  0  0  0  0  0  0  0
  140.6012   79.9362  224.7200 H   0  0  0  0  0  0  0  0  0  0  0  0
  139.3251   79.8025  223.4685 H   0  0  0  0  0  0  0  0  0  0  0  0
  139.2426   70.3731  221.9608 H   0  0  0  0  0  0  0  0  0  0  0  0
  139.1397   68.7070  223.7736 H   0  0  0  0  0  0  0  0  0  0  0  0
  139.5753   68.0977  226.0173 H   0  0  0  0  0  0  0  0  0  0  0  0
  141.4529   70.9820  228.6156 H   0  0  0  0  0  0  0  0  0  0  0  0
  141.5312   72.6312  226.7592 H   0  0  0  0  0  0  0  0  0  0  0  0
  1  2  2  0
  2  3  1  0
  3  4  1  0
  4  5  1  0
  5  6  2  0
  5  7  1  0
  7  8  1  0
  8  9  1  0
  9 10  1  0
 10 11  1  0
 11 12  1  0
 12 13  1  0
 13 14  1  0
 14 15  1  0
 15 16  1  0
 16 17  1  0
 17 18  1  0
  2 19  1  0
 19 20  2  0
 20 21  1  0
 21 22  2  0
 22 23  1  0
 23 24  2  0
 24 25  1  0
 24 26  1  0
 26 27  2  0
 27 28  1  0
 28 29  2  0
 12  7  1  0
 18 13  1  0
 29 19  1  0
 28 22  1  0
  3 30  1  0
  4 31  1  0
  4 32  1  0
  8 33  1  0
  8 34  1  0
  9 35  1  0
  9 36  1  0
 10 37  1  0
 10 38  1  0
 11 39  1  0
 11 40  1  0
 12 41  1  6
 13 42  1  0
 14 43  1  0
 14 44  1  0
 15 45  1  0
 15 46  1  0
 16 47  1  0
 16 48  1  0
 17 49  1  0
 17 50  1  0
 18 51  1  0
 18 52  1  0
 20 53  1  0
 21 54  1  0
 23 55  1  0
 26 56  1  0
 27 57  1  0
M  END
>  <smiles>  (63) 
O=C(NCC(=O)N1CCCCC1C1CCCCC1)c1ccc2cc(Cl)ccc2n1

>  <score_type>  (63) 
oracle

>  <origin>  (63) 
autodockgpu

>  <m_score__min__energy>  (63) 
-9.1899999999999995

>  <m_primary>  (63) 
energy

>  <rmsd>  (63) 
2.922291094048053

>  <m_score__min__rmsd>  (63) 
2.922291094048053

>  <meeko>  (63) 
{"free_energy": -9.18, "intermolecular_energy": -10.67, "internal_energy": -1.27, "cluster_size": 37, "cluster_id": 1, "rank_in_cluster": 2}

>  <energy>  (63) 
-8.9

>  <cluster_rmsd>  (63) 
1.24

>  <cluster>  (63) 
1

$$$$

     RDKit          3D

 57 60  0  0  0  0  0  0  0  0999 V2000
  139.6680   71.9470  220.7830 O   0  0  0  0  0  0  0  0  0  0  0  0
  139.6800   72.4250  221.9650 C   0  0  0  0  0  0  0  0  0  0  0  0
  139.5460   73.8390  222.1930 N   0  0  0  0  0  0  0  0  0  0  0  0
  139.4000   74.6710  220.9980 C   0  0  0  0  0  0  0  0  0  0  0  0
  140.2460   75.8850  221.0930 C   0  0  0  0  0  0  0  0  0  0  0  0
  141.3800   75.9270  220.5450 O   0  0  0  0  0  0  0  0  0  0  0  0
  139.8310   77.0420  221.7960 N   0  0  0  0  0  0  0  0  0  0  0  0
  138.6830   76.9770  222.7190 C   0  0  0  0  0  0  0  0  0  0  0  0
  137.7300   78.1080  222.4550 C   0  0  0  0  0  0  0  0  0  0  0  0
  138.0450   78.7410  221.1210 C   0  0  0  0  0  0  0  0  0  0  0  0
  139.4540   79.2870  221.0800 C   0  0  0  0  0  0  0  0  0  0  0  0
  140.4570   78.3410  221.6780 C   0  0  1  0  0  0  0  0  0  0  0  0
  140.9970   78.8210  223.0010 C   0  0  0  0  0  0  0  0  0  0  0  0
  142.4410   79.2310  222.8140 C   0  0  0  0  0  0  0  0  0  0  0  0
  142.8690   80.2410  223.8630 C   0  0  0  0  0  0  0  0  0  0  0  0
  142.1390   81.5570  223.7000 C   0  0  0  0  0  0  0  0  0  0  0  0
  140.8390   81.2520  222.9530 C   0  0  0  0  0  0  0  0  0  0  0  0
  140.2910   79.9860  223.5770 C   0  0  0  0  0  0  0  0  0  0  0  0
  139.8280   71.5420  223.1150 C   0  0  0  0  0  0  0  0  0  0  0  0
  139.4420   70.2180  223.0040 C   0  0  0  0  0  0  0  0  0  0  0  0
  139.5440   69.3110  224.0320 C   0  0  0  0  0  0  0  0  0  0  0  0
  140.0550   69.7500  225.2230 C   0  0  0  0  0  0  0  0  0  0  0  0
  140.1580   68.8350  226.2580 C   0  0  0  0  0  0  0  0  0  0  0  0
  140.6750   69.2950  227.4490 C   0  0  0  0  0  0  0  0  0  0  0  0
  140.8220   68.1730  228.7840 Cl  0  0  0  0  0  0  0  0  0  0  0  0
  141.0710   70.6150  227.5910 C   0  0  0  0  0  0  0  0  0  0  0  0
  140.9520   71.4980  226.5330 C   0  0  0  0  0  0  0  0  0  0  0  0
  140.4380   71.0590  225.3350 C   0  0  0  0  0  0  0  0  0  0  0  0
  140.3230   71.9310  224.2960 N   0  0  0  0  0  0  0  0  0  0  0  0
  139.5550   74.2340  223.1590 H   0  0  0  0  0  0  0  0  0  0  0  0
  139.7025   74.0893  220.1148 H   0  0  0  0  0  0  0  0  0  0  0  0
  138.3481   74.9810  220.9115 H   0  0  0  0  0  0  0  0  0  0  0  0
  138.1581   76.0208  222.5768 H   0  0  0  0  0  0  0  0  0  0  0  0
  139.0524   77.0573  223.7520 H   0  0  0  0  0  0  0  0  0  0  0  0
  136.7000   77.7222  222.4421 H   0  0  0  0  0  0  0  0  0  0  0  0
  137.8330   78.8627  223.2486 H   0  0  0  0  0  0  0  0  0  0  0  0
  137.9332   77.9832  220.3316 H   0  0  0  0  0  0  0  0  0  0  0  0
  137.3483   79.5779  220.9655 H   0  0  0  0  0  0  0  0  0  0  0  0
  139.7286   79.4754  220.0316 H   0  0  0  0  0  0  0  0  0  0  0  0
  139.4709   80.2115  221.6758 H   0  0  0  0  0  0  0  0  0  0  0  0
  141.3329   78.2819  221.0152 H   0  0  0  0  0  0  0  0  0  0  0  0
  140.8617   77.9795  223.6964 H   0  0  0  0  0  0  0  0  0  0  0  0
  143.0798   78.3390  222.8940 H   0  0  0  0  0  0  0  0  0  0  0  0
  142.5437   79.6963  221.8225 H   0  0  0  0  0  0  0  0  0  0  0  0
  142.6511   79.8331  224.8611 H   0  0  0  0  0  0  0  0  0  0  0  0
  143.9462   80.4277  223.7415 H   0  0  0  0  0  0  0  0  0  0  0  0
  141.9163   81.9911  224.6859 H   0  0  0  0  0  0  0  0  0  0  0  0
  142.7522   82.2823  223.1451 H   0  0  0  0  0  0  0  0  0  0  0  0
  140.1243   82.0793  223.0747 H   0  0  0  0  0  0  0  0  0  0  0  0
  141.0120   81.1289  221.8737 H   0  0  0  0  0  0  0  0  0  0  0  0
  140.4498   80.0125  224.6652 H   0  0  0  0  0  0  0  0  0  0  0  0
  139.2133   79.9065  223.3714 H   0  0  0  0  0  0  0  0  0  0  0  0
  139.0322   69.8732  222.0432 H   0  0  0  0  0  0  0  0  0  0  0  0
  139.2252   68.2663  223.9014 H   0  0  0  0  0  0  0  0  0  0  0  0
  139.8414   67.7888  226.1344 H   0  0  0  0  0  0  0  0  0  0  0  0
  141.4822   70.9627  228.5502 H   0  0  0  0  0  0  0  0  0  0  0  0
  141.2667   72.5456  226.6490 H   0  0  0  0  0  0  0  0  0  0  0  0
  1  2  2  0
  2  3  1  0
  3  4  1  0
  4  5  1  0
  5  6  2  0
  5  7  1  0
  7  8  1  0
  8  9  1  0
  9 10  1  0
 10 11  1  0
 11 12  1  0
 12 13  1  0
 13 14  1  0
 14 15  1  0
 15 16  1  0
 16 17  1  0
 17 18  1  0
  2 19  1  0
 19 20  2  0
 20 21  1  0
 21 22  2  0
 22 23  1  0
 23 24  2  0
 24 25  1  0
 24 26  1  0
 26 27  2  0
 27 28  1  0
 28 29  2  0
 12  7  1  0
 18 13  1  0
 29 19  1  0
 28 22  1  0
  3 30  1  0
  4 31  1  0
  4 32  1  0
  8 33  1  0
  8 34  1  0
  9 35  1  0
  9 36  1  0
 10 37  1  0
 10 38  1  0
 11 39  1  0
 11 40  1  0
 12 41  1  6
 13 42  1  0
 14 43  1  0
 14 44  1  0
 15 45  1  0
 15 46  1  0
 16 47  1  0
 16 48  1  0
 17 49  1  0
 17 50  1  0
 18 51  1  0
 18 52  1  0
 20 53  1  0
 21 54  1  0
 23 55  1  0
 26 56  1  0
 27 57  1  0
M  END
>  <smiles>  (64) 
O=C(NCC(=O)N1CCCCC1C1CCCCC1)c1ccc2cc(Cl)ccc2n1

>  <score_type>  (64) 
oracle

>  <origin>  (64) 
autodockgpu

>  <m_score__min__energy>  (64) 
-9.1899999999999995

>  <m_primary>  (64) 
energy

>  <rmsd>  (64) 
2.8425524000805367

>  <m_score__min__rmsd>  (64) 
2.8425524000805367

>  <meeko>  (64) 
{"free_energy": -9.03, "intermolecular_energy": -10.52, "internal_energy": -1.4, "cluster_size": 37, "cluster_id": 1, "rank_in_cluster": 5}

>  <energy>  (64) 
-8.89

>  <cluster_rmsd>  (64) 
1.28

>  <cluster>  (64) 
1

$$$$

     RDKit          3D

 57 60  0  0  0  0  0  0  0  0999 V2000
  140.8210   72.4050  220.7510 O   0  0  0  0  0  0  0  0  0  0  0  0
  140.1970   72.7700  221.8010 C   0  0  0  0  0  0  0  0  0  0  0  0
  139.5340   74.0440  221.8630 N   0  0  0  0  0  0  0  0  0  0  0  0
  139.6250   74.8740  220.6610 C   0  0  0  0  0  0  0  0  0  0  0  0
  138.5130   75.8550  220.6120 C   0  0  0  0  0  0  0  0  0  0  0  0
  137.8150   75.9890  219.5710 O   0  0  0  0  0  0  0  0  0  0  0  0
  138.1830   76.6790  221.7140 N   0  0  0  0  0  0  0  0  0  0  0  0
  137.3870   76.1390  222.8320 C   0  0  0  0  0  0  0  0  0  0  0  0
  136.2620   77.0730  223.1750 C   0  0  0  0  0  0  0  0  0  0  0  0
  136.0740   78.0780  222.0640 C   0  0  0  0  0  0  0  0  0  0  0  0
  137.3210   78.9010  221.8380 C   0  0  0  0  0  0  0  0  0  0  0  0
  138.5720   78.0660  221.8450 C   0  0  1  0  0  0  0  0  0  0  0  0
  139.4200   78.2950  223.0700 C   0  0  0  0  0  0  0  0  0  0  0  0
  140.8520   77.9400  222.7400 C   0  0  0  0  0  0  0  0  0  0  0  0
  141.8260   78.6700  223.6470 C   0  0  0  0  0  0  0  0  0  0  0  0
  141.8030   80.1630  223.4020 C   0  0  0  0  0  0  0  0  0  0  0  0
  140.4420   80.4890  222.7850 C   0  0  0  0  0  0  0  0  0  0  0  0
  139.4270   79.6870  223.5730 C   0  0  0  0  0  0  0  0  0  0  0  0
  140.1420   71.8960  222.9660 C   0  0  0  0  0  0  0  0  0  0  0  0
  139.5360   70.6570  222.8540 C   0  0  0  0  0  0  0  0  0  0  0  0
  139.4370   69.7660  223.8960 C   0  0  0  0  0  0  0  0  0  0  0  0
  139.9690   70.1310  225.1020 C   0  0  0  0  0  0  0  0  0  0  0  0
  139.8690   69.2310  226.1510 C   0  0  0  0  0  0  0  0  0  0  0  0
  140.4100   69.6160  227.3580 C   0  0  0  0  0  0  0  0  0  0  0  0
  140.3050   68.5110  228.7100 Cl  0  0  0  0  0  0  0  0  0  0  0  0
  141.0240   70.8500  227.5010 C   0  0  0  0  0  0  0  0  0  0  0  0
  141.1040   71.7210  226.4300 C   0  0  0  0  0  0  0  0  0  0  0  0
  140.5690   71.3550  225.2160 C   0  0  0  0  0  0  0  0  0  0  0  0
  140.6500   72.2140  224.1630 N   0  0  0  0  0  0  0  0  0  0  0  0
  139.0220   74.3460  222.7210 H   0  0  0  0  0  0  0  0  0  0  0  0
  140.5828   75.4148  220.6680 H   0  0  0  0  0  0  0  0  0  0  0  0
  139.5593   74.2225  219.7771 H   0  0  0  0  0  0  0  0  0  0  0  0
  136.9715   75.1626  222.5423 H   0  0  0  0  0  0  0  0  0  0  0  0
  138.0381   76.0277  223.7116 H   0  0  0  0  0  0  0  0  0  0  0  0
  135.3350   76.4955  223.3056 H   0  0  0  0  0  0  0  0  0  0  0  0
  136.5027   77.6040  224.1078 H   0  0  0  0  0  0  0  0  0  0  0  0
  135.8279   77.5414  221.1358 H   0  0  0  0  0  0  0  0  0  0  0  0
  135.2606   78.7600  222.3525 H   0  0  0  0  0  0  0  0  0  0  0  0
  137.2390   79.4052  220.8638 H   0  0  0  0  0  0  0  0  0  0  0  0
  137.3977   79.6245  222.6630 H   0  0  0  0  0  0  0  0  0  0  0  0
  139.2074   78.3634  220.9978 H   0  0  0  0  0  0  0  0  0  0  0  0
  138.9773   77.6654  223.8558 H   0  0  0  0  0  0  0  0  0  0  0  0
  140.9901   76.8559  222.8651 H   0  0  0  0  0  0  0  0  0  0  0  0
  141.0532   78.2415  221.7014 H   0  0  0  0  0  0  0  0  0  0  0  0
  141.5524   78.4759  224.6946 H   0  0  0  0  0  0  0  0  0  0  0  0
  142.8397   78.3014  223.4311 H   0  0  0  0  0  0  0  0  0  0  0  0
  141.9278   80.7044  224.3513 H   0  0  0  0  0  0  0  0  0  0  0  0
  142.6221   80.4657  222.7331 H   0  0  0  0  0  0  0  0  0  0  0  0
  140.2303   81.5650  222.8717 H   0  0  0  0  0  0  0  0  0  0  0  0
  140.4128   80.2375  221.7145 H   0  0  0  0  0  0  0  0  0  0  0  0
  139.6989   79.6930  224.6389 H   0  0  0  0  0  0  0  0  0  0  0  0
  138.4277   80.1311  223.4537 H   0  0  0  0  0  0  0  0  0  0  0  0
  139.1115   70.3702  221.8806 H   0  0  0  0  0  0  0  0  0  0  0  0
  138.9457   68.7907  223.7642 H   0  0  0  0  0  0  0  0  0  0  0  0
  139.3799   68.2537  226.0256 H   0  0  0  0  0  0  0  0  0  0  0  0
  141.4506   71.1386  228.4730 H   0  0  0  0  0  0  0  0  0  0  0  0
  141.5920   72.6998  226.5476 H   0  0  0  0  0  0  0  0  0  0  0  0
  1  2  2  0
  2  3  1  0
  3  4  1  0
  4  5  1  0
  5  6  2  0
  5  7  1  0
  7  8  1  0
  8  9  1  0
  9 10  1  0
 10 11  1  0
 11 12  1  0
 12 13  1  0
 13 14  1  0
 14 15  1  0
 15 16  1  0
 16 17  1  0
 17 18  1  0
  2 19  1  0
 19 20  2  0
 20 21  1  0
 21 22  2  0
 22 23  1  0
 23 24  2  0
 24 25  1  0
 24 26  1  0
 26 27  2  0
 27 28  1  0
 28 29  2  0
 12  7  1  0
 18 13  1  0
 29 19  1  0
 28 22  1  0
  3 30  1  0
  4 31  1  0
  4 32  1  0
  8 33  1  0
  8 34  1  0
  9 35  1  0
  9 36  1  0
 10 37  1  0
 10 38  1  0
 11 39  1  0
 11 40  1  0
 12 41  1  6
 13 42  1  0
 14 43  1  0
 14 44  1  0
 15 45  1  0
 15 46  1  0
 16 47  1  0
 16 48  1  0
 17 49  1  0
 17 50  1  0
 18 51  1  0
 18 52  1  0
 20 53  1  0
 21 54  1  0
 23 55  1  0
 26 56  1  0
 27 57  1  0
M  END
>  <smiles>  (65) 
O=C(NCC(=O)N1CCCCC1C1CCCCC1)c1ccc2cc(Cl)ccc2n1

>  <score_type>  (65) 
oracle

>  <origin>  (65) 
autodockgpu

>  <m_score__min__energy>  (65) 
-9.1899999999999995

>  <m_primary>  (65) 
energy

>  <rmsd>  (65) 
3.4805464670610524

>  <m_score__min__rmsd>  (65) 
3.4805464670610524

>  <meeko>  (65) 
{"free_energy": -8.31, "intermolecular_energy": -9.8, "internal_energy": -1.51, "cluster_size": 37, "cluster_id": 1, "rank_in_cluster": 29}

>  <energy>  (65) 
-8.86

>  <cluster_rmsd>  (65) 
1.3

>  <cluster>  (65) 
1

$$$$

     RDKit          3D

 57 60  0  0  0  0  0  0  0  0999 V2000
  138.9570   71.8360  220.8410 O   0  0  0  0  0  0  0  0  0  0  0  0
  139.1730   72.3310  221.9960 C   0  0  0  0  0  0  0  0  0  0  0  0
  139.1490   73.7530  222.2070 N   0  0  0  0  0  0  0  0  0  0  0  0
  138.8640   74.5730  221.0290 C   0  0  0  0  0  0  0  0  0  0  0  0
  140.1040   74.8380  220.2580 C   0  0  0  0  0  0  0  0  0  0  0  0
  140.8180   73.8890  219.8370 O   0  0  0  0  0  0  0  0  0  0  0  0
  140.5420   76.1510  219.9610 N   0  0  0  0  0  0  0  0  0  0  0  0
  140.0650   76.8350  218.7440 C   0  0  0  0  0  0  0  0  0  0  0  0
  141.2180   77.4380  217.9940 C   0  0  0  0  0  0  0  0  0  0  0  0
  142.5180   76.8640  218.5060 C   0  0  0  0  0  0  0  0  0  0  0  0
  142.7110   77.1460  219.9780 C   0  0  0  0  0  0  0  0  0  0  0  0
  141.4600   76.9130  220.7790 C   0  0  1  0  0  0  0  0  0  0  0  0
  140.8360   78.1920  221.2740 C   0  0  0  0  0  0  0  0  0  0  0  0
  140.3530   77.9790  222.6910 C   0  0  0  0  0  0  0  0  0  0  0  0
  140.2730   79.2890  223.4520 C   0  0  0  0  0  0  0  0  0  0  0  0
  141.6450   79.8910  223.6690 C   0  0  0  0  0  0  0  0  0  0  0  0
  142.5550   79.3220  222.5800 C   0  0  0  0  0  0  0  0  0  0  0  0
  141.7450   79.3600  221.3020 C   0  0  0  0  0  0  0  0  0  0  0  0
  139.4500   71.4600  223.1310 C   0  0  0  0  0  0  0  0  0  0  0  0
  139.1050   70.1220  223.0540 C   0  0  0  0  0  0  0  0  0  0  0  0
  139.3260   69.2250  224.0730 C   0  0  0  0  0  0  0  0  0  0  0  0
  139.9190   69.6880  225.2150 C   0  0  0  0  0  0  0  0  0  0  0  0
  140.1420   68.7820  226.2400 C   0  0  0  0  0  0  0  0  0  0  0  0
  140.7390   69.2670  227.3830 C   0  0  0  0  0  0  0  0  0  0  0  0
  141.0380   68.1580  228.7020 Cl  0  0  0  0  0  0  0  0  0  0  0  0
  141.0960   70.6010  227.4880 C   0  0  0  0  0  0  0  0  0  0  0  0
  140.8560   71.4750  226.4430 C   0  0  0  0  0  0  0  0  0  0  0  0
  140.2610   71.0100  225.2930 C   0  0  0  0  0  0  0  0  0  0  0  0
  140.0270   71.8730  224.2650 N   0  0  0  0  0  0  0  0  0  0  0  0
  139.3250   74.1630  223.1510 H   0  0  0  0  0  0  0  0  0  0  0  0
  138.1460   74.0430  220.3859 H   0  0  0  0  0  0  0  0  0  0  0  0
  138.4440   75.5337  221.3617 H   0  0  0  0  0  0  0  0  0  0  0  0
  139.5529   76.1076  218.0970 H   0  0  0  0  0  0  0  0  0  0  0  0
  139.3712   77.6374  219.0354 H   0  0  0  0  0  0  0  0  0  0  0  0
  141.1154   77.2109  216.9226 H   0  0  0  0  0  0  0  0  0  0  0  0
  141.2184   78.5278  218.1437 H   0  0  0  0  0  0  0  0  0  0  0  0
  142.5135   75.7753  218.3490 H   0  0  0  0  0  0  0  0  0  0  0  0
  143.3434   77.3379  217.9545 H   0  0  0  0  0  0  0  0  0  0  0  0
  143.5035   76.4870  220.3623 H   0  0  0  0  0  0  0  0  0  0  0  0
  142.9809   78.2073  220.0819 H   0  0  0  0  0  0  0  0  0  0  0  0
  141.7161   76.3494  221.6883 H   0  0  0  0  0  0  0  0  0  0  0  0
  140.0303   78.4201  220.5607 H   0  0  0  0  0  0  0  0  0  0  0  0
  139.3538   77.5198  222.6632 H   0  0  0  0  0  0  0  0  0  0  0  0
  141.0702   77.3230  223.2060 H   0  0  0  0  0  0  0  0  0  0  0  0
  139.6584   79.9983  222.8783 H   0  0  0  0  0  0  0  0  0  0  0  0
  139.8251   79.0887  224.4365 H   0  0  0  0  0  0  0  0  0  0  0  0
  141.5950   80.9867  223.5863 H   0  0  0  0  0  0  0  0  0  0  0  0
  142.0287   79.6474  224.6707 H   0  0  0  0  0  0  0  0  0  0  0  0
  143.4607   79.9379  222.4776 H   0  0  0  0  0  0  0  0  0  0  0  0
  142.8828   78.2999  222.8205 H   0  0  0  0  0  0  0  0  0  0  0  0
  141.1550   80.2877  221.2665 H   0  0  0  0  0  0  0  0  0  0  0  0
  142.4189   79.3280  220.4332 H   0  0  0  0  0  0  0  0  0  0  0  0
  138.6300   69.7574  222.1312 H   0  0  0  0  0  0  0  0  0  0  0  0
  139.0351   68.1689  223.9726 H   0  0  0  0  0  0  0  0  0  0  0  0
  139.8554   67.7242  226.1452 H   0  0  0  0  0  0  0  0  0  0  0  0
  141.5735   70.9680  228.4085 H   0  0  0  0  0  0  0  0  0  0  0  0
  141.1389   72.5344  226.5309 H   0  0  0  0  0  0  0  0  0  0  0  0
  1  2  2  0
  2  3  1  0
  3  4  1  0
  4  5  1  0
  5  6  2  0
  5  7  1  0
  7  8  1  0
  8  9  1  0
  9 10  1  0
 10 11  1  0
 11 12  1  0
 12 13  1  0
 13 14  1  0
 14 15  1  0
 15 16  1  0
 16 17  1  0
 17 18  1  0
  2 19  1  0
 19 20  2  0
 20 21  1  0
 21 22  2  0
 22 23  1  0
 23 24  2  0
 24 25  1  0
 24 26  1  0
 26 27  2  0
 27 28  1  0
 28 29  2  0
 12  7  1  0
 18 13  1  0
 29 19  1  0
 28 22  1  0
  3 30  1  0
  4 31  1  0
  4 32  1  0
  8 33  1  0
  8 34  1  0
  9 35  1  0
  9 36  1  0
 10 37  1  0
 10 38  1  0
 11 39  1  0
 11 40  1  0
 12 41  1  1
 13 42  1  0
 14 43  1  0
 14 44  1  0
 15 45  1  0
 15 46  1  0
 16 47  1  0
 16 48  1  0
 17 49  1  0
 17 50  1  0
 18 51  1  0
 18 52  1  0
 20 53  1  0
 21 54  1  0
 23 55  1  0
 26 56  1  0
 27 57  1  0
M  END
>  <smiles>  (66) 
O=C(NCC(=O)N1CCCCC1C1CCCCC1)c1ccc2cc(Cl)ccc2n1

>  <score_type>  (66) 
oracle

>  <origin>  (66) 
autodockgpu

>  <m_score__min__energy>  (66) 
-9.1899999999999995

>  <m_primary>  (66) 
energy

>  <rmsd>  (66) 
1.554819509491116

>  <m_score__min__rmsd>  (66) 
1.554819509491116

>  <meeko>  (66) 
{"free_energy": -8.23, "intermolecular_energy": -9.73, "internal_energy": -1.57, "cluster_size": 37, "cluster_id": 1, "rank_in_cluster": 32}

>  <energy>  (66) 
-8.85

>  <cluster_rmsd>  (66) 
1.24

>  <cluster>  (66) 
1

$$$$

     RDKit          3D

 57 60  0  0  0  0  0  0  0  0999 V2000
  142.9060   79.7160  218.1680 O   0  0  0  0  0  0  0  0  0  0  0  0
  142.2230   78.7150  218.5670 C   0  0  0  0  0  0  0  0  0  0  0  0
  140.9070   78.8900  219.1200 N   0  0  0  0  0  0  0  0  0  0  0  0
  140.4180   80.2670  219.1910 C   0  0  0  0  0  0  0  0  0  0  0  0
  141.0600   80.9980  220.3100 C   0  0  0  0  0  0  0  0  0  0  0  0
  141.5580   82.1420  220.1340 O   0  0  0  0  0  0  0  0  0  0  0  0
  141.1450   80.4560  221.6160 N   0  0  0  0  0  0  0  0  0  0  0  0
  140.6430   81.2230  222.7710 C   0  0  0  0  0  0  0  0  0  0  0  0
  141.6620   81.2380  223.8750 C   0  0  0  0  0  0  0  0  0  0  0  0
  143.0000   80.7840  223.3420 C   0  0  0  0  0  0  0  0  0  0  0  0
  142.9320   79.3840  222.7790 C   0  0  0  0  0  0  0  0  0  0  0  0
  141.7100   79.1630  221.9300 C   0  0  1  0  0  0  0  0  0  0  0  0
  140.6990   78.2570  222.5850 C   0  0  0  0  0  0  0  0  0  0  0  0
  139.3920   78.3660  221.8320 C   0  0  0  0  0  0  0  0  0  0  0  0
  138.5450   77.1200  222.0120 C   0  0  0  0  0  0  0  0  0  0  0  0
  139.1860   75.9110  221.3650 C   0  0  0  0  0  0  0  0  0  0  0  0
  140.6860   76.2010  221.2770 C   0  0  0  0  0  0  0  0  0  0  0  0
  141.0660   76.8230  222.6040 C   0  0  0  0  0  0  0  0  0  0  0  0
  142.7670   77.3670  218.4680 C   0  0  0  0  0  0  0  0  0  0  0  0
  142.8530   76.7630  217.2250 C   0  0  0  0  0  0  0  0  0  0  0  0
  143.3510   75.4960  217.0330 C   0  0  0  0  0  0  0  0  0  0  0  0
  143.7820   74.8050  218.1320 C   0  0  0  0  0  0  0  0  0  0  0  0
  144.2840   73.5280  217.9360 C   0  0  0  0  0  0  0  0  0  0  0  0
  144.7130   72.8480  219.0550 C   0  0  0  0  0  0  0  0  0  0  0  0
  145.3540   71.2320  218.8540 Cl  0  0  0  0  0  0  0  0  0  0  0  0
  144.6400   73.4260  220.3110 C   0  0  0  0  0  0  0  0  0  0  0  0
  144.1310   74.7030  220.4650 C   0  0  0  0  0  0  0  0  0  0  0  0
  143.6980   75.4000  219.3610 C   0  0  0  0  0  0  0  0  0  0  0  0
  143.1990   76.6570  219.5160 N   0  0  0  0  0  0  0  0  0  0  0  0
  140.3450   78.0730  219.4460 H   0  0  0  0  0  0  0  0  0  0  0  0
  140.6484   80.7804  218.2458 H   0  0  0  0  0  0  0  0  0  0  0  0
  139.3315   80.2464  219.3613 H   0  0  0  0  0  0  0  0  0  0  0  0
  140.4346   82.2563  222.4565 H   0  0  0  0  0  0  0  0  0  0  0  0
  139.7233   80.7470  223.1419 H   0  0  0  0  0  0  0  0  0  0  0  0
  141.7548   82.2594  224.2726 H   0  0  0  0  0  0  0  0  0  0  0  0
  141.3398   80.5565  224.6761 H   0  0  0  0  0  0  0  0  0  0  0  0
  143.3189   81.4730  222.5461 H   0  0  0  0  0  0  0  0  0  0  0  0
  143.7184   80.7838  224.1750 H   0  0  0  0  0  0  0  0  0  0  0  0
  143.8261   79.2078  222.1630 H   0  0  0  0  0  0  0  0  0  0  0  0
  142.8807   78.6850  223.6268 H   0  0  0  0  0  0  0  0  0  0  0  0
  142.0044   78.6429  221.0065 H   0  0  0  0  0  0  0  0  0  0  0  0
  140.6371   78.5930  223.6306 H   0  0  0  0  0  0  0  0  0  0  0  0
  138.8336   79.2360  222.2080 H   0  0  0  0  0  0  0  0  0  0  0  0
  139.6172   78.4804  220.7614 H   0  0  0  0  0  0  0  0  0  0  0  0
  138.4208   76.9253  223.0875 H   0  0  0  0  0  0  0  0  0  0  0  0
  137.5722   77.2931  221.5286 H   0  0  0  0  0  0  0  0  0  0  0  0
  139.0087   75.0148  221.9777 H   0  0  0  0  0  0  0  0  0  0  0  0
  138.7605   75.7244  220.3679 H   0  0  0  0  0  0  0  0  0  0  0  0
  141.2473   75.2687  221.1165 H   0  0  0  0  0  0  0  0  0  0  0  0
  140.9198   76.8697  220.4354 H   0  0  0  0  0  0  0  0  0  0  0  0
  140.5274   76.3149  223.4175 H   0  0  0  0  0  0  0  0  0  0  0  0
  142.1486   76.7179  222.7680 H   0  0  0  0  0  0  0  0  0  0  0  0
  142.5051   77.3257  216.3462 H   0  0  0  0  0  0  0  0  0  0  0  0
  143.4012   75.0522  216.0278 H   0  0  0  0  0  0  0  0  0  0  0  0
  144.3374   73.0782  216.9336 H   0  0  0  0  0  0  0  0  0  0  0  0
  144.9888   72.8665  221.1915 H   0  0  0  0  0  0  0  0  0  0  0  0
  144.0728   75.1585  221.4646 H   0  0  0  0  0  0  0  0  0  0  0  0
  1  2  2  0
  2  3  1  0
  3  4  1  0
  4  5  1  0
  5  6  2  0
  5  7  1  0
  7  8  1  0
  8  9  1  0
  9 10  1  0
 10 11  1  0
 11 12  1  0
 12 13  1  0
 13 14  1  0
 14 15  1  0
 15 16  1  0
 16 17  1  0
 17 18  1  0
  2 19  1  0
 19 20  2  0
 20 21  1  0
 21 22  2  0
 22 23  1  0
 23 24  2  0
 24 25  1  0
 24 26  1  0
 26 27  2  0
 27 28  1  0
 28 29  2  0
 12  7  1  0
 18 13  1  0
 29 19  1  0
 28 22  1  0
  3 30  1  0
  4 31  1  0
  4 32  1  0
  8 33  1  0
  8 34  1  0
  9 35  1  0
  9 36  1  0
 10 37  1  0
 10 38  1  0
 11 39  1  0
 11 40  1  0
 12 41  1  6
 13 42  1  0
 14 43  1  0
 14 44  1  0
 15 45  1  0
 15 46  1  0
 16 47  1  0
 16 48  1  0
 17 49  1  0
 17 50  1  0
 18 51  1  0
 18 52  1  0
 20 53  1  0
 21 54  1  0
 23 55  1  0
 26 56  1  0
 27 57  1  0
M  END
>  <smiles>  (67) 
O=C(NCC(=O)N1CCCCC1C1CCCCC1)c1ccc2cc(Cl)ccc2n1

>  <score_type>  (67) 
oracle

>  <origin>  (67) 
autodockgpu

>  <m_score__min__energy>  (67) 
-9.1899999999999995

>  <m_primary>  (67) 
energy

>  <rmsd>  (67) 
8.343751222087539

>  <m_score__min__rmsd>  (67) 
8.343751222087539

>  <meeko>  (67) 
{"free_energy": -6.75, "intermolecular_energy": -8.24, "internal_energy": -2.6, "cluster_size": 2, "cluster_id": 5, "rank_in_cluster": 1}

>  <energy>  (67) 
-8.84

>  <cluster_rmsd>  (67) 
1.24

>  <cluster>  (67) 
1

$$$$

     RDKit          3D

 57 60  0  0  0  0  0  0  0  0999 V2000
  139.5910   72.0860  220.8650 O   0  0  0  0  0  0  0  0  0  0  0  0
  139.6080   72.5380  222.0580 C   0  0  0  0  0  0  0  0  0  0  0  0
  139.4610   73.9440  222.3180 N   0  0  0  0  0  0  0  0  0  0  0  0
  139.2920   74.8010  221.1440 C   0  0  0  0  0  0  0  0  0  0  0  0
  139.1350   76.2210  221.5440 C   0  0  0  0  0  0  0  0  0  0  0  0
  138.3440   76.5480  222.4680 O   0  0  0  0  0  0  0  0  0  0  0  0
  139.8550   77.2660  220.9160 N   0  0  0  0  0  0  0  0  0  0  0  0
  139.3670   77.8460  219.6500 C   0  0  0  0  0  0  0  0  0  0  0  0
  140.4810   77.9290  218.6460 C   0  0  0  0  0  0  0  0  0  0  0  0
  141.6440   77.0810  219.1010 C   0  0  0  0  0  0  0  0  0  0  0  0
  142.1780   77.5350  220.4400 C   0  0  0  0  0  0  0  0  0  0  0  0
  141.0820   77.8370  221.4250 C   0  0  1  0  0  0  0  0  0  0  0  0
  140.9380   79.3100  221.7060 C   0  0  0  0  0  0  0  0  0  0  0  0
  140.4200   79.4860  223.1160 C   0  0  0  0  0  0  0  0  0  0  0  0
  140.7990   80.8430  223.6790 C   0  0  0  0  0  0  0  0  0  0  0  0
  142.2950   80.9680  223.8710 C   0  0  0  0  0  0  0  0  0  0  0  0
  142.9490   79.9680  222.9150 C   0  0  0  0  0  0  0  0  0  0  0  0
  142.1920   80.0900  221.6090 C   0  0  0  0  0  0  0  0  0  0  0  0
  139.7780   71.6320  223.1860 C   0  0  0  0  0  0  0  0  0  0  0  0
  139.4100   70.3050  223.0470 C   0  0  0  0  0  0  0  0  0  0  0  0
  139.5330   69.3770  224.0540 C   0  0  0  0  0  0  0  0  0  0  0  0
  140.0480   69.7960  225.2500 C   0  0  0  0  0  0  0  0  0  0  0  0
  140.1720   68.8590  226.2640 C   0  0  0  0  0  0  0  0  0  0  0  0
  140.6920   69.2990  227.4610 C   0  0  0  0  0  0  0  0  0  0  0  0
  140.8660   68.1490  228.7680 Cl  0  0  0  0  0  0  0  0  0  0  0  0
  141.0700   70.6210  227.6290 C   0  0  0  0  0  0  0  0  0  0  0  0
  140.9300   71.5260  226.5930 C   0  0  0  0  0  0  0  0  0  0  0  0
  140.4130   71.1070  225.3890 C   0  0  0  0  0  0  0  0  0  0  0  0
  140.2770   72.0000  224.3710 N   0  0  0  0  0  0  0  0  0  0  0  0
  139.4740   74.3180  223.2930 H   0  0  0  0  0  0  0  0  0  0  0  0
  140.1766   74.7046  220.4973 H   0  0  0  0  0  0  0  0  0  0  0  0
  138.3864   74.4851  220.6054 H   0  0  0  0  0  0  0  0  0  0  0  0
  138.5632   77.2121  219.2474 H   0  0  0  0  0  0  0  0  0  0  0  0
  138.9880   78.8599  219.8457 H   0  0  0  0  0  0  0  0  0  0  0  0
  140.1226   77.5647  217.6719 H   0  0  0  0  0  0  0  0  0  0  0  0
  140.8088   78.9749  218.5529 H   0  0  0  0  0  0  0  0  0  0  0  0
  141.3113   76.0360  219.1859 H   0  0  0  0  0  0  0  0  0  0  0  0
  142.4505   77.1795  218.3594 H   0  0  0  0  0  0  0  0  0  0  0  0
  142.8149   76.7394  220.8539 H   0  0  0  0  0  0  0  0  0  0  0  0
  142.7452   78.4631  220.2763 H   0  0  0  0  0  0  0  0  0  0  0  0
  141.3369   77.3852  222.3950 H   0  0  0  0  0  0  0  0  0  0  0  0
  140.2550   79.6904  220.9322 H   0  0  0  0  0  0  0  0  0  0  0  0
  139.3238   79.3949  223.1087 H   0  0  0  0  0  0  0  0  0  0  0  0
  140.8717   78.7092  223.7505 H   0  0  0  0  0  0  0  0  0  0  0  0
  140.4618   81.6252  222.9830 H   0  0  0  0  0  0  0  0  0  0  0  0
  140.3154   80.9557  224.6605 H   0  0  0  0  0  0  0  0  0  0  0  0
  142.6232   81.9904  223.6322 H   0  0  0  0  0  0  0  0  0  0  0  0
  142.5777   80.7599  224.9135 H   0  0  0  0  0  0  0  0  0  0  0  0
  144.0102   80.2171  222.7673 H   0  0  0  0  0  0  0  0  0  0  0  0
  142.9090   78.9429  223.3119 H   0  0  0  0  0  0  0  0  0  0  0  0
  141.9553   81.1469  221.4169 H   0  0  0  0  0  0  0  0  0  0  0  0
  142.8082   79.7031  220.7840 H   0  0  0  0  0  0  0  0  0  0  0  0
  138.9981   69.9760  222.0815 H   0  0  0  0  0  0  0  0  0  0  0  0
  139.2271   68.3313  223.9028 H   0  0  0  0  0  0  0  0  0  0  0  0
  139.8688   67.8116  226.1192 H   0  0  0  0  0  0  0  0  0  0  0  0
  141.4841   70.9529  228.5925 H   0  0  0  0  0  0  0  0  0  0  0  0
  141.2303   72.5752  226.7308 H   0  0  0  0  0  0  0  0  0  0  0  0
  1  2  2  0
  2  3  1  0
  3  4  1  0
  4  5  1  0
  5  6  2  0
  5  7  1  0
  7  8  1  0
  8  9  1  0
  9 10  1  0
 10 11  1  0
 11 12  1  0
 12 13  1  0
 13 14  1  0
 14 15  1  0
 15 16  1  0
 16 17  1  0
 17 18  1  0
  2 19  1  0
 19 20  2  0
 20 21  1  0
 21 22  2  0
 22 23  1  0
 23 24  2  0
 24 25  1  0
 24 26  1  0
 26 27  2  0
 27 28  1  0
 28 29  2  0
 12  7  1  0
 18 13  1  0
 29 19  1  0
 28 22  1  0
  3 30  1  0
  4 31  1  0
  4 32  1  0
  8 33  1  0
  8 34  1  0
  9 35  1  0
  9 36  1  0
 10 37  1  0
 10 38  1  0
 11 39  1  0
 11 40  1  0
 12 41  1  1
 13 42  1  0
 14 43  1  0
 14 44  1  0
 15 45  1  0
 15 46  1  0
 16 47  1  0
 16 48  1  0
 17 49  1  0
 17 50  1  0
 18 51  1  0
 18 52  1  0
 20 53  1  0
 21 54  1  0
 23 55  1  0
 26 56  1  0
 27 57  1  0
M  END
>  <smiles>  (68) 
O=C(NCC(=O)N1CCCCC1C1CCCCC1)c1ccc2cc(Cl)ccc2n1

>  <score_type>  (68) 
oracle

>  <origin>  (68) 
autodockgpu

>  <m_score__min__energy>  (68) 
-9.1899999999999995

>  <m_primary>  (68) 
energy

>  <rmsd>  (68) 
1.9462094899383862

>  <m_score__min__rmsd>  (68) 
1.9462094899383862

>  <meeko>  (68) 
{"free_energy": -8.84, "intermolecular_energy": -10.33, "internal_energy": -1.64, "cluster_size": 37, "cluster_id": 1, "rank_in_cluster": 17}

>  <energy>  (68) 
-8.81

>  <cluster_rmsd>  (68) 
1.31

>  <cluster>  (68) 
1

$$$$

     RDKit          3D

 57 60  0  0  0  0  0  0  0  0999 V2000
  139.0350   72.4390  220.8500 O   0  0  0  0  0  0  0  0  0  0  0  0
  139.8850   72.6730  221.7720 C   0  0  0  0  0  0  0  0  0  0  0  0
  140.7930   73.7840  221.6770 N   0  0  0  0  0  0  0  0  0  0  0  0
  140.6740   74.6090  220.4740 C   0  0  0  0  0  0  0  0  0  0  0  0
  141.3150   75.9310  220.6750 C   0  0  0  0  0  0  0  0  0  0  0  0
  142.4150   76.2070  220.1260 O   0  0  0  0  0  0  0  0  0  0  0  0
  140.7320   76.9380  221.4840 N   0  0  0  0  0  0  0  0  0  0  0  0
  139.6270   76.6040  222.4020 C   0  0  0  0  0  0  0  0  0  0  0  0
  138.5010   77.5860  222.2480 C   0  0  0  0  0  0  0  0  0  0  0  0
  138.6850   78.3800  220.9770 C   0  0  0  0  0  0  0  0  0  0  0  0
  139.9860   79.1480  220.9800 C   0  0  0  0  0  0  0  0  0  0  0  0
  141.1400   78.3250  221.4850 C   0  0  1  0  0  0  0  0  0  0  0  0
  141.6210   78.7640  222.8440 C   0  0  0  0  0  0  0  0  0  0  0  0
  142.8820   79.5800  222.6710 C   0  0  0  0  0  0  0  0  0  0  0  0
  143.0930   80.5270  223.8380 C   0  0  0  0  0  0  0  0  0  0  0  0
  142.0250   81.5980  223.8860 C   0  0  0  0  0  0  0  0  0  0  0  0
  140.8070   81.0410  223.1460 C   0  0  0  0  0  0  0  0  0  0  0  0
  140.6670   79.6040  223.6020 C   0  0  0  0  0  0  0  0  0  0  0  0
  139.9530   71.8130  222.9460 C   0  0  0  0  0  0  0  0  0  0  0  0
  139.4480   70.5260  222.8710 C   0  0  0  0  0  0  0  0  0  0  0  0
  139.4680   69.6440  223.9250 C   0  0  0  0  0  0  0  0  0  0  0  0
  140.0160   70.0680  225.1040 C   0  0  0  0  0  0  0  0  0  0  0  0
  140.0360   69.1770  226.1650 C   0  0  0  0  0  0  0  0  0  0  0  0
  140.5920   69.6220  227.3450 C   0  0  0  0  0  0  0  0  0  0  0  0
  140.6360   68.5290  228.7100 Cl  0  0  0  0  0  0  0  0  0  0  0  0
  141.1050   70.9040  227.4500 C   0  0  0  0  0  0  0  0  0  0  0  0
  141.0670   71.7640  226.3680 C   0  0  0  0  0  0  0  0  0  0  0  0
  140.5150   71.3390  225.1810 C   0  0  0  0  0  0  0  0  0  0  0  0
  140.4800   72.1890  224.1170 N   0  0  0  0  0  0  0  0  0  0  0  0
  141.4900   73.9780  222.4290 H   0  0  0  0  0  0  0  0  0  0  0  0
  141.1643   74.0947  219.6343 H   0  0  0  0  0  0  0  0  0  0  0  0
  139.6067   74.7645  220.2580 H   0  0  0  0  0  0  0  0  0  0  0  0
  139.2594   75.5928  222.1734 H   0  0  0  0  0  0  0  0  0  0  0  0
  139.9982   76.6473  223.4366 H   0  0  0  0  0  0  0  0  0  0  0  0
  137.5458   77.0423  222.2039 H   0  0  0  0  0  0  0  0  0  0  0  0
  138.4975   78.2723  223.1077 H   0  0  0  0  0  0  0  0  0  0  0  0
  138.6813   77.6887  220.1214 H   0  0  0  0  0  0  0  0  0  0  0  0
  137.8602   79.1040  220.9031 H   0  0  0  0  0  0  0  0  0  0  0  0
  140.2068   79.4718  219.9522 H   0  0  0  0  0  0  0  0  0  0  0  0
  139.8659   80.0062  221.6575 H   0  0  0  0  0  0  0  0  0  0  0  0
  142.0022   78.4680  220.8171 H   0  0  0  0  0  0  0  0  0  0  0  0
  141.7685   77.8366  223.4169 H   0  0  0  0  0  0  0  0  0  0  0  0
  143.7428   78.8985  222.6029 H   0  0  0  0  0  0  0  0  0  0  0  0
  142.7842   80.1781  221.7530 H   0  0  0  0  0  0  0  0  0  0  0  0
  143.0636   79.9513  224.7748 H   0  0  0  0  0  0  0  0  0  0  0  0
  144.0684   81.0191  223.7099 H   0  0  0  0  0  0  0  0  0  0  0  0
  141.7628   81.8248  224.9299 H   0  0  0  0  0  0  0  0  0  0  0  0
  142.3786   82.5293  223.4194 H   0  0  0  0  0  0  0  0  0  0  0  0
  139.9054   81.6148  223.4065 H   0  0  0  0  0  0  0  0  0  0  0  0
  140.9310   81.1087  222.0551 H   0  0  0  0  0  0  0  0  0  0  0  0
  140.8881   79.5349  224.6773 H   0  0  0  0  0  0  0  0  0  0  0  0
  139.6395   79.2549  223.4221 H   0  0  0  0  0  0  0  0  0  0  0  0
  139.0084   70.1924  221.9195 H   0  0  0  0  0  0  0  0  0  0  0  0
  139.0562   68.6291  223.8234 H   0  0  0  0  0  0  0  0  0  0  0  0
  139.6266   68.1605  226.0698 H   0  0  0  0  0  0  0  0  0  0  0  0
  141.5455   71.2403  228.4002 H   0  0  0  0  0  0  0  0  0  0  0  0
  141.4754   72.7816  226.4553 H   0  0  0  0  0  0  0  0  0  0  0  0
  1  2  2  0
  2  3  1  0
  3  4  1  0
  4  5  1  0
  5  6  2  0
  5  7  1  0
  7  8  1  0
  8  9  1  0
  9 10  1  0
 10 11  1  0
 11 12  1  0
 12 13  1  0
 13 14  1  0
 14 15  1  0
 15 16  1  0
 16 17  1  0
 17 18  1  0
  2 19  1  0
 19 20  2  0
 20 21  1  0
 21 22  2  0
 22 23  1  0
 23 24  2  0
 24 25  1  0
 24 26  1  0
 26 27  2  0
 27 28  1  0
 28 29  2  0
 12  7  1  0
 18 13  1  0
 29 19  1  0
 28 22  1  0
  3 30  1  0
  4 31  1  0
  4 32  1  0
  8 33  1  0
  8 34  1  0
  9 35  1  0
  9 36  1  0
 10 37  1  0
 10 38  1  0
 11 39  1  0
 11 40  1  0
 12 41  1  6
 13 42  1  0
 14 43  1  0
 14 44  1  0
 15 45  1  0
 15 46  1  0
 16 47  1  0
 16 48  1  0
 17 49  1  0
 17 50  1  0
 18 51  1  0
 18 52  1  0
 20 53  1  0
 21 54  1  0
 23 55  1  0
 26 56  1  0
 27 57  1  0
M  END
>  <smiles>  (69) 
O=C(NCC(=O)N1CCCCC1C1CCCCC1)c1ccc2cc(Cl)ccc2n1

>  <score_type>  (69) 
oracle

>  <origin>  (69) 
autodockgpu

>  <m_score__min__energy>  (69) 
-9.1899999999999995

>  <m_primary>  (69) 
energy

>  <rmsd>  (69) 
2.8445794321190503

>  <m_score__min__rmsd>  (69) 
2.8445794321190503

>  <meeko>  (69) 
{"free_energy": -8.73, "intermolecular_energy": -10.22, "internal_energy": -1.43, "cluster_size": 37, "cluster_id": 1, "rank_in_cluster": 20}

>  <energy>  (69) 
-8.76

>  <cluster_rmsd>  (69) 
1.22

>  <cluster>  (69) 
1

$$$$

     RDKit          3D

 57 60  0  0  0  0  0  0  0  0999 V2000
  140.4930   72.5560  220.8790 O   0  0  0  0  0  0  0  0  0  0  0  0
  139.8670   72.8100  221.9600 C   0  0  0  0  0  0  0  0  0  0  0  0
  139.0580   73.9920  222.0860 N   0  0  0  0  0  0  0  0  0  0  0  0
  139.0040   74.8620  220.9110 C   0  0  0  0  0  0  0  0  0  0  0  0
  139.1650   76.2840  221.2990 C   0  0  0  0  0  0  0  0  0  0  0  0
  138.1730   76.9730  221.6590 O   0  0  0  0  0  0  0  0  0  0  0  0
  140.4240   76.9330  221.2850 N   0  0  0  0  0  0  0  0  0  0  0  0
  141.0520   77.3610  222.5490 C   0  0  0  0  0  0  0  0  0  0  0  0
  141.5260   78.7830  222.4460 C   0  0  0  0  0  0  0  0  0  0  0  0
  140.9060   79.4420  221.2360 C   0  0  0  0  0  0  0  0  0  0  0  0
  141.2750   78.7240  219.9580 C   0  0  0  0  0  0  0  0  0  0  0  0
  141.1790   77.2290  220.0880 C   0  0  1  0  0  0  0  0  0  0  0  0
  142.5270   76.5560  220.0970 C   0  0  0  0  0  0  0  0  0  0  0  0
  142.3380   75.1000  220.4620 C   0  0  0  0  0  0  0  0  0  0  0  0
  143.4750   74.2450  219.9330 C   0  0  0  0  0  0  0  0  0  0  0  0
  143.4780   74.1970  218.4200 C   0  0  0  0  0  0  0  0  0  0  0  0
  142.7460   75.4500  217.9370 C   0  0  0  0  0  0  0  0  0  0  0  0
  143.2480   76.5840  218.8050 C   0  0  0  0  0  0  0  0  0  0  0  0
  139.9610   71.9020  223.0960 C   0  0  0  0  0  0  0  0  0  0  0  0
  139.5410   70.5910  222.9480 C   0  0  0  0  0  0  0  0  0  0  0  0
  139.5910   69.6630  223.9610 C   0  0  0  0  0  0  0  0  0  0  0  0
  140.0830   70.0640  225.1730 C   0  0  0  0  0  0  0  0  0  0  0  0
  140.1330   69.1270  226.1920 C   0  0  0  0  0  0  0  0  0  0  0  0
  140.6320   69.5490  227.4050 C   0  0  0  0  0  0  0  0  0  0  0  0
  140.7120   68.3990  228.7200 Cl  0  0  0  0  0  0  0  0  0  0  0  0
  141.0600   70.8550  227.5820 C   0  0  0  0  0  0  0  0  0  0  0  0
  140.9930   71.7610  226.5400 C   0  0  0  0  0  0  0  0  0  0  0  0
  140.4990   71.3590  225.3210 C   0  0  0  0  0  0  0  0  0  0  0  0
  140.4360   72.2540  224.2960 N   0  0  0  0  0  0  0  0  0  0  0  0
  138.5440   74.2030  222.9700 H   0  0  0  0  0  0  0  0  0  0  0  0
  139.8124   74.5835  220.2190 H   0  0  0  0  0  0  0  0  0  0  0  0
  138.0244   74.7382  220.4262 H   0  0  0  0  0  0  0  0  0  0  0  0
  140.3166   77.2826  223.3633 H   0  0  0  0  0  0  0  0  0  0  0  0
  141.9160   76.7120  222.7546 H   0  0  0  0  0  0  0  0  0  0  0  0
  141.2318   79.3327  223.3523 H   0  0  0  0  0  0  0  0  0  0  0  0
  142.6213   78.7947  222.3450 H   0  0  0  0  0  0  0  0  0  0  0  0
  139.8116   79.4331  221.3467 H   0  0  0  0  0  0  0  0  0  0  0  0
  141.2874   80.4719  221.1732 H   0  0  0  0  0  0  0  0  0  0  0  0
  140.5937   79.0529  219.1595 H   0  0  0  0  0  0  0  0  0  0  0  0
  142.3211   78.9724  219.7256 H   0  0  0  0  0  0  0  0  0  0  0  0
  140.6634   76.8239  219.2048 H   0  0  0  0  0  0  0  0  0  0  0  0
  143.1320   77.1205  220.8218 H   0  0  0  0  0  0  0  0  0  0  0  0
  142.3002   75.0075  221.5575 H   0  0  0  0  0  0  0  0  0  0  0  0
  141.3998   74.7480  220.0083 H   0  0  0  0  0  0  0  0  0  0  0  0
  144.4301   74.6673  220.2788 H   0  0  0  0  0  0  0  0  0  0  0  0
  143.3395   73.2205  220.3097 H   0  0  0  0  0  0  0  0  0  0  0  0
  144.5115   74.1932  218.0432 H   0  0  0  0  0  0  0  0  0  0  0  0
  142.9843   73.2851  218.0529 H   0  0  0  0  0  0  0  0  0  0  0  0
  142.9786   75.6454  216.8798 H   0  0  0  0  0  0  0  0  0  0  0  0
  141.6547   75.3351  218.0138 H   0  0  0  0  0  0  0  0  0  0  0  0
  144.3270   76.4635  218.9819 H   0  0  0  0  0  0  0  0  0  0  0  0
  143.0705   77.5453  218.3006 H   0  0  0  0  0  0  0  0  0  0  0  0
  139.1474   70.2760  221.9703 H   0  0  0  0  0  0  0  0  0  0  0  0
  139.2463   68.6306  223.8021 H   0  0  0  0  0  0  0  0  0  0  0  0
  139.7899   68.0930  226.0397 H   0  0  0  0  0  0  0  0  0  0  0  0
  141.4556   71.1729  228.5579 H   0  0  0  0  0  0  0  0  0  0  0  0
  141.3327   72.7971  226.6849 H   0  0  0  0  0  0  0  0  0  0  0  0
  1  2  2  0
  2  3  1  0
  3  4  1  0
  4  5  1  0
  5  6  2  0
  5  7  1  0
  7  8  1  0
  8  9  1  0
  9 10  1  0
 10 11  1  0
 11 12  1  0
 12 13  1  0
 13 14  1  0
 14 15  1  0
 15 16  1  0
 16 17  1  0
 17 18  1  0
  2 19  1  0
 19 20  2  0
 20 21  1  0
 21 22  2  0
 22 23  1  0
 23 24  2  0
 24 25  1  0
 24 26  1  0
 26 27  2  0
 27 28  1  0
 28 29  2  0
 12  7  1  0
 18 13  1  0
 29 19  1  0
 28 22  1  0
  3 30  1  0
  4 31  1  0
  4 32  1  0
  8 33  1  0
  8 34  1  0
  9 35  1  0
  9 36  1  0
 10 37  1  0
 10 38  1  0
 11 39  1  0
 11 40  1  0
 12 41  1  6
 13 42  1  0
 14 43  1  0
 14 44  1  0
 15 45  1  0
 15 46  1  0
 16 47  1  0
 16 48  1  0
 17 49  1  0
 17 50  1  0
 18 51  1  0
 18 52  1  0
 20 53  1  0
 21 54  1  0
 23 55  1  0
 26 56  1  0
 27 57  1  0
M  END
>  <smiles>  (70) 
O=C(NCC(=O)N1CCCCC1C1CCCCC1)c1ccc2cc(Cl)ccc2n1

>  <score_type>  (70) 
oracle

>  <origin>  (70) 
autodockgpu

>  <m_score__min__energy>  (70) 
-9.1899999999999995

>  <m_primary>  (70) 
energy

>  <rmsd>  (70) 
2.826561505467345

>  <m_score__min__rmsd>  (70) 
2.826561505467345

>  <meeko>  (70) 
{"free_energy": -8.23, "intermolecular_energy": -9.72, "internal_energy": -1.82, "cluster_size": 37, "cluster_id": 1, "rank_in_cluster": 33}

>  <energy>  (70) 
-8.73

>  <cluster_rmsd>  (70) 
0.71

>  <cluster>  (70) 
1

$$$$

     RDKit          3D

 57 60  0  0  0  0  0  0  0  0999 V2000
  140.0120   71.9690  220.7370 O   0  0  0  0  0  0  0  0  0  0  0  0
  139.8260   72.4210  221.9140 C   0  0  0  0  0  0  0  0  0  0  0  0
  139.5100   73.8070  222.1340 N   0  0  0  0  0  0  0  0  0  0  0  0
  139.4180   74.6420  220.9350 C   0  0  0  0  0  0  0  0  0  0  0  0
  140.1870   75.8990  221.1070 C   0  0  0  0  0  0  0  0  0  0  0  0
  141.3500   76.0150  220.6370 O   0  0  0  0  0  0  0  0  0  0  0  0
  139.6610   77.0160  221.7990 N   0  0  0  0  0  0  0  0  0  0  0  0
  138.5240   76.8490  222.7240 C   0  0  0  0  0  0  0  0  0  0  0  0
  137.4670   77.8800  222.4500 C   0  0  0  0  0  0  0  0  0  0  0  0
  137.7190   78.5280  221.1110 C   0  0  0  0  0  0  0  0  0  0  0  0
  139.0680   79.2080  221.0640 C   0  0  0  0  0  0  0  0  0  0  0  0
  140.1590   78.3690  221.6700 C   0  0  1  0  0  0  0  0  0  0  0  0
  140.6490   78.9100  222.9880 C   0  0  0  0  0  0  0  0  0  0  0  0
  142.1480   79.0980  222.9070 C   0  0  0  0  0  0  0  0  0  0  0  0
  142.6280   80.1480  223.8920 C   0  0  0  0  0  0  0  0  0  0  0  0
  142.1130   81.5250  223.5340 C   0  0  0  0  0  0  0  0  0  0  0  0
  140.8510   81.3210  222.6950 C   0  0  0  0  0  0  0  0  0  0  0  0
  140.0730   80.2170  223.3790 C   0  0  0  0  0  0  0  0  0  0  0  0
  139.9310   71.5370  223.0680 C   0  0  0  0  0  0  0  0  0  0  0  0
  139.5050   70.2250  222.9540 C   0  0  0  0  0  0  0  0  0  0  0  0
  139.5640   69.3180  223.9850 C   0  0  0  0  0  0  0  0  0  0  0  0
  140.0730   69.7430  225.1820 C   0  0  0  0  0  0  0  0  0  0  0  0
  140.1330   68.8280  226.2200 C   0  0  0  0  0  0  0  0  0  0  0  0
  140.6480   69.2740  227.4180 C   0  0  0  0  0  0  0  0  0  0  0  0
  140.7410   68.1510  228.7560 Cl  0  0  0  0  0  0  0  0  0  0  0  0
  141.0830   70.5810  227.5620 C   0  0  0  0  0  0  0  0  0  0  0  0
  141.0070   71.4660  226.5010 C   0  0  0  0  0  0  0  0  0  0  0  0
  140.4950   71.0390  225.2970 C   0  0  0  0  0  0  0  0  0  0  0  0
  140.4220   71.9130  224.2540 N   0  0  0  0  0  0  0  0  0  0  0  0
  139.3570   74.1810  223.0960 H   0  0  0  0  0  0  0  0  0  0  0  0
  139.8232   74.0861  220.0767 H   0  0  0  0  0  0  0  0  0  0  0  0
  138.3617   74.8961  220.7630 H   0  0  0  0  0  0  0  0  0  0  0  0
  138.0938   75.8454  222.5912 H   0  0  0  0  0  0  0  0  0  0  0  0
  138.8837   76.9740  223.7560 H   0  0  0  0  0  0  0  0  0  0  0  0
  136.4790   77.3965  222.4414 H   0  0  0  0  0  0  0  0  0  0  0  0
  137.4971   78.6485  223.2365 H   0  0  0  0  0  0  0  0  0  0  0  0
  137.6816   77.7557  220.3286 H   0  0  0  0  0  0  0  0  0  0  0  0
  136.9442   79.2917  220.9484 H   0  0  0  0  0  0  0  0  0  0  0  0
  139.3230   79.4128  220.0138 H   0  0  0  0  0  0  0  0  0  0  0  0
  138.9948   80.1351  221.6515 H   0  0  0  0  0  0  0  0  0  0  0  0
  141.0373   78.3899  221.0081 H   0  0  0  0  0  0  0  0  0  0  0  0
  140.3348   78.1741  223.7427 H   0  0  0  0  0  0  0  0  0  0  0  0
  142.6415   78.1416  223.1345 H   0  0  0  0  0  0  0  0  0  0  0  0
  142.4004   79.4353  221.8908 H   0  0  0  0  0  0  0  0  0  0  0  0
  142.2703   79.8836  224.8980 H   0  0  0  0  0  0  0  0  0  0  0  0
  143.7272   80.1729  223.8596 H   0  0  0  0  0  0  0  0  0  0  0  0
  141.8732   82.0888  224.4476 H   0  0  0  0  0  0  0  0  0  0  0  0
  142.8695   82.0963  222.9761 H   0  0  0  0  0  0  0  0  0  0  0  0
  140.2570   82.2464  222.6658 H   0  0  0  0  0  0  0  0  0  0  0  0
  141.0951   81.0589  221.6549 H   0  0  0  0  0  0  0  0  0  0  0  0
  140.1411   80.3388  224.4701 H   0  0  0  0  0  0  0  0  0  0  0  0
  139.0164   80.2637  223.0767 H   0  0  0  0  0  0  0  0  0  0  0  0
  139.0981   69.8909  221.9882 H   0  0  0  0  0  0  0  0  0  0  0  0
  139.2134   68.2839  223.8522 H   0  0  0  0  0  0  0  0  0  0  0  0
  139.7853   67.7921  226.0939 H   0  0  0  0  0  0  0  0  0  0  0  0
  141.4916   70.9177  228.5262 H   0  0  0  0  0  0  0  0  0  0  0  0
  141.3533   72.5034  226.6190 H   0  0  0  0  0  0  0  0  0  0  0  0
  1  2  2  0
  2  3  1  0
  3  4  1  0
  4  5  1  0
  5  6  2  0
  5  7  1  0
  7  8  1  0
  8  9  1  0
  9 10  1  0
 10 11  1  0
 11 12  1  0
 12 13  1  0
 13 14  1  0
 14 15  1  0
 15 16  1  0
 16 17  1  0
 17 18  1  0
  2 19  1  0
 19 20  2  0
 20 21  1  0
 21 22  2  0
 22 23  1  0
 23 24  2  0
 24 25  1  0
 24 26  1  0
 26 27  2  0
 27 28  1  0
 28 29  2  0
 12  7  1  0
 18 13  1  0
 29 19  1  0
 28 22  1  0
  3 30  1  0
  4 31  1  0
  4 32  1  0
  8 33  1  0
  8 34  1  0
  9 35  1  0
  9 36  1  0
 10 37  1  0
 10 38  1  0
 11 39  1  0
 11 40  1  0
 12 41  1  6
 13 42  1  0
 14 43  1  0
 14 44  1  0
 15 45  1  0
 15 46  1  0
 16 47  1  0
 16 48  1  0
 17 49  1  0
 17 50  1  0
 18 51  1  0
 18 52  1  0
 20 53  1  0
 21 54  1  0
 23 55  1  0
 26 56  1  0
 27 57  1  0
M  END
>  <smiles>  (71) 
O=C(NCC(=O)N1CCCCC1C1CCCCC1)c1ccc2cc(Cl)ccc2n1

>  <score_type>  (71) 
oracle

>  <origin>  (71) 
autodockgpu

>  <m_score__min__energy>  (71) 
-9.1899999999999995

>  <m_primary>  (71) 
energy

>  <rmsd>  (71) 
2.867871476240767

>  <m_score__min__rmsd>  (71) 
2.867871476240767

>  <meeko>  (71) 
{"free_energy": -8.98, "intermolecular_energy": -10.47, "internal_energy": -1.44, "cluster_size": 37, "cluster_id": 1, "rank_in_cluster": 7}

>  <energy>  (71) 
-8.72

>  <cluster_rmsd>  (71) 
1.35

>  <cluster>  (71) 
1

$$$$

     RDKit          3D

 57 60  0  0  0  0  0  0  0  0999 V2000
  138.7430   71.6410  220.3820 O   0  0  0  0  0  0  0  0  0  0  0  0
  138.7070   72.1730  221.5410 C   0  0  0  0  0  0  0  0  0  0  0  0
  138.3010   73.5410  221.7150 N   0  0  0  0  0  0  0  0  0  0  0  0
  137.9400   74.2640  220.4950 C   0  0  0  0  0  0  0  0  0  0  0  0
  139.1420   74.8410  219.8470 C   0  0  0  0  0  0  0  0  0  0  0  0
  139.1640   75.0660  218.6080 O   0  0  0  0  0  0  0  0  0  0  0  0
  140.3120   75.1640  220.5770 N   0  0  0  0  0  0  0  0  0  0  0  0
  140.2110   75.6160  221.9770 C   0  0  0  0  0  0  0  0  0  0  0  0
  141.0350   76.8530  222.1920 C   0  0  0  0  0  0  0  0  0  0  0  0
  141.4160   77.4510  220.8580 C   0  0  0  0  0  0  0  0  0  0  0  0
  142.2210   76.4840  220.0210 C   0  0  0  0  0  0  0  0  0  0  0  0
  141.6550   75.0910  220.0470 C   0  0  1  0  0  0  0  0  0  0  0  0
  142.5110   74.1270  220.8270 C   0  0  0  0  0  0  0  0  0  0  0  0
  142.0740   72.7170  220.4990 C   0  0  0  0  0  0  0  0  0  0  0  0
  143.1950   71.7210  220.7340 C   0  0  0  0  0  0  0  0  0  0  0  0
  144.3400   71.9330  219.7680 C   0  0  0  0  0  0  0  0  0  0  0  0
  144.2600   73.3860  219.2990 C   0  0  0  0  0  0  0  0  0  0  0  0
  143.9610   74.2040  220.5380 C   0  0  0  0  0  0  0  0  0  0  0  0
  139.0780   71.3980  222.7180 C   0  0  0  0  0  0  0  0  0  0  0  0
  138.7350   70.0590  222.7810 C   0  0  0  0  0  0  0  0  0  0  0  0
  139.0420   69.2490  223.8490 C   0  0  0  0  0  0  0  0  0  0  0  0
  139.7230   69.8040  224.8970 C   0  0  0  0  0  0  0  0  0  0  0  0
  140.0320   68.9860  225.9720 C   0  0  0  0  0  0  0  0  0  0  0  0
  140.7180   69.5630  227.0190 C   0  0  0  0  0  0  0  0  0  0  0  0
  141.1280   68.5660  228.3970 Cl  0  0  0  0  0  0  0  0  0  0  0  0
  141.0760   70.9010  226.9840 C   0  0  0  0  0  0  0  0  0  0  0  0
  140.7480   71.6850  225.8920 C   0  0  0  0  0  0  0  0  0  0  0  0
  140.0640   71.1280  224.8370 C   0  0  0  0  0  0  0  0  0  0  0  0
  139.7440   71.9020  223.7640 N   0  0  0  0  0  0  0  0  0  0  0  0
  138.2700   73.9800  222.6610 H   0  0  0  0  0  0  0  0  0  0  0  0
  137.4522   73.5692  219.7955 H   0  0  0  0  0  0  0  0  0  0  0  0
  137.2565   75.0837  220.7613 H   0  0  0  0  0  0  0  0  0  0  0  0
  139.1591   75.8368  222.2110 H   0  0  0  0  0  0  0  0  0  0  0  0
  140.5873   74.8194  222.6357 H   0  0  0  0  0  0  0  0  0  0  0  0
  140.4505   77.5860  222.7674 H   0  0  0  0  0  0  0  0  0  0  0  0
  141.9478   76.5901  222.7467 H   0  0  0  0  0  0  0  0  0  0  0  0
  140.4990   77.7173  220.3119 H   0  0  0  0  0  0  0  0  0  0  0  0
  142.0358   78.3402  221.0455 H   0  0  0  0  0  0  0  0  0  0  0  0
  142.2311   76.8414  218.9807 H   0  0  0  0  0  0  0  0  0  0  0  0
  143.2358   76.4406  220.4433 H   0  0  0  0  0  0  0  0  0  0  0  0
  141.6367   74.6925  219.0219 H   0  0  0  0  0  0  0  0  0  0  0  0
  142.3720   74.4004  221.8834 H   0  0  0  0  0  0  0  0  0  0  0  0
  141.2185   72.4500  221.1367 H   0  0  0  0  0  0  0  0  0  0  0  0
  141.7949   72.6796  219.4357 H   0  0  0  0  0  0  0  0  0  0  0  0
  143.5685   71.8398  221.7618 H   0  0  0  0  0  0  0  0  0  0  0  0
  142.7946   70.7087  220.5761 H   0  0  0  0  0  0  0  0  0  0  0  0
  145.3000   71.7505  220.2730 H   0  0  0  0  0  0  0  0  0  0  0  0
  144.2715   71.2395  218.9169 H   0  0  0  0  0  0  0  0  0  0  0  0
  145.2169   73.6985  218.8554 H   0  0  0  0  0  0  0  0  0  0  0  0
  143.4863   73.5206  218.5287 H   0  0  0  0  0  0  0  0  0  0  0  0
  144.5289   73.8033  221.3906 H   0  0  0  0  0  0  0  0  0  0  0  0
  144.2520   75.2516  220.3713 H   0  0  0  0  0  0  0  0  0  0  0  0
  138.1887   69.6199  221.9332 H   0  0  0  0  0  0  0  0  0  0  0  0
  138.7492   68.1887  223.8600 H   0  0  0  0  0  0  0  0  0  0  0  0
  139.7430   67.9248  225.9890 H   0  0  0  0  0  0  0  0  0  0  0  0
  141.6242   71.3426  227.8292 H   0  0  0  0  0  0  0  0  0  0  0  0
  141.0326   72.7473  225.8679 H   0  0  0  0  0  0  0  0  0  0  0  0
  1  2  2  0
  2  3  1  0
  3  4  1  0
  4  5  1  0
  5  6  2  0
  5  7  1  0
  7  8  1  0
  8  9  1  0
  9 10  1  0
 10 11  1  0
 11 12  1  0
 12 13  1  0
 13 14  1  0
 14 15  1  0
 15 16  1  0
 16 17  1  0
 17 18  1  0
  2 19  1  0
 19 20  2  0
 20 21  1  0
 21 22  2  0
 22 23  1  0
 23 24  2  0
 24 25  1  0
 24 26  1  0
 26 27  2  0
 27 28  1  0
 28 29  2  0
 12  7  1  0
 18 13  1  0
 29 19  1  0
 28 22  1  0
  3 30  1  0
  4 31  1  0
  4 32  1  0
  8 33  1  0
  8 34  1  0
  9 35  1  0
  9 36  1  0
 10 37  1  0
 10 38  1  0
 11 39  1  0
 11 40  1  0
 12 41  1  6
 13 42  1  0
 14 43  1  0
 14 44  1  0
 15 45  1  0
 15 46  1  0
 16 47  1  0
 16 48  1  0
 17 49  1  0
 17 50  1  0
 18 51  1  0
 18 52  1  0
 20 53  1  0
 21 54  1  0
 23 55  1  0
 26 56  1  0
 27 57  1  0
M  END
>  <smiles>  (72) 
O=C(NCC(=O)N1CCCCC1C1CCCCC1)c1ccc2cc(Cl)ccc2n1

>  <score_type>  (72) 
oracle

>  <origin>  (72) 
autodockgpu

>  <m_score__min__energy>  (72) 
-9.1899999999999995

>  <m_primary>  (72) 
energy

>  <rmsd>  (72) 
2.396712535173432

>  <m_score__min__rmsd>  (72) 
2.396712535173432

>  <meeko>  (72) 
{"free_energy": -7.32, "intermolecular_energy": -8.81, "internal_energy": -2.21, "cluster_size": 8, "cluster_id": 3, "rank_in_cluster": 8}

>  <energy>  (72) 
-8.69

>  <cluster_rmsd>  (72) 
0.63

>  <cluster>  (72) 
1

$$$$

     RDKit          3D

 57 60  0  0  0  0  0  0  0  0999 V2000
  140.2800   72.4180  220.7570 O   0  0  0  0  0  0  0  0  0  0  0  0
  139.9740   72.8130  221.9310 C   0  0  0  0  0  0  0  0  0  0  0  0
  139.5760   74.1730  222.1730 N   0  0  0  0  0  0  0  0  0  0  0  0
  139.5460   75.0520  221.0040 C   0  0  0  0  0  0  0  0  0  0  0  0
  140.8170   75.8060  220.8770 C   0  0  0  0  0  0  0  0  0  0  0  0
  141.1470   76.6660  221.7360 O   0  0  0  0  0  0  0  0  0  0  0  0
  141.7110   75.6020  219.7980 N   0  0  0  0  0  0  0  0  0  0  0  0
  142.0550   76.7190  218.8980 C   0  0  0  0  0  0  0  0  0  0  0  0
  141.9250   76.2980  217.4630 C   0  0  0  0  0  0  0  0  0  0  0  0
  141.1520   75.0040  217.3770 C   0  0  0  0  0  0  0  0  0  0  0  0
  141.8360   73.8920  218.1380 C   0  0  0  0  0  0  0  0  0  0  0  0
  142.3400   74.3380  219.4830 C   0  0  1  0  0  0  0  0  0  0  0  0
  143.8430   74.4330  219.5420 C   0  0  0  0  0  0  0  0  0  0  0  0
  144.3130   73.8470  220.8550 C   0  0  0  0  0  0  0  0  0  0  0  0
  145.7470   73.3590  220.7600 C   0  0  0  0  0  0  0  0  0  0  0  0
  145.8730   72.1800  219.8210 C   0  0  0  0  0  0  0  0  0  0  0  0
  144.6850   72.2510  218.8600 C   0  0  0  0  0  0  0  0  0  0  0  0
  144.5570   73.7070  218.4680 C   0  0  0  0  0  0  0  0  0  0  0  0
  140.0230   71.8870  223.0550 C   0  0  0  0  0  0  0  0  0  0  0  0
  139.5690   70.5910  222.8830 C   0  0  0  0  0  0  0  0  0  0  0  0
  139.5760   69.6490  223.8840 C   0  0  0  0  0  0  0  0  0  0  0  0
  140.0590   70.0200  225.1080 C   0  0  0  0  0  0  0  0  0  0  0  0
  140.0660   69.0680  226.1150 C   0  0  0  0  0  0  0  0  0  0  0  0
  140.5560   69.4600  227.3420 C   0  0  0  0  0  0  0  0  0  0  0  0
  140.5810   68.2900  228.6420 Cl  0  0  0  0  0  0  0  0  0  0  0  0
  141.0180   70.7500  227.5440 C   0  0  0  0  0  0  0  0  0  0  0  0
  140.9940   71.6720  226.5130 C   0  0  0  0  0  0  0  0  0  0  0  0
  140.5090   71.3000  225.2810 C   0  0  0  0  0  0  0  0  0  0  0  0
  140.4880   72.2100  224.2680 N   0  0  0  0  0  0  0  0  0  0  0  0
  139.3250   74.5000  223.1320 H   0  0  0  0  0  0  0  0  0  0  0  0
  139.3959   74.4439  220.0997 H   0  0  0  0  0  0  0  0  0  0  0  0
  138.7215   75.7701  221.1248 H   0  0  0  0  0  0  0  0  0  0  0  0
  141.3749   77.5618  219.0909 H   0  0  0  0  0  0  0  0  0  0  0  0
  143.0959   77.0203  219.0872 H   0  0  0  0  0  0  0  0  0  0  0  0
  141.3930   77.0791  216.9001 H   0  0  0  0  0  0  0  0  0  0  0  0
  142.9279   76.1507  217.0357 H   0  0  0  0  0  0  0  0  0  0  0  0
  140.1482   75.1598  217.7992 H   0  0  0  0  0  0  0  0  0  0  0  0
  141.0935   74.7095  216.3188 H   0  0  0  0  0  0  0  0  0  0  0  0
  141.1179   73.0718  218.2849 H   0  0  0  0  0  0  0  0  0  0  0  0
  142.7052   73.5684  217.5465 H   0  0  0  0  0  0  0  0  0  0  0  0
  142.0716   73.5820  220.2356 H   0  0  0  0  0  0  0  0  0  0  0  0
  144.0748   75.5019  219.4248 H   0  0  0  0  0  0  0  0  0  0  0  0
  144.2485   74.6194  221.6355 H   0  0  0  0  0  0  0  0  0  0  0  0
  143.6703   72.9891  221.1019 H   0  0  0  0  0  0  0  0  0  0  0  0
  146.3794   74.1794  220.3898 H   0  0  0  0  0  0  0  0  0  0  0  0
  146.0678   73.0368  221.7616 H   0  0  0  0  0  0  0  0  0  0  0  0
  146.8175   72.2416  219.2606 H   0  0  0  0  0  0  0  0  0  0  0  0
  145.8744   71.2310  220.3772 H   0  0  0  0  0  0  0  0  0  0  0  0
  144.8736   71.6304  217.9716 H   0  0  0  0  0  0  0  0  0  0  0  0
  143.7631   71.8756  219.3281 H   0  0  0  0  0  0  0  0  0  0  0  0
  145.5582   74.1417  218.3312 H   0  0  0  0  0  0  0  0  0  0  0  0
  143.9959   73.7907  217.5256 H   0  0  0  0  0  0  0  0  0  0  0  0
  139.1829   70.2999  221.8950 H   0  0  0  0  0  0  0  0  0  0  0  0
  139.2048   68.6290  223.7059 H   0  0  0  0  0  0  0  0  0  0  0  0
  139.6972   68.0461  225.9428 H   0  0  0  0  0  0  0  0  0  0  0  0
  141.4065   71.0432  228.5305 H   0  0  0  0  0  0  0  0  0  0  0  0
  141.3605   72.6960  226.6775 H   0  0  0  0  0  0  0  0  0  0  0  0
  1  2  2  0
  2  3  1  0
  3  4  1  0
  4  5  1  0
  5  6  2  0
  5  7  1  0
  7  8  1  0
  8  9  1  0
  9 10  1  0
 10 11  1  0
 11 12  1  0
 12 13  1  0
 13 14  1  0
 14 15  1  0
 15 16  1  0
 16 17  1  0
 17 18  1  0
  2 19  1  0
 19 20  2  0
 20 21  1  0
 21 22  2  0
 22 23  1  0
 23 24  2  0
 24 25  1  0
 24 26  1  0
 26 27  2  0
 27 28  1  0
 28 29  2  0
 12  7  1  0
 18 13  1  0
 29 19  1  0
 28 22  1  0
  3 30  1  0
  4 31  1  0
  4 32  1  0
  8 33  1  0
  8 34  1  0
  9 35  1  0
  9 36  1  0
 10 37  1  0
 10 38  1  0
 11 39  1  0
 11 40  1  0
 12 41  1  1
 13 42  1  0
 14 43  1  0
 14 44  1  0
 15 45  1  0
 15 46  1  0
 16 47  1  0
 16 48  1  0
 17 49  1  0
 17 50  1  0
 18 51  1  0
 18 52  1  0
 20 53  1  0
 21 54  1  0
 23 55  1  0
 26 56  1  0
 27 57  1  0
M  END
>  <smiles>  (73) 
O=C(NCC(=O)N1CCCCC1C1CCCCC1)c1ccc2cc(Cl)ccc2n1

>  <score_type>  (73) 
oracle

>  <origin>  (73) 
autodockgpu

>  <m_score__min__energy>  (73) 
-9.1899999999999995

>  <m_primary>  (73) 
energy

>  <rmsd>  (73) 
2.315437045276663

>  <m_score__min__rmsd>  (73) 
2.315437045276663

>  <meeko>  (73) 
{"free_energy": -7.83, "intermolecular_energy": -9.32, "internal_energy": -1.9, "cluster_size": 8, "cluster_id": 3, "rank_in_cluster": 5}

>  <energy>  (73) 
-8.64

>  <cluster_rmsd>  (73) 
0.92

>  <cluster>  (73) 
1

$$$$

     RDKit          3D

 57 60  0  0  0  0  0  0  0  0999 V2000
  139.5750   71.8950  220.7670 O   0  0  0  0  0  0  0  0  0  0  0  0
  139.6290   72.3840  221.9430 C   0  0  0  0  0  0  0  0  0  0  0  0
  139.5280   73.8020  222.1610 N   0  0  0  0  0  0  0  0  0  0  0  0
  139.3620   74.6250  220.9630 C   0  0  0  0  0  0  0  0  0  0  0  0
  140.5460   75.4930  220.7500 C   0  0  0  0  0  0  0  0  0  0  0  0
  141.7110   75.0130  220.7690 O   0  0  0  0  0  0  0  0  0  0  0  0
  140.4300   76.8850  220.5180 N   0  0  0  0  0  0  0  0  0  0  0  0
  139.1950   77.4390  219.9330 C   0  0  0  0  0  0  0  0  0  0  0  0
  139.5210   78.3690  218.8000 C   0  0  0  0  0  0  0  0  0  0  0  0
  140.9590   78.1780  218.3790 C   0  0  0  0  0  0  0  0  0  0  0  0
  141.9160   78.4600  219.5140 C   0  0  0  0  0  0  0  0  0  0  0  0
  141.4630   77.8540  220.8140 C   0  0  1  0  0  0  0  0  0  0  0  0
  140.9930   78.8850  221.8070 C   0  0  0  0  0  0  0  0  0  0  0  0
  141.3110   78.3930  223.2020 C   0  0  0  0  0  0  0  0  0  0  0  0
  141.4350   79.5470  224.1800 C   0  0  0  0  0  0  0  0  0  0  0  0
  142.6330   80.4160  223.8670 C   0  0  0  0  0  0  0  0  0  0  0  0
  142.9540   80.2090  222.3860 C   0  0  0  0  0  0  0  0  0  0  0  0
  141.6210   80.2170  221.6680 C   0  0  0  0  0  0  0  0  0  0  0  0
  139.7950   71.5090  223.0970 C   0  0  0  0  0  0  0  0  0  0  0  0
  139.4130   70.1820  222.9980 C   0  0  0  0  0  0  0  0  0  0  0  0
  139.5310   69.2830  224.0320 C   0  0  0  0  0  0  0  0  0  0  0  0
  140.0550   69.7320  225.2130 C   0  0  0  0  0  0  0  0  0  0  0  0
  140.1730   68.8240  226.2530 C   0  0  0  0  0  0  0  0  0  0  0  0
  140.7020   69.2940  227.4350 C   0  0  0  0  0  0  0  0  0  0  0  0
  140.8690   68.1810  228.7750 Cl  0  0  0  0  0  0  0  0  0  0  0  0
  141.0930   70.6160  227.5640 C   0  0  0  0  0  0  0  0  0  0  0  0
  140.9580   71.4920  226.5020 C   0  0  0  0  0  0  0  0  0  0  0  0
  140.4320   71.0430  225.3130 C   0  0  0  0  0  0  0  0  0  0  0  0
  140.3020   71.9080  224.2690 N   0  0  0  0  0  0  0  0  0  0  0  0
  139.5720   74.2050  223.1230 H   0  0  0  0  0  0  0  0  0  0  0  0
  139.2347   73.9685  220.0896 H   0  0  0  0  0  0  0  0  0  0  0  0
  138.4764   75.2640  221.0950 H   0  0  0  0  0  0  0  0  0  0  0  0
  138.5713   76.6148  219.5567 H   0  0  0  0  0  0  0  0  0  0  0  0
  138.6541   78.0000  220.7094 H   0  0  0  0  0  0  0  0  0  0  0  0
  138.8593   78.1529  217.9482 H   0  0  0  0  0  0  0  0  0  0  0  0
  139.3739   79.4082  219.1293 H   0  0  0  0  0  0  0  0  0  0  0  0
  141.0978   77.1390  218.0455 H   0  0  0  0  0  0  0  0  0  0  0  0
  141.1747   78.8855  217.5648 H   0  0  0  0  0  0  0  0  0  0  0  0
  142.9014   78.0449  219.2558 H   0  0  0  0  0  0  0  0  0  0  0  0
  141.9596   79.5506  219.6511 H   0  0  0  0  0  0  0  0  0  0  0  0
  142.3189   77.3609  221.2979 H   0  0  0  0  0  0  0  0  0  0  0  0
  139.9170   79.0089  221.6150 H   0  0  0  0  0  0  0  0  0  0  0  0
  140.5053   77.7238  223.5381 H   0  0  0  0  0  0  0  0  0  0  0  0
  142.2728   77.8600  223.1708 H   0  0  0  0  0  0  0  0  0  0  0  0
  140.5242   80.1613  224.1246 H   0  0  0  0  0  0  0  0  0  0  0  0
  141.5668   79.1299  225.1893 H   0  0  0  0  0  0  0  0  0  0  0  0
  142.3948   81.4726  224.0588 H   0  0  0  0  0  0  0  0  0  0  0  0
  143.4922   80.1462  224.4986 H   0  0  0  0  0  0  0  0  0  0  0  0
  143.5932   81.0239  222.0154 H   0  0  0  0  0  0  0  0  0  0  0  0
  143.4978   79.2677  222.2181 H   0  0  0  0  0  0  0  0  0  0  0  0
  140.9669   80.9816  222.1125 H   0  0  0  0  0  0  0  0  0  0  0  0
  141.7730   80.4477  220.6033 H   0  0  0  0  0  0  0  0  0  0  0  0
  138.9940   69.8289  222.0442 H   0  0  0  0  0  0  0  0  0  0  0  0
  139.2142   68.2364  223.9131 H   0  0  0  0  0  0  0  0  0  0  0  0
  139.8587   67.7759  226.1400 H   0  0  0  0  0  0  0  0  0  0  0  0
  141.5133   70.9716  228.5163 H   0  0  0  0  0  0  0  0  0  0  0  0
  141.2695   72.5417  226.6077 H   0  0  0  0  0  0  0  0  0  0  0  0
  1  2  2  0
  2  3  1  0
  3  4  1  0
  4  5  1  0
  5  6  2  0
  5  7  1  0
  7  8  1  0
  8  9  1  0
  9 10  1  0
 10 11  1  0
 11 12  1  0
 12 13  1  0
 13 14  1  0
 14 15  1  0
 15 16  1  0
 16 17  1  0
 17 18  1  0
  2 19  1  0
 19 20  2  0
 20 21  1  0
 21 22  2  0
 22 23  1  0
 23 24  2  0
 24 25  1  0
 24 26  1  0
 26 27  2  0
 27 28  1  0
 28 29  2  0
 12  7  1  0
 18 13  1  0
 29 19  1  0
 28 22  1  0
  3 30  1  0
  4 31  1  0
  4 32  1  0
  8 33  1  0
  8 34  1  0
  9 35  1  0
  9 36  1  0
 10 37  1  0
 10 38  1  0
 11 39  1  0
 11 40  1  0
 12 41  1  1
 13 42  1  0
 14 43  1  0
 14 44  1  0
 15 45  1  0
 15 46  1  0
 16 47  1  0
 16 48  1  0
 17 49  1  0
 17 50  1  0
 18 51  1  0
 18 52  1  0
 20 53  1  0
 21 54  1  0
 23 55  1  0
 26 56  1  0
 27 57  1  0
M  END
>  <smiles>  (74) 
O=C(NCC(=O)N1CCCCC1C1CCCCC1)c1ccc2cc(Cl)ccc2n1

>  <score_type>  (74) 
oracle

>  <origin>  (74) 
autodockgpu

>  <m_score__min__energy>  (74) 
-9.1899999999999995

>  <m_primary>  (74) 
energy

>  <rmsd>  (74) 
1.777085073246222

>  <m_score__min__rmsd>  (74) 
1.777085073246222

>  <meeko>  (74) 
{"free_energy": -8.61, "intermolecular_energy": -10.1, "internal_energy": -1.51, "cluster_size": 37, "cluster_id": 1, "rank_in_cluster": 24}

>  <energy>  (74) 
-8.61

>  <cluster_rmsd>  (74) 
1.1

>  <cluster>  (74) 
1

$$$$

     RDKit          3D

 57 60  0  0  0  0  0  0  0  0999 V2000
  139.5770   71.8890  220.7370 O   0  0  0  0  0  0  0  0  0  0  0  0
  139.5810   72.3710  221.9180 C   0  0  0  0  0  0  0  0  0  0  0  0
  139.4260   73.7820  222.1420 N   0  0  0  0  0  0  0  0  0  0  0  0
  139.2640   74.6080  220.9440 C   0  0  0  0  0  0  0  0  0  0  0  0
  139.9300   75.9230  221.1160 C   0  0  0  0  0  0  0  0  0  0  0  0
  141.1010   76.1140  220.6930 O   0  0  0  0  0  0  0  0  0  0  0  0
  139.2930   77.0140  221.7550 N   0  0  0  0  0  0  0  0  0  0  0  0
  138.2110   76.7750  222.7280 C   0  0  0  0  0  0  0  0  0  0  0  0
  137.0300   77.6530  222.4280 C   0  0  0  0  0  0  0  0  0  0  0  0
  137.1650   78.2360  221.0420 C   0  0  0  0  0  0  0  0  0  0  0  0
  138.4200   79.0660  220.9050 C   0  0  0  0  0  0  0  0  0  0  0  0
  139.6200   78.4040  221.5240 C   0  0  1  0  0  0  0  0  0  0  0  0
  140.0780   79.0860  222.7870 C   0  0  0  0  0  0  0  0  0  0  0  0
  141.4570   78.5750  223.1400 C   0  0  0  0  0  0  0  0  0  0  0  0
  142.2190   79.5770  223.9870 C   0  0  0  0  0  0  0  0  0  0  0  0
  142.5350   80.8370  223.2090 C   0  0  0  0  0  0  0  0  0  0  0  0
  141.5090   80.9280  222.0790 C   0  0  0  0  0  0  0  0  0  0  0  0
  140.1770   80.5600  222.6990 C   0  0  0  0  0  0  0  0  0  0  0  0
  139.7460   71.4940  223.0700 C   0  0  0  0  0  0  0  0  0  0  0  0
  139.3650   70.1670  222.9690 C   0  0  0  0  0  0  0  0  0  0  0  0
  139.4820   69.2660  224.0010 C   0  0  0  0  0  0  0  0  0  0  0  0
  140.0020   69.7130  225.1840 C   0  0  0  0  0  0  0  0  0  0  0  0
  140.1200   68.8030  226.2230 C   0  0  0  0  0  0  0  0  0  0  0  0
  140.6460   69.2710  227.4070 C   0  0  0  0  0  0  0  0  0  0  0  0
  140.8110   68.1560  228.7450 Cl  0  0  0  0  0  0  0  0  0  0  0  0
  141.0360   70.5940  227.5380 C   0  0  0  0  0  0  0  0  0  0  0  0
  140.9020   71.4720  226.4780 C   0  0  0  0  0  0  0  0  0  0  0  0
  140.3790   71.0240  225.2870 C   0  0  0  0  0  0  0  0  0  0  0  0
  140.2500   71.8910  224.2440 N   0  0  0  0  0  0  0  0  0  0  0  0
  139.4290   74.1810  223.1060 H   0  0  0  0  0  0  0  0  0  0  0  0
  139.7106   74.0874  220.0840 H   0  0  0  0  0  0  0  0  0  0  0  0
  138.1902   74.7763  220.7746 H   0  0  0  0  0  0  0  0  0  0  0  0
  137.9015   75.7209  222.6734 H   0  0  0  0  0  0  0  0  0  0  0  0
  138.5816   77.0098  223.7367 H   0  0  0  0  0  0  0  0  0  0  0  0
  136.1076   77.0564  222.4849 H   0  0  0  0  0  0  0  0  0  0  0  0
  136.9889   78.4701  223.1632 H   0  0  0  0  0  0  0  0  0  0  0  0
  137.1994   77.4144  220.3114 H   0  0  0  0  0  0  0  0  0  0  0  0
  136.2996   78.8899  220.8592 H   0  0  0  0  0  0  0  0  0  0  0  0
  138.6198   79.2291  219.8357 H   0  0  0  0  0  0  0  0  0  0  0  0
  138.2519   80.0151  221.4350 H   0  0  0  0  0  0  0  0  0  0  0  0
  140.4707   78.4844  220.8313 H   0  0  0  0  0  0  0  0  0  0  0  0
  139.3120   78.8527  223.5412 H   0  0  0  0  0  0  0  0  0  0  0  0
  141.3572   77.6344  223.7015 H   0  0  0  0  0  0  0  0  0  0  0  0
  142.0162   78.4149  222.2064 H   0  0  0  0  0  0  0  0  0  0  0  0
  141.6084   79.8418  224.8628 H   0  0  0  0  0  0  0  0  0  0  0  0
  143.1686   79.1155  224.2957 H   0  0  0  0  0  0  0  0  0  0  0  0
  142.4553   81.7167  223.8645 H   0  0  0  0  0  0  0  0  0  0  0  0
  143.5597   80.8078  222.8101 H   0  0  0  0  0  0  0  0  0  0  0  0
  141.4739   81.9506  221.6752 H   0  0  0  0  0  0  0  0  0  0  0  0
  141.7656   80.2584  221.2448 H   0  0  0  0  0  0  0  0  0  0  0  0
  140.1063   80.9953  223.7067 H   0  0  0  0  0  0  0  0  0  0  0  0
  139.3572   80.9514  222.0787 H   0  0  0  0  0  0  0  0  0  0  0  0
  138.9472   69.8153  222.0141 H   0  0  0  0  0  0  0  0  0  0  0  0
  139.1673   68.2191  223.8789 H   0  0  0  0  0  0  0  0  0  0  0  0
  139.8077   67.7546  226.1073 H   0  0  0  0  0  0  0  0  0  0  0  0
  141.4550   70.9483  228.4914 H   0  0  0  0  0  0  0  0  0  0  0  0
  141.2116   72.5219  226.5864 H   0  0  0  0  0  0  0  0  0  0  0  0
  1  2  2  0
  2  3  1  0
  3  4  1  0
  4  5  1  0
  5  6  2  0
  5  7  1  0
  7  8  1  0
  8  9  1  0
  9 10  1  0
 10 11  1  0
 11 12  1  0
 12 13  1  0
 13 14  1  0
 14 15  1  0
 15 16  1  0
 16 17  1  0
 17 18  1  0
  2 19  1  0
 19 20  2  0
 20 21  1  0
 21 22  2  0
 22 23  1  0
 23 24  2  0
 24 25  1  0
 24 26  1  0
 26 27  2  0
 27 28  1  0
 28 29  2  0
 12  7  1  0
 18 13  1  0
 29 19  1  0
 28 22  1  0
  3 30  1  0
  4 31  1  0
  4 32  1  0
  8 33  1  0
  8 34  1  0
  9 35  1  0
  9 36  1  0
 10 37  1  0
 10 38  1  0
 11 39  1  0
 11 40  1  0
 12 41  1  6
 13 42  1  0
 14 43  1  0
 14 44  1  0
 15 45  1  0
 15 46  1  0
 16 47  1  0
 16 48  1  0
 17 49  1  0
 17 50  1  0
 18 51  1  0
 18 52  1  0
 20 53  1  0
 21 54  1  0
 23 55  1  0
 26 56  1  0
 27 57  1  0
M  END
>  <smiles>  (75) 
O=C(NCC(=O)N1CCCCC1C1CCCCC1)c1ccc2cc(Cl)ccc2n1

>  <score_type>  (75) 
oracle

>  <origin>  (75) 
autodockgpu

>  <m_score__min__energy>  (75) 
-9.1899999999999995

>  <m_primary>  (75) 
energy

>  <rmsd>  (75) 
2.904508139725696

>  <m_score__min__rmsd>  (75) 
2.904508139725696

>  <meeko>  (75) 
{"free_energy": -8.69, "intermolecular_energy": -10.18, "internal_energy": -1.53, "cluster_size": 37, "cluster_id": 1, "rank_in_cluster": 22}

>  <energy>  (75) 
-8.6

>  <cluster_rmsd>  (75) 
1.25

>  <cluster>  (75) 
1

$$$$

     RDKit          3D

 57 60  0  0  0  0  0  0  0  0999 V2000
  142.6780   80.1570  218.5690 O   0  0  0  0  0  0  0  0  0  0  0  0
  142.0120   79.1100  218.8620 C   0  0  0  0  0  0  0  0  0  0  0  0
  140.6790   79.2050  219.3920 N   0  0  0  0  0  0  0  0  0  0  0  0
  140.1520   80.5590  219.5660 C   0  0  0  0  0  0  0  0  0  0  0  0
  140.8230   81.2450  220.6970 C   0  0  0  0  0  0  0  0  0  0  0  0
  141.2020   82.4420  220.5940 O   0  0  0  0  0  0  0  0  0  0  0  0
  141.0700   80.5990  221.9330 N   0  0  0  0  0  0  0  0  0  0  0  0
  140.7660   81.2850  223.2020 C   0  0  0  0  0  0  0  0  0  0  0  0
  141.9300   81.1840  224.1470 C   0  0  0  0  0  0  0  0  0  0  0  0
  143.1600   80.7360  223.3950 C   0  0  0  0  0  0  0  0  0  0  0  0
  142.9590   79.3870  222.7450 C   0  0  0  0  0  0  0  0  0  0  0  0
  141.6220   79.2690  222.0660 C   0  0  1  0  0  0  0  0  0  0  0  0
  140.6790   78.3430  222.7890 C   0  0  0  0  0  0  0  0  0  0  0  0
  139.2980   78.4960  222.1930 C   0  0  0  0  0  0  0  0  0  0  0  0
  138.4590   77.2500  222.4120 C   0  0  0  0  0  0  0  0  0  0  0  0
  139.0090   76.0670  221.6450 C   0  0  0  0  0  0  0  0  0  0  0  0
  140.4930   76.3480  221.4020 C   0  0  0  0  0  0  0  0  0  0  0  0
  141.0260   76.9070  222.7040 C   0  0  0  0  0  0  0  0  0  0  0  0
  142.5940   77.7880  218.6630 C   0  0  0  0  0  0  0  0  0  0  0  0
  142.9060   77.3730  217.3800 C   0  0  0  0  0  0  0  0  0  0  0  0
  143.4560   76.1460  217.0950 C   0  0  0  0  0  0  0  0  0  0  0  0
  143.7060   75.2990  218.1400 C   0  0  0  0  0  0  0  0  0  0  0  0
  144.2610   74.0630  217.8510 C   0  0  0  0  0  0  0  0  0  0  0  0
  144.5050   73.2230  218.9160 C   0  0  0  0  0  0  0  0  0  0  0  0
  145.2050   71.6520  218.5960 Cl  0  0  0  0  0  0  0  0  0  0  0  0
  144.2040   73.6110  220.2110 C   0  0  0  0  0  0  0  0  0  0  0  0
  143.6490   74.8540  220.4590 C   0  0  0  0  0  0  0  0  0  0  0  0
  143.3980   75.7070  219.4090 C   0  0  0  0  0  0  0  0  0  0  0  0
  142.8530   76.9300  219.6570 N   0  0  0  0  0  0  0  0  0  0  0  0
  140.1310   78.3500  219.6320 H   0  0  0  0  0  0  0  0  0  0  0  0
  140.3226   81.1335  218.6436 H   0  0  0  0  0  0  0  0  0  0  0  0
  139.0756   80.4928  219.7828 H   0  0  0  0  0  0  0  0  0  0  0  0
  140.5556   82.3454  222.9989 H   0  0  0  0  0  0  0  0  0  0  0  0
  139.8901   80.8063  223.6641 H   0  0  0  0  0  0  0  0  0  0  0  0
  142.1179   82.1678  224.6019 H   0  0  0  0  0  0  0  0  0  0  0  0
  141.6974   80.4511  224.9336 H   0  0  0  0  0  0  0  0  0  0  0  0
  143.3900   81.4766  222.6148 H   0  0  0  0  0  0  0  0  0  0  0  0
  143.9881   80.6495  224.1139 H   0  0  0  0  0  0  0  0  0  0  0  0
  143.7499   79.2349  221.9958 H   0  0  0  0  0  0  0  0  0  0  0  0
  143.0005   78.6246  223.5368 H   0  0  0  0  0  0  0  0  0  0  0  0
  141.7624   78.8156  221.0737 H   0  0  0  0  0  0  0  0  0  0  0  0
  140.7392   78.6325  223.8485 H   0  0  0  0  0  0  0  0  0  0  0  0
  138.7967   79.3529  222.6668 H   0  0  0  0  0  0  0  0  0  0  0  0
  139.4042   78.6559  221.1099 H   0  0  0  0  0  0  0  0  0  0  0  0
  138.4523   77.0080  223.4850 H   0  0  0  0  0  0  0  0  0  0  0  0
  137.4406   77.4524  222.0490 H   0  0  0  0  0  0  0  0  0  0  0  0
  138.8897   75.1455  222.2338 H   0  0  0  0  0  0  0  0  0  0  0  0
  138.4728   75.9296  220.6944 H   0  0  0  0  0  0  0  0  0  0  0  0
  141.0207   75.4192  221.1395 H   0  0  0  0  0  0  0  0  0  0  0  0
  140.6406   77.0512  220.5691 H   0  0  0  0  0  0  0  0  0  0  0  0
  140.5741   76.3676  223.5495 H   0  0  0  0  0  0  0  0  0  0  0  0
  142.1186   76.7856  222.7412 H   0  0  0  0  0  0  0  0  0  0  0  0
  142.7034   78.0605  216.5455 H   0  0  0  0  0  0  0  0  0  0  0  0
  143.6877   75.8544  216.0600 H   0  0  0  0  0  0  0  0  0  0  0  0
  144.4962   73.7656  216.8184 H   0  0  0  0  0  0  0  0  0  0  0  0
  144.4074   72.9266  221.0478 H   0  0  0  0  0  0  0  0  0  0  0  0
  143.4101   75.1582  221.4887 H   0  0  0  0  0  0  0  0  0  0  0  0
  1  2  2  0
  2  3  1  0
  3  4  1  0
  4  5  1  0
  5  6  2  0
  5  7  1  0
  7  8  1  0
  8  9  1  0
  9 10  1  0
 10 11  1  0
 11 12  1  0
 12 13  1  0
 13 14  1  0
 14 15  1  0
 15 16  1  0
 16 17  1  0
 17 18  1  0
  2 19  1  0
 19 20  2  0
 20 21  1  0
 21 22  2  0
 22 23  1  0
 23 24  2  0
 24 25  1  0
 24 26  1  0
 26 27  2  0
 27 28  1  0
 28 29  2  0
 12  7  1  0
 18 13  1  0
 29 19  1  0
 28 22  1  0
  3 30  1  0
  4 31  1  0
  4 32  1  0
  8 33  1  0
  8 34  1  0
  9 35  1  0
  9 36  1  0
 10 37  1  0
 10 38  1  0
 11 39  1  0
 11 40  1  0
 12 41  1  6
 13 42  1  0
 14 43  1  0
 14 44  1  0
 15 45  1  0
 15 46  1  0
 16 47  1  0
 16 48  1  0
 17 49  1  0
 17 50  1  0
 18 51  1  0
 18 52  1  0
 20 53  1  0
 21 54  1  0
 23 55  1  0
 26 56  1  0
 27 57  1  0
M  END
>  <smiles>  (76) 
O=C(NCC(=O)N1CCCCC1C1CCCCC1)c1ccc2cc(Cl)ccc2n1

>  <score_type>  (76) 
oracle

>  <origin>  (76) 
autodockgpu

>  <m_score__min__energy>  (76) 
-9.1899999999999995

>  <m_primary>  (76) 
energy

>  <rmsd>  (76) 
8.52975380884834

>  <m_score__min__rmsd>  (76) 
8.52975380884834

>  <meeko>  (76) 
{"free_energy": -6.7, "intermolecular_energy": -8.19, "internal_energy": -2.61, "cluster_size": 2, "cluster_id": 5, "rank_in_cluster": 2}

>  <energy>  (76) 
-8.39

>  <cluster_rmsd>  (76) 
1.05

>  <cluster>  (76) 
1

$$$$

     RDKit          3D

 57 60  0  0  0  0  0  0  0  0999 V2000
  141.1120   72.7500  221.3840 O   0  0  0  0  0  0  0  0  0  0  0  0
  140.2310   72.8410  222.3020 C   0  0  0  0  0  0  0  0  0  0  0  0
  139.2330   73.8750  222.2690 N   0  0  0  0  0  0  0  0  0  0  0  0
  139.2990   74.7950  221.1330 C   0  0  0  0  0  0  0  0  0  0  0  0
  139.1380   76.2000  221.5800 C   0  0  0  0  0  0  0  0  0  0  0  0
  138.3540   76.4920  222.5220 O   0  0  0  0  0  0  0  0  0  0  0  0
  139.8460   77.2690  220.9800 N   0  0  0  0  0  0  0  0  0  0  0  0
  139.3390   77.8930  219.7430 C   0  0  0  0  0  0  0  0  0  0  0  0
  140.4380   78.0150  218.7270 C   0  0  0  0  0  0  0  0  0  0  0  0
  141.6100   77.1550  219.1350 C   0  0  0  0  0  0  0  0  0  0  0  0
  142.1610   77.5630  220.4820 C   0  0  0  0  0  0  0  0  0  0  0  0
  141.0790   77.8250  221.4920 C   0  0  1  0  0  0  0  0  0  0  0  0
  140.9350   79.2870  221.8270 C   0  0  0  0  0  0  0  0  0  0  0  0
  140.5570   79.4140  223.2860 C   0  0  0  0  0  0  0  0  0  0  0  0
  140.9640   80.7640  223.8480 C   0  0  0  0  0  0  0  0  0  0  0  0
  142.4690   80.9170  223.8930 C   0  0  0  0  0  0  0  0  0  0  0  0
  143.0430   79.9580  222.8490 C   0  0  0  0  0  0  0  0  0  0  0  0
  142.1580   80.0970  221.6290 C   0  0  0  0  0  0  0  0  0  0  0  0
  140.2190   71.8920  223.4080 C   0  0  0  0  0  0  0  0  0  0  0  0
  139.7070   70.6220  223.2020 C   0  0  0  0  0  0  0  0  0  0  0  0
  139.6540   69.6610  224.1840 C   0  0  0  0  0  0  0  0  0  0  0  0
  140.1340   69.9840  225.4230 C   0  0  0  0  0  0  0  0  0  0  0  0
  140.0800   69.0140  226.4100 C   0  0  0  0  0  0  0  0  0  0  0  0
  140.5680   69.3580  227.6520 C   0  0  0  0  0  0  0  0  0  0  0  0
  140.5190   68.1630  228.9280 Cl  0  0  0  0  0  0  0  0  0  0  0  0
  141.0870   70.6210  227.8870 C   0  0  0  0  0  0  0  0  0  0  0  0
  141.1230   71.5630  226.8750 C   0  0  0  0  0  0  0  0  0  0  0  0
  140.6410   71.2380  225.6280 C   0  0  0  0  0  0  0  0  0  0  0  0
  140.6790   72.1680  224.6330 N   0  0  0  0  0  0  0  0  0  0  0  0
  138.5100   73.9530  223.0180 H   0  0  0  0  0  0  0  0  0  0  0  0
  140.2742   74.6846  220.6363 H   0  0  0  0  0  0  0  0  0  0  0  0
  138.4833   74.5522  220.4361 H   0  0  0  0  0  0  0  0  0  0  0  0
  138.5308   77.2720  219.3292 H   0  0  0  0  0  0  0  0  0  0  0  0
  138.9610   78.8983  219.9807 H   0  0  0  0  0  0  0  0  0  0  0  0
  140.0665   77.6843  217.7459 H   0  0  0  0  0  0  0  0  0  0  0  0
  140.7616   79.0646  218.6665 H   0  0  0  0  0  0  0  0  0  0  0  0
  141.2817   76.1064  219.1870 H   0  0  0  0  0  0  0  0  0  0  0  0
  142.4057   77.2824  218.3863 H   0  0  0  0  0  0  0  0  0  0  0  0
  142.8065   76.7556  220.8582 H   0  0  0  0  0  0  0  0  0  0  0  0
  142.7223   78.4989  220.3436 H   0  0  0  0  0  0  0  0  0  0  0  0
  141.3487   77.3389  222.4412 H   0  0  0  0  0  0  0  0  0  0  0  0
  140.1714   79.6724  221.1354 H   0  0  0  0  0  0  0  0  0  0  0  0
  139.4675   79.2989  223.3848 H   0  0  0  0  0  0  0  0  0  0  0  0
  141.0849   78.6308  223.8499 H   0  0  0  0  0  0  0  0  0  0  0  0
  140.5433   81.5570  223.2123 H   0  0  0  0  0  0  0  0  0  0  0  0
  140.5793   80.8394  224.8758 H   0  0  0  0  0  0  0  0  0  0  0  0
  142.7516   81.9524  223.6518 H   0  0  0  0  0  0  0  0  0  0  0  0
  142.8589   80.6876  224.8957 H   0  0  0  0  0  0  0  0  0  0  0  0
  144.0791   80.2344  222.6039 H   0  0  0  0  0  0  0  0  0  0  0  0
  143.0623   78.9222  223.2187 H   0  0  0  0  0  0  0  0  0  0  0  0
  141.8828   81.1531  221.4912 H   0  0  0  0  0  0  0  0  0  0  0  0
  142.6967   79.7453  220.7367 H   0  0  0  0  0  0  0  0  0  0  0  0
  139.3234   70.3692  222.2025 H   0  0  0  0  0  0  0  0  0  0  0  0
  139.2384   68.6633  223.9793 H   0  0  0  0  0  0  0  0  0  0  0  0
  139.6663   68.0143  226.2115 H   0  0  0  0  0  0  0  0  0  0  0  0
  141.4729   70.8761  228.8850 H   0  0  0  0  0  0  0  0  0  0  0  0
  141.5342   72.5653  227.0658 H   0  0  0  0  0  0  0  0  0  0  0  0
  1  2  2  0
  2  3  1  0
  3  4  1  0
  4  5  1  0
  5  6  2  0
  5  7  1  0
  7  8  1  0
  8  9  1  0
  9 10  1  0
 10 11  1  0
 11 12  1  0
 12 13  1  0
 13 14  1  0
 14 15  1  0
 15 16  1  0
 16 17  1  0
 17 18  1  0
  2 19  1  0
 19 20  2  0
 20 21  1  0
 21 22  2  0
 22 23  1  0
 23 24  2  0
 24 25  1  0
 24 26  1  0
 26 27  2  0
 27 28  1  0
 28 29  2  0
 12  7  1  0
 18 13  1  0
 29 19  1  0
 28 22  1  0
  3 30  1  0
  4 31  1  0
  4 32  1  0
  8 33  1  0
  8 34  1  0
  9 35  1  0
  9 36  1  0
 10 37  1  0
 10 38  1  0
 11 39  1  0
 11 40  1  0
 12 41  1  1
 13 42  1  0
 14 43  1  0
 14 44  1  0
 15 45  1  0
 15 46  1  0
 16 47  1  0
 16 48  1  0
 17 49  1  0
 17 50  1  0
 18 51  1  0
 18 52  1  0
 20 53  1  0
 21 54  1  0
 23 55  1  0
 26 56  1  0
 27 57  1  0
M  END
>  <smiles>  (77) 
O=C(NCC(=O)N1CCCCC1C1CCCCC1)c1ccc2cc(Cl)ccc2n1

>  <score_type>  (77) 
oracle

>  <origin>  (77) 
autodockgpu

>  <m_score__min__energy>  (77) 
-9.1899999999999995

>  <m_primary>  (77) 
energy

>  <rmsd>  (77) 
2.0713648765485906

>  <m_score__min__rmsd>  (77) 
2.0713648765485906

>  <meeko>  (77) 
{"free_energy": -8.86, "intermolecular_energy": -10.36, "internal_energy": -1.57, "cluster_size": 37, "cluster_id": 1, "rank_in_cluster": 15}

>  <energy>  (77) 
-8.39

>  <cluster_rmsd>  (77) 
1.37

>  <cluster>  (77) 
1

$$$$

     RDKit          3D

 57 60  0  0  0  0  0  0  0  0999 V2000
  139.9740   72.2230  220.8580 O   0  0  0  0  0  0  0  0  0  0  0  0
  139.7840   72.6340  222.0500 C   0  0  0  0  0  0  0  0  0  0  0  0
  139.4420   74.0050  222.3160 N   0  0  0  0  0  0  0  0  0  0  0  0
  139.3300   74.8760  221.1450 C   0  0  0  0  0  0  0  0  0  0  0  0
  139.1760   76.2940  221.5550 C   0  0  0  0  0  0  0  0  0  0  0  0
  138.4100   76.6130  222.5030 O   0  0  0  0  0  0  0  0  0  0  0  0
  139.8700   77.3460  220.9100 N   0  0  0  0  0  0  0  0  0  0  0  0
  139.3430   77.9270  219.6620 C   0  0  0  0  0  0  0  0  0  0  0  0
  140.4270   78.0210  218.6260 C   0  0  0  0  0  0  0  0  0  0  0  0
  141.6080   77.1780  219.0440 C   0  0  0  0  0  0  0  0  0  0  0  0
  142.1770   77.6310  220.3690 C   0  0  0  0  0  0  0  0  0  0  0  0
  141.1090   77.9220  221.3860 C   0  0  1  0  0  0  0  0  0  0  0  0
  140.9630   79.3940  221.6760 C   0  0  0  0  0  0  0  0  0  0  0  0
  140.4120   79.5590  223.0750 C   0  0  0  0  0  0  0  0  0  0  0  0
  140.7830   80.9090  223.6600 C   0  0  0  0  0  0  0  0  0  0  0  0
  142.2750   81.0270  223.8880 C   0  0  0  0  0  0  0  0  0  0  0  0
  142.9470   80.0330  222.9390 C   0  0  0  0  0  0  0  0  0  0  0  0
  142.2230   80.1690  221.6170 C   0  0  0  0  0  0  0  0  0  0  0  0
  139.9090   71.7140  223.1740 C   0  0  0  0  0  0  0  0  0  0  0  0
  139.5080   70.3990  223.0190 C   0  0  0  0  0  0  0  0  0  0  0  0
  139.5880   69.4600  224.0200 C   0  0  0  0  0  0  0  0  0  0  0  0
  140.0930   69.8560  225.2280 C   0  0  0  0  0  0  0  0  0  0  0  0
  140.1740   68.9090  226.2360 C   0  0  0  0  0  0  0  0  0  0  0  0
  140.6850   69.3260  227.4460 C   0  0  0  0  0  0  0  0  0  0  0  0
  140.8040   68.1620  228.7470 Cl  0  0  0  0  0  0  0  0  0  0  0  0
  141.0950   70.6360  227.6310 C   0  0  0  0  0  0  0  0  0  0  0  0
  140.9980   71.5520  226.6000 C   0  0  0  0  0  0  0  0  0  0  0  0
  140.4910   71.1560  225.3840 C   0  0  0  0  0  0  0  0  0  0  0  0
  140.3970   72.0610  224.3710 N   0  0  0  0  0  0  0  0  0  0  0  0
  139.2850   74.3440  223.2900 H   0  0  0  0  0  0  0  0  0  0  0  0
  140.2377   74.7745  220.5320 H   0  0  0  0  0  0  0  0  0  0  0  0
  138.4424   74.5778  220.5677 H   0  0  0  0  0  0  0  0  0  0  0  0
  138.5319   77.2895  219.2803 H   0  0  0  0  0  0  0  0  0  0  0  0
  138.9639   78.9379  219.8727 H   0  0  0  0  0  0  0  0  0  0  0  0
  140.0426   77.6584  217.6612 H   0  0  0  0  0  0  0  0  0  0  0  0
  140.7455   79.0693  218.5275 H   0  0  0  0  0  0  0  0  0  0  0  0
  141.2842   76.1306  219.1345 H   0  0  0  0  0  0  0  0  0  0  0  0
  142.3923   77.2835  218.2799 H   0  0  0  0  0  0  0  0  0  0  0  0
  142.8309   76.8383  220.7614 H   0  0  0  0  0  0  0  0  0  0  0  0
  142.7326   78.5638  220.1923 H   0  0  0  0  0  0  0  0  0  0  0  0
  141.3955   77.4677  222.3460 H   0  0  0  0  0  0  0  0  0  0  0  0
  140.3003   79.7845  220.8896 H   0  0  0  0  0  0  0  0  0  0  0  0
  139.3159   79.4728  223.0405 H   0  0  0  0  0  0  0  0  0  0  0  0
  140.8452   78.7743  223.7127 H   0  0  0  0  0  0  0  0  0  0  0  0
  140.4647   81.6992  222.9641 H   0  0  0  0  0  0  0  0  0  0  0  0
  140.2774   81.0136  224.6313 H   0  0  0  0  0  0  0  0  0  0  0  0
  142.6123   82.0501  223.6657 H   0  0  0  0  0  0  0  0  0  0  0  0
  142.5328   80.8092  224.9350 H   0  0  0  0  0  0  0  0  0  0  0  0
  144.0125   80.2787  222.8190 H   0  0  0  0  0  0  0  0  0  0  0  0
  142.8926   79.0047  223.3258 H   0  0  0  0  0  0  0  0  0  0  0  0
  141.9958   81.2286  221.4282 H   0  0  0  0  0  0  0  0  0  0  0  0
  142.8576   79.7856  220.8044 H   0  0  0  0  0  0  0  0  0  0  0  0
  139.1041   70.0886  222.0441 H   0  0  0  0  0  0  0  0  0  0  0  0
  139.2567   68.4241  223.8549 H   0  0  0  0  0  0  0  0  0  0  0  0
  139.8453   67.8713  226.0777 H   0  0  0  0  0  0  0  0  0  0  0  0
  141.5003   70.9495  228.6043 H   0  0  0  0  0  0  0  0  0  0  0  0
  141.3244   72.5915  226.7512 H   0  0  0  0  0  0  0  0  0  0  0  0
  1  2  2  0
  2  3  1  0
  3  4  1  0
  4  5  1  0
  5  6  2  0
  5  7  1  0
  7  8  1  0
  8  9  1  0
  9 10  1  0
 10 11  1  0
 11 12  1  0
 12 13  1  0
 13 14  1  0
 14 15  1  0
 15 16  1  0
 16 17  1  0
 17 18  1  0
  2 19  1  0
 19 20  2  0
 20 21  1  0
 21 22  2  0
 22 23  1  0
 23 24  2  0
 24 25  1  0
 24 26  1  0
 26 27  2  0
 27 28  1  0
 28 29  2  0
 12  7  1  0
 18 13  1  0
 29 19  1  0
 28 22  1  0
  3 30  1  0
  4 31  1  0
  4 32  1  0
  8 33  1  0
  8 34  1  0
  9 35  1  0
  9 36  1  0
 10 37  1  0
 10 38  1  0
 11 39  1  0
 11 40  1  0
 12 41  1  1
 13 42  1  0
 14 43  1  0
 14 44  1  0
 15 45  1  0
 15 46  1  0
 16 47  1  0
 16 48  1  0
 17 49  1  0
 17 50  1  0
 18 51  1  0
 18 52  1  0
 20 53  1  0
 21 54  1  0
 23 55  1  0
 26 56  1  0
 27 57  1  0
M  END
>  <smiles>  (78) 
O=C(NCC(=O)N1CCCCC1C1CCCCC1)c1ccc2cc(Cl)ccc2n1

>  <score_type>  (78) 
oracle

>  <origin>  (78) 
autodockgpu

>  <m_score__min__energy>  (78) 
-9.1899999999999995

>  <m_primary>  (78) 
energy

>  <rmsd>  (78) 
1.993458277108574

>  <m_score__min__rmsd>  (78) 
1.993458277108574

>  <meeko>  (78) 
{"free_energy": -8.85, "intermolecular_energy": -10.34, "internal_energy": -1.65, "cluster_size": 37, "cluster_id": 1, "rank_in_cluster": 16}

>  <energy>  (78) 
-8.32

>  <cluster_rmsd>  (78) 
1.19

>  <cluster>  (78) 
1

$$$$

     RDKit          3D

 57 60  0  0  0  0  0  0  0  0999 V2000
  139.6380   72.5220  220.3200 O   0  0  0  0  0  0  0  0  0  0  0  0
  140.2680   72.8190  221.3880 C   0  0  0  0  0  0  0  0  0  0  0  0
  141.0970   73.9920  221.4570 N   0  0  0  0  0  0  0  0  0  0  0  0
  141.1620   74.8040  220.2420 C   0  0  0  0  0  0  0  0  0  0  0  0
  140.0990   75.8380  220.2390 C   0  0  0  0  0  0  0  0  0  0  0  0
  139.4240   76.0690  219.2010 O   0  0  0  0  0  0  0  0  0  0  0  0
  139.7930   76.6090  221.3870 N   0  0  0  0  0  0  0  0  0  0  0  0
  139.1910   75.9690  222.5710 C   0  0  0  0  0  0  0  0  0  0  0  0
  138.0060   76.7580  223.0490 C   0  0  0  0  0  0  0  0  0  0  0  0
  137.5810   77.7400  221.9840 C   0  0  0  0  0  0  0  0  0  0  0  0
  138.6900   78.7090  221.6440 C   0  0  0  0  0  0  0  0  0  0  0  0
  140.0250   78.0320  221.5030 C   0  0  1  0  0  0  0  0  0  0  0  0
  140.9650   78.3530  222.6360 C   0  0  0  0  0  0  0  0  0  0  0  0
  142.2030   79.0110  222.0670 C   0  0  0  0  0  0  0  0  0  0  0  0
  142.8950   79.8770  223.1020 C   0  0  0  0  0  0  0  0  0  0  0  0
  142.0480   81.0700  223.4870 C   0  0  0  0  0  0  0  0  0  0  0  0
  140.5970   80.7010  223.1760 C   0  0  0  0  0  0  0  0  0  0  0  0
  140.4200   79.2760  223.6570 C   0  0  0  0  0  0  0  0  0  0  0  0
  140.1600   71.9680  222.5660 C   0  0  0  0  0  0  0  0  0  0  0  0
  139.4750   70.7690  222.4730 C   0  0  0  0  0  0  0  0  0  0  0  0
  139.3210   69.9020  223.5300 C   0  0  0  0  0  0  0  0  0  0  0  0
  139.8770   70.2510  224.7290 C   0  0  0  0  0  0  0  0  0  0  0  0
  139.7210   69.3760  225.7920 C   0  0  0  0  0  0  0  0  0  0  0  0
  140.2880   69.7440  226.9930 C   0  0  0  0  0  0  0  0  0  0  0  0
  140.1150   68.6690  228.3620 Cl  0  0  0  0  0  0  0  0  0  0  0  0
  140.9800   70.9380  227.1160 C   0  0  0  0  0  0  0  0  0  0  0  0
  141.1140   71.7850  226.0310 C   0  0  0  0  0  0  0  0  0  0  0  0
  140.5550   71.4360  224.8240 C   0  0  0  0  0  0  0  0  0  0  0  0
  140.6890   72.2720  223.7570 N   0  0  0  0  0  0  0  0  0  0  0  0
  141.6140   74.2380  222.3300 H   0  0  0  0  0  0  0  0  0  0  0  0
  142.1440   75.2969  220.1904 H   0  0  0  0  0  0  0  0  0  0  0  0
  141.0156   74.1470  219.3720 H   0  0  0  0  0  0  0  0  0  0  0  0
  138.8661   74.9518  222.3069 H   0  0  0  0  0  0  0  0  0  0  0  0
  139.9409   75.9305  223.3749 H   0  0  0  0  0  0  0  0  0  0  0  0
  137.1740   76.0719  223.2658 H   0  0  0  0  0  0  0  0  0  0  0  0
  138.2805   77.3082  223.9611 H   0  0  0  0  0  0  0  0  0  0  0  0
  137.3026   77.1839  221.0767 H   0  0  0  0  0  0  0  0  0  0  0  0
  136.7274   78.3167  222.3696 H   0  0  0  0  0  0  0  0  0  0  0  0
  138.4448   79.2061  220.6939 H   0  0  0  0  0  0  0  0  0  0  0  0
  138.7676   79.4306  222.4706 H   0  0  0  0  0  0  0  0  0  0  0  0
  140.5259   78.4102  220.5996 H   0  0  0  0  0  0  0  0  0  0  0  0
  141.1625   77.3923  223.1341 H   0  0  0  0  0  0  0  0  0  0  0  0
  142.9004   78.2301  221.7298 H   0  0  0  0  0  0  0  0  0  0  0  0
  141.8989   79.6523  221.2266 H   0  0  0  0  0  0  0  0  0  0  0  0
  143.0897   79.2728  224.0003 H   0  0  0  0  0  0  0  0  0  0  0  0
  143.8345   80.2484  222.6668 H   0  0  0  0  0  0  0  0  0  0  0  0
  142.1624   81.2852  224.5597 H   0  0  0  0  0  0  0  0  0  0  0  0
  142.3548   81.9678  222.9303 H   0  0  0  0  0  0  0  0  0  0  0  0
  139.9084   81.3732  223.7089 H   0  0  0  0  0  0  0  0  0  0  0  0
  140.3770   80.7956  222.1024 H   0  0  0  0  0  0  0  0  0  0  0  0
  140.9593   79.1370  224.6056 H   0  0  0  0  0  0  0  0  0  0  0  0
  139.3518   79.0667  223.8158 H   0  0  0  0  0  0  0  0  0  0  0  0
  139.0310   70.4953  221.5045 H   0  0  0  0  0  0  0  0  0  0  0  0
  138.7681   68.9581  223.4140 H   0  0  0  0  0  0  0  0  0  0  0  0
  139.1696   68.4305  225.6823 H   0  0  0  0  0  0  0  0  0  0  0  0
  141.4257   71.2141  228.0830 H   0  0  0  0  0  0  0  0  0  0  0  0
  141.6643   72.7320  226.1328 H   0  0  0  0  0  0  0  0  0  0  0  0
  1  2  2  0
  2  3  1  0
  3  4  1  0
  4  5  1  0
  5  6  2  0
  5  7  1  0
  7  8  1  0
  8  9  1  0
  9 10  1  0
 10 11  1  0
 11 12  1  0
 12 13  1  0
 13 14  1  0
 14 15  1  0
 15 16  1  0
 16 17  1  0
 17 18  1  0
  2 19  1  0
 19 20  2  0
 20 21  1  0
 21 22  2  0
 22 23  1  0
 23 24  2  0
 24 25  1  0
 24 26  1  0
 26 27  2  0
 27 28  1  0
 28 29  2  0
 12  7  1  0
 18 13  1  0
 29 19  1  0
 28 22  1  0
  3 30  1  0
  4 31  1  0
  4 32  1  0
  8 33  1  0
  8 34  1  0
  9 35  1  0
  9 36  1  0
 10 37  1  0
 10 38  1  0
 11 39  1  0
 11 40  1  0
 12 41  1  6
 13 42  1  0
 14 43  1  0
 14 44  1  0
 15 45  1  0
 15 46  1  0
 16 47  1  0
 16 48  1  0
 17 49  1  0
 17 50  1  0
 18 51  1  0
 18 52  1  0
 20 53  1  0
 21 54  1  0
 23 55  1  0
 26 56  1  0
 27 57  1  0
M  END
>  <smiles>  (79) 
O=C(NCC(=O)N1CCCCC1C1CCCCC1)c1ccc2cc(Cl)ccc2n1

>  <score_type>  (79) 
oracle

>  <origin>  (79) 
autodockgpu

>  <m_score__min__energy>  (79) 
-9.1899999999999995

>  <m_primary>  (79) 
energy

>  <rmsd>  (79) 
3.227169929023456

>  <m_score__min__rmsd>  (79) 
3.227169929023456

>  <meeko>  (79) 
{"free_energy": -8.01, "intermolecular_energy": -9.5, "internal_energy": -1.76, "cluster_size": 37, "cluster_id": 1, "rank_in_cluster": 35}

>  <energy>  (79) 
-8.31

>  <cluster_rmsd>  (79) 
1.22

>  <cluster>  (79) 
1

$$$$

     RDKit          3D

 57 60  0  0  0  0  0  0  0  0999 V2000
  140.7390   72.6860  220.9540 O   0  0  0  0  0  0  0  0  0  0  0  0
  139.9680   72.8500  221.9560 C   0  0  0  0  0  0  0  0  0  0  0  0
  139.0300   73.9390  221.9970 N   0  0  0  0  0  0  0  0  0  0  0  0
  139.0230   74.8250  220.8320 C   0  0  0  0  0  0  0  0  0  0  0  0
  139.1430   76.2440  221.2470 C   0  0  0  0  0  0  0  0  0  0  0  0
  138.1210   76.9220  221.5340 O   0  0  0  0  0  0  0  0  0  0  0  0
  140.3950   76.9000  221.3390 N   0  0  0  0  0  0  0  0  0  0  0  0
  141.0150   77.1320  222.6570 C   0  0  0  0  0  0  0  0  0  0  0  0
  141.4730   78.5570  222.7790 C   0  0  0  0  0  0  0  0  0  0  0  0
  140.8490   79.3900  221.6850 C   0  0  0  0  0  0  0  0  0  0  0  0
  141.2290   78.8860  220.3120 C   0  0  0  0  0  0  0  0  0  0  0  0
  141.1490   77.3880  220.2060 C   0  0  1  0  0  0  0  0  0  0  0  0
  142.5050   76.7350  220.1160 C   0  0  0  0  0  0  0  0  0  0  0  0
  142.3590   75.2680  220.4540 C   0  0  0  0  0  0  0  0  0  0  0  0
  143.4730   74.4450  219.8350 C   0  0  0  0  0  0  0  0  0  0  0  0
  143.3830   74.4340  218.3240 C   0  0  0  0  0  0  0  0  0  0  0  0
  142.6050   75.6860  217.9180 C   0  0  0  0  0  0  0  0  0  0  0  0
  143.1440   76.8060  218.7830 C   0  0  0  0  0  0  0  0  0  0  0  0
  140.0220   71.9310  223.0860 C   0  0  0  0  0  0  0  0  0  0  0  0
  139.5590   70.6370  222.9270 C   0  0  0  0  0  0  0  0  0  0  0  0
  139.5700   69.7000  223.9340 C   0  0  0  0  0  0  0  0  0  0  0  0
  140.0680   70.0760  225.1510 C   0  0  0  0  0  0  0  0  0  0  0  0
  140.0790   69.1310  226.1640 C   0  0  0  0  0  0  0  0  0  0  0  0
  140.5830   69.5280  227.3830 C   0  0  0  0  0  0  0  0  0  0  0  0
  140.6150   68.3670  228.6910 Cl  0  0  0  0  0  0  0  0  0  0  0  0
  141.0550   70.8170  227.5720 C   0  0  0  0  0  0  0  0  0  0  0  0
  141.0270   71.7320  226.5360 C   0  0  0  0  0  0  0  0  0  0  0  0
  140.5270   71.3550  225.3100 C   0  0  0  0  0  0  0  0  0  0  0  0
  140.5010   72.2580  224.2920 N   0  0  0  0  0  0  0  0  0  0  0  0
  138.3960   74.0760  222.8150 H   0  0  0  0  0  0  0  0  0  0  0  0
  139.8697   74.5678  220.1785 H   0  0  0  0  0  0  0  0  0  0  0  0
  138.0713   74.6943  220.2961 H   0  0  0  0  0  0  0  0  0  0  0  0
  140.2785   76.9196  223.4460 H   0  0  0  0  0  0  0  0  0  0  0  0
  141.8857   76.4681  222.7625 H   0  0  0  0  0  0  0  0  0  0  0  0
  141.1706   78.9552  223.7588 H   0  0  0  0  0  0  0  0  0  0  0  0
  142.5683   78.5959  222.6853 H   0  0  0  0  0  0  0  0  0  0  0  0
  139.7545   79.3518  221.7883 H   0  0  0  0  0  0  0  0  0  0  0  0
  141.2191   80.4209  221.7860 H   0  0  0  0  0  0  0  0  0  0  0  0
  140.5461   79.3290  219.5721 H   0  0  0  0  0  0  0  0  0  0  0  0
  142.2727   79.1791  220.1254 H   0  0  0  0  0  0  0  0  0  0  0  0
  140.6400   77.1218  219.2679 H   0  0  0  0  0  0  0  0  0  0  0  0
  143.1455   77.2900  220.8172 H   0  0  0  0  0  0  0  0  0  0  0  0
  142.3896   75.1476  221.5470 H   0  0  0  0  0  0  0  0  0  0  0  0
  141.3997   74.9128  220.0495 H   0  0  0  0  0  0  0  0  0  0  0  0
  144.4414   74.8741  220.1320 H   0  0  0  0  0  0  0  0  0  0  0  0
  143.3762   73.4095  220.1934 H   0  0  0  0  0  0  0  0  0  0  0  0
  144.3912   74.4557  217.8845 H   0  0  0  0  0  0  0  0  0  0  0  0
  142.8803   73.5237  217.9655 H   0  0  0  0  0  0  0  0  0  0  0  0
  142.7696   75.9109  216.8539 H   0  0  0  0  0  0  0  0  0  0  0  0
  141.5221   75.5524  218.0574 H   0  0  0  0  0  0  0  0  0  0  0  0
  144.2334   76.6978  218.8900 H   0  0  0  0  0  0  0  0  0  0  0  0
  142.9219   77.7766  218.3155 H   0  0  0  0  0  0  0  0  0  0  0  0
  139.1616   70.3422  221.9446 H   0  0  0  0  0  0  0  0  0  0  0  0
  139.1906   68.6813  223.7659 H   0  0  0  0  0  0  0  0  0  0  0  0
  139.7024   68.1102  226.0023 H   0  0  0  0  0  0  0  0  0  0  0  0
  141.4546   71.1142  228.5528 H   0  0  0  0  0  0  0  0  0  0  0  0
  141.4018   72.7546  226.6903 H   0  0  0  0  0  0  0  0  0  0  0  0
  1  2  2  0
  2  3  1  0
  3  4  1  0
  4  5  1  0
  5  6  2  0
  5  7  1  0
  7  8  1  0
  8  9  1  0
  9 10  1  0
 10 11  1  0
 11 12  1  0
 12 13  1  0
 13 14  1  0
 14 15  1  0
 15 16  1  0
 16 17  1  0
 17 18  1  0
  2 19  1  0
 19 20  2  0
 20 21  1  0
 21 22  2  0
 22 23  1  0
 23 24  2  0
 24 25  1  0
 24 26  1  0
 26 27  2  0
 27 28  1  0
 28 29  2  0
 12  7  1  0
 18 13  1  0
 29 19  1  0
 28 22  1  0
  3 30  1  0
  4 31  1  0
  4 32  1  0
  8 33  1  0
  8 34  1  0
  9 35  1  0
  9 36  1  0
 10 37  1  0
 10 38  1  0
 11 39  1  0
 11 40  1  0
 12 41  1  6
 13 42  1  0
 14 43  1  0
 14 44  1  0
 15 45  1  0
 15 46  1  0
 16 47  1  0
 16 48  1  0
 17 49  1  0
 17 50  1  0
 18 51  1  0
 18 52  1  0
 20 53  1  0
 21 54  1  0
 23 55  1  0
 26 56  1  0
 27 57  1  0
M  END
>  <smiles>  (80) 
O=C(NCC(=O)N1CCCCC1C1CCCCC1)c1ccc2cc(Cl)ccc2n1

>  <score_type>  (80) 
oracle

>  <origin>  (80) 
autodockgpu

>  <m_score__min__energy>  (80) 
-9.1899999999999995

>  <m_primary>  (80) 
energy

>  <rmsd>  (80) 
2.8933184644573986

>  <m_score__min__rmsd>  (80) 
2.8933184644573986

>  <meeko>  (80) 
{"free_energy": -8.21, "intermolecular_energy": -9.7, "internal_energy": -1.79, "cluster_size": 37, "cluster_id": 1, "rank_in_cluster": 34}

>  <energy>  (80) 
-8.3

>  <cluster_rmsd>  (80) 
1.21

>  <cluster>  (80) 
1

$$$$

     RDKit          3D

 57 60  0  0  0  0  0  0  0  0999 V2000
  140.6950   72.6160  221.0260 O   0  0  0  0  0  0  0  0  0  0  0  0
  140.0040   72.8150  222.0790 C   0  0  0  0  0  0  0  0  0  0  0  0
  139.1550   73.9690  222.1990 N   0  0  0  0  0  0  0  0  0  0  0  0
  139.1410   74.8780  221.0530 C   0  0  0  0  0  0  0  0  0  0  0  0
  139.0500   76.2900  221.4990 C   0  0  0  0  0  0  0  0  0  0  0  0
  138.2840   76.6210  222.4430 O   0  0  0  0  0  0  0  0  0  0  0  0
  139.8080   77.3220  220.8950 N   0  0  0  0  0  0  0  0  0  0  0  0
  139.3590   77.9280  219.6280 C   0  0  0  0  0  0  0  0  0  0  0  0
  140.4930   77.9920  218.6450 C   0  0  0  0  0  0  0  0  0  0  0  0
  141.6250   77.1090  219.1120 C   0  0  0  0  0  0  0  0  0  0  0  0
  142.1460   77.5360  220.4650 C   0  0  0  0  0  0  0  0  0  0  0  0
  141.0400   77.8560  221.4330 C   0  0  1  0  0  0  0  0  0  0  0  0
  140.9290   79.3300  221.7270 C   0  0  0  0  0  0  0  0  0  0  0  0
  140.4840   79.5050  223.1620 C   0  0  0  0  0  0  0  0  0  0  0  0
  140.9090   80.8540  223.7120 C   0  0  0  0  0  0  0  0  0  0  0  0
  142.4140   80.9590  223.8280 C   0  0  0  0  0  0  0  0  0  0  0  0
  143.0060   79.9560  222.8370 C   0  0  0  0  0  0  0  0  0  0  0  0
  142.1870   80.0940  221.5710 C   0  0  0  0  0  0  0  0  0  0  0  0
  140.0610   71.8700  223.1870 C   0  0  0  0  0  0  0  0  0  0  0  0
  139.5990   70.5790  222.9980 C   0  0  0  0  0  0  0  0  0  0  0  0
  139.6130   69.6200  223.9830 C   0  0  0  0  0  0  0  0  0  0  0  0
  140.1120   69.9680  225.2080 C   0  0  0  0  0  0  0  0  0  0  0  0
  140.1250   68.9990  226.1990 C   0  0  0  0  0  0  0  0  0  0  0  0
  140.6310   69.3690  227.4270 C   0  0  0  0  0  0  0  0  0  0  0  0
  140.6660   68.1770  228.7070 Cl  0  0  0  0  0  0  0  0  0  0  0  0
  141.1010   70.6530  227.6450 C   0  0  0  0  0  0  0  0  0  0  0  0
  141.0700   71.5920  226.6300 C   0  0  0  0  0  0  0  0  0  0  0  0
  140.5690   71.2430  225.3970 C   0  0  0  0  0  0  0  0  0  0  0  0
  140.5410   72.1700  224.3990 N   0  0  0  0  0  0  0  0  0  0  0  0
  138.5880   74.1350  223.0590 H   0  0  0  0  0  0  0  0  0  0  0  0
  140.0664   74.7420  220.4740 H   0  0  0  0  0  0  0  0  0  0  0  0
  138.2625   74.6479  220.4323 H   0  0  0  0  0  0  0  0  0  0  0  0
  138.5461   77.3202  219.2040 H   0  0  0  0  0  0  0  0  0  0  0  0
  139.0035   78.9495  219.8283 H   0  0  0  0  0  0  0  0  0  0  0  0
  140.1430   77.6472  217.6608 H   0  0  0  0  0  0  0  0  0  0  0  0
  140.8495   79.0298  218.5689 H   0  0  0  0  0  0  0  0  0  0  0  0
  141.2635   76.0723  219.1802 H   0  0  0  0  0  0  0  0  0  0  0  0
  142.4471   77.1931  218.3860 H   0  0  0  0  0  0  0  0  0  0  0  0
  142.7549   76.7204  220.8821 H   0  0  0  0  0  0  0  0  0  0  0  0
  142.7396   78.4508  220.3212 H   0  0  0  0  0  0  0  0  0  0  0  0
  141.2647   77.3878  222.4027 H   0  0  0  0  0  0  0  0  0  0  0  0
  140.2134   79.7235  220.9900 H   0  0  0  0  0  0  0  0  0  0  0  0
  139.3876   79.4286  223.2087 H   0  0  0  0  0  0  0  0  0  0  0  0
  140.9559   78.7187  223.7695 H   0  0  0  0  0  0  0  0  0  0  0  0
  140.5469   81.6444  223.0382 H   0  0  0  0  0  0  0  0  0  0  0  0
  140.4776   80.9670  224.7176 H   0  0  0  0  0  0  0  0  0  0  0  0
  142.7427   81.9782  223.5768 H   0  0  0  0  0  0  0  0  0  0  0  0
  142.7463   80.7423  224.8540 H   0  0  0  0  0  0  0  0  0  0  0  0
  144.0617   80.1920  222.6378 H   0  0  0  0  0  0  0  0  0  0  0  0
  142.9721   78.9296  223.2311 H   0  0  0  0  0  0  0  0  0  0  0  0
  141.9552   81.1548  221.3952 H   0  0  0  0  0  0  0  0  0  0  0  0
  142.7563   79.7030  220.7149 H   0  0  0  0  0  0  0  0  0  0  0  0
  139.2004   70.3065  222.0096 H   0  0  0  0  0  0  0  0  0  0  0  0
  139.2348   68.6049  223.7919 H   0  0  0  0  0  0  0  0  0  0  0  0
  139.7490   67.9819  226.0143 H   0  0  0  0  0  0  0  0  0  0  0  0
  141.5016   70.9281  228.6318 H   0  0  0  0  0  0  0  0  0  0  0  0
  141.4435   72.6113  226.8074 H   0  0  0  0  0  0  0  0  0  0  0  0
  1  2  2  0
  2  3  1  0
  3  4  1  0
  4  5  1  0
  5  6  2  0
  5  7  1  0
  7  8  1  0
  8  9  1  0
  9 10  1  0
 10 11  1  0
 11 12  1  0
 12 13  1  0
 13 14  1  0
 14 15  1  0
 15 16  1  0
 16 17  1  0
 17 18  1  0
  2 19  1  0
 19 20  2  0
 20 21  1  0
 21 22  2  0
 22 23  1  0
 23 24  2  0
 24 25  1  0
 24 26  1  0
 26 27  2  0
 27 28  1  0
 28 29  2  0
 12  7  1  0
 18 13  1  0
 29 19  1  0
 28 22  1  0
  3 30  1  0
  4 31  1  0
  4 32  1  0
  8 33  1  0
  8 34  1  0
  9 35  1  0
  9 36  1  0
 10 37  1  0
 10 38  1  0
 11 39  1  0
 11 40  1  0
 12 41  1  1
 13 42  1  0
 14 43  1  0
 14 44  1  0
 15 45  1  0
 15 46  1  0
 16 47  1  0
 16 48  1  0
 17 49  1  0
 17 50  1  0
 18 51  1  0
 18 52  1  0
 20 53  1  0
 21 54  1  0
 23 55  1  0
 26 56  1  0
 27 57  1  0
M  END
>  <smiles>  (81) 
O=C(NCC(=O)N1CCCCC1C1CCCCC1)c1ccc2cc(Cl)ccc2n1

>  <score_type>  (81) 
oracle

>  <origin>  (81) 
autodockgpu

>  <m_score__min__energy>  (81) 
-9.1899999999999995

>  <m_primary>  (81) 
energy

>  <rmsd>  (81) 
2.0373506284354646

>  <m_score__min__rmsd>  (81) 
2.0373506284354646

>  <meeko>  (81) 
{"free_energy": -8.93, "intermolecular_energy": -10.42, "internal_energy": -1.59, "cluster_size": 37, "cluster_id": 1, "rank_in_cluster": 11}

>  <energy>  (81) 
-8.26

>  <cluster_rmsd>  (81) 
0.83

>  <cluster>  (81) 
1

$$$$

     RDKit          3D

 57 60  0  0  0  0  0  0  0  0999 V2000
  140.5540   72.3870  220.7230 O   0  0  0  0  0  0  0  0  0  0  0  0
  140.1800   72.8050  221.8690 C   0  0  0  0  0  0  0  0  0  0  0  0
  139.7520   74.1640  222.0570 N   0  0  0  0  0  0  0  0  0  0  0  0
  139.7730   75.0150  220.8660 C   0  0  0  0  0  0  0  0  0  0  0  0
  140.9020   75.9750  220.9240 C   0  0  0  0  0  0  0  0  0  0  0  0
  141.0620   76.7250  221.9230 O   0  0  0  0  0  0  0  0  0  0  0  0
  141.8430   76.0980  219.8730 N   0  0  0  0  0  0  0  0  0  0  0  0
  142.5730   77.3640  219.6750 C   0  0  0  0  0  0  0  0  0  0  0  0
  142.5230   77.7800  218.2320 C   0  0  0  0  0  0  0  0  0  0  0  0
  141.4610   76.9880  217.5080 C   0  0  0  0  0  0  0  0  0  0  0  0
  141.7350   75.5020  217.5640 C   0  0  0  0  0  0  0  0  0  0  0  0
  142.1620   75.0460  218.9320 C   0  0  1  0  0  0  0  0  0  0  0  0
  143.6190   74.6660  218.9940 C   0  0  0  0  0  0  0  0  0  0  0  0
  144.0620   74.6810  220.4400 C   0  0  0  0  0  0  0  0  0  0  0  0
  145.2600   73.7750  220.6600 C   0  0  0  0  0  0  0  0  0  0  0  0
  144.9040   72.3200  220.4500 C   0  0  0  0  0  0  0  0  0  0  0  0
  143.6750   72.2920  219.5400 C   0  0  0  0  0  0  0  0  0  0  0  0
  143.9360   73.3220  218.4610 C   0  0  0  0  0  0  0  0  0  0  0  0
  140.1810   71.9060  223.0160 C   0  0  0  0  0  0  0  0  0  0  0  0
  139.6840   70.6230  222.8690 C   0  0  0  0  0  0  0  0  0  0  0  0
  139.6440   69.7060  223.8920 C   0  0  0  0  0  0  0  0  0  0  0  0
  140.1220   70.0900  225.1150 C   0  0  0  0  0  0  0  0  0  0  0  0
  140.0810   69.1650  226.1450 C   0  0  0  0  0  0  0  0  0  0  0  0
  140.5660   69.5700  227.3690 C   0  0  0  0  0  0  0  0  0  0  0  0
  140.5330   68.4330  228.6980 Cl  0  0  0  0  0  0  0  0  0  0  0  0
  141.0700   70.8480  227.5460 C   0  0  0  0  0  0  0  0  0  0  0  0
  141.0940   71.7440  226.4930 C   0  0  0  0  0  0  0  0  0  0  0  0
  140.6130   71.3580  225.2630 C   0  0  0  0  0  0  0  0  0  0  0  0
  140.6390   72.2430  224.2270 N   0  0  0  0  0  0  0  0  0  0  0  0
  139.4450   74.5100  222.9930 H   0  0  0  0  0  0  0  0  0  0  0  0
  139.8831   74.3825  219.9728 H   0  0  0  0  0  0  0  0  0  0  0  0
  138.8310   75.5812  220.8208 H   0  0  0  0  0  0  0  0  0  0  0  0
  142.1124   78.1481  220.2940 H   0  0  0  0  0  0  0  0  0  0  0  0
  143.6235   77.2185  219.9672 H   0  0  0  0  0  0  0  0  0  0  0  0
  142.2854   78.8522  218.1691 H   0  0  0  0  0  0  0  0  0  0  0  0
  143.5003   77.5889  217.7648 H   0  0  0  0  0  0  0  0  0  0  0  0
  140.4859   77.1884  217.9760 H   0  0  0  0  0  0  0  0  0  0  0  0
  141.4630   77.2972  216.4524 H   0  0  0  0  0  0  0  0  0  0  0  0
  140.8180   74.9634  217.2830 H   0  0  0  0  0  0  0  0  0  0  0  0
  142.5594   75.2878  216.8680 H   0  0  0  0  0  0  0  0  0  0  0  0
  141.6157   74.1267  219.1898 H   0  0  0  0  0  0  0  0  0  0  0  0
  144.1416   75.4002  218.3633 H   0  0  0  0  0  0  0  0  0  0  0  0
  144.3342   75.7092  220.7206 H   0  0  0  0  0  0  0  0  0  0  0  0
  143.2313   74.3147  221.0611 H   0  0  0  0  0  0  0  0  0  0  0  0
  146.0536   74.0542  219.9513 H   0  0  0  0  0  0  0  0  0  0  0  0
  145.5993   73.8996  221.6989 H   0  0  0  0  0  0  0  0  0  0  0  0
  145.7413   71.7906  219.9718 H   0  0  0  0  0  0  0  0  0  0  0  0
  144.6963   71.8224  221.4088 H   0  0  0  0  0  0  0  0  0  0  0  0
  143.5510   71.2939  219.0946 H   0  0  0  0  0  0  0  0  0  0  0  0
  142.7535   72.5150  220.0977 H   0  0  0  0  0  0  0  0  0  0  0  0
  144.9939   73.2835  218.1620 H   0  0  0  0  0  0  0  0  0  0  0  0
  143.3062   73.1109  217.5842 H   0  0  0  0  0  0  0  0  0  0  0  0
  139.3013   70.3215  221.8828 H   0  0  0  0  0  0  0  0  0  0  0  0
  139.2404   68.6952  223.7324 H   0  0  0  0  0  0  0  0  0  0  0  0
  139.6792   68.1524  225.9925 H   0  0  0  0  0  0  0  0  0  0  0  0
  141.4538   71.1522  228.5310 H   0  0  0  0  0  0  0  0  0  0  0  0
  141.4948   72.7581  226.6377 H   0  0  0  0  0  0  0  0  0  0  0  0
  1  2  2  0
  2  3  1  0
  3  4  1  0
  4  5  1  0
  5  6  2  0
  5  7  1  0
  7  8  1  0
  8  9  1  0
  9 10  1  0
 10 11  1  0
 11 12  1  0
 12 13  1  0
 13 14  1  0
 14 15  1  0
 15 16  1  0
 16 17  1  0
 17 18  1  0
  2 19  1  0
 19 20  2  0
 20 21  1  0
 21 22  2  0
 22 23  1  0
 23 24  2  0
 24 25  1  0
 24 26  1  0
 26 27  2  0
 27 28  1  0
 28 29  2  0
 12  7  1  0
 18 13  1  0
 29 19  1  0
 28 22  1  0
  3 30  1  0
  4 31  1  0
  4 32  1  0
  8 33  1  0
  8 34  1  0
  9 35  1  0
  9 36  1  0
 10 37  1  0
 10 38  1  0
 11 39  1  0
 11 40  1  0
 12 41  1  1
 13 42  1  0
 14 43  1  0
 14 44  1  0
 15 45  1  0
 15 46  1  0
 16 47  1  0
 16 48  1  0
 17 49  1  0
 17 50  1  0
 18 51  1  0
 18 52  1  0
 20 53  1  0
 21 54  1  0
 23 55  1  0
 26 56  1  0
 27 57  1  0
M  END
>  <smiles>  (82) 
O=C(NCC(=O)N1CCCCC1C1CCCCC1)c1ccc2cc(Cl)ccc2n1

>  <score_type>  (82) 
oracle

>  <origin>  (82) 
autodockgpu

>  <m_score__min__energy>  (82) 
-9.1899999999999995

>  <m_primary>  (82) 
energy

>  <rmsd>  (82) 
2.4268539806063107

>  <m_score__min__rmsd>  (82) 
2.4268539806063107

>  <meeko>  (82) 
{"free_energy": -7.97, "intermolecular_energy": -9.46, "internal_energy": -2.0, "cluster_size": 8, "cluster_id": 3, "rank_in_cluster": 4}

>  <energy>  (82) 
-8.23

>  <cluster_rmsd>  (82) 
1.42

>  <cluster>  (82) 
1

$$$$

     RDKit          3D

 57 60  0  0  0  0  0  0  0  0999 V2000
  138.6170   71.4140  220.6960 O   0  0  0  0  0  0  0  0  0  0  0  0
  138.7490   71.9910  221.8260 C   0  0  0  0  0  0  0  0  0  0  0  0
  138.5250   73.4040  221.9660 N   0  0  0  0  0  0  0  0  0  0  0  0
  138.1440   74.1180  220.7460 C   0  0  0  0  0  0  0  0  0  0  0  0
  139.3430   74.5310  219.9790 C   0  0  0  0  0  0  0  0  0  0  0  0
  139.3750   74.4250  218.7230 O   0  0  0  0  0  0  0  0  0  0  0  0
  140.4980   75.0560  220.6070 N   0  0  0  0  0  0  0  0  0  0  0  0
  140.4080   75.6290  221.9640 C   0  0  0  0  0  0  0  0  0  0  0  0
  141.0870   76.9680  222.0150 C   0  0  0  0  0  0  0  0  0  0  0  0
  141.3310   77.4720  220.6130 C   0  0  0  0  0  0  0  0  0  0  0  0
  142.2060   76.5270  219.8230 C   0  0  0  0  0  0  0  0  0  0  0  0
  141.8150   75.0870  220.0090 C   0  0  1  0  0  0  0  0  0  0  0  0
  142.8160   74.3090  220.8240 C   0  0  0  0  0  0  0  0  0  0  0  0
  142.5590   72.8320  220.6250 C   0  0  0  0  0  0  0  0  0  0  0  0
  143.8090   72.0130  220.8880 C   0  0  0  0  0  0  0  0  0  0  0  0
  144.8840   72.2920  219.8600 C   0  0  0  0  0  0  0  0  0  0  0  0
  144.5970   73.6790  219.2850 C   0  0  0  0  0  0  0  0  0  0  0  0
  144.2320   74.5500  220.4680 C   0  0  0  0  0  0  0  0  0  0  0  0
  139.1300   71.2230  223.0050 C   0  0  0  0  0  0  0  0  0  0  0  0
  138.8620   69.8660  223.0420 C   0  0  0  0  0  0  0  0  0  0  0  0
  139.1840   69.0610  224.1090 C   0  0  0  0  0  0  0  0  0  0  0  0
  139.8020   69.6400  225.1830 C   0  0  0  0  0  0  0  0  0  0  0  0
  140.1270   68.8270  226.2580 C   0  0  0  0  0  0  0  0  0  0  0  0
  140.7490   69.4280  227.3300 C   0  0  0  0  0  0  0  0  0  0  0  0
  141.1760   68.4380  228.7080 Cl  0  0  0  0  0  0  0  0  0  0  0  0
  141.0310   70.7840  227.3210 C   0  0  0  0  0  0  0  0  0  0  0  0
  140.6900   71.5620  226.2290 C   0  0  0  0  0  0  0  0  0  0  0  0
  140.0690   70.9810  225.1480 C   0  0  0  0  0  0  0  0  0  0  0  0
  139.7360   71.7510  224.0750 N   0  0  0  0  0  0  0  0  0  0  0  0
  138.6320   73.8800  222.8890 H   0  0  0  0  0  0  0  0  0  0  0  0
  137.5260   73.4574  220.1202 H   0  0  0  0  0  0  0  0  0  0  0  0
  137.5793   75.0190  221.0277 H   0  0  0  0  0  0  0  0  0  0  0  0
  139.3492   75.7493  222.2368 H   0  0  0  0  0  0  0  0  0  0  0  0
  140.9066   74.9498  222.6711 H   0  0  0  0  0  0  0  0  0  0  0  0
  140.4463   77.6820  222.5533 H   0  0  0  0  0  0  0  0  0  0  0  0
  142.0499   76.8670  222.5371 H   0  0  0  0  0  0  0  0  0  0  0  0
  140.3643   77.5766  220.0987 H   0  0  0  0  0  0  0  0  0  0  0  0
  141.8480   78.4405  220.6823 H   0  0  0  0  0  0  0  0  0  0  0  0
  142.1238   76.7796  218.7556 H   0  0  0  0  0  0  0  0  0  0  0  0
  143.2371   76.6427  220.1883 H   0  0  0  0  0  0  0  0  0  0  0  0
  141.7986   74.5906  219.0275 H   0  0  0  0  0  0  0  0  0  0  0  0
  142.6765   74.6471  221.8614 H   0  0  0  0  0  0  0  0  0  0  0  0
  141.7675   72.5098  221.3176 H   0  0  0  0  0  0  0  0  0  0  0  0
  142.2527   72.6712  219.5808 H   0  0  0  0  0  0  0  0  0  0  0  0
  144.1964   72.2634  221.8866 H   0  0  0  0  0  0  0  0  0  0  0  0
  143.5418   70.9477  220.8262 H   0  0  0  0  0  0  0  0  0  0  0  0
  145.8757   72.2772  220.3357 H   0  0  0  0  0  0  0  0  0  0  0  0
  144.8803   71.5284  219.0683 H   0  0  0  0  0  0  0  0  0  0  0  0
  145.4893   74.0756  218.7785 H   0  0  0  0  0  0  0  0  0  0  0  0
  143.7878   73.6485  218.5405 H   0  0  0  0  0  0  0  0  0  0  0  0
  144.8756   74.2984  221.3239 H   0  0  0  0  0  0  0  0  0  0  0  0
  144.3751   75.6093  220.2082 H   0  0  0  0  0  0  0  0  0  0  0  0
  138.3661   69.4080  222.1735 H   0  0  0  0  0  0  0  0  0  0  0  0
  138.9521   67.9858  224.0992 H   0  0  0  0  0  0  0  0  0  0  0  0
  139.8985   67.7510  226.2549 H   0  0  0  0  0  0  0  0  0  0  0  0
  141.5289   71.2449  228.1869 H   0  0  0  0  0  0  0  0  0  0  0  0
  140.9142   72.6389  226.2253 H   0  0  0  0  0  0  0  0  0  0  0  0
  1  2  2  0
  2  3  1  0
  3  4  1  0
  4  5  1  0
  5  6  2  0
  5  7  1  0
  7  8  1  0
  8  9  1  0
  9 10  1  0
 10 11  1  0
 11 12  1  0
 12 13  1  0
 13 14  1  0
 14 15  1  0
 15 16  1  0
 16 17  1  0
 17 18  1  0
  2 19  1  0
 19 20  2  0
 20 21  1  0
 21 22  2  0
 22 23  1  0
 23 24  2  0
 24 25  1  0
 24 26  1  0
 26 27  2  0
 27 28  1  0
 28 29  2  0
 12  7  1  0
 18 13  1  0
 29 19  1  0
 28 22  1  0
  3 30  1  0
  4 31  1  0
  4 32  1  0
  8 33  1  0
  8 34  1  0
  9 35  1  0
  9 36  1  0
 10 37  1  0
 10 38  1  0
 11 39  1  0
 11 40  1  0
 12 41  1  6
 13 42  1  0
 14 43  1  0
 14 44  1  0
 15 45  1  0
 15 46  1  0
 16 47  1  0
 16 48  1  0
 17 49  1  0
 17 50  1  0
 18 51  1  0
 18 52  1  0
 20 53  1  0
 21 54  1  0
 23 55  1  0
 26 56  1  0
 27 57  1  0
M  END
>  <smiles>  (83) 
O=C(NCC(=O)N1CCCCC1C1CCCCC1)c1ccc2cc(Cl)ccc2n1

>  <score_type>  (83) 
oracle

>  <origin>  (83) 
autodockgpu

>  <m_score__min__energy>  (83) 
-9.1899999999999995

>  <m_primary>  (83) 
energy

>  <rmsd>  (83) 
2.3025160520284205

>  <m_score__min__rmsd>  (83) 
2.3025160520284205

>  <meeko>  (83) 
{"free_energy": -7.75, "intermolecular_energy": -9.25, "internal_energy": -2.02, "cluster_size": 8, "cluster_id": 3, "rank_in_cluster": 6}

>  <energy>  (83) 
-8.23

>  <cluster_rmsd>  (83) 
1.86

>  <cluster>  (83) 
1

$$$$

     RDKit          3D

 57 60  0  0  0  0  0  0  0  0999 V2000
  138.7080   72.8830  220.7490 O   0  0  0  0  0  0  0  0  0  0  0  0
  138.4360   73.6610  221.7220 C   0  0  0  0  0  0  0  0  0  0  0  0
  137.4070   73.3310  222.6700 N   0  0  0  0  0  0  0  0  0  0  0  0
  136.7090   72.0640  222.4440 C   0  0  0  0  0  0  0  0  0  0  0  0
  137.0780   71.0670  223.4780 C   0  0  0  0  0  0  0  0  0  0  0  0
  136.3070   70.8220  224.4450 O   0  0  0  0  0  0  0  0  0  0  0  0
  138.2970   70.3490  223.4340 N   0  0  0  0  0  0  0  0  0  0  0  0
  139.1450   70.4010  222.2290 C   0  0  0  0  0  0  0  0  0  0  0  0
  139.5620   69.0170  221.8190 C   0  0  0  0  0  0  0  0  0  0  0  0
  138.7110   67.9940  222.5320 C   0  0  0  0  0  0  0  0  0  0  0  0
  138.8450   68.1040  224.0340 C   0  0  0  0  0  0  0  0  0  0  0  0
  138.8050   69.5290  224.5130 C   0  0  1  0  0  0  0  0  0  0  0  0
  140.1440   70.0190  225.0020 C   0  0  0  0  0  0  0  0  0  0  0  0
  140.0180   71.4790  225.3760 C   0  0  0  0  0  0  0  0  0  0  0  0
  141.0700   71.8820  226.3930 C   0  0  0  0  0  0  0  0  0  0  0  0
  140.8530   71.1920  227.7220 C   0  0  0  0  0  0  0  0  0  0  0  0
  140.0510   69.9220  227.4350 C   0  0  0  0  0  0  0  0  0  0  0  0
  140.6680   69.3140  226.1940 C   0  0  0  0  0  0  0  0  0  0  0  0
  139.1690   74.9100  221.8920 C   0  0  0  0  0  0  0  0  0  0  0  0
  140.4900   74.9780  221.4840 C   0  0  0  0  0  0  0  0  0  0  0  0
  141.2600   76.1110  221.6040 C   0  0  0  0  0  0  0  0  0  0  0  0
  140.6830   77.2210  222.1560 C   0  0  0  0  0  0  0  0  0  0  0  0
  141.4610   78.3620  222.2750 C   0  0  0  0  0  0  0  0  0  0  0  0
  140.8630   79.4700  222.8330 C   0  0  0  0  0  0  0  0  0  0  0  0
  141.8100   80.9310  223.0040 Cl  0  0  0  0  0  0  0  0  0  0  0  0
  139.5430   79.4320  223.2510 C   0  0  0  0  0  0  0  0  0  0  0  0
  138.7990   78.2730  223.1150 C   0  0  0  0  0  0  0  0  0  0  0  0
  139.3780   77.1560  222.5600 C   0  0  0  0  0  0  0  0  0  0  0  0
  138.6430   76.0170  222.4270 N   0  0  0  0  0  0  0  0  0  0  0  0
  137.1820   73.9650  223.4670 H   0  0  0  0  0  0  0  0  0  0  0  0
  135.6236   72.2385  222.4825 H   0  0  0  0  0  0  0  0  0  0  0  0
  136.9995   71.6728  221.4578 H   0  0  0  0  0  0  0  0  0  0  0  0
  138.5797   70.8668  221.4083 H   0  0  0  0  0  0  0  0  0  0  0  0
  140.0452   70.9922  222.4527 H   0  0  0  0  0  0  0  0  0  0  0  0
  139.4348   68.9042  220.7322 H   0  0  0  0  0  0  0  0  0  0  0  0
  140.6175   68.8615  222.0868 H   0  0  0  0  0  0  0  0  0  0  0  0
  137.6580   68.1513  222.2556 H   0  0  0  0  0  0  0  0  0  0  0  0
  139.0527   66.9931  222.2297 H   0  0  0  0  0  0  0  0  0  0  0  0
  138.0182   67.5507  224.5034 H   0  0  0  0  0  0  0  0  0  0  0  0
  139.8226   67.6846  224.3139 H   0  0  0  0  0  0  0  0  0  0  0  0
  138.1393   69.5950  225.3862 H   0  0  0  0  0  0  0  0  0  0  0  0
  140.8454   69.8326  224.1754 H   0  0  0  0  0  0  0  0  0  0  0  0
  140.1412   72.0923  224.4712 H   0  0  0  0  0  0  0  0  0  0  0  0
  139.0254   71.6379  225.8226 H   0  0  0  0  0  0  0  0  0  0  0  0
  142.0631   71.6087  226.0068 H   0  0  0  0  0  0  0  0  0  0  0  0
  140.9959   72.9678  226.5529 H   0  0  0  0  0  0  0  0  0  0  0  0
  141.8206   70.9340  228.1771 H   0  0  0  0  0  0  0  0  0  0  0  0
  140.3164   71.8473  228.4239 H   0  0  0  0  0  0  0  0  0  0  0  0
  140.1253   69.2230  228.2811 H   0  0  0  0  0  0  0  0  0  0  0  0
  138.9833   70.1427  227.2888 H   0  0  0  0  0  0  0  0  0  0  0  0
  141.7620   69.4215  226.2351 H   0  0  0  0  0  0  0  0  0  0  0  0
  140.4129   68.2455  226.1366 H   0  0  0  0  0  0  0  0  0  0  0  0
  140.9468   74.0805  221.0415 H   0  0  0  0  0  0  0  0  0  0  0  0
  142.3069   76.1240  221.2666 H   0  0  0  0  0  0  0  0  0  0  0  0
  142.5083   78.3816  221.9391 H   0  0  0  0  0  0  0  0  0  0  0  0
  139.0835   80.3281  223.6936 H   0  0  0  0  0  0  0  0  0  0  0  0
  137.7512   78.2455  223.4487 H   0  0  0  0  0  0  0  0  0  0  0  0
  1  2  2  0
  2  3  1  0
  3  4  1  0
  4  5  1  0
  5  6  2  0
  5  7  1  0
  7  8  1  0
  8  9  1  0
  9 10  1  0
 10 11  1  0
 11 12  1  0
 12 13  1  0
 13 14  1  0
 14 15  1  0
 15 16  1  0
 16 17  1  0
 17 18  1  0
  2 19  1  0
 19 20  2  0
 20 21  1  0
 21 22  2  0
 22 23  1  0
 23 24  2  0
 24 25  1  0
 24 26  1  0
 26 27  2  0
 27 28  1  0
 28 29  2  0
 12  7  1  0
 18 13  1  0
 29 19  1  0
 28 22  1  0
  3 30  1  0
  4 31  1  0
  4 32  1  0
  8 33  1  0
  8 34  1  0
  9 35  1  0
  9 36  1  0
 10 37  1  0
 10 38  1  0
 11 39  1  0
 11 40  1  0
 12 41  1  1
 13 42  1  0
 14 43  1  0
 14 44  1  0
 15 45  1  0
 15 46  1  0
 16 47  1  0
 16 48  1  0
 17 49  1  0
 17 50  1  0
 18 51  1  0
 18 52  1  0
 20 53  1  0
 21 54  1  0
 23 55  1  0
 26 56  1  0
 27 57  1  0
M  END
>  <smiles>  (84) 
O=C(NCC(=O)N1CCCCC1C1CCCCC1)c1ccc2cc(Cl)ccc2n1

>  <score_type>  (84) 
oracle

>  <origin>  (84) 
autodockgpu

>  <m_score__min__energy>  (84) 
-9.1899999999999995

>  <m_primary>  (84) 
energy

>  <rmsd>  (84) 
7.791704704015448

>  <m_score__min__rmsd>  (84) 
7.791704704015448

>  <meeko>  (84) 
{"free_energy": -7.93, "intermolecular_energy": -9.42, "internal_energy": -1.88, "cluster_size": 1, "cluster_id": 4, "rank_in_cluster": 1}

>  <energy>  (84) 
-8.21

>  <cluster_rmsd>  (84) 
1.84

>  <cluster>  (84) 
1

$$$$

     RDKit          3D

 57 60  0  0  0  0  0  0  0  0999 V2000
  134.0610   70.6320  226.1720 O   0  0  0  0  0  0  0  0  0  0  0  0
  134.3180   71.8200  225.7840 C   0  0  0  0  0  0  0  0  0  0  0  0
  135.3200   72.0720  224.7850 N   0  0  0  0  0  0  0  0  0  0  0  0
  136.0100   70.8950  224.2550 C   0  0  0  0  0  0  0  0  0  0  0  0
  137.2650   71.2840  223.5670 C   0  0  0  0  0  0  0  0  0  0  0  0
  137.3510   72.3790  222.9510 O   0  0  0  0  0  0  0  0  0  0  0  0
  138.4130   70.4550  223.5660 N   0  0  0  0  0  0  0  0  0  0  0  0
  139.2730   70.3820  222.3710 C   0  0  0  0  0  0  0  0  0  0  0  0
  139.5630   68.9510  222.0180 C   0  0  0  0  0  0  0  0  0  0  0  0
  138.6140   68.0390  222.7570 C   0  0  0  0  0  0  0  0  0  0  0  0
  138.7420   68.1940  224.2550 C   0  0  0  0  0  0  0  0  0  0  0  0
  138.8310   69.6330  224.6800 C   0  0  1  0  0  0  0  0  0  0  0  0
  140.2050   70.0150  225.1700 C   0  0  0  0  0  0  0  0  0  0  0  0
  140.2120   71.4940  225.4850 C   0  0  0  0  0  0  0  0  0  0  0  0
  141.2860   71.8370  226.5010 C   0  0  0  0  0  0  0  0  0  0  0  0
  140.9920   71.2230  227.8520 C   0  0  0  0  0  0  0  0  0  0  0  0
  140.0770   70.0230  227.6030 C   0  0  0  0  0  0  0  0  0  0  0  0
  140.6480   69.3120  226.3940 C   0  0  0  0  0  0  0  0  0  0  0  0
  133.5940   72.9500  226.3510 C   0  0  0  0  0  0  0  0  0  0  0  0
  132.3890   72.7270  226.9940 C   0  0  0  0  0  0  0  0  0  0  0  0
  131.6360   73.7300  227.5580 C   0  0  0  0  0  0  0  0  0  0  0  0
  132.1110   75.0100  227.4760 C   0  0  0  0  0  0  0  0  0  0  0  0
  131.3510   76.0190  228.0460 C   0  0  0  0  0  0  0  0  0  0  0  0
  131.8460   77.3010  227.9540 C   0  0  0  0  0  0  0  0  0  0  0  0
  130.9180   78.6060  228.6590 Cl  0  0  0  0  0  0  0  0  0  0  0  0
  133.0500   77.5560  227.3170 C   0  0  0  0  0  0  0  0  0  0  0  0
  133.7790   76.5210  226.7600 C   0  0  0  0  0  0  0  0  0  0  0  0
  133.3020   75.2330  226.8420 C   0  0  0  0  0  0  0  0  0  0  0  0
  134.0230   74.2160  226.2920 N   0  0  0  0  0  0  0  0  0  0  0  0
  135.5320   73.0430  224.4660 H   0  0  0  0  0  0  0  0  0  0  0  0
  136.2501   70.2139  225.0848 H   0  0  0  0  0  0  0  0  0  0  0  0
  135.3502   70.3974  223.5290 H   0  0  0  0  0  0  0  0  0  0  0  0
  138.7611   70.8666  221.5265 H   0  0  0  0  0  0  0  0  0  0  0  0
  140.2223   70.8952  222.5841 H   0  0  0  0  0  0  0  0  0  0  0  0
  139.4361   68.8093  220.9346 H   0  0  0  0  0  0  0  0  0  0  0  0
  140.5968   68.7087  222.3052 H   0  0  0  0  0  0  0  0  0  0  0  0
  137.5829   68.2816  222.4604 H   0  0  0  0  0  0  0  0  0  0  0  0
  138.8649   67.0000  222.4972 H   0  0  0  0  0  0  0  0  0  0  0  0
  137.8620   67.7389  224.7331 H   0  0  0  0  0  0  0  0  0  0  0  0
  139.6732   67.6964  224.5638 H   0  0  0  0  0  0  0  0  0  0  0  0
  138.1654   69.7934  225.5409 H   0  0  0  0  0  0  0  0  0  0  0  0
  140.8953   69.7313  224.3619 H   0  0  0  0  0  0  0  0  0  0  0  0
  140.4021   72.0566  224.5590 H   0  0  0  0  0  0  0  0  0  0  0  0
  139.2337   71.7628  225.9101 H   0  0  0  0  0  0  0  0  0  0  0  0
  142.2533   71.4578  226.1396 H   0  0  0  0  0  0  0  0  0  0  0  0
  141.3114   72.9304  226.6185 H   0  0  0  0  0  0  0  0  0  0  0  0
  141.9266   70.8938  228.3297 H   0  0  0  0  0  0  0  0  0  0  0  0
  140.5124   71.9527  228.5210 H   0  0  0  0  0  0  0  0  0  0  0  0
  140.0768   69.3539  228.4761 H   0  0  0  0  0  0  0  0  0  0  0  0
  139.0361   70.3360  227.4342 H   0  0  0  0  0  0  0  0  0  0  0  0
  141.7467   69.3190  226.4465 H   0  0  0  0  0  0  0  0  0  0  0  0
  140.2950   68.2704  226.3735 H   0  0  0  0  0  0  0  0  0  0  0  0
  132.0144   71.6947  227.0572 H   0  0  0  0  0  0  0  0  0  0  0  0
  130.6819   73.5098  228.0592 H   0  0  0  0  0  0  0  0  0  0  0  0
  130.3962   75.8058  228.5489 H   0  0  0  0  0  0  0  0  0  0  0  0
  133.4279   78.5871  227.2540 H   0  0  0  0  0  0  0  0  0  0  0  0
  134.7342   76.7263  226.2546 H   0  0  0  0  0  0  0  0  0  0  0  0
  1  2  2  0
  2  3  1  0
  3  4  1  0
  4  5  1  0
  5  6  2  0
  5  7  1  0
  7  8  1  0
  8  9  1  0
  9 10  1  0
 10 11  1  0
 11 12  1  0
 12 13  1  0
 13 14  1  0
 14 15  1  0
 15 16  1  0
 16 17  1  0
 17 18  1  0
  2 19  1  0
 19 20  2  0
 20 21  1  0
 21 22  2  0
 22 23  1  0
 23 24  2  0
 24 25  1  0
 24 26  1  0
 26 27  2  0
 27 28  1  0
 28 29  2  0
 12  7  1  0
 18 13  1  0
 29 19  1  0
 28 22  1  0
  3 30  1  0
  4 31  1  0
  4 32  1  0
  8 33  1  0
  8 34  1  0
  9 35  1  0
  9 36  1  0
 10 37  1  0
 10 38  1  0
 11 39  1  0
 11 40  1  0
 12 41  1  1
 13 42  1  0
 14 43  1  0
 14 44  1  0
 15 45  1  0
 15 46  1  0
 16 47  1  0
 16 48  1  0
 17 49  1  0
 17 50  1  0
 18 51  1  0
 18 52  1  0
 20 53  1  0
 21 54  1  0
 23 55  1  0
 26 56  1  0
 27 57  1  0
M  END
>  <smiles>  (85) 
O=C(NCC(=O)N1CCCCC1C1CCCCC1)c1ccc2cc(Cl)ccc2n1

>  <score_type>  (85) 
oracle

>  <origin>  (85) 
autodockgpu

>  <m_score__min__energy>  (85) 
-9.1899999999999995

>  <m_primary>  (85) 
energy

>  <rmsd>  (85) 
8.475741063798234

>  <m_score__min__rmsd>  (85) 
8.475741063798234

>  <meeko>  (85) 
{"free_energy": -8.14, "intermolecular_energy": -9.63, "internal_energy": -1.87, "cluster_size": 2, "cluster_id": 2, "rank_in_cluster": 1}

>  <energy>  (85) 
-8.01

>  <cluster_rmsd>  (85) 
1.01

>  <cluster>  (85) 
1

$$$$

     RDKit          3D

 57 60  0  0  0  0  0  0  0  0999 V2000
  138.8960   72.5170  220.8720 O   0  0  0  0  0  0  0  0  0  0  0  0
  139.7800   72.7020  221.7720 C   0  0  0  0  0  0  0  0  0  0  0  0
  140.7440   73.7620  221.6540 N   0  0  0  0  0  0  0  0  0  0  0  0
  140.6400   74.5950  220.4550 C   0  0  0  0  0  0  0  0  0  0  0  0
  140.8870   76.0210  220.7800 C   0  0  0  0  0  0  0  0  0  0  0  0
  141.8590   76.6410  220.2710 O   0  0  0  0  0  0  0  0  0  0  0  0
  140.0560   76.7490  221.6650 N   0  0  0  0  0  0  0  0  0  0  0  0
  139.2890   76.0450  222.7100 C   0  0  0  0  0  0  0  0  0  0  0  0
  137.8570   76.4990  222.7080 C   0  0  0  0  0  0  0  0  0  0  0  0
  137.5610   77.2520  221.4330 C   0  0  0  0  0  0  0  0  0  0  0  0
  138.4460   78.4690  221.2840 C   0  0  0  0  0  0  0  0  0  0  0  0
  139.8810   78.1840  221.6320 C   0  0  1  0  0  0  0  0  0  0  0  0
  140.3070   78.8290  222.9250 C   0  0  0  0  0  0  0  0  0  0  0  0
  141.8170   78.7930  223.0090 C   0  0  0  0  0  0  0  0  0  0  0  0
  142.3470   79.8900  223.9130 C   0  0  0  0  0  0  0  0  0  0  0  0
  142.0930   81.2630  223.3300 C   0  0  0  0  0  0  0  0  0  0  0  0
  140.9100   81.1240  222.3710 C   0  0  0  0  0  0  0  0  0  0  0  0
  139.9030   80.2440  223.0810 C   0  0  0  0  0  0  0  0  0  0  0  0
  139.8300   71.8380  222.9440 C   0  0  0  0  0  0  0  0  0  0  0  0
  139.2310   70.5910  222.8890 C   0  0  0  0  0  0  0  0  0  0  0  0
  139.2270   69.7080  223.9430 C   0  0  0  0  0  0  0  0  0  0  0  0
  139.8500   70.0890  225.0990 C   0  0  0  0  0  0  0  0  0  0  0  0
  139.8450   69.1970  226.1600 C   0  0  0  0  0  0  0  0  0  0  0  0
  140.4770   69.5990  227.3170 C   0  0  0  0  0  0  0  0  0  0  0  0
  140.4950   68.5040  228.6810 Cl  0  0  0  0  0  0  0  0  0  0  0  0
  141.0860   70.8400  227.4000 C   0  0  0  0  0  0  0  0  0  0  0  0
  141.0690   71.7030  226.3190 C   0  0  0  0  0  0  0  0  0  0  0  0
  140.4430   71.3210  225.1550 C   0  0  0  0  0  0  0  0  0  0  0  0
  140.4280   72.1720  224.0930 N   0  0  0  0  0  0  0  0  0  0  0  0
  141.4690   73.9180  222.3890 H   0  0  0  0  0  0  0  0  0  0  0  0
  141.3838   74.2594  219.7173 H   0  0  0  0  0  0  0  0  0  0  0  0
  139.6235   74.4980  220.0460 H   0  0  0  0  0  0  0  0  0  0  0  0
  139.3257   74.9624  222.5185 H   0  0  0  0  0  0  0  0  0  0  0  0
  139.7327   76.2721  223.6906 H   0  0  0  0  0  0  0  0  0  0  0  0
  137.1959   75.6225  222.7763 H   0  0  0  0  0  0  0  0  0  0  0  0
  137.6847   77.1612  223.5693 H   0  0  0  0  0  0  0  0  0  0  0  0
  137.7284   76.5824  220.5765 H   0  0  0  0  0  0  0  0  0  0  0  0
  136.5152   77.5909  221.4698 H   0  0  0  0  0  0  0  0  0  0  0  0
  138.3980   78.8144  220.2407 H   0  0  0  0  0  0  0  0  0  0  0  0
  138.0791   79.2363  221.9816 H   0  0  0  0  0  0  0  0  0  0  0  0
  140.5318   78.6271  220.8638 H   0  0  0  0  0  0  0  0  0  0  0  0
  139.8041   78.2558  223.7178 H   0  0  0  0  0  0  0  0  0  0  0  0
  142.1301   77.8172  223.4088 H   0  0  0  0  0  0  0  0  0  0  0  0
  142.2239   78.9496  221.9991 H   0  0  0  0  0  0  0  0  0  0  0  0
  141.8478   79.8193  224.8906 H   0  0  0  0  0  0  0  0  0  0  0  0
  143.4339   79.7557  224.0164 H   0  0  0  0  0  0  0  0  0  0  0  0
  141.8489   81.9755  224.1317 H   0  0  0  0  0  0  0  0  0  0  0  0
  142.9836   81.6402  222.8060 H   0  0  0  0  0  0  0  0  0  0  0  0
  140.4727   82.1104  222.1570 H   0  0  0  0  0  0  0  0  0  0  0  0
  141.2186   80.6900  221.4085 H   0  0  0  0  0  0  0  0  0  0  0  0
  139.8743   80.5039  224.1495 H   0  0  0  0  0  0  0  0  0  0  0  0
  138.9041   80.3959  222.6462 H   0  0  0  0  0  0  0  0  0  0  0  0
  138.7331   70.2915  221.9550 H   0  0  0  0  0  0  0  0  0  0  0  0
  138.7381   68.7262  223.8589 H   0  0  0  0  0  0  0  0  0  0  0  0
  139.3589   68.2133  226.0822 H   0  0  0  0  0  0  0  0  0  0  0  0
  141.5867   71.1415  228.3319 H   0  0  0  0  0  0  0  0  0  0  0  0
  141.5529   72.6883  226.3896 H   0  0  0  0  0  0  0  0  0  0  0  0
  1  2  2  0
  2  3  1  0
  3  4  1  0
  4  5  1  0
  5  6  2  0
  5  7  1  0
  7  8  1  0
  8  9  1  0
  9 10  1  0
 10 11  1  0
 11 12  1  0
 12 13  1  0
 13 14  1  0
 14 15  1  0
 15 16  1  0
 16 17  1  0
 17 18  1  0
  2 19  1  0
 19 20  2  0
 20 21  1  0
 21 22  2  0
 22 23  1  0
 23 24  2  0
 24 25  1  0
 24 26  1  0
 26 27  2  0
 27 28  1  0
 28 29  2  0
 12  7  1  0
 18 13  1  0
 29 19  1  0
 28 22  1  0
  3 30  1  0
  4 31  1  0
  4 32  1  0
  8 33  1  0
  8 34  1  0
  9 35  1  0
  9 36  1  0
 10 37  1  0
 10 38  1  0
 11 39  1  0
 11 40  1  0
 12 41  1  6
 13 42  1  0
 14 43  1  0
 14 44  1  0
 15 45  1  0
 15 46  1  0
 16 47  1  0
 16 48  1  0
 17 49  1  0
 17 50  1  0
 18 51  1  0
 18 52  1  0
 20 53  1  0
 21 54  1  0
 23 55  1  0
 26 56  1  0
 27 57  1  0
M  END
>  <smiles>  (86) 
O=C(NCC(=O)N1CCCCC1C1CCCCC1)c1ccc2cc(Cl)ccc2n1

>  <score_type>  (86) 
oracle

>  <origin>  (86) 
autodockgpu

>  <m_score__min__energy>  (86) 
-9.1899999999999995

>  <m_primary>  (86) 
energy

>  <rmsd>  (86) 
3.0093390095967973

>  <m_score__min__rmsd>  (86) 
3.0093390095967973

>  <meeko>  (86) 
{"free_energy": -8.26, "intermolecular_energy": -9.75, "internal_energy": -1.72, "cluster_size": 37, "cluster_id": 1, "rank_in_cluster": 31}

>  <energy>  (86) 
-7.85

>  <cluster_rmsd>  (86) 
1.93

>  <cluster>  (86) 
1

$$$$

     RDKit          3D

 57 60  0  0  0  0  0  0  0  0999 V2000
  140.9960   72.5400  220.9120 O   0  0  0  0  0  0  0  0  0  0  0  0
  140.2130   72.7800  221.8900 C   0  0  0  0  0  0  0  0  0  0  0  0
  139.3480   73.9280  221.8810 N   0  0  0  0  0  0  0  0  0  0  0  0
  139.4260   74.7820  220.6960 C   0  0  0  0  0  0  0  0  0  0  0  0
  140.2240   76.0010  220.9740 C   0  0  0  0  0  0  0  0  0  0  0  0
  141.3890   76.1290  220.5140 O   0  0  0  0  0  0  0  0  0  0  0  0
  139.7240   77.0660  221.7620 N   0  0  0  0  0  0  0  0  0  0  0  0
  138.6380   76.8270  222.7300 C   0  0  0  0  0  0  0  0  0  0  0  0
  137.5590   77.8600  222.5770 C   0  0  0  0  0  0  0  0  0  0  0  0
  137.7360   78.5940  221.2690 C   0  0  0  0  0  0  0  0  0  0  0  0
  139.0750   79.2920  221.1970 C   0  0  0  0  0  0  0  0  0  0  0  0
  140.2020   78.4300  221.6930 C   0  0  1  0  0  0  0  0  0  0  0  0
  140.7550   78.8940  223.0160 C   0  0  0  0  0  0  0  0  0  0  0  0
  142.2330   79.1690  222.8530 C   0  0  0  0  0  0  0  0  0  0  0  0
  142.7280   80.1640  223.8860 C   0  0  0  0  0  0  0  0  0  0  0  0
  142.1230   81.5350  223.6750 C   0  0  0  0  0  0  0  0  0  0  0  0
  140.8170   81.3280  222.9060 C   0  0  0  0  0  0  0  0  0  0  0  0
  140.1440   80.1330  223.5470 C   0  0  0  0  0  0  0  0  0  0  0  0
  140.1820   71.8890  223.0430 C   0  0  0  0  0  0  0  0  0  0  0  0
  139.6090   70.6360  222.9130 C   0  0  0  0  0  0  0  0  0  0  0  0
  139.5330   69.7280  223.9430 C   0  0  0  0  0  0  0  0  0  0  0  0
  140.0540   70.0910  225.1540 C   0  0  0  0  0  0  0  0  0  0  0  0
  139.9770   69.1740  226.1910 C   0  0  0  0  0  0  0  0  0  0  0  0
  140.5070   69.5570  227.4040 C   0  0  0  0  0  0  0  0  0  0  0  0
  140.4300   68.4310  228.7400 Cl  0  0  0  0  0  0  0  0  0  0  0  0
  141.0870   70.8050  227.5640 C   0  0  0  0  0  0  0  0  0  0  0  0
  141.1440   71.6920  226.5050 C   0  0  0  0  0  0  0  0  0  0  0  0
  140.6210   71.3290  225.2860 C   0  0  0  0  0  0  0  0  0  0  0  0
  140.6790   72.2050  224.2440 N   0  0  0  0  0  0  0  0  0  0  0  0
  138.7060   74.1270  222.6800 H   0  0  0  0  0  0  0  0  0  0  0  0
  139.8999   74.2201  219.8776 H   0  0  0  0  0  0  0  0  0  0  0  0
  138.4071   75.0856  220.4138 H   0  0  0  0  0  0  0  0  0  0  0  0
  138.2105   75.8287  222.5550 H   0  0  0  0  0  0  0  0  0  0  0  0
  139.0492   76.8908  223.7482 H   0  0  0  0  0  0  0  0  0  0  0  0
  136.5762   77.3661  222.5886 H   0  0  0  0  0  0  0  0  0  0  0  0
  137.6226   78.5778  223.4081 H   0  0  0  0  0  0  0  0  0  0  0  0
  137.6655   77.8717  220.4424 H   0  0  0  0  0  0  0  0  0  0  0  0
  136.9469   79.3567  221.1940 H   0  0  0  0  0  0  0  0  0  0  0  0
  139.2744   79.5652  220.1503 H   0  0  0  0  0  0  0  0  0  0  0  0
  139.0239   80.1797  221.8445 H   0  0  0  0  0  0  0  0  0  0  0  0
  141.0445   78.5024  220.9895 H   0  0  0  0  0  0  0  0  0  0  0  0
  140.5305   78.0862  223.7281 H   0  0  0  0  0  0  0  0  0  0  0  0
  142.7875   78.2262  222.9697 H   0  0  0  0  0  0  0  0  0  0  0  0
  142.3973   79.5972  221.8532 H   0  0  0  0  0  0  0  0  0  0  0  0
  142.4540   79.8036  224.8885 H   0  0  0  0  0  0  0  0  0  0  0  0
  143.8198   80.2508  223.7840 H   0  0  0  0  0  0  0  0  0  0  0  0
  141.9198   82.0126  224.6448 H   0  0  0  0  0  0  0  0  0  0  0  0
  142.8102   82.1882  223.1173 H   0  0  0  0  0  0  0  0  0  0  0  0
  140.1773   82.2188  222.9912 H   0  0  0  0  0  0  0  0  0  0  0  0
  141.0010   81.1616  221.8343 H   0  0  0  0  0  0  0  0  0  0  0  0
  140.2809   80.1737  224.6377 H   0  0  0  0  0  0  0  0  0  0  0  0
  139.0682   80.1449  223.3176 H   0  0  0  0  0  0  0  0  0  0  0  0
  139.1928   70.3517  221.9353 H   0  0  0  0  0  0  0  0  0  0  0  0
  139.0682   68.7417  223.7974 H   0  0  0  0  0  0  0  0  0  0  0  0
  139.5140   68.1859  226.0518 H   0  0  0  0  0  0  0  0  0  0  0  0
  141.5050   71.0921  228.5402 H   0  0  0  0  0  0  0  0  0  0  0  0
  141.6049   72.6821  226.6367 H   0  0  0  0  0  0  0  0  0  0  0  0
  1  2  2  0
  2  3  1  0
  3  4  1  0
  4  5  1  0
  5  6  2  0
  5  7  1  0
  7  8  1  0
  8  9  1  0
  9 10  1  0
 10 11  1  0
 11 12  1  0
 12 13  1  0
 13 14  1  0
 14 15  1  0
 15 16  1  0
 16 17  1  0
 17 18  1  0
  2 19  1  0
 19 20  2  0
 20 21  1  0
 21 22  2  0
 22 23  1  0
 23 24  2  0
 24 25  1  0
 24 26  1  0
 26 27  2  0
 27 28  1  0
 28 29  2  0
 12  7  1  0
 18 13  1  0
 29 19  1  0
 28 22  1  0
  3 30  1  0
  4 31  1  0
  4 32  1  0
  8 33  1  0
  8 34  1  0
  9 35  1  0
  9 36  1  0
 10 37  1  0
 10 38  1  0
 11 39  1  0
 11 40  1  0
 12 41  1  6
 13 42  1  0
 14 43  1  0
 14 44  1  0
 15 45  1  0
 15 46  1  0
 16 47  1  0
 16 48  1  0
 17 49  1  0
 17 50  1  0
 18 51  1  0
 18 52  1  0
 20 53  1  0
 21 54  1  0
 23 55  1  0
 26 56  1  0
 27 57  1  0
M  END
>  <smiles>  (87) 
O=C(NCC(=O)N1CCCCC1C1CCCCC1)c1ccc2cc(Cl)ccc2n1

>  <score_type>  (87) 
oracle

>  <origin>  (87) 
autodockgpu

>  <m_score__min__energy>  (87) 
-9.1899999999999995

>  <m_primary>  (87) 
energy

>  <rmsd>  (87) 
2.9800326261505474

>  <m_score__min__rmsd>  (87) 
2.9800326261505474

>  <meeko>  (87) 
{"free_energy": -8.94, "intermolecular_energy": -10.43, "internal_energy": -1.39, "cluster_size": 37, "cluster_id": 1, "rank_in_cluster": 10}

>  <energy>  (87) 
-7.8

>  <cluster_rmsd>  (87) 
1.78

>  <cluster>  (87) 
1

$$$$

     RDKit          3D

 57 60  0  0  0  0  0  0  0  0999 V2000
  140.0240   71.9370  220.7430 O   0  0  0  0  0  0  0  0  0  0  0  0
  139.8630   72.4090  221.9160 C   0  0  0  0  0  0  0  0  0  0  0  0
  139.5850   73.8050  222.1210 N   0  0  0  0  0  0  0  0  0  0  0  0
  139.5010   74.6270  220.9140 C   0  0  0  0  0  0  0  0  0  0  0  0
  140.2430   75.8990  221.0880 C   0  0  0  0  0  0  0  0  0  0  0  0
  141.4000   76.0420  220.6110 O   0  0  0  0  0  0  0  0  0  0  0  0
  139.6980   77.0010  221.7900 N   0  0  0  0  0  0  0  0  0  0  0  0
  138.5730   76.8030  222.7230 C   0  0  0  0  0  0  0  0  0  0  0  0
  137.4900   77.8110  222.4630 C   0  0  0  0  0  0  0  0  0  0  0  0
  137.7170   78.4720  221.1240 C   0  0  0  0  0  0  0  0  0  0  0  0
  139.0500   79.1820  221.0700 C   0  0  0  0  0  0  0  0  0  0  0  0
  140.1640   78.3640  221.6630 C   0  0  1  0  0  0  0  0  0  0  0  0
  140.6530   78.9110  222.9800 C   0  0  0  0  0  0  0  0  0  0  0  0
  142.1520   79.0960  222.9000 C   0  0  0  0  0  0  0  0  0  0  0  0
  142.6330   80.1480  223.8820 C   0  0  0  0  0  0  0  0  0  0  0  0
  142.1220   81.5250  223.5170 C   0  0  0  0  0  0  0  0  0  0  0  0
  140.8600   81.3200  222.6760 C   0  0  0  0  0  0  0  0  0  0  0  0
  140.0790   80.2200  223.3630 C   0  0  0  0  0  0  0  0  0  0  0  0
  139.9580   71.5370  223.0800 C   0  0  0  0  0  0  0  0  0  0  0  0
  139.5200   70.2270  222.9800 C   0  0  0  0  0  0  0  0  0  0  0  0
  139.5700   69.3320  224.0220 C   0  0  0  0  0  0  0  0  0  0  0  0
  140.0810   69.7660  225.2140 C   0  0  0  0  0  0  0  0  0  0  0  0
  140.1310   68.8610  226.2630 C   0  0  0  0  0  0  0  0  0  0  0  0
  140.6490   69.3160  227.4560 C   0  0  0  0  0  0  0  0  0  0  0  0
  140.7300   68.2080  228.8070 Cl  0  0  0  0  0  0  0  0  0  0  0  0
  141.0960   70.6210  227.5860 C   0  0  0  0  0  0  0  0  0  0  0  0
  141.0290   71.4940  226.5150 C   0  0  0  0  0  0  0  0  0  0  0  0
  140.5150   71.0590  225.3150 C   0  0  0  0  0  0  0  0  0  0  0  0
  140.4510   71.9210  224.2630 N   0  0  0  0  0  0  0  0  0  0  0  0
  139.4520   74.1940  223.0800 H   0  0  0  0  0  0  0  0  0  0  0  0
  139.9326   74.0709  220.0687 H   0  0  0  0  0  0  0  0  0  0  0  0
  138.4436   74.8603  220.7203 H   0  0  0  0  0  0  0  0  0  0  0  0
  138.1649   75.7904  222.5883 H   0  0  0  0  0  0  0  0  0  0  0  0
  138.9382   76.9309  223.7527 H   0  0  0  0  0  0  0  0  0  0  0  0
  136.5133   77.3050  222.4595 H   0  0  0  0  0  0  0  0  0  0  0  0
  137.5084   78.5758  223.2534 H   0  0  0  0  0  0  0  0  0  0  0  0
  137.6905   77.7031  220.3378 H   0  0  0  0  0  0  0  0  0  0  0  0
  136.9241   79.2191  220.9715 H   0  0  0  0  0  0  0  0  0  0  0  0
  139.2921   79.3979  220.0189 H   0  0  0  0  0  0  0  0  0  0  0  0
  138.9611   80.1043  221.6629 H   0  0  0  0  0  0  0  0  0  0  0  0
  141.0359   78.4063  220.9936 H   0  0  0  0  0  0  0  0  0  0  0  0
  140.3364   78.1796  223.7381 H   0  0  0  0  0  0  0  0  0  0  0  0
  142.6435   78.1394  223.1309 H   0  0  0  0  0  0  0  0  0  0  0  0
  142.4059   79.4297  221.8831 H   0  0  0  0  0  0  0  0  0  0  0  0
  142.2725   79.8885  224.8883 H   0  0  0  0  0  0  0  0  0  0  0  0
  143.7324   80.1697  223.8524 H   0  0  0  0  0  0  0  0  0  0  0  0
  141.8820   82.0935  224.4276 H   0  0  0  0  0  0  0  0  0  0  0  0
  142.8809   82.0921  222.9580 H   0  0  0  0  0  0  0  0  0  0  0  0
  140.2677   82.2463  222.6423 H   0  0  0  0  0  0  0  0  0  0  0  0
  141.1052   81.0536  221.6373 H   0  0  0  0  0  0  0  0  0  0  0  0
  140.1448   80.3468  224.4537 H   0  0  0  0  0  0  0  0  0  0  0  0
  139.0233   80.2669  223.0575 H   0  0  0  0  0  0  0  0  0  0  0  0
  139.1113   69.8853  222.0176 H   0  0  0  0  0  0  0  0  0  0  0  0
  139.2105   68.2995  223.9010 H   0  0  0  0  0  0  0  0  0  0  0  0
  139.7735   67.8271  226.1482 H   0  0  0  0  0  0  0  0  0  0  0  0
  141.5067   70.9650  228.5467 H   0  0  0  0  0  0  0  0  0  0  0  0
  141.3844   72.5295  226.6220 H   0  0  0  0  0  0  0  0  0  0  0  0
  1  2  2  0
  2  3  1  0
  3  4  1  0
  4  5  1  0
  5  6  2  0
  5  7  1  0
  7  8  1  0
  8  9  1  0
  9 10  1  0
 10 11  1  0
 11 12  1  0
 12 13  1  0
 13 14  1  0
 14 15  1  0
 15 16  1  0
 16 17  1  0
 17 18  1  0
  2 19  1  0
 19 20  2  0
 20 21  1  0
 21 22  2  0
 22 23  1  0
 23 24  2  0
 24 25  1  0
 24 26  1  0
 26 27  2  0
 27 28  1  0
 28 29  2  0
 12  7  1  0
 18 13  1  0
 29 19  1  0
 28 22  1  0
  3 30  1  0
  4 31  1  0
  4 32  1  0
  8 33  1  0
  8 34  1  0
  9 35  1  0
  9 36  1  0
 10 37  1  0
 10 38  1  0
 11 39  1  0
 11 40  1  0
 12 41  1  6
 13 42  1  0
 14 43  1  0
 14 44  1  0
 15 45  1  0
 15 46  1  0
 16 47  1  0
 16 48  1  0
 17 49  1  0
 17 50  1  0
 18 51  1  0
 18 52  1  0
 20 53  1  0
 21 54  1  0
 23 55  1  0
 26 56  1  0
 27 57  1  0
M  END
>  <smiles>  (88) 
O=C(NCC(=O)N1CCCCC1C1CCCCC1)c1ccc2cc(Cl)ccc2n1

>  <score_type>  (88) 
oracle

>  <origin>  (88) 
autodockgpu

>  <m_score__min__energy>  (88) 
-9.1899999999999995

>  <m_primary>  (88) 
energy

>  <rmsd>  (88) 
2.8663540602976703

>  <m_score__min__rmsd>  (88) 
2.8663540602976703

>  <meeko>  (88) 
{"free_energy": -8.95, "intermolecular_energy": -10.44, "internal_energy": -1.45, "cluster_size": 37, "cluster_id": 1, "rank_in_cluster": 9}

>  <energy>  (88) 
-8.14

>  <cluster_rmsd>  (88) 
0.0

>  <cluster>  (88) 
2

$$$$

     RDKit          3D

 57 60  0  0  0  0  0  0  0  0999 V2000
  140.9280   72.5650  220.9100 O   0  0  0  0  0  0  0  0  0  0  0  0
  140.2060   72.8270  221.9280 C   0  0  0  0  0  0  0  0  0  0  0  0
  139.3980   74.0150  221.9760 N   0  0  0  0  0  0  0  0  0  0  0  0
  139.4610   74.8830  220.8000 C   0  0  0  0  0  0  0  0  0  0  0  0
  139.1100   76.2800  221.1540 C   0  0  0  0  0  0  0  0  0  0  0  0
  138.1260   76.5300  221.9000 O   0  0  0  0  0  0  0  0  0  0  0  0
  139.8530   77.3880  220.6790 N   0  0  0  0  0  0  0  0  0  0  0  0
  139.4390   78.0850  219.4470 C   0  0  0  0  0  0  0  0  0  0  0  0
  140.6140   78.2760  218.5310 C   0  0  0  0  0  0  0  0  0  0  0  0
  141.7580   77.3980  218.9770 C   0  0  0  0  0  0  0  0  0  0  0  0
  142.1970   77.7240  220.3860 C   0  0  0  0  0  0  0  0  0  0  0  0
  141.0360   77.9170  221.3210 C   0  0  1  0  0  0  0  0  0  0  0  0
  140.8510   79.3550  221.7340 C   0  0  0  0  0  0  0  0  0  0  0  0
  140.5090   79.3960  223.2070 C   0  0  0  0  0  0  0  0  0  0  0  0
  140.8850   80.7300  223.8250 C   0  0  0  0  0  0  0  0  0  0  0  0
  142.3840   80.9340  223.8390 C   0  0  0  0  0  0  0  0  0  0  0  0
  142.9620   80.0490  222.7340 C   0  0  0  0  0  0  0  0  0  0  0  0
  142.0390   80.2160  221.5450 C   0  0  0  0  0  0  0  0  0  0  0  0
  140.1860   71.9210  223.0690 C   0  0  0  0  0  0  0  0  0  0  0  0
  139.6350   70.6600  222.9200 C   0  0  0  0  0  0  0  0  0  0  0  0
  139.5710   69.7370  223.9380 C   0  0  0  0  0  0  0  0  0  0  0  0
  140.0830   70.0930  225.1560 C   0  0  0  0  0  0  0  0  0  0  0  0
  140.0180   69.1620  226.1800 C   0  0  0  0  0  0  0  0  0  0  0  0
  140.5380   69.5380  227.3990 C   0  0  0  0  0  0  0  0  0  0  0  0
  140.4770   68.3930  228.7210 Cl  0  0  0  0  0  0  0  0  0  0  0  0
  141.0970   70.7930  227.5780 C   0  0  0  0  0  0  0  0  0  0  0  0
  141.1420   71.6950  226.5310 C   0  0  0  0  0  0  0  0  0  0  0  0
  140.6280   71.3380  225.3050 C   0  0  0  0  0  0  0  0  0  0  0  0
  140.6750   72.2290  224.2760 N   0  0  0  0  0  0  0  0  0  0  0  0
  138.8050   74.2320  222.8080 H   0  0  0  0  0  0  0  0  0  0  0  0
  140.4816   74.8608  220.3903 H   0  0  0  0  0  0  0  0  0  0  0  0
  138.7396   74.5175  220.0543 H   0  0  0  0  0  0  0  0  0  0  0  0
  138.6725   77.4867  218.9327 H   0  0  0  0  0  0  0  0  0  0  0  0
  139.0329   79.0714  219.7154 H   0  0  0  0  0  0  0  0  0  0  0  0
  140.3247   78.0056  217.5047 H   0  0  0  0  0  0  0  0  0  0  0  0
  140.9309   79.3289  218.5615 H   0  0  0  0  0  0  0  0  0  0  0  0
  141.4366   76.3467  218.9381 H   0  0  0  0  0  0  0  0  0  0  0  0
  142.6091   77.5754  218.3031 H   0  0  0  0  0  0  0  0  0  0  0  0
  142.8188   76.8980  220.7617 H   0  0  0  0  0  0  0  0  0  0  0  0
  142.7582   78.6694  220.3507 H   0  0  0  0  0  0  0  0  0  0  0  0
  141.2349   77.3739  222.2567 H   0  0  0  0  0  0  0  0  0  0  0  0
  140.0553   79.7471  221.0835 H   0  0  0  0  0  0  0  0  0  0  0  0
  139.4272   79.2376  223.3279 H   0  0  0  0  0  0  0  0  0  0  0  0
  141.0784   78.6050  223.7171 H   0  0  0  0  0  0  0  0  0  0  0  0
  140.4201   81.5379  223.2408 H   0  0  0  0  0  0  0  0  0  0  0  0
  140.5263   80.7410  224.8648 H   0  0  0  0  0  0  0  0  0  0  0  0
  142.6242   81.9894  223.6431 H   0  0  0  0  0  0  0  0  0  0  0  0
  142.8087   80.6693  224.8186 H   0  0  0  0  0  0  0  0  0  0  0  0
  143.9808   80.3743  222.4765 H   0  0  0  0  0  0  0  0  0  0  0  0
  143.0275   78.9976  223.0506 H   0  0  0  0  0  0  0  0  0  0  0  0
  141.7242   81.2671  221.4670 H   0  0  0  0  0  0  0  0  0  0  0  0
  142.5645   79.9276  220.6227 H   0  0  0  0  0  0  0  0  0  0  0  0
  139.2273   70.3816  221.9370 H   0  0  0  0  0  0  0  0  0  0  0  0
  139.1229   68.7452  223.7781 H   0  0  0  0  0  0  0  0  0  0  0  0
  139.5717   68.1683  226.0267 H   0  0  0  0  0  0  0  0  0  0  0  0
  141.5076   71.0736  228.5592 H   0  0  0  0  0  0  0  0  0  0  0  0
  141.5855   72.6910  226.6768 H   0  0  0  0  0  0  0  0  0  0  0  0
  1  2  2  0
  2  3  1  0
  3  4  1  0
  4  5  1  0
  5  6  2  0
  5  7  1  0
  7  8  1  0
  8  9  1  0
  9 10  1  0
 10 11  1  0
 11 12  1  0
 12 13  1  0
 13 14  1  0
 14 15  1  0
 15 16  1  0
 16 17  1  0
 17 18  1  0
  2 19  1  0
 19 20  2  0
 20 21  1  0
 21 22  2  0
 22 23  1  0
 23 24  2  0
 24 25  1  0
 24 26  1  0
 26 27  2  0
 27 28  1  0
 28 29  2  0
 12  7  1  0
 18 13  1  0
 29 19  1  0
 28 22  1  0
  3 30  1  0
  4 31  1  0
  4 32  1  0
  8 33  1  0
  8 34  1  0
  9 35  1  0
  9 36  1  0
 10 37  1  0
 10 38  1  0
 11 39  1  0
 11 40  1  0
 12 41  1  1
 13 42  1  0
 14 43  1  0
 14 44  1  0
 15 45  1  0
 15 46  1  0
 16 47  1  0
 16 48  1  0
 17 49  1  0
 17 50  1  0
 18 51  1  0
 18 52  1  0
 20 53  1  0
 21 54  1  0
 23 55  1  0
 26 56  1  0
 27 57  1  0
M  END
>  <smiles>  (89) 
O=C(NCC(=O)N1CCCCC1C1CCCCC1)c1ccc2cc(Cl)ccc2n1

>  <score_type>  (89) 
oracle

>  <origin>  (89) 
autodockgpu

>  <m_score__min__energy>  (89) 
-9.1899999999999995

>  <m_primary>  (89) 
energy

>  <rmsd>  (89) 
2.124271636322499

>  <m_score__min__rmsd>  (89) 
2.124271636322499

>  <meeko>  (89) 
{"free_energy": -8.81, "intermolecular_energy": -10.3, "internal_energy": -1.57, "cluster_size": 37, "cluster_id": 1, "rank_in_cluster": 18}

>  <energy>  (89) 
-7.67

>  <cluster_rmsd>  (89) 
1.6

>  <cluster>  (89) 
2

$$$$

     RDKit          3D

 57 60  0  0  0  0  0  0  0  0999 V2000
  140.0230   72.3030  220.6920 O   0  0  0  0  0  0  0  0  0  0  0  0
  139.8920   72.7670  221.8730 C   0  0  0  0  0  0  0  0  0  0  0  0
  139.6600   74.1690  222.0950 N   0  0  0  0  0  0  0  0  0  0  0  0
  139.5860   75.0050  220.8970 C   0  0  0  0  0  0  0  0  0  0  0  0
  138.3380   75.8060  220.8880 C   0  0  0  0  0  0  0  0  0  0  0  0
  137.4550   75.6180  220.0090 O   0  0  0  0  0  0  0  0  0  0  0  0
  138.0780   76.8090  221.8530 N   0  0  0  0  0  0  0  0  0  0  0  0
  137.1550   76.5400  222.9720 C   0  0  0  0  0  0  0  0  0  0  0  0
  136.1630   77.6590  223.1160 C   0  0  0  0  0  0  0  0  0  0  0  0
  136.1810   78.5210  221.8770 C   0  0  0  0  0  0  0  0  0  0  0  0
  137.5450   79.1250  221.6350 C   0  0  0  0  0  0  0  0  0  0  0  0
  138.6580   78.1340  221.8340 C   0  0  1  0  0  0  0  0  0  0  0  0
  139.4670   78.4060  223.0760 C   0  0  0  0  0  0  0  0  0  0  0  0
  140.9150   78.0710  222.7930 C   0  0  0  0  0  0  0  0  0  0  0  0
  141.8500   78.8400  223.7090 C   0  0  0  0  0  0  0  0  0  0  0  0
  141.8050   80.3260  223.4310 C   0  0  0  0  0  0  0  0  0  0  0  0
  140.4550   80.6120  222.7690 C   0  0  0  0  0  0  0  0  0  0  0  0
  139.4350   79.8080  223.5470 C   0  0  0  0  0  0  0  0  0  0  0  0
  139.9750   71.8800  223.0260 C   0  0  0  0  0  0  0  0  0  0  0  0
  139.5390   70.5720  222.9050 C   0  0  0  0  0  0  0  0  0  0  0  0
  139.5780   69.6640  223.9360 C   0  0  0  0  0  0  0  0  0  0  0  0
  140.0760   70.0830  225.1390 C   0  0  0  0  0  0  0  0  0  0  0  0
  140.1150   69.1650  226.1770 C   0  0  0  0  0  0  0  0  0  0  0  0
  140.6200   69.6060  227.3810 C   0  0  0  0  0  0  0  0  0  0  0  0
  140.6870   68.4800  228.7190 Cl  0  0  0  0  0  0  0  0  0  0  0  0
  141.0650   70.9090  227.5320 C   0  0  0  0  0  0  0  0  0  0  0  0
  141.0090   71.7950  226.4720 C   0  0  0  0  0  0  0  0  0  0  0  0
  140.5080   71.3750  225.2610 C   0  0  0  0  0  0  0  0  0  0  0  0
  140.4550   72.2500  224.2190 N   0  0  0  0  0  0  0  0  0  0  0  0
  139.5530   74.5520  223.0600 H   0  0  0  0  0  0  0  0  0  0  0  0
  140.4506   75.6848  220.8780 H   0  0  0  0  0  0  0  0  0  0  0  0
  139.5915   74.3523  220.0116 H   0  0  0  0  0  0  0  0  0  0  0  0
  136.6159   75.6008  222.7789 H   0  0  0  0  0  0  0  0  0  0  0  0
  137.7371   76.4586  223.9018 H   0  0  0  0  0  0  0  0  0  0  0  0
  135.1559   77.2387  223.2538 H   0  0  0  0  0  0  0  0  0  0  0  0
  136.4314   78.2722  223.9889 H   0  0  0  0  0  0  0  0  0  0  0  0
  135.9057   77.9035  221.0093 H   0  0  0  0  0  0  0  0  0  0  0  0
  135.4633   79.3422  222.0206 H   0  0  0  0  0  0  0  0  0  0  0  0
  137.5866   79.4991  220.6014 H   0  0  0  0  0  0  0  0  0  0  0  0
  137.6854   79.9358  222.3650 H   0  0  0  0  0  0  0  0  0  0  0  0
  139.3716   78.2242  221.0017 H   0  0  0  0  0  0  0  0  0  0  0  0
  139.0140   77.7857  223.8634 H   0  0  0  0  0  0  0  0  0  0  0  0
  141.0697   76.9929  222.9469 H   0  0  0  0  0  0  0  0  0  0  0  0
  141.1390   78.3527  221.7536 H   0  0  0  0  0  0  0  0  0  0  0  0
  141.5522   78.6631  224.7530 H   0  0  0  0  0  0  0  0  0  0  0  0
  142.8760   78.4872  223.5277 H   0  0  0  0  0  0  0  0  0  0  0  0
  141.8925   80.8899  224.3714 H   0  0  0  0  0  0  0  0  0  0  0  0
  142.6366   80.6306  222.7786 H   0  0  0  0  0  0  0  0  0  0  0  0
  140.2205   81.6852  222.8254 H   0  0  0  0  0  0  0  0  0  0  0  0
  140.4602   80.3369  221.7040 H   0  0  0  0  0  0  0  0  0  0  0  0
  139.6780   79.8426  224.6193 H   0  0  0  0  0  0  0  0  0  0  0  0
  138.4312   80.2300  223.3909 H   0  0  0  0  0  0  0  0  0  0  0  0
  139.1409   70.2423  221.9340 H   0  0  0  0  0  0  0  0  0  0  0  0
  139.2201   68.6331  223.7981 H   0  0  0  0  0  0  0  0  0  0  0  0
  139.7593   68.1324  226.0457 H   0  0  0  0  0  0  0  0  0  0  0  0
  141.4654   71.2409  228.5013 H   0  0  0  0  0  0  0  0  0  0  0  0
  141.3627   72.8292  226.5959 H   0  0  0  0  0  0  0  0  0  0  0  0
  1  2  2  0
  2  3  1  0
  3  4  1  0
  4  5  1  0
  5  6  2  0
  5  7  1  0
  7  8  1  0
  8  9  1  0
  9 10  1  0
 10 11  1  0
 11 12  1  0
 12 13  1  0
 13 14  1  0
 14 15  1  0
 15 16  1  0
 16 17  1  0
 17 18  1  0
  2 19  1  0
 19 20  2  0
 20 21  1  0
 21 22  2  0
 22 23  1  0
 23 24  2  0
 24 25  1  0
 24 26  1  0
 26 27  2  0
 27 28  1  0
 28 29  2  0
 12  7  1  0
 18 13  1  0
 29 19  1  0
 28 22  1  0
  3 30  1  0
  4 31  1  0
  4 32  1  0
  8 33  1  0
  8 34  1  0
  9 35  1  0
  9 36  1  0
 10 37  1  0
 10 38  1  0
 11 39  1  0
 11 40  1  0
 12 41  1  6
 13 42  1  0
 14 43  1  0
 14 44  1  0
 15 45  1  0
 15 46  1  0
 16 47  1  0
 16 48  1  0
 17 49  1  0
 17 50  1  0
 18 51  1  0
 18 52  1  0
 20 53  1  0
 21 54  1  0
 23 55  1  0
 26 56  1  0
 27 57  1  0
M  END
>  <smiles>  (90) 
O=C(NCC(=O)N1CCCCC1C1CCCCC1)c1ccc2cc(Cl)ccc2n1

>  <score_type>  (90) 
oracle

>  <origin>  (90) 
autodockgpu

>  <m_score__min__energy>  (90) 
-9.1899999999999995

>  <m_primary>  (90) 
energy

>  <rmsd>  (90) 
3.493489440474984

>  <m_score__min__rmsd>  (90) 
3.493489440474984

>  <meeko>  (90) 
{"free_energy": -8.3, "intermolecular_energy": -9.79, "internal_energy": -1.6, "cluster_size": 37, "cluster_id": 1, "rank_in_cluster": 30}

>  <energy>  (90) 
-8.05

>  <cluster_rmsd>  (90) 
0.0

>  <cluster>  (90) 
3

$$$$

     RDKit          3D

 57 60  0  0  0  0  0  0  0  0999 V2000
  140.9420   72.5110  220.8840 O   0  0  0  0  0  0  0  0  0  0  0  0
  140.1940   72.7570  221.8880 C   0  0  0  0  0  0  0  0  0  0  0  0
  139.3520   73.9220  221.9150 N   0  0  0  0  0  0  0  0  0  0  0  0
  139.4130   74.7860  220.7350 C   0  0  0  0  0  0  0  0  0  0  0  0
  140.2030   76.0090  221.0160 C   0  0  0  0  0  0  0  0  0  0  0  0
  141.3860   76.1250  220.5980 O   0  0  0  0  0  0  0  0  0  0  0  0
  139.6770   77.0940  221.7600 N   0  0  0  0  0  0  0  0  0  0  0  0
  138.5740   76.8740  222.7130 C   0  0  0  0  0  0  0  0  0  0  0  0
  137.4880   77.8900  222.5050 C   0  0  0  0  0  0  0  0  0  0  0  0
  137.6850   78.5850  221.1790 C   0  0  0  0  0  0  0  0  0  0  0  0
  139.0180   79.2940  221.1120 C   0  0  0  0  0  0  0  0  0  0  0  0
  140.1430   78.4590  221.6580 C   0  0  1  0  0  0  0  0  0  0  0  0
  140.6640   78.9700  222.9770 C   0  0  0  0  0  0  0  0  0  0  0  0
  142.1650   79.1290  222.8750 C   0  0  0  0  0  0  0  0  0  0  0  0
  142.6810   80.1530  223.8690 C   0  0  0  0  0  0  0  0  0  0  0  0
  142.1900   81.5460  223.5400 C   0  0  0  0  0  0  0  0  0  0  0  0
  140.9110   81.3810  222.7170 C   0  0  0  0  0  0  0  0  0  0  0  0
  140.1210   80.2820  223.3960 C   0  0  0  0  0  0  0  0  0  0  0  0
  140.1790   71.8560  223.0330 C   0  0  0  0  0  0  0  0  0  0  0  0
  139.6440   70.5880  222.8870 C   0  0  0  0  0  0  0  0  0  0  0  0
  139.5850   69.6690  223.9080 C   0  0  0  0  0  0  0  0  0  0  0  0
  140.0850   70.0370  225.1270 C   0  0  0  0  0  0  0  0  0  0  0  0
  140.0260   69.1090  226.1560 C   0  0  0  0  0  0  0  0  0  0  0  0
  140.5330   69.4970  227.3760 C   0  0  0  0  0  0  0  0  0  0  0  0
  140.4780   68.3580  228.7020 Cl  0  0  0  0  0  0  0  0  0  0  0  0
  141.0760   70.7590  227.5530 C   0  0  0  0  0  0  0  0  0  0  0  0
  141.1160   71.6570  226.5010 C   0  0  0  0  0  0  0  0  0  0  0  0
  140.6140   71.2890  225.2740 C   0  0  0  0  0  0  0  0  0  0  0  0
  140.6570   72.1750  224.2410 N   0  0  0  0  0  0  0  0  0  0  0  0
  138.7390   74.1270  222.7340 H   0  0  0  0  0  0  0  0  0  0  0  0
  139.8847   74.2343  219.9085 H   0  0  0  0  0  0  0  0  0  0  0  0
  138.3893   75.0831  220.4632 H   0  0  0  0  0  0  0  0  0  0  0  0
  138.1604   75.8660  222.5614 H   0  0  0  0  0  0  0  0  0  0  0  0
  138.9634   76.9744  223.7368 H   0  0  0  0  0  0  0  0  0  0  0  0
  136.5103   77.3860  222.5115 H   0  0  0  0  0  0  0  0  0  0  0  0
  137.5268   78.6340  223.3143 H   0  0  0  0  0  0  0  0  0  0  0  0
  137.6383   77.8368  220.3740 H   0  0  0  0  0  0  0  0  0  0  0  0
  136.8905   79.3371  221.0647 H   0  0  0  0  0  0  0  0  0  0  0  0
  139.2363   79.5361  220.0614 H   0  0  0  0  0  0  0  0  0  0  0  0
  138.9452   80.2013  221.7297 H   0  0  0  0  0  0  0  0  0  0  0  0
  140.9993   78.5177  220.9700 H   0  0  0  0  0  0  0  0  0  0  0  0
  140.3463   78.2294  223.7257 H   0  0  0  0  0  0  0  0  0  0  0  0
  142.6425   78.1593  223.0793 H   0  0  0  0  0  0  0  0  0  0  0  0
  142.4086   79.4773  221.8604 H   0  0  0  0  0  0  0  0  0  0  0  0
  142.3322   79.8802  224.8759 H   0  0  0  0  0  0  0  0  0  0  0  0
  143.7799   80.1555  223.8209 H   0  0  0  0  0  0  0  0  0  0  0  0
  141.9758   82.1005  224.4656 H   0  0  0  0  0  0  0  0  0  0  0  0
  142.9499   82.1102  222.9795 H   0  0  0  0  0  0  0  0  0  0  0  0
  140.3357   82.3186  222.7114 H   0  0  0  0  0  0  0  0  0  0  0  0
  141.1338   81.1307  221.6693 H   0  0  0  0  0  0  0  0  0  0  0  0
  140.2078   80.3857  224.4877 H   0  0  0  0  0  0  0  0  0  0  0  0
  139.0613   80.3545  223.1101 H   0  0  0  0  0  0  0  0  0  0  0  0
  139.2452   70.3005  221.9030 H   0  0  0  0  0  0  0  0  0  0  0  0
  139.1502   68.6710  223.7499 H   0  0  0  0  0  0  0  0  0  0  0  0
  139.5940   68.1088  226.0045 H   0  0  0  0  0  0  0  0  0  0  0  0
  141.4776   71.0489  228.5352 H   0  0  0  0  0  0  0  0  0  0  0  0
  141.5465   72.6590  226.6448 H   0  0  0  0  0  0  0  0  0  0  0  0
  1  2  2  0
  2  3  1  0
  3  4  1  0
  4  5  1  0
  5  6  2  0
  5  7  1  0
  7  8  1  0
  8  9  1  0
  9 10  1  0
 10 11  1  0
 11 12  1  0
 12 13  1  0
 13 14  1  0
 14 15  1  0
 15 16  1  0
 16 17  1  0
 17 18  1  0
  2 19  1  0
 19 20  2  0
 20 21  1  0
 21 22  2  0
 22 23  1  0
 23 24  2  0
 24 25  1  0
 24 26  1  0
 26 27  2  0
 27 28  1  0
 28 29  2  0
 12  7  1  0
 18 13  1  0
 29 19  1  0
 28 22  1  0
  3 30  1  0
  4 31  1  0
  4 32  1  0
  8 33  1  0
  8 34  1  0
  9 35  1  0
  9 36  1  0
 10 37  1  0
 10 38  1  0
 11 39  1  0
 11 40  1  0
 12 41  1  6
 13 42  1  0
 14 43  1  0
 14 44  1  0
 15 45  1  0
 15 46  1  0
 16 47  1  0
 16 48  1  0
 17 49  1  0
 17 50  1  0
 18 51  1  0
 18 52  1  0
 20 53  1  0
 21 54  1  0
 23 55  1  0
 26 56  1  0
 27 57  1  0
M  END
>  <smiles>  (91) 
O=C(NCC(=O)N1CCCCC1C1CCCCC1)c1ccc2cc(Cl)ccc2n1

>  <score_type>  (91) 
oracle

>  <origin>  (91) 
autodockgpu

>  <m_score__min__energy>  (91) 
-9.1899999999999995

>  <m_primary>  (91) 
energy

>  <rmsd>  (91) 
2.9663311463742783

>  <m_score__min__rmsd>  (91) 
2.9663311463742783

>  <meeko>  (91) 
{"free_energy": -8.97, "intermolecular_energy": -10.46, "internal_energy": -1.4, "cluster_size": 37, "cluster_id": 1, "rank_in_cluster": 8}

>  <energy>  (91) 
-7.99

>  <cluster_rmsd>  (91) 
0.37

>  <cluster>  (91) 
3

$$$$

     RDKit          3D

 57 60  0  0  0  0  0  0  0  0999 V2000
  138.7650   73.0170  221.3700 O   0  0  0  0  0  0  0  0  0  0  0  0
  139.8830   72.8080  221.9480 C   0  0  0  0  0  0  0  0  0  0  0  0
  141.0800   73.4680  221.5040 N   0  0  0  0  0  0  0  0  0  0  0  0
  140.9280   74.3770  220.3670 C   0  0  0  0  0  0  0  0  0  0  0  0
  141.4160   75.7360  220.7070 C   0  0  0  0  0  0  0  0  0  0  0  0
  142.5210   76.1540  220.2710 O   0  0  0  0  0  0  0  0  0  0  0  0
  140.6760   76.6190  221.5300 N   0  0  0  0  0  0  0  0  0  0  0  0
  139.6710   76.0890  222.4710 C   0  0  0  0  0  0  0  0  0  0  0  0
  138.3800   76.8470  222.3440 C   0  0  0  0  0  0  0  0  0  0  0  0
  138.3870   77.6580  221.0700 C   0  0  0  0  0  0  0  0  0  0  0  0
  139.5250   78.6530  221.0480 C   0  0  0  0  0  0  0  0  0  0  0  0
  140.8200   78.0580  221.5250 C   0  0  1  0  0  0  0  0  0  0  0  0
  141.2420   78.5810  222.8750 C   0  0  0  0  0  0  0  0  0  0  0  0
  142.5860   79.2580  222.7330 C   0  0  0  0  0  0  0  0  0  0  0  0
  142.8040   80.2900  223.8240 C   0  0  0  0  0  0  0  0  0  0  0  0
  141.8450   81.4530  223.6890 C   0  0  0  0  0  0  0  0  0  0  0  0
  140.6360   80.9410  222.9040 C   0  0  0  0  0  0  0  0  0  0  0  0
  140.3220   79.5740  223.4740 C   0  0  0  0  0  0  0  0  0  0  0  0
  139.9680   71.8910  223.0770 C   0  0  0  0  0  0  0  0  0  0  0  0
  139.5210   70.5900  222.9250 C   0  0  0  0  0  0  0  0  0  0  0  0
  139.5600   69.6540  223.9330 C   0  0  0  0  0  0  0  0  0  0  0  0
  140.0700   70.0380  225.1420 C   0  0  0  0  0  0  0  0  0  0  0  0
  140.1100   69.0940  226.1560 C   0  0  0  0  0  0  0  0  0  0  0  0
  140.6270   69.4990  227.3670 C   0  0  0  0  0  0  0  0  0  0  0  0
  140.6950   68.3390  228.6740 Cl  0  0  0  0  0  0  0  0  0  0  0  0
  141.0820   70.7940  227.5480 C   0  0  0  0  0  0  0  0  0  0  0  0
  141.0250   71.7080  226.5120 C   0  0  0  0  0  0  0  0  0  0  0  0
  140.5130   71.3240  225.2940 C   0  0  0  0  0  0  0  0  0  0  0  0
  140.4590   72.2260  224.2760 N   0  0  0  0  0  0  0  0  0  0  0  0
  141.9960   73.3000  221.9740 H   0  0  0  0  0  0  0  0  0  0  0  0
  141.5067   73.9890  219.5158 H   0  0  0  0  0  0  0  0  0  0  0  0
  139.8607   74.4412  220.1085 H   0  0  0  0  0  0  0  0  0  0  0  0
  139.4907   75.0271  222.2479 H   0  0  0  0  0  0  0  0  0  0  0  0
  140.0503   76.2017  223.4974 H   0  0  0  0  0  0  0  0  0  0  0  0
  137.5402   76.1369  222.3204 H   0  0  0  0  0  0  0  0  0  0  0  0
  138.2692   77.5230  223.2046 H   0  0  0  0  0  0  0  0  0  0  0  0
  138.4930   76.9759  220.2136 H   0  0  0  0  0  0  0  0  0  0  0  0
  137.4412   78.2168  221.0135 H   0  0  0  0  0  0  0  0  0  0  0  0
  139.6602   79.0113  220.0168 H   0  0  0  0  0  0  0  0  0  0  0  0
  139.2634   79.4746  221.7310 H   0  0  0  0  0  0  0  0  0  0  0  0
  141.6255   78.3562  220.8378 H   0  0  0  0  0  0  0  0  0  0  0  0
  141.2559   77.7041  223.5390 H   0  0  0  0  0  0  0  0  0  0  0  0
  143.3783   78.4975  222.7962 H   0  0  0  0  0  0  0  0  0  0  0  0
  142.6142   79.7711  221.7604 H   0  0  0  0  0  0  0  0  0  0  0  0
  142.6508   79.8125  224.8031 H   0  0  0  0  0  0  0  0  0  0  0  0
  143.8297   80.6768  223.7324 H   0  0  0  0  0  0  0  0  0  0  0  0
  141.5305   81.8017  224.6837 H   0  0  0  0  0  0  0  0  0  0  0  0
  142.3214   82.2991  223.1720 H   0  0  0  0  0  0  0  0  0  0  0  0
  139.7788   81.6174  223.0369 H   0  0  0  0  0  0  0  0  0  0  0  0
  140.8456   80.8911  221.8253 H   0  0  0  0  0  0  0  0  0  0  0  0
  140.4558   79.5897  224.5657 H   0  0  0  0  0  0  0  0  0  0  0  0
  139.2810   79.3042  223.2426 H   0  0  0  0  0  0  0  0  0  0  0  0
  139.1137   70.2888  221.9486 H   0  0  0  0  0  0  0  0  0  0  0  0
  139.1927   68.6298  223.7712 H   0  0  0  0  0  0  0  0  0  0  0  0
  139.7454   68.0678  226.0008 H   0  0  0  0  0  0  0  0  0  0  0  0
  141.4916   71.0979  228.5226 H   0  0  0  0  0  0  0  0  0  0  0  0
  141.3868   72.7361  226.6607 H   0  0  0  0  0  0  0  0  0  0  0  0
  1  2  2  0
  2  3  1  0
  3  4  1  0
  4  5  1  0
  5  6  2  0
  5  7  1  0
  7  8  1  0
  8  9  1  0
  9 10  1  0
 10 11  1  0
 11 12  1  0
 12 13  1  0
 13 14  1  0
 14 15  1  0
 15 16  1  0
 16 17  1  0
 17 18  1  0
  2 19  1  0
 19 20  2  0
 20 21  1  0
 21 22  2  0
 22 23  1  0
 23 24  2  0
 24 25  1  0
 24 26  1  0
 26 27  2  0
 27 28  1  0
 28 29  2  0
 12  7  1  0
 18 13  1  0
 29 19  1  0
 28 22  1  0
  3 30  1  0
  4 31  1  0
  4 32  1  0
  8 33  1  0
  8 34  1  0
  9 35  1  0
  9 36  1  0
 10 37  1  0
 10 38  1  0
 11 39  1  0
 11 40  1  0
 12 41  1  6
 13 42  1  0
 14 43  1  0
 14 44  1  0
 15 45  1  0
 15 46  1  0
 16 47  1  0
 16 48  1  0
 17 49  1  0
 17 50  1  0
 18 51  1  0
 18 52  1  0
 20 53  1  0
 21 54  1  0
 23 55  1  0
 26 56  1  0
 27 57  1  0
M  END
>  <smiles>  (92) 
O=C(NCC(=O)N1CCCCC1C1CCCCC1)c1ccc2cc(Cl)ccc2n1

>  <score_type>  (92) 
oracle

>  <origin>  (92) 
autodockgpu

>  <m_score__min__energy>  (92) 
-9.1899999999999995

>  <m_primary>  (92) 
energy

>  <rmsd>  (92) 
2.856522817131068

>  <m_score__min__rmsd>  (92) 
2.856522817131068

>  <meeko>  (92) 
{"free_energy": -8.64, "intermolecular_energy": -10.13, "internal_energy": -1.58, "cluster_size": 37, "cluster_id": 1, "rank_in_cluster": 23}

>  <energy>  (92) 
-7.98

>  <cluster_rmsd>  (92) 
0.37

>  <cluster>  (92) 
3

$$$$

     RDKit          3D

 57 60  0  0  0  0  0  0  0  0999 V2000
  140.0580   71.9960  220.7640 O   0  0  0  0  0  0  0  0  0  0  0  0
  139.6840   72.3880  221.9180 C   0  0  0  0  0  0  0  0  0  0  0  0
  139.1200   73.6960  222.1090 N   0  0  0  0  0  0  0  0  0  0  0  0
  139.0080   74.5280  220.9100 C   0  0  0  0  0  0  0  0  0  0  0  0
  140.2940   75.2070  220.6160 C   0  0  0  0  0  0  0  0  0  0  0  0
  141.3810   74.5700  220.6410 O   0  0  0  0  0  0  0  0  0  0  0  0
  140.3650   76.5850  220.2980 N   0  0  0  0  0  0  0  0  0  0  0  0
  139.3690   77.1890  219.3940 C   0  0  0  0  0  0  0  0  0  0  0  0
  140.0490   78.0130  218.3380 C   0  0  0  0  0  0  0  0  0  0  0  0
  141.5220   77.6860  218.3040 C   0  0  0  0  0  0  0  0  0  0  0  0
  142.1890   77.9710  219.6300 C   0  0  0  0  0  0  0  0  0  0  0  0
  141.3750   77.4900  220.8000 C   0  0  1  0  0  0  0  0  0  0  0  0
  140.7680   78.6190  221.5930 C   0  0  0  0  0  0  0  0  0  0  0  0
  141.0240   78.3710  223.0620 C   0  0  0  0  0  0  0  0  0  0  0  0
  141.0010   79.6650  223.8540 C   0  0  0  0  0  0  0  0  0  0  0  0
  142.1540   80.5700  223.4770 C   0  0  0  0  0  0  0  0  0  0  0  0
  142.5880   80.1680  222.0660 C   0  0  0  0  0  0  0  0  0  0  0  0
  141.3090   79.9610  221.2830 C   0  0  0  0  0  0  0  0  0  0  0  0
  139.8220   71.5100  223.0740 C   0  0  0  0  0  0  0  0  0  0  0  0
  139.4250   70.1880  222.9690 C   0  0  0  0  0  0  0  0  0  0  0  0
  139.5170   69.2870  224.0030 C   0  0  0  0  0  0  0  0  0  0  0  0
  140.0280   69.7280  225.1920 C   0  0  0  0  0  0  0  0  0  0  0  0
  140.1190   68.8180  226.2330 C   0  0  0  0  0  0  0  0  0  0  0  0
  140.6360   69.2810  227.4240 C   0  0  0  0  0  0  0  0  0  0  0  0
  140.7690   68.1660  228.7650 Cl  0  0  0  0  0  0  0  0  0  0  0  0
  141.0410   70.5990  227.5590 C   0  0  0  0  0  0  0  0  0  0  0  0
  140.9330   71.4770  226.4960 C   0  0  0  0  0  0  0  0  0  0  0  0
  140.4200   71.0350  225.2990 C   0  0  0  0  0  0  0  0  0  0  0  0
  140.3150   71.9020  224.2540 N   0  0  0  0  0  0  0  0  0  0  0  0
  138.8130   74.0200  223.0520 H   0  0  0  0  0  0  0  0  0  0  0  0
  138.7321   73.8930  220.0552 H   0  0  0  0  0  0  0  0  0  0  0  0
  138.2375   75.2936  221.0837 H   0  0  0  0  0  0  0  0  0  0  0  0
  138.7870   76.3903  218.9110 H   0  0  0  0  0  0  0  0  0  0  0  0
  138.7045   77.8403  219.9807 H   0  0  0  0  0  0  0  0  0  0  0  0
  139.6028   77.7904  217.3575 H   0  0  0  0  0  0  0  0  0  0  0  0
  139.9192   79.0803  218.5706 H   0  0  0  0  0  0  0  0  0  0  0  0
  141.6449   76.6193  218.0652 H   0  0  0  0  0  0  0  0  0  0  0  0
  141.9960   78.3185  217.5390 H   0  0  0  0  0  0  0  0  0  0  0  0
  143.1662   77.4663  219.6489 H   0  0  0  0  0  0  0  0  0  0  0  0
  142.2951   79.0619  219.7229 H   0  0  0  0  0  0  0  0  0  0  0  0
  142.0361   76.9671  221.5069 H   0  0  0  0  0  0  0  0  0  0  0  0
  139.7014   78.6261  221.3243 H   0  0  0  0  0  0  0  0  0  0  0  0
  140.2459   77.6986  223.4524 H   0  0  0  0  0  0  0  0  0  0  0  0
  142.0207   77.9178  223.1681 H   0  0  0  0  0  0  0  0  0  0  0  0
  140.0552   80.1895  223.6533 H   0  0  0  0  0  0  0  0  0  0  0  0
  141.0938   79.4165  224.9215 H   0  0  0  0  0  0  0  0  0  0  0  0
  141.8299   81.6211  223.4885 H   0  0  0  0  0  0  0  0  0  0  0  0
  142.9855   80.4680  224.1899 H   0  0  0  0  0  0  0  0  0  0  0  0
  143.1916   80.9661  221.6092 H   0  0  0  0  0  0  0  0  0  0  0  0
  143.2070   79.2588  222.0770 H   0  0  0  0  0  0  0  0  0  0  0  0
  140.5745   80.7294  221.5660 H   0  0  0  0  0  0  0  0  0  0  0  0
  141.5154   80.0394  220.2054 H   0  0  0  0  0  0  0  0  0  0  0  0
  139.0150   69.8408  222.0091 H   0  0  0  0  0  0  0  0  0  0  0  0
  139.1899   68.2443  223.8778 H   0  0  0  0  0  0  0  0  0  0  0  0
  139.7936   67.7740  226.1144 H   0  0  0  0  0  0  0  0  0  0  0  0
  141.4510   70.9493  228.5177 H   0  0  0  0  0  0  0  0  0  0  0  0
  141.2555   72.5228  226.6072 H   0  0  0  0  0  0  0  0  0  0  0  0
  1  2  2  0
  2  3  1  0
  3  4  1  0
  4  5  1  0
  5  6  2  0
  5  7  1  0
  7  8  1  0
  8  9  1  0
  9 10  1  0
 10 11  1  0
 11 12  1  0
 12 13  1  0
 13 14  1  0
 14 15  1  0
 15 16  1  0
 16 17  1  0
 17 18  1  0
  2 19  1  0
 19 20  2  0
 20 21  1  0
 21 22  2  0
 22 23  1  0
 23 24  2  0
 24 25  1  0
 24 26  1  0
 26 27  2  0
 27 28  1  0
 28 29  2  0
 12  7  1  0
 18 13  1  0
 29 19  1  0
 28 22  1  0
  3 30  1  0
  4 31  1  0
  4 32  1  0
  8 33  1  0
  8 34  1  0
  9 35  1  0
  9 36  1  0
 10 37  1  0
 10 38  1  0
 11 39  1  0
 11 40  1  0
 12 41  1  1
 13 42  1  0
 14 43  1  0
 14 44  1  0
 15 45  1  0
 15 46  1  0
 16 47  1  0
 16 48  1  0
 17 49  1  0
 17 50  1  0
 18 51  1  0
 18 52  1  0
 20 53  1  0
 21 54  1  0
 23 55  1  0
 26 56  1  0
 27 57  1  0
M  END
>  <smiles>  (93) 
O=C(NCC(=O)N1CCCCC1C1CCCCC1)c1ccc2cc(Cl)ccc2n1

>  <score_type>  (93) 
oracle

>  <origin>  (93) 
autodockgpu

>  <m_score__min__energy>  (93) 
-9.1899999999999995

>  <m_primary>  (93) 
energy

>  <rmsd>  (93) 
1.5780916159493383

>  <m_score__min__rmsd>  (93) 
1.5780916159493383

>  <meeko>  (93) 
{"free_energy": -8.6, "intermolecular_energy": -10.09, "internal_energy": -1.42, "cluster_size": 37, "cluster_id": 1, "rank_in_cluster": 25}

>  <energy>  (93) 
-7.97

>  <cluster_rmsd>  (93) 
0.34

>  <cluster>  (93) 
3

$$$$

     RDKit          3D

 57 60  0  0  0  0  0  0  0  0999 V2000
  140.1530   72.1050  220.7140 O   0  0  0  0  0  0  0  0  0  0  0  0
  139.8950   72.5480  221.8810 C   0  0  0  0  0  0  0  0  0  0  0  0
  139.5240   73.9220  222.0850 N   0  0  0  0  0  0  0  0  0  0  0  0
  139.4640   74.7560  220.8840 C   0  0  0  0  0  0  0  0  0  0  0  0
  140.3420   75.9440  221.0220 C   0  0  0  0  0  0  0  0  0  0  0  0
  141.4770   75.9750  220.4760 O   0  0  0  0  0  0  0  0  0  0  0  0
  139.9550   77.0870  221.7630 N   0  0  0  0  0  0  0  0  0  0  0  0
  138.8300   77.0090  222.7120 C   0  0  0  0  0  0  0  0  0  0  0  0
  137.8830   78.1560  222.5000 C   0  0  0  0  0  0  0  0  0  0  0  0
  138.1720   78.8190  221.1750 C   0  0  0  0  0  0  0  0  0  0  0  0
  139.5840   79.3530  221.1130 C   0  0  0  0  0  0  0  0  0  0  0  0
  140.5920   78.3820  221.6630 C   0  0  1  0  0  0  0  0  0  0  0  0
  141.1690   78.8230  222.9830 C   0  0  0  0  0  0  0  0  0  0  0  0
  142.5590   79.3690  222.7460 C   0  0  0  0  0  0  0  0  0  0  0  0
  142.9640   80.3450  223.8360 C   0  0  0  0  0  0  0  0  0  0  0  0
  142.1170   81.5990  223.8030 C   0  0  0  0  0  0  0  0  0  0  0  0
  140.8050   81.2290  223.1100 C   0  0  0  0  0  0  0  0  0  0  0  0
  140.4030   79.8830  223.6760 C   0  0  0  0  0  0  0  0  0  0  0  0
  139.9720   71.6650  223.0380 C   0  0  0  0  0  0  0  0  0  0  0  0
  139.5150   70.3630  222.9250 C   0  0  0  0  0  0  0  0  0  0  0  0
  139.5470   69.4590  223.9600 C   0  0  0  0  0  0  0  0  0  0  0  0
  140.0590   69.8750  225.1580 C   0  0  0  0  0  0  0  0  0  0  0  0
  140.0900   68.9620  226.2000 C   0  0  0  0  0  0  0  0  0  0  0  0
  140.6090   69.4000  227.3990 C   0  0  0  0  0  0  0  0  0  0  0  0
  140.6670   68.2790  228.7410 Cl  0  0  0  0  0  0  0  0  0  0  0  0
  141.0740   70.6970  227.5420 C   0  0  0  0  0  0  0  0  0  0  0  0
  141.0250   71.5790  226.4780 C   0  0  0  0  0  0  0  0  0  0  0  0
  140.5110   71.1620  225.2720 C   0  0  0  0  0  0  0  0  0  0  0  0
  140.4650   72.0330  224.2260 N   0  0  0  0  0  0  0  0  0  0  0  0
  139.3110   74.2890  223.0390 H   0  0  0  0  0  0  0  0  0  0  0  0
  139.7924   74.1638  220.0172 H   0  0  0  0  0  0  0  0  0  0  0  0
  138.4279   75.0981  220.7442 H   0  0  0  0  0  0  0  0  0  0  0  0
  138.2918   76.0620  222.5586 H   0  0  0  0  0  0  0  0  0  0  0  0
  139.2251   77.0585  223.7374 H   0  0  0  0  0  0  0  0  0  0  0  0
  136.8488   77.7811  222.5030 H   0  0  0  0  0  0  0  0  0  0  0  0
  138.0136   78.8894  223.3094 H   0  0  0  0  0  0  0  0  0  0  0  0
  138.0340   78.0820  220.3701 H   0  0  0  0  0  0  0  0  0  0  0  0
  137.4799   79.6658  221.0573 H   0  0  0  0  0  0  0  0  0  0  0  0
  139.8350   79.5652  220.0633 H   0  0  0  0  0  0  0  0  0  0  0  0
  139.6247   80.2624  221.7306 H   0  0  0  0  0  0  0  0  0  0  0  0
  141.4515   78.3309  220.9784 H   0  0  0  0  0  0  0  0  0  0  0  0
  141.1477   77.9304  223.6255 H   0  0  0  0  0  0  0  0  0  0  0  0
  143.2740   78.5332  222.7303 H   0  0  0  0  0  0  0  0  0  0  0  0
  142.5618   79.9032  221.7844 H   0  0  0  0  0  0  0  0  0  0  0  0
  142.8427   79.8578  224.8147 H   0  0  0  0  0  0  0  0  0  0  0  0
  144.0123   80.6330  223.6682 H   0  0  0  0  0  0  0  0  0  0  0  0
  141.9187   81.9489  224.8268 H   0  0  0  0  0  0  0  0  0  0  0  0
  142.6322   82.4088  223.2655 H   0  0  0  0  0  0  0  0  0  0  0  0
  140.0323   81.9815  223.3264 H   0  0  0  0  0  0  0  0  0  0  0  0
  140.9223   81.1892  222.0170 H   0  0  0  0  0  0  0  0  0  0  0  0
  140.6245   79.8544  224.7531 H   0  0  0  0  0  0  0  0  0  0  0  0
  139.3252   79.7225  223.5257 H   0  0  0  0  0  0  0  0  0  0  0  0
  139.1056   70.0354  221.9580 H   0  0  0  0  0  0  0  0  0  0  0  0
  139.1725   68.4331  223.8288 H   0  0  0  0  0  0  0  0  0  0  0  0
  139.7173   67.9345  226.0757 H   0  0  0  0  0  0  0  0  0  0  0  0
  141.4847   71.0273  228.5076 H   0  0  0  0  0  0  0  0  0  0  0  0
  141.3949   72.6083  226.5953 H   0  0  0  0  0  0  0  0  0  0  0  0
  1  2  2  0
  2  3  1  0
  3  4  1  0
  4  5  1  0
  5  6  2  0
  5  7  1  0
  7  8  1  0
  8  9  1  0
  9 10  1  0
 10 11  1  0
 11 12  1  0
 12 13  1  0
 13 14  1  0
 14 15  1  0
 15 16  1  0
 16 17  1  0
 17 18  1  0
  2 19  1  0
 19 20  2  0
 20 21  1  0
 21 22  2  0
 22 23  1  0
 23 24  2  0
 24 25  1  0
 24 26  1  0
 26 27  2  0
 27 28  1  0
 28 29  2  0
 12  7  1  0
 18 13  1  0
 29 19  1  0
 28 22  1  0
  3 30  1  0
  4 31  1  0
  4 32  1  0
  8 33  1  0
  8 34  1  0
  9 35  1  0
  9 36  1  0
 10 37  1  0
 10 38  1  0
 11 39  1  0
 11 40  1  0
 12 41  1  6
 13 42  1  0
 14 43  1  0
 14 44  1  0
 15 45  1  0
 15 46  1  0
 16 47  1  0
 16 48  1  0
 17 49  1  0
 17 50  1  0
 18 51  1  0
 18 52  1  0
 20 53  1  0
 21 54  1  0
 23 55  1  0
 26 56  1  0
 27 57  1  0
M  END
>  <smiles>  (94) 
O=C(NCC(=O)N1CCCCC1C1CCCCC1)c1ccc2cc(Cl)ccc2n1

>  <score_type>  (94) 
oracle

>  <origin>  (94) 
autodockgpu

>  <m_score__min__energy>  (94) 
-9.1899999999999995

>  <m_primary>  (94) 
energy

>  <rmsd>  (94) 
2.8786123920207825

>  <m_score__min__rmsd>  (94) 
2.8786123920207825

>  <meeko>  (94) 
{"free_energy": -9.16, "intermolecular_energy": -10.65, "internal_energy": -1.31, "cluster_size": 37, "cluster_id": 1, "rank_in_cluster": 4}

>  <energy>  (94) 
-7.83

>  <cluster_rmsd>  (94) 
0.45

>  <cluster>  (94) 
3

$$$$

     RDKit          3D

 57 60  0  0  0  0  0  0  0  0999 V2000
  140.1960   72.2550  220.8370 O   0  0  0  0  0  0  0  0  0  0  0  0
  139.9160   72.6540  222.0160 C   0  0  0  0  0  0  0  0  0  0  0  0
  139.5160   74.0130  222.2620 N   0  0  0  0  0  0  0  0  0  0  0  0
  139.4550   74.8870  221.0890 C   0  0  0  0  0  0  0  0  0  0  0  0
  139.1910   76.2900  221.4900 C   0  0  0  0  0  0  0  0  0  0  0  0
  138.3370   76.5600  222.3750 O   0  0  0  0  0  0  0  0  0  0  0  0
  139.8760   77.3830  220.9050 N   0  0  0  0  0  0  0  0  0  0  0  0
  139.3380   78.0340  219.6960 C   0  0  0  0  0  0  0  0  0  0  0  0
  140.4160   78.1960  218.6630 C   0  0  0  0  0  0  0  0  0  0  0  0
  141.6050   77.3380  219.0240 C   0  0  0  0  0  0  0  0  0  0  0  0
  142.1780   77.7150  220.3700 C   0  0  0  0  0  0  0  0  0  0  0  0
  141.1130   77.9380  221.4080 C   0  0  1  0  0  0  0  0  0  0  0  0
  140.9600   79.3890  221.7860 C   0  0  0  0  0  0  0  0  0  0  0  0
  140.6020   79.4720  223.2530 C   0  0  0  0  0  0  0  0  0  0  0  0
  141.0050   80.8100  223.8460 C   0  0  0  0  0  0  0  0  0  0  0  0
  142.5090   80.9760  223.8750 C   0  0  0  0  0  0  0  0  0  0  0  0
  143.0770   80.0510  222.7970 C   0  0  0  0  0  0  0  0  0  0  0  0
  142.1730   80.2150  221.5930 C   0  0  0  0  0  0  0  0  0  0  0  0
  139.9950   71.7330  223.1430 C   0  0  0  0  0  0  0  0  0  0  0  0
  139.5480   70.4330  222.9850 C   0  0  0  0  0  0  0  0  0  0  0  0
  139.5820   69.4940  223.9890 C   0  0  0  0  0  0  0  0  0  0  0  0
  140.0880   69.8740  225.2020 C   0  0  0  0  0  0  0  0  0  0  0  0
  140.1220   68.9270  226.2130 C   0  0  0  0  0  0  0  0  0  0  0  0
  140.6340   69.3280  227.4270 C   0  0  0  0  0  0  0  0  0  0  0  0
  140.6960   68.1630  228.7320 Cl  0  0  0  0  0  0  0  0  0  0  0  0
  141.0900   70.6220  227.6150 C   0  0  0  0  0  0  0  0  0  0  0  0
  141.0380   71.5390  226.5810 C   0  0  0  0  0  0  0  0  0  0  0  0
  140.5310   71.1590  225.3600 C   0  0  0  0  0  0  0  0  0  0  0  0
  140.4820   72.0640  224.3440 N   0  0  0  0  0  0  0  0  0  0  0  0
  139.2860   74.3430  223.2250 H   0  0  0  0  0  0  0  0  0  0  0  0
  140.4148   74.8396  220.5538 H   0  0  0  0  0  0  0  0  0  0  0  0
  138.6361   74.5466  220.4382 H   0  0  0  0  0  0  0  0  0  0  0  0
  138.5288   77.4151  219.2810 H   0  0  0  0  0  0  0  0  0  0  0  0
  138.9531   79.0279  219.9680 H   0  0  0  0  0  0  0  0  0  0  0  0
  140.0290   77.8886  217.6803 H   0  0  0  0  0  0  0  0  0  0  0  0
  140.7274   79.2503  218.6260 H   0  0  0  0  0  0  0  0  0  0  0  0
  141.2888   76.2848  219.0535 H   0  0  0  0  0  0  0  0  0  0  0  0
  142.3843   77.4945  218.2636 H   0  0  0  0  0  0  0  0  0  0  0  0
  142.8390   76.9047  220.7114 H   0  0  0  0  0  0  0  0  0  0  0  0
  142.7269   78.6602  220.2464 H   0  0  0  0  0  0  0  0  0  0  0  0
  141.4068   77.4293  222.3380 H   0  0  0  0  0  0  0  0  0  0  0  0
  140.1825   79.7864  221.1170 H   0  0  0  0  0  0  0  0  0  0  0  0
  139.5151   79.3440  223.3641 H   0  0  0  0  0  0  0  0  0  0  0  0
  141.1449   78.6785  223.7875 H   0  0  0  0  0  0  0  0  0  0  0  0
  140.5685   81.6160  223.2379 H   0  0  0  0  0  0  0  0  0  0  0  0
  140.6339   80.8537  224.8806 H   0  0  0  0  0  0  0  0  0  0  0  0
  142.7789   82.0202  223.6586 H   0  0  0  0  0  0  0  0  0  0  0  0
  142.9148   80.7232  224.8657 H   0  0  0  0  0  0  0  0  0  0  0  0
  144.1070   80.3438  222.5451 H   0  0  0  0  0  0  0  0  0  0  0  0
  143.1110   79.0057  223.1379 H   0  0  0  0  0  0  0  0  0  0  0  0
  141.8868   81.2719  221.4878 H   0  0  0  0  0  0  0  0  0  0  0  0
  142.7019   79.8924  220.6841 H   0  0  0  0  0  0  0  0  0  0  0  0
  139.1447   70.1354  222.0058 H   0  0  0  0  0  0  0  0  0  0  0  0
  139.2144   68.4707  223.8223 H   0  0  0  0  0  0  0  0  0  0  0  0
  139.7567   67.9018  226.0532 H   0  0  0  0  0  0  0  0  0  0  0  0
  141.4959   70.9222  228.5923 H   0  0  0  0  0  0  0  0  0  0  0  0
  141.4000   72.5664  226.7341 H   0  0  0  0  0  0  0  0  0  0  0  0
  1  2  2  0
  2  3  1  0
  3  4  1  0
  4  5  1  0
  5  6  2  0
  5  7  1  0
  7  8  1  0
  8  9  1  0
  9 10  1  0
 10 11  1  0
 11 12  1  0
 12 13  1  0
 13 14  1  0
 14 15  1  0
 15 16  1  0
 16 17  1  0
 17 18  1  0
  2 19  1  0
 19 20  2  0
 20 21  1  0
 21 22  2  0
 22 23  1  0
 23 24  2  0
 24 25  1  0
 24 26  1  0
 26 27  2  0
 27 28  1  0
 28 29  2  0
 12  7  1  0
 18 13  1  0
 29 19  1  0
 28 22  1  0
  3 30  1  0
  4 31  1  0
  4 32  1  0
  8 33  1  0
  8 34  1  0
  9 35  1  0
  9 36  1  0
 10 37  1  0
 10 38  1  0
 11 39  1  0
 11 40  1  0
 12 41  1  1
 13 42  1  0
 14 43  1  0
 14 44  1  0
 15 45  1  0
 15 46  1  0
 16 47  1  0
 16 48  1  0
 17 49  1  0
 17 50  1  0
 18 51  1  0
 18 52  1  0
 20 53  1  0
 21 54  1  0
 23 55  1  0
 26 56  1  0
 27 57  1  0
M  END
>  <smiles>  (95) 
O=C(NCC(=O)N1CCCCC1C1CCCCC1)c1ccc2cc(Cl)ccc2n1

>  <score_type>  (95) 
oracle

>  <origin>  (95) 
autodockgpu

>  <m_score__min__energy>  (95) 
-9.1899999999999995

>  <m_primary>  (95) 
energy

>  <rmsd>  (95) 
2.0530848603505594

>  <m_score__min__rmsd>  (95) 
2.0530848603505594

>  <meeko>  (95) 
{"free_energy": -8.9, "intermolecular_energy": -10.39, "internal_energy": -1.62, "cluster_size": 37, "cluster_id": 1, "rank_in_cluster": 13}

>  <energy>  (95) 
-7.75

>  <cluster_rmsd>  (95) 
1.32

>  <cluster>  (95) 
3

$$$$

     RDKit          3D

 57 60  0  0  0  0  0  0  0  0999 V2000
  141.2080   72.6520  221.0740 O   0  0  0  0  0  0  0  0  0  0  0  0
  140.3690   72.8420  222.0160 C   0  0  0  0  0  0  0  0  0  0  0  0
  139.4720   73.9650  221.9930 N   0  0  0  0  0  0  0  0  0  0  0  0
  139.5880   74.8560  220.8380 C   0  0  0  0  0  0  0  0  0  0  0  0
  140.7450   75.7710  220.9890 C   0  0  0  0  0  0  0  0  0  0  0  0
  140.9440   76.3880  222.0690 O   0  0  0  0  0  0  0  0  0  0  0  0
  141.6730   75.9940  219.9430 N   0  0  0  0  0  0  0  0  0  0  0  0
  142.2670   77.3300  219.7520 C   0  0  0  0  0  0  0  0  0  0  0  0
  142.1800   77.7440  218.3110 C   0  0  0  0  0  0  0  0  0  0  0  0
  141.2090   76.8470  217.5800 C   0  0  0  0  0  0  0  0  0  0  0  0
  141.6380   75.3990  217.6320 C   0  0  0  0  0  0  0  0  0  0  0  0
  142.1040   74.9850  219.0010 C   0  0  1  0  0  0  0  0  0  0  0  0
  143.5930   74.7590  219.0680 C   0  0  0  0  0  0  0  0  0  0  0  0
  143.9820   74.5240  220.5100 C   0  0  0  0  0  0  0  0  0  0  0  0
  145.2690   73.7270  220.6130 C   0  0  0  0  0  0  0  0  0  0  0  0
  145.0930   72.3160  220.0950 C   0  0  0  0  0  0  0  0  0  0  0  0
  143.9080   72.3440  219.1290 C   0  0  0  0  0  0  0  0  0  0  0  0
  144.0820   73.5950  218.2960 C   0  0  0  0  0  0  0  0  0  0  0  0
  140.3030   71.9170  223.1400 C   0  0  0  0  0  0  0  0  0  0  0  0
  139.7420   70.6650  222.9530 C   0  0  0  0  0  0  0  0  0  0  0  0
  139.6360   69.7270  223.9520 C   0  0  0  0  0  0  0  0  0  0  0  0
  140.1130   70.0560  225.1910 C   0  0  0  0  0  0  0  0  0  0  0  0
  140.0050   69.1080  226.1970 C   0  0  0  0  0  0  0  0  0  0  0  0
  140.4910   69.4570  227.4380 C   0  0  0  0  0  0  0  0  0  0  0  0
  140.3750   68.2910  228.7370 Cl  0  0  0  0  0  0  0  0  0  0  0  0
  141.0580   70.7020  227.6560 C   0  0  0  0  0  0  0  0  0  0  0  0
  141.1460   71.6210  226.6260 C   0  0  0  0  0  0  0  0  0  0  0  0
  140.6670   71.2920  225.3790 C   0  0  0  0  0  0  0  0  0  0  0  0
  140.7570   72.1990  224.3670 N   0  0  0  0  0  0  0  0  0  0  0  0
  138.7840   74.1230  222.7620 H   0  0  0  0  0  0  0  0  0  0  0  0
  139.7233   74.2514  219.9290 H   0  0  0  0  0  0  0  0  0  0  0  0
  138.6707   75.4587  220.7659 H   0  0  0  0  0  0  0  0  0  0  0  0
  141.7243   78.0592  220.3714 H   0  0  0  0  0  0  0  0  0  0  0  0
  143.3258   77.2939  220.0481 H   0  0  0  0  0  0  0  0  0  0  0  0
  141.8318   78.7857  218.2505 H   0  0  0  0  0  0  0  0  0  0  0  0
  143.1738   77.6586  217.8474 H   0  0  0  0  0  0  0  0  0  0  0  0
  140.2167   76.9417  218.0452 H   0  0  0  0  0  0  0  0  0  0  0  0
  141.1814   77.1588  216.5255 H   0  0  0  0  0  0  0  0  0  0  0  0
  140.7845   74.7677  217.3440 H   0  0  0  0  0  0  0  0  0  0  0  0
  142.4839   75.2760  216.9397 H   0  0  0  0  0  0  0  0  0  0  0  0
  141.6554   74.0130  219.2540 H   0  0  0  0  0  0  0  0  0  0  0  0
  144.0474   75.6588  218.6276 H   0  0  0  0  0  0  0  0  0  0  0  0
  144.1221   75.4958  221.0059 H   0  0  0  0  0  0  0  0  0  0  0  0
  143.1793   73.9501  220.9961 H   0  0  0  0  0  0  0  0  0  0  0  0
  146.0486   74.2297  220.0218 H   0  0  0  0  0  0  0  0  0  0  0  0
  145.5553   73.6711  221.6736 H   0  0  0  0  0  0  0  0  0  0  0  0
  146.0024   71.9895  219.5692 H   0  0  0  0  0  0  0  0  0  0  0  0
  144.9121   71.6123  220.9209 H   0  0  0  0  0  0  0  0  0  0  0  0
  143.9174   71.4516  218.4859 H   0  0  0  0  0  0  0  0  0  0  0  0
  142.9484   72.3469  219.6667 H   0  0  0  0  0  0  0  0  0  0  0  0
  145.1464   73.7328  218.0553 H   0  0  0  0  0  0  0  0  0  0  0  0
  143.5099   73.5019  217.3611 H   0  0  0  0  0  0  0  0  0  0  0  0
  139.3616   70.4078  221.9534 H   0  0  0  0  0  0  0  0  0  0  0  0
  139.1821   68.7433  223.7612 H   0  0  0  0  0  0  0  0  0  0  0  0
  139.5521   68.1226  226.0128 H   0  0  0  0  0  0  0  0  0  0  0  0
  141.4405   70.9613  228.6542 H   0  0  0  0  0  0  0  0  0  0  0  0
  141.5962   72.6089  226.8029 H   0  0  0  0  0  0  0  0  0  0  0  0
  1  2  2  0
  2  3  1  0
  3  4  1  0
  4  5  1  0
  5  6  2  0
  5  7  1  0
  7  8  1  0
  8  9  1  0
  9 10  1  0
 10 11  1  0
 11 12  1  0
 12 13  1  0
 13 14  1  0
 14 15  1  0
 15 16  1  0
 16 17  1  0
 17 18  1  0
  2 19  1  0
 19 20  2  0
 20 21  1  0
 21 22  2  0
 22 23  1  0
 23 24  2  0
 24 25  1  0
 24 26  1  0
 26 27  2  0
 27 28  1  0
 28 29  2  0
 12  7  1  0
 18 13  1  0
 29 19  1  0
 28 22  1  0
  3 30  1  0
  4 31  1  0
  4 32  1  0
  8 33  1  0
  8 34  1  0
  9 35  1  0
  9 36  1  0
 10 37  1  0
 10 38  1  0
 11 39  1  0
 11 40  1  0
 12 41  1  1
 13 42  1  0
 14 43  1  0
 14 44  1  0
 15 45  1  0
 15 46  1  0
 16 47  1  0
 16 48  1  0
 17 49  1  0
 17 50  1  0
 18 51  1  0
 18 52  1  0
 20 53  1  0
 21 54  1  0
 23 55  1  0
 26 56  1  0
 27 57  1  0
M  END
>  <smiles>  (96) 
O=C(NCC(=O)N1CCCCC1C1CCCCC1)c1ccc2cc(Cl)ccc2n1

>  <score_type>  (96) 
oracle

>  <origin>  (96) 
autodockgpu

>  <m_score__min__energy>  (96) 
-9.1899999999999995

>  <m_primary>  (96) 
energy

>  <rmsd>  (96) 
2.344509140403974

>  <m_score__min__rmsd>  (96) 
2.344509140403974

>  <meeko>  (96) 
{"free_energy": -7.98, "intermolecular_energy": -9.47, "internal_energy": -1.95, "cluster_size": 8, "cluster_id": 3, "rank_in_cluster": 3}

>  <energy>  (96) 
-7.75

>  <cluster_rmsd>  (96) 
1.32

>  <cluster>  (96) 
3

$$$$

     RDKit          3D

 57 60  0  0  0  0  0  0  0  0999 V2000
  135.7280   71.6000  223.0870 O   0  0  0  0  0  0  0  0  0  0  0  0
  135.8710   72.8370  223.3580 C   0  0  0  0  0  0  0  0  0  0  0  0
  136.8830   73.6250  222.7070 N   0  0  0  0  0  0  0  0  0  0  0  0
  137.7170   72.9200  221.7330 C   0  0  0  0  0  0  0  0  0  0  0  0
  139.0290   72.5590  222.3230 C   0  0  0  0  0  0  0  0  0  0  0  0
  139.9820   73.3830  222.3340 O   0  0  0  0  0  0  0  0  0  0  0  0
  139.2740   71.2880  222.8970 N   0  0  0  0  0  0  0  0  0  0  0  0
  139.9200   70.2280  222.1020 C   0  0  0  0  0  0  0  0  0  0  0  0
  139.1560   68.9400  222.2230 C   0  0  0  0  0  0  0  0  0  0  0  0
  137.7930   69.2070  222.8130 C   0  0  0  0  0  0  0  0  0  0  0  0
  137.8900   69.8320  224.1860 C   0  0  0  0  0  0  0  0  0  0  0  0
  138.9260   70.9200  224.2520 C   0  0  1  0  0  0  0  0  0  0  0  0
  140.1400   70.5240  225.0510 C   0  0  0  0  0  0  0  0  0  0  0  0
  140.3300   71.5220  226.1720 C   0  0  0  0  0  0  0  0  0  0  0  0
  141.1020   70.9160  227.3290 C   0  0  0  0  0  0  0  0  0  0  0  0
  140.3140   69.8180  228.0090 C   0  0  0  0  0  0  0  0  0  0  0  0
  139.3070   69.2950  226.9830 C   0  0  0  0  0  0  0  0  0  0  0  0
  140.0650   69.1850  225.6780 C   0  0  0  0  0  0  0  0  0  0  0  0
  135.0060   73.4810  224.3380 C   0  0  0  0  0  0  0  0  0  0  0  0
  134.2570   72.6960  225.1960 C   0  0  0  0  0  0  0  0  0  0  0  0
  133.4140   73.2120  226.1520 C   0  0  0  0  0  0  0  0  0  0  0  0
  133.3190   74.5730  226.2530 C   0  0  0  0  0  0  0  0  0  0  0  0
  132.4700   75.0920  227.2180 C   0  0  0  0  0  0  0  0  0  0  0  0
  132.3870   76.4640  227.3040 C   0  0  0  0  0  0  0  0  0  0  0  0
  131.3260   77.1620  228.5080 Cl  0  0  0  0  0  0  0  0  0  0  0  0
  133.1260   77.2760  226.4590 C   0  0  0  0  0  0  0  0  0  0  0  0
  133.9620   76.7200  225.5090 C   0  0  0  0  0  0  0  0  0  0  0  0
  134.0590   75.3510  225.4060 C   0  0  0  0  0  0  0  0  0  0  0  0
  134.8850   74.8070  224.4690 N   0  0  0  0  0  0  0  0  0  0  0  0
  137.0030   74.6380  222.9260 H   0  0  0  0  0  0  0  0  0  0  0  0
  137.2008   72.0025  221.4140 H   0  0  0  0  0  0  0  0  0  0  0  0
  137.8890   73.5830  220.8723 H   0  0  0  0  0  0  0  0  0  0  0  0
  139.9486   70.5341  221.0458 H   0  0  0  0  0  0  0  0  0  0  0  0
  140.9414   70.0726  222.4795 H   0  0  0  0  0  0  0  0  0  0  0  0
  139.0404   68.4891  221.2264 H   0  0  0  0  0  0  0  0  0  0  0  0
  139.7074   68.2513  222.8801 H   0  0  0  0  0  0  0  0  0  0  0  0
  137.2446   69.8906  222.1482 H   0  0  0  0  0  0  0  0  0  0  0  0
  137.2676   68.2455  222.9106 H   0  0  0  0  0  0  0  0  0  0  0  0
  136.9114   70.2604  224.4484 H   0  0  0  0  0  0  0  0  0  0  0  0
  138.1887   69.0430  224.8919 H   0  0  0  0  0  0  0  0  0  0  0  0
  138.5034   71.7851  224.7840 H   0  0  0  0  0  0  0  0  0  0  0  0
  140.9708   70.5034  224.3303 H   0  0  0  0  0  0  0  0  0  0  0  0
  140.8849   72.3905  225.7875 H   0  0  0  0  0  0  0  0  0  0  0  0
  139.3376   71.8234  226.5386 H   0  0  0  0  0  0  0  0  0  0  0  0
  142.0446   70.4958  226.9483 H   0  0  0  0  0  0  0  0  0  0  0  0
  141.2954   71.7087  228.0668 H   0  0  0  0  0  0  0  0  0  0  0  0
  140.9881   69.0081  228.3246 H   0  0  0  0  0  0  0  0  0  0  0  0
  139.8023   70.1973  228.9058 H   0  0  0  0  0  0  0  0  0  0  0  0
  138.9260   68.3094  227.2886 H   0  0  0  0  0  0  0  0  0  0  0  0
  138.4390   69.9644  226.8911 H   0  0  0  0  0  0  0  0  0  0  0  0
  141.0811   68.8109  225.8719 H   0  0  0  0  0  0  0  0  0  0  0  0
  139.5464   68.4872  225.0042 H   0  0  0  0  0  0  0  0  0  0  0  0
  134.3400   71.6026  225.1091 H   0  0  0  0  0  0  0  0  0  0  0  0
  132.8347   72.5517  226.8142 H   0  0  0  0  0  0  0  0  0  0  0  0
  131.8890   74.4378  227.8847 H   0  0  0  0  0  0  0  0  0  0  0  0
  133.0470   78.3698  226.5447 H   0  0  0  0  0  0  0  0  0  0  0  0
  134.5464   77.3679  224.8392 H   0  0  0  0  0  0  0  0  0  0  0  0
  1  2  2  0
  2  3  1  0
  3  4  1  0
  4  5  1  0
  5  6  2  0
  5  7  1  0
  7  8  1  0
  8  9  1  0
  9 10  1  0
 10 11  1  0
 11 12  1  0
 12 13  1  0
 13 14  1  0
 14 15  1  0
 15 16  1  0
 16 17  1  0
 17 18  1  0
  2 19  1  0
 19 20  2  0
 20 21  1  0
 21 22  2  0
 22 23  1  0
 23 24  2  0
 24 25  1  0
 24 26  1  0
 26 27  2  0
 27 28  1  0
 28 29  2  0
 12  7  1  0
 18 13  1  0
 29 19  1  0
 28 22  1  0
  3 30  1  0
  4 31  1  0
  4 32  1  0
  8 33  1  0
  8 34  1  0
  9 35  1  0
  9 36  1  0
 10 37  1  0
 10 38  1  0
 11 39  1  0
 11 40  1  0
 12 41  1  1
 13 42  1  0
 14 43  1  0
 14 44  1  0
 15 45  1  0
 15 46  1  0
 16 47  1  0
 16 48  1  0
 17 49  1  0
 17 50  1  0
 18 51  1  0
 18 52  1  0
 20 53  1  0
 21 54  1  0
 23 55  1  0
 26 56  1  0
 27 57  1  0
M  END
>  <smiles>  (97) 
O=C(NCC(=O)N1CCCCC1C1CCCCC1)c1ccc2cc(Cl)ccc2n1

>  <score_type>  (97) 
oracle

>  <origin>  (97) 
autodockgpu

>  <m_score__min__energy>  (97) 
-9.1899999999999995

>  <m_primary>  (97) 
energy

>  <rmsd>  (97) 
7.381608908709288

>  <m_score__min__rmsd>  (97) 
7.381608908709288

>  <meeko>  (97) 
{"free_energy": -7.67, "intermolecular_energy": -9.17, "internal_energy": -1.96, "cluster_size": 2, "cluster_id": 2, "rank_in_cluster": 2}

>  <energy>  (97) 
-7.32

>  <cluster_rmsd>  (97) 
1.46

>  <cluster>  (97) 
3

$$$$

     RDKit          3D

 57 60  0  0  0  0  0  0  0  0999 V2000
  139.7970   72.0220  220.7460 O   0  0  0  0  0  0  0  0  0  0  0  0
  139.7520   72.4850  221.9330 C   0  0  0  0  0  0  0  0  0  0  0  0
  139.5740   73.8920  222.1730 N   0  0  0  0  0  0  0  0  0  0  0  0
  139.4500   74.7350  220.9830 C   0  0  0  0  0  0  0  0  0  0  0  0
  140.3550   75.9070  221.0690 C   0  0  0  0  0  0  0  0  0  0  0  0
  141.4880   75.8900  220.5190 O   0  0  0  0  0  0  0  0  0  0  0  0
  139.9970   77.0870  221.7640 N   0  0  0  0  0  0  0  0  0  0  0  0
  138.8470   77.0840  222.6870 C   0  0  0  0  0  0  0  0  0  0  0  0
  137.9520   78.2600  222.4160 C   0  0  0  0  0  0  0  0  0  0  0  0
  138.2980   78.8680  221.0780 C   0  0  0  0  0  0  0  0  0  0  0  0
  139.7320   79.3440  221.0340 C   0  0  0  0  0  0  0  0  0  0  0  0
  140.6870   78.3520  221.6390 C   0  0  1  0  0  0  0  0  0  0  0  0
  141.2500   78.8130  222.9590 C   0  0  0  0  0  0  0  0  0  0  0  0
  142.6130   79.4220  222.7180 C   0  0  0  0  0  0  0  0  0  0  0  0
  142.9790   80.4090  223.8110 C   0  0  0  0  0  0  0  0  0  0  0  0
  142.0770   81.6250  223.7880 C   0  0  0  0  0  0  0  0  0  0  0  0
  140.7800   81.2000  223.0980 C   0  0  0  0  0  0  0  0  0  0  0  0
  140.4410   79.8350  223.6600 C   0  0  0  0  0  0  0  0  0  0  0  0
  139.8810   71.5920  223.0780 C   0  0  0  0  0  0  0  0  0  0  0  0
  139.4780   70.2740  222.9540 C   0  0  0  0  0  0  0  0  0  0  0  0
  139.5610   69.3590  223.9770 C   0  0  0  0  0  0  0  0  0  0  0  0
  140.0700   69.7820  225.1740 C   0  0  0  0  0  0  0  0  0  0  0  0
  140.1540   68.8580  226.2030 C   0  0  0  0  0  0  0  0  0  0  0  0
  140.6690   69.3020  227.4010 C   0  0  0  0  0  0  0  0  0  0  0  0
  140.7920   68.1690  228.7280 Cl  0  0  0  0  0  0  0  0  0  0  0  0
  141.0810   70.6160  227.5550 C   0  0  0  0  0  0  0  0  0  0  0  0
  140.9810   71.5080  226.5030 C   0  0  0  0  0  0  0  0  0  0  0  0
  140.4700   71.0840  225.2980 C   0  0  0  0  0  0  0  0  0  0  0  0
  140.3730   71.9650  224.2640 N   0  0  0  0  0  0  0  0  0  0  0  0
  139.5360   74.2750  223.1430 H   0  0  0  0  0  0  0  0  0  0  0  0
  139.7107   74.1430  220.0933 H   0  0  0  0  0  0  0  0  0  0  0  0
  138.4131   75.0955  220.9138 H   0  0  0  0  0  0  0  0  0  0  0  0
  138.2750   76.1545  222.5497 H   0  0  0  0  0  0  0  0  0  0  0  0
  139.2195   77.1508  223.7198 H   0  0  0  0  0  0  0  0  0  0  0  0
  136.9038   77.9265  222.4055 H   0  0  0  0  0  0  0  0  0  0  0  0
  138.0932   79.0135  223.2049 H   0  0  0  0  0  0  0  0  0  0  0  0
  138.1494   78.1114  220.2935 H   0  0  0  0  0  0  0  0  0  0  0  0
  137.6432   79.7371  220.9168 H   0  0  0  0  0  0  0  0  0  0  0  0
  140.0158   79.5121  219.9846 H   0  0  0  0  0  0  0  0  0  0  0  0
  139.7948   80.2707  221.6234 H   0  0  0  0  0  0  0  0  0  0  0  0
  141.5594   78.2447  220.9776 H   0  0  0  0  0  0  0  0  0  0  0  0
  141.2714   77.9175  223.5975 H   0  0  0  0  0  0  0  0  0  0  0  0
  143.3647   78.6192  222.6942 H   0  0  0  0  0  0  0  0  0  0  0  0
  142.5871   79.9607  221.7593 H   0  0  0  0  0  0  0  0  0  0  0  0
  142.8834   79.9119  224.7876 H   0  0  0  0  0  0  0  0  0  0  0  0
  144.0128   80.7439  223.6405 H   0  0  0  0  0  0  0  0  0  0  0  0
  141.8675   81.9606  224.8144 H   0  0  0  0  0  0  0  0  0  0  0  0
  142.5534   82.4598  223.2531 H   0  0  0  0  0  0  0  0  0  0  0  0
  139.9754   81.9163  223.3205 H   0  0  0  0  0  0  0  0  0  0  0  0
  140.8945   81.1702  222.0044 H   0  0  0  0  0  0  0  0  0  0  0  0
  140.6687   79.8118  224.7359 H   0  0  0  0  0  0  0  0  0  0  0  0
  139.3707   79.6274  223.5139 H   0  0  0  0  0  0  0  0  0  0  0  0
  139.0705   69.9414  221.9879 H   0  0  0  0  0  0  0  0  0  0  0  0
  139.2286   68.3198  223.8372 H   0  0  0  0  0  0  0  0  0  0  0  0
  139.8244   67.8171  226.0694 H   0  0  0  0  0  0  0  0  0  0  0  0
  141.4899   70.9515  228.5195 H   0  0  0  0  0  0  0  0  0  0  0  0
  141.3082   72.5506  226.6289 H   0  0  0  0  0  0  0  0  0  0  0  0
  1  2  2  0
  2  3  1  0
  3  4  1  0
  4  5  1  0
  5  6  2  0
  5  7  1  0
  7  8  1  0
  8  9  1  0
  9 10  1  0
 10 11  1  0
 11 12  1  0
 12 13  1  0
 13 14  1  0
 14 15  1  0
 15 16  1  0
 16 17  1  0
 17 18  1  0
  2 19  1  0
 19 20  2  0
 20 21  1  0
 21 22  2  0
 22 23  1  0
 23 24  2  0
 24 25  1  0
 24 26  1  0
 26 27  2  0
 27 28  1  0
 28 29  2  0
 12  7  1  0
 18 13  1  0
 29 19  1  0
 28 22  1  0
  3 30  1  0
  4 31  1  0
  4 32  1  0
  8 33  1  0
  8 34  1  0
  9 35  1  0
  9 36  1  0
 10 37  1  0
 10 38  1  0
 11 39  1  0
 11 40  1  0
 12 41  1  6
 13 42  1  0
 14 43  1  0
 14 44  1  0
 15 45  1  0
 15 46  1  0
 16 47  1  0
 16 48  1  0
 17 49  1  0
 17 50  1  0
 18 51  1  0
 18 52  1  0
 20 53  1  0
 21 54  1  0
 23 55  1  0
 26 56  1  0
 27 57  1  0
M  END
>  <smiles>  (98) 
O=C(NCC(=O)N1CCCCC1C1CCCCC1)c1ccc2cc(Cl)ccc2n1

>  <score_type>  (98) 
oracle

>  <origin>  (98) 
autodockgpu

>  <m_score__min__energy>  (98) 
-9.1899999999999995

>  <m_primary>  (98) 
energy

>  <rmsd>  (98) 
2.834456345044099

>  <m_score__min__rmsd>  (98) 
2.834456345044099

>  <meeko>  (98) 
{"free_energy": -9.19, "intermolecular_energy": -10.68, "internal_energy": -1.29, "cluster_size": 37, "cluster_id": 1, "rank_in_cluster": 1}

>  <energy>  (98) 
-7.93

>  <cluster_rmsd>  (98) 
0.0

>  <cluster>  (98) 
4

$$$$

     RDKit          3D

 57 60  0  0  0  0  0  0  0  0999 V2000
  139.1550   71.7470  220.7010 O   0  0  0  0  0  0  0  0  0  0  0  0
  139.1250   72.2490  221.8730 C   0  0  0  0  0  0  0  0  0  0  0  0
  138.7980   73.6340  222.0760 N   0  0  0  0  0  0  0  0  0  0  0  0
  138.5080   74.4090  220.8690 C   0  0  0  0  0  0  0  0  0  0  0  0
  138.8860   75.8320  221.0520 C   0  0  0  0  0  0  0  0  0  0  0  0
  138.0080   76.7330  221.1000 O   0  0  0  0  0  0  0  0  0  0  0  0
  140.2350   76.2440  221.1790 N   0  0  0  0  0  0  0  0  0  0  0  0
  140.6730   76.9940  222.3710 C   0  0  0  0  0  0  0  0  0  0  0  0
  141.4670   78.2030  221.9700 C   0  0  0  0  0  0  0  0  0  0  0  0
  141.2730   78.4770  220.4970 C   0  0  0  0  0  0  0  0  0  0  0  0
  141.7230   77.3110  219.6480 C   0  0  0  0  0  0  0  0  0  0  0  0
  141.2660   75.9880  220.1970 C   0  0  1  0  0  0  0  0  0  0  0  0
  142.3950   75.1720  220.7730 C   0  0  0  0  0  0  0  0  0  0  0  0
  141.9740   73.7200  220.8100 C   0  0  0  0  0  0  0  0  0  0  0  0
  143.1760   72.7950  220.7940 C   0  0  0  0  0  0  0  0  0  0  0  0
  143.9250   72.8770  219.4820 C   0  0  0  0  0  0  0  0  0  0  0  0
  143.5950   74.2390  218.8690 C   0  0  0  0  0  0  0  0  0  0  0  0
  143.6610   75.2330  220.0090 C   0  0  0  0  0  0  0  0  0  0  0  0
  139.4230   71.4220  223.0360 C   0  0  0  0  0  0  0  0  0  0  0  0
  139.1250   70.0710  222.9980 C   0  0  0  0  0  0  0  0  0  0  0  0
  139.3690   69.2130  224.0440 C   0  0  0  0  0  0  0  0  0  0  0  0
  139.9360   69.7310  225.1760 C   0  0  0  0  0  0  0  0  0  0  0  0
  140.1830   68.8650  226.2290 C   0  0  0  0  0  0  0  0  0  0  0  0
  140.7540   69.4040  227.3610 C   0  0  0  0  0  0  0  0  0  0  0  0
  141.0810   68.3460  228.7150 Cl  0  0  0  0  0  0  0  0  0  0  0  0
  141.0640   70.7530  227.4280 C   0  0  0  0  0  0  0  0  0  0  0  0
  140.8020   71.5850  226.3550 C   0  0  0  0  0  0  0  0  0  0  0  0
  140.2320   71.0660  225.2150 C   0  0  0  0  0  0  0  0  0  0  0  0
  139.9760   71.8880  224.1610 N   0  0  0  0  0  0  0  0  0  0  0  0
  138.7720   74.0480  223.0340 H   0  0  0  0  0  0  0  0  0  0  0  0
  139.0776   73.9902  220.0262 H   0  0  0  0  0  0  0  0  0  0  0  0
  137.4281   74.3547  220.6666 H   0  0  0  0  0  0  0  0  0  0  0  0
  139.7890   77.3146  222.9418 H   0  0  0  0  0  0  0  0  0  0  0  0
  141.3073   76.3410  222.9885 H   0  0  0  0  0  0  0  0  0  0  0  0
  141.1266   79.0727  222.5512 H   0  0  0  0  0  0  0  0  0  0  0  0
  142.5333   78.0193  222.1680 H   0  0  0  0  0  0  0  0  0  0  0  0
  140.2061   78.6656  220.3069 H   0  0  0  0  0  0  0  0  0  0  0  0
  141.8820   79.3526  220.2278 H   0  0  0  0  0  0  0  0  0  0  0  0
  141.3123   77.4332  218.6349 H   0  0  0  0  0  0  0  0  0  0  0  0
  142.8230   77.3077  219.6412 H   0  0  0  0  0  0  0  0  0  0  0  0
  140.8637   75.3785  219.3744 H   0  0  0  0  0  0  0  0  0  0  0  0
  142.5905   75.6014  221.7667 H   0  0  0  0  0  0  0  0  0  0  0  0
  141.3948   73.5385  221.7274 H   0  0  0  0  0  0  0  0  0  0  0  0
  141.3657   73.5129  219.9172 H   0  0  0  0  0  0  0  0  0  0  0  0
  143.8555   73.0786  221.6112 H   0  0  0  0  0  0  0  0  0  0  0  0
  142.8174   71.7629  220.9213 H   0  0  0  0  0  0  0  0  0  0  0  0
  145.0076   72.7933  219.6581 H   0  0  0  0  0  0  0  0  0  0  0  0
  143.6309   72.0591  218.8078 H   0  0  0  0  0  0  0  0  0  0  0  0
  144.3301   74.4976  218.0926 H   0  0  0  0  0  0  0  0  0  0  0  0
  142.6045   74.2377  218.3906 H   0  0  0  0  0  0  0  0  0  0  0  0
  144.5035   74.9813  220.6699 H   0  0  0  0  0  0  0  0  0  0  0  0
  143.8068   76.2478  219.6103 H   0  0  0  0  0  0  0  0  0  0  0  0
  138.6695   69.6628  222.0838 H   0  0  0  0  0  0  0  0  0  0  0  0
  139.1165   68.1447  223.9730 H   0  0  0  0  0  0  0  0  0  0  0  0
  139.9344   67.7954  226.1641 H   0  0  0  0  0  0  0  0  0  0  0  0
  141.5211   71.1644  228.3400 H   0  0  0  0  0  0  0  0  0  0  0  0
  141.0478   72.6556  226.4123 H   0  0  0  0  0  0  0  0  0  0  0  0
  1  2  2  0
  2  3  1  0
  3  4  1  0
  4  5  1  0
  5  6  2  0
  5  7  1  0
  7  8  1  0
  8  9  1  0
  9 10  1  0
 10 11  1  0
 11 12  1  0
 12 13  1  0
 13 14  1  0
 14 15  1  0
 15 16  1  0
 16 17  1  0
 17 18  1  0
  2 19  1  0
 19 20  2  0
 20 21  1  0
 21 22  2  0
 22 23  1  0
 23 24  2  0
 24 25  1  0
 24 26  1  0
 26 27  2  0
 27 28  1  0
 28 29  2  0
 12  7  1  0
 18 13  1  0
 29 19  1  0
 28 22  1  0
  3 30  1  0
  4 31  1  0
  4 32  1  0
  8 33  1  0
  8 34  1  0
  9 35  1  0
  9 36  1  0
 10 37  1  0
 10 38  1  0
 11 39  1  0
 11 40  1  0
 12 41  1  6
 13 42  1  0
 14 43  1  0
 14 44  1  0
 15 45  1  0
 15 46  1  0
 16 47  1  0
 16 48  1  0
 17 49  1  0
 17 50  1  0
 18 51  1  0
 18 52  1  0
 20 53  1  0
 21 54  1  0
 23 55  1  0
 26 56  1  0
 27 57  1  0
M  END
>  <smiles>  (99) 
O=C(NCC(=O)N1CCCCC1C1CCCCC1)c1ccc2cc(Cl)ccc2n1

>  <score_type>  (99) 
oracle

>  <origin>  (99) 
autodockgpu

>  <m_score__min__energy>  (99) 
-9.1899999999999995

>  <m_primary>  (99) 
energy

>  <rmsd>  (99) 
2.4596137206159456

>  <m_score__min__rmsd>  (99) 
2.4596137206159456

>  <meeko>  (99) 
{"free_energy": -7.85, "intermolecular_energy": -9.34, "internal_energy": -2.02, "cluster_size": 37, "cluster_id": 1, "rank_in_cluster": 36}

>  <energy>  (99) 
-6.75

>  <cluster_rmsd>  (99) 
0.0

>  <cluster>  (99) 
5

$$$$

     RDKit          3D

 57 60  0  0  0  0  0  0  0  0999 V2000
  140.5600   72.4090  220.8050 O   0  0  0  0  0  0  0  0  0  0  0  0
  140.1940   72.8140  221.9580 C   0  0  0  0  0  0  0  0  0  0  0  0
  139.7770   74.1740  222.1660 N   0  0  0  0  0  0  0  0  0  0  0  0
  139.8010   75.0410  220.9870 C   0  0  0  0  0  0  0  0  0  0  0  0
  140.9410   75.9880  221.0510 C   0  0  0  0  0  0  0  0  0  0  0  0
  141.0720   76.7770  222.0240 O   0  0  0  0  0  0  0  0  0  0  0  0
  141.9250   76.0540  220.0350 N   0  0  0  0  0  0  0  0  0  0  0  0
  142.5400   77.3470  219.6810 C   0  0  0  0  0  0  0  0  0  0  0  0
  142.5340   77.5420  218.1920 C   0  0  0  0  0  0  0  0  0  0  0  0
  141.5970   76.5470  217.5490 C   0  0  0  0  0  0  0  0  0  0  0  0
  142.0100   75.1230  217.8390 C   0  0  0  0  0  0  0  0  0  0  0  0
  142.3980   74.9160  219.2770 C   0  0  1  0  0  0  0  0  0  0  0  0
  143.8790   74.7020  219.4580 C   0  0  0  0  0  0  0  0  0  0  0  0
  144.1240   74.1620  220.8490 C   0  0  0  0  0  0  0  0  0  0  0  0
  145.4220   73.3800  220.9180 C   0  0  0  0  0  0  0  0  0  0  0  0
  145.3560   72.1150  220.0900 C   0  0  0  0  0  0  0  0  0  0  0  0
  144.2780   72.3370  219.0280 C   0  0  0  0  0  0  0  0  0  0  0  0
  144.4910   73.7440  218.5110 C   0  0  0  0  0  0  0  0  0  0  0  0
  140.1920   71.9000  223.0930 C   0  0  0  0  0  0  0  0  0  0  0  0
  139.6900   70.6210  222.9280 C   0  0  0  0  0  0  0  0  0  0  0  0
  139.6460   69.6900  223.9390 C   0  0  0  0  0  0  0  0  0  0  0  0
  140.1260   70.0560  225.1670 C   0  0  0  0  0  0  0  0  0  0  0  0
  140.0820   69.1170  226.1840 C   0  0  0  0  0  0  0  0  0  0  0  0
  140.5690   69.5030  227.4130 C   0  0  0  0  0  0  0  0  0  0  0  0
  140.5320   68.3490  228.7270 Cl  0  0  0  0  0  0  0  0  0  0  0  0
  141.0790   70.7770  227.6080 C   0  0  0  0  0  0  0  0  0  0  0  0
  141.1050   71.6870  226.5670 C   0  0  0  0  0  0  0  0  0  0  0  0
  140.6230   71.3200  225.3310 C   0  0  0  0  0  0  0  0  0  0  0  0
  140.6510   72.2180  224.3080 N   0  0  0  0  0  0  0  0  0  0  0  0
  139.4770   74.5100  223.1070 H   0  0  0  0  0  0  0  0  0  0  0  0
  139.8989   74.4196  220.0846 H   0  0  0  0  0  0  0  0  0  0  0  0
  138.8652   75.6183  220.9555 H   0  0  0  0  0  0  0  0  0  0  0  0
  141.9709   78.1604  220.1549 H   0  0  0  0  0  0  0  0  0  0  0  0
  143.5809   77.3552  220.0367 H   0  0  0  0  0  0  0  0  0  0  0  0
  142.1981   78.5632  217.9589 H   0  0  0  0  0  0  0  0  0  0  0  0
  143.5508   77.3878  217.8016 H   0  0  0  0  0  0  0  0  0  0  0  0
  140.5814   76.7101  217.9389 H   0  0  0  0  0  0  0  0  0  0  0  0
  141.6301   76.6988  216.4600 H   0  0  0  0  0  0  0  0  0  0  0  0
  141.1678   74.4564  217.6017 H   0  0  0  0  0  0  0  0  0  0  0  0
  142.8912   74.8986  217.2200 H   0  0  0  0  0  0  0  0  0  0  0  0
  141.9284   73.9922  219.6458 H   0  0  0  0  0  0  0  0  0  0  0  0
  144.3418   75.6832  219.2763 H   0  0  0  0  0  0  0  0  0  0  0  0
  144.1750   75.0033  221.5558 H   0  0  0  0  0  0  0  0  0  0  0  0
  143.2972   73.4844  221.1081 H   0  0  0  0  0  0  0  0  0  0  0  0
  146.2395   74.0115  220.5401 H   0  0  0  0  0  0  0  0  0  0  0  0
  145.5967   73.0959  221.9662 H   0  0  0  0  0  0  0  0  0  0  0  0
  146.3273   71.9258  219.6097 H   0  0  0  0  0  0  0  0  0  0  0  0
  145.1173   71.2443  220.7184 H   0  0  0  0  0  0  0  0  0  0  0  0
  144.3889   71.6082  218.2116 H   0  0  0  0  0  0  0  0  0  0  0  0
  143.2678   72.2072  219.4436 H   0  0  0  0  0  0  0  0  0  0  0  0
  145.5688   73.9467  218.4261 H   0  0  0  0  0  0  0  0  0  0  0  0
  144.0249   73.8509  217.5204 H   0  0  0  0  0  0  0  0  0  0  0  0
  139.3066   70.3345  221.9376 H   0  0  0  0  0  0  0  0  0  0  0  0
  139.2380   68.6832  223.7661 H   0  0  0  0  0  0  0  0  0  0  0  0
  139.6763   68.1082  226.0176 H   0  0  0  0  0  0  0  0  0  0  0  0
  141.4653   71.0659  228.5966 H   0  0  0  0  0  0  0  0  0  0  0  0
  141.5084   72.6980  226.7257 H   0  0  0  0  0  0  0  0  0  0  0  0
  1  2  2  0
  2  3  1  0
  3  4  1  0
  4  5  1  0
  5  6  2  0
  5  7  1  0
  7  8  1  0
  8  9  1  0
  9 10  1  0
 10 11  1  0
 11 12  1  0
 12 13  1  0
 13 14  1  0
 14 15  1  0
 15 16  1  0
 16 17  1  0
 17 18  1  0
  2 19  1  0
 19 20  2  0
 20 21  1  0
 21 22  2  0
 22 23  1  0
 23 24  2  0
 24 25  1  0
 24 26  1  0
 26 27  2  0
 27 28  1  0
 28 29  2  0
 12  7  1  0
 18 13  1  0
 29 19  1  0
 28 22  1  0
  3 30  1  0
  4 31  1  0
  4 32  1  0
  8 33  1  0
  8 34  1  0
  9 35  1  0
  9 36  1  0
 10 37  1  0
 10 38  1  0
 11 39  1  0
 11 40  1  0
 12 41  1  1
 13 42  1  0
 14 43  1  0
 14 44  1  0
 15 45  1  0
 15 46  1  0
 16 47  1  0
 16 48  1  0
 17 49  1  0
 17 50  1  0
 18 51  1  0
 18 52  1  0
 20 53  1  0
 21 54  1  0
 23 55  1  0
 26 56  1  0
 27 57  1  0
M  END
>  <smiles>  (100) 
O=C(NCC(=O)N1CCCCC1C1CCCCC1)c1ccc2cc(Cl)ccc2n1

>  <score_type>  (100) 
oracle

>  <origin>  (100) 
autodockgpu

>  <m_score__min__energy>  (100) 
-9.1899999999999995

>  <m_primary>  (100) 
energy

>  <rmsd>  (100) 
2.435393944361816

>  <m_score__min__rmsd>  (100) 
2.435393944361816

>  <meeko>  (100) 
{"free_energy": -8.05, "intermolecular_energy": -9.54, "internal_energy": -1.95, "cluster_size": 8, "cluster_id": 3, "rank_in_cluster": 1}

>  <energy>  (100) 
-6.7

>  <cluster_rmsd>  (100) 
0.46

>  <cluster>  (100) 
5

$$$$
