
     RDKit          3D

 45 47  0  0  0  0  0  0  0  0999 V2000
  139.5840   68.3680  224.9600 C   0  0  0  0  0  0  0  0  0  0  0  0
  139.2190   69.7880  224.9240 C   0  0  2  0  0  0  0  0  0  0  0  0
  139.4840   70.4990  223.6930 N   0  0  0  0  0  0  0  0  0  0  0  0
  138.4430   70.5880  222.7550 C   0  0  0  0  0  0  0  0  0  0  0  0
  137.3350   70.0310  223.0990 O   0  0  0  0  0  0  0  0  0  0  0  0
  138.4600   71.2340  221.4480 C   0  0  0  0  0  0  0  0  0  0  0  0
  139.7100   71.7660  221.0000 N   0  0  0  0  0  0  0  0  0  0  0  0
  140.5780   72.6150  221.7160 C   0  0  0  0  0  0  0  0  0  0  0  0
  140.3230   73.0120  222.8720 O   0  0  0  0  0  0  0  0  0  0  0  0
  141.8210   73.0090  221.0050 C   0  0  0  0  0  0  0  0  0  0  0  0
  142.7670   72.0920  220.6180 C   0  0  0  0  0  0  0  0  0  0  0  0
  143.9140   72.4840  219.9420 C   0  0  0  0  0  0  0  0  0  0  0  0
  145.0950   71.2580  219.4720 Cl  0  0  0  0  0  0  0  0  0  0  0  0
  144.1280   73.8170  219.6440 C   0  0  0  0  0  0  0  0  0  0  0  0
  143.1830   74.7360  220.0290 C   0  0  0  0  0  0  0  0  0  0  0  0
  143.4080   76.0810  219.7250 C   0  0  0  0  0  0  0  0  0  0  0  0
  142.4890   77.0360  220.0980 C   0  0  0  0  0  0  0  0  0  0  0  0
  141.3540   76.6660  220.7650 C   0  0  0  0  0  0  0  0  0  0  0  0
  141.0980   75.3270  221.0840 C   0  0  0  0  0  0  0  0  0  0  0  0
  142.0360   74.3560  220.7030 C   0  0  0  0  0  0  0  0  0  0  0  0
  140.0130   70.5430  225.9750 C   0  0  0  0  0  0  0  0  0  0  0  0
  139.8340   70.1090  227.3000 C   0  0  0  0  0  0  0  0  0  0  0  0
  140.4980   70.7700  228.3340 C   0  0  0  0  0  0  0  0  0  0  0  0
  141.3140   71.8420  228.0120 C   0  0  0  0  0  0  0  0  0  0  0  0
  141.4830   72.2600  226.6950 C   0  0  0  0  0  0  0  0  0  0  0  0
  140.8210   71.5980  225.6560 C   0  0  0  0  0  0  0  0  0  0  0  0
  139.6689   68.0376  226.0058 H   0  0  0  0  0  0  0  0  0  0  0  0
  138.8086   67.7771  224.4506 H   0  0  0  0  0  0  0  0  0  0  0  0
  140.5483   68.2242  224.4506 H   0  0  0  0  0  0  0  0  0  0  0  0
  138.1300   69.7644  225.0773 H   0  0  0  0  0  0  0  0  0  0  0  0
  140.3890   70.9290  223.4690 H   0  0  0  0  0  0  0  0  0  0  0  0
  138.1316   70.4906  220.7067 H   0  0  0  0  0  0  0  0  0  0  0  0
  137.8006   72.1080  221.5541 H   0  0  0  0  0  0  0  0  0  0  0  0
  140.0170   71.4810  220.0240 H   0  0  0  0  0  0  0  0  0  0  0  0
  142.6129   71.0274  220.8479 H   0  0  0  0  0  0  0  0  0  0  0  0
  145.0357   74.1346  219.1100 H   0  0  0  0  0  0  0  0  0  0  0  0
  144.3205   76.3773  219.1870 H   0  0  0  0  0  0  0  0  0  0  0  0
  142.6675   78.0950  219.8598 H   0  0  0  0  0  0  0  0  0  0  0  0
  140.6262   77.4373  221.0573 H   0  0  0  0  0  0  0  0  0  0  0  0
  140.1814   75.0426  221.6216 H   0  0  0  0  0  0  0  0  0  0  0  0
  139.1759   69.2554  227.5199 H   0  0  0  0  0  0  0  0  0  0  0  0
  140.3765   70.4478  229.3787 H   0  0  0  0  0  0  0  0  0  0  0  0
  141.8412   72.3759  228.8164 H   0  0  0  0  0  0  0  0  0  0  0  0
  142.1394   73.1138  226.4708 H   0  0  0  0  0  0  0  0  0  0  0  0
  140.9472   71.9176  224.6111 H   0  0  0  0  0  0  0  0  0  0  0  0
  1  2  1  0
  2  3  1  0
  3  4  1  0
  4  5  2  0
  4  6  1  0
  6  7  1  0
  7  8  1  0
  8  9  2  0
  8 10  1  0
 10 11  2  0
 11 12  1  0
 12 13  1  0
 12 14  2  0
 14 15  1  0
 15 16  2  0
 16 17  1  0
 17 18  2  0
 18 19  1  0
 19 20  2  0
  2 21  1  0
 21 22  2  0
 22 23  1  0
 23 24  2  0
 24 25  1  0
 25 26  2  0
 20 10  1  0
 26 21  1  0
 20 15  1  0
  1 27  1  0
  1 28  1  0
  1 29  1  0
  2 30  1  1
  3 31  1  0
  6 32  1  0
  6 33  1  0
  7 34  1  0
 11 35  1  0
 14 36  1  0
 16 37  1  0
 17 38  1  0
 18 39  1  0
 19 40  1  0
 22 41  1  0
 23 42  1  0
 24 43  1  0
 25 44  1  0
 26 45  1  0
M  END
>  <smiles>  (1) 
C[C@H](NC(=O)CNC(=O)c1cc(Cl)cc2ccccc12)c1ccccc1

>  <score_type>  (1) 
oracle

>  <origin>  (1) 
autodockgpu

>  <m_score__min__energy>  (1) 
-8.7300000000000004

>  <m_primary>  (1) 
energy

>  <rmsd>  (1) 
9.956525946756557

>  <m_score__min__rmsd>  (1) 
9.956525946756557

>  <meeko>  (1) 
{"free_energy": -7.49, "intermolecular_energy": -8.98, "internal_energy": -1.83, "cluster_size": 11, "cluster_id": 5, "rank_in_cluster": 9}

>  <energy>  (1) 
-8.73

>  <cluster_rmsd>  (1) 
0.0

>  <cluster>  (1) 
1

$$$$

     RDKit          3D

 45 47  0  0  0  0  0  0  0  0999 V2000
  143.2300   76.5050  218.8260 C   0  0  0  0  0  0  0  0  0  0  0  0
  142.6920   75.2880  219.4410 C   0  0  2  0  0  0  0  0  0  0  0  0
  141.9040   75.4580  220.6420 N   0  0  0  0  0  0  0  0  0  0  0  0
  140.6900   74.7570  220.7300 C   0  0  0  0  0  0  0  0  0  0  0  0
  140.4040   74.0110  219.7210 O   0  0  0  0  0  0  0  0  0  0  0  0
  139.7200   74.7670  221.8180 C   0  0  0  0  0  0  0  0  0  0  0  0
  139.3950   73.5080  222.4130 N   0  0  0  0  0  0  0  0  0  0  0  0
  140.2510   72.4000  222.5810 C   0  0  0  0  0  0  0  0  0  0  0  0
  141.4410   72.4100  222.2010 O   0  0  0  0  0  0  0  0  0  0  0  0
  139.6470   71.2160  223.2440 C   0  0  0  0  0  0  0  0  0  0  0  0
  138.8240   70.3420  222.5770 C   0  0  0  0  0  0  0  0  0  0  0  0
  138.2830   69.2350  223.2160 C   0  0  0  0  0  0  0  0  0  0  0  0
  137.2310   68.1480  222.3060 Cl  0  0  0  0  0  0  0  0  0  0  0  0
  138.5650   68.9900  224.5470 C   0  0  0  0  0  0  0  0  0  0  0  0
  139.3890   69.8630  225.2160 C   0  0  0  0  0  0  0  0  0  0  0  0
  139.6650   69.6080  226.5610 C   0  0  0  0  0  0  0  0  0  0  0  0
  140.4820   70.4610  227.2710 C   0  0  0  0  0  0  0  0  0  0  0  0
  141.0220   71.5560  226.6570 C   0  0  0  0  0  0  0  0  0  0  0  0
  140.7640   71.8390  225.3100 C   0  0  0  0  0  0  0  0  0  0  0  0
  139.9330   70.9690  224.5890 C   0  0  0  0  0  0  0  0  0  0  0  0
  143.8370   74.3860  219.8650 C   0  0  0  0  0  0  0  0  0  0  0  0
  143.6680   73.0180  219.5870 C   0  0  0  0  0  0  0  0  0  0  0  0
  144.6540   72.1120  219.9760 C   0  0  0  0  0  0  0  0  0  0  0  0
  145.7740   72.5990  220.6300 C   0  0  0  0  0  0  0  0  0  0  0  0
  145.9280   73.9570  220.8980 C   0  0  0  0  0  0  0  0  0  0  0  0
  144.9420   74.8670  220.5080 C   0  0  0  0  0  0  0  0  0  0  0  0
  143.5405   77.2074  219.6136 H   0  0  0  0  0  0  0  0  0  0  0  0
  144.0981   76.2473  218.2015 H   0  0  0  0  0  0  0  0  0  0  0  0
  142.4551   76.9736  218.2015 H   0  0  0  0  0  0  0  0  0  0  0  0
  142.0357   74.8855  218.6554 H   0  0  0  0  0  0  0  0  0  0  0  0
  142.1800   76.0660  221.4210 H   0  0  0  0  0  0  0  0  0  0  0  0
  140.1193   75.4154  222.6118 H   0  0  0  0  0  0  0  0  0  0  0  0
  138.7826   75.1156  221.3600 H   0  0  0  0  0  0  0  0  0  0  0  0
  138.4010   73.4030  222.7730 H   0  0  0  0  0  0  0  0  0  0  0  0
  138.5894   70.5225  221.5176 H   0  0  0  0  0  0  0  0  0  0  0  0
  138.1389   68.1150  225.0596 H   0  0  0  0  0  0  0  0  0  0  0  0
  139.2301   68.7260  227.0539 H   0  0  0  0  0  0  0  0  0  0  0  0
  140.6992   70.2607  228.3306 H   0  0  0  0  0  0  0  0  0  0  0  0
  141.6733   72.2296  227.2333 H   0  0  0  0  0  0  0  0  0  0  0  0
  141.2036   72.7245  224.8277 H   0  0  0  0  0  0  0  0  0  0  0  0
  142.7652   72.6654  219.0668 H   0  0  0  0  0  0  0  0  0  0  0  0
  144.5452   71.0372  219.7687 H   0  0  0  0  0  0  0  0  0  0  0  0
  146.5599   71.8968  220.9450 H   0  0  0  0  0  0  0  0  0  0  0  0
  146.8288   74.3144  221.4184 H   0  0  0  0  0  0  0  0  0  0  0  0
  145.0527   75.9420  220.7133 H   0  0  0  0  0  0  0  0  0  0  0  0
  1  2  1  0
  2  3  1  0
  3  4  1  0
  4  5  2  0
  4  6  1  0
  6  7  1  0
  7  8  1  0
  8  9  2  0
  8 10  1  0
 10 11  2  0
 11 12  1  0
 12 13  1  0
 12 14  2  0
 14 15  1  0
 15 16  2  0
 16 17  1  0
 17 18  2  0
 18 19  1  0
 19 20  2  0
  2 21  1  0
 21 22  2  0
 22 23  1  0
 23 24  2  0
 24 25  1  0
 25 26  2  0
 20 10  1  0
 26 21  1  0
 20 15  1  0
  1 27  1  0
  1 28  1  0
  1 29  1  0
  2 30  1  6
  3 31  1  0
  6 32  1  0
  6 33  1  0
  7 34  1  0
 11 35  1  0
 14 36  1  0
 16 37  1  0
 17 38  1  0
 18 39  1  0
 19 40  1  0
 22 41  1  0
 23 42  1  0
 24 43  1  0
 25 44  1  0
 26 45  1  0
M  END
>  <smiles>  (2) 
C[C@H](NC(=O)CNC(=O)c1cc(Cl)cc2ccccc12)c1ccccc1

>  <score_type>  (2) 
oracle

>  <origin>  (2) 
autodockgpu

>  <m_score__min__energy>  (2) 
-8.7300000000000004

>  <m_primary>  (2) 
energy

>  <rmsd>  (2) 
7.410131575063139

>  <m_score__min__rmsd>  (2) 
7.410131575063139

>  <meeko>  (2) 
{"free_energy": -8.05, "intermolecular_energy": -9.54, "internal_energy": -1.29, "cluster_size": 11, "cluster_id": 3, "rank_in_cluster": 9}

>  <energy>  (2) 
-8.72

>  <cluster_rmsd>  (2) 
0.04

>  <cluster>  (2) 
1

$$$$

     RDKit          3D

 45 47  0  0  0  0  0  0  0  0999 V2000
  139.9380   67.6130  225.6970 C   0  0  0  0  0  0  0  0  0  0  0  0
  139.2790   68.9040  225.4720 C   0  0  2  0  0  0  0  0  0  0  0  0
  139.2760   69.4070  224.1160 N   0  0  0  0  0  0  0  0  0  0  0  0
  138.1250   70.0780  223.6720 C   0  0  0  0  0  0  0  0  0  0  0  0
  137.1780   70.1900  224.5370 O   0  0  0  0  0  0  0  0  0  0  0  0
  137.8710   70.6620  222.3610 C   0  0  0  0  0  0  0  0  0  0  0  0
  138.5940   71.8490  222.0250 N   0  0  0  0  0  0  0  0  0  0  0  0
  139.9620   72.1050  222.2520 C   0  0  0  0  0  0  0  0  0  0  0  0
  140.7160   71.2750  222.8030 O   0  0  0  0  0  0  0  0  0  0  0  0
  140.4530   73.4280  221.7900 C   0  0  0  0  0  0  0  0  0  0  0  0
  139.7290   74.5820  221.9660 C   0  0  0  0  0  0  0  0  0  0  0  0
  140.2170   75.8090  221.5370 C   0  0  0  0  0  0  0  0  0  0  0  0
  139.2390   77.2570  221.7900 Cl  0  0  0  0  0  0  0  0  0  0  0  0
  141.4510   75.8930  220.9200 C   0  0  0  0  0  0  0  0  0  0  0  0
  142.1770   74.7400  220.7440 C   0  0  0  0  0  0  0  0  0  0  0  0
  143.4220   74.8340  220.1170 C   0  0  0  0  0  0  0  0  0  0  0  0
  144.1810   73.7030  219.9150 C   0  0  0  0  0  0  0  0  0  0  0  0
  143.7140   72.4870  220.3300 C   0  0  0  0  0  0  0  0  0  0  0  0
  142.4710   72.3580  220.9620 C   0  0  0  0  0  0  0  0  0  0  0  0
  141.7000   73.5120  221.1670 C   0  0  0  0  0  0  0  0  0  0  0  0
  139.9880   69.9810  226.2730 C   0  0  0  0  0  0  0  0  0  0  0  0
  139.6370   70.0580  227.6320 C   0  0  0  0  0  0  0  0  0  0  0  0
  140.2130   71.0430  228.4350 C   0  0  0  0  0  0  0  0  0  0  0  0
  141.1160   71.9200  227.8540 C   0  0  0  0  0  0  0  0  0  0  0  0
  141.4540   71.8320  226.5070 C   0  0  0  0  0  0  0  0  0  0  0  0
  140.8800   70.8440  225.7010 C   0  0  0  0  0  0  0  0  0  0  0  0
  140.0304   67.4320  226.7781 H   0  0  0  0  0  0  0  0  0  0  0  0
  139.3389   66.8111  225.2408 H   0  0  0  0  0  0  0  0  0  0  0  0
  140.9389   67.6278  225.2408 H   0  0  0  0  0  0  0  0  0  0  0  0
  138.2379   68.7023  225.7641 H   0  0  0  0  0  0  0  0  0  0  0  0
  140.0610   69.2910  223.4660 H   0  0  0  0  0  0  0  0  0  0  0  0
  138.1156   69.9003  221.6060 H   0  0  0  0  0  0  0  0  0  0  0  0
  136.8152   70.9698  222.3865 H   0  0  0  0  0  0  0  0  0  0  0  0
  138.0370   72.6170  221.5460 H   0  0  0  0  0  0  0  0  0  0  0  0
  138.7451   74.5331  222.4555 H   0  0  0  0  0  0  0  0  0  0  0  0
  141.8432   76.8619  220.5774 H   0  0  0  0  0  0  0  0  0  0  0  0
  143.7965   75.8132  219.7841 H   0  0  0  0  0  0  0  0  0  0  0  0
  145.1609   73.7778  219.4208 H   0  0  0  0  0  0  0  0  0  0  0  0
  144.3284   71.5898  220.1638 H   0  0  0  0  0  0  0  0  0  0  0  0
  142.1071   71.3733  221.2905 H   0  0  0  0  0  0  0  0  0  0  0  0
  138.9140   69.3474  228.0590 H   0  0  0  0  0  0  0  0  0  0  0  0
  139.9571   71.1217  229.5019 H   0  0  0  0  0  0  0  0  0  0  0  0
  141.5764   72.7043  228.4728 H   0  0  0  0  0  0  0  0  0  0  0  0
  142.1748   72.5418  226.0750 H   0  0  0  0  0  0  0  0  0  0  0  0
  141.1395   70.7636  224.6351 H   0  0  0  0  0  0  0  0  0  0  0  0
  1  2  1  0
  2  3  1  0
  3  4  1  0
  4  5  2  0
  4  6  1  0
  6  7  1  0
  7  8  1  0
  8  9  2  0
  8 10  1  0
 10 11  2  0
 11 12  1  0
 12 13  1  0
 12 14  2  0
 14 15  1  0
 15 16  2  0
 16 17  1  0
 17 18  2  0
 18 19  1  0
 19 20  2  0
  2 21  1  0
 21 22  2  0
 22 23  1  0
 23 24  2  0
 24 25  1  0
 25 26  2  0
 20 10  1  0
 26 21  1  0
 20 15  1  0
  1 27  1  0
  1 28  1  0
  1 29  1  0
  2 30  1  1
  3 31  1  0
  6 32  1  0
  6 33  1  0
  7 34  1  0
 11 35  1  0
 14 36  1  0
 16 37  1  0
 17 38  1  0
 18 39  1  0
 19 40  1  0
 22 41  1  0
 23 42  1  0
 24 43  1  0
 25 44  1  0
 26 45  1  0
M  END
>  <smiles>  (3) 
C[C@H](NC(=O)CNC(=O)c1cc(Cl)cc2ccccc12)c1ccccc1

>  <score_type>  (3) 
oracle

>  <origin>  (3) 
autodockgpu

>  <m_score__min__energy>  (3) 
-8.7300000000000004

>  <m_primary>  (3) 
energy

>  <rmsd>  (3) 
10.366439659185563

>  <m_score__min__rmsd>  (3) 
10.366439659185563

>  <meeko>  (3) 
{"free_energy": -7.51, "intermolecular_energy": -9.0, "internal_energy": -1.9, "cluster_size": 11, "cluster_id": 5, "rank_in_cluster": 7}

>  <energy>  (3) 
-8.68

>  <cluster_rmsd>  (3) 
0.11

>  <cluster>  (3) 
1

$$$$

     RDKit          3D

 45 47  0  0  0  0  0  0  0  0999 V2000
  143.2870   76.3890  219.3660 C   0  0  0  0  0  0  0  0  0  0  0  0
  142.7000   75.1020  219.7520 C   0  0  2  0  0  0  0  0  0  0  0  0
  141.9130   75.0810  220.9660 N   0  0  0  0  0  0  0  0  0  0  0  0
  140.5870   74.6300  220.8750 C   0  0  0  0  0  0  0  0  0  0  0  0
  140.2040   74.2610  219.7030 O   0  0  0  0  0  0  0  0  0  0  0  0
  139.5960   74.5240  221.9390 C   0  0  0  0  0  0  0  0  0  0  0  0
  139.4210   73.2400  222.5420 N   0  0  0  0  0  0  0  0  0  0  0  0
  140.3540   72.1830  222.5780 C   0  0  0  0  0  0  0  0  0  0  0  0
  141.4830   72.2690  222.0530 O   0  0  0  0  0  0  0  0  0  0  0  0
  139.9070   70.9550  223.2860 C   0  0  0  0  0  0  0  0  0  0  0  0
  139.2790   69.9210  222.6350 C   0  0  0  0  0  0  0  0  0  0  0  0
  138.8840   68.7790  223.3170 C   0  0  0  0  0  0  0  0  0  0  0  0
  138.0790   67.4830  222.4270 Cl  0  0  0  0  0  0  0  0  0  0  0  0
  139.1160   68.6590  224.6750 C   0  0  0  0  0  0  0  0  0  0  0  0
  139.7450   69.6930  225.3270 C   0  0  0  0  0  0  0  0  0  0  0  0
  139.9730   69.5640  226.6990 C   0  0  0  0  0  0  0  0  0  0  0  0
  140.5960   70.5790  227.3930 C   0  0  0  0  0  0  0  0  0  0  0  0
  140.9900   71.7110  226.7360 C   0  0  0  0  0  0  0  0  0  0  0  0
  140.7760   71.8710  225.3610 C   0  0  0  0  0  0  0  0  0  0  0  0
  140.1430   70.8360  224.6570 C   0  0  0  0  0  0  0  0  0  0  0  0
  143.8080   74.0950  220.0030 C   0  0  0  0  0  0  0  0  0  0  0  0
  145.0160   74.6280  220.4840 C   0  0  0  0  0  0  0  0  0  0  0  0
  146.1010   73.7790  220.7070 C   0  0  0  0  0  0  0  0  0  0  0  0
  145.9440   72.4280  220.4410 C   0  0  0  0  0  0  0  0  0  0  0  0
  144.7410   71.9140  219.9660 C   0  0  0  0  0  0  0  0  0  0  0  0
  143.6520   72.7620  219.7440 C   0  0  0  0  0  0  0  0  0  0  0  0
  143.5471   76.9592  220.2700 H   0  0  0  0  0  0  0  0  0  0  0  0
  144.1943   76.2139  218.7692 H   0  0  0  0  0  0  0  0  0  0  0  0
  142.5600   76.9593  218.7692 H   0  0  0  0  0  0  0  0  0  0  0  0
  142.0323   74.8743  218.9080 H   0  0  0  0  0  0  0  0  0  0  0  0
  142.2700   75.3850  221.8790 H   0  0  0  0  0  0  0  0  0  0  0  0
  139.8874   75.2262  222.7340 H   0  0  0  0  0  0  0  0  0  0  0  0
  138.6336   74.7432  221.4535 H   0  0  0  0  0  0  0  0  0  0  0  0
  138.4880   73.0710  223.0220 H   0  0  0  0  0  0  0  0  0  0  0  0
  139.0861   69.9997  221.5549 H   0  0  0  0  0  0  0  0  0  0  0  0
  138.8043   67.7565  225.2212 H   0  0  0  0  0  0  0  0  0  0  0  0
  139.6553   68.6521  227.2258 H   0  0  0  0  0  0  0  0  0  0  0  0
  140.7757   70.4782  228.4735 H   0  0  0  0  0  0  0  0  0  0  0  0
  141.4864   72.5145  227.2998 H   0  0  0  0  0  0  0  0  0  0  0  0
  141.0971   72.7878  224.8448 H   0  0  0  0  0  0  0  0  0  0  0  0
  145.1057   75.7061  220.6832 H   0  0  0  0  0  0  0  0  0  0  0  0
  147.0565   74.1722  221.0843 H   0  0  0  0  0  0  0  0  0  0  0  0
  146.7903   71.7457  220.6093 H   0  0  0  0  0  0  0  0  0  0  0  0
  144.6468   70.8367  219.7646 H   0  0  0  0  0  0  0  0  0  0  0  0
  142.6954   72.3672  219.3710 H   0  0  0  0  0  0  0  0  0  0  0  0
  1  2  1  0
  2  3  1  0
  3  4  1  0
  4  5  2  0
  4  6  1  0
  6  7  1  0
  7  8  1  0
  8  9  2  0
  8 10  1  0
 10 11  2  0
 11 12  1  0
 12 13  1  0
 12 14  2  0
 14 15  1  0
 15 16  2  0
 16 17  1  0
 17 18  2  0
 18 19  1  0
 19 20  2  0
  2 21  1  0
 21 22  2  0
 22 23  1  0
 23 24  2  0
 24 25  1  0
 25 26  2  0
 20 10  1  0
 26 21  1  0
 20 15  1  0
  1 27  1  0
  1 28  1  0
  1 29  1  0
  2 30  1  6
  3 31  1  0
  6 32  1  0
  6 33  1  0
  7 34  1  0
 11 35  1  0
 14 36  1  0
 16 37  1  0
 17 38  1  0
 18 39  1  0
 19 40  1  0
 22 41  1  0
 23 42  1  0
 24 43  1  0
 25 44  1  0
 26 45  1  0
M  END
>  <smiles>  (4) 
C[C@H](NC(=O)CNC(=O)c1cc(Cl)cc2ccccc12)c1ccccc1

>  <score_type>  (4) 
oracle

>  <origin>  (4) 
autodockgpu

>  <m_score__min__energy>  (4) 
-8.7300000000000004

>  <m_primary>  (4) 
energy

>  <rmsd>  (4) 
7.642756593724539

>  <m_score__min__rmsd>  (4) 
7.642756593724539

>  <meeko>  (4) 
{"free_energy": -8.23, "intermolecular_energy": -9.72, "internal_energy": -1.29, "cluster_size": 11, "cluster_id": 3, "rank_in_cluster": 1}

>  <energy>  (4) 
-8.65

>  <cluster_rmsd>  (4) 
0.1

>  <cluster>  (4) 
1

$$$$

     RDKit          3D

 45 47  0  0  0  0  0  0  0  0999 V2000
  143.3150   76.4450  218.8750 C   0  0  0  0  0  0  0  0  0  0  0  0
  142.7180   75.2280  219.4330 C   0  0  2  0  0  0  0  0  0  0  0  0
  141.9570   75.3760  220.6550 N   0  0  0  0  0  0  0  0  0  0  0  0
  140.7770   74.6250  220.7820 C   0  0  0  0  0  0  0  0  0  0  0  0
  140.4950   73.8590  219.7880 O   0  0  0  0  0  0  0  0  0  0  0  0
  139.8390   74.6050  221.8970 C   0  0  0  0  0  0  0  0  0  0  0  0
  139.5690   73.3360  222.4990 N   0  0  0  0  0  0  0  0  0  0  0  0
  140.4190   72.2110  222.5310 C   0  0  0  0  0  0  0  0  0  0  0  0
  141.5510   72.2130  222.0030 O   0  0  0  0  0  0  0  0  0  0  0  0
  139.8820   71.0200  223.2370 C   0  0  0  0  0  0  0  0  0  0  0  0
  139.1810   70.0350  222.5850 C   0  0  0  0  0  0  0  0  0  0  0  0
  138.7020   68.9240  223.2650 C   0  0  0  0  0  0  0  0  0  0  0  0
  137.8060   67.6910  222.3740 Cl  0  0  0  0  0  0  0  0  0  0  0  0
  138.9230   68.7870  224.6230 C   0  0  0  0  0  0  0  0  0  0  0  0
  139.6250   69.7710  225.2770 C   0  0  0  0  0  0  0  0  0  0  0  0
  139.8420   69.6260  226.6490 C   0  0  0  0  0  0  0  0  0  0  0  0
  140.5360   70.5910  227.3440 C   0  0  0  0  0  0  0  0  0  0  0  0
  141.0130   71.6920  226.6890 C   0  0  0  0  0  0  0  0  0  0  0  0
  140.8140   71.8680  225.3140 C   0  0  0  0  0  0  0  0  0  0  0  0
  140.1070   70.8830  224.6080 C   0  0  0  0  0  0  0  0  0  0  0  0
  143.8170   74.2420  219.7890 C   0  0  0  0  0  0  0  0  0  0  0  0
  144.9220   74.7840  220.4690 C   0  0  0  0  0  0  0  0  0  0  0  0
  145.9940   73.9560  220.8020 C   0  0  0  0  0  0  0  0  0  0  0  0
  145.9290   72.6190  220.4450 C   0  0  0  0  0  0  0  0  0  0  0  0
  144.8280   72.0970  219.7730 C   0  0  0  0  0  0  0  0  0  0  0  0
  143.7510   72.9230  219.4390 C   0  0  0  0  0  0  0  0  0  0  0  0
  143.6382   77.1038  219.6944 H   0  0  0  0  0  0  0  0  0  0  0  0
  144.1838   76.1766  218.2559 H   0  0  0  0  0  0  0  0  0  0  0  0
  142.5710   76.9678  218.2559 H   0  0  0  0  0  0  0  0  0  0  0  0
  142.0293   74.9055  218.6382 H   0  0  0  0  0  0  0  0  0  0  0  0
  142.2300   76.0020  221.4210 H   0  0  0  0  0  0  0  0  0  0  0  0
  140.2413   75.2644  222.6802 H   0  0  0  0  0  0  0  0  0  0  0  0
  138.8788   74.9257  221.4667 H   0  0  0  0  0  0  0  0  0  0  0  0
  138.6270   73.2370  222.9800 H   0  0  0  0  0  0  0  0  0  0  0  0
  138.9960   70.1284  221.5047 H   0  0  0  0  0  0  0  0  0  0  0  0
  138.5452   67.9095  225.1681 H   0  0  0  0  0  0  0  0  0  0  0  0
  139.4579   68.7396  227.1751 H   0  0  0  0  0  0  0  0  0  0  0  0
  140.7063   70.4762  228.4246 H   0  0  0  0  0  0  0  0  0  0  0  0
  141.5655   72.4568  227.2546 H   0  0  0  0  0  0  0  0  0  0  0  0
  141.2033   72.7586  224.7990 H   0  0  0  0  0  0  0  0  0  0  0  0
  144.9409   75.8510  220.7358 H   0  0  0  0  0  0  0  0  0  0  0  0
  146.8696   74.3549  221.3351 H   0  0  0  0  0  0  0  0  0  0  0  0
  146.7678   71.9542  220.6988 H   0  0  0  0  0  0  0  0  0  0  0  0
  144.8051   71.0307  219.5037 H   0  0  0  0  0  0  0  0  0  0  0  0
  142.8745   72.5221  218.9089 H   0  0  0  0  0  0  0  0  0  0  0  0
  1  2  1  0
  2  3  1  0
  3  4  1  0
  4  5  2  0
  4  6  1  0
  6  7  1  0
  7  8  1  0
  8  9  2  0
  8 10  1  0
 10 11  2  0
 11 12  1  0
 12 13  1  0
 12 14  2  0
 14 15  1  0
 15 16  2  0
 16 17  1  0
 17 18  2  0
 18 19  1  0
 19 20  2  0
  2 21  1  0
 21 22  2  0
 22 23  1  0
 23 24  2  0
 24 25  1  0
 25 26  2  0
 20 10  1  0
 26 21  1  0
 20 15  1  0
  1 27  1  0
  1 28  1  0
  1 29  1  0
  2 30  1  6
  3 31  1  0
  6 32  1  0
  6 33  1  0
  7 34  1  0
 11 35  1  0
 14 36  1  0
 16 37  1  0
 17 38  1  0
 18 39  1  0
 19 40  1  0
 22 41  1  0
 23 42  1  0
 24 43  1  0
 25 44  1  0
 26 45  1  0
M  END
>  <smiles>  (5) 
C[C@H](NC(=O)CNC(=O)c1cc(Cl)cc2ccccc12)c1ccccc1

>  <score_type>  (5) 
oracle

>  <origin>  (5) 
autodockgpu

>  <m_score__min__energy>  (5) 
-8.7300000000000004

>  <m_primary>  (5) 
energy

>  <rmsd>  (5) 
7.588566784251469

>  <m_score__min__rmsd>  (5) 
7.588566784251469

>  <meeko>  (5) 
{"free_energy": -8.2, "intermolecular_energy": -9.69, "internal_energy": -1.27, "cluster_size": 11, "cluster_id": 3, "rank_in_cluster": 3}

>  <energy>  (5) 
-8.62

>  <cluster_rmsd>  (5) 
0.14

>  <cluster>  (5) 
1

$$$$

     RDKit          3D

 45 47  0  0  0  0  0  0  0  0999 V2000
  141.7690   78.4140  223.8770 C   0  0  0  0  0  0  0  0  0  0  0  0
  140.9690   78.0850  222.6930 C   0  0  2  0  0  0  0  0  0  0  0  0
  141.2630   76.8300  222.0360 N   0  0  0  0  0  0  0  0  0  0  0  0
  140.2810   75.8260  222.0790 C   0  0  0  0  0  0  0  0  0  0  0  0
  139.1960   76.1360  222.6980 O   0  0  0  0  0  0  0  0  0  0  0  0
  140.3370   74.4860  221.5100 C   0  0  0  0  0  0  0  0  0  0  0  0
  139.7900   73.4220  222.2930 N   0  0  0  0  0  0  0  0  0  0  0  0
  140.3600   72.1520  222.5180 C   0  0  0  0  0  0  0  0  0  0  0  0
  141.4550   71.8120  222.0240 O   0  0  0  0  0  0  0  0  0  0  0  0
  139.5720   71.2390  223.3870 C   0  0  0  0  0  0  0  0  0  0  0  0
  138.4700   70.5600  222.9280 C   0  0  0  0  0  0  0  0  0  0  0  0
  137.7590   69.7020  223.7570 C   0  0  0  0  0  0  0  0  0  0  0  0
  136.3500   68.8570  223.1110 Cl  0  0  0  0  0  0  0  0  0  0  0  0
  138.1510   69.5140  225.0690 C   0  0  0  0  0  0  0  0  0  0  0  0
  139.2540   70.1920  225.5290 C   0  0  0  0  0  0  0  0  0  0  0  0
  139.6400   69.9980  226.8570 C   0  0  0  0  0  0  0  0  0  0  0  0
  140.7370   70.6630  227.3610 C   0  0  0  0  0  0  0  0  0  0  0  0
  141.4470   71.5120  226.5590 C   0  0  0  0  0  0  0  0  0  0  0  0
  141.0860   71.7280  225.2230 C   0  0  0  0  0  0  0  0  0  0  0  0
  139.9690   71.0500  224.7120 C   0  0  0  0  0  0  0  0  0  0  0  0
  141.1960   79.1350  221.6200 C   0  0  0  0  0  0  0  0  0  0  0  0
  141.4890   78.6400  220.3380 C   0  0  0  0  0  0  0  0  0  0  0  0
  141.7480   79.5350  219.2990 C   0  0  0  0  0  0  0  0  0  0  0  0
  141.7080   80.8920  219.5760 C   0  0  0  0  0  0  0  0  0  0  0  0
  141.4150   81.3680  220.8510 C   0  0  0  0  0  0  0  0  0  0  0  0
  141.1520   80.4730  221.8920 C   0  0  0  0  0  0  0  0  0  0  0  0
  141.1946   78.1778  224.7849 H   0  0  0  0  0  0  0  0  0  0  0  0
  142.6979   77.8249  223.8672 H   0  0  0  0  0  0  0  0  0  0  0  0
  142.0147   79.4862  223.8672 H   0  0  0  0  0  0  0  0  0  0  0  0
  139.9466   78.0298  223.0951 H   0  0  0  0  0  0  0  0  0  0  0  0
  142.1470   76.6350  221.5520 H   0  0  0  0  0  0  0  0  0  0  0  0
  139.7918   74.5086  220.5549 H   0  0  0  0  0  0  0  0  0  0  0  0
  141.4097   74.2564  221.4282 H   0  0  0  0  0  0  0  0  0  0  0  0
  138.8560   73.6170  222.7610 H   0  0  0  0  0  0  0  0  0  0  0  0
  138.1450   70.6980  221.8862 H   0  0  0  0  0  0  0  0  0  0  0  0
  137.5919   68.8361  225.7307 H   0  0  0  0  0  0  0  0  0  0  0  0
  139.0681   69.3140  227.5013 H   0  0  0  0  0  0  0  0  0  0  0  0
  141.0407   70.5107  228.4072 H   0  0  0  0  0  0  0  0  0  0  0  0
  142.3210   72.0371  226.9718 H   0  0  0  0  0  0  0  0  0  0  0  0
  141.6657   72.4143  224.5882 H   0  0  0  0  0  0  0  0  0  0  0  0
  141.5140   77.5557  220.1548 H   0  0  0  0  0  0  0  0  0  0  0  0
  141.9780   79.1725  218.2862 H   0  0  0  0  0  0  0  0  0  0  0  0
  141.9127   81.6107  218.7688 H   0  0  0  0  0  0  0  0  0  0  0  0
  141.3904   82.4514  221.0397 H   0  0  0  0  0  0  0  0  0  0  0  0
  140.9159   80.8363  222.9031 H   0  0  0  0  0  0  0  0  0  0  0  0
  1  2  1  0
  2  3  1  0
  3  4  1  0
  4  5  2  0
  4  6  1  0
  6  7  1  0
  7  8  1  0
  8  9  2  0
  8 10  1  0
 10 11  2  0
 11 12  1  0
 12 13  1  0
 12 14  2  0
 14 15  1  0
 15 16  2  0
 16 17  1  0
 17 18  2  0
 18 19  1  0
 19 20  2  0
  2 21  1  0
 21 22  2  0
 22 23  1  0
 23 24  2  0
 24 25  1  0
 25 26  2  0
 20 10  1  0
 26 21  1  0
 20 15  1  0
  1 27  1  0
  1 28  1  0
  1 29  1  0
  2 30  1  1
  3 31  1  0
  6 32  1  0
  6 33  1  0
  7 34  1  0
 11 35  1  0
 14 36  1  0
 16 37  1  0
 17 38  1  0
 18 39  1  0
 19 40  1  0
 22 41  1  0
 23 42  1  0
 24 43  1  0
 25 44  1  0
 26 45  1  0
M  END
>  <smiles>  (6) 
C[C@H](NC(=O)CNC(=O)c1cc(Cl)cc2ccccc12)c1ccccc1

>  <score_type>  (6) 
oracle

>  <origin>  (6) 
autodockgpu

>  <m_score__min__energy>  (6) 
-8.7300000000000004

>  <m_primary>  (6) 
energy

>  <rmsd>  (6) 
4.181285831693643

>  <m_score__min__rmsd>  (6) 
4.181285831693643

>  <meeko>  (6) 
{"free_energy": -8.14, "intermolecular_energy": -9.64, "internal_energy": -1.17, "cluster_size": 20, "cluster_id": 1, "rank_in_cluster": 16}

>  <energy>  (6) 
-8.55

>  <cluster_rmsd>  (6) 
0.54

>  <cluster>  (6) 
1

$$$$

     RDKit          3D

 45 47  0  0  0  0  0  0  0  0999 V2000
  141.5370   78.4890  223.7210 C   0  0  0  0  0  0  0  0  0  0  0  0
  140.9000   78.1130  222.4550 C   0  0  2  0  0  0  0  0  0  0  0  0
  141.2910   76.8450  221.8790 N   0  0  0  0  0  0  0  0  0  0  0  0
  140.4130   75.7600  222.0350 C   0  0  0  0  0  0  0  0  0  0  0  0
  139.3250   76.0130  222.6730 O   0  0  0  0  0  0  0  0  0  0  0  0
  140.5790   74.3910  221.5630 C   0  0  0  0  0  0  0  0  0  0  0  0
  139.9680   73.3560  222.3370 N   0  0  0  0  0  0  0  0  0  0  0  0
  140.4150   72.0270  222.4840 C   0  0  0  0  0  0  0  0  0  0  0  0
  141.4430   71.6000  221.9170 O   0  0  0  0  0  0  0  0  0  0  0  0
  139.5840   71.1630  223.3620 C   0  0  0  0  0  0  0  0  0  0  0  0
  138.4640   70.5130  222.9040 C   0  0  0  0  0  0  0  0  0  0  0  0
  137.7130   69.7000  223.7410 C   0  0  0  0  0  0  0  0  0  0  0  0
  136.2820   68.8920  223.0950 Cl  0  0  0  0  0  0  0  0  0  0  0  0
  138.0800   69.5280  225.0630 C   0  0  0  0  0  0  0  0  0  0  0  0
  139.2010   70.1770  225.5220 C   0  0  0  0  0  0  0  0  0  0  0  0
  139.5630   69.9990  226.8590 C   0  0  0  0  0  0  0  0  0  0  0  0
  140.6760   70.6350  227.3630 C   0  0  0  0  0  0  0  0  0  0  0  0
  141.4270   71.4400  226.5520 C   0  0  0  0  0  0  0  0  0  0  0  0
  141.0910   71.6390  225.2070 C   0  0  0  0  0  0  0  0  0  0  0  0
  139.9570   70.9890  224.6960 C   0  0  0  0  0  0  0  0  0  0  0  0
  141.2490   79.1360  221.3890 C   0  0  0  0  0  0  0  0  0  0  0  0
  141.2050   80.4800  221.7990 C   0  0  0  0  0  0  0  0  0  0  0  0
  141.4750   81.4880  220.8730 C   0  0  0  0  0  0  0  0  0  0  0  0
  141.7780   81.1220  219.5710 C   0  0  0  0  0  0  0  0  0  0  0  0
  141.8190   79.7870  219.1800 C   0  0  0  0  0  0  0  0  0  0  0  0
  141.5500   78.7740  220.1060 C   0  0  0  0  0  0  0  0  0  0  0  0
  140.9252   78.1279  224.5608 H   0  0  0  0  0  0  0  0  0  0  0  0
  142.5384   78.0372  223.7760 H   0  0  0  0  0  0  0  0  0  0  0  0
  141.6253   79.5841  223.7760 H   0  0  0  0  0  0  0  0  0  0  0  0
  139.8354   78.0518  222.7249 H   0  0  0  0  0  0  0  0  0  0  0  0
  142.1730   76.6980  221.3760 H   0  0  0  0  0  0  0  0  0  0  0  0
  140.1588   74.3374  220.5479 H   0  0  0  0  0  0  0  0  0  0  0  0
  141.6595   74.1961  221.6304 H   0  0  0  0  0  0  0  0  0  0  0  0
  139.0840   73.6240  222.8630 H   0  0  0  0  0  0  0  0  0  0  0  0
  138.1570   70.6392  221.8553 H   0  0  0  0  0  0  0  0  0  0  0  0
  137.4881   68.8862  225.7321 H   0  0  0  0  0  0  0  0  0  0  0  0
  138.9588   69.3503  227.5102 H   0  0  0  0  0  0  0  0  0  0  0  0
  140.9603   70.4955  228.4164 H   0  0  0  0  0  0  0  0  0  0  0  0
  142.3143   71.9422  226.9649 H   0  0  0  0  0  0  0  0  0  0  0  0
  141.7025   72.2904  224.5653 H   0  0  0  0  0  0  0  0  0  0  0  0
  140.9599   80.7346  222.8407 H   0  0  0  0  0  0  0  0  0  0  0  0
  141.4481   82.5471  221.1689 H   0  0  0  0  0  0  0  0  0  0  0  0
  141.9912   81.9055  218.8289 H   0  0  0  0  0  0  0  0  0  0  0  0
  142.0637   79.5277  218.1394 H   0  0  0  0  0  0  0  0  0  0  0  0
  141.5799   77.7151  219.8098 H   0  0  0  0  0  0  0  0  0  0  0  0
  1  2  1  0
  2  3  1  0
  3  4  1  0
  4  5  2  0
  4  6  1  0
  6  7  1  0
  7  8  1  0
  8  9  2  0
  8 10  1  0
 10 11  2  0
 11 12  1  0
 12 13  1  0
 12 14  2  0
 14 15  1  0
 15 16  2  0
 16 17  1  0
 17 18  2  0
 18 19  1  0
 19 20  2  0
  2 21  1  0
 21 22  2  0
 22 23  1  0
 23 24  2  0
 24 25  1  0
 25 26  2  0
 20 10  1  0
 26 21  1  0
 20 15  1  0
  1 27  1  0
  1 28  1  0
  1 29  1  0
  2 30  1  1
  3 31  1  0
  6 32  1  0
  6 33  1  0
  7 34  1  0
 11 35  1  0
 14 36  1  0
 16 37  1  0
 17 38  1  0
 18 39  1  0
 19 40  1  0
 22 41  1  0
 23 42  1  0
 24 43  1  0
 25 44  1  0
 26 45  1  0
M  END
>  <smiles>  (7) 
C[C@H](NC(=O)CNC(=O)c1cc(Cl)cc2ccccc12)c1ccccc1

>  <score_type>  (7) 
oracle

>  <origin>  (7) 
autodockgpu

>  <m_score__min__energy>  (7) 
-8.7300000000000004

>  <m_primary>  (7) 
energy

>  <rmsd>  (7) 
4.042385560251101

>  <m_score__min__rmsd>  (7) 
4.042385560251101

>  <meeko>  (7) 
{"free_energy": -8.07, "intermolecular_energy": -9.57, "internal_energy": -1.28, "cluster_size": 20, "cluster_id": 1, "rank_in_cluster": 18}

>  <energy>  (7) 
-8.54

>  <cluster_rmsd>  (7) 
0.53

>  <cluster>  (7) 
1

$$$$

     RDKit          3D

 45 47  0  0  0  0  0  0  0  0999 V2000
  141.4880   78.5270  223.5990 C   0  0  0  0  0  0  0  0  0  0  0  0
  140.9030   78.1210  222.3170 C   0  0  2  0  0  0  0  0  0  0  0  0
  141.3400   76.8530  221.7740 N   0  0  0  0  0  0  0  0  0  0  0  0
  140.5380   75.7270  222.0230 C   0  0  0  0  0  0  0  0  0  0  0  0
  139.4720   75.9450  222.7100 O   0  0  0  0  0  0  0  0  0  0  0  0
  140.7620   74.3500  221.6010 C   0  0  0  0  0  0  0  0  0  0  0  0
  140.1050   73.3240  222.3490 N   0  0  0  0  0  0  0  0  0  0  0  0
  140.4930   71.9730  222.4630 C   0  0  0  0  0  0  0  0  0  0  0  0
  141.5020   71.5160  221.8860 O   0  0  0  0  0  0  0  0  0  0  0  0
  139.6250   71.1250  223.3200 C   0  0  0  0  0  0  0  0  0  0  0  0
  138.4910   70.5170  222.8390 C   0  0  0  0  0  0  0  0  0  0  0  0
  137.7040   69.7180  223.6570 C   0  0  0  0  0  0  0  0  0  0  0  0
  136.2560   68.9630  222.9830 Cl  0  0  0  0  0  0  0  0  0  0  0  0
  138.0490   69.5180  224.9810 C   0  0  0  0  0  0  0  0  0  0  0  0
  139.1840   70.1250  225.4620 C   0  0  0  0  0  0  0  0  0  0  0  0
  139.5230   69.9190  226.8010 C   0  0  0  0  0  0  0  0  0  0  0  0
  140.6500   70.5130  227.3270 C   0  0  0  0  0  0  0  0  0  0  0  0
  141.4350   71.3040  226.5350 C   0  0  0  0  0  0  0  0  0  0  0  0
  141.1230   71.5300  225.1890 C   0  0  0  0  0  0  0  0  0  0  0  0
  139.9750   70.9230  224.6560 C   0  0  0  0  0  0  0  0  0  0  0  0
  141.2700   79.1360  221.2490 C   0  0  0  0  0  0  0  0  0  0  0  0
  141.1660   80.4850  221.6310 C   0  0  0  0  0  0  0  0  0  0  0  0
  141.4490   81.4850  220.7000 C   0  0  0  0  0  0  0  0  0  0  0  0
  141.8230   81.1060  219.4210 C   0  0  0  0  0  0  0  0  0  0  0  0
  141.9230   79.7660  219.0570 C   0  0  0  0  0  0  0  0  0  0  0  0
  141.6420   78.7620  219.9880 C   0  0  0  0  0  0  0  0  0  0  0  0
  140.8895   78.1116  224.4231 H   0  0  0  0  0  0  0  0  0  0  0  0
  142.5188   78.1491  223.6677 H   0  0  0  0  0  0  0  0  0  0  0  0
  141.4946   79.6248  223.6677 H   0  0  0  0  0  0  0  0  0  0  0  0
  139.8307   78.0425  222.5496 H   0  0  0  0  0  0  0  0  0  0  0  0
  142.2010   76.7350  221.2290 H   0  0  0  0  0  0  0  0  0  0  0  0
  140.4268   74.2649  220.5568 H   0  0  0  0  0  0  0  0  0  0  0  0
  141.8361   74.1748  221.7608 H   0  0  0  0  0  0  0  0  0  0  0  0
  139.2330   73.6180  222.8820 H   0  0  0  0  0  0  0  0  0  0  0  0
  138.2018   70.6658  221.7882 H   0  0  0  0  0  0  0  0  0  0  0  0
  137.4287   68.8871  225.6346 H   0  0  0  0  0  0  0  0  0  0  0  0
  138.8900   69.2821  227.4364 H   0  0  0  0  0  0  0  0  0  0  0  0
  140.9173   70.3510  228.3817 H   0  0  0  0  0  0  0  0  0  0  0  0
  142.3320   71.7735  226.9650 H   0  0  0  0  0  0  0  0  0  0  0  0
  141.7632   72.1690  224.5631 H   0  0  0  0  0  0  0  0  0  0  0  0
  140.8641   80.7498  222.6551 H   0  0  0  0  0  0  0  0  0  0  0  0
  141.3770   82.5477  220.9747 H   0  0  0  0  0  0  0  0  0  0  0  0
  142.0464   81.8828  218.6749 H   0  0  0  0  0  0  0  0  0  0  0  0
  142.2240   79.4966  218.0339 H   0  0  0  0  0  0  0  0  0  0  0  0
  141.7182   77.6996  219.7133 H   0  0  0  0  0  0  0  0  0  0  0  0
  1  2  1  0
  2  3  1  0
  3  4  1  0
  4  5  2  0
  4  6  1  0
  6  7  1  0
  7  8  1  0
  8  9  2  0
  8 10  1  0
 10 11  2  0
 11 12  1  0
 12 13  1  0
 12 14  2  0
 14 15  1  0
 15 16  2  0
 16 17  1  0
 17 18  2  0
 18 19  1  0
 19 20  2  0
  2 21  1  0
 21 22  2  0
 22 23  1  0
 23 24  2  0
 24 25  1  0
 25 26  2  0
 20 10  1  0
 26 21  1  0
 20 15  1  0
  1 27  1  0
  1 28  1  0
  1 29  1  0
  2 30  1  1
  3 31  1  0
  6 32  1  0
  6 33  1  0
  7 34  1  0
 11 35  1  0
 14 36  1  0
 16 37  1  0
 17 38  1  0
 18 39  1  0
 19 40  1  0
 22 41  1  0
 23 42  1  0
 24 43  1  0
 25 44  1  0
 26 45  1  0
M  END
>  <smiles>  (8) 
C[C@H](NC(=O)CNC(=O)c1cc(Cl)cc2ccccc12)c1ccccc1

>  <score_type>  (8) 
oracle

>  <origin>  (8) 
autodockgpu

>  <m_score__min__energy>  (8) 
-8.7300000000000004

>  <m_primary>  (8) 
energy

>  <rmsd>  (8) 
4.046651702217398

>  <m_score__min__rmsd>  (8) 
4.046651702217398

>  <meeko>  (8) 
{"free_energy": -7.99, "intermolecular_energy": -9.48, "internal_energy": -1.33, "cluster_size": 20, "cluster_id": 1, "rank_in_cluster": 20}

>  <energy>  (8) 
-8.54

>  <cluster_rmsd>  (8) 
0.58

>  <cluster>  (8) 
1

$$$$

     RDKit          3D

 45 47  0  0  0  0  0  0  0  0999 V2000
  138.7810   77.9650  222.9070 C   0  0  0  0  0  0  0  0  0  0  0  0
  139.9420   78.0480  222.0150 C   0  0  2  0  0  0  0  0  0  0  0  0
  140.7750   76.8690  221.9180 N   0  0  0  0  0  0  0  0  0  0  0  0
  140.1340   75.6320  221.7330 C   0  0  0  0  0  0  0  0  0  0  0  0
  138.8510   75.6770  221.6530 O   0  0  0  0  0  0  0  0  0  0  0  0
  140.7410   74.3120  221.6170 C   0  0  0  0  0  0  0  0  0  0  0  0
  140.1220   73.2450  222.3420 N   0  0  0  0  0  0  0  0  0  0  0  0
  140.5870   71.9200  222.4660 C   0  0  0  0  0  0  0  0  0  0  0  0
  141.6400   71.5260  221.9220 O   0  0  0  0  0  0  0  0  0  0  0  0
  139.7430   71.0180  223.2920 C   0  0  0  0  0  0  0  0  0  0  0  0
  138.7010   70.2990  222.7600 C   0  0  0  0  0  0  0  0  0  0  0  0
  137.9360   69.4520  223.5510 C   0  0  0  0  0  0  0  0  0  0  0  0
  136.6070   68.5550  222.8110 Cl  0  0  0  0  0  0  0  0  0  0  0  0
  138.2120   69.3160  224.8990 C   0  0  0  0  0  0  0  0  0  0  0  0
  139.2550   70.0340  225.4320 C   0  0  0  0  0  0  0  0  0  0  0  0
  139.5250   69.8910  226.7940 C   0  0  0  0  0  0  0  0  0  0  0  0
  140.5580   70.5970  227.3710 C   0  0  0  0  0  0  0  0  0  0  0  0
  141.3200   71.4360  226.6070 C   0  0  0  0  0  0  0  0  0  0  0  0
  141.0760   71.6000  225.2370 C   0  0  0  0  0  0  0  0  0  0  0  0
  140.0240   70.8810  224.6530 C   0  0  0  0  0  0  0  0  0  0  0  0
  140.8820   79.1340  222.5060 C   0  0  0  0  0  0  0  0  0  0  0  0
  140.8400   80.3430  221.7890 C   0  0  0  0  0  0  0  0  0  0  0  0
  141.6970   81.3840  222.1480 C   0  0  0  0  0  0  0  0  0  0  0  0
  142.5670   81.1830  223.2080 C   0  0  0  0  0  0  0  0  0  0  0  0
  142.5960   79.9810  223.9090 C   0  0  0  0  0  0  0  0  0  0  0  0
  141.7370   78.9370  223.5530 C   0  0  0  0  0  0  0  0  0  0  0  0
  139.1199   77.9892  223.9532 H   0  0  0  0  0  0  0  0  0  0  0  0
  138.1121   78.8176  222.7184 H   0  0  0  0  0  0  0  0  0  0  0  0
  138.2401   77.0259  222.7184 H   0  0  0  0  0  0  0  0  0  0  0  0
  139.4831   78.2255  221.0312 H   0  0  0  0  0  0  0  0  0  0  0  0
  141.7980   76.8890  221.9860 H   0  0  0  0  0  0  0  0  0  0  0  0
  140.7348   74.0366  220.5520 H   0  0  0  0  0  0  0  0  0  0  0  0
  141.7407   74.4177  222.0636 H   0  0  0  0  0  0  0  0  0  0  0  0
  139.2180   73.4840  222.8450 H   0  0  0  0  0  0  0  0  0  0  0  0
  138.4684   70.3956  221.6892 H   0  0  0  0  0  0  0  0  0  0  0  0
  137.6094   68.6472  225.5311 H   0  0  0  0  0  0  0  0  0  0  0  0
  138.9124   69.2139  227.4074 H   0  0  0  0  0  0  0  0  0  0  0  0
  140.7691   70.4856  228.4448 H   0  0  0  0  0  0  0  0  0  0  0  0
  142.1425   71.9945  227.0778 H   0  0  0  0  0  0  0  0  0  0  0  0
  141.6965   72.2783  224.6329 H   0  0  0  0  0  0  0  0  0  0  0  0
  140.1372   80.4671  220.9519 H   0  0  0  0  0  0  0  0  0  0  0  0
  141.6825   82.3397  221.6036 H   0  0  0  0  0  0  0  0  0  0  0  0
  143.2509   81.9928  223.5023 H   0  0  0  0  0  0  0  0  0  0  0  0
  143.2975   79.8519  224.7464 H   0  0  0  0  0  0  0  0  0  0  0  0
  141.7493   77.9832  224.1009 H   0  0  0  0  0  0  0  0  0  0  0  0
  1  2  1  0
  2  3  1  0
  3  4  1  0
  4  5  2  0
  4  6  1  0
  6  7  1  0
  7  8  1  0
  8  9  2  0
  8 10  1  0
 10 11  2  0
 11 12  1  0
 12 13  1  0
 12 14  2  0
 14 15  1  0
 15 16  2  0
 16 17  1  0
 17 18  2  0
 18 19  1  0
 19 20  2  0
  2 21  1  0
 21 22  2  0
 22 23  1  0
 23 24  2  0
 24 25  1  0
 25 26  2  0
 20 10  1  0
 26 21  1  0
 20 15  1  0
  1 27  1  0
  1 28  1  0
  1 29  1  0
  2 30  1  6
  3 31  1  0
  6 32  1  0
  6 33  1  0
  7 34  1  0
 11 35  1  0
 14 36  1  0
 16 37  1  0
 17 38  1  0
 18 39  1  0
 19 40  1  0
 22 41  1  0
 23 42  1  0
 24 43  1  0
 25 44  1  0
 26 45  1  0
M  END
>  <smiles>  (9) 
C[C@H](NC(=O)CNC(=O)c1cc(Cl)cc2ccccc12)c1ccccc1

>  <score_type>  (9) 
oracle

>  <origin>  (9) 
autodockgpu

>  <m_score__min__energy>  (9) 
-8.7300000000000004

>  <m_primary>  (9) 
energy

>  <rmsd>  (9) 
4.761706551053663

>  <m_score__min__rmsd>  (9) 
4.761706551053663

>  <meeko>  (9) 
{"free_energy": -8.54, "intermolecular_energy": -10.03, "internal_energy": -0.9, "cluster_size": 20, "cluster_id": 1, "rank_in_cluster": 8}

>  <energy>  (9) 
-8.52

>  <cluster_rmsd>  (9) 
0.57

>  <cluster>  (9) 
1

$$$$

     RDKit          3D

 45 47  0  0  0  0  0  0  0  0999 V2000
  143.3370   76.3440  219.0710 C   0  0  0  0  0  0  0  0  0  0  0  0
  142.7490   75.0970  219.5700 C   0  0  2  0  0  0  0  0  0  0  0  0
  142.0020   75.1780  220.8070 N   0  0  0  0  0  0  0  0  0  0  0  0
  140.7540   74.5370  220.8560 C   0  0  0  0  0  0  0  0  0  0  0  0
  140.4020   73.9210  219.7820 O   0  0  0  0  0  0  0  0  0  0  0  0
  139.8130   74.4800  221.9680 C   0  0  0  0  0  0  0  0  0  0  0  0
  139.5860   73.2010  222.5650 N   0  0  0  0  0  0  0  0  0  0  0  0
  140.4560   72.0920  222.5580 C   0  0  0  0  0  0  0  0  0  0  0  0
  141.5700   72.1190  221.9940 O   0  0  0  0  0  0  0  0  0  0  0  0
  139.9640   70.8840  223.2690 C   0  0  0  0  0  0  0  0  0  0  0  0
  139.3500   69.8460  222.6130 C   0  0  0  0  0  0  0  0  0  0  0  0
  138.9110   68.7220  223.2990 C   0  0  0  0  0  0  0  0  0  0  0  0
  138.1270   67.4200  222.4020 Cl  0  0  0  0  0  0  0  0  0  0  0  0
  139.0870   68.6260  224.6680 C   0  0  0  0  0  0  0  0  0  0  0  0
  139.7020   69.6630  225.3250 C   0  0  0  0  0  0  0  0  0  0  0  0
  139.8730   69.5580  226.7080 C   0  0  0  0  0  0  0  0  0  0  0  0
  140.4800   70.5780  227.4070 C   0  0  0  0  0  0  0  0  0  0  0  0
  140.9160   71.6920  226.7470 C   0  0  0  0  0  0  0  0  0  0  0  0
  140.7610   71.8280  225.3610 C   0  0  0  0  0  0  0  0  0  0  0  0
  140.1430   70.7880  224.6510 C   0  0  0  0  0  0  0  0  0  0  0  0
  143.8540   74.0970  219.8620 C   0  0  0  0  0  0  0  0  0  0  0  0
  144.9380   74.5900  220.6090 C   0  0  0  0  0  0  0  0  0  0  0  0
  146.0150   73.7490  220.8920 C   0  0  0  0  0  0  0  0  0  0  0  0
  145.9760   72.4480  220.4170 C   0  0  0  0  0  0  0  0  0  0  0  0
  144.8960   71.9740  219.6790 C   0  0  0  0  0  0  0  0  0  0  0  0
  143.8140   72.8130  219.3960 C   0  0  0  0  0  0  0  0  0  0  0  0
  143.6346   76.9751  219.9214 H   0  0  0  0  0  0  0  0  0  0  0  0
  144.2211   76.1132  218.4586 H   0  0  0  0  0  0  0  0  0  0  0  0
  142.5964   76.8793  218.4586 H   0  0  0  0  0  0  0  0  0  0  0  0
  142.0525   74.8151  218.7666 H   0  0  0  0  0  0  0  0  0  0  0  0
  142.3320   75.6820  221.6370 H   0  0  0  0  0  0  0  0  0  0  0  0
  140.1889   75.1507  222.7547 H   0  0  0  0  0  0  0  0  0  0  0  0
  138.8436   74.7677  221.5350 H   0  0  0  0  0  0  0  0  0  0  0  0
  138.6620   73.0800  223.0760 H   0  0  0  0  0  0  0  0  0  0  0  0
  139.2034   69.9061  221.5245 H   0  0  0  0  0  0  0  0  0  0  0  0
  138.7417   67.7382  225.2181 H   0  0  0  0  0  0  0  0  0  0  0  0
  139.5227   68.6604  227.2386 H   0  0  0  0  0  0  0  0  0  0  0  0
  140.6136   70.4957  228.4957 H   0  0  0  0  0  0  0  0  0  0  0  0
  141.3993   72.4998  227.3161 H   0  0  0  0  0  0  0  0  0  0  0  0
  141.1160   72.7302  224.8413 H   0  0  0  0  0  0  0  0  0  0  0  0
  144.9373   75.6300  220.9674 H   0  0  0  0  0  0  0  0  0  0  0  0
  146.8734   74.1099  221.4775 H   0  0  0  0  0  0  0  0  0  0  0  0
  146.8190   71.7738  220.6284 H   0  0  0  0  0  0  0  0  0  0  0  0
  144.8934   70.9353  219.3168 H   0  0  0  0  0  0  0  0  0  0  0  0
  142.9541   72.4495  218.8142 H   0  0  0  0  0  0  0  0  0  0  0  0
  1  2  1  0
  2  3  1  0
  3  4  1  0
  4  5  2  0
  4  6  1  0
  6  7  1  0
  7  8  1  0
  8  9  2  0
  8 10  1  0
 10 11  2  0
 11 12  1  0
 12 13  1  0
 12 14  2  0
 14 15  1  0
 15 16  2  0
 16 17  1  0
 17 18  2  0
 18 19  1  0
 19 20  2  0
  2 21  1  0
 21 22  2  0
 22 23  1  0
 23 24  2  0
 24 25  1  0
 25 26  2  0
 20 10  1  0
 26 21  1  0
 20 15  1  0
  1 27  1  0
  1 28  1  0
  1 29  1  0
  2 30  1  6
  3 31  1  0
  6 32  1  0
  6 33  1  0
  7 34  1  0
 11 35  1  0
 14 36  1  0
 16 37  1  0
 17 38  1  0
 18 39  1  0
 19 40  1  0
 22 41  1  0
 23 42  1  0
 24 43  1  0
 25 44  1  0
 26 45  1  0
M  END
>  <smiles>  (10) 
C[C@H](NC(=O)CNC(=O)c1cc(Cl)cc2ccccc12)c1ccccc1

>  <score_type>  (10) 
oracle

>  <origin>  (10) 
autodockgpu

>  <m_score__min__energy>  (10) 
-8.7300000000000004

>  <m_primary>  (10) 
energy

>  <rmsd>  (10) 
7.676981135980174

>  <m_score__min__rmsd>  (10) 
7.676981135980174

>  <meeko>  (10) 
{"free_energy": -8.22, "intermolecular_energy": -9.71, "internal_energy": -1.26, "cluster_size": 11, "cluster_id": 3, "rank_in_cluster": 2}

>  <energy>  (10) 
-8.5

>  <cluster_rmsd>  (10) 
0.58

>  <cluster>  (10) 
1

$$$$

     RDKit          3D

 45 47  0  0  0  0  0  0  0  0999 V2000
  139.2380   68.1980  225.0720 C   0  0  0  0  0  0  0  0  0  0  0  0
  139.0510   69.6460  224.9300 C   0  0  2  0  0  0  0  0  0  0  0  0
  139.5960   70.2600  223.7390 N   0  0  0  0  0  0  0  0  0  0  0  0
  138.7390   70.4220  222.6380 C   0  0  0  0  0  0  0  0  0  0  0  0
  137.5310   70.0130  222.8090 O   0  0  0  0  0  0  0  0  0  0  0  0
  139.0460   70.9960  221.3340 C   0  0  0  0  0  0  0  0  0  0  0  0
  139.2860   72.4050  221.2820 N   0  0  0  0  0  0  0  0  0  0  0  0
  140.1100   73.1590  222.1430 C   0  0  0  0  0  0  0  0  0  0  0  0
  140.7410   72.6430  223.0890 O   0  0  0  0  0  0  0  0  0  0  0  0
  140.1840   74.6140  221.8500 C   0  0  0  0  0  0  0  0  0  0  0  0
  139.2330   75.5010  222.2930 C   0  0  0  0  0  0  0  0  0  0  0  0
  139.3320   76.8570  222.0180 C   0  0  0  0  0  0  0  0  0  0  0  0
  138.0780   77.9480  222.6140 Cl  0  0  0  0  0  0  0  0  0  0  0  0
  140.3980   77.3460  221.2850 C   0  0  0  0  0  0  0  0  0  0  0  0
  141.3510   76.4600  220.8410 C   0  0  0  0  0  0  0  0  0  0  0  0
  142.4230   76.9620  220.1000 C   0  0  0  0  0  0  0  0  0  0  0  0
  143.3970   76.1090  219.6310 C   0  0  0  0  0  0  0  0  0  0  0  0
  143.3130   74.7700  219.8930 C   0  0  0  0  0  0  0  0  0  0  0  0
  142.2520   74.2350  220.6330 C   0  0  0  0  0  0  0  0  0  0  0  0
  141.2610   75.1060  221.1100 C   0  0  0  0  0  0  0  0  0  0  0  0
  139.7430   70.3620  226.0750 C   0  0  0  0  0  0  0  0  0  0  0  0
  140.4640   71.5170  225.7230 C   0  0  0  0  0  0  0  0  0  0  0  0
  141.1620   72.2160  226.7070 C   0  0  0  0  0  0  0  0  0  0  0  0
  141.1200   71.7400  228.0080 C   0  0  0  0  0  0  0  0  0  0  0  0
  140.4010   70.5960  228.3420 C   0  0  0  0  0  0  0  0  0  0  0  0
  139.6980   69.8940  227.3580 C   0  0  0  0  0  0  0  0  0  0  0  0
  139.2719   67.9356  226.1397 H   0  0  0  0  0  0  0  0  0  0  0  0
  138.4004   67.6712  224.5914 H   0  0  0  0  0  0  0  0  0  0  0  0
  140.1819   67.9013  224.5914 H   0  0  0  0  0  0  0  0  0  0  0  0
  137.9563   69.7495  224.8980 H   0  0  0  0  0  0  0  0  0  0  0  0
  140.5700   70.5720  223.6560 H   0  0  0  0  0  0  0  0  0  0  0  0
  139.9471   70.4923  220.9542 H   0  0  0  0  0  0  0  0  0  0  0  0
  138.1376   70.8400  220.7336 H   0  0  0  0  0  0  0  0  0  0  0  0
  138.7950   72.9360  220.5040 H   0  0  0  0  0  0  0  0  0  0  0  0
  138.3777   75.1292  222.8762 H   0  0  0  0  0  0  0  0  0  0  0  0
  140.4815   78.4200  221.0622 H   0  0  0  0  0  0  0  0  0  0  0  0
  142.4894   78.0399  219.8908 H   0  0  0  0  0  0  0  0  0  0  0  0
  144.2410   76.5043  219.0467 H   0  0  0  0  0  0  0  0  0  0  0  0
  144.0968   74.0978  219.5138 H   0  0  0  0  0  0  0  0  0  0  0  0
  142.1965   73.1553  220.8360 H   0  0  0  0  0  0  0  0  0  0  0  0
  140.4772   71.8661  224.6799 H   0  0  0  0  0  0  0  0  0  0  0  0
  141.7320   73.1230  226.4569 H   0  0  0  0  0  0  0  0  0  0  0  0
  141.6677   72.2790  228.7951 H   0  0  0  0  0  0  0  0  0  0  0  0
  140.3857   70.2429  229.3837 H   0  0  0  0  0  0  0  0  0  0  0  0
  139.1245   68.9898  227.6099 H   0  0  0  0  0  0  0  0  0  0  0  0
  1  2  1  0
  2  3  1  0
  3  4  1  0
  4  5  2  0
  4  6  1  0
  6  7  1  0
  7  8  1  0
  8  9  2  0
  8 10  1  0
 10 11  2  0
 11 12  1  0
 12 13  1  0
 12 14  2  0
 14 15  1  0
 15 16  2  0
 16 17  1  0
 17 18  2  0
 18 19  1  0
 19 20  2  0
  2 21  1  0
 21 22  2  0
 22 23  1  0
 23 24  2  0
 24 25  1  0
 25 26  2  0
 20 10  1  0
 26 21  1  0
 20 15  1  0
  1 27  1  0
  1 28  1  0
  1 29  1  0
  2 30  1  1
  3 31  1  0
  6 32  1  0
  6 33  1  0
  7 34  1  0
 11 35  1  0
 14 36  1  0
 16 37  1  0
 17 38  1  0
 18 39  1  0
 19 40  1  0
 22 41  1  0
 23 42  1  0
 24 43  1  0
 25 44  1  0
 26 45  1  0
M  END
>  <smiles>  (11) 
C[C@H](NC(=O)CNC(=O)c1cc(Cl)cc2ccccc12)c1ccccc1

>  <score_type>  (11) 
oracle

>  <origin>  (11) 
autodockgpu

>  <m_score__min__energy>  (11) 
-8.7300000000000004

>  <m_primary>  (11) 
energy

>  <rmsd>  (11) 
10.241254462782969

>  <m_score__min__rmsd>  (11) 
10.241254462782969

>  <meeko>  (11) 
{"free_energy": -7.3, "intermolecular_energy": -8.79, "internal_energy": -1.81, "cluster_size": 4, "cluster_id": 6, "rank_in_cluster": 4}

>  <energy>  (11) 
-8.49

>  <cluster_rmsd>  (11) 
0.64

>  <cluster>  (11) 
1

$$$$

     RDKit          3D

 45 47  0  0  0  0  0  0  0  0999 V2000
  139.9740   67.6590  225.9280 C   0  0  0  0  0  0  0  0  0  0  0  0
  139.2690   68.9110  225.6350 C   0  0  2  0  0  0  0  0  0  0  0  0
  139.2960   69.3690  224.2630 N   0  0  0  0  0  0  0  0  0  0  0  0
  138.1360   69.9790  223.7570 C   0  0  0  0  0  0  0  0  0  0  0  0
  137.1560   70.0830  224.5840 O   0  0  0  0  0  0  0  0  0  0  0  0
  137.9080   70.5100  222.4190 C   0  0  0  0  0  0  0  0  0  0  0  0
  138.6100   71.7040  222.0620 N   0  0  0  0  0  0  0  0  0  0  0  0
  139.9700   71.9930  222.2960 C   0  0  0  0  0  0  0  0  0  0  0  0
  140.7350   71.1920  222.8730 O   0  0  0  0  0  0  0  0  0  0  0  0
  140.4380   73.3150  221.8080 C   0  0  0  0  0  0  0  0  0  0  0  0
  139.6960   74.4600  221.9650 C   0  0  0  0  0  0  0  0  0  0  0  0
  140.1630   75.6860  221.5120 C   0  0  0  0  0  0  0  0  0  0  0  0
  139.1630   77.1240  221.7420 Cl  0  0  0  0  0  0  0  0  0  0  0  0
  141.3940   75.7790  220.8890 C   0  0  0  0  0  0  0  0  0  0  0  0
  142.1380   74.6350  220.7310 C   0  0  0  0  0  0  0  0  0  0  0  0
  143.3780   74.7370  220.0980 C   0  0  0  0  0  0  0  0  0  0  0  0
  144.1540   73.6140  219.9140 C   0  0  0  0  0  0  0  0  0  0  0  0
  143.7090   72.3990  220.3540 C   0  0  0  0  0  0  0  0  0  0  0  0
  142.4700   72.2620  220.9930 C   0  0  0  0  0  0  0  0  0  0  0  0
  141.6820   73.4070  221.1790 C   0  0  0  0  0  0  0  0  0  0  0  0
  139.9000   70.0440  226.4240 C   0  0  0  0  0  0  0  0  0  0  0  0
  140.8160   70.8420  225.7150 C   0  0  0  0  0  0  0  0  0  0  0  0
  141.4710   71.8830  226.3720 C   0  0  0  0  0  0  0  0  0  0  0  0
  141.1930   72.0930  227.7130 C   0  0  0  0  0  0  0  0  0  0  0  0
  140.2830   71.2960  228.4020 C   0  0  0  0  0  0  0  0  0  0  0  0
  139.6230   70.2530  227.7450 C   0  0  0  0  0  0  0  0  0  0  0  0
  140.0486   67.5265  227.0174 H   0  0  0  0  0  0  0  0  0  0  0  0
  139.4185   66.8150  225.4932 H   0  0  0  0  0  0  0  0  0  0  0  0
  140.9837   67.6963  225.4932 H   0  0  0  0  0  0  0  0  0  0  0  0
  138.2272   68.6729  225.8955 H   0  0  0  0  0  0  0  0  0  0  0  0
  140.1080   69.2630  223.6450 H   0  0  0  0  0  0  0  0  0  0  0  0
  138.1956   69.7292  221.6995 H   0  0  0  0  0  0  0  0  0  0  0  0
  136.8444   70.7902  222.4022 H   0  0  0  0  0  0  0  0  0  0  0  0
  138.0420   72.4480  221.5600 H   0  0  0  0  0  0  0  0  0  0  0  0
  138.7144   74.4044  222.4584 H   0  0  0  0  0  0  0  0  0  0  0  0
  141.7693   76.7479  220.5278 H   0  0  0  0  0  0  0  0  0  0  0  0
  143.7359   75.7156  219.7457 H   0  0  0  0  0  0  0  0  0  0  0  0
  145.1303   73.6949  219.4137 H   0  0  0  0  0  0  0  0  0  0  0  0
  144.3376   71.5091  220.2030 H   0  0  0  0  0  0  0  0  0  0  0  0
  142.1228   71.2780  221.3412 H   0  0  0  0  0  0  0  0  0  0  0  0
  141.0140   70.6464  224.6508 H   0  0  0  0  0  0  0  0  0  0  0  0
  142.1906   72.5217  225.8388 H   0  0  0  0  0  0  0  0  0  0  0  0
  141.7034   72.9088  228.2459 H   0  0  0  0  0  0  0  0  0  0  0  0
  140.0826   71.4873  229.4665 H   0  0  0  0  0  0  0  0  0  0  0  0
  138.9000   69.6178  228.2778 H   0  0  0  0  0  0  0  0  0  0  0  0
  1  2  1  0
  2  3  1  0
  3  4  1  0
  4  5  2  0
  4  6  1  0
  6  7  1  0
  7  8  1  0
  8  9  2  0
  8 10  1  0
 10 11  2  0
 11 12  1  0
 12 13  1  0
 12 14  2  0
 14 15  1  0
 15 16  2  0
 16 17  1  0
 17 18  2  0
 18 19  1  0
 19 20  2  0
  2 21  1  0
 21 22  2  0
 22 23  1  0
 23 24  2  0
 24 25  1  0
 25 26  2  0
 20 10  1  0
 26 21  1  0
 20 15  1  0
  1 27  1  0
  1 28  1  0
  1 29  1  0
  2 30  1  1
  3 31  1  0
  6 32  1  0
  6 33  1  0
  7 34  1  0
 11 35  1  0
 14 36  1  0
 16 37  1  0
 17 38  1  0
 18 39  1  0
 19 40  1  0
 22 41  1  0
 23 42  1  0
 24 43  1  0
 25 44  1  0
 26 45  1  0
M  END
>  <smiles>  (12) 
C[C@H](NC(=O)CNC(=O)c1cc(Cl)cc2ccccc12)c1ccccc1

>  <score_type>  (12) 
oracle

>  <origin>  (12) 
autodockgpu

>  <m_score__min__energy>  (12) 
-8.7300000000000004

>  <m_primary>  (12) 
energy

>  <rmsd>  (12) 
10.587848017341667

>  <m_score__min__rmsd>  (12) 
10.587848017341667

>  <meeko>  (12) 
{"free_energy": -7.55, "intermolecular_energy": -9.04, "internal_energy": -1.93, "cluster_size": 11, "cluster_id": 5, "rank_in_cluster": 4}

>  <energy>  (12) 
-8.49

>  <cluster_rmsd>  (12) 
0.54

>  <cluster>  (12) 
1

$$$$

     RDKit          3D

 45 47  0  0  0  0  0  0  0  0999 V2000
  139.9900   67.6490  225.8130 C   0  0  0  0  0  0  0  0  0  0  0  0
  139.2780   68.9070  225.5660 C   0  0  2  0  0  0  0  0  0  0  0  0
  139.2850   69.4040  224.2070 N   0  0  0  0  0  0  0  0  0  0  0  0
  138.1210   70.0320  223.7370 C   0  0  0  0  0  0  0  0  0  0  0  0
  137.1530   70.1140  224.5820 O   0  0  0  0  0  0  0  0  0  0  0  0
  137.8730   70.6010  222.4180 C   0  0  0  0  0  0  0  0  0  0  0  0
  138.5910   71.7900  222.0760 N   0  0  0  0  0  0  0  0  0  0  0  0
  139.9640   72.0420  222.2780 C   0  0  0  0  0  0  0  0  0  0  0  0
  140.7270   71.2080  222.8090 O   0  0  0  0  0  0  0  0  0  0  0  0
  140.4480   73.3680  221.8160 C   0  0  0  0  0  0  0  0  0  0  0  0
  139.7080   74.5150  221.9710 C   0  0  0  0  0  0  0  0  0  0  0  0
  140.1890   75.7440  221.5420 C   0  0  0  0  0  0  0  0  0  0  0  0
  139.1900   77.1830  221.7670 Cl  0  0  0  0  0  0  0  0  0  0  0  0
  141.4330   75.8380  220.9460 C   0  0  0  0  0  0  0  0  0  0  0  0
  142.1760   74.6920  220.7910 C   0  0  0  0  0  0  0  0  0  0  0  0
  143.4300   74.7970  220.1860 C   0  0  0  0  0  0  0  0  0  0  0  0
  144.2050   73.6730  220.0060 C   0  0  0  0  0  0  0  0  0  0  0  0
  143.7450   72.4540  220.4210 C   0  0  0  0  0  0  0  0  0  0  0  0
  142.4930   72.3150  221.0320 C   0  0  0  0  0  0  0  0  0  0  0  0
  141.7050   73.4620  221.2140 C   0  0  0  0  0  0  0  0  0  0  0  0
  139.9160   70.0190  226.3780 C   0  0  0  0  0  0  0  0  0  0  0  0
  140.8040   70.8520  225.6760 C   0  0  0  0  0  0  0  0  0  0  0  0
  141.4650   71.8770  226.3530 C   0  0  0  0  0  0  0  0  0  0  0  0
  141.2180   72.0360  227.7080 C   0  0  0  0  0  0  0  0  0  0  0  0
  140.3350   71.2040  228.3900 C   0  0  0  0  0  0  0  0  0  0  0  0
  139.6710   70.1770  227.7130 C   0  0  0  0  0  0  0  0  0  0  0  0
  140.0820   67.4865  226.8970 H   0  0  0  0  0  0  0  0  0  0  0  0
  139.4294   66.8161  225.3636 H   0  0  0  0  0  0  0  0  0  0  0  0
  140.9927   67.7008  225.3636 H   0  0  0  0  0  0  0  0  0  0  0  0
  138.2406   68.6583  225.8344 H   0  0  0  0  0  0  0  0  0  0  0  0
  140.0880   69.3140  223.5740 H   0  0  0  0  0  0  0  0  0  0  0  0
  138.1286   69.8335  221.6726 H   0  0  0  0  0  0  0  0  0  0  0  0
  136.8149   70.9015  222.4319 H   0  0  0  0  0  0  0  0  0  0  0  0
  138.0260   72.5610  221.6130 H   0  0  0  0  0  0  0  0  0  0  0  0
  138.7163   74.4582  222.4436 H   0  0  0  0  0  0  0  0  0  0  0  0
  141.8198   76.8090  220.6032 H   0  0  0  0  0  0  0  0  0  0  0  0
  143.7991   75.7782  219.8529 H   0  0  0  0  0  0  0  0  0  0  0  0
  145.1928   73.7557  219.5290 H   0  0  0  0  0  0  0  0  0  0  0  0
  144.3725   71.5630  220.2715 H   0  0  0  0  0  0  0  0  0  0  0  0
  142.1349   71.3287  221.3621 H   0  0  0  0  0  0  0  0  0  0  0  0
  140.9765   70.6969  224.6007 H   0  0  0  0  0  0  0  0  0  0  0  0
  142.1643   72.5422  225.8253 H   0  0  0  0  0  0  0  0  0  0  0  0
  141.7321   72.8387  228.2570 H   0  0  0  0  0  0  0  0  0  0  0  0
  140.1591   71.3551  229.4653 H   0  0  0  0  0  0  0  0  0  0  0  0
  138.9700   69.5137  228.2408 H   0  0  0  0  0  0  0  0  0  0  0  0
  1  2  1  0
  2  3  1  0
  3  4  1  0
  4  5  2  0
  4  6  1  0
  6  7  1  0
  7  8  1  0
  8  9  2  0
  8 10  1  0
 10 11  2  0
 11 12  1  0
 12 13  1  0
 12 14  2  0
 14 15  1  0
 15 16  2  0
 16 17  1  0
 17 18  2  0
 18 19  1  0
 19 20  2  0
  2 21  1  0
 21 22  2  0
 22 23  1  0
 23 24  2  0
 24 25  1  0
 25 26  2  0
 20 10  1  0
 26 21  1  0
 20 15  1  0
  1 27  1  0
  1 28  1  0
  1 29  1  0
  2 30  1  1
  3 31  1  0
  6 32  1  0
  6 33  1  0
  7 34  1  0
 11 35  1  0
 14 36  1  0
 16 37  1  0
 17 38  1  0
 18 39  1  0
 19 40  1  0
 22 41  1  0
 23 42  1  0
 24 43  1  0
 25 44  1  0
 26 45  1  0
M  END
>  <smiles>  (13) 
C[C@H](NC(=O)CNC(=O)c1cc(Cl)cc2ccccc12)c1ccccc1

>  <score_type>  (13) 
oracle

>  <origin>  (13) 
autodockgpu

>  <m_score__min__energy>  (13) 
-8.7300000000000004

>  <m_primary>  (13) 
energy

>  <rmsd>  (13) 
10.583766387347596

>  <m_score__min__rmsd>  (13) 
10.583766387347596

>  <meeko>  (13) 
{"free_energy": -7.56, "intermolecular_energy": -9.05, "internal_energy": -1.93, "cluster_size": 11, "cluster_id": 5, "rank_in_cluster": 3}

>  <energy>  (13) 
-8.47

>  <cluster_rmsd>  (13) 
0.56

>  <cluster>  (13) 
1

$$$$

     RDKit          3D

 45 47  0  0  0  0  0  0  0  0999 V2000
  139.1650   68.5600  224.3280 C   0  0  0  0  0  0  0  0  0  0  0  0
  139.1540   70.0050  224.5750 C   0  0  2  0  0  0  0  0  0  0  0  0
  139.8960   70.8310  223.6480 N   0  0  0  0  0  0  0  0  0  0  0  0
  139.1850   71.8100  222.9340 C   0  0  0  0  0  0  0  0  0  0  0  0
  137.9270   71.8820  223.1930 O   0  0  0  0  0  0  0  0  0  0  0  0
  139.6940   72.7510  221.9440 C   0  0  0  0  0  0  0  0  0  0  0  0
  139.6330   74.1410  222.2750 N   0  0  0  0  0  0  0  0  0  0  0  0
  140.3150   75.1970  221.6370 C   0  0  0  0  0  0  0  0  0  0  0  0
  141.0850   75.0110  220.6710 O   0  0  0  0  0  0  0  0  0  0  0  0
  140.0570   76.5530  222.1870 C   0  0  0  0  0  0  0  0  0  0  0  0
  141.0730   77.4090  222.5340 C   0  0  0  0  0  0  0  0  0  0  0  0
  140.8060   78.6760  223.0330 C   0  0  0  0  0  0  0  0  0  0  0  0
  142.1540   79.7320  223.4640 Cl  0  0  0  0  0  0  0  0  0  0  0  0
  139.5000   79.1040  223.1900 C   0  0  0  0  0  0  0  0  0  0  0  0
  138.4820   78.2490  222.8420 C   0  0  0  0  0  0  0  0  0  0  0  0
  137.1670   78.6890  223.0070 C   0  0  0  0  0  0  0  0  0  0  0  0
  136.1160   77.8620  222.6750 C   0  0  0  0  0  0  0  0  0  0  0  0
  136.3630   76.6110  222.1840 C   0  0  0  0  0  0  0  0  0  0  0  0
  137.6700   76.1400  222.0060 C   0  0  0  0  0  0  0  0  0  0  0  0
  138.7380   76.9840  222.3440 C   0  0  0  0  0  0  0  0  0  0  0  0
  139.7860   70.2930  225.9260 C   0  0  0  0  0  0  0  0  0  0  0  0
  140.4860   71.5080  226.0230 C   0  0  0  0  0  0  0  0  0  0  0  0
  141.1290   71.8360  227.2170 C   0  0  0  0  0  0  0  0  0  0  0  0
  141.0540   70.9400  228.2710 C   0  0  0  0  0  0  0  0  0  0  0  0
  140.3560   69.7410  228.1610 C   0  0  0  0  0  0  0  0  0  0  0  0
  139.7090   69.4110  226.9670 C   0  0  0  0  0  0  0  0  0  0  0  0
  139.1691   68.0239  225.2885 H   0  0  0  0  0  0  0  0  0  0  0  0
  138.2690   68.2791  223.7551 H   0  0  0  0  0  0  0  0  0  0  0  0
  140.0652   68.2928  223.7551 H   0  0  0  0  0  0  0  0  0  0  0  0
  138.0881   70.2611  224.4840 H   0  0  0  0  0  0  0  0  0  0  0  0
  140.9040   70.7320  223.4810 H   0  0  0  0  0  0  0  0  0  0  0  0
  140.7491   72.5001  221.7600 H   0  0  0  0  0  0  0  0  0  0  0  0
  139.0303   72.6360  221.0743 H   0  0  0  0  0  0  0  0  0  0  0  0
  138.9980   74.4020  223.0850 H   0  0  0  0  0  0  0  0  0  0  0  0
  142.1172   77.0846  222.4143 H   0  0  0  0  0  0  0  0  0  0  0  0
  139.2811   80.1071  223.5849 H   0  0  0  0  0  0  0  0  0  0  0  0
  136.9700   79.6965  223.4023 H   0  0  0  0  0  0  0  0  0  0  0  0
  135.0800   78.2083  222.8050 H   0  0  0  0  0  0  0  0  0  0  0  0
  135.5164   75.9592  221.9227 H   0  0  0  0  0  0  0  0  0  0  0  0
  137.8548   75.1306  221.6099 H   0  0  0  0  0  0  0  0  0  0  0  0
  140.5265   72.1947  225.1646 H   0  0  0  0  0  0  0  0  0  0  0  0
  141.6814   72.7818  227.3189 H   0  0  0  0  0  0  0  0  0  0  0  0
  141.5585   71.1822  229.2180 H   0  0  0  0  0  0  0  0  0  0  0  0
  140.3134   69.0509  229.0165 H   0  0  0  0  0  0  0  0  0  0  0  0
  139.1530   68.4671  226.8678 H   0  0  0  0  0  0  0  0  0  0  0  0
  1  2  1  0
  2  3  1  0
  3  4  1  0
  4  5  2  0
  4  6  1  0
  6  7  1  0
  7  8  1  0
  8  9  2  0
  8 10  1  0
 10 11  2  0
 11 12  1  0
 12 13  1  0
 12 14  2  0
 14 15  1  0
 15 16  2  0
 16 17  1  0
 17 18  2  0
 18 19  1  0
 19 20  2  0
  2 21  1  0
 21 22  2  0
 22 23  1  0
 23 24  2  0
 24 25  1  0
 25 26  2  0
 20 10  1  0
 26 21  1  0
 20 15  1  0
  1 27  1  0
  1 28  1  0
  1 29  1  0
  2 30  1  1
  3 31  1  0
  6 32  1  0
  6 33  1  0
  7 34  1  0
 11 35  1  0
 14 36  1  0
 16 37  1  0
 17 38  1  0
 18 39  1  0
 19 40  1  0
 22 41  1  0
 23 42  1  0
 24 43  1  0
 25 44  1  0
 26 45  1  0
M  END
>  <smiles>  (14) 
C[C@H](NC(=O)CNC(=O)c1cc(Cl)cc2ccccc12)c1ccccc1

>  <score_type>  (14) 
oracle

>  <origin>  (14) 
autodockgpu

>  <m_score__min__energy>  (14) 
-8.7300000000000004

>  <m_primary>  (14) 
energy

>  <rmsd>  (14) 
10.149179837591797

>  <m_score__min__rmsd>  (14) 
10.149179837591797

>  <meeko>  (14) 
{"free_energy": -8.15, "intermolecular_energy": -9.64, "internal_energy": -1.0, "cluster_size": 3, "cluster_id": 2, "rank_in_cluster": 2}

>  <energy>  (14) 
-8.44

>  <cluster_rmsd>  (14) 
0.61

>  <cluster>  (14) 
1

$$$$

     RDKit          3D

 45 47  0  0  0  0  0  0  0  0999 V2000
  139.2030   68.3150  224.9960 C   0  0  0  0  0  0  0  0  0  0  0  0
  139.0510   69.7700  224.8990 C   0  0  2  0  0  0  0  0  0  0  0  0
  139.5010   70.3920  223.6720 N   0  0  0  0  0  0  0  0  0  0  0  0
  138.5450   70.6200  222.6690 C   0  0  0  0  0  0  0  0  0  0  0  0
  137.3430   70.2590  222.9540 O   0  0  0  0  0  0  0  0  0  0  0  0
  138.7430   71.2150  221.3530 C   0  0  0  0  0  0  0  0  0  0  0  0
  139.0830   72.6030  221.3090 N   0  0  0  0  0  0  0  0  0  0  0  0
  140.1040   73.2520  222.0330 C   0  0  0  0  0  0  0  0  0  0  0  0
  140.8500   72.6450  222.8290 O   0  0  0  0  0  0  0  0  0  0  0  0
  140.2400   74.7110  221.7840 C   0  0  0  0  0  0  0  0  0  0  0  0
  139.3470   75.6260  222.2850 C   0  0  0  0  0  0  0  0  0  0  0  0
  139.5040   76.9850  222.0500 C   0  0  0  0  0  0  0  0  0  0  0  0
  138.3220   78.1140  222.7190 Cl  0  0  0  0  0  0  0  0  0  0  0  0
  140.5710   77.4460  221.3020 C   0  0  0  0  0  0  0  0  0  0  0  0
  141.4660   76.5320  220.8010 C   0  0  0  0  0  0  0  0  0  0  0  0
  142.5390   77.0070  220.0440 C   0  0  0  0  0  0  0  0  0  0  0  0
  143.4570   76.1250  219.5180 C   0  0  0  0  0  0  0  0  0  0  0  0
  143.3160   74.7830  219.7390 C   0  0  0  0  0  0  0  0  0  0  0  0
  142.2510   74.2740  220.4940 C   0  0  0  0  0  0  0  0  0  0  0  0
  141.3180   75.1750  221.0290 C   0  0  0  0  0  0  0  0  0  0  0  0
  139.8750   70.4400  225.9850 C   0  0  0  0  0  0  0  0  0  0  0  0
  139.7350   69.8970  227.2740 C   0  0  0  0  0  0  0  0  0  0  0  0
  140.4260   70.4740  228.3400 C   0  0  0  0  0  0  0  0  0  0  0  0
  141.2320   71.5730  228.0830 C   0  0  0  0  0  0  0  0  0  0  0  0
  141.3610   72.0980  226.8010 C   0  0  0  0  0  0  0  0  0  0  0  0
  140.6710   71.5200  225.7310 C   0  0  0  0  0  0  0  0  0  0  0  0
  139.2339   68.0194  226.0551 H   0  0  0  0  0  0  0  0  0  0  0  0
  138.3513   67.8237  224.5029 H   0  0  0  0  0  0  0  0  0  0  0  0
  140.1379   68.0103  224.5029 H   0  0  0  0  0  0  0  0  0  0  0  0
  137.9624   69.9083  224.9748 H   0  0  0  0  0  0  0  0  0  0  0  0
  140.4750   70.6630  223.4970 H   0  0  0  0  0  0  0  0  0  0  0  0
  139.5528   70.6598  220.8570 H   0  0  0  0  0  0  0  0  0  0  0  0
  137.7619   71.1471  220.8601 H   0  0  0  0  0  0  0  0  0  0  0  0
  138.5040   73.2060  220.6540 H   0  0  0  0  0  0  0  0  0  0  0  0
  138.4926   75.2760  222.8828 H   0  0  0  0  0  0  0  0  0  0  0  0
  140.7008   78.5217  221.1119 H   0  0  0  0  0  0  0  0  0  0  0  0
  142.6513   78.0869  219.8675 H   0  0  0  0  0  0  0  0  0  0  0  0
  144.3018   76.4995  218.9214 H   0  0  0  0  0  0  0  0  0  0  0  0
  144.0551   74.0875  219.3146 H   0  0  0  0  0  0  0  0  0  0  0  0
  142.1487   73.1920  220.6635 H   0  0  0  0  0  0  0  0  0  0  0  0
  139.0862   69.0246  227.4409 H   0  0  0  0  0  0  0  0  0  0  0  0
  140.3339   70.0677  229.3580 H   0  0  0  0  0  0  0  0  0  0  0  0
  141.7824   72.0408  228.9126 H   0  0  0  0  0  0  0  0  0  0  0  0
  142.0080   72.9707  226.6286 H   0  0  0  0  0  0  0  0  0  0  0  0
  140.7668   71.9242  224.7125 H   0  0  0  0  0  0  0  0  0  0  0  0
  1  2  1  0
  2  3  1  0
  3  4  1  0
  4  5  2  0
  4  6  1  0
  6  7  1  0
  7  8  1  0
  8  9  2  0
  8 10  1  0
 10 11  2  0
 11 12  1  0
 12 13  1  0
 12 14  2  0
 14 15  1  0
 15 16  2  0
 16 17  1  0
 17 18  2  0
 18 19  1  0
 19 20  2  0
  2 21  1  0
 21 22  2  0
 22 23  1  0
 23 24  2  0
 24 25  1  0
 25 26  2  0
 20 10  1  0
 26 21  1  0
 20 15  1  0
  1 27  1  0
  1 28  1  0
  1 29  1  0
  2 30  1  1
  3 31  1  0
  6 32  1  0
  6 33  1  0
  7 34  1  0
 11 35  1  0
 14 36  1  0
 16 37  1  0
 17 38  1  0
 18 39  1  0
 19 40  1  0
 22 41  1  0
 23 42  1  0
 24 43  1  0
 25 44  1  0
 26 45  1  0
M  END
>  <smiles>  (15) 
C[C@H](NC(=O)CNC(=O)c1cc(Cl)cc2ccccc12)c1ccccc1

>  <score_type>  (15) 
oracle

>  <origin>  (15) 
autodockgpu

>  <m_score__min__energy>  (15) 
-8.7300000000000004

>  <m_primary>  (15) 
energy

>  <rmsd>  (15) 
9.949257307211077

>  <m_score__min__rmsd>  (15) 
9.949257307211077

>  <meeko>  (15) 
{"free_energy": -7.43, "intermolecular_energy": -8.92, "internal_energy": -1.84, "cluster_size": 4, "cluster_id": 6, "rank_in_cluster": 3}

>  <energy>  (15) 
-8.41

>  <cluster_rmsd>  (15) 
1.56

>  <cluster>  (15) 
1

$$$$

     RDKit          3D

 45 47  0  0  0  0  0  0  0  0999 V2000
  138.8910   78.0070  222.9600 C   0  0  0  0  0  0  0  0  0  0  0  0
  140.0700   77.9890  222.0880 C   0  0  2  0  0  0  0  0  0  0  0  0
  140.8200   76.7540  222.0310 N   0  0  0  0  0  0  0  0  0  0  0  0
  140.1250   75.5850  221.6790 C   0  0  0  0  0  0  0  0  0  0  0  0
  138.8730   75.7380  221.4260 O   0  0  0  0  0  0  0  0  0  0  0  0
  140.6440   74.2280  221.5630 C   0  0  0  0  0  0  0  0  0  0  0  0
  140.0100   73.2180  222.3510 N   0  0  0  0  0  0  0  0  0  0  0  0
  140.4280   71.8820  222.5180 C   0  0  0  0  0  0  0  0  0  0  0  0
  141.4470   71.4240  221.9590 O   0  0  0  0  0  0  0  0  0  0  0  0
  139.5780   71.0490  223.4080 C   0  0  0  0  0  0  0  0  0  0  0  0
  138.4420   70.4210  222.9590 C   0  0  0  0  0  0  0  0  0  0  0  0
  137.6720   69.6370  223.8070 C   0  0  0  0  0  0  0  0  0  0  0  0
  136.2210   68.8560  223.1730 Cl  0  0  0  0  0  0  0  0  0  0  0  0
  138.0380   69.4720  225.1300 C   0  0  0  0  0  0  0  0  0  0  0  0
  139.1750   70.0980  225.5810 C   0  0  0  0  0  0  0  0  0  0  0  0
  139.5360   69.9280  226.9190 C   0  0  0  0  0  0  0  0  0  0  0  0
  140.6650   70.5420  227.4130 C   0  0  0  0  0  0  0  0  0  0  0  0
  141.4330   71.3190  226.5910 C   0  0  0  0  0  0  0  0  0  0  0  0
  141.1000   71.5100  225.2450 C   0  0  0  0  0  0  0  0  0  0  0  0
  139.9490   70.8820  224.7440 C   0  0  0  0  0  0  0  0  0  0  0  0
  141.0750   79.0190  222.5730 C   0  0  0  0  0  0  0  0  0  0  0  0
  141.5240   79.9330  221.6040 C   0  0  0  0  0  0  0  0  0  0  0  0
  142.4770   80.8910  221.9550 C   0  0  0  0  0  0  0  0  0  0  0  0
  142.9490   80.9030  223.2570 C   0  0  0  0  0  0  0  0  0  0  0  0
  142.4940   79.9920  224.2060 C   0  0  0  0  0  0  0  0  0  0  0  0
  141.5380   79.0330  223.8590 C   0  0  0  0  0  0  0  0  0  0  0  0
  139.2128   78.0021  224.0119 H   0  0  0  0  0  0  0  0  0  0  0  0
  138.3017   78.9143  222.7611 H   0  0  0  0  0  0  0  0  0  0  0  0
  138.2742   77.1182  222.7611 H   0  0  0  0  0  0  0  0  0  0  0  0
  139.6413   78.1752  221.0922 H   0  0  0  0  0  0  0  0  0  0  0  0
  141.8230   76.6880  222.2400 H   0  0  0  0  0  0  0  0  0  0  0  0
  140.5561   73.9288  220.5081 H   0  0  0  0  0  0  0  0  0  0  0  0
  141.6733   74.2836  221.9470 H   0  0  0  0  0  0  0  0  0  0  0  0
  139.1320   73.5130  222.8720 H   0  0  0  0  0  0  0  0  0  0  0  0
  138.1371   70.5415  221.9090 H   0  0  0  0  0  0  0  0  0  0  0  0
  137.4317   68.8526  225.8073 H   0  0  0  0  0  0  0  0  0  0  0  0
  138.9174   69.3026  227.5795 H   0  0  0  0  0  0  0  0  0  0  0  0
  140.9486   70.4076  228.4673 H   0  0  0  0  0  0  0  0  0  0  0  0
  142.3327   71.8049  226.9965 H   0  0  0  0  0  0  0  0  0  0  0  0
  141.7263   72.1381  224.5944 H   0  0  0  0  0  0  0  0  0  0  0  0
  141.1281   79.8938  220.5785 H   0  0  0  0  0  0  0  0  0  0  0  0
  142.8439   81.6183  221.2158 H   0  0  0  0  0  0  0  0  0  0  0  0
  143.7016   81.6505  223.5482 H   0  0  0  0  0  0  0  0  0  0  0  0
  142.8880   80.0268  225.2324 H   0  0  0  0  0  0  0  0  0  0  0  0
  141.1684   78.3094  224.6005 H   0  0  0  0  0  0  0  0  0  0  0  0
  1  2  1  0
  2  3  1  0
  3  4  1  0
  4  5  2  0
  4  6  1  0
  6  7  1  0
  7  8  1  0
  8  9  2  0
  8 10  1  0
 10 11  2  0
 11 12  1  0
 12 13  1  0
 12 14  2  0
 14 15  1  0
 15 16  2  0
 16 17  1  0
 17 18  2  0
 18 19  1  0
 19 20  2  0
  2 21  1  0
 21 22  2  0
 22 23  1  0
 23 24  2  0
 24 25  1  0
 25 26  2  0
 20 10  1  0
 26 21  1  0
 20 15  1  0
  1 27  1  0
  1 28  1  0
  1 29  1  0
  2 30  1  6
  3 31  1  0
  6 32  1  0
  6 33  1  0
  7 34  1  0
 11 35  1  0
 14 36  1  0
 16 37  1  0
 17 38  1  0
 18 39  1  0
 19 40  1  0
 22 41  1  0
 23 42  1  0
 24 43  1  0
 25 44  1  0
 26 45  1  0
M  END
>  <smiles>  (16) 
C[C@H](NC(=O)CNC(=O)c1cc(Cl)cc2ccccc12)c1ccccc1

>  <score_type>  (16) 
oracle

>  <origin>  (16) 
autodockgpu

>  <m_score__min__energy>  (16) 
-8.7300000000000004

>  <m_primary>  (16) 
energy

>  <rmsd>  (16) 
4.908461391872653

>  <m_score__min__rmsd>  (16) 
4.908461391872653

>  <meeko>  (16) 
{"free_energy": -8.54, "intermolecular_energy": -10.03, "internal_energy": -0.92, "cluster_size": 20, "cluster_id": 1, "rank_in_cluster": 7}

>  <energy>  (16) 
-8.14

>  <cluster_rmsd>  (16) 
1.32

>  <cluster>  (16) 
1

$$$$

     RDKit          3D

 45 47  0  0  0  0  0  0  0  0999 V2000
  138.8190   77.8920  222.7310 C   0  0  0  0  0  0  0  0  0  0  0  0
  140.0380   77.8270  221.9180 C   0  0  2  0  0  0  0  0  0  0  0  0
  140.8340   76.6240  222.0310 N   0  0  0  0  0  0  0  0  0  0  0  0
  140.2650   75.4220  221.5800 C   0  0  0  0  0  0  0  0  0  0  0  0
  139.0780   75.5170  221.0920 O   0  0  0  0  0  0  0  0  0  0  0  0
  140.8500   74.0870  221.5950 C   0  0  0  0  0  0  0  0  0  0  0  0
  140.1830   73.0910  222.3750 N   0  0  0  0  0  0  0  0  0  0  0  0
  140.3770   71.6960  222.3200 C   0  0  0  0  0  0  0  0  0  0  0  0
  141.1910   71.1640  221.5360 O   0  0  0  0  0  0  0  0  0  0  0  0
  139.5490   70.8940  223.2580 C   0  0  0  0  0  0  0  0  0  0  0  0
  138.4210   70.2250  222.8520 C   0  0  0  0  0  0  0  0  0  0  0  0
  137.6720   69.4720  223.7460 C   0  0  0  0  0  0  0  0  0  0  0  0
  136.2300   68.6350  223.1660 Cl  0  0  0  0  0  0  0  0  0  0  0  0
  138.0530   69.3800  225.0720 C   0  0  0  0  0  0  0  0  0  0  0  0
  139.1820   70.0470  225.4790 C   0  0  0  0  0  0  0  0  0  0  0  0
  139.5570   69.9510  226.8210 C   0  0  0  0  0  0  0  0  0  0  0  0
  140.6800   70.6090  227.2730 C   0  0  0  0  0  0  0  0  0  0  0  0
  141.4270   71.3560  226.4060 C   0  0  0  0  0  0  0  0  0  0  0  0
  141.0790   71.4730  225.0550 C   0  0  0  0  0  0  0  0  0  0  0  0
  139.9350   70.8020  224.5970 C   0  0  0  0  0  0  0  0  0  0  0  0
  140.9810   78.9430  222.3290 C   0  0  0  0  0  0  0  0  0  0  0  0
  141.4290   78.9020  223.6610 C   0  0  0  0  0  0  0  0  0  0  0  0
  142.2700   79.9100  224.1340 C   0  0  0  0  0  0  0  0  0  0  0  0
  142.6330   80.9250  223.2640 C   0  0  0  0  0  0  0  0  0  0  0  0
  142.1820   80.9530  221.9470 C   0  0  0  0  0  0  0  0  0  0  0  0
  141.3420   79.9430  221.4690 C   0  0  0  0  0  0  0  0  0  0  0  0
  139.0883   77.8776  223.7974 H   0  0  0  0  0  0  0  0  0  0  0  0
  138.2750   78.8204  222.5027 H   0  0  0  0  0  0  0  0  0  0  0  0
  138.1794   77.0267  222.5027 H   0  0  0  0  0  0  0  0  0  0  0  0
  139.6507   77.8860  220.8901 H   0  0  0  0  0  0  0  0  0  0  0  0
  141.7800   76.6040  222.4280 H   0  0  0  0  0  0  0  0  0  0  0  0
  140.8815   73.7276  220.5559 H   0  0  0  0  0  0  0  0  0  0  0  0
  141.8321   74.2126  222.0744 H   0  0  0  0  0  0  0  0  0  0  0  0
  139.4700   73.4470  223.0780 H   0  0  0  0  0  0  0  0  0  0  0  0
  138.1052   70.2867  221.8001 H   0  0  0  0  0  0  0  0  0  0  0  0
  137.4641   68.7851  225.7857 H   0  0  0  0  0  0  0  0  0  0  0  0
  138.9551   69.3493  227.5179 H   0  0  0  0  0  0  0  0  0  0  0  0
  140.9748   70.5332  228.3300 H   0  0  0  0  0  0  0  0  0  0  0  0
  142.3216   71.8769  226.7779 H   0  0  0  0  0  0  0  0  0  0  0  0
  141.6890   72.0776  224.3677 H   0  0  0  0  0  0  0  0  0  0  0  0
  141.1190   78.0817  224.3251 H   0  0  0  0  0  0  0  0  0  0  0  0
  142.6355   79.8989  225.1715 H   0  0  0  0  0  0  0  0  0  0  0  0
  143.2935   81.7283  223.6223 H   0  0  0  0  0  0  0  0  0  0  0  0
  142.4878   81.7728  221.2803 H   0  0  0  0  0  0  0  0  0  0  0  0
  140.9814   79.9524  220.4298 H   0  0  0  0  0  0  0  0  0  0  0  0
  1  2  1  0
  2  3  1  0
  3  4  1  0
  4  5  2  0
  4  6  1  0
  6  7  1  0
  7  8  1  0
  8  9  2  0
  8 10  1  0
 10 11  2  0
 11 12  1  0
 12 13  1  0
 12 14  2  0
 14 15  1  0
 15 16  2  0
 16 17  1  0
 17 18  2  0
 18 19  1  0
 19 20  2  0
  2 21  1  0
 21 22  2  0
 22 23  1  0
 23 24  2  0
 24 25  1  0
 25 26  2  0
 20 10  1  0
 26 21  1  0
 20 15  1  0
  1 27  1  0
  1 28  1  0
  1 29  1  0
  2 30  1  6
  3 31  1  0
  6 32  1  0
  6 33  1  0
  7 34  1  0
 11 35  1  0
 14 36  1  0
 16 37  1  0
 17 38  1  0
 18 39  1  0
 19 40  1  0
 22 41  1  0
 23 42  1  0
 24 43  1  0
 25 44  1  0
 26 45  1  0
M  END
>  <smiles>  (17) 
C[C@H](NC(=O)CNC(=O)c1cc(Cl)cc2ccccc12)c1ccccc1

>  <score_type>  (17) 
oracle

>  <origin>  (17) 
autodockgpu

>  <m_score__min__energy>  (17) 
-8.7300000000000004

>  <m_primary>  (17) 
energy

>  <rmsd>  (17) 
4.660647703605098

>  <m_score__min__rmsd>  (17) 
4.660647703605098

>  <meeko>  (17) 
{"free_energy": -8.44, "intermolecular_energy": -9.93, "internal_energy": -0.92, "cluster_size": 20, "cluster_id": 1, "rank_in_cluster": 14}

>  <energy>  (17) 
-8.09

>  <cluster_rmsd>  (17) 
1.35

>  <cluster>  (17) 
1

$$$$

     RDKit          3D

 45 47  0  0  0  0  0  0  0  0999 V2000
  138.7330   78.1040  222.9970 C   0  0  0  0  0  0  0  0  0  0  0  0
  139.9120   78.1450  222.1250 C   0  0  2  0  0  0  0  0  0  0  0  0
  140.7070   76.9390  222.0460 N   0  0  0  0  0  0  0  0  0  0  0  0
  140.0460   75.7430  221.7240 C   0  0  0  0  0  0  0  0  0  0  0  0
  138.7800   75.8460  221.5150 O   0  0  0  0  0  0  0  0  0  0  0  0
  140.6130   74.4070  221.5940 C   0  0  0  0  0  0  0  0  0  0  0  0
  139.9910   73.3590  222.3420 N   0  0  0  0  0  0  0  0  0  0  0  0
  140.4540   72.0370  222.5020 C   0  0  0  0  0  0  0  0  0  0  0  0
  141.5090   71.6280  221.9720 O   0  0  0  0  0  0  0  0  0  0  0  0
  139.6060   71.1560  223.3460 C   0  0  0  0  0  0  0  0  0  0  0  0
  138.4910   70.5210  222.8540 C   0  0  0  0  0  0  0  0  0  0  0  0
  137.7230   69.6930  223.6610 C   0  0  0  0  0  0  0  0  0  0  0  0
  136.3000   68.9050  222.9730 Cl  0  0  0  0  0  0  0  0  0  0  0  0
  138.0680   69.4890  224.9840 C   0  0  0  0  0  0  0  0  0  0  0  0
  139.1830   70.1230  225.4770 C   0  0  0  0  0  0  0  0  0  0  0  0
  139.5230   69.9130  226.8150 C   0  0  0  0  0  0  0  0  0  0  0  0
  140.6300   70.5330  227.3510 C   0  0  0  0  0  0  0  0  0  0  0  0
  141.3960   71.3530  226.5710 C   0  0  0  0  0  0  0  0  0  0  0  0
  141.0840   71.5840  225.2260 C   0  0  0  0  0  0  0  0  0  0  0  0
  139.9560   70.9510  224.6820 C   0  0  0  0  0  0  0  0  0  0  0  0
  140.8780   79.2030  222.6290 C   0  0  0  0  0  0  0  0  0  0  0  0
  142.2240   79.0180  222.2670 C   0  0  0  0  0  0  0  0  0  0  0  0
  143.1860   79.9220  222.7180 C   0  0  0  0  0  0  0  0  0  0  0  0
  142.7730   80.9780  223.5150 C   0  0  0  0  0  0  0  0  0  0  0  0
  141.4370   81.1490  223.8640 C   0  0  0  0  0  0  0  0  0  0  0  0
  140.4700   80.2450  223.4120 C   0  0  0  0  0  0  0  0  0  0  0  0
  139.0544   78.1152  224.0489 H   0  0  0  0  0  0  0  0  0  0  0  0
  138.0991   78.9806  222.7979 H   0  0  0  0  0  0  0  0  0  0  0  0
  138.1615   77.1854  222.7979 H   0  0  0  0  0  0  0  0  0  0  0  0
  139.4770   78.3329  221.1323 H   0  0  0  0  0  0  0  0  0  0  0  0
  141.7180   76.9140  222.2200 H   0  0  0  0  0  0  0  0  0  0  0  0
  140.5648   74.1287  220.5309 H   0  0  0  0  0  0  0  0  0  0  0  0
  141.6287   74.4878  222.0085 H   0  0  0  0  0  0  0  0  0  0  0  0
  139.0840   73.6110  222.8360 H   0  0  0  0  0  0  0  0  0  0  0  0
  138.2023   70.6714  221.8033 H   0  0  0  0  0  0  0  0  0  0  0  0
  137.4632   68.8336  225.6279 H   0  0  0  0  0  0  0  0  0  0  0  0
  138.9062   69.2519  227.4415 H   0  0  0  0  0  0  0  0  0  0  0  0
  140.8971   70.3683  228.4053 H   0  0  0  0  0  0  0  0  0  0  0  0
  142.2778   71.8427  227.0100 H   0  0  0  0  0  0  0  0  0  0  0  0
  141.7090   72.2468  224.6095 H   0  0  0  0  0  0  0  0  0  0  0  0
  142.5160   78.1675  221.6334 H   0  0  0  0  0  0  0  0  0  0  0  0
  144.2453   79.7998  222.4480 H   0  0  0  0  0  0  0  0  0  0  0  0
  143.5196   81.6984  223.8805 H   0  0  0  0  0  0  0  0  0  0  0  0
  141.1402   81.9979  224.4975 H   0  0  0  0  0  0  0  0  0  0  0  0
  139.4104   80.3699  223.6797 H   0  0  0  0  0  0  0  0  0  0  0  0
  1  2  1  0
  2  3  1  0
  3  4  1  0
  4  5  2  0
  4  6  1  0
  6  7  1  0
  7  8  1  0
  8  9  2  0
  8 10  1  0
 10 11  2  0
 11 12  1  0
 12 13  1  0
 12 14  2  0
 14 15  1  0
 15 16  2  0
 16 17  1  0
 17 18  2  0
 18 19  1  0
 19 20  2  0
  2 21  1  0
 21 22  2  0
 22 23  1  0
 23 24  2  0
 24 25  1  0
 25 26  2  0
 20 10  1  0
 26 21  1  0
 20 15  1  0
  1 27  1  0
  1 28  1  0
  1 29  1  0
  2 30  1  6
  3 31  1  0
  6 32  1  0
  6 33  1  0
  7 34  1  0
 11 35  1  0
 14 36  1  0
 16 37  1  0
 17 38  1  0
 18 39  1  0
 19 40  1  0
 22 41  1  0
 23 42  1  0
 24 43  1  0
 25 44  1  0
 26 45  1  0
M  END
>  <smiles>  (18) 
C[C@H](NC(=O)CNC(=O)c1cc(Cl)cc2ccccc12)c1ccccc1

>  <score_type>  (18) 
oracle

>  <origin>  (18) 
autodockgpu

>  <m_score__min__energy>  (18) 
-8.7300000000000004

>  <m_primary>  (18) 
energy

>  <rmsd>  (18) 
4.842513407195881

>  <m_score__min__rmsd>  (18) 
4.842513407195881

>  <meeko>  (18) 
{"free_energy": -8.68, "intermolecular_energy": -10.18, "internal_energy": -0.86, "cluster_size": 20, "cluster_id": 1, "rank_in_cluster": 3}

>  <energy>  (18) 
-8.07

>  <cluster_rmsd>  (18) 
1.35

>  <cluster>  (18) 
1

$$$$

     RDKit          3D

 45 47  0  0  0  0  0  0  0  0999 V2000
  139.2220   68.3160  225.0130 C   0  0  0  0  0  0  0  0  0  0  0  0
  139.0290   69.7650  224.8970 C   0  0  2  0  0  0  0  0  0  0  0  0
  139.4580   70.3830  223.6610 N   0  0  0  0  0  0  0  0  0  0  0  0
  138.4760   70.6540  222.6940 C   0  0  0  0  0  0  0  0  0  0  0  0
  137.2730   70.3330  223.0170 O   0  0  0  0  0  0  0  0  0  0  0  0
  138.6500   71.2550  221.3770 C   0  0  0  0  0  0  0  0  0  0  0  0
  139.0040   72.6400  221.3340 N   0  0  0  0  0  0  0  0  0  0  0  0
  140.0340   73.2780  222.0560 C   0  0  0  0  0  0  0  0  0  0  0  0
  140.7750   72.6620  222.8500 O   0  0  0  0  0  0  0  0  0  0  0  0
  140.1840   74.7350  221.8080 C   0  0  0  0  0  0  0  0  0  0  0  0
  139.2970   75.6590  222.3060 C   0  0  0  0  0  0  0  0  0  0  0  0
  139.4680   77.0160  222.0720 C   0  0  0  0  0  0  0  0  0  0  0  0
  138.2940   78.1560  222.7360 Cl  0  0  0  0  0  0  0  0  0  0  0  0
  140.5420   77.4680  221.3280 C   0  0  0  0  0  0  0  0  0  0  0  0
  141.4310   76.5450  220.8310 C   0  0  0  0  0  0  0  0  0  0  0  0
  142.5120   77.0100  220.0780 C   0  0  0  0  0  0  0  0  0  0  0  0
  143.4230   76.1190  219.5560 C   0  0  0  0  0  0  0  0  0  0  0  0
  143.2690   74.7790  219.7760 C   0  0  0  0  0  0  0  0  0  0  0  0
  142.1970   74.2800  220.5260 C   0  0  0  0  0  0  0  0  0  0  0  0
  141.2700   75.1900  221.0570 C   0  0  0  0  0  0  0  0  0  0  0  0
  139.8350   70.4710  225.9720 C   0  0  0  0  0  0  0  0  0  0  0  0
  139.6340   70.0090  227.2840 C   0  0  0  0  0  0  0  0  0  0  0  0
  140.3070   70.6260  228.3390 C   0  0  0  0  0  0  0  0  0  0  0  0
  141.1550   71.6840  228.0500 C   0  0  0  0  0  0  0  0  0  0  0  0
  141.3450   72.1300  226.7450 C   0  0  0  0  0  0  0  0  0  0  0  0
  140.6730   71.5120  225.6860 C   0  0  0  0  0  0  0  0  0  0  0  0
  139.2594   68.0350  226.0758 H   0  0  0  0  0  0  0  0  0  0  0  0
  138.3854   67.7944  224.5251 H   0  0  0  0  0  0  0  0  0  0  0  0
  140.1660   68.0316  224.5251 H   0  0  0  0  0  0  0  0  0  0  0  0
  137.9371   69.8742  224.9731 H   0  0  0  0  0  0  0  0  0  0  0  0
  140.4340   70.6220  223.4550 H   0  0  0  0  0  0  0  0  0  0  0  0
  139.4421   70.6944  220.8591 H   0  0  0  0  0  0  0  0  0  0  0  0
  137.6573   71.2005  220.9062 H   0  0  0  0  0  0  0  0  0  0  0  0
  138.4300   73.2500  220.6800 H   0  0  0  0  0  0  0  0  0  0  0  0
  138.4368   75.3170  222.9002 H   0  0  0  0  0  0  0  0  0  0  0  0
  140.6820   78.5424  221.1380 H   0  0  0  0  0  0  0  0  0  0  0  0
  142.6355   78.0888  219.9019 H   0  0  0  0  0  0  0  0  0  0  0  0
  144.2737   76.4854  218.9626 H   0  0  0  0  0  0  0  0  0  0  0  0
  144.0035   74.0769  219.3546 H   0  0  0  0  0  0  0  0  0  0  0  0
  142.0840   73.1990  220.6952 H   0  0  0  0  0  0  0  0  0  0  0  0
  138.9518   69.1680  227.4775 H   0  0  0  0  0  0  0  0  0  0  0  0
  140.1682   70.2815  229.3744 H   0  0  0  0  0  0  0  0  0  0  0  0
  141.6904   72.1829  228.8713 H   0  0  0  0  0  0  0  0  0  0  0  0
  142.0257   72.9709  226.5464 H   0  0  0  0  0  0  0  0  0  0  0  0
  140.8150   71.8545  224.6504 H   0  0  0  0  0  0  0  0  0  0  0  0
  1  2  1  0
  2  3  1  0
  3  4  1  0
  4  5  2  0
  4  6  1  0
  6  7  1  0
  7  8  1  0
  8  9  2  0
  8 10  1  0
 10 11  2  0
 11 12  1  0
 12 13  1  0
 12 14  2  0
 14 15  1  0
 15 16  2  0
 16 17  1  0
 17 18  2  0
 18 19  1  0
 19 20  2  0
  2 21  1  0
 21 22  2  0
 22 23  1  0
 23 24  2  0
 24 25  1  0
 25 26  2  0
 20 10  1  0
 26 21  1  0
 20 15  1  0
  1 27  1  0
  1 28  1  0
  1 29  1  0
  2 30  1  1
  3 31  1  0
  6 32  1  0
  6 33  1  0
  7 34  1  0
 11 35  1  0
 14 36  1  0
 16 37  1  0
 17 38  1  0
 18 39  1  0
 19 40  1  0
 22 41  1  0
 23 42  1  0
 24 43  1  0
 25 44  1  0
 26 45  1  0
M  END
>  <smiles>  (19) 
C[C@H](NC(=O)CNC(=O)c1cc(Cl)cc2ccccc12)c1ccccc1

>  <score_type>  (19) 
oracle

>  <origin>  (19) 
autodockgpu

>  <m_score__min__energy>  (19) 
-8.7300000000000004

>  <m_primary>  (19) 
energy

>  <rmsd>  (19) 
9.916403457611578

>  <m_score__min__rmsd>  (19) 
9.916403457611578

>  <meeko>  (19) 
{"free_energy": -7.44, "intermolecular_energy": -8.93, "internal_energy": -1.84, "cluster_size": 4, "cluster_id": 6, "rank_in_cluster": 2}

>  <energy>  (19) 
-8.01

>  <cluster_rmsd>  (19) 
1.37

>  <cluster>  (19) 
1

$$$$

     RDKit          3D

 45 47  0  0  0  0  0  0  0  0999 V2000
  143.3300   75.9020  218.4930 C   0  0  0  0  0  0  0  0  0  0  0  0
  142.9280   74.7560  219.3150 C   0  0  2  0  0  0  0  0  0  0  0  0
  142.2030   75.0490  220.5330 N   0  0  0  0  0  0  0  0  0  0  0  0
  140.9460   74.4470  220.7030 C   0  0  0  0  0  0  0  0  0  0  0  0
  140.5660   73.6730  219.7480 O   0  0  0  0  0  0  0  0  0  0  0  0
  140.0240   74.5890  221.8230 C   0  0  0  0  0  0  0  0  0  0  0  0
  139.8100   75.9090  222.3290 N   0  0  0  0  0  0  0  0  0  0  0  0
  140.2920   77.1170  221.7840 C   0  0  0  0  0  0  0  0  0  0  0  0
  140.9940   77.1530  220.7520 O   0  0  0  0  0  0  0  0  0  0  0  0
  139.9070   78.3510  222.5170 C   0  0  0  0  0  0  0  0  0  0  0  0
  138.5990   78.6500  222.8140 C   0  0  0  0  0  0  0  0  0  0  0  0
  138.2670   79.8020  223.5120 C   0  0  0  0  0  0  0  0  0  0  0  0
  136.5690   80.1340  223.8640 Cl  0  0  0  0  0  0  0  0  0  0  0  0
  139.2540   80.6780  223.9250 C   0  0  0  0  0  0  0  0  0  0  0  0
  140.5630   80.3800  223.6290 C   0  0  0  0  0  0  0  0  0  0  0  0
  141.5530   81.2720  224.0480 C   0  0  0  0  0  0  0  0  0  0  0  0
  142.8760   81.0150  223.7680 C   0  0  0  0  0  0  0  0  0  0  0  0
  143.2200   79.8840  223.0800 C   0  0  0  0  0  0  0  0  0  0  0  0
  142.2520   78.9700  222.6470 C   0  0  0  0  0  0  0  0  0  0  0  0
  140.9050   79.2340  222.9340 C   0  0  0  0  0  0  0  0  0  0  0  0
  144.1650   74.0090  219.7830 C   0  0  0  0  0  0  0  0  0  0  0  0
  144.3810   72.7560  219.1830 C   0  0  0  0  0  0  0  0  0  0  0  0
  145.4740   71.9850  219.5800 C   0  0  0  0  0  0  0  0  0  0  0  0
  146.3120   72.4880  220.5620 C   0  0  0  0  0  0  0  0  0  0  0  0
  146.0860   73.7310  221.1460 C   0  0  0  0  0  0  0  0  0  0  0  0
  144.9930   74.5070  220.7490 C   0  0  0  0  0  0  0  0  0  0  0  0
  143.6229   76.7371  219.1463 H   0  0  0  0  0  0  0  0  0  0  0  0
  144.1818   75.6170  217.8580 H   0  0  0  0  0  0  0  0  0  0  0  0
  142.4868   76.2116  217.8580 H   0  0  0  0  0  0  0  0  0  0  0  0
  142.2593   74.1960  218.6447 H   0  0  0  0  0  0  0  0  0  0  0  0
  142.5550   75.6750  221.2660 H   0  0  0  0  0  0  0  0  0  0  0  0
  139.0485   74.1958  221.5007 H   0  0  0  0  0  0  0  0  0  0  0  0
  140.4968   74.0407  222.6512 H   0  0  0  0  0  0  0  0  0  0  0  0
  139.2180   75.9830  223.2080 H   0  0  0  0  0  0  0  0  0  0  0  0
  137.8014   77.9640  222.4927 H   0  0  0  0  0  0  0  0  0  0  0  0
  138.9973   81.5934  224.4784 H   0  0  0  0  0  0  0  0  0  0  0  0
  141.2751   82.1806  224.6022 H   0  0  0  0  0  0  0  0  0  0  0  0
  143.6554   81.7181  224.0970 H   0  0  0  0  0  0  0  0  0  0  0  0
  144.2803   79.6883  222.8622 H   0  0  0  0  0  0  0  0  0  0  0  0
  142.5417   78.0645  222.0937 H   0  0  0  0  0  0  0  0  0  0  0  0
  143.6942   72.3867  218.4072 H   0  0  0  0  0  0  0  0  0  0  0  0
  145.6656   71.0022  219.1246 H   0  0  0  0  0  0  0  0  0  0  0  0
  147.1764   71.8908  220.8878 H   0  0  0  0  0  0  0  0  0  0  0  0
  146.7698   74.1041  221.9227 H   0  0  0  0  0  0  0  0  0  0  0  0
  144.8048   75.4916  221.2019 H   0  0  0  0  0  0  0  0  0  0  0  0
  1  2  1  0
  2  3  1  0
  3  4  1  0
  4  5  2  0
  4  6  1  0
  6  7  1  0
  7  8  1  0
  8  9  2  0
  8 10  1  0
 10 11  2  0
 11 12  1  0
 12 13  1  0
 12 14  2  0
 14 15  1  0
 15 16  2  0
 16 17  1  0
 17 18  2  0
 18 19  1  0
 19 20  2  0
  2 21  1  0
 21 22  2  0
 22 23  1  0
 23 24  2  0
 24 25  1  0
 25 26  2  0
 20 10  1  0
 26 21  1  0
 20 15  1  0
  1 27  1  0
  1 28  1  0
  1 29  1  0
  2 30  1  6
  3 31  1  0
  6 32  1  0
  6 33  1  0
  7 34  1  0
 11 35  1  0
 14 36  1  0
 16 37  1  0
 17 38  1  0
 18 39  1  0
 19 40  1  0
 22 41  1  0
 23 42  1  0
 24 43  1  0
 25 44  1  0
 26 45  1  0
M  END
>  <smiles>  (20) 
C[C@H](NC(=O)CNC(=O)c1cc(Cl)cc2ccccc12)c1ccccc1

>  <score_type>  (20) 
oracle

>  <origin>  (20) 
autodockgpu

>  <m_score__min__energy>  (20) 
-8.7300000000000004

>  <m_primary>  (20) 
energy

>  <rmsd>  (20) 
7.426352292378865

>  <m_score__min__rmsd>  (20) 
7.426352292378865

>  <meeko>  (20) 
{"free_energy": -7.72, "intermolecular_energy": -9.21, "internal_energy": -1.46, "cluster_size": 1, "cluster_id": 4, "rank_in_cluster": 1}

>  <energy>  (20) 
-7.99

>  <cluster_rmsd>  (20) 
1.39

>  <cluster>  (20) 
1

$$$$

     RDKit          3D

 45 47  0  0  0  0  0  0  0  0999 V2000
  139.9710   67.6460  225.8400 C   0  0  0  0  0  0  0  0  0  0  0  0
  139.2830   68.9090  225.5540 C   0  0  2  0  0  0  0  0  0  0  0  0
  139.3380   69.3870  224.1900 N   0  0  0  0  0  0  0  0  0  0  0  0
  138.1850   69.9930  223.6650 C   0  0  0  0  0  0  0  0  0  0  0  0
  137.1840   70.0760  224.4700 O   0  0  0  0  0  0  0  0  0  0  0  0
  137.9830   70.5410  222.3290 C   0  0  0  0  0  0  0  0  0  0  0  0
  138.6800   71.7480  222.0080 N   0  0  0  0  0  0  0  0  0  0  0  0
  140.0430   72.0290  222.2330 C   0  0  0  0  0  0  0  0  0  0  0  0
  140.8160   71.2080  222.7710 O   0  0  0  0  0  0  0  0  0  0  0  0
  140.5050   73.3690  221.7880 C   0  0  0  0  0  0  0  0  0  0  0  0
  139.7500   74.5020  221.9690 C   0  0  0  0  0  0  0  0  0  0  0  0
  140.2110   75.7450  221.5560 C   0  0  0  0  0  0  0  0  0  0  0  0
  139.1960   77.1660  221.8150 Cl  0  0  0  0  0  0  0  0  0  0  0  0
  141.4470   75.8660  220.9490 C   0  0  0  0  0  0  0  0  0  0  0  0
  142.2040   74.7330  220.7670 C   0  0  0  0  0  0  0  0  0  0  0  0
  143.4500   74.8640  220.1510 C   0  0  0  0  0  0  0  0  0  0  0  0
  144.2380   73.7530  219.9450 C   0  0  0  0  0  0  0  0  0  0  0  0
  143.7990   72.5220  220.3450 C   0  0  0  0  0  0  0  0  0  0  0  0
  142.5540   72.3570  220.9660 C   0  0  0  0  0  0  0  0  0  0  0  0
  141.7540   73.4890  221.1750 C   0  0  0  0  0  0  0  0  0  0  0  0
  139.9110   70.0240  226.3710 C   0  0  0  0  0  0  0  0  0  0  0  0
  140.7960   70.8640  225.6720 C   0  0  0  0  0  0  0  0  0  0  0  0
  141.4470   71.8930  226.3530 C   0  0  0  0  0  0  0  0  0  0  0  0
  141.1950   72.0480  227.7070 C   0  0  0  0  0  0  0  0  0  0  0  0
  140.3150   71.2090  228.3850 C   0  0  0  0  0  0  0  0  0  0  0  0
  139.6590   70.1790  227.7050 C   0  0  0  0  0  0  0  0  0  0  0  0
  140.0463   67.5078  226.9287 H   0  0  0  0  0  0  0  0  0  0  0  0
  139.4027   66.8117  225.4029 H   0  0  0  0  0  0  0  0  0  0  0  0
  140.9801   67.6710  225.4029 H   0  0  0  0  0  0  0  0  0  0  0  0
  138.2346   68.6772  225.7930 H   0  0  0  0  0  0  0  0  0  0  0  0
  140.1650   69.2980  223.5900 H   0  0  0  0  0  0  0  0  0  0  0  0
  138.2971   69.7744  221.6053 H   0  0  0  0  0  0  0  0  0  0  0  0
  136.9168   70.8087  222.2893 H   0  0  0  0  0  0  0  0  0  0  0  0
  138.1050   72.5100  221.5410 H   0  0  0  0  0  0  0  0  0  0  0  0
  138.7635   74.4234  222.4492 H   0  0  0  0  0  0  0  0  0  0  0  0
  141.8169   76.8479  220.6187 H   0  0  0  0  0  0  0  0  0  0  0  0
  143.8028   75.8552  219.8299 H   0  0  0  0  0  0  0  0  0  0  0  0
  145.2195   73.8565  219.4591 H   0  0  0  0  0  0  0  0  0  0  0  0
  144.4368   71.6420  220.1757 H   0  0  0  0  0  0  0  0  0  0  0  0
  142.2117   71.3608  221.2827 H   0  0  0  0  0  0  0  0  0  0  0  0
  140.9735   70.7110  224.5972 H   0  0  0  0  0  0  0  0  0  0  0  0
  142.1428   72.5644  225.8285 H   0  0  0  0  0  0  0  0  0  0  0  0
  141.7023   72.8530  228.2590 H   0  0  0  0  0  0  0  0  0  0  0  0
  140.1352   71.3572  229.4600 H   0  0  0  0  0  0  0  0  0  0  0  0
  138.9592   69.5116  228.2293 H   0  0  0  0  0  0  0  0  0  0  0  0
  1  2  1  0
  2  3  1  0
  3  4  1  0
  4  5  2  0
  4  6  1  0
  6  7  1  0
  7  8  1  0
  8  9  2  0
  8 10  1  0
 10 11  2  0
 11 12  1  0
 12 13  1  0
 12 14  2  0
 14 15  1  0
 15 16  2  0
 16 17  1  0
 17 18  2  0
 18 19  1  0
 19 20  2  0
  2 21  1  0
 21 22  2  0
 22 23  1  0
 23 24  2  0
 24 25  1  0
 25 26  2  0
 20 10  1  0
 26 21  1  0
 20 15  1  0
  1 27  1  0
  1 28  1  0
  1 29  1  0
  2 30  1  1
  3 31  1  0
  6 32  1  0
  6 33  1  0
  7 34  1  0
 11 35  1  0
 14 36  1  0
 16 37  1  0
 17 38  1  0
 18 39  1  0
 19 40  1  0
 22 41  1  0
 23 42  1  0
 24 43  1  0
 25 44  1  0
 26 45  1  0
M  END
>  <smiles>  (21) 
C[C@H](NC(=O)CNC(=O)c1cc(Cl)cc2ccccc12)c1ccccc1

>  <score_type>  (21) 
oracle

>  <origin>  (21) 
autodockgpu

>  <m_score__min__energy>  (21) 
-8.7300000000000004

>  <m_primary>  (21) 
energy

>  <rmsd>  (21) 
10.577073697948636

>  <m_score__min__rmsd>  (21) 
10.577073697948636

>  <meeko>  (21) 
{"free_energy": -7.55, "intermolecular_energy": -9.04, "internal_energy": -1.94, "cluster_size": 11, "cluster_id": 5, "rank_in_cluster": 5}

>  <energy>  (21) 
-8.34

>  <cluster_rmsd>  (21) 
0.0

>  <cluster>  (21) 
2

$$$$

     RDKit          3D

 45 47  0  0  0  0  0  0  0  0999 V2000
  138.8440   77.8880  222.7180 C   0  0  0  0  0  0  0  0  0  0  0  0
  140.0010   77.8370  221.8180 C   0  0  2  0  0  0  0  0  0  0  0  0
  140.7890   76.6240  221.8360 N   0  0  0  0  0  0  0  0  0  0  0  0
  140.1180   75.4090  221.6260 C   0  0  0  0  0  0  0  0  0  0  0  0
  138.8510   75.5010  221.4210 O   0  0  0  0  0  0  0  0  0  0  0  0
  140.6770   74.0630  221.6080 C   0  0  0  0  0  0  0  0  0  0  0  0
  140.0100   73.0690  222.3910 N   0  0  0  0  0  0  0  0  0  0  0  0
  140.2410   71.6780  222.3770 C   0  0  0  0  0  0  0  0  0  0  0  0
  141.0950   71.1490  221.6350 O   0  0  0  0  0  0  0  0  0  0  0  0
  139.4030   70.8780  223.3060 C   0  0  0  0  0  0  0  0  0  0  0  0
  138.2100   70.3170  222.9200 C   0  0  0  0  0  0  0  0  0  0  0  0
  137.4520   69.5620  223.8040 C   0  0  0  0  0  0  0  0  0  0  0  0
  135.9260   68.8670  223.2500 Cl  0  0  0  0  0  0  0  0  0  0  0  0
  137.8870   69.3590  225.1010 C   0  0  0  0  0  0  0  0  0  0  0  0
  139.0800   69.9190  225.4890 C   0  0  0  0  0  0  0  0  0  0  0  0
  139.5100   69.7110  226.8010 C   0  0  0  0  0  0  0  0  0  0  0  0
  140.6970   70.2590  227.2340 C   0  0  0  0  0  0  0  0  0  0  0  0
  141.4550   71.0060  226.3760 C   0  0  0  0  0  0  0  0  0  0  0  0
  141.0530   71.2330  225.0540 C   0  0  0  0  0  0  0  0  0  0  0  0
  139.8430   70.6740  224.6160 C   0  0  0  0  0  0  0  0  0  0  0  0
  140.9840   78.9320  222.1930 C   0  0  0  0  0  0  0  0  0  0  0  0
  141.5700   78.8120  223.4650 C   0  0  0  0  0  0  0  0  0  0  0  0
  142.4570   79.7940  223.9070 C   0  0  0  0  0  0  0  0  0  0  0  0
  142.7270   80.8630  223.0670 C   0  0  0  0  0  0  0  0  0  0  0  0
  142.1400   80.9670  221.8090 C   0  0  0  0  0  0  0  0  0  0  0  0
  141.2520   79.9840  221.3630 C   0  0  0  0  0  0  0  0  0  0  0  0
  139.1905   77.8727  223.7619 H   0  0  0  0  0  0  0  0  0  0  0  0
  138.2764   78.8120  222.5336 H   0  0  0  0  0  0  0  0  0  0  0  0
  138.1973   77.0175  222.5336 H   0  0  0  0  0  0  0  0  0  0  0  0
  139.5415   77.9312  220.8230 H   0  0  0  0  0  0  0  0  0  0  0  0
  141.8010   76.6080  222.0020 H   0  0  0  0  0  0  0  0  0  0  0  0
  140.6757   73.7178  220.5636 H   0  0  0  0  0  0  0  0  0  0  0  0
  141.6730   74.1628  222.0641 H   0  0  0  0  0  0  0  0  0  0  0  0
  139.2640   73.4230  223.0600 H   0  0  0  0  0  0  0  0  0  0  0  0
  137.8491   70.4689  221.8920 H   0  0  0  0  0  0  0  0  0  0  0  0
  137.2906   68.7621  225.8067 H   0  0  0  0  0  0  0  0  0  0  0  0
  138.8997   69.1085  227.4899 H   0  0  0  0  0  0  0  0  0  0  0  0
  141.0345   70.0959  228.2682 H   0  0  0  0  0  0  0  0  0  0  0  0
  142.4018   71.4384  226.7320 H   0  0  0  0  0  0  0  0  0  0  0  0
  141.6722   71.8363  224.3739 H   0  0  0  0  0  0  0  0  0  0  0  0
  141.3312   77.9510  224.1066 H   0  0  0  0  0  0  0  0  0  0  0  0
  142.9302   79.7217  224.8974 H   0  0  0  0  0  0  0  0  0  0  0  0
  143.4214   81.6475  223.4023 H   0  0  0  0  0  0  0  0  0  0  0  0
  142.3759   81.8259  221.1636 H   0  0  0  0  0  0  0  0  0  0  0  0
  140.7818   80.0553  220.3711 H   0  0  0  0  0  0  0  0  0  0  0  0
  1  2  1  0
  2  3  1  0
  3  4  1  0
  4  5  2  0
  4  6  1  0
  6  7  1  0
  7  8  1  0
  8  9  2  0
  8 10  1  0
 10 11  2  0
 11 12  1  0
 12 13  1  0
 12 14  2  0
 14 15  1  0
 15 16  2  0
 16 17  1  0
 17 18  2  0
 18 19  1  0
 19 20  2  0
  2 21  1  0
 21 22  2  0
 22 23  1  0
 23 24  2  0
 24 25  1  0
 25 26  2  0
 20 10  1  0
 26 21  1  0
 20 15  1  0
  1 27  1  0
  1 28  1  0
  1 29  1  0
  2 30  1  6
  3 31  1  0
  6 32  1  0
  6 33  1  0
  7 34  1  0
 11 35  1  0
 14 36  1  0
 16 37  1  0
 17 38  1  0
 18 39  1  0
 19 40  1  0
 22 41  1  0
 23 42  1  0
 24 43  1  0
 25 44  1  0
 26 45  1  0
M  END
>  <smiles>  (22) 
C[C@H](NC(=O)CNC(=O)c1cc(Cl)cc2ccccc12)c1ccccc1

>  <score_type>  (22) 
oracle

>  <origin>  (22) 
autodockgpu

>  <m_score__min__energy>  (22) 
-8.7300000000000004

>  <m_primary>  (22) 
energy

>  <rmsd>  (22) 
4.676381961594098

>  <m_score__min__rmsd>  (22) 
4.676381961594098

>  <meeko>  (22) 
{"free_energy": -8.49, "intermolecular_energy": -9.99, "internal_energy": -0.91, "cluster_size": 20, "cluster_id": 1, "rank_in_cluster": 11}

>  <energy>  (22) 
-8.15

>  <cluster_rmsd>  (22) 
1.51

>  <cluster>  (22) 
2

$$$$

     RDKit          3D

 45 47  0  0  0  0  0  0  0  0999 V2000
  143.2200   76.4240  218.6520 C   0  0  0  0  0  0  0  0  0  0  0  0
  142.7210   75.2180  219.3200 C   0  0  2  0  0  0  0  0  0  0  0  0
  141.9740   75.4130  220.5440 N   0  0  0  0  0  0  0  0  0  0  0  0
  140.8280   74.6260  220.7400 C   0  0  0  0  0  0  0  0  0  0  0  0
  140.5610   73.7880  219.8010 O   0  0  0  0  0  0  0  0  0  0  0  0
  139.9090   74.6380  221.8720 C   0  0  0  0  0  0  0  0  0  0  0  0
  139.5980   73.3790  222.4730 N   0  0  0  0  0  0  0  0  0  0  0  0
  140.4130   72.2280  222.5070 C   0  0  0  0  0  0  0  0  0  0  0  0
  141.5450   72.1940  221.9820 O   0  0  0  0  0  0  0  0  0  0  0  0
  139.8370   71.0540  223.2130 C   0  0  0  0  0  0  0  0  0  0  0  0
  139.1120   70.0880  222.5580 C   0  0  0  0  0  0  0  0  0  0  0  0
  138.5970   68.9940  223.2380 C   0  0  0  0  0  0  0  0  0  0  0  0
  137.6720   67.7850  222.3430 Cl  0  0  0  0  0  0  0  0  0  0  0  0
  138.8050   68.8540  224.5980 C   0  0  0  0  0  0  0  0  0  0  0  0
  139.5300   69.8190  225.2540 C   0  0  0  0  0  0  0  0  0  0  0  0
  139.7330   69.6710  226.6280 C   0  0  0  0  0  0  0  0  0  0  0  0
  140.4500   70.6180  227.3260 C   0  0  0  0  0  0  0  0  0  0  0  0
  140.9630   71.7030  226.6710 C   0  0  0  0  0  0  0  0  0  0  0  0
  140.7780   71.8810  225.2940 C   0  0  0  0  0  0  0  0  0  0  0  0
  140.0480   70.9140  224.5860 C   0  0  0  0  0  0  0  0  0  0  0  0
  143.8920   74.3420  219.7270 C   0  0  0  0  0  0  0  0  0  0  0  0
  143.8160   72.9980  219.3230 C   0  0  0  0  0  0  0  0  0  0  0  0
  144.8320   72.1140  219.6860 C   0  0  0  0  0  0  0  0  0  0  0  0
  145.8870   72.5990  220.4410 C   0  0  0  0  0  0  0  0  0  0  0  0
  145.9500   73.9330  220.8340 C   0  0  0  0  0  0  0  0  0  0  0  0
  144.9350   74.8220  220.4690 C   0  0  0  0  0  0  0  0  0  0  0  0
  143.5255   77.1622  219.4081 H   0  0  0  0  0  0  0  0  0  0  0  0
  144.0844   76.1639  218.0233 H   0  0  0  0  0  0  0  0  0  0  0  0
  142.4246   76.8507  218.0233 H   0  0  0  0  0  0  0  0  0  0  0  0
  142.0426   74.7849  218.5702 H   0  0  0  0  0  0  0  0  0  0  0  0
  142.2340   76.0960  221.2650 H   0  0  0  0  0  0  0  0  0  0  0  0
  140.3514   75.2765  222.6509 H   0  0  0  0  0  0  0  0  0  0  0  0
  138.9553   74.9992  221.4597 H   0  0  0  0  0  0  0  0  0  0  0  0
  138.6520   73.3090  222.9520 H   0  0  0  0  0  0  0  0  0  0  0  0
  138.9370   70.1837  221.4762 H   0  0  0  0  0  0  0  0  0  0  0  0
  138.3988   67.9889  225.1426 H   0  0  0  0  0  0  0  0  0  0  0  0
  139.3199   68.7973  227.1534 H   0  0  0  0  0  0  0  0  0  0  0  0
  140.6094   70.5014  228.4081 H   0  0  0  0  0  0  0  0  0  0  0  0
  141.5338   72.4530  227.2382 H   0  0  0  0  0  0  0  0  0  0  0  0
  141.1955   72.7589  224.7793 H   0  0  0  0  0  0  0  0  0  0  0  0
  142.9622   72.6461  218.7254 H   0  0  0  0  0  0  0  0  0  0  0  0
  144.7963   71.0579  219.3803 H   0  0  0  0  0  0  0  0  0  0  0  0
  146.6947   71.9135  220.7373 H   0  0  0  0  0  0  0  0  0  0  0  0
  146.8010   74.2885  221.4335 H   0  0  0  0  0  0  0  0  0  0  0  0
  144.9744   75.8791  220.7706 H   0  0  0  0  0  0  0  0  0  0  0  0
  1  2  1  0
  2  3  1  0
  3  4  1  0
  4  5  2  0
  4  6  1  0
  6  7  1  0
  7  8  1  0
  8  9  2  0
  8 10  1  0
 10 11  2  0
 11 12  1  0
 12 13  1  0
 12 14  2  0
 14 15  1  0
 15 16  2  0
 16 17  1  0
 17 18  2  0
 18 19  1  0
 19 20  2  0
  2 21  1  0
 21 22  2  0
 22 23  1  0
 23 24  2  0
 24 25  1  0
 25 26  2  0
 20 10  1  0
 26 21  1  0
 20 15  1  0
  1 27  1  0
  1 28  1  0
  1 29  1  0
  2 30  1  6
  3 31  1  0
  6 32  1  0
  6 33  1  0
  7 34  1  0
 11 35  1  0
 14 36  1  0
 16 37  1  0
 17 38  1  0
 18 39  1  0
 19 40  1  0
 22 41  1  0
 23 42  1  0
 24 43  1  0
 25 44  1  0
 26 45  1  0
M  END
>  <smiles>  (23) 
C[C@H](NC(=O)CNC(=O)c1cc(Cl)cc2ccccc12)c1ccccc1

>  <score_type>  (23) 
oracle

>  <origin>  (23) 
autodockgpu

>  <m_score__min__energy>  (23) 
-8.7300000000000004

>  <m_primary>  (23) 
energy

>  <rmsd>  (23) 
7.507293668621325

>  <m_score__min__rmsd>  (23) 
7.507293668621325

>  <meeko>  (23) 
{"free_energy": -8.12, "intermolecular_energy": -9.62, "internal_energy": -1.26, "cluster_size": 11, "cluster_id": 3, "rank_in_cluster": 7}

>  <energy>  (23) 
-8.14

>  <cluster_rmsd>  (23) 
0.5

>  <cluster>  (23) 
2

$$$$

     RDKit          3D

 45 47  0  0  0  0  0  0  0  0999 V2000
  138.7180   77.9940  222.9500 C   0  0  0  0  0  0  0  0  0  0  0  0
  139.8860   78.0240  222.0630 C   0  0  2  0  0  0  0  0  0  0  0  0
  140.6790   76.8160  221.9890 N   0  0  0  0  0  0  0  0  0  0  0  0
  140.0110   75.6140  221.7050 C   0  0  0  0  0  0  0  0  0  0  0  0
  138.7410   75.7130  221.5230 O   0  0  0  0  0  0  0  0  0  0  0  0
  140.5760   74.2750  221.5880 C   0  0  0  0  0  0  0  0  0  0  0  0
  139.9650   73.2400  222.3630 N   0  0  0  0  0  0  0  0  0  0  0  0
  140.4660   71.9430  222.5950 C   0  0  0  0  0  0  0  0  0  0  0  0
  141.5490   71.5480  222.1150 O   0  0  0  0  0  0  0  0  0  0  0  0
  139.6210   71.0720  223.4520 C   0  0  0  0  0  0  0  0  0  0  0  0
  138.5020   70.4360  222.9730 C   0  0  0  0  0  0  0  0  0  0  0  0
  137.7370   69.6160  223.7910 C   0  0  0  0  0  0  0  0  0  0  0  0
  136.3080   68.8260  223.1200 Cl  0  0  0  0  0  0  0  0  0  0  0  0
  138.0900   69.4220  225.1140 C   0  0  0  0  0  0  0  0  0  0  0  0
  139.2110   70.0570  225.5940 C   0  0  0  0  0  0  0  0  0  0  0  0
  139.5590   69.8580  226.9320 C   0  0  0  0  0  0  0  0  0  0  0  0
  140.6710   70.4790  227.4560 C   0  0  0  0  0  0  0  0  0  0  0  0
  141.4340   71.2910  226.6640 C   0  0  0  0  0  0  0  0  0  0  0  0
  141.1130   71.5110  225.3180 C   0  0  0  0  0  0  0  0  0  0  0  0
  139.9800   70.8770  224.7870 C   0  0  0  0  0  0  0  0  0  0  0  0
  140.8580   79.0860  222.5420 C   0  0  0  0  0  0  0  0  0  0  0  0
  140.9150   80.2540  221.7610 C   0  0  0  0  0  0  0  0  0  0  0  0
  141.8090   81.2680  222.1070 C   0  0  0  0  0  0  0  0  0  0  0  0
  142.6170   81.0820  223.2180 C   0  0  0  0  0  0  0  0  0  0  0  0
  142.5490   79.9200  223.9820 C   0  0  0  0  0  0  0  0  0  0  0  0
  141.6520   78.9040  223.6390 C   0  0  0  0  0  0  0  0  0  0  0  0
  139.0529   78.0026  223.9977 H   0  0  0  0  0  0  0  0  0  0  0  0
  138.0896   78.8763  222.7587 H   0  0  0  0  0  0  0  0  0  0  0  0
  138.1357   77.0806  222.7587 H   0  0  0  0  0  0  0  0  0  0  0  0
  139.4392   78.2009  221.0735 H   0  0  0  0  0  0  0  0  0  0  0  0
  141.6940   76.7940  222.1410 H   0  0  0  0  0  0  0  0  0  0  0  0
  140.5112   73.9793  220.5305 H   0  0  0  0  0  0  0  0  0  0  0  0
  141.5982   74.3618  221.9849 H   0  0  0  0  0  0  0  0  0  0  0  0
  139.0360   73.4830  222.8180 H   0  0  0  0  0  0  0  0  0  0  0  0
  138.2069   70.5789  221.9230 H   0  0  0  0  0  0  0  0  0  0  0  0
  137.4874   68.7742  225.7676 H   0  0  0  0  0  0  0  0  0  0  0  0
  138.9441   69.2044  227.5681 H   0  0  0  0  0  0  0  0  0  0  0  0
  140.9447   70.3219  228.5098 H   0  0  0  0  0  0  0  0  0  0  0  0
  142.3196   71.7826  227.0930 H   0  0  0  0  0  0  0  0  0  0  0  0
  141.7358   72.1665  224.6915 H   0  0  0  0  0  0  0  0  0  0  0  0
  140.2602   80.3674  220.8845 H   0  0  0  0  0  0  0  0  0  0  0  0
  141.8711   82.1918  221.5130 H   0  0  0  0  0  0  0  0  0  0  0  0
  143.3286   81.8710  223.5027 H   0  0  0  0  0  0  0  0  0  0  0  0
  143.2032   79.8010  224.8583 H   0  0  0  0  0  0  0  0  0  0  0  0
  141.5871   77.9826  224.2364 H   0  0  0  0  0  0  0  0  0  0  0  0
  1  2  1  0
  2  3  1  0
  3  4  1  0
  4  5  2  0
  4  6  1  0
  6  7  1  0
  7  8  1  0
  8  9  2  0
  8 10  1  0
 10 11  2  0
 11 12  1  0
 12 13  1  0
 12 14  2  0
 14 15  1  0
 15 16  2  0
 16 17  1  0
 17 18  2  0
 18 19  1  0
 19 20  2  0
  2 21  1  0
 21 22  2  0
 22 23  1  0
 23 24  2  0
 24 25  1  0
 25 26  2  0
 20 10  1  0
 26 21  1  0
 20 15  1  0
  1 27  1  0
  1 28  1  0
  1 29  1  0
  2 30  1  6
  3 31  1  0
  6 32  1  0
  6 33  1  0
  7 34  1  0
 11 35  1  0
 14 36  1  0
 16 37  1  0
 17 38  1  0
 18 39  1  0
 19 40  1  0
 22 41  1  0
 23 42  1  0
 24 43  1  0
 25 44  1  0
 26 45  1  0
M  END
>  <smiles>  (24) 
C[C@H](NC(=O)CNC(=O)c1cc(Cl)cc2ccccc12)c1ccccc1

>  <score_type>  (24) 
oracle

>  <origin>  (24) 
autodockgpu

>  <m_score__min__energy>  (24) 
-8.7300000000000004

>  <m_primary>  (24) 
energy

>  <rmsd>  (24) 
4.824364232587382

>  <m_score__min__rmsd>  (24) 
4.824364232587382

>  <meeko>  (24) 
{"free_energy": -8.55, "intermolecular_energy": -10.04, "internal_energy": -0.92, "cluster_size": 20, "cluster_id": 1, "rank_in_cluster": 6}

>  <energy>  (24) 
-8.23

>  <cluster_rmsd>  (24) 
0.0

>  <cluster>  (24) 
3

$$$$

     RDKit          3D

 45 47  0  0  0  0  0  0  0  0999 V2000
  139.9590   67.6460  225.7290 C   0  0  0  0  0  0  0  0  0  0  0  0
  139.2710   68.9200  225.4920 C   0  0  2  0  0  0  0  0  0  0  0  0
  139.2660   69.4150  224.1330 N   0  0  0  0  0  0  0  0  0  0  0  0
  138.1130   70.0820  223.6870 C   0  0  0  0  0  0  0  0  0  0  0  0
  137.1670   70.1960  224.5530 O   0  0  0  0  0  0  0  0  0  0  0  0
  137.8560   70.6580  222.3740 C   0  0  0  0  0  0  0  0  0  0  0  0
  138.5790   71.8430  222.0300 N   0  0  0  0  0  0  0  0  0  0  0  0
  139.9440   72.1060  222.2650 C   0  0  0  0  0  0  0  0  0  0  0  0
  140.6950   71.2850  222.8330 O   0  0  0  0  0  0  0  0  0  0  0  0
  140.4360   73.4250  221.7910 C   0  0  0  0  0  0  0  0  0  0  0  0
  139.7130   74.5810  221.9590 C   0  0  0  0  0  0  0  0  0  0  0  0
  140.2020   75.8030  221.5190 C   0  0  0  0  0  0  0  0  0  0  0  0
  139.2260   77.2550  221.7620 Cl  0  0  0  0  0  0  0  0  0  0  0  0
  141.4350   75.8810  220.8990 C   0  0  0  0  0  0  0  0  0  0  0  0
  142.1600   74.7260  220.7310 C   0  0  0  0  0  0  0  0  0  0  0  0
  143.4030   74.8140  220.1010 C   0  0  0  0  0  0  0  0  0  0  0  0
  144.1600   73.6800  219.9070 C   0  0  0  0  0  0  0  0  0  0  0  0
  143.6930   72.4670  220.3330 C   0  0  0  0  0  0  0  0  0  0  0  0
  142.4510   72.3450  220.9690 C   0  0  0  0  0  0  0  0  0  0  0  0
  141.6820   73.5020  221.1650 C   0  0  0  0  0  0  0  0  0  0  0  0
  139.9490   70.0170  226.2920 C   0  0  0  0  0  0  0  0  0  0  0  0
  139.5820   70.0980  227.6470 C   0  0  0  0  0  0  0  0  0  0  0  0
  140.1290   71.1010  228.4480 C   0  0  0  0  0  0  0  0  0  0  0  0
  141.0210   71.9900  227.8700 C   0  0  0  0  0  0  0  0  0  0  0  0
  141.3760   71.8980  226.5280 C   0  0  0  0  0  0  0  0  0  0  0  0
  140.8310   70.8920  225.7230 C   0  0  0  0  0  0  0  0  0  0  0  0
  140.0513   67.4750  226.8117 H   0  0  0  0  0  0  0  0  0  0  0  0
  139.3805   66.8271  225.2765 H   0  0  0  0  0  0  0  0  0  0  0  0
  140.9610   67.6807  225.2765 H   0  0  0  0  0  0  0  0  0  0  0  0
  138.2326   68.6960  225.7776 H   0  0  0  0  0  0  0  0  0  0  0  0
  140.0510   69.2980  223.4840 H   0  0  0  0  0  0  0  0  0  0  0  0
  138.0985   69.8919  221.6228 H   0  0  0  0  0  0  0  0  0  0  0  0
  136.8003   70.9659  222.3998 H   0  0  0  0  0  0  0  0  0  0  0  0
  138.0240   72.6030  221.5360 H   0  0  0  0  0  0  0  0  0  0  0  0
  138.7299   74.5373  222.4506 H   0  0  0  0  0  0  0  0  0  0  0  0
  141.8273   76.8468  220.5477 H   0  0  0  0  0  0  0  0  0  0  0  0
  143.7779   75.7900  219.7593 H   0  0  0  0  0  0  0  0  0  0  0  0
  145.1389   73.7496  219.4101 H   0  0  0  0  0  0  0  0  0  0  0  0
  144.3061   71.5679  220.1726 H   0  0  0  0  0  0  0  0  0  0  0  0
  142.0866   71.3638  221.3073 H   0  0  0  0  0  0  0  0  0  0  0  0
  138.8691   69.3762  228.0722 H   0  0  0  0  0  0  0  0  0  0  0  0
  139.8590   71.1839  229.5111 H   0  0  0  0  0  0  0  0  0  0  0  0
  141.4591   72.7880  228.4874 H   0  0  0  0  0  0  0  0  0  0  0  0
  142.0875   72.6186  226.0985 H   0  0  0  0  0  0  0  0  0  0  0  0
  141.1050   70.8076  224.6610 H   0  0  0  0  0  0  0  0  0  0  0  0
  1  2  1  0
  2  3  1  0
  3  4  1  0
  4  5  2  0
  4  6  1  0
  6  7  1  0
  7  8  1  0
  8  9  2  0
  8 10  1  0
 10 11  2  0
 11 12  1  0
 12 13  1  0
 12 14  2  0
 14 15  1  0
 15 16  2  0
 16 17  1  0
 17 18  2  0
 18 19  1  0
 19 20  2  0
  2 21  1  0
 21 22  2  0
 22 23  1  0
 23 24  2  0
 24 25  1  0
 25 26  2  0
 20 10  1  0
 26 21  1  0
 20 15  1  0
  1 27  1  0
  1 28  1  0
  1 29  1  0
  2 30  1  1
  3 31  1  0
  6 32  1  0
  6 33  1  0
  7 34  1  0
 11 35  1  0
 14 36  1  0
 16 37  1  0
 17 38  1  0
 18 39  1  0
 19 40  1  0
 22 41  1  0
 23 42  1  0
 24 43  1  0
 25 44  1  0
 26 45  1  0
M  END
>  <smiles>  (25) 
C[C@H](NC(=O)CNC(=O)c1cc(Cl)cc2ccccc12)c1ccccc1

>  <score_type>  (25) 
oracle

>  <origin>  (25) 
autodockgpu

>  <m_score__min__energy>  (25) 
-8.7300000000000004

>  <m_primary>  (25) 
energy

>  <rmsd>  (25) 
10.343131658435242

>  <m_score__min__rmsd>  (25) 
10.343131658435242

>  <meeko>  (25) 
{"free_energy": -7.51, "intermolecular_energy": -9.0, "internal_energy": -1.9, "cluster_size": 11, "cluster_id": 5, "rank_in_cluster": 8}

>  <energy>  (25) 
-8.22

>  <cluster_rmsd>  (25) 
0.2

>  <cluster>  (25) 
3

$$$$

     RDKit          3D

 45 47  0  0  0  0  0  0  0  0999 V2000
  143.2460   76.5790  219.1690 C   0  0  0  0  0  0  0  0  0  0  0  0
  142.6290   75.3280  219.6240 C   0  0  2  0  0  0  0  0  0  0  0  0
  141.8090   75.4000  220.8140 N   0  0  0  0  0  0  0  0  0  0  0  0
  140.5900   74.7040  220.8080 C   0  0  0  0  0  0  0  0  0  0  0  0
  140.3280   74.0500  219.7310 O   0  0  0  0  0  0  0  0  0  0  0  0
  139.5910   74.6270  221.8670 C   0  0  0  0  0  0  0  0  0  0  0  0
  139.3700   73.3460  222.4640 N   0  0  0  0  0  0  0  0  0  0  0  0
  140.3020   72.2960  222.5930 C   0  0  0  0  0  0  0  0  0  0  0  0
  141.4740   72.3860  222.1710 O   0  0  0  0  0  0  0  0  0  0  0  0
  139.8000   71.0710  223.2680 C   0  0  0  0  0  0  0  0  0  0  0  0
  139.0910   70.1040  222.5990 C   0  0  0  0  0  0  0  0  0  0  0  0
  138.6450   68.9620  223.2500 C   0  0  0  0  0  0  0  0  0  0  0  0
  137.7370   67.7530  222.3370 Cl  0  0  0  0  0  0  0  0  0  0  0  0
  138.9090   68.7750  224.5940 C   0  0  0  0  0  0  0  0  0  0  0  0
  139.6190   69.7420  225.2650 C   0  0  0  0  0  0  0  0  0  0  0  0
  139.8780   69.5470  226.6230 C   0  0  0  0  0  0  0  0  0  0  0  0
  140.5810   70.4930  227.3340 C   0  0  0  0  0  0  0  0  0  0  0  0
  141.0260   71.6240  226.7090 C   0  0  0  0  0  0  0  0  0  0  0  0
  140.7840   71.8500  225.3480 C   0  0  0  0  0  0  0  0  0  0  0  0
  140.0680   70.8840  224.6260 C   0  0  0  0  0  0  0  0  0  0  0  0
  143.7140   74.3250  219.9720 C   0  0  0  0  0  0  0  0  0  0  0  0
  144.9090   74.8720  220.4690 C   0  0  0  0  0  0  0  0  0  0  0  0
  145.9740   74.0250  220.7810 C   0  0  0  0  0  0  0  0  0  0  0  0
  145.8100   72.6630  220.5830 C   0  0  0  0  0  0  0  0  0  0  0  0
  144.6200   72.1360  220.0910 C   0  0  0  0  0  0  0  0  0  0  0  0
  143.5510   72.9820  219.7800 C   0  0  0  0  0  0  0  0  0  0  0  0
  143.5425   77.1801  220.0413 H   0  0  0  0  0  0  0  0  0  0  0  0
  144.1346   76.3501  218.5623 H   0  0  0  0  0  0  0  0  0  0  0  0
  142.5236   77.1447  218.5623 H   0  0  0  0  0  0  0  0  0  0  0  0
  141.9810   75.0526  218.7789 H   0  0  0  0  0  0  0  0  0  0  0  0
  142.0680   75.9360  221.6500 H   0  0  0  0  0  0  0  0  0  0  0  0
  139.9021   75.3156  222.6664 H   0  0  0  0  0  0  0  0  0  0  0  0
  138.6388   74.8806  221.3782 H   0  0  0  0  0  0  0  0  0  0  0  0
  138.3980   73.1750  222.8580 H   0  0  0  0  0  0  0  0  0  0  0  0
  138.8727   70.2365  221.5290 H   0  0  0  0  0  0  0  0  0  0  0  0
  138.5585   67.8719  225.1152 H   0  0  0  0  0  0  0  0  0  0  0  0
  139.5198   68.6363  227.1253 H   0  0  0  0  0  0  0  0  0  0  0  0
  140.7844   70.3389  228.4040 H   0  0  0  0  0  0  0  0  0  0  0  0
  141.5865   72.3732  227.2874 H   0  0  0  0  0  0  0  0  0  0  0  0
  141.1473   72.7645  224.8565 H   0  0  0  0  0  0  0  0  0  0  0  0
  145.0046   75.9586  220.6111 H   0  0  0  0  0  0  0  0  0  0  0  0
  146.9190   74.4282  221.1739 H   0  0  0  0  0  0  0  0  0  0  0  0
  146.6408   71.9823  220.8206 H   0  0  0  0  0  0  0  0  0  0  0  0
  144.5198   71.0502  219.9462 H   0  0  0  0  0  0  0  0  0  0  0  0
  142.6048   72.5775  219.3914 H   0  0  0  0  0  0  0  0  0  0  0  0
  1  2  1  0
  2  3  1  0
  3  4  1  0
  4  5  2  0
  4  6  1  0
  6  7  1  0
  7  8  1  0
  8  9  2  0
  8 10  1  0
 10 11  2  0
 11 12  1  0
 12 13  1  0
 12 14  2  0
 14 15  1  0
 15 16  2  0
 16 17  1  0
 17 18  2  0
 18 19  1  0
 19 20  2  0
  2 21  1  0
 21 22  2  0
 22 23  1  0
 23 24  2  0
 24 25  1  0
 25 26  2  0
 20 10  1  0
 26 21  1  0
 20 15  1  0
  1 27  1  0
  1 28  1  0
  1 29  1  0
  2 30  1  6
  3 31  1  0
  6 32  1  0
  6 33  1  0
  7 34  1  0
 11 35  1  0
 14 36  1  0
 16 37  1  0
 17 38  1  0
 18 39  1  0
 19 40  1  0
 22 41  1  0
 23 42  1  0
 24 43  1  0
 25 44  1  0
 26 45  1  0
M  END
>  <smiles>  (26) 
C[C@H](NC(=O)CNC(=O)c1cc(Cl)cc2ccccc12)c1ccccc1

>  <score_type>  (26) 
oracle

>  <origin>  (26) 
autodockgpu

>  <m_score__min__energy>  (26) 
-8.7300000000000004

>  <m_primary>  (26) 
energy

>  <rmsd>  (26) 
7.492410437298842

>  <m_score__min__rmsd>  (26) 
7.492410437298842

>  <meeko>  (26) 
{"free_energy": -8.19, "intermolecular_energy": -9.68, "internal_energy": -1.3, "cluster_size": 11, "cluster_id": 3, "rank_in_cluster": 4}

>  <energy>  (26) 
-8.2

>  <cluster_rmsd>  (26) 
0.29

>  <cluster>  (26) 
3

$$$$

     RDKit          3D

 45 47  0  0  0  0  0  0  0  0999 V2000
  143.1790   76.5070  219.0490 C   0  0  0  0  0  0  0  0  0  0  0  0
  142.6410   75.2430  219.5630 C   0  0  2  0  0  0  0  0  0  0  0  0
  141.8700   75.3120  220.7850 N   0  0  0  0  0  0  0  0  0  0  0  0
  140.6010   74.7120  220.7900 C   0  0  0  0  0  0  0  0  0  0  0  0
  140.2520   74.1410  219.6910 O   0  0  0  0  0  0  0  0  0  0  0  0
  139.6350   74.6540  221.8800 C   0  0  0  0  0  0  0  0  0  0  0  0
  139.4010   73.3760  222.4760 N   0  0  0  0  0  0  0  0  0  0  0  0
  140.3080   72.3000  222.5660 C   0  0  0  0  0  0  0  0  0  0  0  0
  141.4670   72.3620  222.1040 O   0  0  0  0  0  0  0  0  0  0  0  0
  139.7980   71.0850  223.2510 C   0  0  0  0  0  0  0  0  0  0  0  0
  139.0810   70.1170  222.5910 C   0  0  0  0  0  0  0  0  0  0  0  0
  138.6270   68.9840  223.2510 C   0  0  0  0  0  0  0  0  0  0  0  0
  137.7090   67.7750  222.3490 Cl  0  0  0  0  0  0  0  0  0  0  0  0
  138.8910   68.8060  224.5970 C   0  0  0  0  0  0  0  0  0  0  0  0
  139.6080   69.7730  225.2590 C   0  0  0  0  0  0  0  0  0  0  0  0
  139.8670   69.5860  226.6180 C   0  0  0  0  0  0  0  0  0  0  0  0
  140.5790   70.5330  227.3220 C   0  0  0  0  0  0  0  0  0  0  0  0
  141.0320   71.6560  226.6870 C   0  0  0  0  0  0  0  0  0  0  0  0
  140.7900   71.8730  225.3250 C   0  0  0  0  0  0  0  0  0  0  0  0
  140.0650   70.9070  224.6100 C   0  0  0  0  0  0  0  0  0  0  0  0
  143.7860   74.3010  219.8910 C   0  0  0  0  0  0  0  0  0  0  0  0
  143.5640   72.9470  219.5880 C   0  0  0  0  0  0  0  0  0  0  0  0
  144.5490   72.0060  219.8900 C   0  0  0  0  0  0  0  0  0  0  0  0
  145.7190   72.4470  220.4860 C   0  0  0  0  0  0  0  0  0  0  0  0
  145.9250   73.7920  220.7790 C   0  0  0  0  0  0  0  0  0  0  0  0
  144.9410   74.7380  220.4750 C   0  0  0  0  0  0  0  0  0  0  0  0
  143.4558   77.1574  219.8918 H   0  0  0  0  0  0  0  0  0  0  0  0
  144.0687   76.3040  218.4348 H   0  0  0  0  0  0  0  0  0  0  0  0
  142.4159   77.0075  218.4348 H   0  0  0  0  0  0  0  0  0  0  0  0
  141.9719   74.9138  218.7544 H   0  0  0  0  0  0  0  0  0  0  0  0
  142.1980   75.7800  221.6380 H   0  0  0  0  0  0  0  0  0  0  0  0
  139.9891   75.3294  222.6728 H   0  0  0  0  0  0  0  0  0  0  0  0
  138.6743   74.9352  221.4238 H   0  0  0  0  0  0  0  0  0  0  0  0
  138.4390   73.2270  222.9040 H   0  0  0  0  0  0  0  0  0  0  0  0
  138.8628   70.2422  221.5202 H   0  0  0  0  0  0  0  0  0  0  0  0
  138.5347   67.9097  225.1259 H   0  0  0  0  0  0  0  0  0  0  0  0
  139.5024   68.6818  227.1274 H   0  0  0  0  0  0  0  0  0  0  0  0
  140.7825   70.3857  228.3929 H   0  0  0  0  0  0  0  0  0  0  0  0
  141.5990   72.4055  227.2587 H   0  0  0  0  0  0  0  0  0  0  0  0
  141.1601   72.7809  224.8262 H   0  0  0  0  0  0  0  0  0  0  0  0
  142.6215   72.6315  219.1166 H   0  0  0  0  0  0  0  0  0  0  0  0
  144.4001   70.9406  219.6605 H   0  0  0  0  0  0  0  0  0  0  0  0
  146.5038   71.7171  220.7336 H   0  0  0  0  0  0  0  0  0  0  0  0
  146.8654   74.1120  221.2515 H   0  0  0  0  0  0  0  0  0  0  0  0
  145.0928   75.8040  220.6998 H   0  0  0  0  0  0  0  0  0  0  0  0
  1  2  1  0
  2  3  1  0
  3  4  1  0
  4  5  2  0
  4  6  1  0
  6  7  1  0
  7  8  1  0
  8  9  2  0
  8 10  1  0
 10 11  2  0
 11 12  1  0
 12 13  1  0
 12 14  2  0
 14 15  1  0
 15 16  2  0
 16 17  1  0
 17 18  2  0
 18 19  1  0
 19 20  2  0
  2 21  1  0
 21 22  2  0
 22 23  1  0
 23 24  2  0
 24 25  1  0
 25 26  2  0
 20 10  1  0
 26 21  1  0
 20 15  1  0
  1 27  1  0
  1 28  1  0
  1 29  1  0
  2 30  1  6
  3 31  1  0
  6 32  1  0
  6 33  1  0
  7 34  1  0
 11 35  1  0
 14 36  1  0
 16 37  1  0
 17 38  1  0
 18 39  1  0
 19 40  1  0
 22 41  1  0
 23 42  1  0
 24 43  1  0
 25 44  1  0
 26 45  1  0
M  END
>  <smiles>  (27) 
C[C@H](NC(=O)CNC(=O)c1cc(Cl)cc2ccccc12)c1ccccc1

>  <score_type>  (27) 
oracle

>  <origin>  (27) 
autodockgpu

>  <m_score__min__energy>  (27) 
-8.7300000000000004

>  <m_primary>  (27) 
energy

>  <rmsd>  (27) 
7.4483288310381806

>  <m_score__min__rmsd>  (27) 
7.4483288310381806

>  <meeko>  (27) 
{"free_energy": -8.14, "intermolecular_energy": -9.64, "internal_energy": -1.3, "cluster_size": 11, "cluster_id": 3, "rank_in_cluster": 6}

>  <energy>  (27) 
-8.19

>  <cluster_rmsd>  (27) 
0.26

>  <cluster>  (27) 
3

$$$$

     RDKit          3D

 45 47  0  0  0  0  0  0  0  0999 V2000
  138.9460   77.9700  222.9220 C   0  0  0  0  0  0  0  0  0  0  0  0
  140.0980   77.8890  222.0180 C   0  0  2  0  0  0  0  0  0  0  0  0
  140.8430   76.6490  222.0190 N   0  0  0  0  0  0  0  0  0  0  0  0
  140.1600   75.4790  221.6510 C   0  0  0  0  0  0  0  0  0  0  0  0
  138.9230   75.6340  221.3320 O   0  0  0  0  0  0  0  0  0  0  0  0
  140.6760   74.1170  221.5840 C   0  0  0  0  0  0  0  0  0  0  0  0
  140.0200   73.1310  222.3850 N   0  0  0  0  0  0  0  0  0  0  0  0
  140.2940   71.7490  222.4260 C   0  0  0  0  0  0  0  0  0  0  0  0
  141.1820   71.2210  221.7240 O   0  0  0  0  0  0  0  0  0  0  0  0
  139.4580   70.9550  223.3640 C   0  0  0  0  0  0  0  0  0  0  0  0
  138.2850   70.3570  222.9740 C   0  0  0  0  0  0  0  0  0  0  0  0
  137.5290   69.6090  223.8660 C   0  0  0  0  0  0  0  0  0  0  0  0
  136.0290   68.8650  223.3060 Cl  0  0  0  0  0  0  0  0  0  0  0  0
  137.9460   69.4520  225.1750 C   0  0  0  0  0  0  0  0  0  0  0  0
  139.1200   70.0490  225.5660 C   0  0  0  0  0  0  0  0  0  0  0  0
  139.5320   69.8860  226.8910 C   0  0  0  0  0  0  0  0  0  0  0  0
  140.7000   70.4730  227.3270 C   0  0  0  0  0  0  0  0  0  0  0  0
  141.4550   71.2130  226.4610 C   0  0  0  0  0  0  0  0  0  0  0  0
  141.0710   71.3950  225.1270 C   0  0  0  0  0  0  0  0  0  0  0  0
  139.8810   70.7970  224.6850 C   0  0  0  0  0  0  0  0  0  0  0  0
  141.1200   78.9440  222.4040 C   0  0  0  0  0  0  0  0  0  0  0  0
  141.5280   78.9300  223.7490 C   0  0  0  0  0  0  0  0  0  0  0  0
  142.4370   79.8880  224.2000 C   0  0  0  0  0  0  0  0  0  0  0  0
  142.9060   80.8280  223.2950 C   0  0  0  0  0  0  0  0  0  0  0  0
  142.4930   80.8280  221.9660 C   0  0  0  0  0  0  0  0  0  0  0  0
  141.5840   79.8680  221.5110 C   0  0  0  0  0  0  0  0  0  0  0  0
  139.2957   77.9454  223.9647 H   0  0  0  0  0  0  0  0  0  0  0  0
  138.4021   78.9086  222.7397 H   0  0  0  0  0  0  0  0  0  0  0  0
  138.2761   77.1167  222.7397 H   0  0  0  0  0  0  0  0  0  0  0  0
  139.6396   78.0112  221.0256 H   0  0  0  0  0  0  0  0  0  0  0  0
  141.8330   76.5820  222.2810 H   0  0  0  0  0  0  0  0  0  0  0  0
  140.6107   73.7893  220.5360 H   0  0  0  0  0  0  0  0  0  0  0  0
  141.6966   74.1795  221.9896 H   0  0  0  0  0  0  0  0  0  0  0  0
  139.2480   73.4850  223.0240 H   0  0  0  0  0  0  0  0  0  0  0  0
  137.9384   70.4728  221.9365 H   0  0  0  0  0  0  0  0  0  0  0  0
  137.3508   68.8621  225.8876 H   0  0  0  0  0  0  0  0  0  0  0  0
  138.9238   69.2889  227.5864 H   0  0  0  0  0  0  0  0  0  0  0  0
  141.0241   70.3461  228.3705 H   0  0  0  0  0  0  0  0  0  0  0  0
  142.3858   71.6763  226.8203 H   0  0  0  0  0  0  0  0  0  0  0  0
  141.6883   71.9933  224.4408 H   0  0  0  0  0  0  0  0  0  0  0  0
  141.1341   78.1703  224.4402 H   0  0  0  0  0  0  0  0  0  0  0  0
  142.7731   79.8972  225.2474 H   0  0  0  0  0  0  0  0  0  0  0  0
  143.6211   81.5914  223.6354 H   0  0  0  0  0  0  0  0  0  0  0  0
  142.8831   81.5861  221.2709 H   0  0  0  0  0  0  0  0  0  0  0  0
  141.2515   79.8570  220.4625 H   0  0  0  0  0  0  0  0  0  0  0  0
  1  2  1  0
  2  3  1  0
  3  4  1  0
  4  5  2  0
  4  6  1  0
  6  7  1  0
  7  8  1  0
  8  9  2  0
  8 10  1  0
 10 11  2  0
 11 12  1  0
 12 13  1  0
 12 14  2  0
 14 15  1  0
 15 16  2  0
 16 17  1  0
 17 18  2  0
 18 19  1  0
 19 20  2  0
  2 21  1  0
 21 22  2  0
 22 23  1  0
 23 24  2  0
 24 25  1  0
 25 26  2  0
 20 10  1  0
 26 21  1  0
 20 15  1  0
  1 27  1  0
  1 28  1  0
  1 29  1  0
  2 30  1  6
  3 31  1  0
  6 32  1  0
  6 33  1  0
  7 34  1  0
 11 35  1  0
 14 36  1  0
 16 37  1  0
 17 38  1  0
 18 39  1  0
 19 40  1  0
 22 41  1  0
 23 42  1  0
 24 43  1  0
 25 44  1  0
 26 45  1  0
M  END
>  <smiles>  (28) 
C[C@H](NC(=O)CNC(=O)c1cc(Cl)cc2ccccc12)c1ccccc1

>  <score_type>  (28) 
oracle

>  <origin>  (28) 
autodockgpu

>  <m_score__min__energy>  (28) 
-8.7300000000000004

>  <m_primary>  (28) 
energy

>  <rmsd>  (28) 
4.679355645250788

>  <m_score__min__rmsd>  (28) 
4.679355645250788

>  <meeko>  (28) 
{"free_energy": -8.47, "intermolecular_energy": -9.96, "internal_energy": -0.94, "cluster_size": 20, "cluster_id": 1, "rank_in_cluster": 13}

>  <energy>  (28) 
-8.16

>  <cluster_rmsd>  (28) 
0.35

>  <cluster>  (28) 
3

$$$$

     RDKit          3D

 45 47  0  0  0  0  0  0  0  0999 V2000
  139.9350   67.5500  225.9360 C   0  0  0  0  0  0  0  0  0  0  0  0
  139.3670   68.8290  225.4970 C   0  0  2  0  0  0  0  0  0  0  0  0
  139.5160   69.1620  224.0970 N   0  0  0  0  0  0  0  0  0  0  0  0
  138.5140   69.9480  223.5050 C   0  0  0  0  0  0  0  0  0  0  0  0
  137.5560   70.3090  224.2850 O   0  0  0  0  0  0  0  0  0  0  0  0
  138.4260   70.4060  222.1240 C   0  0  0  0  0  0  0  0  0  0  0  0
  139.5720   71.0680  221.5820 N   0  0  0  0  0  0  0  0  0  0  0  0
  140.2920   72.1330  222.1630 C   0  0  0  0  0  0  0  0  0  0  0  0
  139.9780   72.6320  223.2640 O   0  0  0  0  0  0  0  0  0  0  0  0
  141.4540   72.6250  221.3790 C   0  0  0  0  0  0  0  0  0  0  0  0
  142.4250   71.7810  220.8980 C   0  0  0  0  0  0  0  0  0  0  0  0
  143.4930   72.2650  220.1560 C   0  0  0  0  0  0  0  0  0  0  0  0
  144.7110   71.1320  219.5650 Cl  0  0  0  0  0  0  0  0  0  0  0  0
  143.6010   73.6170  219.8850 C   0  0  0  0  0  0  0  0  0  0  0  0
  142.6300   74.4620  220.3640 C   0  0  0  0  0  0  0  0  0  0  0  0
  142.7490   75.8260  220.0880 C   0  0  0  0  0  0  0  0  0  0  0  0
  141.8010   76.7100  220.5540 C   0  0  0  0  0  0  0  0  0  0  0  0
  140.7430   76.2500  221.2880 C   0  0  0  0  0  0  0  0  0  0  0  0
  140.5940   74.8890  221.5820 C   0  0  0  0  0  0  0  0  0  0  0  0
  141.5610   73.9910  221.1050 C   0  0  0  0  0  0  0  0  0  0  0  0
  140.0540   69.9670  226.2310 C   0  0  0  0  0  0  0  0  0  0  0  0
  139.7460   70.0820  227.5980 C   0  0  0  0  0  0  0  0  0  0  0  0
  140.3040   71.1220  228.3420 C   0  0  0  0  0  0  0  0  0  0  0  0
  141.1470   72.0130  227.6970 C   0  0  0  0  0  0  0  0  0  0  0  0
  141.4440   71.8860  226.3430 C   0  0  0  0  0  0  0  0  0  0  0  0
  140.8880   70.8430  225.5960 C   0  0  0  0  0  0  0  0  0  0  0  0
  139.9510   67.5140  227.0353 H   0  0  0  0  0  0  0  0  0  0  0  0
  139.3191   66.7239  225.5510 H   0  0  0  0  0  0  0  0  0  0  0  0
  140.9608   67.4529  225.5510 H   0  0  0  0  0  0  0  0  0  0  0  0
  138.2943   68.7066  225.7075 H   0  0  0  0  0  0  0  0  0  0  0  0
  140.3040   68.8490  223.5200 H   0  0  0  0  0  0  0  0  0  0  0  0
  138.2237   69.5262  221.4955 H   0  0  0  0  0  0  0  0  0  0  0  0
  137.6328   71.1681  222.1274 H   0  0  0  0  0  0  0  0  0  0  0  0
  139.9200   70.7110  220.6440 H   0  0  0  0  0  0  0  0  0  0  0  0
  142.3548   70.7028  221.1045 H   0  0  0  0  0  0  0  0  0  0  0  0
  144.4461   74.0069  219.2987 H   0  0  0  0  0  0  0  0  0  0  0  0
  143.6008   76.1947  219.4977 H   0  0  0  0  0  0  0  0  0  0  0  0
  141.8949   77.7841  220.3361 H   0  0  0  0  0  0  0  0  0  0  0  0
  139.9922   76.9649  221.6557 H   0  0  0  0  0  0  0  0  0  0  0  0
  139.7381   74.5319  222.1736 H   0  0  0  0  0  0  0  0  0  0  0  0
  139.0706   69.3579  228.0770 H   0  0  0  0  0  0  0  0  0  0  0  0
  140.0805   71.2320  229.4134 H   0  0  0  0  0  0  0  0  0  0  0  0
  141.5922   72.8406  228.2688 H   0  0  0  0  0  0  0  0  0  0  0  0
  142.1181   72.6083  225.8593 H   0  0  0  0  0  0  0  0  0  0  0  0
  141.1160   70.7308  224.5257 H   0  0  0  0  0  0  0  0  0  0  0  0
  1  2  1  0
  2  3  1  0
  3  4  1  0
  4  5  2  0
  4  6  1  0
  6  7  1  0
  7  8  1  0
  8  9  2  0
  8 10  1  0
 10 11  2  0
 11 12  1  0
 12 13  1  0
 12 14  2  0
 14 15  1  0
 15 16  2  0
 16 17  1  0
 17 18  2  0
 18 19  1  0
 19 20  2  0
  2 21  1  0
 21 22  2  0
 22 23  1  0
 23 24  2  0
 24 25  1  0
 25 26  2  0
 20 10  1  0
 26 21  1  0
 20 15  1  0
  1 27  1  0
  1 28  1  0
  1 29  1  0
  2 30  1  1
  3 31  1  0
  6 32  1  0
  6 33  1  0
  7 34  1  0
 11 35  1  0
 14 36  1  0
 16 37  1  0
 17 38  1  0
 18 39  1  0
 19 40  1  0
 22 41  1  0
 23 42  1  0
 24 43  1  0
 25 44  1  0
 26 45  1  0
M  END
>  <smiles>  (29) 
C[C@H](NC(=O)CNC(=O)c1cc(Cl)cc2ccccc12)c1ccccc1

>  <score_type>  (29) 
oracle

>  <origin>  (29) 
autodockgpu

>  <m_score__min__energy>  (29) 
-8.7300000000000004

>  <m_primary>  (29) 
energy

>  <rmsd>  (29) 
10.465252375767442

>  <m_score__min__rmsd>  (29) 
10.465252375767442

>  <meeko>  (29) 
{"free_energy": -7.69, "intermolecular_energy": -9.19, "internal_energy": -1.4, "cluster_size": 11, "cluster_id": 5, "rank_in_cluster": 1}

>  <energy>  (29) 
-8.14

>  <cluster_rmsd>  (29) 
0.23

>  <cluster>  (29) 
3

$$$$

     RDKit          3D

 45 47  0  0  0  0  0  0  0  0999 V2000
  138.8360   77.9450  223.0150 C   0  0  0  0  0  0  0  0  0  0  0  0
  139.9400   78.0160  222.0520 C   0  0  2  0  0  0  0  0  0  0  0  0
  140.7700   76.8380  221.9240 N   0  0  0  0  0  0  0  0  0  0  0  0
  140.1250   75.6000  221.7700 C   0  0  0  0  0  0  0  0  0  0  0  0
  138.8390   75.6430  221.7450 O   0  0  0  0  0  0  0  0  0  0  0  0
  140.7290   74.2810  221.6330 C   0  0  0  0  0  0  0  0  0  0  0  0
  140.1120   73.2050  222.3450 N   0  0  0  0  0  0  0  0  0  0  0  0
  140.6100   71.8950  222.5060 C   0  0  0  0  0  0  0  0  0  0  0  0
  141.6950   71.5260  222.0100 O   0  0  0  0  0  0  0  0  0  0  0  0
  139.7590   70.9790  223.3080 C   0  0  0  0  0  0  0  0  0  0  0  0
  138.7210   70.2690  222.7550 C   0  0  0  0  0  0  0  0  0  0  0  0
  137.9500   69.4090  223.5240 C   0  0  0  0  0  0  0  0  0  0  0  0
  136.6280   68.5240  222.7570 Cl  0  0  0  0  0  0  0  0  0  0  0  0
  138.2140   69.2480  224.8710 C   0  0  0  0  0  0  0  0  0  0  0  0
  139.2530   69.9560  225.4260 C   0  0  0  0  0  0  0  0  0  0  0  0
  139.5110   69.7900  226.7880 C   0  0  0  0  0  0  0  0  0  0  0  0
  140.5390   70.4850  227.3860 C   0  0  0  0  0  0  0  0  0  0  0  0
  141.3070   71.3370  226.6430 C   0  0  0  0  0  0  0  0  0  0  0  0
  141.0750   71.5270  225.2750 C   0  0  0  0  0  0  0  0  0  0  0  0
  140.0280   70.8170  224.6690 C   0  0  0  0  0  0  0  0  0  0  0  0
  140.9030   79.1140  222.4670 C   0  0  0  0  0  0  0  0  0  0  0  0
  141.4940   78.9580  223.7330 C   0  0  0  0  0  0  0  0  0  0  0  0
  142.3640   79.9390  224.2100 C   0  0  0  0  0  0  0  0  0  0  0  0
  142.6130   81.0420  223.4090 C   0  0  0  0  0  0  0  0  0  0  0  0
  142.0220   81.1830  222.1570 C   0  0  0  0  0  0  0  0  0  0  0  0
  141.1520   80.2000  221.6760 C   0  0  0  0  0  0  0  0  0  0  0  0
  139.2395   77.9710  224.0380 H   0  0  0  0  0  0  0  0  0  0  0  0
  138.1626   78.8017  222.8646 H   0  0  0  0  0  0  0  0  0  0  0  0
  138.2779   77.0091  222.8646 H   0  0  0  0  0  0  0  0  0  0  0  0
  139.4220   78.1747  221.0947 H   0  0  0  0  0  0  0  0  0  0  0  0
  141.7960   76.8610  221.9480 H   0  0  0  0  0  0  0  0  0  0  0  0
  140.7178   74.0207  220.5643 H   0  0  0  0  0  0  0  0  0  0  0  0
  141.7306   74.3790  222.0772 H   0  0  0  0  0  0  0  0  0  0  0  0
  139.1810   73.4230  222.8080 H   0  0  0  0  0  0  0  0  0  0  0  0
  138.4972   70.3843  221.6842 H   0  0  0  0  0  0  0  0  0  0  0  0
  137.6058   68.5680  225.4855 H   0  0  0  0  0  0  0  0  0  0  0  0
  138.8925   69.1032  227.3844 H   0  0  0  0  0  0  0  0  0  0  0  0
  140.7414   70.3545  228.4593 H   0  0  0  0  0  0  0  0  0  0  0  0
  142.1261   71.8860  227.1306 H   0  0  0  0  0  0  0  0  0  0  0  0
  141.6996   72.2173  224.6891 H   0  0  0  0  0  0  0  0  0  0  0  0
  141.2723   78.0696  224.3427 H   0  0  0  0  0  0  0  0  0  0  0  0
  142.8400   79.8394  225.1967 H   0  0  0  0  0  0  0  0  0  0  0  0
  143.2946   81.8255  223.7717 H   0  0  0  0  0  0  0  0  0  0  0  0
  142.2399   82.0702  221.5443 H   0  0  0  0  0  0  0  0  0  0  0  0
  140.6804   80.2982  220.6871 H   0  0  0  0  0  0  0  0  0  0  0  0
  1  2  1  0
  2  3  1  0
  3  4  1  0
  4  5  2  0
  4  6  1  0
  6  7  1  0
  7  8  1  0
  8  9  2  0
  8 10  1  0
 10 11  2  0
 11 12  1  0
 12 13  1  0
 12 14  2  0
 14 15  1  0
 15 16  2  0
 16 17  1  0
 17 18  2  0
 18 19  1  0
 19 20  2  0
  2 21  1  0
 21 22  2  0
 22 23  1  0
 23 24  2  0
 24 25  1  0
 25 26  2  0
 20 10  1  0
 26 21  1  0
 20 15  1  0
  1 27  1  0
  1 28  1  0
  1 29  1  0
  2 30  1  6
  3 31  1  0
  6 32  1  0
  6 33  1  0
  7 34  1  0
 11 35  1  0
 14 36  1  0
 16 37  1  0
 17 38  1  0
 18 39  1  0
 19 40  1  0
 22 41  1  0
 23 42  1  0
 24 43  1  0
 25 44  1  0
 26 45  1  0
M  END
>  <smiles>  (30) 
C[C@H](NC(=O)CNC(=O)c1cc(Cl)cc2ccccc12)c1ccccc1

>  <score_type>  (30) 
oracle

>  <origin>  (30) 
autodockgpu

>  <m_score__min__energy>  (30) 
-8.7300000000000004

>  <m_primary>  (30) 
energy

>  <rmsd>  (30) 
4.617758510745564

>  <m_score__min__rmsd>  (30) 
4.617758510745564

>  <meeko>  (30) 
{"free_energy": -8.5, "intermolecular_energy": -9.99, "internal_energy": -0.96, "cluster_size": 20, "cluster_id": 1, "rank_in_cluster": 10}

>  <energy>  (30) 
-8.12

>  <cluster_rmsd>  (30) 
0.38

>  <cluster>  (30) 
3

$$$$

     RDKit          3D

 45 47  0  0  0  0  0  0  0  0999 V2000
  139.9440   67.5940  225.7640 C   0  0  0  0  0  0  0  0  0  0  0  0
  139.2440   68.8600  225.5210 C   0  0  2  0  0  0  0  0  0  0  0  0
  139.2490   69.3580  224.1630 N   0  0  0  0  0  0  0  0  0  0  0  0
  138.0890   70.0000  223.7000 C   0  0  0  0  0  0  0  0  0  0  0  0
  137.1280   70.0930  224.5510 O   0  0  0  0  0  0  0  0  0  0  0  0
  137.8410   70.5740  222.3840 C   0  0  0  0  0  0  0  0  0  0  0  0
  138.5500   71.7700  222.0490 N   0  0  0  0  0  0  0  0  0  0  0  0
  139.9230   72.0260  222.2430 C   0  0  0  0  0  0  0  0  0  0  0  0
  140.6950   71.1900  222.7580 O   0  0  0  0  0  0  0  0  0  0  0  0
  140.3980   73.3600  221.7910 C   0  0  0  0  0  0  0  0  0  0  0  0
  139.6510   74.5000  221.9600 C   0  0  0  0  0  0  0  0  0  0  0  0
  140.1220   75.7360  221.5410 C   0  0  0  0  0  0  0  0  0  0  0  0
  139.1160   77.1670  221.7840 Cl  0  0  0  0  0  0  0  0  0  0  0  0
  141.3630   75.8440  220.9410 C   0  0  0  0  0  0  0  0  0  0  0  0
  142.1120   74.7040  220.7720 C   0  0  0  0  0  0  0  0  0  0  0  0
  143.3630   74.8220  220.1620 C   0  0  0  0  0  0  0  0  0  0  0  0
  144.1450   73.7050  219.9680 C   0  0  0  0  0  0  0  0  0  0  0  0
  143.6940   72.4800  220.3740 C   0  0  0  0  0  0  0  0  0  0  0  0
  142.4450   72.3270  220.9880 C   0  0  0  0  0  0  0  0  0  0  0  0
  141.6510   73.4670  221.1850 C   0  0  0  0  0  0  0  0  0  0  0  0
  139.8990   69.9640  226.3310 C   0  0  0  0  0  0  0  0  0  0  0  0
  140.7640   70.8110  225.6160 C   0  0  0  0  0  0  0  0  0  0  0  0
  141.4370   71.8310  226.2900 C   0  0  0  0  0  0  0  0  0  0  0  0
  141.2270   71.9700  227.6520 C   0  0  0  0  0  0  0  0  0  0  0  0
  140.3660   71.1240  228.3470 C   0  0  0  0  0  0  0  0  0  0  0  0
  139.6880   70.1030  227.6740 C   0  0  0  0  0  0  0  0  0  0  0  0
  140.0358   67.4279  226.8475 H   0  0  0  0  0  0  0  0  0  0  0  0
  139.3745   66.7678  225.3134 H   0  0  0  0  0  0  0  0  0  0  0  0
  140.9465   67.6370  225.3134 H   0  0  0  0  0  0  0  0  0  0  0  0
  138.2052   68.6225  225.7938 H   0  0  0  0  0  0  0  0  0  0  0  0
  140.0470   69.2590  223.5250 H   0  0  0  0  0  0  0  0  0  0  0  0
  138.1047   69.8122  221.6356 H   0  0  0  0  0  0  0  0  0  0  0  0
  136.7808   70.8669  222.3974 H   0  0  0  0  0  0  0  0  0  0  0  0
  137.9780   72.5440  221.5990 H   0  0  0  0  0  0  0  0  0  0  0  0
  138.6617   74.4320  222.4360 H   0  0  0  0  0  0  0  0  0  0  0  0
  141.7425   76.8207  220.6063 H   0  0  0  0  0  0  0  0  0  0  0  0
  143.7242   75.8086  219.8361 H   0  0  0  0  0  0  0  0  0  0  0  0
  145.1301   73.7983  219.4875 H   0  0  0  0  0  0  0  0  0  0  0  0
  144.3267   71.5944  220.2147 H   0  0  0  0  0  0  0  0  0  0  0  0
  142.0940   71.3351  221.3088 H   0  0  0  0  0  0  0  0  0  0  0  0
  140.9090   70.6709  224.5346 H   0  0  0  0  0  0  0  0  0  0  0  0
  142.1175   72.5080  225.7528 H   0  0  0  0  0  0  0  0  0  0  0  0
  141.7527   72.7674  228.1977 H   0  0  0  0  0  0  0  0  0  0  0  0
  140.2190   71.2595  229.4287 H   0  0  0  0  0  0  0  0  0  0  0  0
  139.0034   69.4300  228.2110 H   0  0  0  0  0  0  0  0  0  0  0  0
  1  2  1  0
  2  3  1  0
  3  4  1  0
  4  5  2  0
  4  6  1  0
  6  7  1  0
  7  8  1  0
  8  9  2  0
  8 10  1  0
 10 11  2  0
 11 12  1  0
 12 13  1  0
 12 14  2  0
 14 15  1  0
 15 16  2  0
 16 17  1  0
 17 18  2  0
 18 19  1  0
 19 20  2  0
  2 21  1  0
 21 22  2  0
 22 23  1  0
 23 24  2  0
 24 25  1  0
 25 26  2  0
 20 10  1  0
 26 21  1  0
 20 15  1  0
  1 27  1  0
  1 28  1  0
  1 29  1  0
  2 30  1  1
  3 31  1  0
  6 32  1  0
  6 33  1  0
  7 34  1  0
 11 35  1  0
 14 36  1  0
 16 37  1  0
 17 38  1  0
 18 39  1  0
 19 40  1  0
 22 41  1  0
 23 42  1  0
 24 43  1  0
 25 44  1  0
 26 45  1  0
M  END
>  <smiles>  (31) 
C[C@H](NC(=O)CNC(=O)c1cc(Cl)cc2ccccc12)c1ccccc1

>  <score_type>  (31) 
oracle

>  <origin>  (31) 
autodockgpu

>  <m_score__min__energy>  (31) 
-8.7300000000000004

>  <m_primary>  (31) 
energy

>  <rmsd>  (31) 
10.612402578990654

>  <m_score__min__rmsd>  (31) 
10.612402578990654

>  <meeko>  (31) 
{"free_energy": -7.56, "intermolecular_energy": -9.05, "internal_energy": -1.92, "cluster_size": 11, "cluster_id": 5, "rank_in_cluster": 2}

>  <energy>  (31) 
-8.1

>  <cluster_rmsd>  (31) 
0.14

>  <cluster>  (31) 
3

$$$$

     RDKit          3D

 45 47  0  0  0  0  0  0  0  0999 V2000
  138.7970   78.0730  222.9930 C   0  0  0  0  0  0  0  0  0  0  0  0
  139.9830   78.0820  222.1300 C   0  0  2  0  0  0  0  0  0  0  0  0
  140.7570   76.8610  222.0720 N   0  0  0  0  0  0  0  0  0  0  0  0
  140.0850   75.6810  221.7150 C   0  0  0  0  0  0  0  0  0  0  0  0
  138.8310   75.8100  221.4580 O   0  0  0  0  0  0  0  0  0  0  0  0
  140.6310   74.3340  221.5960 C   0  0  0  0  0  0  0  0  0  0  0  0
  140.0020   73.3060  222.3670 N   0  0  0  0  0  0  0  0  0  0  0  0
  140.4570   71.9840  222.5520 C   0  0  0  0  0  0  0  0  0  0  0  0
  141.5080   71.5580  222.0290 O   0  0  0  0  0  0  0  0  0  0  0  0
  139.6040   71.1270  223.4150 C   0  0  0  0  0  0  0  0  0  0  0  0
  138.4820   70.4930  222.9400 C   0  0  0  0  0  0  0  0  0  0  0  0
  137.7090   69.6870  223.7640 C   0  0  0  0  0  0  0  0  0  0  0  0
  136.2780   68.8980  223.0960 Cl  0  0  0  0  0  0  0  0  0  0  0  0
  138.0570   69.5050  225.0890 C   0  0  0  0  0  0  0  0  0  0  0  0
  139.1800   70.1380  225.5670 C   0  0  0  0  0  0  0  0  0  0  0  0
  139.5220   69.9500  226.9080 C   0  0  0  0  0  0  0  0  0  0  0  0
  140.6360   70.5710  227.4290 C   0  0  0  0  0  0  0  0  0  0  0  0
  141.4070   71.3690  226.6310 C   0  0  0  0  0  0  0  0  0  0  0  0
  141.0920   71.5780  225.2820 C   0  0  0  0  0  0  0  0  0  0  0  0
  139.9570   70.9440  224.7540 C   0  0  0  0  0  0  0  0  0  0  0  0
  140.9640   79.1280  222.6280 C   0  0  0  0  0  0  0  0  0  0  0  0
  140.4040   80.1790  223.3760 C   0  0  0  0  0  0  0  0  0  0  0  0
  141.2280   81.2040  223.8420 C   0  0  0  0  0  0  0  0  0  0  0  0
  142.5800   81.1480  223.5440 C   0  0  0  0  0  0  0  0  0  0  0  0
  143.1200   80.1010  222.8030 C   0  0  0  0  0  0  0  0  0  0  0  0
  142.2980   79.0710  222.3370 C   0  0  0  0  0  0  0  0  0  0  0  0
  139.1107   78.0754  224.0473 H   0  0  0  0  0  0  0  0  0  0  0  0
  138.1886   78.9666  222.7894 H   0  0  0  0  0  0  0  0  0  0  0  0
  138.2023   77.1703  222.7894 H   0  0  0  0  0  0  0  0  0  0  0  0
  139.5586   78.2654  221.1319 H   0  0  0  0  0  0  0  0  0  0  0  0
  141.7590   76.8150  222.2840 H   0  0  0  0  0  0  0  0  0  0  0  0
  140.5650   74.0419  220.5375 H   0  0  0  0  0  0  0  0  0  0  0  0
  141.6534   74.4047  221.9957 H   0  0  0  0  0  0  0  0  0  0  0  0
  139.0990   73.5750  222.8570 H   0  0  0  0  0  0  0  0  0  0  0  0
  138.1909   70.6265  221.8877 H   0  0  0  0  0  0  0  0  0  0  0  0
  137.4485   68.8673  225.7471 H   0  0  0  0  0  0  0  0  0  0  0  0
  138.9017   69.3058  227.5485 H   0  0  0  0  0  0  0  0  0  0  0  0
  140.9045   70.4248  228.4857 H   0  0  0  0  0  0  0  0  0  0  0  0
  142.2950   71.8583  227.0576 H   0  0  0  0  0  0  0  0  0  0  0  0
  141.7200   72.2243  224.6512 H   0  0  0  0  0  0  0  0  0  0  0  0
  139.3255   80.1929  223.5919 H   0  0  0  0  0  0  0  0  0  0  0  0
  140.8146   82.0358  224.4312 H   0  0  0  0  0  0  0  0  0  0  0  0
  143.2423   81.9502  223.9016 H   0  0  0  0  0  0  0  0  0  0  0  0
  144.1977   80.0840  222.5832 H   0  0  0  0  0  0  0  0  0  0  0  0
  142.7136   78.2373  221.7520 H   0  0  0  0  0  0  0  0  0  0  0  0
  1  2  1  0
  2  3  1  0
  3  4  1  0
  4  5  2  0
  4  6  1  0
  6  7  1  0
  7  8  1  0
  8  9  2  0
  8 10  1  0
 10 11  2  0
 11 12  1  0
 12 13  1  0
 12 14  2  0
 14 15  1  0
 15 16  2  0
 16 17  1  0
 17 18  2  0
 18 19  1  0
 19 20  2  0
  2 21  1  0
 21 22  2  0
 22 23  1  0
 23 24  2  0
 24 25  1  0
 25 26  2  0
 20 10  1  0
 26 21  1  0
 20 15  1  0
  1 27  1  0
  1 28  1  0
  1 29  1  0
  2 30  1  6
  3 31  1  0
  6 32  1  0
  6 33  1  0
  7 34  1  0
 11 35  1  0
 14 36  1  0
 16 37  1  0
 17 38  1  0
 18 39  1  0
 19 40  1  0
 22 41  1  0
 23 42  1  0
 24 43  1  0
 25 44  1  0
 26 45  1  0
M  END
>  <smiles>  (32) 
C[C@H](NC(=O)CNC(=O)c1cc(Cl)cc2ccccc12)c1ccccc1

>  <score_type>  (32) 
oracle

>  <origin>  (32) 
autodockgpu

>  <m_score__min__energy>  (32) 
-8.7300000000000004

>  <m_primary>  (32) 
energy

>  <rmsd>  (32) 
4.607986075122369

>  <m_score__min__rmsd>  (32) 
4.607986075122369

>  <meeko>  (32) 
{"free_energy": -8.72, "intermolecular_energy": -10.21, "internal_energy": -0.9, "cluster_size": 20, "cluster_id": 1, "rank_in_cluster": 2}

>  <energy>  (32) 
-8.05

>  <cluster_rmsd>  (32) 
0.45

>  <cluster>  (32) 
3

$$$$

     RDKit          3D

 45 47  0  0  0  0  0  0  0  0999 V2000
  143.1210   76.5450  219.3970 C   0  0  0  0  0  0  0  0  0  0  0  0
  142.6090   75.2220  219.7690 C   0  0  2  0  0  0  0  0  0  0  0  0
  141.8190   75.1440  220.9780 N   0  0  0  0  0  0  0  0  0  0  0  0
  140.4780   74.7470  220.8570 C   0  0  0  0  0  0  0  0  0  0  0  0
  140.0850   74.4750  219.6620 O   0  0  0  0  0  0  0  0  0  0  0  0
  139.4820   74.6020  221.9110 C   0  0  0  0  0  0  0  0  0  0  0  0
  139.3340   73.3050  222.4950 N   0  0  0  0  0  0  0  0  0  0  0  0
  140.3080   72.2890  222.5670 C   0  0  0  0  0  0  0  0  0  0  0  0
  141.4570   72.4280  222.0970 O   0  0  0  0  0  0  0  0  0  0  0  0
  139.8810   71.0360  223.2420 C   0  0  0  0  0  0  0  0  0  0  0  0
  139.2520   70.0170  222.5690 C   0  0  0  0  0  0  0  0  0  0  0  0
  138.8760   68.8510  223.2200 C   0  0  0  0  0  0  0  0  0  0  0  0
  138.0690   67.5770  222.3020 Cl  0  0  0  0  0  0  0  0  0  0  0  0
  139.1290   68.6920  224.5700 C   0  0  0  0  0  0  0  0  0  0  0  0
  139.7590   69.7100  225.2450 C   0  0  0  0  0  0  0  0  0  0  0  0
  140.0080   69.5410  226.6090 C   0  0  0  0  0  0  0  0  0  0  0  0
  140.6320   70.5380  227.3250 C   0  0  0  0  0  0  0  0  0  0  0  0
  141.0080   71.6940  226.6990 C   0  0  0  0  0  0  0  0  0  0  0  0
  140.7730   71.8940  225.3330 C   0  0  0  0  0  0  0  0  0  0  0  0
  140.1380   70.8760  224.6050 C   0  0  0  0  0  0  0  0  0  0  0  0
  143.7730   74.2790  220.0160 C   0  0  0  0  0  0  0  0  0  0  0  0
  143.5220   72.9210  219.7500 C   0  0  0  0  0  0  0  0  0  0  0  0
  144.5250   71.9800  219.9850 C   0  0  0  0  0  0  0  0  0  0  0  0
  145.7410   72.4240  220.4790 C   0  0  0  0  0  0  0  0  0  0  0  0
  145.9750   73.7720  220.7360 C   0  0  0  0  0  0  0  0  0  0  0  0
  144.9730   74.7180  220.4990 C   0  0  0  0  0  0  0  0  0  0  0  0
  143.3440   77.1211  220.3072 H   0  0  0  0  0  0  0  0  0  0  0  0
  144.0391   76.4289  218.8024 H   0  0  0  0  0  0  0  0  0  0  0  0
  142.3639   77.0773  218.8024 H   0  0  0  0  0  0  0  0  0  0  0  0
  141.9596   74.9631  218.9197 H   0  0  0  0  0  0  0  0  0  0  0  0
  142.1850   75.3710  221.9100 H   0  0  0  0  0  0  0  0  0  0  0  0
  139.7498   75.2999  222.7180 H   0  0  0  0  0  0  0  0  0  0  0  0
  138.5183   74.8045  221.4209 H   0  0  0  0  0  0  0  0  0  0  0  0
  138.3870   73.0920  222.9270 H   0  0  0  0  0  0  0  0  0  0  0  0
  139.0427   70.1275  221.4948 H   0  0  0  0  0  0  0  0  0  0  0  0
  138.8324   67.7706  225.0925 H   0  0  0  0  0  0  0  0  0  0  0  0
  139.7053   68.6106  227.1117 H   0  0  0  0  0  0  0  0  0  0  0  0
  140.8278   70.4046  228.3992 H   0  0  0  0  0  0  0  0  0  0  0  0
  141.5057   72.4838  227.2808 H   0  0  0  0  0  0  0  0  0  0  0  0
  141.0796   72.8290  224.8412 H   0  0  0  0  0  0  0  0  0  0  0  0
  142.5436   72.6035  219.3601 H   0  0  0  0  0  0  0  0  0  0  0  0
  144.3546   70.9122  219.7831 H   0  0  0  0  0  0  0  0  0  0  0  0
  146.5406   71.6939  220.6728 H   0  0  0  0  0  0  0  0  0  0  0  0
  146.9515   74.0940  221.1268 H   0  0  0  0  0  0  0  0  0  0  0  0
  145.1463   75.7863  220.6960 H   0  0  0  0  0  0  0  0  0  0  0  0
  1  2  1  0
  2  3  1  0
  3  4  1  0
  4  5  2  0
  4  6  1  0
  6  7  1  0
  7  8  1  0
  8  9  2  0
  8 10  1  0
 10 11  2  0
 11 12  1  0
 12 13  1  0
 12 14  2  0
 14 15  1  0
 15 16  2  0
 16 17  1  0
 17 18  2  0
 18 19  1  0
 19 20  2  0
  2 21  1  0
 21 22  2  0
 22 23  1  0
 23 24  2  0
 24 25  1  0
 25 26  2  0
 20 10  1  0
 26 21  1  0
 20 15  1  0
  1 27  1  0
  1 28  1  0
  1 29  1  0
  2 30  1  6
  3 31  1  0
  6 32  1  0
  6 33  1  0
  7 34  1  0
 11 35  1  0
 14 36  1  0
 16 37  1  0
 17 38  1  0
 18 39  1  0
 19 40  1  0
 22 41  1  0
 23 42  1  0
 24 43  1  0
 25 44  1  0
 26 45  1  0
M  END
>  <smiles>  (33) 
C[C@H](NC(=O)CNC(=O)c1cc(Cl)cc2ccccc12)c1ccccc1

>  <score_type>  (33) 
oracle

>  <origin>  (33) 
autodockgpu

>  <m_score__min__energy>  (33) 
-8.7300000000000004

>  <m_primary>  (33) 
energy

>  <rmsd>  (33) 
7.4259509116214755

>  <m_score__min__rmsd>  (33) 
7.4259509116214755

>  <meeko>  (33) 
{"free_energy": -8.1, "intermolecular_energy": -9.59, "internal_energy": -1.34, "cluster_size": 11, "cluster_id": 3, "rank_in_cluster": 8}

>  <energy>  (33) 
-7.61

>  <cluster_rmsd>  (33) 
0.41

>  <cluster>  (33) 
3

$$$$

     RDKit          3D

 45 47  0  0  0  0  0  0  0  0999 V2000
  138.6890   78.0510  222.9640 C   0  0  0  0  0  0  0  0  0  0  0  0
  139.8920   78.0590  222.1250 C   0  0  2  0  0  0  0  0  0  0  0  0
  140.6780   76.8450  222.1020 N   0  0  0  0  0  0  0  0  0  0  0  0
  140.0460   75.6670  221.6700 C   0  0  0  0  0  0  0  0  0  0  0  0
  138.8140   75.7930  221.3210 O   0  0  0  0  0  0  0  0  0  0  0  0
  140.6100   74.3270  221.5670 C   0  0  0  0  0  0  0  0  0  0  0  0
  139.9900   73.2970  222.3410 N   0  0  0  0  0  0  0  0  0  0  0  0
  140.4670   71.9870  222.5520 C   0  0  0  0  0  0  0  0  0  0  0  0
  141.5340   71.5750  222.0510 O   0  0  0  0  0  0  0  0  0  0  0  0
  139.6180   71.1250  223.4140 C   0  0  0  0  0  0  0  0  0  0  0  0
  138.4940   70.4940  222.9390 C   0  0  0  0  0  0  0  0  0  0  0  0
  137.7240   69.6830  223.7610 C   0  0  0  0  0  0  0  0  0  0  0  0
  136.2890   68.8990  223.0950 Cl  0  0  0  0  0  0  0  0  0  0  0  0
  138.0790   69.4920  225.0840 C   0  0  0  0  0  0  0  0  0  0  0  0
  139.2030   70.1220  225.5600 C   0  0  0  0  0  0  0  0  0  0  0  0
  139.5520   69.9260  226.8990 C   0  0  0  0  0  0  0  0  0  0  0  0
  140.6680   70.5420  227.4180 C   0  0  0  0  0  0  0  0  0  0  0  0
  141.4360   71.3460  226.6220 C   0  0  0  0  0  0  0  0  0  0  0  0
  141.1140   71.5630  225.2770 C   0  0  0  0  0  0  0  0  0  0  0  0
  139.9770   70.9330  224.7490 C   0  0  0  0  0  0  0  0  0  0  0  0
  140.8530   79.1220  222.6270 C   0  0  0  0  0  0  0  0  0  0  0  0
  142.2040   78.9250  222.2940 C   0  0  0  0  0  0  0  0  0  0  0  0
  143.1610   79.8340  222.7460 C   0  0  0  0  0  0  0  0  0  0  0  0
  142.7390   80.9050  223.5160 C   0  0  0  0  0  0  0  0  0  0  0  0
  141.3970   81.0880  223.8380 C   0  0  0  0  0  0  0  0  0  0  0  0
  140.4350   80.1800  223.3840 C   0  0  0  0  0  0  0  0  0  0  0  0
  138.9815   78.0529  224.0244 H   0  0  0  0  0  0  0  0  0  0  0  0
  138.0857   78.9452  222.7484 H   0  0  0  0  0  0  0  0  0  0  0  0
  138.0976   77.1489  222.7484 H   0  0  0  0  0  0  0  0  0  0  0  0
  139.4867   78.2237  221.1157 H   0  0  0  0  0  0  0  0  0  0  0  0
  141.6620   76.8000  222.3900 H   0  0  0  0  0  0  0  0  0  0  0  0
  140.5560   74.0253  220.5106 H   0  0  0  0  0  0  0  0  0  0  0  0
  141.6278   74.4151  221.9748 H   0  0  0  0  0  0  0  0  0  0  0  0
  139.0740   73.5540  222.8140 H   0  0  0  0  0  0  0  0  0  0  0  0
  138.1990   70.6340  221.8886 H   0  0  0  0  0  0  0  0  0  0  0  0
  137.4743   68.8495  225.7409 H   0  0  0  0  0  0  0  0  0  0  0  0
  138.9341   69.2788  227.5388 H   0  0  0  0  0  0  0  0  0  0  0  0
  140.9419   70.3877  228.4721 H   0  0  0  0  0  0  0  0  0  0  0  0
  142.3259   71.8327  227.0476 H   0  0  0  0  0  0  0  0  0  0  0  0
  141.7390   72.2135  224.6476 H   0  0  0  0  0  0  0  0  0  0  0  0
  142.5043   78.0616  221.6823 H   0  0  0  0  0  0  0  0  0  0  0  0
  144.2244   79.7033  222.4969 H   0  0  0  0  0  0  0  0  0  0  0  0
  143.4822   81.6286  223.8821 H   0  0  0  0  0  0  0  0  0  0  0  0
  141.0925   81.9490  224.4511 H   0  0  0  0  0  0  0  0  0  0  0  0
  139.3711   80.3139  223.6296 H   0  0  0  0  0  0  0  0  0  0  0  0
  1  2  1  0
  2  3  1  0
  3  4  1  0
  4  5  2  0
  4  6  1  0
  6  7  1  0
  7  8  1  0
  8  9  2  0
  8 10  1  0
 10 11  2  0
 11 12  1  0
 12 13  1  0
 12 14  2  0
 14 15  1  0
 15 16  2  0
 16 17  1  0
 17 18  2  0
 18 19  1  0
 19 20  2  0
  2 21  1  0
 21 22  2  0
 22 23  1  0
 23 24  2  0
 24 25  1  0
 25 26  2  0
 20 10  1  0
 26 21  1  0
 20 15  1  0
  1 27  1  0
  1 28  1  0
  1 29  1  0
  2 30  1  6
  3 31  1  0
  6 32  1  0
  6 33  1  0
  7 34  1  0
 11 35  1  0
 14 36  1  0
 16 37  1  0
 17 38  1  0
 18 39  1  0
 19 40  1  0
 22 41  1  0
 23 42  1  0
 24 43  1  0
 25 44  1  0
 26 45  1  0
M  END
>  <smiles>  (34) 
C[C@H](NC(=O)CNC(=O)c1cc(Cl)cc2ccccc12)c1ccccc1

>  <score_type>  (34) 
oracle

>  <origin>  (34) 
autodockgpu

>  <m_score__min__energy>  (34) 
-8.7300000000000004

>  <m_primary>  (34) 
energy

>  <rmsd>  (34) 
4.882936772797136

>  <m_score__min__rmsd>  (34) 
4.882936772797136

>  <meeko>  (34) 
{"free_energy": -8.65, "intermolecular_energy": -10.14, "internal_energy": -0.88, "cluster_size": 20, "cluster_id": 1, "rank_in_cluster": 4}

>  <energy>  (34) 
-7.6

>  <cluster_rmsd>  (34) 
0.4

>  <cluster>  (34) 
3

$$$$

     RDKit          3D

 45 47  0  0  0  0  0  0  0  0999 V2000
  138.8190   78.0600  222.9670 C   0  0  0  0  0  0  0  0  0  0  0  0
  140.0280   78.0460  222.1360 C   0  0  2  0  0  0  0  0  0  0  0  0
  140.8010   76.8230  222.1300 N   0  0  0  0  0  0  0  0  0  0  0  0
  140.1670   75.6540  221.6790 C   0  0  0  0  0  0  0  0  0  0  0  0
  138.9460   75.7950  221.2970 O   0  0  0  0  0  0  0  0  0  0  0  0
  140.7190   74.3080  221.5860 C   0  0  0  0  0  0  0  0  0  0  0  0
  140.0700   73.2840  222.3450 N   0  0  0  0  0  0  0  0  0  0  0  0
  140.4170   71.9190  222.4020 C   0  0  0  0  0  0  0  0  0  0  0  0
  141.3750   71.4440  221.7570 O   0  0  0  0  0  0  0  0  0  0  0  0
  139.5690   71.0770  223.2850 C   0  0  0  0  0  0  0  0  0  0  0  0
  138.4370   70.4460  222.8300 C   0  0  0  0  0  0  0  0  0  0  0  0
  137.6690   69.6540  223.6720 C   0  0  0  0  0  0  0  0  0  0  0  0
  136.2230   68.8690  223.0300 Cl  0  0  0  0  0  0  0  0  0  0  0  0
  138.0330   69.4830  224.9950 C   0  0  0  0  0  0  0  0  0  0  0  0
  139.1660   70.1120  225.4510 C   0  0  0  0  0  0  0  0  0  0  0  0
  139.5240   69.9360  226.7900 C   0  0  0  0  0  0  0  0  0  0  0  0
  140.6490   70.5540  227.2900 C   0  0  0  0  0  0  0  0  0  0  0  0
  141.4150   71.3390  226.4750 C   0  0  0  0  0  0  0  0  0  0  0  0
  141.0840   71.5350  225.1280 C   0  0  0  0  0  0  0  0  0  0  0  0
  139.9380   70.9050  224.6210 C   0  0  0  0  0  0  0  0  0  0  0  0
  140.9970   79.1030  222.6350 C   0  0  0  0  0  0  0  0  0  0  0  0
  140.4150   80.1890  223.3130 C   0  0  0  0  0  0  0  0  0  0  0  0
  141.2280   81.2250  223.7730 C   0  0  0  0  0  0  0  0  0  0  0  0
  142.5920   81.1440  223.5400 C   0  0  0  0  0  0  0  0  0  0  0  0
  143.1540   80.0620  222.8690 C   0  0  0  0  0  0  0  0  0  0  0  0
  142.3420   79.0210  222.4080 C   0  0  0  0  0  0  0  0  0  0  0  0
  139.1042   78.0567  224.0294 H   0  0  0  0  0  0  0  0  0  0  0  0
  138.2335   78.9650  222.7473 H   0  0  0  0  0  0  0  0  0  0  0  0
  138.2127   77.1688  222.7473 H   0  0  0  0  0  0  0  0  0  0  0  0
  139.6316   78.2048  221.1223 H   0  0  0  0  0  0  0  0  0  0  0  0
  141.7760   76.7670  222.4440 H   0  0  0  0  0  0  0  0  0  0  0  0
  140.6852   74.0083  220.5282 H   0  0  0  0  0  0  0  0  0  0  0  0
  141.7288   74.3841  222.0156 H   0  0  0  0  0  0  0  0  0  0  0  0
  139.2410   73.5920  222.9330 H   0  0  0  0  0  0  0  0  0  0  0  0
  138.1339   70.5706  221.7800 H   0  0  0  0  0  0  0  0  0  0  0  0
  137.4285   68.8569  225.6677 H   0  0  0  0  0  0  0  0  0  0  0  0
  138.9071   69.3035  227.4453 H   0  0  0  0  0  0  0  0  0  0  0  0
  140.9305   70.4157  228.3443 H   0  0  0  0  0  0  0  0  0  0  0  0
  142.3109   71.8276  226.8855 H   0  0  0  0  0  0  0  0  0  0  0  0
  141.7091   72.1691  224.4821 H   0  0  0  0  0  0  0  0  0  0  0  0
  139.3281   80.2212  223.4791 H   0  0  0  0  0  0  0  0  0  0  0  0
  140.7974   82.0847  224.3073 H   0  0  0  0  0  0  0  0  0  0  0  0
  143.2460   81.9545  223.8940 H   0  0  0  0  0  0  0  0  0  0  0  0
  144.2404   80.0255  222.7007 H   0  0  0  0  0  0  0  0  0  0  0  0
  142.7741   78.1598  221.8773 H   0  0  0  0  0  0  0  0  0  0  0  0
  1  2  1  0
  2  3  1  0
  3  4  1  0
  4  5  2  0
  4  6  1  0
  6  7  1  0
  7  8  1  0
  8  9  2  0
  8 10  1  0
 10 11  2  0
 11 12  1  0
 12 13  1  0
 12 14  2  0
 14 15  1  0
 15 16  2  0
 16 17  1  0
 17 18  2  0
 18 19  1  0
 19 20  2  0
  2 21  1  0
 21 22  2  0
 22 23  1  0
 23 24  2  0
 24 25  1  0
 25 26  2  0
 20 10  1  0
 26 21  1  0
 20 15  1  0
  1 27  1  0
  1 28  1  0
  1 29  1  0
  2 30  1  6
  3 31  1  0
  6 32  1  0
  6 33  1  0
  7 34  1  0
 11 35  1  0
 14 36  1  0
 16 37  1  0
 17 38  1  0
 18 39  1  0
 19 40  1  0
 22 41  1  0
 23 42  1  0
 24 43  1  0
 25 44  1  0
 26 45  1  0
M  END
>  <smiles>  (35) 
C[C@H](NC(=O)CNC(=O)c1cc(Cl)cc2ccccc12)c1ccccc1

>  <score_type>  (35) 
oracle

>  <origin>  (35) 
autodockgpu

>  <m_score__min__energy>  (35) 
-8.7300000000000004

>  <m_primary>  (35) 
energy

>  <rmsd>  (35) 
4.605270974212166

>  <m_score__min__rmsd>  (35) 
4.605270974212166

>  <meeko>  (35) 
{"free_energy": -8.62, "intermolecular_energy": -10.11, "internal_energy": -0.9, "cluster_size": 20, "cluster_id": 1, "rank_in_cluster": 5}

>  <energy>  (35) 
-7.72

>  <cluster_rmsd>  (35) 
0.0

>  <cluster>  (35) 
4

$$$$

     RDKit          3D

 45 47  0  0  0  0  0  0  0  0999 V2000
  139.1980   68.8270  223.7420 C   0  0  0  0  0  0  0  0  0  0  0  0
  139.1630   70.2270  224.1740 C   0  0  2  0  0  0  0  0  0  0  0  0
  139.9110   71.1750  223.3770 N   0  0  0  0  0  0  0  0  0  0  0  0
  139.2000   72.2290  222.7810 C   0  0  0  0  0  0  0  0  0  0  0  0
  137.9350   72.2520  223.0200 O   0  0  0  0  0  0  0  0  0  0  0  0
  139.7140   73.2960  221.9310 C   0  0  0  0  0  0  0  0  0  0  0  0
  139.3020   74.6310  222.2400 N   0  0  0  0  0  0  0  0  0  0  0  0
  139.8930   75.8290  221.7880 C   0  0  0  0  0  0  0  0  0  0  0  0
  140.8900   75.8420  221.0360 O   0  0  0  0  0  0  0  0  0  0  0  0
  139.2490   77.0810  222.2620 C   0  0  0  0  0  0  0  0  0  0  0  0
  137.8850   77.2410  222.2860 C   0  0  0  0  0  0  0  0  0  0  0  0
  137.3080   78.4160  222.7470 C   0  0  0  0  0  0  0  0  0  0  0  0
  135.5480   78.5640  222.7510 Cl  0  0  0  0  0  0  0  0  0  0  0  0
  138.1010   79.4560  223.1950 C   0  0  0  0  0  0  0  0  0  0  0  0
  139.4660   79.2970  223.1740 C   0  0  0  0  0  0  0  0  0  0  0  0
  140.2600   80.3530  223.6260 C   0  0  0  0  0  0  0  0  0  0  0  0
  141.6320   80.2380  223.6160 C   0  0  0  0  0  0  0  0  0  0  0  0
  142.2170   79.0880  223.1640 C   0  0  0  0  0  0  0  0  0  0  0  0
  141.4500   78.0100  222.7050 C   0  0  0  0  0  0  0  0  0  0  0  0
  140.0520   78.1300  222.7160 C   0  0  0  0  0  0  0  0  0  0  0  0
  139.7650   70.3440  225.5630 C   0  0  0  0  0  0  0  0  0  0  0  0
  140.5480   71.4890  225.7910 C   0  0  0  0  0  0  0  0  0  0  0  0
  141.1700   71.6590  227.0290 C   0  0  0  0  0  0  0  0  0  0  0  0
  140.9920   70.6810  227.9940 C   0  0  0  0  0  0  0  0  0  0  0  0
  140.2130   69.5530  227.7540 C   0  0  0  0  0  0  0  0  0  0  0  0
  139.5860   69.3810  226.5160 C   0  0  0  0  0  0  0  0  0  0  0  0
  139.2144   68.1711  224.6249 H   0  0  0  0  0  0  0  0  0  0  0  0
  138.3051   68.6071  223.1384 H   0  0  0  0  0  0  0  0  0  0  0  0
  140.1008   68.6520  223.1384 H   0  0  0  0  0  0  0  0  0  0  0  0
  138.0956   70.4809  224.0952 H   0  0  0  0  0  0  0  0  0  0  0  0
  140.9230   71.1110  223.2200 H   0  0  0  0  0  0  0  0  0  0  0  0
  140.8121   73.2662  221.9892 H   0  0  0  0  0  0  0  0  0  0  0  0
  139.2955   73.0925  220.9343 H   0  0  0  0  0  0  0  0  0  0  0  0
  138.4550   74.7250  222.8740 H   0  0  0  0  0  0  0  0  0  0  0  0
  137.2387   76.4236  221.9337 H   0  0  0  0  0  0  0  0  0  0  0  0
  137.6494   80.3902  223.5603 H   0  0  0  0  0  0  0  0  0  0  0  0
  139.7888   81.2777  223.9905 H   0  0  0  0  0  0  0  0  0  0  0  0
  142.2569   81.0706  223.9713 H   0  0  0  0  0  0  0  0  0  0  0  0
  143.3141   79.0077  223.1608 H   0  0  0  0  0  0  0  0  0  0  0  0
  141.9326   77.0898  222.3439 H   0  0  0  0  0  0  0  0  0  0  0  0
  140.6695   72.2444  225.0007 H   0  0  0  0  0  0  0  0  0  0  0  0
  141.7860   72.5472  227.2333 H   0  0  0  0  0  0  0  0  0  0  0  0
  141.4782   70.7989  228.9737 H   0  0  0  0  0  0  0  0  0  0  0  0
  140.0901   68.7942  228.5408 H   0  0  0  0  0  0  0  0  0  0  0  0
  138.9658   68.4950  226.3148 H   0  0  0  0  0  0  0  0  0  0  0  0
  1  2  1  0
  2  3  1  0
  3  4  1  0
  4  5  2  0
  4  6  1  0
  6  7  1  0
  7  8  1  0
  8  9  2  0
  8 10  1  0
 10 11  2  0
 11 12  1  0
 12 13  1  0
 12 14  2  0
 14 15  1  0
 15 16  2  0
 16 17  1  0
 17 18  2  0
 18 19  1  0
 19 20  2  0
  2 21  1  0
 21 22  2  0
 22 23  1  0
 23 24  2  0
 24 25  1  0
 25 26  2  0
 20 10  1  0
 26 21  1  0
 20 15  1  0
  1 27  1  0
  1 28  1  0
  1 29  1  0
  2 30  1  1
  3 31  1  0
  6 32  1  0
  6 33  1  0
  7 34  1  0
 11 35  1  0
 14 36  1  0
 16 37  1  0
 17 38  1  0
 18 39  1  0
 19 40  1  0
 22 41  1  0
 23 42  1  0
 24 43  1  0
 25 44  1  0
 26 45  1  0
M  END
>  <smiles>  (36) 
C[C@H](NC(=O)CNC(=O)c1cc(Cl)cc2ccccc12)c1ccccc1

>  <score_type>  (36) 
oracle

>  <origin>  (36) 
autodockgpu

>  <m_score__min__energy>  (36) 
-8.7300000000000004

>  <m_primary>  (36) 
energy

>  <rmsd>  (36) 
10.019940915883517

>  <m_score__min__rmsd>  (36) 
10.019940915883517

>  <meeko>  (36) 
{"free_energy": -8.14, "intermolecular_energy": -9.63, "internal_energy": -1.09, "cluster_size": 3, "cluster_id": 2, "rank_in_cluster": 3}

>  <energy>  (36) 
-7.69

>  <cluster_rmsd>  (36) 
0.0

>  <cluster>  (36) 
5

$$$$

     RDKit          3D

 45 47  0  0  0  0  0  0  0  0999 V2000
  139.2220   68.3400  225.0910 C   0  0  0  0  0  0  0  0  0  0  0  0
  139.0190   69.7870  224.9640 C   0  0  2  0  0  0  0  0  0  0  0  0
  139.3980   70.3900  223.7050 N   0  0  0  0  0  0  0  0  0  0  0  0
  138.3730   70.7020  222.7970 C   0  0  0  0  0  0  0  0  0  0  0  0
  137.1790   70.4260  223.1900 O   0  0  0  0  0  0  0  0  0  0  0  0
  138.4930   71.2980  221.4720 C   0  0  0  0  0  0  0  0  0  0  0  0
  138.8850   72.6720  221.4090 N   0  0  0  0  0  0  0  0  0  0  0  0
  139.9600   73.2820  222.0870 C   0  0  0  0  0  0  0  0  0  0  0  0
  140.7130   72.6480  222.8550 O   0  0  0  0  0  0  0  0  0  0  0  0
  140.1430   74.7330  221.8270 C   0  0  0  0  0  0  0  0  0  0  0  0
  139.2720   75.6800  222.3080 C   0  0  0  0  0  0  0  0  0  0  0  0
  139.4730   77.0310  222.0630 C   0  0  0  0  0  0  0  0  0  0  0  0
  138.3170   78.2020  222.7050 Cl  0  0  0  0  0  0  0  0  0  0  0  0
  140.5630   77.4530  221.3240 C   0  0  0  0  0  0  0  0  0  0  0  0
  141.4360   76.5070  220.8430 C   0  0  0  0  0  0  0  0  0  0  0  0
  142.5330   76.9420  220.0960 C   0  0  0  0  0  0  0  0  0  0  0  0
  143.4300   76.0270  219.5900 C   0  0  0  0  0  0  0  0  0  0  0  0
  143.2450   74.6930  219.8220 C   0  0  0  0  0  0  0  0  0  0  0  0
  142.1570   74.2240  220.5670 C   0  0  0  0  0  0  0  0  0  0  0  0
  141.2450   75.1580  221.0810 C   0  0  0  0  0  0  0  0  0  0  0  0
  139.8630   70.5100  225.9990 C   0  0  0  0  0  0  0  0  0  0  0  0
  139.7130   70.0640  227.3230 C   0  0  0  0  0  0  0  0  0  0  0  0
  140.4230   70.6970  228.3440 C   0  0  0  0  0  0  0  0  0  0  0  0
  141.2550   71.7540  228.0100 C   0  0  0  0  0  0  0  0  0  0  0  0
  141.3940   72.1830  226.6930 C   0  0  0  0  0  0  0  0  0  0  0  0
  140.6850   71.5490  225.6680 C   0  0  0  0  0  0  0  0  0  0  0  0
  139.2603   68.0672  226.1559 H   0  0  0  0  0  0  0  0  0  0  0  0
  138.3896   67.8090  224.6062 H   0  0  0  0  0  0  0  0  0  0  0  0
  140.1684   68.0586  224.6062 H   0  0  0  0  0  0  0  0  0  0  0  0
  137.9304   69.8936  225.0804 H   0  0  0  0  0  0  0  0  0  0  0  0
  140.3690   70.5920  223.4420 H   0  0  0  0  0  0  0  0  0  0  0  0
  139.2390   70.7145  220.9125 H   0  0  0  0  0  0  0  0  0  0  0  0
  137.4753   71.2729  221.0553 H   0  0  0  0  0  0  0  0  0  0  0  0
  138.3040   73.2960  220.7740 H   0  0  0  0  0  0  0  0  0  0  0  0
  138.3997   75.3618  222.8978 H   0  0  0  0  0  0  0  0  0  0  0  0
  140.7276   78.5224  221.1256 H   0  0  0  0  0  0  0  0  0  0  0  0
  142.6809   78.0163  219.9115 H   0  0  0  0  0  0  0  0  0  0  0  0
  144.2933   76.3694  219.0005 H   0  0  0  0  0  0  0  0  0  0  0  0
  143.9678   73.9713  219.4138 H   0  0  0  0  0  0  0  0  0  0  0  0
  142.0200   73.1473  220.7455 H   0  0  0  0  0  0  0  0  0  0  0  0
  139.0418   69.2233  227.5526 H   0  0  0  0  0  0  0  0  0  0  0  0
  140.3248   70.3653  229.3882 H   0  0  0  0  0  0  0  0  0  0  0  0
  141.8186   72.2658  228.8040 H   0  0  0  0  0  0  0  0  0  0  0  0
  142.0637   73.0234  226.4579 H   0  0  0  0  0  0  0  0  0  0  0  0
  140.7866   71.8783  224.6234 H   0  0  0  0  0  0  0  0  0  0  0  0
  1  2  1  0
  2  3  1  0
  3  4  1  0
  4  5  2  0
  4  6  1  0
  6  7  1  0
  7  8  1  0
  8  9  2  0
  8 10  1  0
 10 11  2  0
 11 12  1  0
 12 13  1  0
 12 14  2  0
 14 15  1  0
 15 16  2  0
 16 17  1  0
 17 18  2  0
 18 19  1  0
 19 20  2  0
  2 21  1  0
 21 22  2  0
 22 23  1  0
 23 24  2  0
 24 25  1  0
 25 26  2  0
 20 10  1  0
 26 21  1  0
 20 15  1  0
  1 27  1  0
  1 28  1  0
  1 29  1  0
  2 30  1  1
  3 31  1  0
  6 32  1  0
  6 33  1  0
  7 34  1  0
 11 35  1  0
 14 36  1  0
 16 37  1  0
 17 38  1  0
 18 39  1  0
 19 40  1  0
 22 41  1  0
 23 42  1  0
 24 43  1  0
 25 44  1  0
 26 45  1  0
M  END
>  <smiles>  (37) 
C[C@H](NC(=O)CNC(=O)c1cc(Cl)cc2ccccc12)c1ccccc1

>  <score_type>  (37) 
oracle

>  <origin>  (37) 
autodockgpu

>  <m_score__min__energy>  (37) 
-8.7300000000000004

>  <m_primary>  (37) 
energy

>  <rmsd>  (37) 
9.899951799334675

>  <m_score__min__rmsd>  (37) 
9.899951799334675

>  <meeko>  (37) 
{"free_energy": -7.47, "intermolecular_energy": -8.96, "internal_energy": -1.85, "cluster_size": 4, "cluster_id": 6, "rank_in_cluster": 1}

>  <energy>  (37) 
-7.56

>  <cluster_rmsd>  (37) 
1.83

>  <cluster>  (37) 
5

$$$$

     RDKit          3D

 45 47  0  0  0  0  0  0  0  0999 V2000
  138.8200   78.0530  222.9810 C   0  0  0  0  0  0  0  0  0  0  0  0
  140.0010   78.0650  222.1110 C   0  0  2  0  0  0  0  0  0  0  0  0
  140.7640   76.8380  222.0310 N   0  0  0  0  0  0  0  0  0  0  0  0
  140.0730   75.6610  221.7020 C   0  0  0  0  0  0  0  0  0  0  0  0
  138.8110   75.7980  221.4880 O   0  0  0  0  0  0  0  0  0  0  0  0
  140.6050   74.3100  221.5710 C   0  0  0  0  0  0  0  0  0  0  0  0
  139.9800   73.2850  222.3480 N   0  0  0  0  0  0  0  0  0  0  0  0
  140.4510   71.9740  222.5610 C   0  0  0  0  0  0  0  0  0  0  0  0
  141.5160   71.5550  222.0610 O   0  0  0  0  0  0  0  0  0  0  0  0
  139.5980   71.1180  223.4250 C   0  0  0  0  0  0  0  0  0  0  0  0
  138.4680   70.4940  222.9530 C   0  0  0  0  0  0  0  0  0  0  0  0
  137.6950   69.6880  223.7780 C   0  0  0  0  0  0  0  0  0  0  0  0
  136.2530   68.9150  223.1150 Cl  0  0  0  0  0  0  0  0  0  0  0  0
  138.0510   69.4960  225.1000 C   0  0  0  0  0  0  0  0  0  0  0  0
  139.1810   70.1180  225.5730 C   0  0  0  0  0  0  0  0  0  0  0  0
  139.5310   69.9200  226.9100 C   0  0  0  0  0  0  0  0  0  0  0  0
  140.6530   70.5290  227.4280 C   0  0  0  0  0  0  0  0  0  0  0  0
  141.4250   71.3270  226.6290 C   0  0  0  0  0  0  0  0  0  0  0  0
  141.1020   71.5450  225.2850 C   0  0  0  0  0  0  0  0  0  0  0  0
  139.9590   70.9240  224.7600 C   0  0  0  0  0  0  0  0  0  0  0  0
  140.9940   79.0960  222.6180 C   0  0  0  0  0  0  0  0  0  0  0  0
  140.4460   80.1480  223.3720 C   0  0  0  0  0  0  0  0  0  0  0  0
  141.2810   81.1600  223.8460 C   0  0  0  0  0  0  0  0  0  0  0  0
  142.6330   81.0890  223.5500 C   0  0  0  0  0  0  0  0  0  0  0  0
  143.1620   80.0400  222.8030 C   0  0  0  0  0  0  0  0  0  0  0  0
  142.3270   79.0240  222.3290 C   0  0  0  0  0  0  0  0  0  0  0  0
  139.1399   78.0563  224.0335 H   0  0  0  0  0  0  0  0  0  0  0  0
  138.2081   78.9450  222.7810 H   0  0  0  0  0  0  0  0  0  0  0  0
  138.2264   77.1488  222.7810 H   0  0  0  0  0  0  0  0  0  0  0  0
  139.5727   78.2668  221.1181 H   0  0  0  0  0  0  0  0  0  0  0  0
  141.7730   76.7850  222.2100 H   0  0  0  0  0  0  0  0  0  0  0  0
  140.5201   74.0217  220.5128 H   0  0  0  0  0  0  0  0  0  0  0  0
  141.6337   74.3710  221.9557 H   0  0  0  0  0  0  0  0  0  0  0  0
  139.0650   73.5480  222.8190 H   0  0  0  0  0  0  0  0  0  0  0  0
  138.1709   70.6356  221.9034 H   0  0  0  0  0  0  0  0  0  0  0  0
  137.4427   68.8590  225.7589 H   0  0  0  0  0  0  0  0  0  0  0  0
  138.9100   69.2768  227.5508 H   0  0  0  0  0  0  0  0  0  0  0  0
  140.9275   70.3739  228.4818 H   0  0  0  0  0  0  0  0  0  0  0  0
  142.3192   71.8079  227.0522 H   0  0  0  0  0  0  0  0  0  0  0  0
  141.7311   72.1897  224.6536 H   0  0  0  0  0  0  0  0  0  0  0  0
  139.3674   80.1731  223.5866 H   0  0  0  0  0  0  0  0  0  0  0  0
  140.8766   81.9931  224.4396 H   0  0  0  0  0  0  0  0  0  0  0  0
  143.3044   81.8806  223.9141 H   0  0  0  0  0  0  0  0  0  0  0  0
  144.2398   80.0106  222.5852 H   0  0  0  0  0  0  0  0  0  0  0  0
  142.7326   78.1889  221.7390 H   0  0  0  0  0  0  0  0  0  0  0  0
  1  2  1  0
  2  3  1  0
  3  4  1  0
  4  5  2  0
  4  6  1  0
  6  7  1  0
  7  8  1  0
  8  9  2  0
  8 10  1  0
 10 11  2  0
 11 12  1  0
 12 13  1  0
 12 14  2  0
 14 15  1  0
 15 16  2  0
 16 17  1  0
 17 18  2  0
 18 19  1  0
 19 20  2  0
  2 21  1  0
 21 22  2  0
 22 23  1  0
 23 24  2  0
 24 25  1  0
 25 26  2  0
 20 10  1  0
 26 21  1  0
 20 15  1  0
  1 27  1  0
  1 28  1  0
  1 29  1  0
  2 30  1  6
  3 31  1  0
  6 32  1  0
  6 33  1  0
  7 34  1  0
 11 35  1  0
 14 36  1  0
 16 37  1  0
 17 38  1  0
 18 39  1  0
 19 40  1  0
 22 41  1  0
 23 42  1  0
 24 43  1  0
 25 44  1  0
 26 45  1  0
M  END
>  <smiles>  (38) 
C[C@H](NC(=O)CNC(=O)c1cc(Cl)cc2ccccc12)c1ccccc1

>  <score_type>  (38) 
oracle

>  <origin>  (38) 
autodockgpu

>  <m_score__min__energy>  (38) 
-8.7300000000000004

>  <m_primary>  (38) 
energy

>  <rmsd>  (38) 
4.624682429491694

>  <m_score__min__rmsd>  (38) 
4.624682429491694

>  <meeko>  (38) 
{"free_energy": -8.73, "intermolecular_energy": -10.22, "internal_energy": -0.88, "cluster_size": 20, "cluster_id": 1, "rank_in_cluster": 1}

>  <energy>  (38) 
-7.56

>  <cluster_rmsd>  (38) 
1.82

>  <cluster>  (38) 
5

$$$$

     RDKit          3D

 45 47  0  0  0  0  0  0  0  0999 V2000
  138.8050   78.0100  223.0370 C   0  0  0  0  0  0  0  0  0  0  0  0
  139.8740   78.0050  222.0330 C   0  0  2  0  0  0  0  0  0  0  0  0
  140.6260   76.7770  221.8890 N   0  0  0  0  0  0  0  0  0  0  0  0
  139.9020   75.5880  221.7050 C   0  0  0  0  0  0  0  0  0  0  0  0
  138.6220   75.7150  221.6710 O   0  0  0  0  0  0  0  0  0  0  0  0
  140.4190   74.2340  221.5470 C   0  0  0  0  0  0  0  0  0  0  0  0
  139.8290   73.2120  222.3560 N   0  0  0  0  0  0  0  0  0  0  0  0
  140.4060   71.9800  222.7240 C   0  0  0  0  0  0  0  0  0  0  0  0
  141.5500   71.6390  222.3560 O   0  0  0  0  0  0  0  0  0  0  0  0
  139.5650   71.1080  223.5850 C   0  0  0  0  0  0  0  0  0  0  0  0
  138.4280   70.4940  223.1180 C   0  0  0  0  0  0  0  0  0  0  0  0
  137.6670   69.6740  223.9380 C   0  0  0  0  0  0  0  0  0  0  0  0
  136.2150   68.9120  223.2820 Cl  0  0  0  0  0  0  0  0  0  0  0  0
  138.0420   69.4570  225.2520 C   0  0  0  0  0  0  0  0  0  0  0  0
  139.1790   70.0700  225.7200 C   0  0  0  0  0  0  0  0  0  0  0  0
  139.5480   69.8470  227.0480 C   0  0  0  0  0  0  0  0  0  0  0  0
  140.6780   70.4460  227.5600 C   0  0  0  0  0  0  0  0  0  0  0  0
  141.4380   71.2580  226.7650 C   0  0  0  0  0  0  0  0  0  0  0  0
  141.0960   71.5020  225.4300 C   0  0  0  0  0  0  0  0  0  0  0  0
  139.9450   70.8900  224.9110 C   0  0  0  0  0  0  0  0  0  0  0  0
  140.9170   79.0460  222.3980 C   0  0  0  0  0  0  0  0  0  0  0  0
  141.5180   78.8880  223.6590 C   0  0  0  0  0  0  0  0  0  0  0  0
  142.4610   79.8210  224.0910 C   0  0  0  0  0  0  0  0  0  0  0  0
  142.7710   80.8800  223.2520 C   0  0  0  0  0  0  0  0  0  0  0  0
  142.1680   81.0230  222.0060 C   0  0  0  0  0  0  0  0  0  0  0  0
  141.2240   80.0880  221.5690 C   0  0  0  0  0  0  0  0  0  0  0  0
  139.2477   78.0079  224.0440 H   0  0  0  0  0  0  0  0  0  0  0  0
  138.1869   78.9111  222.9100 H   0  0  0  0  0  0  0  0  0  0  0  0
  138.1785   77.1148  222.9100 H   0  0  0  0  0  0  0  0  0  0  0  0
  139.3305   78.1864  221.0940 H   0  0  0  0  0  0  0  0  0  0  0  0
  141.6510   76.7320  221.9210 H   0  0  0  0  0  0  0  0  0  0  0  0
  140.2779   73.9462  220.4947 H   0  0  0  0  0  0  0  0  0  0  0  0
  141.4666   74.2892  221.8779 H   0  0  0  0  0  0  0  0  0  0  0  0
  138.8520   73.4120  222.7230 H   0  0  0  0  0  0  0  0  0  0  0  0
  138.1158   70.6556  222.0757 H   0  0  0  0  0  0  0  0  0  0  0  0
  137.4429   68.8079  225.9076 H   0  0  0  0  0  0  0  0  0  0  0  0
  138.9359   69.1925  227.6860 H   0  0  0  0  0  0  0  0  0  0  0  0
  140.9682   70.2713  228.6065 H   0  0  0  0  0  0  0  0  0  0  0  0
  142.3387   71.7303  227.1841 H   0  0  0  0  0  0  0  0  0  0  0  0
  141.7156   72.1588  224.8017 H   0  0  0  0  0  0  0  0  0  0  0  0
  141.2470   78.0359  224.2997 H   0  0  0  0  0  0  0  0  0  0  0  0
  142.9464   79.7188  225.0728 H   0  0  0  0  0  0  0  0  0  0  0  0
  143.5113   81.6251  223.5789 H   0  0  0  0  0  0  0  0  0  0  0  0
  142.4347   81.8744  221.3625 H   0  0  0  0  0  0  0  0  0  0  0  0
  140.7421   80.1887  220.5853 H   0  0  0  0  0  0  0  0  0  0  0  0
  1  2  1  0
  2  3  1  0
  3  4  1  0
  4  5  2  0
  4  6  1  0
  6  7  1  0
  7  8  1  0
  8  9  2  0
  8 10  1  0
 10 11  2  0
 11 12  1  0
 12 13  1  0
 12 14  2  0
 14 15  1  0
 15 16  2  0
 16 17  1  0
 17 18  2  0
 18 19  1  0
 19 20  2  0
  2 21  1  0
 21 22  2  0
 22 23  1  0
 23 24  2  0
 24 25  1  0
 25 26  2  0
 20 10  1  0
 26 21  1  0
 20 15  1  0
  1 27  1  0
  1 28  1  0
  1 29  1  0
  2 30  1  6
  3 31  1  0
  6 32  1  0
  6 33  1  0
  7 34  1  0
 11 35  1  0
 14 36  1  0
 16 37  1  0
 17 38  1  0
 18 39  1  0
 19 40  1  0
 22 41  1  0
 23 42  1  0
 24 43  1  0
 25 44  1  0
 26 45  1  0
M  END
>  <smiles>  (39) 
C[C@H](NC(=O)CNC(=O)c1cc(Cl)cc2ccccc12)c1ccccc1

>  <score_type>  (39) 
oracle

>  <origin>  (39) 
autodockgpu

>  <m_score__min__energy>  (39) 
-8.7300000000000004

>  <m_primary>  (39) 
energy

>  <rmsd>  (39) 
4.673775888662275

>  <m_score__min__rmsd>  (39) 
4.673775888662275

>  <meeko>  (39) 
{"free_energy": -8.52, "intermolecular_energy": -10.01, "internal_energy": -0.96, "cluster_size": 20, "cluster_id": 1, "rank_in_cluster": 9}

>  <energy>  (39) 
-7.55

>  <cluster_rmsd>  (39) 
1.81

>  <cluster>  (39) 
5

$$$$

     RDKit          3D

 45 47  0  0  0  0  0  0  0  0999 V2000
  139.1220   76.6340  222.4140 C   0  0  0  0  0  0  0  0  0  0  0  0
  140.3970   76.7490  221.7000 C   0  0  2  0  0  0  0  0  0  0  0  0
  141.3440   75.6690  221.8770 N   0  0  0  0  0  0  0  0  0  0  0  0
  141.1130   74.4780  221.1700 C   0  0  0  0  0  0  0  0  0  0  0  0
  140.0720   74.4730  220.4130 O   0  0  0  0  0  0  0  0  0  0  0  0
  141.9030   73.2530  221.1850 C   0  0  0  0  0  0  0  0  0  0  0  0
  141.4050   72.1650  221.9680 N   0  0  0  0  0  0  0  0  0  0  0  0
  140.1930   72.1200  222.6880 C   0  0  0  0  0  0  0  0  0  0  0  0
  139.3960   73.0810  222.7170 O   0  0  0  0  0  0  0  0  0  0  0  0
  139.9220   70.8510  223.4110 C   0  0  0  0  0  0  0  0  0  0  0  0
  139.3750   69.7560  222.7890 C   0  0  0  0  0  0  0  0  0  0  0  0
  139.1440   68.5760  223.4840 C   0  0  0  0  0  0  0  0  0  0  0  0
  138.4370   67.2020  222.6310 Cl  0  0  0  0  0  0  0  0  0  0  0  0
  139.4640   68.4820  224.8260 C   0  0  0  0  0  0  0  0  0  0  0  0
  140.0130   69.5760  225.4490 C   0  0  0  0  0  0  0  0  0  0  0  0
  140.3300   69.4720  226.8050 C   0  0  0  0  0  0  0  0  0  0  0  0
  140.8770   70.5480  227.4700 C   0  0  0  0  0  0  0  0  0  0  0  0
  141.1090   71.7170  226.8010 C   0  0  0  0  0  0  0  0  0  0  0  0
  140.8030   71.8540  225.4410 C   0  0  0  0  0  0  0  0  0  0  0  0
  140.2470   70.7570  224.7660 C   0  0  0  0  0  0  0  0  0  0  0  0
  141.1380   77.9840  222.1810 C   0  0  0  0  0  0  0  0  0  0  0  0
  141.4810   78.9140  221.1840 C   0  0  0  0  0  0  0  0  0  0  0  0
  142.1960   80.0600  221.5320 C   0  0  0  0  0  0  0  0  0  0  0  0
  142.5470   80.2390  222.8600 C   0  0  0  0  0  0  0  0  0  0  0  0
  142.1990   79.3100  223.8370 C   0  0  0  0  0  0  0  0  0  0  0  0
  141.4810   78.1610  223.4920 C   0  0  0  0  0  0  0  0  0  0  0  0
  139.3062   76.6506  223.4983 H   0  0  0  0  0  0  0  0  0  0  0  0
  138.4708   77.4771  222.1397 H   0  0  0  0  0  0  0  0  0  0  0  0
  138.6322   75.6880  222.1397 H   0  0  0  0  0  0  0  0  0  0  0  0
  140.0865   76.7619  220.6448 H   0  0  0  0  0  0  0  0  0  0  0  0
  142.1620   75.7270  222.4940 H   0  0  0  0  0  0  0  0  0  0  0  0
  141.9886   72.9014  220.1462 H   0  0  0  0  0  0  0  0  0  0  0  0
  142.8538   73.5340  221.6614 H   0  0  0  0  0  0  0  0  0  0  0  0
  142.0140   71.2950  222.0020 H   0  0  0  0  0  0  0  0  0  0  0  0
  139.1152   69.8143  221.7217 H   0  0  0  0  0  0  0  0  0  0  0  0
  139.2827   67.5508  225.3828 H   0  0  0  0  0  0  0  0  0  0  0  0
  140.1430   68.5307  227.3426 H   0  0  0  0  0  0  0  0  0  0  0  0
  141.1266   70.4661  228.5382 H   0  0  0  0  0  0  0  0  0  0  0  0
  141.5457   72.5691  227.3425 H   0  0  0  0  0  0  0  0  0  0  0  0
  140.9943   72.8004  224.9141 H   0  0  0  0  0  0  0  0  0  0  0  0
  141.1880   78.7394  220.1382 H   0  0  0  0  0  0  0  0  0  0  0  0
  142.4743   80.8034  220.7705 H   0  0  0  0  0  0  0  0  0  0  0  0
  143.1139   81.1361  223.1495 H   0  0  0  0  0  0  0  0  0  0  0  0
  142.4900   79.4807  224.8840 H   0  0  0  0  0  0  0  0  0  0  0  0
  141.1999   77.4199  224.2548 H   0  0  0  0  0  0  0  0  0  0  0  0
  1  2  1  0
  2  3  1  0
  3  4  1  0
  4  5  2  0
  4  6  1  0
  6  7  1  0
  7  8  1  0
  8  9  2  0
  8 10  1  0
 10 11  2  0
 11 12  1  0
 12 13  1  0
 12 14  2  0
 14 15  1  0
 15 16  2  0
 16 17  1  0
 17 18  2  0
 18 19  1  0
 19 20  2  0
  2 21  1  0
 21 22  2  0
 22 23  1  0
 23 24  2  0
 24 25  1  0
 25 26  2  0
 20 10  1  0
 26 21  1  0
 20 15  1  0
  1 27  1  0
  1 28  1  0
  1 29  1  0
  2 30  1  6
  3 31  1  0
  6 32  1  0
  6 33  1  0
  7 34  1  0
 11 35  1  0
 14 36  1  0
 16 37  1  0
 17 38  1  0
 18 39  1  0
 19 40  1  0
 22 41  1  0
 23 42  1  0
 24 43  1  0
 25 44  1  0
 26 45  1  0
M  END
>  <smiles>  (40) 
C[C@H](NC(=O)CNC(=O)c1cc(Cl)cc2ccccc12)c1ccccc1

>  <score_type>  (40) 
oracle

>  <origin>  (40) 
autodockgpu

>  <m_score__min__energy>  (40) 
-8.7300000000000004

>  <m_primary>  (40) 
energy

>  <rmsd>  (40) 
5.245164206952351

>  <m_score__min__rmsd>  (40) 
5.245164206952351

>  <meeko>  (40) 
{"free_energy": -8.41, "intermolecular_energy": -9.9, "internal_energy": -0.96, "cluster_size": 20, "cluster_id": 1, "rank_in_cluster": 15}

>  <energy>  (40) 
-7.55

>  <cluster_rmsd>  (40) 
1.81

>  <cluster>  (40) 
5

$$$$

     RDKit          3D

 45 47  0  0  0  0  0  0  0  0999 V2000
  143.1150   76.4390  219.4790 C   0  0  0  0  0  0  0  0  0  0  0  0
  142.6670   75.0740  219.7760 C   0  0  2  0  0  0  0  0  0  0  0  0
  141.8660   74.8970  220.9680 N   0  0  0  0  0  0  0  0  0  0  0  0
  140.4710   74.9870  220.8340 C   0  0  0  0  0  0  0  0  0  0  0  0
  140.0400   75.2100  219.6420 O   0  0  0  0  0  0  0  0  0  0  0  0
  139.4560   74.8580  221.8720 C   0  0  0  0  0  0  0  0  0  0  0  0
  139.2440   73.5540  222.4190 N   0  0  0  0  0  0  0  0  0  0  0  0
  140.2110   72.5440  222.6090 C   0  0  0  0  0  0  0  0  0  0  0  0
  141.4100   72.6980  222.2960 O   0  0  0  0  0  0  0  0  0  0  0  0
  139.7100   71.2810  223.2100 C   0  0  0  0  0  0  0  0  0  0  0  0
  138.9610   70.3770  222.4980 C   0  0  0  0  0  0  0  0  0  0  0  0
  138.5170   69.1970  223.0790 C   0  0  0  0  0  0  0  0  0  0  0  0
  137.5550   68.0740  222.1140 Cl  0  0  0  0  0  0  0  0  0  0  0  0
  138.8240   68.9080  224.3960 C   0  0  0  0  0  0  0  0  0  0  0  0
  139.5750   69.8110  225.1090 C   0  0  0  0  0  0  0  0  0  0  0  0
  139.8770   69.5110  226.4390 C   0  0  0  0  0  0  0  0  0  0  0  0
  140.6230   70.3920  227.1920 C   0  0  0  0  0  0  0  0  0  0  0  0
  141.0660   71.5590  226.6350 C   0  0  0  0  0  0  0  0  0  0  0  0
  140.7810   71.8880  225.3040 C   0  0  0  0  0  0  0  0  0  0  0  0
  140.0220   70.9900  224.5390 C   0  0  0  0  0  0  0  0  0  0  0  0
  143.8750   74.1810  219.9970 C   0  0  0  0  0  0  0  0  0  0  0  0
  143.7030   72.8300  219.6520 C   0  0  0  0  0  0  0  0  0  0  0  0
  144.7490   71.9300  219.8560 C   0  0  0  0  0  0  0  0  0  0  0  0
  145.9310   72.4090  220.4000 C   0  0  0  0  0  0  0  0  0  0  0  0
  146.0880   73.7500  220.7360 C   0  0  0  0  0  0  0  0  0  0  0  0
  145.0410   74.6540  220.5300 C   0  0  0  0  0  0  0  0  0  0  0  0
  143.2924   76.9797  220.4204 H   0  0  0  0  0  0  0  0  0  0  0  0
  144.0476   76.4004  218.8970 H   0  0  0  0  0  0  0  0  0  0  0  0
  142.3409   76.9605  218.8970 H   0  0  0  0  0  0  0  0  0  0  0  0
  142.0447   74.8239  218.9041 H   0  0  0  0  0  0  0  0  0  0  0  0
  142.2620   74.7180  221.8970 H   0  0  0  0  0  0  0  0  0  0  0  0
  139.7435   75.5219  222.7006 H   0  0  0  0  0  0  0  0  0  0  0  0
  138.5084   75.1154  221.3761 H   0  0  0  0  0  0  0  0  0  0  0  0
  138.2510   73.3280  222.7210 H   0  0  0  0  0  0  0  0  0  0  0  0
  138.7084   70.5915  221.4491 H   0  0  0  0  0  0  0  0  0  0  0  0
  138.4745   67.9753  224.8627 H   0  0  0  0  0  0  0  0  0  0  0  0
  139.5195   68.5715  226.8857 H   0  0  0  0  0  0  0  0  0  0  0  0
  140.8615   70.1563  228.2396 H   0  0  0  0  0  0  0  0  0  0  0  0
  141.6595   72.2551  227.2458 H   0  0  0  0  0  0  0  0  0  0  0  0
  141.1444   72.8302  224.8678 H   0  0  0  0  0  0  0  0  0  0  0  0
  142.7504   72.4845  219.2241 H   0  0  0  0  0  0  0  0  0  0  0  0
  144.6390   70.8678  219.5922 H   0  0  0  0  0  0  0  0  0  0  0  0
  146.7648   71.7119  220.5700 H   0  0  0  0  0  0  0  0  0  0  0  0
  147.0385   74.1002  221.1649 H   0  0  0  0  0  0  0  0  0  0  0  0
  145.1530   75.7169  220.7900 H   0  0  0  0  0  0  0  0  0  0  0  0
  1  2  1  0
  2  3  1  0
  3  4  1  0
  4  5  2  0
  4  6  1  0
  6  7  1  0
  7  8  1  0
  8  9  2  0
  8 10  1  0
 10 11  2  0
 11 12  1  0
 12 13  1  0
 12 14  2  0
 14 15  1  0
 15 16  2  0
 16 17  1  0
 17 18  2  0
 18 19  1  0
 19 20  2  0
  2 21  1  0
 21 22  2  0
 22 23  1  0
 23 24  2  0
 24 25  1  0
 25 26  2  0
 20 10  1  0
 26 21  1  0
 20 15  1  0
  1 27  1  0
  1 28  1  0
  1 29  1  0
  2 30  1  6
  3 31  1  0
  6 32  1  0
  6 33  1  0
  7 34  1  0
 11 35  1  0
 14 36  1  0
 16 37  1  0
 17 38  1  0
 18 39  1  0
 19 40  1  0
 22 41  1  0
 23 42  1  0
 24 43  1  0
 25 44  1  0
 26 45  1  0
M  END
>  <smiles>  (41) 
C[C@H](NC(=O)CNC(=O)c1cc(Cl)cc2ccccc12)c1ccccc1

>  <score_type>  (41) 
oracle

>  <origin>  (41) 
autodockgpu

>  <m_score__min__energy>  (41) 
-8.7300000000000004

>  <m_primary>  (41) 
energy

>  <rmsd>  (41) 
7.4453810156977696

>  <m_score__min__rmsd>  (41) 
7.4453810156977696

>  <meeko>  (41) 
{"free_energy": -7.61, "intermolecular_energy": -9.11, "internal_energy": -1.74, "cluster_size": 11, "cluster_id": 3, "rank_in_cluster": 10}

>  <energy>  (41) 
-7.52

>  <cluster_rmsd>  (41) 
1.84

>  <cluster>  (41) 
5

$$$$

     RDKit          3D

 45 47  0  0  0  0  0  0  0  0999 V2000
  138.8390   78.0450  223.0640 C   0  0  0  0  0  0  0  0  0  0  0  0
  139.9560   78.0230  222.1150 C   0  0  2  0  0  0  0  0  0  0  0  0
  140.7440   76.8100  222.0620 N   0  0  0  0  0  0  0  0  0  0  0  0
  140.0870   75.6220  221.7050 C   0  0  0  0  0  0  0  0  0  0  0  0
  138.8320   75.7380  221.4430 O   0  0  0  0  0  0  0  0  0  0  0  0
  140.6470   74.2810  221.5910 C   0  0  0  0  0  0  0  0  0  0  0  0
  140.0320   73.2500  222.3680 N   0  0  0  0  0  0  0  0  0  0  0  0
  140.5080   71.9380  222.5690 C   0  0  0  0  0  0  0  0  0  0  0  0
  141.5690   71.5250  222.0560 O   0  0  0  0  0  0  0  0  0  0  0  0
  139.6650   71.0740  223.4350 C   0  0  0  0  0  0  0  0  0  0  0  0
  138.5730   70.3950  222.9540 C   0  0  0  0  0  0  0  0  0  0  0  0
  137.8100   69.5830  223.7810 C   0  0  0  0  0  0  0  0  0  0  0  0
  136.4170   68.7360  223.1050 Cl  0  0  0  0  0  0  0  0  0  0  0  0
  138.1380   69.4420  225.1170 C   0  0  0  0  0  0  0  0  0  0  0  0
  139.2310   70.1210  225.6010 C   0  0  0  0  0  0  0  0  0  0  0  0
  139.5520   69.9750  226.9520 C   0  0  0  0  0  0  0  0  0  0  0  0
  140.6360   70.6410  227.4790 C   0  0  0  0  0  0  0  0  0  0  0  0
  141.3980   71.4450  226.6770 C   0  0  0  0  0  0  0  0  0  0  0  0
  141.1020   71.6130  225.3190 C   0  0  0  0  0  0  0  0  0  0  0  0
  139.9980   70.9330  224.7840 C   0  0  0  0  0  0  0  0  0  0  0  0
  140.9550   79.1060  222.4830 C   0  0  0  0  0  0  0  0  0  0  0  0
  141.4990   79.0170  223.7760 C   0  0  0  0  0  0  0  0  0  0  0  0
  142.3980   79.9920  224.2110 C   0  0  0  0  0  0  0  0  0  0  0  0
  142.7200   81.0230  223.3430 C   0  0  0  0  0  0  0  0  0  0  0  0
  142.1740   81.0980  222.0650 C   0  0  0  0  0  0  0  0  0  0  0  0
  141.2750   80.1210  221.6260 C   0  0  0  0  0  0  0  0  0  0  0  0
  139.2309   78.0373  224.0918 H   0  0  0  0  0  0  0  0  0  0  0  0
  138.2416   78.9551  222.9062 H   0  0  0  0  0  0  0  0  0  0  0  0
  138.2063   77.1591  222.9062 H   0  0  0  0  0  0  0  0  0  0  0  0
  139.4548   78.1481  221.1438 H   0  0  0  0  0  0  0  0  0  0  0  0
  141.7460   76.7750  222.2790 H   0  0  0  0  0  0  0  0  0  0  0  0
  140.5814   73.9832  220.5341 H   0  0  0  0  0  0  0  0  0  0  0  0
  141.6695   74.3649  221.9879 H   0  0  0  0  0  0  0  0  0  0  0  0
  139.1210   73.5070  222.8500 H   0  0  0  0  0  0  0  0  0  0  0  0
  138.2979   70.4965  221.8938 H   0  0  0  0  0  0  0  0  0  0  0  0
  137.5372   68.8003  225.7783 H   0  0  0  0  0  0  0  0  0  0  0  0
  138.9386   69.3275  227.5958 H   0  0  0  0  0  0  0  0  0  0  0  0
  140.8886   70.5265  228.5435 H   0  0  0  0  0  0  0  0  0  0  0  0
  142.2623   71.9712  227.1083 H   0  0  0  0  0  0  0  0  0  0  0  0
  141.7219   72.2642  224.6852 H   0  0  0  0  0  0  0  0  0  0  0  0
  141.2185   78.1858  224.4396 H   0  0  0  0  0  0  0  0  0  0  0  0
  142.8397   79.9432  225.2173 H   0  0  0  0  0  0  0  0  0  0  0  0
  143.4244   81.8012  223.6721 H   0  0  0  0  0  0  0  0  0  0  0  0
  142.4504   81.9282  221.3984 H   0  0  0  0  0  0  0  0  0  0  0  0
  140.8372   80.1683  220.6180 H   0  0  0  0  0  0  0  0  0  0  0  0
  1  2  1  0
  2  3  1  0
  3  4  1  0
  4  5  2  0
  4  6  1  0
  6  7  1  0
  7  8  1  0
  8  9  2  0
  8 10  1  0
 10 11  2  0
 11 12  1  0
 12 13  1  0
 12 14  2  0
 14 15  1  0
 15 16  2  0
 16 17  1  0
 17 18  2  0
 18 19  1  0
 19 20  2  0
  2 21  1  0
 21 22  2  0
 22 23  1  0
 23 24  2  0
 24 25  1  0
 25 26  2  0
 20 10  1  0
 26 21  1  0
 20 15  1  0
  1 27  1  0
  1 28  1  0
  1 29  1  0
  2 30  1  6
  3 31  1  0
  6 32  1  0
  6 33  1  0
  7 34  1  0
 11 35  1  0
 14 36  1  0
 16 37  1  0
 17 38  1  0
 18 39  1  0
 19 40  1  0
 22 41  1  0
 23 42  1  0
 24 43  1  0
 25 44  1  0
 26 45  1  0
M  END
>  <smiles>  (42) 
C[C@H](NC(=O)CNC(=O)c1cc(Cl)cc2ccccc12)c1ccccc1

>  <score_type>  (42) 
oracle

>  <origin>  (42) 
autodockgpu

>  <m_score__min__energy>  (42) 
-8.7300000000000004

>  <m_primary>  (42) 
energy

>  <rmsd>  (42) 
4.625104232083052

>  <m_score__min__rmsd>  (42) 
4.625104232083052

>  <meeko>  (42) 
{"free_energy": -8.49, "intermolecular_energy": -9.98, "internal_energy": -0.98, "cluster_size": 20, "cluster_id": 1, "rank_in_cluster": 12}

>  <energy>  (42) 
-7.51

>  <cluster_rmsd>  (42) 
1.82

>  <cluster>  (42) 
5

$$$$

     RDKit          3D

 45 47  0  0  0  0  0  0  0  0999 V2000
  143.1830   76.4600  218.7180 C   0  0  0  0  0  0  0  0  0  0  0  0
  142.6970   75.2400  219.3710 C   0  0  2  0  0  0  0  0  0  0  0  0
  141.9480   75.4100  220.5970 N   0  0  0  0  0  0  0  0  0  0  0  0
  140.7870   74.6380  220.7640 C   0  0  0  0  0  0  0  0  0  0  0  0
  140.5110   73.8340  219.7980 O   0  0  0  0  0  0  0  0  0  0  0  0
  139.8630   74.6320  221.8910 C   0  0  0  0  0  0  0  0  0  0  0  0
  139.5730   73.3670  222.4900 N   0  0  0  0  0  0  0  0  0  0  0  0
  140.4040   72.2270  222.5150 C   0  0  0  0  0  0  0  0  0  0  0  0
  141.5330   72.2110  221.9830 O   0  0  0  0  0  0  0  0  0  0  0  0
  139.8490   71.0430  223.2200 C   0  0  0  0  0  0  0  0  0  0  0  0
  139.1350   70.0690  222.5670 C   0  0  0  0  0  0  0  0  0  0  0  0
  138.6390   68.9650  223.2460 C   0  0  0  0  0  0  0  0  0  0  0  0
  137.7270   67.7450  222.3530 Cl  0  0  0  0  0  0  0  0  0  0  0  0
  138.8560   68.8240  224.6050 C   0  0  0  0  0  0  0  0  0  0  0  0
  139.5710   69.7980  225.2600 C   0  0  0  0  0  0  0  0  0  0  0  0
  139.7830   69.6490  226.6320 C   0  0  0  0  0  0  0  0  0  0  0  0
  140.4900   70.6050  227.3280 C   0  0  0  0  0  0  0  0  0  0  0  0
  140.9840   71.6980  226.6740 C   0  0  0  0  0  0  0  0  0  0  0  0
  140.7890   71.8770  225.2990 C   0  0  0  0  0  0  0  0  0  0  0  0
  140.0690   70.9030  224.5920 C   0  0  0  0  0  0  0  0  0  0  0  0
  143.8780   74.3730  219.7670 C   0  0  0  0  0  0  0  0  0  0  0  0
  143.7910   73.0200  219.3970 C   0  0  0  0  0  0  0  0  0  0  0  0
  144.8150   72.1430  219.7530 C   0  0  0  0  0  0  0  0  0  0  0  0
  145.8910   72.6440  220.4690 C   0  0  0  0  0  0  0  0  0  0  0  0
  145.9650   73.9870  220.8290 C   0  0  0  0  0  0  0  0  0  0  0  0
  144.9400   74.8680  220.4700 C   0  0  0  0  0  0  0  0  0  0  0  0
  143.4754   77.1940  219.4834 H   0  0  0  0  0  0  0  0  0  0  0  0
  144.0534   76.2181  218.0904 H   0  0  0  0  0  0  0  0  0  0  0  0
  142.3847   76.8829  218.0904 H   0  0  0  0  0  0  0  0  0  0  0  0
  142.0230   74.8094  218.6158 H   0  0  0  0  0  0  0  0  0  0  0  0
  142.2160   76.0670  221.3390 H   0  0  0  0  0  0  0  0  0  0  0  0
  140.2895   75.2783  222.6723 H   0  0  0  0  0  0  0  0  0  0  0  0
  138.9046   74.9753  221.4743 H   0  0  0  0  0  0  0  0  0  0  0  0
  138.6310   73.2820  222.9740 H   0  0  0  0  0  0  0  0  0  0  0  0
  138.9528   70.1654  221.4865 H   0  0  0  0  0  0  0  0  0  0  0  0
  138.4650   67.9517  225.1493 H   0  0  0  0  0  0  0  0  0  0  0  0
  139.3854   68.7681  227.1573 H   0  0  0  0  0  0  0  0  0  0  0  0
  140.6565   70.4884  228.4090 H   0  0  0  0  0  0  0  0  0  0  0  0
  141.5475   72.4543  227.2402 H   0  0  0  0  0  0  0  0  0  0  0  0
  141.1917   72.7621  224.7847 H   0  0  0  0  0  0  0  0  0  0  0  0
  142.9213   72.6554  218.8306 H   0  0  0  0  0  0  0  0  0  0  0  0
  144.7700   71.0803  219.4727 H   0  0  0  0  0  0  0  0  0  0  0  0
  146.7057   71.9645  220.7597 H   0  0  0  0  0  0  0  0  0  0  0  0
  146.8317   74.3559  221.3971 H   0  0  0  0  0  0  0  0  0  0  0  0
  144.9875   75.9317  220.7463 H   0  0  0  0  0  0  0  0  0  0  0  0
  1  2  1  0
  2  3  1  0
  3  4  1  0
  4  5  2  0
  4  6  1  0
  6  7  1  0
  7  8  1  0
  8  9  2  0
  8 10  1  0
 10 11  2  0
 11 12  1  0
 12 13  1  0
 12 14  2  0
 14 15  1  0
 15 16  2  0
 16 17  1  0
 17 18  2  0
 18 19  1  0
 19 20  2  0
  2 21  1  0
 21 22  2  0
 22 23  1  0
 23 24  2  0
 24 25  1  0
 25 26  2  0
 20 10  1  0
 26 21  1  0
 20 15  1  0
  1 27  1  0
  1 28  1  0
  1 29  1  0
  2 30  1  6
  3 31  1  0
  6 32  1  0
  6 33  1  0
  7 34  1  0
 11 35  1  0
 14 36  1  0
 16 37  1  0
 17 38  1  0
 18 39  1  0
 19 40  1  0
 22 41  1  0
 23 42  1  0
 24 43  1  0
 25 44  1  0
 26 45  1  0
M  END
>  <smiles>  (43) 
C[C@H](NC(=O)CNC(=O)c1cc(Cl)cc2ccccc12)c1ccccc1

>  <score_type>  (43) 
oracle

>  <origin>  (43) 
autodockgpu

>  <m_score__min__energy>  (43) 
-8.7300000000000004

>  <m_primary>  (43) 
energy

>  <rmsd>  (43) 
7.478692762857918

>  <m_score__min__rmsd>  (43) 
7.478692762857918

>  <meeko>  (43) 
{"free_energy": -8.16, "intermolecular_energy": -9.65, "internal_energy": -1.26, "cluster_size": 11, "cluster_id": 3, "rank_in_cluster": 5}

>  <energy>  (43) 
-7.51

>  <cluster_rmsd>  (43) 
1.82

>  <cluster>  (43) 
5

$$$$

     RDKit          3D

 45 47  0  0  0  0  0  0  0  0999 V2000
  141.5510   78.5940  223.8150 C   0  0  0  0  0  0  0  0  0  0  0  0
  140.8740   78.2010  222.5740 C   0  0  2  0  0  0  0  0  0  0  0  0
  141.2700   76.9400  221.9870 N   0  0  0  0  0  0  0  0  0  0  0  0
  140.3580   75.8750  222.0540 C   0  0  0  0  0  0  0  0  0  0  0  0
  139.2370   76.1380  222.6300 O   0  0  0  0  0  0  0  0  0  0  0  0
  140.5200   74.5160  221.5520 C   0  0  0  0  0  0  0  0  0  0  0  0
  139.9270   73.4640  222.3180 N   0  0  0  0  0  0  0  0  0  0  0  0
  140.4050   72.1450  222.4640 C   0  0  0  0  0  0  0  0  0  0  0  0
  141.4470   71.7450  221.9050 O   0  0  0  0  0  0  0  0  0  0  0  0
  139.5870   71.2580  223.3310 C   0  0  0  0  0  0  0  0  0  0  0  0
  138.4750   70.6000  222.8670 C   0  0  0  0  0  0  0  0  0  0  0  0
  137.7360   69.7660  223.6940 C   0  0  0  0  0  0  0  0  0  0  0  0
  136.3150   68.9470  223.0410 Cl  0  0  0  0  0  0  0  0  0  0  0  0
  138.1090   69.5810  225.0130 C   0  0  0  0  0  0  0  0  0  0  0  0
  139.2220   70.2380  225.4790 C   0  0  0  0  0  0  0  0  0  0  0  0
  139.5900   70.0470  226.8130 C   0  0  0  0  0  0  0  0  0  0  0  0
  140.6950   70.6910  227.3230 C   0  0  0  0  0  0  0  0  0  0  0  0
  141.4330   71.5170  226.5210 C   0  0  0  0  0  0  0  0  0  0  0  0
  141.0920   71.7290  225.1800 C   0  0  0  0  0  0  0  0  0  0  0  0
  139.9660   71.0720  224.6630 C   0  0  0  0  0  0  0  0  0  0  0  0
  141.1610   79.2280  221.4930 C   0  0  0  0  0  0  0  0  0  0  0  0
  141.4770   78.7060  220.2270 C   0  0  0  0  0  0  0  0  0  0  0  0
  141.7910   79.5780  219.1840 C   0  0  0  0  0  0  0  0  0  0  0  0
  141.7820   80.9400  219.4400 C   0  0  0  0  0  0  0  0  0  0  0  0
  141.4660   81.4430  220.6990 C   0  0  0  0  0  0  0  0  0  0  0  0
  141.1490   80.5710  221.7450 C   0  0  0  0  0  0  0  0  0  0  0  0
  140.9616   78.2518  224.6784 H   0  0  0  0  0  0  0  0  0  0  0  0
  142.5504   78.1357  223.8485 H   0  0  0  0  0  0  0  0  0  0  0  0
  141.6486   79.6892  223.8485 H   0  0  0  0  0  0  0  0  0  0  0  0
  139.8217   78.1187  222.8837 H   0  0  0  0  0  0  0  0  0  0  0  0
  142.1790   76.7850  221.5360 H   0  0  0  0  0  0  0  0  0  0  0  0
  140.0807   74.4804  220.5442 H   0  0  0  0  0  0  0  0  0  0  0  0
  141.6023   74.3239  221.5944 H   0  0  0  0  0  0  0  0  0  0  0  0
  139.0330   73.7090  222.8370 H   0  0  0  0  0  0  0  0  0  0  0  0
  138.1642   70.7364  221.8207 H   0  0  0  0  0  0  0  0  0  0  0  0
  137.5272   68.9222  225.6745 H   0  0  0  0  0  0  0  0  0  0  0  0
  138.9963   69.3813  227.4568 H   0  0  0  0  0  0  0  0  0  0  0  0
  140.9837   70.5413  228.3738 H   0  0  0  0  0  0  0  0  0  0  0  0
  142.3140   72.0261  226.9389 H   0  0  0  0  0  0  0  0  0  0  0  0
  141.6940   72.3963  224.5457 H   0  0  0  0  0  0  0  0  0  0  0  0
  141.4768   77.6188  220.0597 H   0  0  0  0  0  0  0  0  0  0  0  0
  142.0395   79.1940  218.1836 H   0  0  0  0  0  0  0  0  0  0  0  0
  142.0305   81.6403  218.6290 H   0  0  0  0  0  0  0  0  0  0  0  0
  141.4657   82.5294  220.8714 H   0  0  0  0  0  0  0  0  0  0  0  0
  140.8967   80.9558  222.7441 H   0  0  0  0  0  0  0  0  0  0  0  0
  1  2  1  0
  2  3  1  0
  3  4  1  0
  4  5  2  0
  4  6  1  0
  6  7  1  0
  7  8  1  0
  8  9  2  0
  8 10  1  0
 10 11  2  0
 11 12  1  0
 12 13  1  0
 12 14  2  0
 14 15  1  0
 15 16  2  0
 16 17  1  0
 17 18  2  0
 18 19  1  0
 19 20  2  0
  2 21  1  0
 21 22  2  0
 22 23  1  0
 23 24  2  0
 24 25  1  0
 25 26  2  0
 20 10  1  0
 26 21  1  0
 20 15  1  0
  1 27  1  0
  1 28  1  0
  1 29  1  0
  2 30  1  1
  3 31  1  0
  6 32  1  0
  6 33  1  0
  7 34  1  0
 11 35  1  0
 14 36  1  0
 16 37  1  0
 17 38  1  0
 18 39  1  0
 19 40  1  0
 22 41  1  0
 23 42  1  0
 24 43  1  0
 25 44  1  0
 26 45  1  0
M  END
>  <smiles>  (44) 
C[C@H](NC(=O)CNC(=O)c1cc(Cl)cc2ccccc12)c1ccccc1

>  <score_type>  (44) 
oracle

>  <origin>  (44) 
autodockgpu

>  <m_score__min__energy>  (44) 
-8.7300000000000004

>  <m_primary>  (44) 
energy

>  <rmsd>  (44) 
4.148761432861989

>  <m_score__min__rmsd>  (44) 
4.148761432861989

>  <meeko>  (44) 
{"free_energy": -8.09, "intermolecular_energy": -9.58, "internal_energy": -1.24, "cluster_size": 20, "cluster_id": 1, "rank_in_cluster": 17}

>  <energy>  (44) 
-7.49

>  <cluster_rmsd>  (44) 
0.86

>  <cluster>  (44) 
5

$$$$

     RDKit          3D

 45 47  0  0  0  0  0  0  0  0999 V2000
  139.5950   67.6900  225.6930 C   0  0  0  0  0  0  0  0  0  0  0  0
  139.1290   69.0420  225.3690 C   0  0  2  0  0  0  0  0  0  0  0  0
  139.3930   69.5190  224.0290 N   0  0  0  0  0  0  0  0  0  0  0  0
  138.2940   69.9270  223.2550 C   0  0  0  0  0  0  0  0  0  0  0  0
  137.1470   69.8470  223.8320 O   0  0  0  0  0  0  0  0  0  0  0  0
  138.2930   70.4310  221.8870 C   0  0  0  0  0  0  0  0  0  0  0  0
  138.9140   71.6990  221.6590 N   0  0  0  0  0  0  0  0  0  0  0  0
  140.1860   72.1150  222.1020 C   0  0  0  0  0  0  0  0  0  0  0  0
  140.9330   71.3780  222.7800 O   0  0  0  0  0  0  0  0  0  0  0  0
  140.5840   73.4920  221.7100 C   0  0  0  0  0  0  0  0  0  0  0  0
  139.7870   74.5830  221.9520 C   0  0  0  0  0  0  0  0  0  0  0  0
  140.1890   75.8610  221.5870 C   0  0  0  0  0  0  0  0  0  0  0  0
  139.1200   77.2260  221.9240 Cl  0  0  0  0  0  0  0  0  0  0  0  0
  141.4090   76.0600  220.9680 C   0  0  0  0  0  0  0  0  0  0  0  0
  142.2080   74.9690  220.7260 C   0  0  0  0  0  0  0  0  0  0  0  0
  143.4380   75.1790  220.0980 C   0  0  0  0  0  0  0  0  0  0  0  0
  144.2680   74.1130  219.8310 C   0  0  0  0  0  0  0  0  0  0  0  0
  143.8860   72.8480  220.1820 C   0  0  0  0  0  0  0  0  0  0  0  0
  142.6600   72.6030  220.8140 C   0  0  0  0  0  0  0  0  0  0  0  0
  141.8170   73.6910  221.0850 C   0  0  0  0  0  0  0  0  0  0  0  0
  139.8230   70.0470  226.2710 C   0  0  0  0  0  0  0  0  0  0  0  0
  140.7050   70.9330  225.6270 C   0  0  0  0  0  0  0  0  0  0  0  0
  141.4150   71.8660  226.3850 C   0  0  0  0  0  0  0  0  0  0  0  0
  141.2220   71.8820  227.7570 C   0  0  0  0  0  0  0  0  0  0  0  0
  140.3440   70.9990  228.3800 C   0  0  0  0  0  0  0  0  0  0  0  0
  139.6310   70.0650  227.6230 C   0  0  0  0  0  0  0  0  0  0  0  0
  139.6369   67.5686  226.7855 H   0  0  0  0  0  0  0  0  0  0  0  0
  138.8997   66.9509  225.2683 H   0  0  0  0  0  0  0  0  0  0  0  0
  140.5980   67.5363  225.2683 H   0  0  0  0  0  0  0  0  0  0  0  0
  138.0392   68.9628  225.4956 H   0  0  0  0  0  0  0  0  0  0  0  0
  140.3310   69.5650  223.6170 H   0  0  0  0  0  0  0  0  0  0  0  0
  138.8121   69.6905  221.2607 H   0  0  0  0  0  0  0  0  0  0  0  0
  137.2319   70.5858  221.6417 H   0  0  0  0  0  0  0  0  0  0  0  0
  138.3550   72.3970  221.0850 H   0  0  0  0  0  0  0  0  0  0  0  0
  138.8130   74.4425  222.4436 H   0  0  0  0  0  0  0  0  0  0  0  0
  141.7329   77.0698  220.6757 H   0  0  0  0  0  0  0  0  0  0  0  0
  143.7441   76.1973  219.8164 H   0  0  0  0  0  0  0  0  0  0  0  0
  145.2364   74.2789  219.3363 H   0  0  0  0  0  0  0  0  0  0  0  0
  144.5563   72.0037  219.9633 H   0  0  0  0  0  0  0  0  0  0  0  0
  142.3650   71.5803  221.0915 H   0  0  0  0  0  0  0  0  0  0  0  0
  140.8344   70.8913  224.5354 H   0  0  0  0  0  0  0  0  0  0  0  0
  142.1101   72.5707  225.9051 H   0  0  0  0  0  0  0  0  0  0  0  0
  141.7756   72.6096  228.3686 H   0  0  0  0  0  0  0  0  0  0  0  0
  140.2110   71.0366  229.4713 H   0  0  0  0  0  0  0  0  0  0  0  0
  138.9337   69.3630  228.1036 H   0  0  0  0  0  0  0  0  0  0  0  0
  1  2  1  0
  2  3  1  0
  3  4  1  0
  4  5  2  0
  4  6  1  0
  6  7  1  0
  7  8  1  0
  8  9  2  0
  8 10  1  0
 10 11  2  0
 11 12  1  0
 12 13  1  0
 12 14  2  0
 14 15  1  0
 15 16  2  0
 16 17  1  0
 17 18  2  0
 18 19  1  0
 19 20  2  0
  2 21  1  0
 21 22  2  0
 22 23  1  0
 23 24  2  0
 24 25  1  0
 25 26  2  0
 20 10  1  0
 26 21  1  0
 20 15  1  0
  1 27  1  0
  1 28  1  0
  1 29  1  0
  2 30  1  1
  3 31  1  0
  6 32  1  0
  6 33  1  0
  7 34  1  0
 11 35  1  0
 14 36  1  0
 16 37  1  0
 17 38  1  0
 18 39  1  0
 19 40  1  0
 22 41  1  0
 23 42  1  0
 24 43  1  0
 25 44  1  0
 26 45  1  0
M  END
>  <smiles>  (45) 
C[C@H](NC(=O)CNC(=O)c1cc(Cl)cc2ccccc12)c1ccccc1

>  <score_type>  (45) 
oracle

>  <origin>  (45) 
autodockgpu

>  <m_score__min__energy>  (45) 
-8.7300000000000004

>  <m_primary>  (45) 
energy

>  <rmsd>  (45) 
10.55821118333404

>  <m_score__min__rmsd>  (45) 
10.55821118333404

>  <meeko>  (45) 
{"free_energy": -7.42, "intermolecular_energy": -8.91, "internal_energy": -1.92, "cluster_size": 11, "cluster_id": 5, "rank_in_cluster": 10}

>  <energy>  (45) 
-7.42

>  <cluster_rmsd>  (45) 
1.81

>  <cluster>  (45) 
5

$$$$

     RDKit          3D

 45 47  0  0  0  0  0  0  0  0999 V2000
  143.1590   76.4480  219.5020 C   0  0  0  0  0  0  0  0  0  0  0  0
  142.7020   75.0830  219.7770 C   0  0  2  0  0  0  0  0  0  0  0  0
  141.8950   74.8920  220.9630 N   0  0  0  0  0  0  0  0  0  0  0  0
  140.5010   74.9860  220.8250 C   0  0  0  0  0  0  0  0  0  0  0  0
  140.0750   75.2230  219.6340 O   0  0  0  0  0  0  0  0  0  0  0  0
  139.4820   74.8460  221.8570 C   0  0  0  0  0  0  0  0  0  0  0  0
  139.2750   73.5380  222.3960 N   0  0  0  0  0  0  0  0  0  0  0  0
  140.2420   72.5270  222.5700 C   0  0  0  0  0  0  0  0  0  0  0  0
  141.4390   72.6820  222.2480 O   0  0  0  0  0  0  0  0  0  0  0  0
  139.7470   71.2590  223.1660 C   0  0  0  0  0  0  0  0  0  0  0  0
  139.0160   70.3460  222.4450 C   0  0  0  0  0  0  0  0  0  0  0  0
  138.5770   69.1630  223.0210 C   0  0  0  0  0  0  0  0  0  0  0  0
  137.6400   68.0280  222.0450 Cl  0  0  0  0  0  0  0  0  0  0  0  0
  138.8680   68.8780  224.3430 C   0  0  0  0  0  0  0  0  0  0  0  0
  139.6000   69.7900  225.0650 C   0  0  0  0  0  0  0  0  0  0  0  0
  139.8870   69.4950  226.3990 C   0  0  0  0  0  0  0  0  0  0  0  0
  140.6130   70.3840  227.1610 C   0  0  0  0  0  0  0  0  0  0  0  0
  141.0520   71.5550  226.6090 C   0  0  0  0  0  0  0  0  0  0  0  0
  140.7820   71.8800  225.2740 C   0  0  0  0  0  0  0  0  0  0  0  0
  140.0430   70.9730  224.5000 C   0  0  0  0  0  0  0  0  0  0  0  0
  143.9030   74.1780  219.9870 C   0  0  0  0  0  0  0  0  0  0  0  0
  143.7210   72.8320  219.6270 C   0  0  0  0  0  0  0  0  0  0  0  0
  144.7610   71.9220  219.8210 C   0  0  0  0  0  0  0  0  0  0  0  0
  145.9460   72.3860  220.3710 C   0  0  0  0  0  0  0  0  0  0  0  0
  146.1120   73.7230  220.7220 C   0  0  0  0  0  0  0  0  0  0  0  0
  145.0720   74.6370  220.5260 C   0  0  0  0  0  0  0  0  0  0  0  0
  143.3351   76.9741  220.4519 H   0  0  0  0  0  0  0  0  0  0  0  0
  144.0941   76.4121  218.9239 H   0  0  0  0  0  0  0  0  0  0  0  0
  142.3908   76.9824  218.9239 H   0  0  0  0  0  0  0  0  0  0  0  0
  142.0807   74.8512  218.8993 H   0  0  0  0  0  0  0  0  0  0  0  0
  142.2880   74.7010  221.8920 H   0  0  0  0  0  0  0  0  0  0  0  0
  139.7617   75.5072  222.6904 H   0  0  0  0  0  0  0  0  0  0  0  0
  138.5354   75.1008  221.3580 H   0  0  0  0  0  0  0  0  0  0  0  0
  138.2840   73.3100  222.7050 H   0  0  0  0  0  0  0  0  0  0  0  0
  138.7747   70.5569  221.3927 H   0  0  0  0  0  0  0  0  0  0  0  0
  138.5213   67.9424  224.8060 H   0  0  0  0  0  0  0  0  0  0  0  0
  139.5333   68.5523  226.8419 H   0  0  0  0  0  0  0  0  0  0  0  0
  140.8391   70.1518  228.2122 H   0  0  0  0  0  0  0  0  0  0  0  0
  141.6302   72.2575  227.2272 H   0  0  0  0  0  0  0  0  0  0  0  0
  141.1414   72.8255  224.8418 H   0  0  0  0  0  0  0  0  0  0  0  0
  142.7658   72.4981  219.1955 H   0  0  0  0  0  0  0  0  0  0  0  0
  144.6436   70.8638  219.5446 H   0  0  0  0  0  0  0  0  0  0  0  0
  146.7746   71.6812  220.5339 H   0  0  0  0  0  0  0  0  0  0  0  0
  147.0648   74.0616  221.1551 H   0  0  0  0  0  0  0  0  0  0  0  0
  145.1915   75.6961  220.7981 H   0  0  0  0  0  0  0  0  0  0  0  0
  1  2  1  0
  2  3  1  0
  3  4  1  0
  4  5  2  0
  4  6  1  0
  6  7  1  0
  7  8  1  0
  8  9  2  0
  8 10  1  0
 10 11  2  0
 11 12  1  0
 12 13  1  0
 12 14  2  0
 14 15  1  0
 15 16  2  0
 16 17  1  0
 17 18  2  0
 18 19  1  0
 19 20  2  0
  2 21  1  0
 21 22  2  0
 22 23  1  0
 23 24  2  0
 24 25  1  0
 25 26  2  0
 20 10  1  0
 26 21  1  0
 20 15  1  0
  1 27  1  0
  1 28  1  0
  1 29  1  0
  2 30  1  6
  3 31  1  0
  6 32  1  0
  6 33  1  0
  7 34  1  0
 11 35  1  0
 14 36  1  0
 16 37  1  0
 17 38  1  0
 18 39  1  0
 19 40  1  0
 22 41  1  0
 23 42  1  0
 24 43  1  0
 25 44  1  0
 26 45  1  0
M  END
>  <smiles>  (46) 
C[C@H](NC(=O)CNC(=O)c1cc(Cl)cc2ccccc12)c1ccccc1

>  <score_type>  (46) 
oracle

>  <origin>  (46) 
autodockgpu

>  <m_score__min__energy>  (46) 
-8.7300000000000004

>  <m_primary>  (46) 
energy

>  <rmsd>  (46) 
7.451598368704379

>  <m_score__min__rmsd>  (46) 
7.451598368704379

>  <meeko>  (46) 
{"free_energy": -7.6, "intermolecular_energy": -9.09, "internal_energy": -1.75, "cluster_size": 11, "cluster_id": 3, "rank_in_cluster": 11}

>  <energy>  (46) 
-7.4

>  <cluster_rmsd>  (46) 
1.81

>  <cluster>  (46) 
5

$$$$

     RDKit          3D

 45 47  0  0  0  0  0  0  0  0999 V2000
  140.1000   67.6910  226.0560 C   0  0  0  0  0  0  0  0  0  0  0  0
  139.3340   68.9040  225.7530 C   0  0  2  0  0  0  0  0  0  0  0  0
  139.3300   69.3460  224.3750 N   0  0  0  0  0  0  0  0  0  0  0  0
  138.1460   69.9110  223.8750 C   0  0  0  0  0  0  0  0  0  0  0  0
  137.1720   69.9920  224.7120 O   0  0  0  0  0  0  0  0  0  0  0  0
  137.8860   70.4180  222.5330 C   0  0  0  0  0  0  0  0  0  0  0  0
  138.5450   71.6290  222.1540 N   0  0  0  0  0  0  0  0  0  0  0  0
  139.9040   71.9530  222.3450 C   0  0  0  0  0  0  0  0  0  0  0  0
  140.7070   71.1730  222.8990 O   0  0  0  0  0  0  0  0  0  0  0  0
  140.3220   73.2870  221.8410 C   0  0  0  0  0  0  0  0  0  0  0  0
  139.5380   74.4050  221.9850 C   0  0  0  0  0  0  0  0  0  0  0  0
  139.9580   75.6420  221.5180 C   0  0  0  0  0  0  0  0  0  0  0  0
  138.9050   77.0430  221.7300 Cl  0  0  0  0  0  0  0  0  0  0  0  0
  141.1850   75.7740  220.8940 C   0  0  0  0  0  0  0  0  0  0  0  0
  141.9720   74.6560  220.7510 C   0  0  0  0  0  0  0  0  0  0  0  0
  143.2080   74.7980  220.1170 C   0  0  0  0  0  0  0  0  0  0  0  0
  144.0270   73.7030  219.9470 C   0  0  0  0  0  0  0  0  0  0  0  0
  143.6260   72.4770  220.4000 C   0  0  0  0  0  0  0  0  0  0  0  0
  142.3930   72.3010  221.0400 C   0  0  0  0  0  0  0  0  0  0  0  0
  141.5620   73.4180  221.2120 C   0  0  0  0  0  0  0  0  0  0  0  0
  139.9140   70.0760  226.5240 C   0  0  0  0  0  0  0  0  0  0  0  0
  140.8230   70.8800  225.8130 C   0  0  0  0  0  0  0  0  0  0  0  0
  141.4330   71.9580  226.4560 C   0  0  0  0  0  0  0  0  0  0  0  0
  141.1190   72.1950  227.7850 C   0  0  0  0  0  0  0  0  0  0  0  0
  140.2160   71.3900  228.4750 C   0  0  0  0  0  0  0  0  0  0  0  0
  139.6020   70.3110  227.8330 C   0  0  0  0  0  0  0  0  0  0  0  0
  140.1771   67.5689  227.1465 H   0  0  0  0  0  0  0  0  0  0  0  0
  139.5894   66.8175  225.6244 H   0  0  0  0  0  0  0  0  0  0  0  0
  141.1082   67.7766  225.6244 H   0  0  0  0  0  0  0  0  0  0  0  0
  138.3067   68.6189  226.0238 H   0  0  0  0  0  0  0  0  0  0  0  0
  140.1390   69.2600  223.7490 H   0  0  0  0  0  0  0  0  0  0  0  0
  138.1905   69.6380  221.8196 H   0  0  0  0  0  0  0  0  0  0  0  0
  136.8138   70.6636  222.5250 H   0  0  0  0  0  0  0  0  0  0  0  0
  137.9420   72.3580  221.6690 H   0  0  0  0  0  0  0  0  0  0  0  0
  138.5593   74.3183  222.4795 H   0  0  0  0  0  0  0  0  0  0  0  0
  141.5237   76.7516  220.5204 H   0  0  0  0  0  0  0  0  0  0  0  0
  143.5283   75.7853  219.7528 H   0  0  0  0  0  0  0  0  0  0  0  0
  145.0009   73.8150  219.4481 H   0  0  0  0  0  0  0  0  0  0  0  0
  144.2869   71.6091  220.2585 H   0  0  0  0  0  0  0  0  0  0  0  0
  142.0829   71.3089  221.3999 H   0  0  0  0  0  0  0  0  0  0  0  0
  141.0511   70.6610  224.7594 H   0  0  0  0  0  0  0  0  0  0  0  0
  142.1453   72.6036  225.9213 H   0  0  0  0  0  0  0  0  0  0  0  0
  141.5942   73.0387  228.3070 H   0  0  0  0  0  0  0  0  0  0  0  0
  139.9852   71.6041  229.5290 H   0  0  0  0  0  0  0  0  0  0  0  0
  138.8868   69.6684  228.3674 H   0  0  0  0  0  0  0  0  0  0  0  0
  1  2  1  0
  2  3  1  0
  3  4  1  0
  4  5  2  0
  4  6  1  0
  6  7  1  0
  7  8  1  0
  8  9  2  0
  8 10  1  0
 10 11  2  0
 11 12  1  0
 12 13  1  0
 12 14  2  0
 14 15  1  0
 15 16  2  0
 16 17  1  0
 17 18  2  0
 18 19  1  0
 19 20  2  0
  2 21  1  0
 21 22  2  0
 22 23  1  0
 23 24  2  0
 24 25  1  0
 25 26  2  0
 20 10  1  0
 26 21  1  0
 20 15  1  0
  1 27  1  0
  1 28  1  0
  1 29  1  0
  2 30  1  1
  3 31  1  0
  6 32  1  0
  6 33  1  0
  7 34  1  0
 11 35  1  0
 14 36  1  0
 16 37  1  0
 17 38  1  0
 18 39  1  0
 19 40  1  0
 22 41  1  0
 23 42  1  0
 24 43  1  0
 25 44  1  0
 26 45  1  0
M  END
>  <smiles>  (47) 
C[C@H](NC(=O)CNC(=O)c1cc(Cl)cc2ccccc12)c1ccccc1

>  <score_type>  (47) 
oracle

>  <origin>  (47) 
autodockgpu

>  <m_score__min__energy>  (47) 
-8.7300000000000004

>  <m_primary>  (47) 
energy

>  <rmsd>  (47) 
10.598725677147675

>  <m_score__min__rmsd>  (47) 
10.598725677147675

>  <meeko>  (47) 
{"free_energy": -7.52, "intermolecular_energy": -9.01, "internal_energy": -1.94, "cluster_size": 11, "cluster_id": 5, "rank_in_cluster": 6}

>  <energy>  (47) 
-7.47

>  <cluster_rmsd>  (47) 
0.0

>  <cluster>  (47) 
6

$$$$

     RDKit          3D

 45 47  0  0  0  0  0  0  0  0999 V2000
  141.5360   78.5980  223.7320 C   0  0  0  0  0  0  0  0  0  0  0  0
  140.9020   78.2050  222.4700 C   0  0  2  0  0  0  0  0  0  0  0  0
  141.3190   76.9440  221.8960 N   0  0  0  0  0  0  0  0  0  0  0  0
  140.4680   75.8390  222.0620 C   0  0  0  0  0  0  0  0  0  0  0  0
  139.3790   76.0680  222.7090 O   0  0  0  0  0  0  0  0  0  0  0  0
  140.6630   74.4730  221.5940 C   0  0  0  0  0  0  0  0  0  0  0  0
  140.0240   73.4310  222.3370 N   0  0  0  0  0  0  0  0  0  0  0  0
  140.4530   72.0950  222.4700 C   0  0  0  0  0  0  0  0  0  0  0  0
  141.4870   71.6660  221.9180 O   0  0  0  0  0  0  0  0  0  0  0  0
  139.5940   71.2260  223.3160 C   0  0  0  0  0  0  0  0  0  0  0  0
  138.4530   70.6310  222.8350 C   0  0  0  0  0  0  0  0  0  0  0  0
  137.6760   69.8120  223.6420 C   0  0  0  0  0  0  0  0  0  0  0  0
  136.2190   69.0760  222.9670 Cl  0  0  0  0  0  0  0  0  0  0  0  0
  138.0380   69.5780  224.9550 C   0  0  0  0  0  0  0  0  0  0  0  0
  139.1790   70.1710  225.4380 C   0  0  0  0  0  0  0  0  0  0  0  0
  139.5360   69.9310  226.7670 C   0  0  0  0  0  0  0  0  0  0  0  0
  140.6690   70.5110  227.2930 C   0  0  0  0  0  0  0  0  0  0  0  0
  141.4450   71.3210  226.5120 C   0  0  0  0  0  0  0  0  0  0  0  0
  141.1160   71.5820  225.1760 C   0  0  0  0  0  0  0  0  0  0  0  0
  139.9610   70.9900  224.6420 C   0  0  0  0  0  0  0  0  0  0  0  0
  141.2240   79.2320  221.3990 C   0  0  0  0  0  0  0  0  0  0  0  0
  141.1630   80.5760  221.8090 C   0  0  0  0  0  0  0  0  0  0  0  0
  141.4070   81.5870  220.8800 C   0  0  0  0  0  0  0  0  0  0  0  0
  141.7020   81.2250  219.5750 C   0  0  0  0  0  0  0  0  0  0  0  0
  141.7610   79.8910  219.1850 C   0  0  0  0  0  0  0  0  0  0  0  0
  141.5180   78.8740  220.1140 C   0  0  0  0  0  0  0  0  0  0  0  0
  140.9357   78.2259  224.5753 H   0  0  0  0  0  0  0  0  0  0  0  0
  142.5472   78.1681  223.7838 H   0  0  0  0  0  0  0  0  0  0  0  0
  141.6008   79.6949  223.7838 H   0  0  0  0  0  0  0  0  0  0  0  0
  139.8401   78.1220  222.7446 H   0  0  0  0  0  0  0  0  0  0  0  0
  142.2000   76.8160  221.3850 H   0  0  0  0  0  0  0  0  0  0  0  0
  140.2889   74.4203  220.5609 H   0  0  0  0  0  0  0  0  0  0  0  0
  141.7405   74.2843  221.7093 H   0  0  0  0  0  0  0  0  0  0  0  0
  139.1330   73.7010  222.8500 H   0  0  0  0  0  0  0  0  0  0  0  0
  138.1501   70.8068  221.7923 H   0  0  0  0  0  0  0  0  0  0  0  0
  137.4254   68.9306  225.5997 H   0  0  0  0  0  0  0  0  0  0  0  0
  138.9114   69.2779  227.3942 H   0  0  0  0  0  0  0  0  0  0  0  0
  140.9490   70.3227  228.3400 H   0  0  0  0  0  0  0  0  0  0  0  0
  142.3482   71.7781  226.9425 H   0  0  0  0  0  0  0  0  0  0  0  0
  141.7489   72.2366  224.5588 H   0  0  0  0  0  0  0  0  0  0  0  0
  140.9249   80.8274  222.8531 H   0  0  0  0  0  0  0  0  0  0  0  0
  141.3663   82.6457  221.1756 H   0  0  0  0  0  0  0  0  0  0  0  0
  141.8940   82.0112  218.8300 H   0  0  0  0  0  0  0  0  0  0  0  0
  141.9996   79.6350  218.1422 H   0  0  0  0  0  0  0  0  0  0  0  0
  141.5624   77.8155  219.8181 H   0  0  0  0  0  0  0  0  0  0  0  0
  1  2  1  0
  2  3  1  0
  3  4  1  0
  4  5  2  0
  4  6  1  0
  6  7  1  0
  7  8  1  0
  8  9  2  0
  8 10  1  0
 10 11  2  0
 11 12  1  0
 12 13  1  0
 12 14  2  0
 14 15  1  0
 15 16  2  0
 16 17  1  0
 17 18  2  0
 18 19  1  0
 19 20  2  0
  2 21  1  0
 21 22  2  0
 22 23  1  0
 23 24  2  0
 24 25  1  0
 25 26  2  0
 20 10  1  0
 26 21  1  0
 20 15  1  0
  1 27  1  0
  1 28  1  0
  1 29  1  0
  2 30  1  1
  3 31  1  0
  6 32  1  0
  6 33  1  0
  7 34  1  0
 11 35  1  0
 14 36  1  0
 16 37  1  0
 17 38  1  0
 18 39  1  0
 19 40  1  0
 22 41  1  0
 23 42  1  0
 24 43  1  0
 25 44  1  0
 26 45  1  0
M  END
>  <smiles>  (48) 
C[C@H](NC(=O)CNC(=O)c1cc(Cl)cc2ccccc12)c1ccccc1

>  <score_type>  (48) 
oracle

>  <origin>  (48) 
autodockgpu

>  <m_score__min__energy>  (48) 
-8.7300000000000004

>  <m_primary>  (48) 
energy

>  <rmsd>  (48) 
3.9673454596729183

>  <m_score__min__rmsd>  (48) 
3.9673454596729183

>  <meeko>  (48) 
{"free_energy": -8.01, "intermolecular_energy": -9.51, "internal_energy": -1.3, "cluster_size": 20, "cluster_id": 1, "rank_in_cluster": 19}

>  <energy>  (48) 
-7.44

>  <cluster_rmsd>  (48) 
0.1

>  <cluster>  (48) 
6

$$$$

     RDKit          3D

 45 47  0  0  0  0  0  0  0  0999 V2000
  139.2020   68.9780  223.8360 C   0  0  0  0  0  0  0  0  0  0  0  0
  139.2950   70.2640  224.5360 C   0  0  2  0  0  0  0  0  0  0  0  0
  140.0740   71.3000  223.8940 N   0  0  0  0  0  0  0  0  0  0  0  0
  139.4490   72.0570  222.8900 C   0  0  0  0  0  0  0  0  0  0  0  0
  138.2210   71.7550  222.6480 O   0  0  0  0  0  0  0  0  0  0  0  0
  140.0140   73.1390  222.0930 C   0  0  0  0  0  0  0  0  0  0  0  0
  139.5190   74.4580  222.3400 N   0  0  0  0  0  0  0  0  0  0  0  0
  140.0470   75.6700  221.8500 C   0  0  0  0  0  0  0  0  0  0  0  0
  141.0560   75.7120  221.1150 O   0  0  0  0  0  0  0  0  0  0  0  0
  139.3220   76.8990  222.2620 C   0  0  0  0  0  0  0  0  0  0  0  0
  137.9520   76.9920  222.2190 C   0  0  0  0  0  0  0  0  0  0  0  0
  137.2980   78.1480  222.6230 C   0  0  0  0  0  0  0  0  0  0  0  0
  135.5350   78.2090  222.5450 Cl  0  0  0  0  0  0  0  0  0  0  0  0
  138.0190   79.2360  223.0800 C   0  0  0  0  0  0  0  0  0  0  0  0
  139.3900   79.1440  223.1240 C   0  0  0  0  0  0  0  0  0  0  0  0
  140.1090   80.2490  223.5840 C   0  0  0  0  0  0  0  0  0  0  0  0
  141.4850   80.2020  223.6390 C   0  0  0  0  0  0  0  0  0  0  0  0
  142.1440   79.0720  223.2440 C   0  0  0  0  0  0  0  0  0  0  0  0
  141.4530   77.9470  222.7780 C   0  0  0  0  0  0  0  0  0  0  0  0
  140.0520   77.9970  222.7230 C   0  0  0  0  0  0  0  0  0  0  0  0
  139.9710   70.0610  225.8800 C   0  0  0  0  0  0  0  0  0  0  0  0
  140.0450   68.7310  226.3290 C   0  0  0  0  0  0  0  0  0  0  0  0
  140.6170   68.4570  227.5720 C   0  0  0  0  0  0  0  0  0  0  0  0
  141.0930   69.5190  228.3250 C   0  0  0  0  0  0  0  0  0  0  0  0
  141.0140   70.8310  227.8670 C   0  0  0  0  0  0  0  0  0  0  0  0
  140.4430   71.1080  226.6210 C   0  0  0  0  0  0  0  0  0  0  0  0
  139.1431   68.1631  224.5725 H   0  0  0  0  0  0  0  0  0  0  0  0
  138.3008   68.9681  223.2053 H   0  0  0  0  0  0  0  0  0  0  0  0
  140.0924   68.8386  223.2053 H   0  0  0  0  0  0  0  0  0  0  0  0
  138.2479   70.5985  224.5765 H   0  0  0  0  0  0  0  0  0  0  0  0
  141.0520   71.5020  224.1280 H   0  0  0  0  0  0  0  0  0  0  0  0
  141.0988   73.1528  222.2749 H   0  0  0  0  0  0  0  0  0  0  0  0
  139.7185   72.9137  221.0577 H   0  0  0  0  0  0  0  0  0  0  0  0
  138.6550   74.5260  222.9550 H   0  0  0  0  0  0  0  0  0  0  0  0
  137.3631   76.1358  221.8583 H   0  0  0  0  0  0  0  0  0  0  0  0
  137.5067   80.1549  223.4013 H   0  0  0  0  0  0  0  0  0  0  0  0
  139.5767   81.1574  223.9026 H   0  0  0  0  0  0  0  0  0  0  0  0
  142.0520   81.0726  224.0003 H   0  0  0  0  0  0  0  0  0  0  0  0
  143.2426   79.0456  223.2933 H   0  0  0  0  0  0  0  0  0  0  0  0
  141.9963   77.0442  222.4621 H   0  0  0  0  0  0  0  0  0  0  0  0
  139.6552   67.9128  225.7056 H   0  0  0  0  0  0  0  0  0  0  0  0
  140.6883   67.4246  227.9448 H   0  0  0  0  0  0  0  0  0  0  0  0
  141.5441   69.3201  229.3083 H   0  0  0  0  0  0  0  0  0  0  0  0
  141.4020   71.6525  228.4872 H   0  0  0  0  0  0  0  0  0  0  0  0
  140.3755   72.1404  226.2474 H   0  0  0  0  0  0  0  0  0  0  0  0
  1  2  1  0
  2  3  1  0
  3  4  1  0
  4  5  2  0
  4  6  1  0
  6  7  1  0
  7  8  1  0
  8  9  2  0
  8 10  1  0
 10 11  2  0
 11 12  1  0
 12 13  1  0
 12 14  2  0
 14 15  1  0
 15 16  2  0
 16 17  1  0
 17 18  2  0
 18 19  1  0
 19 20  2  0
  2 21  1  0
 21 22  2  0
 22 23  1  0
 23 24  2  0
 24 25  1  0
 25 26  2  0
 20 10  1  0
 26 21  1  0
 20 15  1  0
  1 27  1  0
  1 28  1  0
  1 29  1  0
  2 30  1  1
  3 31  1  0
  6 32  1  0
  6 33  1  0
  7 34  1  0
 11 35  1  0
 14 36  1  0
 16 37  1  0
 17 38  1  0
 18 39  1  0
 19 40  1  0
 22 41  1  0
 23 42  1  0
 24 43  1  0
 25 44  1  0
 26 45  1  0
M  END
>  <smiles>  (49) 
C[C@H](NC(=O)CNC(=O)c1cc(Cl)cc2ccccc12)c1ccccc1

>  <score_type>  (49) 
oracle

>  <origin>  (49) 
autodockgpu

>  <m_score__min__energy>  (49) 
-8.7300000000000004

>  <m_primary>  (49) 
energy

>  <rmsd>  (49) 
10.175500745228074

>  <m_score__min__rmsd>  (49) 
10.175500745228074

>  <meeko>  (49) 
{"free_energy": -8.34, "intermolecular_energy": -9.83, "internal_energy": -0.87, "cluster_size": 3, "cluster_id": 2, "rank_in_cluster": 1}

>  <energy>  (49) 
-7.43

>  <cluster_rmsd>  (49) 
0.16

>  <cluster>  (49) 
6

$$$$

     RDKit          3D

 45 47  0  0  0  0  0  0  0  0999 V2000
  139.5940   67.7430  225.6280 C   0  0  0  0  0  0  0  0  0  0  0  0
  139.1800   69.1080  225.2870 C   0  0  2  0  0  0  0  0  0  0  0  0
  139.4630   69.5590  223.9420 N   0  0  0  0  0  0  0  0  0  0  0  0
  138.3830   70.0030  223.1630 C   0  0  0  0  0  0  0  0  0  0  0  0
  137.2330   69.9760  223.7390 O   0  0  0  0  0  0  0  0  0  0  0  0
  138.4030   70.4910  221.7890 C   0  0  0  0  0  0  0  0  0  0  0  0
  139.0080   71.7670  221.5600 N   0  0  0  0  0  0  0  0  0  0  0  0
  140.2300   72.2350  222.0840 C   0  0  0  0  0  0  0  0  0  0  0  0
  140.9400   71.5460  222.8460 O   0  0  0  0  0  0  0  0  0  0  0  0
  140.6230   73.6070  221.6690 C   0  0  0  0  0  0  0  0  0  0  0  0
  139.8220   74.6990  221.8930 C   0  0  0  0  0  0  0  0  0  0  0  0
  140.2190   75.9720  221.5080 C   0  0  0  0  0  0  0  0  0  0  0  0
  139.1450   77.3380  221.8220 Cl  0  0  0  0  0  0  0  0  0  0  0  0
  141.4380   76.1660  220.8860 C   0  0  0  0  0  0  0  0  0  0  0  0
  142.2420   75.0740  220.6610 C   0  0  0  0  0  0  0  0  0  0  0  0
  143.4700   75.2790  220.0300 C   0  0  0  0  0  0  0  0  0  0  0  0
  144.3040   74.2120  219.7810 C   0  0  0  0  0  0  0  0  0  0  0  0
  143.9280   72.9510  220.1530 C   0  0  0  0  0  0  0  0  0  0  0  0
  142.7030   72.7120  220.7880 C   0  0  0  0  0  0  0  0  0  0  0  0
  141.8560   73.8010  221.0410 C   0  0  0  0  0  0  0  0  0  0  0  0
  139.9100   70.0970  226.1790 C   0  0  0  0  0  0  0  0  0  0  0  0
  139.6080   70.0170  227.5490 C   0  0  0  0  0  0  0  0  0  0  0  0
  140.2050   70.9130  228.4370 C   0  0  0  0  0  0  0  0  0  0  0  0
  141.0810   71.8580  227.9270 C   0  0  0  0  0  0  0  0  0  0  0  0
  141.3710   71.9240  226.5670 C   0  0  0  0  0  0  0  0  0  0  0  0
  140.7760   71.0270  225.6760 C   0  0  0  0  0  0  0  0  0  0  0  0
  139.6275   67.6325  226.7219 H   0  0  0  0  0  0  0  0  0  0  0  0
  138.8730   67.0257  225.2089 H   0  0  0  0  0  0  0  0  0  0  0  0
  140.5920   67.5470  225.2089 H   0  0  0  0  0  0  0  0  0  0  0  0
  138.0878   69.0713  225.4123 H   0  0  0  0  0  0  0  0  0  0  0  0
  140.4030   69.5620  223.5310 H   0  0  0  0  0  0  0  0  0  0  0  0
  138.9477   69.7523  221.1827 H   0  0  0  0  0  0  0  0  0  0  0  0
  137.3451   70.6247  221.5188 H   0  0  0  0  0  0  0  0  0  0  0  0
  138.4780   72.4270  220.9170 H   0  0  0  0  0  0  0  0  0  0  0  0
  138.8483   74.5628  222.3863 H   0  0  0  0  0  0  0  0  0  0  0  0
  141.7578   77.1723  220.5778 H   0  0  0  0  0  0  0  0  0  0  0  0
  143.7718   76.2938  219.7314 H   0  0  0  0  0  0  0  0  0  0  0  0
  145.2716   74.3738  219.2834 H   0  0  0  0  0  0  0  0  0  0  0  0
  144.6023   72.1062  219.9490 H   0  0  0  0  0  0  0  0  0  0  0  0
  142.4115   71.6929  221.0819 H   0  0  0  0  0  0  0  0  0  0  0  0
  138.9067   69.2543  227.9186 H   0  0  0  0  0  0  0  0  0  0  0  0
  139.9858   70.8702  229.5141 H   0  0  0  0  0  0  0  0  0  0  0  0
  141.5585   72.5730  228.6131 H   0  0  0  0  0  0  0  0  0  0  0  0
  142.0712   72.6852  226.1924 H   0  0  0  0  0  0  0  0  0  0  0  0
  140.9985   71.0682  224.5995 H   0  0  0  0  0  0  0  0  0  0  0  0
  1  2  1  0
  2  3  1  0
  3  4  1  0
  4  5  2  0
  4  6  1  0
  6  7  1  0
  7  8  1  0
  8  9  2  0
  8 10  1  0
 10 11  2  0
 11 12  1  0
 12 13  1  0
 12 14  2  0
 14 15  1  0
 15 16  2  0
 16 17  1  0
 17 18  2  0
 18 19  1  0
 19 20  2  0
  2 21  1  0
 21 22  2  0
 22 23  1  0
 23 24  2  0
 24 25  1  0
 25 26  2  0
 20 10  1  0
 26 21  1  0
 20 15  1  0
  1 27  1  0
  1 28  1  0
  1 29  1  0
  2 30  1  1
  3 31  1  0
  6 32  1  0
  6 33  1  0
  7 34  1  0
 11 35  1  0
 14 36  1  0
 16 37  1  0
 17 38  1  0
 18 39  1  0
 19 40  1  0
 22 41  1  0
 23 42  1  0
 24 43  1  0
 25 44  1  0
 26 45  1  0
M  END
>  <smiles>  (50) 
C[C@H](NC(=O)CNC(=O)c1cc(Cl)cc2ccccc12)c1ccccc1

>  <score_type>  (50) 
oracle

>  <origin>  (50) 
autodockgpu

>  <m_score__min__energy>  (50) 
-8.7300000000000004

>  <m_primary>  (50) 
energy

>  <rmsd>  (50) 
10.269417423916845

>  <m_score__min__rmsd>  (50) 
10.269417423916845

>  <meeko>  (50) 
{"free_energy": -7.4, "intermolecular_energy": -8.89, "internal_energy": -1.89, "cluster_size": 11, "cluster_id": 5, "rank_in_cluster": 11}

>  <energy>  (50) 
-7.3

>  <cluster_rmsd>  (50) 
0.31

>  <cluster>  (50) 
6

$$$$
