
     RDKit          3D

 58 62  0  0  0  0  0  0  0  0999 V2000
  140.9440   72.9480  221.2660 O   0  0  0  0  0  0  0  0  0  0  0  0
  140.0270   72.9250  222.1550 C   0  0  0  0  0  0  0  0  0  0  0  0
  139.0380   73.9470  222.1960 N   0  0  0  0  0  0  0  0  0  0  0  0
  138.9780   75.0450  221.3100 C   0  0  0  0  0  0  0  0  0  0  0  0
  140.0540   76.0100  221.2440 C   0  0  0  0  0  0  0  0  0  0  0  0
  140.0770   76.8640  222.2300 O   0  0  0  0  0  0  0  0  0  0  0  0
  141.0810   76.1620  220.2820 N   0  0  0  0  0  0  0  0  0  0  0  0
  141.2270   75.5060  218.9730 C   0  0  0  0  0  0  0  0  0  0  0  0
  142.7630   75.4950  218.7990 C   0  0  2  0  0  0  0  0  0  0  0  0
  143.3970   74.3120  219.3540 C   0  0  0  0  0  0  0  0  0  0  0  0
  144.4560   74.5040  220.2530 C   0  0  0  0  0  0  0  0  0  0  0  0
  145.1120   73.4300  220.8190 C   0  0  0  0  0  0  0  0  0  0  0  0
  144.7660   72.1140  220.5340 C   0  0  0  0  0  0  0  0  0  0  0  0
  143.7280   71.9290  219.6510 C   0  0  0  0  0  0  0  0  0  0  0  0
  143.0740   73.0070  219.0870 C   0  0  0  0  0  0  0  0  0  0  0  0
  143.1340   76.8080  219.3650 C   0  0  0  0  0  0  0  0  0  0  0  0
  142.2110   77.0540  220.4970 C   0  0  1  0  0  0  0  0  0  0  0  0
  141.7510   78.4810  220.5560 C   0  0  0  0  0  0  0  0  0  0  0  0
  141.2020   79.1240  219.4710 C   0  0  0  0  0  0  0  0  0  0  0  0
  140.8070   80.4490  219.6370 C   0  0  0  0  0  0  0  0  0  0  0  0
  140.9520   81.1120  220.8410 C   0  0  0  0  0  0  0  0  0  0  0  0
  141.5020   80.4620  221.9180 C   0  0  0  0  0  0  0  0  0  0  0  0
  141.9020   79.1460  221.7760 C   0  0  0  0  0  0  0  0  0  0  0  0
  139.9990   71.8320  223.1420 C   0  0  0  0  0  0  0  0  0  0  0  0
  139.5670   70.5820  222.8340 C   0  0  0  0  0  0  0  0  0  0  0  0
  139.5590   69.5740  223.8050 C   0  0  0  0  0  0  0  0  0  0  0  0
  140.0000   69.8780  225.0910 C   0  0  0  0  0  0  0  0  0  0  0  0
  140.0260   68.9530  226.1060 C   0  0  0  0  0  0  0  0  0  0  0  0
  140.4730   69.3020  227.3740 C   0  0  0  0  0  0  0  0  0  0  0  0
  140.5110   68.4150  228.4020 F   0  0  0  0  0  0  0  0  0  0  0  0
  140.9010   70.5950  227.6270 C   0  0  0  0  0  0  0  0  0  0  0  0
  140.8840   71.5330  226.6280 C   0  0  0  0  0  0  0  0  0  0  0  0
  140.4330   71.1490  225.3790 C   0  0  0  0  0  0  0  0  0  0  0  0
  140.4170   72.0610  224.4190 N   0  0  0  0  0  0  0  0  0  0  0  0
  138.3130   73.8360  222.9660 H   0  0  0  0  0  0  0  0  0  0  0  0
  138.8722   74.6252  220.2988 H   0  0  0  0  0  0  0  0  0  0  0  0
  138.1460   75.6385  221.7170 H   0  0  0  0  0  0  0  0  0  0  0  0
  140.8176   74.4851  218.9880 H   0  0  0  0  0  0  0  0  0  0  0  0
  140.6883   76.0107  218.1575 H   0  0  0  0  0  0  0  0  0  0  0  0
  143.1236   75.3990  217.7642 H   0  0  0  0  0  0  0  0  0  0  0  0
  144.7686   75.5266  220.5110 H   0  0  0  0  0  0  0  0  0  0  0  0
  145.9375   73.6218  221.5202 H   0  0  0  0  0  0  0  0  0  0  0  0
  145.2951   71.2648  220.9910 H   0  0  0  0  0  0  0  0  0  0  0  0
  143.4140   70.9076  219.3901 H   0  0  0  0  0  0  0  0  0  0  0  0
  142.2500   72.8075  218.3862 H   0  0  0  0  0  0  0  0  0  0  0  0
  144.1747   76.7881  219.7207 H   0  0  0  0  0  0  0  0  0  0  0  0
  143.0570   77.6032  218.6089 H   0  0  0  0  0  0  0  0  0  0  0  0
  142.7161   76.8649  221.4557 H   0  0  0  0  0  0  0  0  0  0  0  0
  141.0793   78.6098  218.5064 H   0  0  0  0  0  0  0  0  0  0  0  0
  140.3659   80.9846  218.7834 H   0  0  0  0  0  0  0  0  0  0  0  0
  140.6273   82.1587  220.9362 H   0  0  0  0  0  0  0  0  0  0  0  0
  141.6228   80.9808  222.8804 H   0  0  0  0  0  0  0  0  0  0  0  0
  142.3440   78.6165  222.6329 H   0  0  0  0  0  0  0  0  0  0  0  0
  139.2208   70.3600  221.8138 H   0  0  0  0  0  0  0  0  0  0  0  0
  139.2109   68.5604  223.5572 H   0  0  0  0  0  0  0  0  0  0  0  0
  139.6889   67.9239  225.9125 H   0  0  0  0  0  0  0  0  0  0  0  0
  141.2552   70.8693  228.6316 H   0  0  0  0  0  0  0  0  0  0  0  0
  141.2201   72.5636  226.8150 H   0  0  0  0  0  0  0  0  0  0  0  0
  1  2  2  0
  2  3  1  0
  3  4  1  0
  4  5  1  0
  5  6  2  0
  5  7  1  0
  7  8  1  0
  8  9  1  0
  9 10  1  0
 10 11  2  0
 11 12  1  0
 12 13  2  0
 13 14  1  0
 14 15  2  0
  9 16  1  0
 16 17  1  0
 17 18  1  0
 18 19  2  0
 19 20  1  0
 20 21  2  0
 21 22  1  0
 22 23  2  0
  2 24  1  0
 24 25  2  0
 25 26  1  0
 26 27  2  0
 27 28  1  0
 28 29  2  0
 29 30  1  0
 29 31  1  0
 31 32  2  0
 32 33  1  0
 33 34  2  0
 17  7  1  0
 23 18  1  0
 34 24  1  0
 15 10  1  0
 33 27  1  0
  3 35  1  0
  4 36  1  0
  4 37  1  0
  8 38  1  0
  8 39  1  0
  9 40  1  6
 11 41  1  0
 12 42  1  0
 13 43  1  0
 14 44  1  0
 15 45  1  0
 16 46  1  0
 16 47  1  0
 17 48  1  1
 19 49  1  0
 20 50  1  0
 21 51  1  0
 22 52  1  0
 23 53  1  0
 25 54  1  0
 26 55  1  0
 28 56  1  0
 31 57  1  0
 32 58  1  0
M  END
>  <smiles>  (1) 
O=C(NCC(=O)N1C[C@H](c2ccccc2)C[C@H]1c1ccccc1)c1ccc2cc(F)ccc2n1

>  <score_type>  (1) 
oracle

>  <origin>  (1) 
autodockgpu

>  <m_score__min__energy>  (1) 
-9.7100000000000009

>  <m_primary>  (1) 
energy

>  <rmsd>  (1) 
1.820202281153395

>  <m_score__min__rmsd>  (1) 
1.820202281153395

>  <meeko>  (1) 
{"free_energy": -9.0, "intermolecular_energy": -10.79, "internal_energy": -2.24, "cluster_size": 21, "cluster_id": 2, "rank_in_cluster": 17}

>  <energy>  (1) 
-9.71

>  <cluster_rmsd>  (1) 
0.0

>  <cluster>  (1) 
1

$$$$

     RDKit          3D

 58 62  0  0  0  0  0  0  0  0999 V2000
  138.1080   71.0910  221.7080 O   0  0  0  0  0  0  0  0  0  0  0  0
  138.8330   71.4760  222.6870 C   0  0  0  0  0  0  0  0  0  0  0  0
  139.3620   72.7960  222.7160 N   0  0  0  0  0  0  0  0  0  0  0  0
  139.1630   73.7660  221.7090 C   0  0  0  0  0  0  0  0  0  0  0  0
  139.7910   75.0680  221.7930 C   0  0  0  0  0  0  0  0  0  0  0  0
  141.0830   75.0350  221.9650 O   0  0  0  0  0  0  0  0  0  0  0  0
  139.2190   76.3600  221.7120 N   0  0  0  0  0  0  0  0  0  0  0  0
  139.4560   77.4160  220.7150 C   0  0  0  0  0  0  0  0  0  0  0  0
  139.1750   78.6920  221.5400 C   0  0  2  0  0  0  0  0  0  0  0  0
  140.3500   79.2080  222.2230 C   0  0  0  0  0  0  0  0  0  0  0  0
  140.9890   80.3220  221.6610 C   0  0  0  0  0  0  0  0  0  0  0  0
  142.1130   80.8680  222.2490 C   0  0  0  0  0  0  0  0  0  0  0  0
  142.6690   80.3500  223.4120 C   0  0  0  0  0  0  0  0  0  0  0  0
  142.0390   79.2560  223.9600 C   0  0  0  0  0  0  0  0  0  0  0  0
  140.9150   78.7130  223.3690 C   0  0  0  0  0  0  0  0  0  0  0  0
  138.0280   78.2640  222.3660 C   0  0  0  0  0  0  0  0  0  0  0  0
  138.2540   76.8360  222.6920 C   0  0  1  0  0  0  0  0  0  0  0  0
  136.9900   76.0300  222.6210 C   0  0  0  0  0  0  0  0  0  0  0  0
  136.4140   75.6650  221.4260 C   0  0  0  0  0  0  0  0  0  0  0  0
  135.2420   74.9160  221.4760 C   0  0  0  0  0  0  0  0  0  0  0  0
  134.6620   74.5410  222.6730 C   0  0  0  0  0  0  0  0  0  0  0  0
  135.2440   74.9100  223.8610 C   0  0  0  0  0  0  0  0  0  0  0  0
  136.4080   75.6560  223.8350 C   0  0  0  0  0  0  0  0  0  0  0  0
  139.1180   70.5440  223.7910 C   0  0  0  0  0  0  0  0  0  0  0  0
  138.7490   69.2370  223.7570 C   0  0  0  0  0  0  0  0  0  0  0  0
  139.0430   68.3870  224.8290 C   0  0  0  0  0  0  0  0  0  0  0  0
  139.7200   68.9070  225.9300 C   0  0  0  0  0  0  0  0  0  0  0  0
  140.0490   68.1480  227.0270 C   0  0  0  0  0  0  0  0  0  0  0  0
  140.7240   68.7090  228.1030 C   0  0  0  0  0  0  0  0  0  0  0  0
  141.0640   67.9900  229.2040 F   0  0  0  0  0  0  0  0  0  0  0  0
  141.0730   70.0490  228.0790 C   0  0  0  0  0  0  0  0  0  0  0  0
  140.7560   70.8240  226.9950 C   0  0  0  0  0  0  0  0  0  0  0  0
  140.0840   70.2310  225.9420 C   0  0  0  0  0  0  0  0  0  0  0  0
  139.7780   70.9860  224.8980 N   0  0  0  0  0  0  0  0  0  0  0  0
  139.9440   73.0250  223.5770 H   0  0  0  0  0  0  0  0  0  0  0  0
  139.5060   73.3136  220.7668 H   0  0  0  0  0  0  0  0  0  0  0  0
  138.0944   74.0058  221.8120 H   0  0  0  0  0  0  0  0  0  0  0  0
  140.4927   77.3958  220.3478 H   0  0  0  0  0  0  0  0  0  0  0  0
  138.8377   77.3234  219.8099 H   0  0  0  0  0  0  0  0  0  0  0  0
  138.9232   79.5894  220.9557 H   0  0  0  0  0  0  0  0  0  0  0  0
  140.5893   80.7677  220.7382 H   0  0  0  0  0  0  0  0  0  0  0  0
  142.5847   81.7440  221.7799 H   0  0  0  0  0  0  0  0  0  0  0  0
  143.5660   80.7913  223.8709 H   0  0  0  0  0  0  0  0  0  0  0  0
  142.4365   78.8074  224.8824 H   0  0  0  0  0  0  0  0  0  0  0  0
  140.4487   77.8369  223.8433 H   0  0  0  0  0  0  0  0  0  0  0  0
  137.9800   78.8614  223.2884 H   0  0  0  0  0  0  0  0  0  0  0  0
  137.0776   78.4042  221.8302 H   0  0  0  0  0  0  0  0  0  0  0  0
  138.6180   76.7269  223.7243 H   0  0  0  0  0  0  0  0  0  0  0  0
  136.8639   75.9549  220.4650 H   0  0  0  0  0  0  0  0  0  0  0  0
  134.7625   74.6131  220.5335 H   0  0  0  0  0  0  0  0  0  0  0  0
  133.7356   73.9479  222.6743 H   0  0  0  0  0  0  0  0  0  0  0  0
  134.7908   74.6164  224.8193 H   0  0  0  0  0  0  0  0  0  0  0  0
  136.8812   75.9585  224.7808 H   0  0  0  0  0  0  0  0  0  0  0  0
  138.2147   68.8437  222.8796 H   0  0  0  0  0  0  0  0  0  0  0  0
  138.7452   67.3284  224.8029 H   0  0  0  0  0  0  0  0  0  0  0  0
  139.7744   67.0832  227.0532 H   0  0  0  0  0  0  0  0  0  0  0  0
  141.6063   70.4922  228.9329 H   0  0  0  0  0  0  0  0  0  0  0  0
  141.0286   71.8892  226.9630 H   0  0  0  0  0  0  0  0  0  0  0  0
  1  2  2  0
  2  3  1  0
  3  4  1  0
  4  5  1  0
  5  6  2  0
  5  7  1  0
  7  8  1  0
  8  9  1  0
  9 10  1  0
 10 11  2  0
 11 12  1  0
 12 13  2  0
 13 14  1  0
 14 15  2  0
  9 16  1  0
 16 17  1  0
 17 18  1  0
 18 19  2  0
 19 20  1  0
 20 21  2  0
 21 22  1  0
 22 23  2  0
  2 24  1  0
 24 25  2  0
 25 26  1  0
 26 27  2  0
 27 28  1  0
 28 29  2  0
 29 30  1  0
 29 31  1  0
 31 32  2  0
 32 33  1  0
 33 34  2  0
 17  7  1  0
 23 18  1  0
 34 24  1  0
 15 10  1  0
 33 27  1  0
  3 35  1  0
  4 36  1  0
  4 37  1  0
  8 38  1  0
  8 39  1  0
  9 40  1  6
 11 41  1  0
 12 42  1  0
 13 43  1  0
 14 44  1  0
 15 45  1  0
 16 46  1  0
 16 47  1  0
 17 48  1  1
 19 49  1  0
 20 50  1  0
 21 51  1  0
 22 52  1  0
 23 53  1  0
 25 54  1  0
 26 55  1  0
 28 56  1  0
 31 57  1  0
 32 58  1  0
M  END
>  <smiles>  (2) 
O=C(NCC(=O)N1C[C@H](c2ccccc2)C[C@H]1c1ccccc1)c1ccc2cc(F)ccc2n1

>  <score_type>  (2) 
oracle

>  <origin>  (2) 
autodockgpu

>  <m_score__min__energy>  (2) 
-9.7100000000000009

>  <m_primary>  (2) 
energy

>  <rmsd>  (2) 
2.8201368395216653

>  <m_score__min__rmsd>  (2) 
2.8201368395216653

>  <meeko>  (2) 
{"free_energy": -9.16, "intermolecular_energy": -10.95, "internal_energy": -2.29, "cluster_size": 25, "cluster_id": 1, "rank_in_cluster": 15}

>  <energy>  (2) 
-9.7

>  <cluster_rmsd>  (2) 
0.22

>  <cluster>  (2) 
1

$$$$

     RDKit          3D

 58 62  0  0  0  0  0  0  0  0999 V2000
  140.9820   73.0630  222.3210 O   0  0  0  0  0  0  0  0  0  0  0  0
  139.8870   72.6030  222.7930 C   0  0  0  0  0  0  0  0  0  0  0  0
  138.6390   73.1380  222.3670 N   0  0  0  0  0  0  0  0  0  0  0  0
  138.4890   74.1880  221.4340 C   0  0  0  0  0  0  0  0  0  0  0  0
  139.1780   75.4490  221.6140 C   0  0  0  0  0  0  0  0  0  0  0  0
  138.7520   76.1610  222.6190 O   0  0  0  0  0  0  0  0  0  0  0  0
  140.2410   76.0160  220.8710 N   0  0  0  0  0  0  0  0  0  0  0  0
  140.6150   75.7840  219.4660 C   0  0  0  0  0  0  0  0  0  0  0  0
  142.1380   76.0520  219.5020 C   0  0  2  0  0  0  0  0  0  0  0  0
  142.9240   74.8680  219.8050 C   0  0  0  0  0  0  0  0  0  0  0  0
  144.2740   75.0530  220.1350 C   0  0  0  0  0  0  0  0  0  0  0  0
  145.0870   73.9770  220.4320 C   0  0  0  0  0  0  0  0  0  0  0  0
  144.6210   72.6680  220.4190 C   0  0  0  0  0  0  0  0  0  0  0  0
  143.2960   72.4910  220.0950 C   0  0  0  0  0  0  0  0  0  0  0  0
  142.4860   73.5700  219.7990 C   0  0  0  0  0  0  0  0  0  0  0  0
  142.2160   77.1920  220.4380 C   0  0  0  0  0  0  0  0  0  0  0  0
  141.1690   76.9690  221.4620 C   0  0  1  0  0  0  0  0  0  0  0  0
  140.4560   78.2360  221.8320 C   0  0  0  0  0  0  0  0  0  0  0  0
  139.5370   78.8350  221.0020 C   0  0  0  0  0  0  0  0  0  0  0  0
  138.9340   80.0090  221.4470 C   0  0  0  0  0  0  0  0  0  0  0  0
  139.2340   80.5690  222.6740 C   0  0  0  0  0  0  0  0  0  0  0  0
  140.1540   79.9640  223.4950 C   0  0  0  0  0  0  0  0  0  0  0  0
  140.7660   78.7980  223.0740 C   0  0  0  0  0  0  0  0  0  0  0  0
  139.9220   71.5140  223.7830 C   0  0  0  0  0  0  0  0  0  0  0  0
  139.4960   70.2560  223.5000 C   0  0  0  0  0  0  0  0  0  0  0  0
  139.5500   69.2520  224.4730 C   0  0  0  0  0  0  0  0  0  0  0  0
  140.0470   69.5680  225.7360 C   0  0  0  0  0  0  0  0  0  0  0  0
  140.1360   68.6480  226.7520 C   0  0  0  0  0  0  0  0  0  0  0  0
  140.6370   69.0080  227.9960 C   0  0  0  0  0  0  0  0  0  0  0  0
  140.7380   68.1260  229.0240 F   0  0  0  0  0  0  0  0  0  0  0  0
  141.0560   70.3090  228.2230 C   0  0  0  0  0  0  0  0  0  0  0  0
  140.9770   71.2420  227.2240 C   0  0  0  0  0  0  0  0  0  0  0  0
  140.4730   70.8470  225.9990 C   0  0  0  0  0  0  0  0  0  0  0  0
  140.3970   71.7550  225.0380 N   0  0  0  0  0  0  0  0  0  0  0  0
  137.7850   72.6840  222.8100 H   0  0  0  0  0  0  0  0  0  0  0  0
  138.8131   73.7905  220.4609 H   0  0  0  0  0  0  0  0  0  0  0  0
  137.4326   74.4699  221.5544 H   0  0  0  0  0  0  0  0  0  0  0  0
  140.3963   74.7510  219.1576 H   0  0  0  0  0  0  0  0  0  0  0  0
  140.0669   76.4110  218.7473 H   0  0  0  0  0  0  0  0  0  0  0  0
  142.5989   76.3071  218.5363 H   0  0  0  0  0  0  0  0  0  0  0  0
  144.6918   76.0703  220.1577 H   0  0  0  0  0  0  0  0  0  0  0  0
  146.1406   74.1627  220.6879 H   0  0  0  0  0  0  0  0  0  0  0  0
  145.2775   71.8177  220.6555 H   0  0  0  0  0  0  0  0  0  0  0  0
  142.8751   71.4750  220.0713 H   0  0  0  0  0  0  0  0  0  0  0  0
  141.4333   73.3768  219.5450 H   0  0  0  0  0  0  0  0  0  0  0  0
  143.2085   77.2279  220.9110 H   0  0  0  0  0  0  0  0  0  0  0  0
  142.0628   78.1472  219.9145 H   0  0  0  0  0  0  0  0  0  0  0  0
  141.6147   76.5954  222.3957 H   0  0  0  0  0  0  0  0  0  0  0  0
  139.2873   78.4023  220.0220 H   0  0  0  0  0  0  0  0  0  0  0  0
  138.1954   80.5062  220.8010 H   0  0  0  0  0  0  0  0  0  0  0  0
  138.7371   81.4972  222.9926 H   0  0  0  0  0  0  0  0  0  0  0  0
  140.4005   80.4011  224.4739 H   0  0  0  0  0  0  0  0  0  0  0  0
  141.5053   78.3068  223.7237 H   0  0  0  0  0  0  0  0  0  0  0  0
  139.1055   70.0245  222.4981 H   0  0  0  0  0  0  0  0  0  0  0  0
  139.2065   68.2321  224.2452 H   0  0  0  0  0  0  0  0  0  0  0  0
  139.8063   67.6131  226.5780 H   0  0  0  0  0  0  0  0  0  0  0  0
  141.4533   70.5931  229.2086 H   0  0  0  0  0  0  0  0  0  0  0  0
  141.3058   72.2782  227.3918 H   0  0  0  0  0  0  0  0  0  0  0  0
  1  2  2  0
  2  3  1  0
  3  4  1  0
  4  5  1  0
  5  6  2  0
  5  7  1  0
  7  8  1  0
  8  9  1  0
  9 10  1  0
 10 11  2  0
 11 12  1  0
 12 13  2  0
 13 14  1  0
 14 15  2  0
  9 16  1  0
 16 17  1  0
 17 18  1  0
 18 19  2  0
 19 20  1  0
 20 21  2  0
 21 22  1  0
 22 23  2  0
  2 24  1  0
 24 25  2  0
 25 26  1  0
 26 27  2  0
 27 28  1  0
 28 29  2  0
 29 30  1  0
 29 31  1  0
 31 32  2  0
 32 33  1  0
 33 34  2  0
 17  7  1  0
 23 18  1  0
 34 24  1  0
 15 10  1  0
 33 27  1  0
  3 35  1  0
  4 36  1  0
  4 37  1  0
  8 38  1  0
  8 39  1  0
  9 40  1  6
 11 41  1  0
 12 42  1  0
 13 43  1  0
 14 44  1  0
 15 45  1  0
 16 46  1  0
 16 47  1  0
 17 48  1  1
 19 49  1  0
 20 50  1  0
 21 51  1  0
 22 52  1  0
 23 53  1  0
 25 54  1  0
 26 55  1  0
 28 56  1  0
 31 57  1  0
 32 58  1  0
M  END
>  <smiles>  (3) 
O=C(NCC(=O)N1C[C@H](c2ccccc2)C[C@H]1c1ccccc1)c1ccc2cc(F)ccc2n1

>  <score_type>  (3) 
oracle

>  <origin>  (3) 
autodockgpu

>  <m_score__min__energy>  (3) 
-9.7100000000000009

>  <m_primary>  (3) 
energy

>  <rmsd>  (3) 
1.6949645076595548

>  <m_score__min__rmsd>  (3) 
1.6949645076595548

>  <meeko>  (3) 
{"free_energy": -9.46, "intermolecular_energy": -11.24, "internal_energy": -2.12, "cluster_size": 21, "cluster_id": 2, "rank_in_cluster": 7}

>  <energy>  (3) 
-9.69

>  <cluster_rmsd>  (3) 
0.2

>  <cluster>  (3) 
1

$$$$

     RDKit          3D

 58 62  0  0  0  0  0  0  0  0999 V2000
  141.0200   73.3910  221.9750 O   0  0  0  0  0  0  0  0  0  0  0  0
  139.9330   73.0060  222.5260 C   0  0  0  0  0  0  0  0  0  0  0  0
  138.7240   73.7250  222.3100 N   0  0  0  0  0  0  0  0  0  0  0  0
  138.6070   74.8860  221.5150 C   0  0  0  0  0  0  0  0  0  0  0  0
  139.6540   75.8860  221.4990 C   0  0  0  0  0  0  0  0  0  0  0  0
  139.6280   76.7140  222.5060 O   0  0  0  0  0  0  0  0  0  0  0  0
  140.6970   76.0950  220.5650 N   0  0  0  0  0  0  0  0  0  0  0  0
  140.8650   75.5160  219.2220 C   0  0  0  0  0  0  0  0  0  0  0  0
  142.4040   75.5170  219.0740 C   0  0  2  0  0  0  0  0  0  0  0  0
  143.0310   74.3030  219.5680 C   0  0  0  0  0  0  0  0  0  0  0  0
  144.2340   74.4360  220.2760 C   0  0  0  0  0  0  0  0  0  0  0  0
  144.8910   73.3290  220.7750 C   0  0  0  0  0  0  0  0  0  0  0  0
  144.4070   72.0380  220.6040 C   0  0  0  0  0  0  0  0  0  0  0  0
  143.2270   71.9110  219.9080 C   0  0  0  0  0  0  0  0  0  0  0  0
  142.5720   73.0210  219.4120 C   0  0  0  0  0  0  0  0  0  0  0  0
  142.7640   76.7940  219.7220 C   0  0  0  0  0  0  0  0  0  0  0  0
  141.8210   76.9730  220.8510 C   0  0  1  0  0  0  0  0  0  0  0  0
  141.3580   78.3930  220.9860 C   0  0  0  0  0  0  0  0  0  0  0  0
  140.6410   79.0320  220.0010 C   0  0  0  0  0  0  0  0  0  0  0  0
  140.2610   80.3520  220.2310 C   0  0  0  0  0  0  0  0  0  0  0  0
  140.5810   81.0140  221.4010 C   0  0  0  0  0  0  0  0  0  0  0  0
  141.2980   80.3680  222.3780 C   0  0  0  0  0  0  0  0  0  0  0  0
  141.6870   79.0580  222.1710 C   0  0  0  0  0  0  0  0  0  0  0  0
  139.9370   71.8130  223.3870 C   0  0  0  0  0  0  0  0  0  0  0  0
  139.4780   70.6060  222.9660 C   0  0  0  0  0  0  0  0  0  0  0  0
  139.5030   69.4980  223.8200 C   0  0  0  0  0  0  0  0  0  0  0  0
  140.0060   69.6570  225.1100 C   0  0  0  0  0  0  0  0  0  0  0  0
  140.0680   68.6270  226.0160 C   0  0  0  0  0  0  0  0  0  0  0  0
  140.5760   68.8320  227.2920 C   0  0  0  0  0  0  0  0  0  0  0  0
  140.6520   67.8380  228.2150 F   0  0  0  0  0  0  0  0  0  0  0  0
  141.0290   70.0870  227.6640 C   0  0  0  0  0  0  0  0  0  0  0  0
  140.9780   71.1280  226.7750 C   0  0  0  0  0  0  0  0  0  0  0  0
  140.4650   70.8860  225.5140 C   0  0  0  0  0  0  0  0  0  0  0  0
  140.4160   71.8980  224.6610 N   0  0  0  0  0  0  0  0  0  0  0  0
  137.8720   73.3220  222.8030 H   0  0  0  0  0  0  0  0  0  0  0  0
  138.4854   74.5435  220.4768 H   0  0  0  0  0  0  0  0  0  0  0  0
  137.7690   75.4198  221.9871 H   0  0  0  0  0  0  0  0  0  0  0  0
  140.4574   74.4956  219.1708 H   0  0  0  0  0  0  0  0  0  0  0  0
  140.3385   76.0661  218.4282 H   0  0  0  0  0  0  0  0  0  0  0  0
  142.7819   75.4832  218.0415 H   0  0  0  0  0  0  0  0  0  0  0  0
  144.6606   75.4372  220.4362 H   0  0  0  0  0  0  0  0  0  0  0  0
  145.8310   73.4743  221.3275 H   0  0  0  0  0  0  0  0  0  0  0  0
  144.9396   71.1627  221.0043 H   0  0  0  0  0  0  0  0  0  0  0  0
  142.7992   70.9109  219.7443 H   0  0  0  0  0  0  0  0  0  0  0  0
  141.6316   72.8681  218.8623 H   0  0  0  0  0  0  0  0  0  0  0  0
  143.7985   76.7532  220.0937 H   0  0  0  0  0  0  0  0  0  0  0  0
  142.6993   77.6323  219.0127 H   0  0  0  0  0  0  0  0  0  0  0  0
  142.3101   76.7285  221.8054 H   0  0  0  0  0  0  0  0  0  0  0  0
  140.3771   78.5184  219.0647 H   0  0  0  0  0  0  0  0  0  0  0  0
  139.6883   80.8842  219.4572 H   0  0  0  0  0  0  0  0  0  0  0  0
  140.2621   82.0562  221.5495 H   0  0  0  0  0  0  0  0  0  0  0  0
  141.5592   80.8861  223.3126 H   0  0  0  0  0  0  0  0  0  0  0  0
  142.2621   78.5325  222.9476 H   0  0  0  0  0  0  0  0  0  0  0  0
  139.0832   70.4987  221.9449 H   0  0  0  0  0  0  0  0  0  0  0  0
  139.1326   68.5198  223.4796 H   0  0  0  0  0  0  0  0  0  0  0  0
  139.7109   67.6274  225.7275 H   0  0  0  0  0  0  0  0  0  0  0  0
  141.4305   70.2481  228.6753 H   0  0  0  0  0  0  0  0  0  0  0  0
  141.3355   72.1294  227.0567 H   0  0  0  0  0  0  0  0  0  0  0  0
  1  2  2  0
  2  3  1  0
  3  4  1  0
  4  5  1  0
  5  6  2  0
  5  7  1  0
  7  8  1  0
  8  9  1  0
  9 10  1  0
 10 11  2  0
 11 12  1  0
 12 13  2  0
 13 14  1  0
 14 15  2  0
  9 16  1  0
 16 17  1  0
 17 18  1  0
 18 19  2  0
 19 20  1  0
 20 21  2  0
 21 22  1  0
 22 23  2  0
  2 24  1  0
 24 25  2  0
 25 26  1  0
 26 27  2  0
 27 28  1  0
 28 29  2  0
 29 30  1  0
 29 31  1  0
 31 32  2  0
 32 33  1  0
 33 34  2  0
 17  7  1  0
 23 18  1  0
 34 24  1  0
 15 10  1  0
 33 27  1  0
  3 35  1  0
  4 36  1  0
  4 37  1  0
  8 38  1  0
  8 39  1  0
  9 40  1  6
 11 41  1  0
 12 42  1  0
 13 43  1  0
 14 44  1  0
 15 45  1  0
 16 46  1  0
 16 47  1  0
 17 48  1  1
 19 49  1  0
 20 50  1  0
 21 51  1  0
 22 52  1  0
 23 53  1  0
 25 54  1  0
 26 55  1  0
 28 56  1  0
 31 57  1  0
 32 58  1  0
M  END
>  <smiles>  (4) 
O=C(NCC(=O)N1C[C@H](c2ccccc2)C[C@H]1c1ccccc1)c1ccc2cc(F)ccc2n1

>  <score_type>  (4) 
oracle

>  <origin>  (4) 
autodockgpu

>  <m_score__min__energy>  (4) 
-9.7100000000000009

>  <m_primary>  (4) 
energy

>  <rmsd>  (4) 
1.7589275983250547

>  <m_score__min__rmsd>  (4) 
1.7589275983250547

>  <meeko>  (4) 
{"free_energy": -9.08, "intermolecular_energy": -10.87, "internal_energy": -2.28, "cluster_size": 21, "cluster_id": 2, "rank_in_cluster": 14}

>  <energy>  (4) 
-9.67

>  <cluster_rmsd>  (4) 
0.23

>  <cluster>  (4) 
1

$$$$

     RDKit          3D

 58 62  0  0  0  0  0  0  0  0999 V2000
  141.4610   72.6620  221.9310 O   0  0  0  0  0  0  0  0  0  0  0  0
  140.3670   72.6470  222.5900 C   0  0  0  0  0  0  0  0  0  0  0  0
  139.3440   73.5950  222.3090 N   0  0  0  0  0  0  0  0  0  0  0  0
  139.4330   74.6090  221.3300 C   0  0  0  0  0  0  0  0  0  0  0  0
  140.5780   75.4940  221.2750 C   0  0  0  0  0  0  0  0  0  0  0  0
  140.8110   76.1470  222.3800 O   0  0  0  0  0  0  0  0  0  0  0  0
  141.4780   75.7500  220.2130 N   0  0  0  0  0  0  0  0  0  0  0  0
  141.6770   74.9920  218.9670 C   0  0  0  0  0  0  0  0  0  0  0  0
  143.1620   75.2910  218.6560 C   0  0  2  0  0  0  0  0  0  0  0  0
  144.0800   74.3430  219.2640 C   0  0  0  0  0  0  0  0  0  0  0  0
  144.6900   74.7140  220.4710 C   0  0  0  0  0  0  0  0  0  0  0  0
  145.5770   73.8690  221.1080 C   0  0  0  0  0  0  0  0  0  0  0  0
  145.9120   72.6210  220.5970 C   0  0  0  0  0  0  0  0  0  0  0  0
  145.3130   72.2610  219.4120 C   0  0  0  0  0  0  0  0  0  0  0  0
  144.4260   73.1090  218.7780 C   0  0  0  0  0  0  0  0  0  0  0  0
  143.2690   76.7090  219.0540 C   0  0  0  0  0  0  0  0  0  0  0  0
  142.3920   76.8810  220.2360 C   0  0  1  0  0  0  0  0  0  0  0  0
  141.6310   78.1740  220.1970 C   0  0  0  0  0  0  0  0  0  0  0  0
  140.8080   78.5130  219.1470 C   0  0  0  0  0  0  0  0  0  0  0  0
  140.1480   79.7370  219.2140 C   0  0  0  0  0  0  0  0  0  0  0  0
  140.2990   80.5940  220.2870 C   0  0  0  0  0  0  0  0  0  0  0  0
  141.1230   80.2470  221.3290 C   0  0  0  0  0  0  0  0  0  0  0  0
  141.7890   79.0370  221.2840 C   0  0  0  0  0  0  0  0  0  0  0  0
  140.1680   71.6400  223.6460 C   0  0  0  0  0  0  0  0  0  0  0  0
  139.5140   70.4700  223.4250 C   0  0  0  0  0  0  0  0  0  0  0  0
  139.3500   69.5410  224.4590 C   0  0  0  0  0  0  0  0  0  0  0  0
  139.8680   69.8400  225.7170 C   0  0  0  0  0  0  0  0  0  0  0  0
  139.7530   68.9910  226.7900 C   0  0  0  0  0  0  0  0  0  0  0  0
  140.2850   69.3310  228.0270 C   0  0  0  0  0  0  0  0  0  0  0  0
  140.1890   68.5170  229.1100 F   0  0  0  0  0  0  0  0  0  0  0  0
  140.9410   70.5400  228.1900 C   0  0  0  0  0  0  0  0  0  0  0  0
  141.0680   71.4020  227.1330 C   0  0  0  0  0  0  0  0  0  0  0  0
  140.5260   71.0290  225.9170 C   0  0  0  0  0  0  0  0  0  0  0  0
  140.6500   71.8680  224.9000 N   0  0  0  0  0  0  0  0  0  0  0  0
  138.4680   73.4960  222.9040 H   0  0  0  0  0  0  0  0  0  0  0  0
  139.3791   74.1062  220.3531 H   0  0  0  0  0  0  0  0  0  0  0  0
  138.6150   75.2888  221.6107 H   0  0  0  0  0  0  0  0  0  0  0  0
  141.5076   73.9160  219.1202 H   0  0  0  0  0  0  0  0  0  0  0  0
  140.9853   75.2702  218.1582 H   0  0  0  0  0  0  0  0  0  0  0  0
  143.4641   75.1560  217.6070 H   0  0  0  0  0  0  0  0  0  0  0  0
  144.4585   75.6926  220.9168 H   0  0  0  0  0  0  0  0  0  0  0  0
  146.0347   74.1954  222.0535 H   0  0  0  0  0  0  0  0  0  0  0  0
  146.6195   71.9554  221.1132 H   0  0  0  0  0  0  0  0  0  0  0  0
  145.5438   71.2837  218.9629 H   0  0  0  0  0  0  0  0  0  0  0  0
  143.9730   72.7762  217.8325 H   0  0  0  0  0  0  0  0  0  0  0  0
  144.3095   76.9534  219.3140 H   0  0  0  0  0  0  0  0  0  0  0  0
  142.9667   77.3765  218.2336 H   0  0  0  0  0  0  0  0  0  0  0  0
  142.9897   76.9164  221.1588 H   0  0  0  0  0  0  0  0  0  0  0  0
  140.6765   77.8411  218.2861 H   0  0  0  0  0  0  0  0  0  0  0  0
  139.4855   80.0310  218.3866 H   0  0  0  0  0  0  0  0  0  0  0  0
  139.7600   81.5527  220.3065 H   0  0  0  0  0  0  0  0  0  0  0  0
  141.2512   80.9226  222.1875 H   0  0  0  0  0  0  0  0  0  0  0  0
  142.4514   78.7500  222.1140 H   0  0  0  0  0  0  0  0  0  0  0  0
  139.1101   70.2510  222.4255 H   0  0  0  0  0  0  0  0  0  0  0  0
  138.8219   68.5925  224.2815 H   0  0  0  0  0  0  0  0  0  0  0  0
  139.2329   68.0294  226.6683 H   0  0  0  0  0  0  0  0  0  0  0  0
  141.3610   70.8086  229.1706 H   0  0  0  0  0  0  0  0  0  0  0  0
  141.5871   72.3649  227.2485 H   0  0  0  0  0  0  0  0  0  0  0  0
  1  2  2  0
  2  3  1  0
  3  4  1  0
  4  5  1  0
  5  6  2  0
  5  7  1  0
  7  8  1  0
  8  9  1  0
  9 10  1  0
 10 11  2  0
 11 12  1  0
 12 13  2  0
 13 14  1  0
 14 15  2  0
  9 16  1  0
 16 17  1  0
 17 18  1  0
 18 19  2  0
 19 20  1  0
 20 21  2  0
 21 22  1  0
 22 23  2  0
  2 24  1  0
 24 25  2  0
 25 26  1  0
 26 27  2  0
 27 28  1  0
 28 29  2  0
 29 30  1  0
 29 31  1  0
 31 32  2  0
 32 33  1  0
 33 34  2  0
 17  7  1  0
 23 18  1  0
 34 24  1  0
 15 10  1  0
 33 27  1  0
  3 35  1  0
  4 36  1  0
  4 37  1  0
  8 38  1  0
  8 39  1  0
  9 40  1  6
 11 41  1  0
 12 42  1  0
 13 43  1  0
 14 44  1  0
 15 45  1  0
 16 46  1  0
 16 47  1  0
 17 48  1  1
 19 49  1  0
 20 50  1  0
 21 51  1  0
 22 52  1  0
 23 53  1  0
 25 54  1  0
 26 55  1  0
 28 56  1  0
 31 57  1  0
 32 58  1  0
M  END
>  <smiles>  (5) 
O=C(NCC(=O)N1C[C@H](c2ccccc2)C[C@H]1c1ccccc1)c1ccc2cc(F)ccc2n1

>  <score_type>  (5) 
oracle

>  <origin>  (5) 
autodockgpu

>  <m_score__min__energy>  (5) 
-9.7100000000000009

>  <m_primary>  (5) 
energy

>  <rmsd>  (5) 
1.8832691629580534

>  <m_score__min__rmsd>  (5) 
1.8832691629580534

>  <meeko>  (5) 
{"free_energy": -9.64, "intermolecular_energy": -11.43, "internal_energy": -2.0, "cluster_size": 21, "cluster_id": 2, "rank_in_cluster": 1}

>  <energy>  (5) 
-9.65

>  <cluster_rmsd>  (5) 
0.38

>  <cluster>  (5) 
1

$$$$

     RDKit          3D

 58 62  0  0  0  0  0  0  0  0999 V2000
  133.9360   69.1640  226.4960 O   0  0  0  0  0  0  0  0  0  0  0  0
  134.4220   70.2820  226.1110 C   0  0  0  0  0  0  0  0  0  0  0  0
  135.6190   70.3200  225.3430 N   0  0  0  0  0  0  0  0  0  0  0  0
  136.3640   69.1850  224.9550 C   0  0  0  0  0  0  0  0  0  0  0  0
  137.7760   69.2870  224.6550 C   0  0  0  0  0  0  0  0  0  0  0  0
  138.4680   68.2180  224.9370 O   0  0  0  0  0  0  0  0  0  0  0  0
  138.5120   70.3620  224.1010 N   0  0  0  0  0  0  0  0  0  0  0  0
  138.0230   71.5190  223.3330 C   0  0  0  0  0  0  0  0  0  0  0  0
  139.2490   71.8460  222.4500 C   0  0  2  0  0  0  0  0  0  0  0  0
  139.2540   71.1320  221.1840 C   0  0  0  0  0  0  0  0  0  0  0  0
  138.1670   70.2900  220.9110 C   0  0  0  0  0  0  0  0  0  0  0  0
  138.1010   69.5750  219.7310 C   0  0  0  0  0  0  0  0  0  0  0  0
  139.0950   69.6480  218.7620 C   0  0  0  0  0  0  0  0  0  0  0  0
  140.1600   70.4750  219.0340 C   0  0  0  0  0  0  0  0  0  0  0  0
  140.2220   71.1880  220.2150 C   0  0  0  0  0  0  0  0  0  0  0  0
  140.3630   71.6000  223.3870 C   0  0  0  0  0  0  0  0  0  0  0  0
  139.9590   70.4500  224.2300 C   0  0  1  0  0  0  0  0  0  0  0  0
  140.3480   70.6340  225.6670 C   0  0  0  0  0  0  0  0  0  0  0  0
  140.6680   71.8650  226.1930 C   0  0  0  0  0  0  0  0  0  0  0  0
  141.0140   71.9210  227.5410 C   0  0  0  0  0  0  0  0  0  0  0  0
  141.0420   70.7930  228.3380 C   0  0  0  0  0  0  0  0  0  0  0  0
  140.7220   69.5690  227.8040 C   0  0  0  0  0  0  0  0  0  0  0  0
  140.3760   69.4890  226.4680 C   0  0  0  0  0  0  0  0  0  0  0  0
  133.7350   71.5340  226.4680 C   0  0  0  0  0  0  0  0  0  0  0  0
  132.5530   71.5540  227.1370 C   0  0  0  0  0  0  0  0  0  0  0  0
  131.9370   72.7690  227.4560 C   0  0  0  0  0  0  0  0  0  0  0  0
  132.5590   73.9560  227.0750 C   0  0  0  0  0  0  0  0  0  0  0  0
  132.0280   75.1940  227.3440 C   0  0  0  0  0  0  0  0  0  0  0  0
  132.6830   76.3510  226.9430 C   0  0  0  0  0  0  0  0  0  0  0  0
  132.1870   77.5920  227.1910 F   0  0  0  0  0  0  0  0  0  0  0  0
  133.8870   76.2660  226.2630 C   0  0  0  0  0  0  0  0  0  0  0  0
  134.4350   75.0420  225.9850 C   0  0  0  0  0  0  0  0  0  0  0  0
  133.7540   73.9120  226.4000 C   0  0  0  0  0  0  0  0  0  0  0  0
  134.2890   72.7320  226.1260 N   0  0  0  0  0  0  0  0  0  0  0  0
  135.9380   71.2950  225.0630 H   0  0  0  0  0  0  0  0  0  0  0  0
  136.2699   68.4548  225.7723 H   0  0  0  0  0  0  0  0  0  0  0  0
  135.9269   68.9312  223.9780 H   0  0  0  0  0  0  0  0  0  0  0  0
  137.1474   71.2543  222.7221 H   0  0  0  0  0  0  0  0  0  0  0  0
  137.6836   72.3592  223.9566 H   0  0  0  0  0  0  0  0  0  0  0  0
  139.2903   72.8718  222.0549 H   0  0  0  0  0  0  0  0  0  0  0  0
  137.3549   70.1973  221.6471 H   0  0  0  0  0  0  0  0  0  0  0  0
  137.2317   68.9253  219.5519 H   0  0  0  0  0  0  0  0  0  0  0  0
  139.0331   69.0739  217.8257 H   0  0  0  0  0  0  0  0  0  0  0  0
  140.9740   70.5697  218.3002 H   0  0  0  0  0  0  0  0  0  0  0  0
  141.0945   71.8353  220.3873 H   0  0  0  0  0  0  0  0  0  0  0  0
  141.2810   71.3593  222.8308 H   0  0  0  0  0  0  0  0  0  0  0  0
  140.5699   72.4892  224.0006 H   0  0  0  0  0  0  0  0  0  0  0  0
  140.4659   69.5310  223.9005 H   0  0  0  0  0  0  0  0  0  0  0  0
  140.6511   72.7721  225.5710 H   0  0  0  0  0  0  0  0  0  0  0  0
  141.2730   72.8936  227.9848 H   0  0  0  0  0  0  0  0  0  0  0  0
  141.3203   70.8752  229.3990 H   0  0  0  0  0  0  0  0  0  0  0  0
  140.7407   68.6650  228.4305 H   0  0  0  0  0  0  0  0  0  0  0  0
  140.1198   68.5129  226.0303 H   0  0  0  0  0  0  0  0  0  0  0  0
  132.0762   70.6071  227.4304 H   0  0  0  0  0  0  0  0  0  0  0  0
  130.9796   72.7867  227.9974 H   0  0  0  0  0  0  0  0  0  0  0  0
  131.0724   75.2698  227.8835 H   0  0  0  0  0  0  0  0  0  0  0  0
  134.4040   77.1836  225.9457 H   0  0  0  0  0  0  0  0  0  0  0  0
  135.3906   74.9599  225.4464 H   0  0  0  0  0  0  0  0  0  0  0  0
  1  2  2  0
  2  3  1  0
  3  4  1  0
  4  5  1  0
  5  6  2  0
  5  7  1  0
  7  8  1  0
  8  9  1  0
  9 10  1  0
 10 11  2  0
 11 12  1  0
 12 13  2  0
 13 14  1  0
 14 15  2  0
  9 16  1  0
 16 17  1  0
 17 18  1  0
 18 19  2  0
 19 20  1  0
 20 21  2  0
 21 22  1  0
 22 23  2  0
  2 24  1  0
 24 25  2  0
 25 26  1  0
 26 27  2  0
 27 28  1  0
 28 29  2  0
 29 30  1  0
 29 31  1  0
 31 32  2  0
 32 33  1  0
 33 34  2  0
 17  7  1  0
 23 18  1  0
 34 24  1  0
 15 10  1  0
 33 27  1  0
  3 35  1  0
  4 36  1  0
  4 37  1  0
  8 38  1  0
  8 39  1  0
  9 40  1  6
 11 41  1  0
 12 42  1  0
 13 43  1  0
 14 44  1  0
 15 45  1  0
 16 46  1  0
 16 47  1  0
 17 48  1  6
 19 49  1  0
 20 50  1  0
 21 51  1  0
 22 52  1  0
 23 53  1  0
 25 54  1  0
 26 55  1  0
 28 56  1  0
 31 57  1  0
 32 58  1  0
M  END
>  <smiles>  (6) 
O=C(NCC(=O)N1C[C@H](c2ccccc2)C[C@H]1c1ccccc1)c1ccc2cc(F)ccc2n1

>  <score_type>  (6) 
oracle

>  <origin>  (6) 
autodockgpu

>  <m_score__min__energy>  (6) 
-9.7100000000000009

>  <m_primary>  (6) 
energy

>  <rmsd>  (6) 
7.820446047082197

>  <m_score__min__rmsd>  (6) 
7.820446047082197

>  <meeko>  (6) 
{"free_energy": -8.74, "intermolecular_energy": -10.53, "internal_energy": -2.03, "cluster_size": 1, "cluster_id": 4, "rank_in_cluster": 1}

>  <energy>  (6) 
-9.57

>  <cluster_rmsd>  (6) 
0.49

>  <cluster>  (6) 
1

$$$$

     RDKit          3D

 58 62  0  0  0  0  0  0  0  0999 V2000
  140.8310   71.6070  221.0550 O   0  0  0  0  0  0  0  0  0  0  0  0
  140.3110   72.0960  222.1150 C   0  0  0  0  0  0  0  0  0  0  0  0
  139.9430   73.4700  222.1670 N   0  0  0  0  0  0  0  0  0  0  0  0
  140.1170   74.3910  221.1110 C   0  0  0  0  0  0  0  0  0  0  0  0
  141.0220   75.5140  221.2420 C   0  0  0  0  0  0  0  0  0  0  0  0
  141.0280   76.0680  222.4230 O   0  0  0  0  0  0  0  0  0  0  0  0
  141.8980   76.0910  220.2920 N   0  0  0  0  0  0  0  0  0  0  0  0
  142.2850   77.5010  220.1280 C   0  0  0  0  0  0  0  0  0  0  0  0
  142.5900   77.5660  218.6140 C   0  0  2  0  0  0  0  0  0  0  0  0
  141.4270   77.8920  217.8050 C   0  0  0  0  0  0  0  0  0  0  0  0
  140.9630   79.2140  217.8430 C   0  0  0  0  0  0  0  0  0  0  0  0
  139.8620   79.6020  217.1060 C   0  0  0  0  0  0  0  0  0  0  0  0
  139.1590   78.7150  216.2970 C   0  0  0  0  0  0  0  0  0  0  0  0
  139.6180   77.4190  216.2640 C   0  0  0  0  0  0  0  0  0  0  0  0
  140.7200   77.0360  217.0030 C   0  0  0  0  0  0  0  0  0  0  0  0
  143.2450   76.2610  218.3880 C   0  0  0  0  0  0  0  0  0  0  0  0
  142.5670   75.2900  219.2780 C   0  0  1  0  0  0  0  0  0  0  0  0
  143.5310   74.3330  219.9140 C   0  0  0  0  0  0  0  0  0  0  0  0
  143.2910   72.9800  219.9810 C   0  0  0  0  0  0  0  0  0  0  0  0
  144.2550   72.1830  220.5940 C   0  0  0  0  0  0  0  0  0  0  0  0
  145.4180   72.7120  221.1200 C   0  0  0  0  0  0  0  0  0  0  0  0
  145.6480   74.0640  221.0490 C   0  0  0  0  0  0  0  0  0  0  0  0
  144.7040   74.8740  220.4470 C   0  0  0  0  0  0  0  0  0  0  0  0
  140.0940   71.2300  223.2850 C   0  0  0  0  0  0  0  0  0  0  0  0
  139.4760   70.0240  223.1970 C   0  0  0  0  0  0  0  0  0  0  0  0
  139.2930   69.2340  224.3370 C   0  0  0  0  0  0  0  0  0  0  0  0
  139.7540   69.7090  225.5630 C   0  0  0  0  0  0  0  0  0  0  0  0
  139.6160   69.0030  226.7330 C   0  0  0  0  0  0  0  0  0  0  0  0
  140.0900   69.5170  227.9330 C   0  0  0  0  0  0  0  0  0  0  0  0
  139.9710   68.8480  229.1100 F   0  0  0  0  0  0  0  0  0  0  0  0
  140.7110   70.7550  227.9600 C   0  0  0  0  0  0  0  0  0  0  0  0
  140.8600   71.4750  226.8040 C   0  0  0  0  0  0  0  0  0  0  0  0
  140.3760   70.9310  225.6280 C   0  0  0  0  0  0  0  0  0  0  0  0
  140.5210   71.6340  224.5150 N   0  0  0  0  0  0  0  0  0  0  0  0
  139.5100   73.7810  223.0880 H   0  0  0  0  0  0  0  0  0  0  0  0
  140.4630   73.8101  220.2433 H   0  0  0  0  0  0  0  0  0  0  0  0
  139.1330   74.8791  221.0512 H   0  0  0  0  0  0  0  0  0  0  0  0
  141.4617   78.1775  220.4009 H   0  0  0  0  0  0  0  0  0  0  0  0
  143.1246   77.8117  220.7672 H   0  0  0  0  0  0  0  0  0  0  0  0
  143.2429   78.3921  218.2958 H   0  0  0  0  0  0  0  0  0  0  0  0
  141.4838   79.9533  218.4693 H   0  0  0  0  0  0  0  0  0  0  0  0
  139.5290   80.6490  217.1603 H   0  0  0  0  0  0  0  0  0  0  0  0
  138.2821   79.0335  215.7143 H   0  0  0  0  0  0  0  0  0  0  0  0
  139.0996   76.6764  215.6397 H   0  0  0  0  0  0  0  0  0  0  0  0
  141.0474   75.9875  216.9444 H   0  0  0  0  0  0  0  0  0  0  0  0
  143.1322   75.9562  217.3371 H   0  0  0  0  0  0  0  0  0  0  0  0
  144.3222   76.3139  218.6044 H   0  0  0  0  0  0  0  0  0  0  0  0
  141.8635   74.6664  218.7068 H   0  0  0  0  0  0  0  0  0  0  0  0
  142.3709   72.5433  219.5654 H   0  0  0  0  0  0  0  0  0  0  0  0
  144.0850   71.0983  220.6614 H   0  0  0  0  0  0  0  0  0  0  0  0
  146.1583   72.0513  221.5948 H   0  0  0  0  0  0  0  0  0  0  0  0
  146.5701   74.4959  221.4652 H   0  0  0  0  0  0  0  0  0  0  0  0
  144.8781   75.9584  220.3866 H   0  0  0  0  0  0  0  0  0  0  0  0
  139.1163   69.6653  222.2213 H   0  0  0  0  0  0  0  0  0  0  0  0
  138.7944   68.2560  224.2667 H   0  0  0  0  0  0  0  0  0  0  0  0
  139.1244   68.0191  226.7195 H   0  0  0  0  0  0  0  0  0  0  0  0
  141.0852   71.1607  228.9115 H   0  0  0  0  0  0  0  0  0  0  0  0
  141.3513   72.4592  226.8109 H   0  0  0  0  0  0  0  0  0  0  0  0
  1  2  2  0
  2  3  1  0
  3  4  1  0
  4  5  1  0
  5  6  2  0
  5  7  1  0
  7  8  1  0
  8  9  1  0
  9 10  1  0
 10 11  2  0
 11 12  1  0
 12 13  2  0
 13 14  1  0
 14 15  2  0
  9 16  1  0
 16 17  1  0
 17 18  1  0
 18 19  2  0
 19 20  1  0
 20 21  2  0
 21 22  1  0
 22 23  2  0
  2 24  1  0
 24 25  2  0
 25 26  1  0
 26 27  2  0
 27 28  1  0
 28 29  2  0
 29 30  1  0
 29 31  1  0
 31 32  2  0
 32 33  1  0
 33 34  2  0
 17  7  1  0
 23 18  1  0
 34 24  1  0
 15 10  1  0
 33 27  1  0
  3 35  1  0
  4 36  1  0
  4 37  1  0
  8 38  1  0
  8 39  1  0
  9 40  1  1
 11 41  1  0
 12 42  1  0
 13 43  1  0
 14 44  1  0
 15 45  1  0
 16 46  1  0
 16 47  1  0
 17 48  1  6
 19 49  1  0
 20 50  1  0
 21 51  1  0
 22 52  1  0
 23 53  1  0
 25 54  1  0
 26 55  1  0
 28 56  1  0
 31 57  1  0
 32 58  1  0
M  END
>  <smiles>  (7) 
O=C(NCC(=O)N1C[C@H](c2ccccc2)C[C@H]1c1ccccc1)c1ccc2cc(F)ccc2n1

>  <score_type>  (7) 
oracle

>  <origin>  (7) 
autodockgpu

>  <m_score__min__energy>  (7) 
-9.7100000000000009

>  <m_primary>  (7) 
energy

>  <rmsd>  (7) 
2.3769285247459093

>  <m_score__min__rmsd>  (7) 
2.3769285247459093

>  <meeko>  (7) 
{"free_energy": -8.56, "intermolecular_energy": -10.35, "internal_energy": -2.24, "cluster_size": 21, "cluster_id": 2, "rank_in_cluster": 20}

>  <energy>  (7) 
-9.27

>  <cluster_rmsd>  (7) 
0.64

>  <cluster>  (7) 
1

$$$$

     RDKit          3D

 58 62  0  0  0  0  0  0  0  0999 V2000
  138.0240   71.2220  221.7030 O   0  0  0  0  0  0  0  0  0  0  0  0
  138.7860   71.5710  222.6670 C   0  0  0  0  0  0  0  0  0  0  0  0
  139.3860   72.8610  222.6800 N   0  0  0  0  0  0  0  0  0  0  0  0
  139.2210   73.8360  221.6730 C   0  0  0  0  0  0  0  0  0  0  0  0
  139.8090   75.1530  221.8060 C   0  0  0  0  0  0  0  0  0  0  0  0
  141.0990   75.1520  221.9960 O   0  0  0  0  0  0  0  0  0  0  0  0
  139.2000   76.4290  221.7550 N   0  0  0  0  0  0  0  0  0  0  0  0
  139.4040   77.5140  220.7810 C   0  0  0  0  0  0  0  0  0  0  0  0
  139.0890   78.7630  221.6360 C   0  0  2  0  0  0  0  0  0  0  0  0
  140.2510   79.2960  222.3270 C   0  0  0  0  0  0  0  0  0  0  0  0
  140.0690   80.4430  223.1120 C   0  0  0  0  0  0  0  0  0  0  0  0
  141.1250   81.0120  223.7950 C   0  0  0  0  0  0  0  0  0  0  0  0
  142.4110   80.4880  223.7450 C   0  0  0  0  0  0  0  0  0  0  0  0
  142.5860   79.3620  222.9730 C   0  0  0  0  0  0  0  0  0  0  0  0
  141.5270   78.7960  222.2910 C   0  0  0  0  0  0  0  0  0  0  0  0
  137.9580   78.2830  222.4550 C   0  0  0  0  0  0  0  0  0  0  0  0
  138.2250   76.8560  222.7480 C   0  0  1  0  0  0  0  0  0  0  0  0
  136.9850   76.0160  222.6620 C   0  0  0  0  0  0  0  0  0  0  0  0
  136.4700   75.5800  221.4620 C   0  0  0  0  0  0  0  0  0  0  0  0
  135.3140   74.8050  221.4990 C   0  0  0  0  0  0  0  0  0  0  0  0
  134.6910   74.4720  222.6860 C   0  0  0  0  0  0  0  0  0  0  0  0
  135.2120   74.9120  223.8790 C   0  0  0  0  0  0  0  0  0  0  0  0
  136.3580   75.6840  223.8660 C   0  0  0  0  0  0  0  0  0  0  0  0
  139.0410   70.6280  223.7690 C   0  0  0  0  0  0  0  0  0  0  0  0
  138.5980   69.3450  223.7500 C   0  0  0  0  0  0  0  0  0  0  0  0
  138.8660   68.4840  224.8200 C   0  0  0  0  0  0  0  0  0  0  0  0
  139.5940   68.9690  225.9050 C   0  0  0  0  0  0  0  0  0  0  0  0
  139.9020   68.1970  226.9980 C   0  0  0  0  0  0  0  0  0  0  0  0
  140.6290   68.7240  228.0580 C   0  0  0  0  0  0  0  0  0  0  0  0
  140.9510   67.9920  229.1560 F   0  0  0  0  0  0  0  0  0  0  0  0
  141.0530   70.0420  228.0200 C   0  0  0  0  0  0  0  0  0  0  0  0
  140.7580   70.8290  226.9380 C   0  0  0  0  0  0  0  0  0  0  0  0
  140.0320   70.2700  225.9020 C   0  0  0  0  0  0  0  0  0  0  0  0
  139.7480   71.0370  224.8610 N   0  0  0  0  0  0  0  0  0  0  0  0
  139.9960   73.0600  223.5290 H   0  0  0  0  0  0  0  0  0  0  0  0
  139.6301   73.4028  220.7483 H   0  0  0  0  0  0  0  0  0  0  0  0
  138.1423   74.0474  221.7156 H   0  0  0  0  0  0  0  0  0  0  0  0
  140.4398   77.5317  220.4110 H   0  0  0  0  0  0  0  0  0  0  0  0
  138.7861   77.4243  219.8754 H   0  0  0  0  0  0  0  0  0  0  0  0
  138.8092   79.6660  221.0736 H   0  0  0  0  0  0  0  0  0  0  0  0
  139.0695   80.8965  223.1848 H   0  0  0  0  0  0  0  0  0  0  0  0
  140.9420   81.9121  224.4003 H   0  0  0  0  0  0  0  0  0  0  0  0
  143.2455   80.9490  224.2937 H   0  0  0  0  0  0  0  0  0  0  0  0
  143.5843   78.9062  222.8982 H   0  0  0  0  0  0  0  0  0  0  0  0
  141.7173   77.8965  221.6870 H   0  0  0  0  0  0  0  0  0  0  0  0
  137.8960   78.8577  223.3909 H   0  0  0  0  0  0  0  0  0  0  0  0
  137.0024   78.4075  221.9245 H   0  0  0  0  0  0  0  0  0  0  0  0
  138.5950   76.7350  223.7768 H   0  0  0  0  0  0  0  0  0  0  0  0
  136.9546   75.8349  220.5080 H   0  0  0  0  0  0  0  0  0  0  0  0
  134.8830   74.4464  220.5526 H   0  0  0  0  0  0  0  0  0  0  0  0
  133.7798   73.8559  222.6763 H   0  0  0  0  0  0  0  0  0  0  0  0
  134.7240   74.6535  224.8303 H   0  0  0  0  0  0  0  0  0  0  0  0
  136.7823   76.0419  224.8157 H   0  0  0  0  0  0  0  0  0  0  0  0
  138.0235   68.9791  222.8862 H   0  0  0  0  0  0  0  0  0  0  0  0
  138.5087   67.4437  224.8051 H   0  0  0  0  0  0  0  0  0  0  0  0
  139.5692   67.1492  227.0347 H   0  0  0  0  0  0  0  0  0  0  0  0
  141.6279   70.4579  228.8605 H   0  0  0  0  0  0  0  0  0  0  0  0
  141.0895   71.8769  226.8945 H   0  0  0  0  0  0  0  0  0  0  0  0
  1  2  2  0
  2  3  1  0
  3  4  1  0
  4  5  1  0
  5  6  2  0
  5  7  1  0
  7  8  1  0
  8  9  1  0
  9 10  1  0
 10 11  2  0
 11 12  1  0
 12 13  2  0
 13 14  1  0
 14 15  2  0
  9 16  1  0
 16 17  1  0
 17 18  1  0
 18 19  2  0
 19 20  1  0
 20 21  2  0
 21 22  1  0
 22 23  2  0
  2 24  1  0
 24 25  2  0
 25 26  1  0
 26 27  2  0
 27 28  1  0
 28 29  2  0
 29 30  1  0
 29 31  1  0
 31 32  2  0
 32 33  1  0
 33 34  2  0
 17  7  1  0
 23 18  1  0
 34 24  1  0
 15 10  1  0
 33 27  1  0
  3 35  1  0
  4 36  1  0
  4 37  1  0
  8 38  1  0
  8 39  1  0
  9 40  1  6
 11 41  1  0
 12 42  1  0
 13 43  1  0
 14 44  1  0
 15 45  1  0
 16 46  1  0
 16 47  1  0
 17 48  1  1
 19 49  1  0
 20 50  1  0
 21 51  1  0
 22 52  1  0
 23 53  1  0
 25 54  1  0
 26 55  1  0
 28 56  1  0
 31 57  1  0
 32 58  1  0
M  END
>  <smiles>  (8) 
O=C(NCC(=O)N1C[C@H](c2ccccc2)C[C@H]1c1ccccc1)c1ccc2cc(F)ccc2n1

>  <score_type>  (8) 
oracle

>  <origin>  (8) 
autodockgpu

>  <m_score__min__energy>  (8) 
-9.7100000000000009

>  <m_primary>  (8) 
energy

>  <rmsd>  (8) 
2.8841949877455364

>  <m_score__min__rmsd>  (8) 
2.8841949877455364

>  <meeko>  (8) 
{"free_energy": -9.1, "intermolecular_energy": -10.89, "internal_energy": -2.34, "cluster_size": 25, "cluster_id": 1, "rank_in_cluster": 20}

>  <energy>  (8) 
-9.27

>  <cluster_rmsd>  (8) 
0.7

>  <cluster>  (8) 
1

$$$$

     RDKit          3D

 58 62  0  0  0  0  0  0  0  0999 V2000
  141.1810   73.7500  221.9290 O   0  0  0  0  0  0  0  0  0  0  0  0
  140.1010   73.0680  221.9810 C   0  0  0  0  0  0  0  0  0  0  0  0
  139.0700   73.2780  221.0230 N   0  0  0  0  0  0  0  0  0  0  0  0
  139.1250   74.2230  219.9760 C   0  0  0  0  0  0  0  0  0  0  0  0
  139.0940   75.6440  220.2510 C   0  0  0  0  0  0  0  0  0  0  0  0
  138.0830   76.2760  219.7220 O   0  0  0  0  0  0  0  0  0  0  0  0
  139.9840   76.4430  221.0070 N   0  0  0  0  0  0  0  0  0  0  0  0
  140.2250   76.4380  222.4600 C   0  0  0  0  0  0  0  0  0  0  0  0
  140.6610   77.9010  222.7070 C   0  0  2  0  0  0  0  0  0  0  0  0
  139.5500   78.7930  222.9920 C   0  0  0  0  0  0  0  0  0  0  0  0
  139.8240   79.9540  223.7280 C   0  0  0  0  0  0  0  0  0  0  0  0
  138.8200   80.8490  224.0430 C   0  0  0  0  0  0  0  0  0  0  0  0
  137.5000   80.6520  223.6550 C   0  0  0  0  0  0  0  0  0  0  0  0
  137.2360   79.5100  222.9340 C   0  0  0  0  0  0  0  0  0  0  0  0
  138.2430   78.6180  222.6210 C   0  0  0  0  0  0  0  0  0  0  0  0
  141.4760   78.1740  221.5060 C   0  0  0  0  0  0  0  0  0  0  0  0
  140.8310   77.4500  220.3860 C   0  0  1  0  0  0  0  0  0  0  0  0
  141.8320   76.8060  219.4730 C   0  0  0  0  0  0  0  0  0  0  0  0
  142.5410   75.6830  219.8320 C   0  0  0  0  0  0  0  0  0  0  0  0
  143.4450   75.1660  218.9070 C   0  0  0  0  0  0  0  0  0  0  0  0
  143.6370   75.7450  217.6670 C   0  0  0  0  0  0  0  0  0  0  0  0
  142.9250   76.8670  217.3190 C   0  0  0  0  0  0  0  0  0  0  0  0
  142.0230   77.3970  218.2220 C   0  0  0  0  0  0  0  0  0  0  0  0
  139.9280   72.0600  223.0410 C   0  0  0  0  0  0  0  0  0  0  0  0
  139.1910   70.9340  222.8640 C   0  0  0  0  0  0  0  0  0  0  0  0
  139.0560   70.0030  223.9000 C   0  0  0  0  0  0  0  0  0  0  0  0
  139.6900   70.2540  225.1140 C   0  0  0  0  0  0  0  0  0  0  0  0
  139.6110   69.3980  226.1850 C   0  0  0  0  0  0  0  0  0  0  0  0
  140.2590   69.6910  227.3780 C   0  0  0  0  0  0  0  0  0  0  0  0
  140.2030   68.8690  228.4590 F   0  0  0  0  0  0  0  0  0  0  0  0
  140.9970   70.8580  227.4980 C   0  0  0  0  0  0  0  0  0  0  0  0
  141.0890   71.7250  226.4420 C   0  0  0  0  0  0  0  0  0  0  0  0
  140.4310   71.4000  225.2700 C   0  0  0  0  0  0  0  0  0  0  0  0
  140.5220   72.2440  224.2540 N   0  0  0  0  0  0  0  0  0  0  0  0
  138.2150   72.6570  221.1450 H   0  0  0  0  0  0  0  0  0  0  0  0
  140.0604   74.0306  219.4300 H   0  0  0  0  0  0  0  0  0  0  0  0
  138.1726   74.0577  219.4510 H   0  0  0  0  0  0  0  0  0  0  0  0
  139.3095   76.1922  223.0180 H   0  0  0  0  0  0  0  0  0  0  0  0
  140.9610   75.6897  222.7893 H   0  0  0  0  0  0  0  0  0  0  0  0
  141.2445   78.0747  223.6232 H   0  0  0  0  0  0  0  0  0  0  0  0
  140.8533   80.1553  224.0595 H   0  0  0  0  0  0  0  0  0  0  0  0
  139.0742   81.7495  224.6214 H   0  0  0  0  0  0  0  0  0  0  0  0
  136.7079   81.3712  223.9108 H   0  0  0  0  0  0  0  0  0  0  0  0
  136.2076   79.3045  222.6020 H   0  0  0  0  0  0  0  0  0  0  0  0
  137.9816   77.7193  222.0431 H   0  0  0  0  0  0  0  0  0  0  0  0
  141.4968   79.2540  221.2984 H   0  0  0  0  0  0  0  0  0  0  0  0
  142.5155   77.8431  221.6472 H   0  0  0  0  0  0  0  0  0  0  0  0
  140.2586   78.1456  219.7547 H   0  0  0  0  0  0  0  0  0  0  0  0
  142.3990   75.2100  220.8149 H   0  0  0  0  0  0  0  0  0  0  0  0
  144.0241   74.2690  219.1717 H   0  0  0  0  0  0  0  0  0  0  0  0
  144.3582   75.3085  216.9604 H   0  0  0  0  0  0  0  0  0  0  0  0
  143.0708   77.3371  216.3352 H   0  0  0  0  0  0  0  0  0  0  0  0
  141.4484   78.2954  217.9522 H   0  0  0  0  0  0  0  0  0  0  0  0
  138.6960   70.7519  221.8987 H   0  0  0  0  0  0  0  0  0  0  0  0
  138.4599   69.0895  223.7579 H   0  0  0  0  0  0  0  0  0  0  0  0
  139.0277   68.4695  226.0970 H   0  0  0  0  0  0  0  0  0  0  0  0
  141.5099   71.0883  228.4435 H   0  0  0  0  0  0  0  0  0  0  0  0
  141.6707   72.6550  226.5239 H   0  0  0  0  0  0  0  0  0  0  0  0
  1  2  2  0
  2  3  1  0
  3  4  1  0
  4  5  1  0
  5  6  2  0
  5  7  1  0
  7  8  1  0
  8  9  1  0
  9 10  1  0
 10 11  2  0
 11 12  1  0
 12 13  2  0
 13 14  1  0
 14 15  2  0
  9 16  1  0
 16 17  1  0
 17 18  1  0
 18 19  2  0
 19 20  1  0
 20 21  2  0
 21 22  1  0
 22 23  2  0
  2 24  1  0
 24 25  2  0
 25 26  1  0
 26 27  2  0
 27 28  1  0
 28 29  2  0
 29 30  1  0
 29 31  1  0
 31 32  2  0
 32 33  1  0
 33 34  2  0
 17  7  1  0
 23 18  1  0
 34 24  1  0
 15 10  1  0
 33 27  1  0
  3 35  1  0
  4 36  1  0
  4 37  1  0
  8 38  1  0
  8 39  1  0
  9 40  1  1
 11 41  1  0
 12 42  1  0
 13 43  1  0
 14 44  1  0
 15 45  1  0
 16 46  1  0
 16 47  1  0
 17 48  1  6
 19 49  1  0
 20 50  1  0
 21 51  1  0
 22 52  1  0
 23 53  1  0
 25 54  1  0
 26 55  1  0
 28 56  1  0
 31 57  1  0
 32 58  1  0
M  END
>  <smiles>  (9) 
O=C(NCC(=O)N1C[C@H](c2ccccc2)C[C@H]1c1ccccc1)c1ccc2cc(F)ccc2n1

>  <score_type>  (9) 
oracle

>  <origin>  (9) 
autodockgpu

>  <m_score__min__energy>  (9) 
-9.7100000000000009

>  <m_primary>  (9) 
energy

>  <rmsd>  (9) 
2.9573681385021318

>  <m_score__min__rmsd>  (9) 
2.9573681385021318

>  <meeko>  (9) 
{"free_energy": -8.22, "intermolecular_energy": -10.01, "internal_energy": -2.1, "cluster_size": 1, "cluster_id": 6, "rank_in_cluster": 1}

>  <energy>  (9) 
-9.2

>  <cluster_rmsd>  (9) 
1.13

>  <cluster>  (9) 
1

$$$$

     RDKit          3D

 58 62  0  0  0  0  0  0  0  0999 V2000
  139.6320   71.4560  221.0240 O   0  0  0  0  0  0  0  0  0  0  0  0
  139.6110   71.9380  222.2080 C   0  0  0  0  0  0  0  0  0  0  0  0
  139.5810   73.3460  222.4110 N   0  0  0  0  0  0  0  0  0  0  0  0
  139.5830   74.3090  221.3780 C   0  0  0  0  0  0  0  0  0  0  0  0
  140.1650   75.6190  221.5820 C   0  0  0  0  0  0  0  0  0  0  0  0
  141.4510   75.6130  221.7950 O   0  0  0  0  0  0  0  0  0  0  0  0
  139.5520   76.8950  221.5790 N   0  0  0  0  0  0  0  0  0  0  0  0
  139.7790   78.0280  220.6670 C   0  0  0  0  0  0  0  0  0  0  0  0
  139.4360   79.2320  221.5750 C   0  0  2  0  0  0  0  0  0  0  0  0
  140.5770   79.7320  222.3220 C   0  0  0  0  0  0  0  0  0  0  0  0
  141.7830   79.0240  222.2170 C   0  0  0  0  0  0  0  0  0  0  0  0
  142.9100   79.4350  222.9000 C   0  0  0  0  0  0  0  0  0  0  0  0
  142.9140   80.5570  223.7210 C   0  0  0  0  0  0  0  0  0  0  0  0
  141.7290   81.2480  223.8220 C   0  0  0  0  0  0  0  0  0  0  0  0
  140.6040   80.8340  223.1360 C   0  0  0  0  0  0  0  0  0  0  0  0
  138.2850   78.7090  222.3370 C   0  0  0  0  0  0  0  0  0  0  0  0
  138.5500   77.2690  222.5650 C   0  0  1  0  0  0  0  0  0  0  0  0
  137.3150   76.4320  222.4040 C   0  0  0  0  0  0  0  0  0  0  0  0
  136.8070   76.0970  221.1690 C   0  0  0  0  0  0  0  0  0  0  0  0
  135.6560   75.3140  221.1360 C   0  0  0  0  0  0  0  0  0  0  0  0
  135.0320   74.8770  222.2880 C   0  0  0  0  0  0  0  0  0  0  0  0
  135.5470   75.2170  223.5160 C   0  0  0  0  0  0  0  0  0  0  0  0
  136.6880   75.9940  223.5730 C   0  0  0  0  0  0  0  0  0  0  0  0
  139.6180   71.0270  223.3640 C   0  0  0  0  0  0  0  0  0  0  0  0
  139.1470   69.7550  223.2950 C   0  0  0  0  0  0  0  0  0  0  0  0
  139.1750   68.9240  224.4200 C   0  0  0  0  0  0  0  0  0  0  0  0
  139.6940   69.4260  225.6110 C   0  0  0  0  0  0  0  0  0  0  0  0
  139.7600   68.6840  226.7650 C   0  0  0  0  0  0  0  0  0  0  0  0
  140.2830   69.2270  227.9310 C   0  0  0  0  0  0  0  0  0  0  0  0
  140.3640   68.5240  229.0910 F   0  0  0  0  0  0  0  0  0  0  0  0
  140.7480   70.5320  227.9400 C   0  0  0  0  0  0  0  0  0  0  0  0
  140.6920   71.2900  226.8000 C   0  0  0  0  0  0  0  0  0  0  0  0
  140.1640   70.7150  225.6580 C   0  0  0  0  0  0  0  0  0  0  0  0
  140.1120   71.4540  224.5600 N   0  0  0  0  0  0  0  0  0  0  0  0
  139.5550   73.6490  223.4300 H   0  0  0  0  0  0  0  0  0  0  0  0
  140.1186   73.8572  220.5301 H   0  0  0  0  0  0  0  0  0  0  0  0
  138.5135   74.5354  221.2557 H   0  0  0  0  0  0  0  0  0  0  0  0
  140.8245   78.0665  220.3273 H   0  0  0  0  0  0  0  0  0  0  0  0
  139.1866   77.9828  219.7412 H   0  0  0  0  0  0  0  0  0  0  0  0
  139.1677   80.1619  221.0522 H   0  0  0  0  0  0  0  0  0  0  0  0
  141.8316   78.1279  221.5809 H   0  0  0  0  0  0  0  0  0  0  0  0
  143.8378   78.8542  222.7908 H   0  0  0  0  0  0  0  0  0  0  0  0
  143.8176   80.8754  224.2615 H   0  0  0  0  0  0  0  0  0  0  0  0
  141.6765   82.1436  224.4586 H   0  0  0  0  0  0  0  0  0  0  0  0
  139.6802   81.4203  223.2491 H   0  0  0  0  0  0  0  0  0  0  0  0
  138.1950   79.2356  223.2985 H   0  0  0  0  0  0  0  0  0  0  0  0
  137.3437   78.8579  221.7876 H   0  0  0  0  0  0  0  0  0  0  0  0
  138.8936   77.0968  223.5957 H   0  0  0  0  0  0  0  0  0  0  0  0
  137.2928   76.4356  220.2420 H   0  0  0  0  0  0  0  0  0  0  0  0
  135.2301   75.0345  220.1611 H   0  0  0  0  0  0  0  0  0  0  0  0
  134.1249   74.2582  222.2228 H   0  0  0  0  0  0  0  0  0  0  0  0
  135.0578   74.8754  224.4402 H   0  0  0  0  0  0  0  0  0  0  0  0
  137.1080   76.2712  224.5511 H   0  0  0  0  0  0  0  0  0  0  0  0
  138.7400   69.3749  222.3464 H   0  0  0  0  0  0  0  0  0  0  0  0
  138.7943   67.8935  224.3650 H   0  0  0  0  0  0  0  0  0  0  0  0
  139.3940   67.6467  226.7655 H   0  0  0  0  0  0  0  0  0  0  0  0
  141.1630   70.9605  228.8642 H   0  0  0  0  0  0  0  0  0  0  0  0
  141.0570   72.3277  226.7931 H   0  0  0  0  0  0  0  0  0  0  0  0
  1  2  2  0
  2  3  1  0
  3  4  1  0
  4  5  1  0
  5  6  2  0
  5  7  1  0
  7  8  1  0
  8  9  1  0
  9 10  1  0
 10 11  2  0
 11 12  1  0
 12 13  2  0
 13 14  1  0
 14 15  2  0
  9 16  1  0
 16 17  1  0
 17 18  1  0
 18 19  2  0
 19 20  1  0
 20 21  2  0
 21 22  1  0
 22 23  2  0
  2 24  1  0
 24 25  2  0
 25 26  1  0
 26 27  2  0
 27 28  1  0
 28 29  2  0
 29 30  1  0
 29 31  1  0
 31 32  2  0
 32 33  1  0
 33 34  2  0
 17  7  1  0
 23 18  1  0
 34 24  1  0
 15 10  1  0
 33 27  1  0
  3 35  1  0
  4 36  1  0
  4 37  1  0
  8 38  1  0
  8 39  1  0
  9 40  1  6
 11 41  1  0
 12 42  1  0
 13 43  1  0
 14 44  1  0
 15 45  1  0
 16 46  1  0
 16 47  1  0
 17 48  1  1
 19 49  1  0
 20 50  1  0
 21 51  1  0
 22 52  1  0
 23 53  1  0
 25 54  1  0
 26 55  1  0
 28 56  1  0
 31 57  1  0
 32 58  1  0
M  END
>  <smiles>  (10) 
O=C(NCC(=O)N1C[C@H](c2ccccc2)C[C@H]1c1ccccc1)c1ccc2cc(F)ccc2n1

>  <score_type>  (10) 
oracle

>  <origin>  (10) 
autodockgpu

>  <m_score__min__energy>  (10) 
-9.7100000000000009

>  <m_primary>  (10) 
energy

>  <rmsd>  (10) 
2.9061399759539848

>  <m_score__min__rmsd>  (10) 
2.9061399759539848

>  <meeko>  (10) 
{"free_energy": -9.27, "intermolecular_energy": -11.06, "internal_energy": -2.15, "cluster_size": 25, "cluster_id": 1, "rank_in_cluster": 8}

>  <energy>  (10) 
-9.19

>  <cluster_rmsd>  (10) 
1.16

>  <cluster>  (10) 
1

$$$$

     RDKit          3D

 58 62  0  0  0  0  0  0  0  0999 V2000
  137.9520   71.2300  221.7420 O   0  0  0  0  0  0  0  0  0  0  0  0
  138.7460   71.5670  222.6840 C   0  0  0  0  0  0  0  0  0  0  0  0
  139.3620   72.8500  222.6830 N   0  0  0  0  0  0  0  0  0  0  0  0
  139.1790   73.8300  221.6830 C   0  0  0  0  0  0  0  0  0  0  0  0
  139.7640   75.1480  221.8150 C   0  0  0  0  0  0  0  0  0  0  0  0
  141.0590   75.1520  221.9690 O   0  0  0  0  0  0  0  0  0  0  0  0
  139.1470   76.4210  221.7970 N   0  0  0  0  0  0  0  0  0  0  0  0
  139.3510   77.5350  220.8560 C   0  0  0  0  0  0  0  0  0  0  0  0
  139.0230   78.7570  221.7440 C   0  0  2  0  0  0  0  0  0  0  0  0
  140.1760   79.2770  222.4580 C   0  0  0  0  0  0  0  0  0  0  0  0
  140.3660   80.6660  222.4580 C   0  0  0  0  0  0  0  0  0  0  0  0
  141.4410   81.2360  223.1100 C   0  0  0  0  0  0  0  0  0  0  0  0
  142.3840   80.4770  223.7940 C   0  0  0  0  0  0  0  0  0  0  0  0
  142.1940   79.1140  223.7900 C   0  0  0  0  0  0  0  0  0  0  0  0
  141.1170   78.5480  223.1370 C   0  0  0  0  0  0  0  0  0  0  0  0
  137.8890   78.2470  222.5410 C   0  0  0  0  0  0  0  0  0  0  0  0
  138.1630   76.8130  222.7950 C   0  0  1  0  0  0  0  0  0  0  0  0
  136.9290   75.9690  222.6770 C   0  0  0  0  0  0  0  0  0  0  0  0
  136.4480   75.5310  221.4640 C   0  0  0  0  0  0  0  0  0  0  0  0
  135.2950   74.7510  221.4700 C   0  0  0  0  0  0  0  0  0  0  0  0
  134.6420   74.4160  222.6410 C   0  0  0  0  0  0  0  0  0  0  0  0
  135.1290   74.8590  223.8460 C   0  0  0  0  0  0  0  0  0  0  0  0
  136.2720   75.6350  223.8640 C   0  0  0  0  0  0  0  0  0  0  0  0
  139.0220   70.6180  223.7760 C   0  0  0  0  0  0  0  0  0  0  0  0
  138.6040   69.3270  223.7450 C   0  0  0  0  0  0  0  0  0  0  0  0
  138.8910   68.4600  224.8050 C   0  0  0  0  0  0  0  0  0  0  0  0
  139.6120   68.9480  225.8930 C   0  0  0  0  0  0  0  0  0  0  0  0
  139.9380   68.1710  226.9770 C   0  0  0  0  0  0  0  0  0  0  0  0
  140.6580   68.7010  228.0410 C   0  0  0  0  0  0  0  0  0  0  0  0
  140.9970   67.9640  229.1300 F   0  0  0  0  0  0  0  0  0  0  0  0
  141.0560   70.0270  228.0150 C   0  0  0  0  0  0  0  0  0  0  0  0
  140.7430   70.8200  226.9430 C   0  0  0  0  0  0  0  0  0  0  0  0
  140.0260   70.2580  225.9030 C   0  0  0  0  0  0  0  0  0  0  0  0
  139.7240   71.0300  224.8700 N   0  0  0  0  0  0  0  0  0  0  0  0
  139.9990   73.0390  223.5130 H   0  0  0  0  0  0  0  0  0  0  0  0
  139.5766   73.4033  220.7503 H   0  0  0  0  0  0  0  0  0  0  0  0
  138.1002   74.0370  221.7415 H   0  0  0  0  0  0  0  0  0  0  0  0
  140.3891   77.5693  220.4937 H   0  0  0  0  0  0  0  0  0  0  0  0
  138.7395   77.4678  219.9441 H   0  0  0  0  0  0  0  0  0  0  0  0
  138.7421   79.6741  221.2055 H   0  0  0  0  0  0  0  0  0  0  0  0
  139.6479   81.3112  221.9307 H   0  0  0  0  0  0  0  0  0  0  0  0
  141.5556   82.3298  223.0876 H   0  0  0  0  0  0  0  0  0  0  0  0
  143.2367   80.9414  224.3110 H   0  0  0  0  0  0  0  0  0  0  0  0
  142.9110   78.4656  224.3149 H   0  0  0  0  0  0  0  0  0  0  0  0
  141.0086   77.4537  223.1632 H   0  0  0  0  0  0  0  0  0  0  0  0
  137.8170   78.7943  223.4925 H   0  0  0  0  0  0  0  0  0  0  0  0
  136.9364   78.3811  222.0076 H   0  0  0  0  0  0  0  0  0  0  0  0
  138.5270   76.6642  223.8223 H   0  0  0  0  0  0  0  0  0  0  0  0
  136.9567   75.7882  220.5232 H   0  0  0  0  0  0  0  0  0  0  0  0
  134.8910   74.3900  220.5127 H   0  0  0  0  0  0  0  0  0  0  0  0
  133.7341   73.7958  222.6078 H   0  0  0  0  0  0  0  0  0  0  0  0
  134.6162   74.5997  224.7840 H   0  0  0  0  0  0  0  0  0  0  0  0
  136.6696   75.9943  224.8246 H   0  0  0  0  0  0  0  0  0  0  0  0
  138.0345   68.9591  222.8788 H   0  0  0  0  0  0  0  0  0  0  0  0
  138.5540   67.4132  224.7799 H   0  0  0  0  0  0  0  0  0  0  0  0
  139.6256   67.1166  227.0036 H   0  0  0  0  0  0  0  0  0  0  0  0
  141.6255   70.4450  228.8582 H   0  0  0  0  0  0  0  0  0  0  0  0
  141.0535   71.8748  226.9104 H   0  0  0  0  0  0  0  0  0  0  0  0
  1  2  2  0
  2  3  1  0
  3  4  1  0
  4  5  1  0
  5  6  2  0
  5  7  1  0
  7  8  1  0
  8  9  1  0
  9 10  1  0
 10 11  2  0
 11 12  1  0
 12 13  2  0
 13 14  1  0
 14 15  2  0
  9 16  1  0
 16 17  1  0
 17 18  1  0
 18 19  2  0
 19 20  1  0
 20 21  2  0
 21 22  1  0
 22 23  2  0
  2 24  1  0
 24 25  2  0
 25 26  1  0
 26 27  2  0
 27 28  1  0
 28 29  2  0
 29 30  1  0
 29 31  1  0
 31 32  2  0
 32 33  1  0
 33 34  2  0
 17  7  1  0
 23 18  1  0
 34 24  1  0
 15 10  1  0
 33 27  1  0
  3 35  1  0
  4 36  1  0
  4 37  1  0
  8 38  1  0
  8 39  1  0
  9 40  1  6
 11 41  1  0
 12 42  1  0
 13 43  1  0
 14 44  1  0
 15 45  1  0
 16 46  1  0
 16 47  1  0
 17 48  1  1
 19 49  1  0
 20 50  1  0
 21 51  1  0
 22 52  1  0
 23 53  1  0
 25 54  1  0
 26 55  1  0
 28 56  1  0
 31 57  1  0
 32 58  1  0
M  END
>  <smiles>  (11) 
O=C(NCC(=O)N1C[C@H](c2ccccc2)C[C@H]1c1ccccc1)c1ccc2cc(F)ccc2n1

>  <score_type>  (11) 
oracle

>  <origin>  (11) 
autodockgpu

>  <m_score__min__energy>  (11) 
-9.7100000000000009

>  <m_primary>  (11) 
energy

>  <rmsd>  (11) 
2.932331187314905

>  <m_score__min__rmsd>  (11) 
2.932331187314905

>  <meeko>  (11) 
{"free_energy": -9.19, "intermolecular_energy": -10.98, "internal_energy": -2.31, "cluster_size": 25, "cluster_id": 1, "rank_in_cluster": 11}

>  <energy>  (11) 
-9.19

>  <cluster_rmsd>  (11) 
1.21

>  <cluster>  (11) 
1

$$$$

     RDKit          3D

 58 62  0  0  0  0  0  0  0  0999 V2000
  141.4060   72.8270  222.0120 O   0  0  0  0  0  0  0  0  0  0  0  0
  140.3010   72.6770  222.6380 C   0  0  0  0  0  0  0  0  0  0  0  0
  139.1910   73.5170  222.3470 N   0  0  0  0  0  0  0  0  0  0  0  0
  139.1960   74.5600  221.3950 C   0  0  0  0  0  0  0  0  0  0  0  0
  140.0000   74.4680  220.1950 C   0  0  0  0  0  0  0  0  0  0  0  0
  139.6100   73.5540  219.3500 O   0  0  0  0  0  0  0  0  0  0  0  0
  141.1330   75.2190  219.8000 N   0  0  0  0  0  0  0  0  0  0  0  0
  141.8360   75.2230  218.5070 C   0  0  0  0  0  0  0  0  0  0  0  0
  143.2730   75.6020  218.9350 C   0  0  2  0  0  0  0  0  0  0  0  0
  144.0960   74.4520  219.2680 C   0  0  0  0  0  0  0  0  0  0  0  0
  144.8160   74.4970  220.4700 C   0  0  0  0  0  0  0  0  0  0  0  0
  145.6240   73.4460  220.8550 C   0  0  0  0  0  0  0  0  0  0  0  0
  145.7690   72.2990  220.0830 C   0  0  0  0  0  0  0  0  0  0  0  0
  145.0610   72.2590  218.9030 C   0  0  0  0  0  0  0  0  0  0  0  0
  144.2540   73.3130  218.5230 C   0  0  0  0  0  0  0  0  0  0  0  0
  143.0130   76.5970  219.9940 C   0  0  0  0  0  0  0  0  0  0  0  0
  141.7940   76.1470  220.7060 C   0  0  1  0  0  0  0  0  0  0  0  0
  140.8820   77.2870  221.0490 C   0  0  0  0  0  0  0  0  0  0  0  0
  140.1160   77.9290  220.1040 C   0  0  0  0  0  0  0  0  0  0  0  0
  139.3030   78.9750  220.5330 C   0  0  0  0  0  0  0  0  0  0  0  0
  139.2520   79.3690  221.8560 C   0  0  0  0  0  0  0  0  0  0  0  0
  140.0210   78.7220  222.7930 C   0  0  0  0  0  0  0  0  0  0  0  0
  140.8360   77.6820  222.3890 C   0  0  0  0  0  0  0  0  0  0  0  0
  140.1830   71.6270  223.6630 C   0  0  0  0  0  0  0  0  0  0  0  0
  139.6280   70.4140  223.4060 C   0  0  0  0  0  0  0  0  0  0  0  0
  139.5380   69.4460  224.4130 C   0  0  0  0  0  0  0  0  0  0  0  0
  140.0270   69.7510  225.6810 C   0  0  0  0  0  0  0  0  0  0  0  0
  139.9800   68.8640  226.7290 C   0  0  0  0  0  0  0  0  0  0  0  0
  140.4780   69.2120  227.9780 C   0  0  0  0  0  0  0  0  0  0  0  0
  140.4470   68.3620  229.0370 F   0  0  0  0  0  0  0  0  0  0  0  0
  141.0320   70.4650  228.1780 C   0  0  0  0  0  0  0  0  0  0  0  0
  141.0900   71.3650  227.1470 C   0  0  0  0  0  0  0  0  0  0  0  0
  140.5840   70.9830  225.9180 C   0  0  0  0  0  0  0  0  0  0  0  0
  140.6420   71.8590  224.9260 N   0  0  0  0  0  0  0  0  0  0  0  0
  138.3140   73.3090  222.9130 H   0  0  0  0  0  0  0  0  0  0  0  0
  138.1545   74.6877  221.0650 H   0  0  0  0  0  0  0  0  0  0  0  0
  139.6718   75.3866  221.9431 H   0  0  0  0  0  0  0  0  0  0  0  0
  141.8072   74.2315  218.0315 H   0  0  0  0  0  0  0  0  0  0  0  0
  141.3974   75.9026  217.7615 H   0  0  0  0  0  0  0  0  0  0  0  0
  143.9082   76.0295  218.1452 H   0  0  0  0  0  0  0  0  0  0  0  0
  144.7359   75.3835  221.1164 H   0  0  0  0  0  0  0  0  0  0  0  0
  146.1723   73.5186  221.8059 H   0  0  0  0  0  0  0  0  0  0  0  0
  146.4156   71.4669  220.3985 H   0  0  0  0  0  0  0  0  0  0  0  0
  145.1393   71.3747  218.2535 H   0  0  0  0  0  0  0  0  0  0  0  0
  143.7086   73.2340  217.5710 H   0  0  0  0  0  0  0  0  0  0  0  0
  143.8640   76.6425  220.6895 H   0  0  0  0  0  0  0  0  0  0  0  0
  142.8766   77.6025  219.5694 H   0  0  0  0  0  0  0  0  0  0  0  0
  142.0570   75.6788  221.6660 H   0  0  0  0  0  0  0  0  0  0  0  0
  140.1446   77.6268  219.0467 H   0  0  0  0  0  0  0  0  0  0  0  0
  138.6819   79.5041  219.7952 H   0  0  0  0  0  0  0  0  0  0  0  0
  138.5970   80.1992  222.1588 H   0  0  0  0  0  0  0  0  0  0  0  0
  139.9883   79.0275  223.8492 H   0  0  0  0  0  0  0  0  0  0  0  0
  141.4564   77.1583  223.1312 H   0  0  0  0  0  0  0  0  0  0  0  0
  139.2464   70.1908  222.3988 H   0  0  0  0  0  0  0  0  0  0  0  0
  139.0895   68.4629  224.2068 H   0  0  0  0  0  0  0  0  0  0  0  0
  139.5427   67.8661  226.5771 H   0  0  0  0  0  0  0  0  0  0  0  0
  141.4267   70.7385  229.1676 H   0  0  0  0  0  0  0  0  0  0  0  0
  141.5270   72.3639  227.2926 H   0  0  0  0  0  0  0  0  0  0  0  0
  1  2  2  0
  2  3  1  0
  3  4  1  0
  4  5  1  0
  5  6  2  0
  5  7  1  0
  7  8  1  0
  8  9  1  0
  9 10  1  0
 10 11  2  0
 11 12  1  0
 12 13  2  0
 13 14  1  0
 14 15  2  0
  9 16  1  0
 16 17  1  0
 17 18  1  0
 18 19  2  0
 19 20  1  0
 20 21  2  0
 21 22  1  0
 22 23  2  0
  2 24  1  0
 24 25  2  0
 25 26  1  0
 26 27  2  0
 27 28  1  0
 28 29  2  0
 29 30  1  0
 29 31  1  0
 31 32  2  0
 32 33  1  0
 33 34  2  0
 17  7  1  0
 23 18  1  0
 34 24  1  0
 15 10  1  0
 33 27  1  0
  3 35  1  0
  4 36  1  0
  4 37  1  0
  8 38  1  0
  8 39  1  0
  9 40  1  6
 11 41  1  0
 12 42  1  0
 13 43  1  0
 14 44  1  0
 15 45  1  0
 16 46  1  0
 16 47  1  0
 17 48  1  1
 19 49  1  0
 20 50  1  0
 21 51  1  0
 22 52  1  0
 23 53  1  0
 25 54  1  0
 26 55  1  0
 28 56  1  0
 31 57  1  0
 32 58  1  0
M  END
>  <smiles>  (12) 
O=C(NCC(=O)N1C[C@H](c2ccccc2)C[C@H]1c1ccccc1)c1ccc2cc(F)ccc2n1

>  <score_type>  (12) 
oracle

>  <origin>  (12) 
autodockgpu

>  <m_score__min__energy>  (12) 
-9.7100000000000009

>  <m_primary>  (12) 
energy

>  <rmsd>  (12) 
2.02426851682644

>  <m_score__min__rmsd>  (12) 
2.02426851682644

>  <meeko>  (12) 
{"free_energy": -9.05, "intermolecular_energy": -10.84, "internal_energy": -2.05, "cluster_size": 21, "cluster_id": 2, "rank_in_cluster": 16}

>  <energy>  (12) 
-9.17

>  <cluster_rmsd>  (12) 
1.14

>  <cluster>  (12) 
1

$$$$

     RDKit          3D

 58 62  0  0  0  0  0  0  0  0999 V2000
  141.3780   72.6810  221.9420 O   0  0  0  0  0  0  0  0  0  0  0  0
  140.2900   72.6100  222.6090 C   0  0  0  0  0  0  0  0  0  0  0  0
  139.2240   73.5150  222.3430 N   0  0  0  0  0  0  0  0  0  0  0  0
  139.2600   74.5410  221.3740 C   0  0  0  0  0  0  0  0  0  0  0  0
  139.9110   75.8050  221.6490 C   0  0  0  0  0  0  0  0  0  0  0  0
  141.1770   75.7080  221.9450 O   0  0  0  0  0  0  0  0  0  0  0  0
  139.3850   77.1180  221.6400 N   0  0  0  0  0  0  0  0  0  0  0  0
  139.6850   78.2290  220.7220 C   0  0  0  0  0  0  0  0  0  0  0  0
  139.4240   79.4570  221.6230 C   0  0  2  0  0  0  0  0  0  0  0  0
  140.5960   79.8850  222.3680 C   0  0  0  0  0  0  0  0  0  0  0  0
  141.7650   79.1230  222.2310 C   0  0  0  0  0  0  0  0  0  0  0  0
  142.9180   79.4630  222.9090 C   0  0  0  0  0  0  0  0  0  0  0  0
  142.9860   80.5630  223.7550 C   0  0  0  0  0  0  0  0  0  0  0  0
  141.8370   81.3080  223.8870 C   0  0  0  0  0  0  0  0  0  0  0  0
  140.6850   80.9650  223.2070 C   0  0  0  0  0  0  0  0  0  0  0  0
  138.2410   79.0160  222.3890 C   0  0  0  0  0  0  0  0  0  0  0  0
  138.4100   77.5630  222.6250 C   0  0  1  0  0  0  0  0  0  0  0  0
  137.1220   76.8080  222.4680 C   0  0  0  0  0  0  0  0  0  0  0  0
  136.3480   76.8980  221.3340 C   0  0  0  0  0  0  0  0  0  0  0  0
  135.1720   76.1530  221.2950 C   0  0  0  0  0  0  0  0  0  0  0  0
  134.7800   75.3460  222.3450 C   0  0  0  0  0  0  0  0  0  0  0  0
  135.5590   75.2640  223.4730 C   0  0  0  0  0  0  0  0  0  0  0  0
  136.7300   75.9950  223.5350 C   0  0  0  0  0  0  0  0  0  0  0  0
  140.1430   71.5860  223.6560 C   0  0  0  0  0  0  0  0  0  0  0  0
  139.5500   70.3860  223.4260 C   0  0  0  0  0  0  0  0  0  0  0  0
  139.4350   69.4420  224.4520 C   0  0  0  0  0  0  0  0  0  0  0  0
  139.9380   69.7570  225.7120 C   0  0  0  0  0  0  0  0  0  0  0  0
  139.8680   68.8930  226.7780 C   0  0  0  0  0  0  0  0  0  0  0  0
  140.3820   69.2510  228.0180 C   0  0  0  0  0  0  0  0  0  0  0  0
  140.3290   68.4240  229.0940 F   0  0  0  0  0  0  0  0  0  0  0  0
  140.9750   70.4900  228.1910 C   0  0  0  0  0  0  0  0  0  0  0  0
  141.0570   71.3670  227.1410 C   0  0  0  0  0  0  0  0  0  0  0  0
  140.5340   70.9760  225.9220 C   0  0  0  0  0  0  0  0  0  0  0  0
  140.6150   71.8290  224.9120 N   0  0  0  0  0  0  0  0  0  0  0  0
  138.3570   73.3710  222.9440 H   0  0  0  0  0  0  0  0  0  0  0  0
  139.7590   74.1183  220.4895 H   0  0  0  0  0  0  0  0  0  0  0  0
  138.2017   74.8282  221.2869 H   0  0  0  0  0  0  0  0  0  0  0  0
  140.7303   78.1965  220.3809 H   0  0  0  0  0  0  0  0  0  0  0  0
  139.0893   78.2182  219.7973 H   0  0  0  0  0  0  0  0  0  0  0  0
  139.2184   80.3993  221.0941 H   0  0  0  0  0  0  0  0  0  0  0  0
  141.7631   78.2412  221.5734 H   0  0  0  0  0  0  0  0  0  0  0  0
  143.8152   78.8409  222.7748 H   0  0  0  0  0  0  0  0  0  0  0  0
  143.9102   80.8245  224.2912 H   0  0  0  0  0  0  0  0  0  0  0  0
  141.8359   82.1902  224.5441 H   0  0  0  0  0  0  0  0  0  0  0  0
  139.7917   81.5917  223.3461 H   0  0  0  0  0  0  0  0  0  0  0  0
  138.1872   79.5529  223.3476 H   0  0  0  0  0  0  0  0  0  0  0  0
  137.3111   79.2241  221.8394 H   0  0  0  0  0  0  0  0  0  0  0  0
  138.7415   77.3743  223.6567 H   0  0  0  0  0  0  0  0  0  0  0  0
  136.6472   77.5353  220.4888 H   0  0  0  0  0  0  0  0  0  0  0  0
  134.5353   76.2091  220.3997 H   0  0  0  0  0  0  0  0  0  0  0  0
  133.8453   74.7699  222.2779 H   0  0  0  0  0  0  0  0  0  0  0  0
  135.2550   74.6253  224.3154 H   0  0  0  0  0  0  0  0  0  0  0  0
  137.3607   75.9364  224.4343 H   0  0  0  0  0  0  0  0  0  0  0  0
  139.1570   70.1545  222.4250 H   0  0  0  0  0  0  0  0  0  0  0  0
  138.9562   68.4691  224.2671 H   0  0  0  0  0  0  0  0  0  0  0  0
  139.3995   67.9063  226.6481 H   0  0  0  0  0  0  0  0  0  0  0  0
  141.3814   70.7713  229.1737 H   0  0  0  0  0  0  0  0  0  0  0  0
  141.5258   72.3544  227.2645 H   0  0  0  0  0  0  0  0  0  0  0  0
  1  2  2  0
  2  3  1  0
  3  4  1  0
  4  5  1  0
  5  6  2  0
  5  7  1  0
  7  8  1  0
  8  9  1  0
  9 10  1  0
 10 11  2  0
 11 12  1  0
 12 13  2  0
 13 14  1  0
 14 15  2  0
  9 16  1  0
 16 17  1  0
 17 18  1  0
 18 19  2  0
 19 20  1  0
 20 21  2  0
 21 22  1  0
 22 23  2  0
  2 24  1  0
 24 25  2  0
 25 26  1  0
 26 27  2  0
 27 28  1  0
 28 29  2  0
 29 30  1  0
 29 31  1  0
 31 32  2  0
 32 33  1  0
 33 34  2  0
 17  7  1  0
 23 18  1  0
 34 24  1  0
 15 10  1  0
 33 27  1  0
  3 35  1  0
  4 36  1  0
  4 37  1  0
  8 38  1  0
  8 39  1  0
  9 40  1  6
 11 41  1  0
 12 42  1  0
 13 43  1  0
 14 44  1  0
 15 45  1  0
 16 46  1  0
 16 47  1  0
 17 48  1  1
 19 49  1  0
 20 50  1  0
 21 51  1  0
 22 52  1  0
 23 53  1  0
 25 54  1  0
 26 55  1  0
 28 56  1  0
 31 57  1  0
 32 58  1  0
M  END
>  <smiles>  (13) 
O=C(NCC(=O)N1C[C@H](c2ccccc2)C[C@H]1c1ccccc1)c1ccc2cc(F)ccc2n1

>  <score_type>  (13) 
oracle

>  <origin>  (13) 
autodockgpu

>  <m_score__min__energy>  (13) 
-9.7100000000000009

>  <m_primary>  (13) 
energy

>  <rmsd>  (13) 
3.0820349681478536

>  <m_score__min__rmsd>  (13) 
3.0820349681478536

>  <meeko>  (13) 
{"free_energy": -9.7, "intermolecular_energy": -11.49, "internal_energy": -1.9, "cluster_size": 25, "cluster_id": 1, "rank_in_cluster": 2}

>  <energy>  (13) 
-9.16

>  <cluster_rmsd>  (13) 
1.16

>  <cluster>  (13) 
1

$$$$

     RDKit          3D

 58 62  0  0  0  0  0  0  0  0999 V2000
  141.4070   72.5900  221.8720 O   0  0  0  0  0  0  0  0  0  0  0  0
  140.3380   72.5680  222.5710 C   0  0  0  0  0  0  0  0  0  0  0  0
  139.3040   73.5180  222.3350 N   0  0  0  0  0  0  0  0  0  0  0  0
  139.3560   74.5380  221.3600 C   0  0  0  0  0  0  0  0  0  0  0  0
  140.0000   75.8040  221.6400 C   0  0  0  0  0  0  0  0  0  0  0  0
  141.2690   75.7140  221.9280 O   0  0  0  0  0  0  0  0  0  0  0  0
  139.4650   77.1150  221.6420 N   0  0  0  0  0  0  0  0  0  0  0  0
  139.7580   78.2350  220.7330 C   0  0  0  0  0  0  0  0  0  0  0  0
  139.4900   79.4540  221.6460 C   0  0  2  0  0  0  0  0  0  0  0  0
  140.6600   79.8830  222.3930 C   0  0  0  0  0  0  0  0  0  0  0  0
  141.8080   79.0820  222.3160 C   0  0  0  0  0  0  0  0  0  0  0  0
  142.9580   79.4200  223.0010 C   0  0  0  0  0  0  0  0  0  0  0  0
  143.0420   80.5570  223.7960 C   0  0  0  0  0  0  0  0  0  0  0  0
  141.9130   81.3400  223.8700 C   0  0  0  0  0  0  0  0  0  0  0  0
  140.7650   80.9980  223.1830 C   0  0  0  0  0  0  0  0  0  0  0  0
  138.3100   78.9990  222.4080 C   0  0  0  0  0  0  0  0  0  0  0  0
  138.4880   77.5450  222.6310 C   0  0  1  0  0  0  0  0  0  0  0  0
  137.2060   76.7840  222.4690 C   0  0  0  0  0  0  0  0  0  0  0  0
  136.4540   76.8420  221.3180 C   0  0  0  0  0  0  0  0  0  0  0  0
  135.2800   76.0930  221.2740 C   0  0  0  0  0  0  0  0  0  0  0  0
  134.8680   75.3130  222.3370 C   0  0  0  0  0  0  0  0  0  0  0  0
  135.6250   75.2630  223.4830 C   0  0  0  0  0  0  0  0  0  0  0  0
  136.7930   75.9980  223.5480 C   0  0  0  0  0  0  0  0  0  0  0  0
  140.1790   71.5540  223.6260 C   0  0  0  0  0  0  0  0  0  0  0  0
  139.5910   70.3510  223.4000 C   0  0  0  0  0  0  0  0  0  0  0  0
  139.4630   69.4160  224.4340 C   0  0  0  0  0  0  0  0  0  0  0  0
  139.9490   69.7440  225.6980 C   0  0  0  0  0  0  0  0  0  0  0  0
  139.8660   68.8910  226.7710 C   0  0  0  0  0  0  0  0  0  0  0  0
  140.3630   69.2610  228.0140 C   0  0  0  0  0  0  0  0  0  0  0  0
  140.2980   68.4450  229.0970 F   0  0  0  0  0  0  0  0  0  0  0  0
  140.9530   70.5040  228.1820 C   0  0  0  0  0  0  0  0  0  0  0  0
  141.0470   71.3700  227.1250 C   0  0  0  0  0  0  0  0  0  0  0  0
  140.5410   70.9660  225.9030 C   0  0  0  0  0  0  0  0  0  0  0  0
  140.6330   71.8090  224.8860 N   0  0  0  0  0  0  0  0  0  0  0  0
  138.4510   73.4130  222.9610 H   0  0  0  0  0  0  0  0  0  0  0  0
  139.8719   74.1108  220.4874 H   0  0  0  0  0  0  0  0  0  0  0  0
  138.2991   74.8228  221.2507 H   0  0  0  0  0  0  0  0  0  0  0  0
  140.8032   78.2116  220.3910 H   0  0  0  0  0  0  0  0  0  0  0  0
  139.1623   78.2287  219.8083 H   0  0  0  0  0  0  0  0  0  0  0  0
  139.2781   80.4002  221.1266 H   0  0  0  0  0  0  0  0  0  0  0  0
  141.7922   78.1705  221.7005 H   0  0  0  0  0  0  0  0  0  0  0  0
  143.8386   78.7666  222.9146 H   0  0  0  0  0  0  0  0  0  0  0  0
  143.9632   80.8173  224.3379 H   0  0  0  0  0  0  0  0  0  0  0  0
  141.9251   82.2517  224.4854 H   0  0  0  0  0  0  0  0  0  0  0  0
  139.8880   81.6556  223.2747 H   0  0  0  0  0  0  0  0  0  0  0  0
  138.2530   79.5270  223.3713 H   0  0  0  0  0  0  0  0  0  0  0  0
  137.3788   79.2063  221.8604 H   0  0  0  0  0  0  0  0  0  0  0  0
  138.8213   77.3492  223.6608 H   0  0  0  0  0  0  0  0  0  0  0  0
  136.7687   77.4580  220.4627 H   0  0  0  0  0  0  0  0  0  0  0  0
  134.6620   76.1237  220.3645 H   0  0  0  0  0  0  0  0  0  0  0  0
  133.9359   74.7331  222.2664 H   0  0  0  0  0  0  0  0  0  0  0  0
  135.3055   74.6466  224.3362 H   0  0  0  0  0  0  0  0  0  0  0  0
  137.4057   75.9640  224.4609 H   0  0  0  0  0  0  0  0  0  0  0  0
  139.2121   70.1092  222.3960 H   0  0  0  0  0  0  0  0  0  0  0  0
  138.9877   68.4408  224.2521 H   0  0  0  0  0  0  0  0  0  0  0  0
  139.4002   67.9026  226.6445 H   0  0  0  0  0  0  0  0  0  0  0  0
  141.3468   70.7957  229.1668 H   0  0  0  0  0  0  0  0  0  0  0  0
  141.5121   72.3596  227.2448 H   0  0  0  0  0  0  0  0  0  0  0  0
  1  2  2  0
  2  3  1  0
  3  4  1  0
  4  5  1  0
  5  6  2  0
  5  7  1  0
  7  8  1  0
  8  9  1  0
  9 10  1  0
 10 11  2  0
 11 12  1  0
 12 13  2  0
 13 14  1  0
 14 15  2  0
  9 16  1  0
 16 17  1  0
 17 18  1  0
 18 19  2  0
 19 20  1  0
 20 21  2  0
 21 22  1  0
 22 23  2  0
  2 24  1  0
 24 25  2  0
 25 26  1  0
 26 27  2  0
 27 28  1  0
 28 29  2  0
 29 30  1  0
 29 31  1  0
 31 32  2  0
 32 33  1  0
 33 34  2  0
 17  7  1  0
 23 18  1  0
 34 24  1  0
 15 10  1  0
 33 27  1  0
  3 35  1  0
  4 36  1  0
  4 37  1  0
  8 38  1  0
  8 39  1  0
  9 40  1  6
 11 41  1  0
 12 42  1  0
 13 43  1  0
 14 44  1  0
 15 45  1  0
 16 46  1  0
 16 47  1  0
 17 48  1  1
 19 49  1  0
 20 50  1  0
 21 51  1  0
 22 52  1  0
 23 53  1  0
 25 54  1  0
 26 55  1  0
 28 56  1  0
 31 57  1  0
 32 58  1  0
M  END
>  <smiles>  (14) 
O=C(NCC(=O)N1C[C@H](c2ccccc2)C[C@H]1c1ccccc1)c1ccc2cc(F)ccc2n1

>  <score_type>  (14) 
oracle

>  <origin>  (14) 
autodockgpu

>  <m_score__min__energy>  (14) 
-9.7100000000000009

>  <m_primary>  (14) 
energy

>  <rmsd>  (14) 
3.07802471576503

>  <m_score__min__rmsd>  (14) 
3.07802471576503

>  <meeko>  (14) 
{"free_energy": -9.69, "intermolecular_energy": -11.48, "internal_energy": -1.9, "cluster_size": 25, "cluster_id": 1, "rank_in_cluster": 3}

>  <energy>  (14) 
-9.16

>  <cluster_rmsd>  (14) 
1.15

>  <cluster>  (14) 
1

$$$$

     RDKit          3D

 58 62  0  0  0  0  0  0  0  0999 V2000
  141.0120   73.2000  222.4230 O   0  0  0  0  0  0  0  0  0  0  0  0
  139.8760   72.6890  222.7070 C   0  0  0  0  0  0  0  0  0  0  0  0
  138.7070   73.1000  222.0070 N   0  0  0  0  0  0  0  0  0  0  0  0
  138.6810   74.0760  220.9870 C   0  0  0  0  0  0  0  0  0  0  0  0
  139.3130   75.3660  221.1720 C   0  0  0  0  0  0  0  0  0  0  0  0
  140.5980   75.3750  220.9490 O   0  0  0  0  0  0  0  0  0  0  0  0
  138.7500   76.6080  221.5500 N   0  0  0  0  0  0  0  0  0  0  0  0
  138.8320   77.9080  220.8640 C   0  0  0  0  0  0  0  0  0  0  0  0
  138.7050   78.8930  222.0490 C   0  0  2  0  0  0  0  0  0  0  0  0
  139.9810   79.2390  222.6500 C   0  0  0  0  0  0  0  0  0  0  0  0
  140.2330   80.5950  222.9010 C   0  0  0  0  0  0  0  0  0  0  0  0
  141.4240   81.0040  223.4670 C   0  0  0  0  0  0  0  0  0  0  0  0
  142.4290   80.1080  223.8130 C   0  0  0  0  0  0  0  0  0  0  0  0
  142.1780   78.7780  223.5640 C   0  0  0  0  0  0  0  0  0  0  0  0
  140.9850   78.3730  222.9990 C   0  0  0  0  0  0  0  0  0  0  0  0
  137.7050   78.2110  222.8950 C   0  0  0  0  0  0  0  0  0  0  0  0
  137.9650   76.7580  222.7660 C   0  0  1  0  0  0  0  0  0  0  0  0
  136.6980   75.9590  222.6770 C   0  0  0  0  0  0  0  0  0  0  0  0
  136.1950   75.2520  223.7440 C   0  0  0  0  0  0  0  0  0  0  0  0
  135.0100   74.5450  223.5510 C   0  0  0  0  0  0  0  0  0  0  0  0
  134.3480   74.5430  222.3380 C   0  0  0  0  0  0  0  0  0  0  0  0
  134.8590   75.2510  221.2780 C   0  0  0  0  0  0  0  0  0  0  0  0
  136.0340   75.9590  221.4470 C   0  0  0  0  0  0  0  0  0  0  0  0
  139.7810   71.6690  223.7640 C   0  0  0  0  0  0  0  0  0  0  0  0
  139.0850   70.5130  223.6040 C   0  0  0  0  0  0  0  0  0  0  0  0
  139.0240   69.5710  224.6360 C   0  0  0  0  0  0  0  0  0  0  0  0
  139.6880   69.8420  225.8300 C   0  0  0  0  0  0  0  0  0  0  0  0
  139.6820   68.9770  226.8970 C   0  0  0  0  0  0  0  0  0  0  0  0
  140.3580   69.2890  228.0700 C   0  0  0  0  0  0  0  0  0  0  0  0
  140.3720   68.4590  229.1450 F   0  0  0  0  0  0  0  0  0  0  0  0
  141.0500   70.4840  228.1730 C   0  0  0  0  0  0  0  0  0  0  0  0
  141.0710   71.3610  227.1210 C   0  0  0  0  0  0  0  0  0  0  0  0
  140.3860   71.0160  225.9700 C   0  0  0  0  0  0  0  0  0  0  0  0
  140.4080   71.8690  224.9570 N   0  0  0  0  0  0  0  0  0  0  0  0
  137.8120   72.6110  222.3080 H   0  0  0  0  0  0  0  0  0  0  0  0
  139.1545   73.6195  220.1053 H   0  0  0  0  0  0  0  0  0  0  0  0
  137.6138   74.3359  220.9284 H   0  0  0  0  0  0  0  0  0  0  0  0
  139.7939   78.0275  220.3439 H   0  0  0  0  0  0  0  0  0  0  0  0
  138.0726   78.0496  220.0809 H   0  0  0  0  0  0  0  0  0  0  0  0
  138.3705   79.9082  221.7892 H   0  0  0  0  0  0  0  0  0  0  0  0
  139.4703   81.3445  222.6431 H   0  0  0  0  0  0  0  0  0  0  0  0
  141.5833   82.0768  223.6507 H   0  0  0  0  0  0  0  0  0  0  0  0
  143.3751   80.4444  224.2622 H   0  0  0  0  0  0  0  0  0  0  0  0
  142.9394   78.0261  223.8190 H   0  0  0  0  0  0  0  0  0  0  0  0
  140.8320   77.2986  222.8194 H   0  0  0  0  0  0  0  0  0  0  0  0
  137.8164   78.5253  223.9432 H   0  0  0  0  0  0  0  0  0  0  0  0
  136.6811   78.4612  222.5805 H   0  0  0  0  0  0  0  0  0  0  0  0
  138.4927   76.3789  223.6536 H   0  0  0  0  0  0  0  0  0  0  0  0
  136.7102   75.2449  224.7159 H   0  0  0  0  0  0  0  0  0  0  0  0
  134.5887   73.9711  224.3895 H   0  0  0  0  0  0  0  0  0  0  0  0
  133.4131   73.9751  222.2216 H   0  0  0  0  0  0  0  0  0  0  0  0
  134.3404   75.2546  220.3079 H   0  0  0  0  0  0  0  0  0  0  0  0
  136.4514   76.5290  220.6039 H   0  0  0  0  0  0  0  0  0  0  0  0
  138.5651   70.3164  222.6548 H   0  0  0  0  0  0  0  0  0  0  0  0
  138.4624   68.6340  224.5072 H   0  0  0  0  0  0  0  0  0  0  0  0
  139.1352   68.0255  226.8218 H   0  0  0  0  0  0  0  0  0  0  0  0
  141.5845   70.7298  229.1025 H   0  0  0  0  0  0  0  0  0  0  0  0
  141.6175   72.3132  227.1897 H   0  0  0  0  0  0  0  0  0  0  0  0
  1  2  2  0
  2  3  1  0
  3  4  1  0
  4  5  1  0
  5  6  2  0
  5  7  1  0
  7  8  1  0
  8  9  1  0
  9 10  1  0
 10 11  2  0
 11 12  1  0
 12 13  2  0
 13 14  1  0
 14 15  2  0
  9 16  1  0
 16 17  1  0
 17 18  1  0
 18 19  2  0
 19 20  1  0
 20 21  2  0
 21 22  1  0
 22 23  2  0
  2 24  1  0
 24 25  2  0
 25 26  1  0
 26 27  2  0
 27 28  1  0
 28 29  2  0
 29 30  1  0
 29 31  1  0
 31 32  2  0
 32 33  1  0
 33 34  2  0
 17  7  1  0
 23 18  1  0
 34 24  1  0
 15 10  1  0
 33 27  1  0
  3 35  1  0
  4 36  1  0
  4 37  1  0
  8 38  1  0
  8 39  1  0
  9 40  1  6
 11 41  1  0
 12 42  1  0
 13 43  1  0
 14 44  1  0
 15 45  1  0
 16 46  1  0
 16 47  1  0
 17 48  1  1
 19 49  1  0
 20 50  1  0
 21 51  1  0
 22 52  1  0
 23 53  1  0
 25 54  1  0
 26 55  1  0
 28 56  1  0
 31 57  1  0
 32 58  1  0
M  END
>  <smiles>  (15) 
O=C(NCC(=O)N1C[C@H](c2ccccc2)C[C@H]1c1ccccc1)c1ccc2cc(F)ccc2n1

>  <score_type>  (15) 
oracle

>  <origin>  (15) 
autodockgpu

>  <m_score__min__energy>  (15) 
-9.7100000000000009

>  <m_primary>  (15) 
energy

>  <rmsd>  (15) 
3.1849709699238042

>  <m_score__min__rmsd>  (15) 
3.1849709699238042

>  <meeko>  (15) 
{"free_energy": -8.74, "intermolecular_energy": -10.53, "internal_energy": -1.95, "cluster_size": 25, "cluster_id": 1, "rank_in_cluster": 23}

>  <energy>  (15) 
-9.16

>  <cluster_rmsd>  (15) 
1.21

>  <cluster>  (15) 
1

$$$$

     RDKit          3D

 58 62  0  0  0  0  0  0  0  0999 V2000
  140.0270   70.5680  221.5730 O   0  0  0  0  0  0  0  0  0  0  0  0
  139.7000   71.3400  222.5370 C   0  0  0  0  0  0  0  0  0  0  0  0
  138.9680   72.5340  222.2860 N   0  0  0  0  0  0  0  0  0  0  0  0
  138.5590   72.9740  221.0080 C   0  0  0  0  0  0  0  0  0  0  0  0
  139.5300   73.3780  220.0130 C   0  0  0  0  0  0  0  0  0  0  0  0
  139.5650   72.6210  218.9520 O   0  0  0  0  0  0  0  0  0  0  0  0
  140.4350   74.4660  220.0160 N   0  0  0  0  0  0  0  0  0  0  0  0
  141.3440   74.9170  218.9490 C   0  0  0  0  0  0  0  0  0  0  0  0
  142.4840   75.5680  219.7660 C   0  0  2  0  0  0  0  0  0  0  0  0
  143.5350   74.6350  220.1340 C   0  0  0  0  0  0  0  0  0  0  0  0
  143.2130   73.2710  220.1560 C   0  0  0  0  0  0  0  0  0  0  0  0
  144.1560   72.3230  220.4990 C   0  0  0  0  0  0  0  0  0  0  0  0
  145.4610   72.6620  220.8380 C   0  0  0  0  0  0  0  0  0  0  0  0
  145.7730   74.0010  220.8160 C   0  0  0  0  0  0  0  0  0  0  0  0
  144.8260   74.9460  220.4720 C   0  0  0  0  0  0  0  0  0  0  0  0
  141.7310   76.2240  220.8540 C   0  0  0  0  0  0  0  0  0  0  0  0
  140.5910   75.3330  221.1740 C   0  0  1  0  0  0  0  0  0  0  0  0
  139.3270   76.0980  221.4330 C   0  0  0  0  0  0  0  0  0  0  0  0
  138.7390   76.8960  220.4780 C   0  0  0  0  0  0  0  0  0  0  0  0
  137.5650   77.5600  220.8260 C   0  0  0  0  0  0  0  0  0  0  0  0
  136.9940   77.4350  222.0770 C   0  0  0  0  0  0  0  0  0  0  0  0
  137.5890   76.6360  223.0240 C   0  0  0  0  0  0  0  0  0  0  0  0
  138.7550   75.9680  222.7010 C   0  0  0  0  0  0  0  0  0  0  0  0
  140.0840   70.9870  223.9140 C   0  0  0  0  0  0  0  0  0  0  0  0
  140.6640   71.8760  224.7610 C   0  0  0  0  0  0  0  0  0  0  0  0
  141.0110   71.4960  226.0620 C   0  0  0  0  0  0  0  0  0  0  0  0
  140.7520   70.1900  226.4700 C   0  0  0  0  0  0  0  0  0  0  0  0
  141.0590   69.7290  227.7270 C   0  0  0  0  0  0  0  0  0  0  0  0
  140.7840   68.4170  228.0900 C   0  0  0  0  0  0  0  0  0  0  0  0
  141.0750   67.9260  229.3230 F   0  0  0  0  0  0  0  0  0  0  0  0
  140.1910   67.5560  227.1810 C   0  0  0  0  0  0  0  0  0  0  0  0
  139.8750   67.9960  225.9230 C   0  0  0  0  0  0  0  0  0  0  0  0
  140.1640   69.3080  225.5970 C   0  0  0  0  0  0  0  0  0  0  0  0
  139.8580   69.7260  224.3780 N   0  0  0  0  0  0  0  0  0  0  0  0
  138.7350   73.1050  223.1530 H   0  0  0  0  0  0  0  0  0  0  0  0
  137.9802   72.1506  220.5641 H   0  0  0  0  0  0  0  0  0  0  0  0
  138.0358   73.9153  221.2320 H   0  0  0  0  0  0  0  0  0  0  0  0
  141.7118   74.0704  218.3507 H   0  0  0  0  0  0  0  0  0  0  0  0
  140.8755   75.5923  218.2179 H   0  0  0  0  0  0  0  0  0  0  0  0
  143.1014   76.2978  219.2218 H   0  0  0  0  0  0  0  0  0  0  0  0
  142.1932   72.9511  219.8960 H   0  0  0  0  0  0  0  0  0  0  0  0
  143.8647   71.2623  220.5043 H   0  0  0  0  0  0  0  0  0  0  0  0
  146.2052   71.8988  221.1097 H   0  0  0  0  0  0  0  0  0  0  0  0
  146.7917   74.3244  221.0762 H   0  0  0  0  0  0  0  0  0  0  0  0
  145.1242   76.0048  220.4693 H   0  0  0  0  0  0  0  0  0  0  0  0
  142.3735   76.3512  221.7377 H   0  0  0  0  0  0  0  0  0  0  0  0
  141.3825   77.2222  220.5506 H   0  0  0  0  0  0  0  0  0  0  0  0
  140.7894   74.7668  222.0960 H   0  0  0  0  0  0  0  0  0  0  0  0
  139.1802   77.0054  219.4763 H   0  0  0  0  0  0  0  0  0  0  0  0
  137.0770   78.2047  220.0802 H   0  0  0  0  0  0  0  0  0  0  0  0
  136.0650   77.9737  222.3152 H   0  0  0  0  0  0  0  0  0  0  0  0
  137.1437   76.5298  224.0242 H   0  0  0  0  0  0  0  0  0  0  0  0
  139.2388   75.3259  223.4518 H   0  0  0  0  0  0  0  0  0  0  0  0
  140.8626   72.9033  224.4214 H   0  0  0  0  0  0  0  0  0  0  0  0
  141.4796   72.2154  226.7497 H   0  0  0  0  0  0  0  0  0  0  0  0
  141.5283   70.4072  228.4549 H   0  0  0  0  0  0  0  0  0  0  0  0
  139.9735   66.5172  227.4701 H   0  0  0  0  0  0  0  0  0  0  0  0
  139.4037   67.3232  225.1914 H   0  0  0  0  0  0  0  0  0  0  0  0
  1  2  2  0
  2  3  1  0
  3  4  1  0
  4  5  1  0
  5  6  2  0
  5  7  1  0
  7  8  1  0
  8  9  1  0
  9 10  1  0
 10 11  2  0
 11 12  1  0
 12 13  2  0
 13 14  1  0
 14 15  2  0
  9 16  1  0
 16 17  1  0
 17 18  1  0
 18 19  2  0
 19 20  1  0
 20 21  2  0
 21 22  1  0
 22 23  2  0
  2 24  1  0
 24 25  2  0
 25 26  1  0
 26 27  2  0
 27 28  1  0
 28 29  2  0
 29 30  1  0
 29 31  1  0
 31 32  2  0
 32 33  1  0
 33 34  2  0
 17  7  1  0
 23 18  1  0
 34 24  1  0
 15 10  1  0
 33 27  1  0
  3 35  1  0
  4 36  1  0
  4 37  1  0
  8 38  1  0
  8 39  1  0
  9 40  1  6
 11 41  1  0
 12 42  1  0
 13 43  1  0
 14 44  1  0
 15 45  1  0
 16 46  1  0
 16 47  1  0
 17 48  1  1
 19 49  1  0
 20 50  1  0
 21 51  1  0
 22 52  1  0
 23 53  1  0
 25 54  1  0
 26 55  1  0
 28 56  1  0
 31 57  1  0
 32 58  1  0
M  END
>  <smiles>  (16) 
O=C(NCC(=O)N1C[C@H](c2ccccc2)C[C@H]1c1ccccc1)c1ccc2cc(F)ccc2n1

>  <score_type>  (16) 
oracle

>  <origin>  (16) 
autodockgpu

>  <m_score__min__energy>  (16) 
-9.7100000000000009

>  <m_primary>  (16) 
energy

>  <rmsd>  (16) 
2.885674123696419

>  <m_score__min__rmsd>  (16) 
2.885674123696419

>  <meeko>  (16) 
{"free_energy": -8.48, "intermolecular_energy": -10.27, "internal_energy": -2.15, "cluster_size": 1, "cluster_id": 5, "rank_in_cluster": 1}

>  <energy>  (16) 
-9.16

>  <cluster_rmsd>  (16) 
0.9

>  <cluster>  (16) 
1

$$$$

     RDKit          3D

 58 62  0  0  0  0  0  0  0  0999 V2000
  141.2700   72.5560  221.9690 O   0  0  0  0  0  0  0  0  0  0  0  0
  140.1850   72.4230  222.6300 C   0  0  0  0  0  0  0  0  0  0  0  0
  139.0750   73.2760  222.3720 N   0  0  0  0  0  0  0  0  0  0  0  0
  139.0630   74.3140  221.4140 C   0  0  0  0  0  0  0  0  0  0  0  0
  139.7220   75.5760  221.6740 C   0  0  0  0  0  0  0  0  0  0  0  0
  140.9940   75.4760  221.9480 O   0  0  0  0  0  0  0  0  0  0  0  0
  139.2000   76.8910  221.6710 N   0  0  0  0  0  0  0  0  0  0  0  0
  139.4890   77.9990  220.7450 C   0  0  0  0  0  0  0  0  0  0  0  0
  139.2470   79.2300  221.6490 C   0  0  2  0  0  0  0  0  0  0  0  0
  140.4320   79.6550  222.3730 C   0  0  0  0  0  0  0  0  0  0  0  0
  140.5650   81.0230  222.6540 C   0  0  0  0  0  0  0  0  0  0  0  0
  141.6650   81.5050  223.3360 C   0  0  0  0  0  0  0  0  0  0  0  0
  142.6900   80.6750  223.7740 C   0  0  0  0  0  0  0  0  0  0  0  0
  142.5560   79.3340  223.4960 C   0  0  0  0  0  0  0  0  0  0  0  0
  141.4540   78.8560  222.8150 C   0  0  0  0  0  0  0  0  0  0  0  0
  138.0750   78.7950  222.4350 C   0  0  0  0  0  0  0  0  0  0  0  0
  138.2430   77.3410  222.6700 C   0  0  1  0  0  0  0  0  0  0  0  0
  136.9510   76.5910  222.5360 C   0  0  0  0  0  0  0  0  0  0  0  0
  136.1520   76.6910  221.4200 C   0  0  0  0  0  0  0  0  0  0  0  0
  134.9740   75.9480  221.4000 C   0  0  0  0  0  0  0  0  0  0  0  0
  134.6020   75.1350  222.4530 C   0  0  0  0  0  0  0  0  0  0  0  0
  135.4060   75.0420  223.5630 C   0  0  0  0  0  0  0  0  0  0  0  0
  136.5800   75.7710  223.6050 C   0  0  0  0  0  0  0  0  0  0  0  0
  140.0870   71.3800  223.6650 C   0  0  0  0  0  0  0  0  0  0  0  0
  139.5210   70.1690  223.4290 C   0  0  0  0  0  0  0  0  0  0  0  0
  139.4510   69.2070  224.4440 C   0  0  0  0  0  0  0  0  0  0  0  0
  139.9730   69.5170  225.6980 C   0  0  0  0  0  0  0  0  0  0  0  0
  139.9470   68.6370  226.7520 C   0  0  0  0  0  0  0  0  0  0  0  0
  140.4780   68.9890  227.9860 C   0  0  0  0  0  0  0  0  0  0  0  0
  140.4700   68.1460  229.0510 F   0  0  0  0  0  0  0  0  0  0  0  0
  141.0430   70.2420  228.1650 C   0  0  0  0  0  0  0  0  0  0  0  0
  141.0800   71.1350  227.1270 C   0  0  0  0  0  0  0  0  0  0  0  0
  140.5420   70.7480  225.9130 C   0  0  0  0  0  0  0  0  0  0  0  0
  140.5780   71.6170  224.9140 N   0  0  0  0  0  0  0  0  0  0  0  0
  138.2150   73.0810  222.9670 H   0  0  0  0  0  0  0  0  0  0  0  0
  139.5219   73.9036  220.5024 H   0  0  0  0  0  0  0  0  0  0  0  0
  138.0010   74.5984  221.3789 H   0  0  0  0  0  0  0  0  0  0  0  0
  140.5284   77.9621  220.3867 H   0  0  0  0  0  0  0  0  0  0  0  0
  138.8786   77.9885  219.8299 H   0  0  0  0  0  0  0  0  0  0  0  0
  139.0359   80.1723  221.1222 H   0  0  0  0  0  0  0  0  0  0  0  0
  139.7815   81.7221  222.3263 H   0  0  0  0  0  0  0  0  0  0  0  0
  141.7322   82.5839  223.5397 H   0  0  0  0  0  0  0  0  0  0  0  0
  143.5629   81.0695  224.3147 H   0  0  0  0  0  0  0  0  0  0  0  0
  143.3384   78.6324  223.8211 H   0  0  0  0  0  0  0  0  0  0  0  0
  141.3931   77.7758  222.6166 H   0  0  0  0  0  0  0  0  0  0  0  0
  138.0390   79.3334  223.3936 H   0  0  0  0  0  0  0  0  0  0  0  0
  137.1368   79.0062  221.9010 H   0  0  0  0  0  0  0  0  0  0  0  0
  138.5910   77.1527  223.6964 H   0  0  0  0  0  0  0  0  0  0  0  0
  136.4336   77.3349  220.5738 H   0  0  0  0  0  0  0  0  0  0  0  0
  134.3195   76.0106  220.5181 H   0  0  0  0  0  0  0  0  0  0  0  0
  133.6637   74.5631  222.4028 H   0  0  0  0  0  0  0  0  0  0  0  0
  135.1198   74.3966  224.4065 H   0  0  0  0  0  0  0  0  0  0  0  0
  137.2296   75.7048  224.4902 H   0  0  0  0  0  0  0  0  0  0  0  0
  139.1141   69.9416  222.4326 H   0  0  0  0  0  0  0  0  0  0  0  0
  138.9926   68.2251  224.2549 H   0  0  0  0  0  0  0  0  0  0  0  0
  139.5001   67.6410  226.6171 H   0  0  0  0  0  0  0  0  0  0  0  0
  141.4627   70.5199  229.1431 H   0  0  0  0  0  0  0  0  0  0  0  0
  141.5254   72.1326  227.2554 H   0  0  0  0  0  0  0  0  0  0  0  0
  1  2  2  0
  2  3  1  0
  3  4  1  0
  4  5  1  0
  5  6  2  0
  5  7  1  0
  7  8  1  0
  8  9  1  0
  9 10  1  0
 10 11  2  0
 11 12  1  0
 12 13  2  0
 13 14  1  0
 14 15  2  0
  9 16  1  0
 16 17  1  0
 17 18  1  0
 18 19  2  0
 19 20  1  0
 20 21  2  0
 21 22  1  0
 22 23  2  0
  2 24  1  0
 24 25  2  0
 25 26  1  0
 26 27  2  0
 27 28  1  0
 28 29  2  0
 29 30  1  0
 29 31  1  0
 31 32  2  0
 32 33  1  0
 33 34  2  0
 17  7  1  0
 23 18  1  0
 34 24  1  0
 15 10  1  0
 33 27  1  0
  3 35  1  0
  4 36  1  0
  4 37  1  0
  8 38  1  0
  8 39  1  0
  9 40  1  6
 11 41  1  0
 12 42  1  0
 13 43  1  0
 14 44  1  0
 15 45  1  0
 16 46  1  0
 16 47  1  0
 17 48  1  1
 19 49  1  0
 20 50  1  0
 21 51  1  0
 22 52  1  0
 23 53  1  0
 25 54  1  0
 26 55  1  0
 28 56  1  0
 31 57  1  0
 32 58  1  0
M  END
>  <smiles>  (17) 
O=C(NCC(=O)N1C[C@H](c2ccccc2)C[C@H]1c1ccccc1)c1ccc2cc(F)ccc2n1

>  <score_type>  (17) 
oracle

>  <origin>  (17) 
autodockgpu

>  <m_score__min__energy>  (17) 
-9.7100000000000009

>  <m_primary>  (17) 
energy

>  <rmsd>  (17) 
3.025354940833381

>  <m_score__min__rmsd>  (17) 
3.025354940833381

>  <meeko>  (17) 
{"free_energy": -9.57, "intermolecular_energy": -11.36, "internal_energy": -1.87, "cluster_size": 25, "cluster_id": 1, "rank_in_cluster": 6}

>  <energy>  (17) 
-9.16

>  <cluster_rmsd>  (17) 
0.92

>  <cluster>  (17) 
1

$$$$

     RDKit          3D

 58 62  0  0  0  0  0  0  0  0999 V2000
  141.0460   72.8150  221.9610 O   0  0  0  0  0  0  0  0  0  0  0  0
  139.9780   72.5800  222.6220 C   0  0  0  0  0  0  0  0  0  0  0  0
  138.7860   73.3070  222.3440 N   0  0  0  0  0  0  0  0  0  0  0  0
  138.6700   74.3210  221.3690 C   0  0  0  0  0  0  0  0  0  0  0  0
  139.4260   75.5500  221.4770 C   0  0  0  0  0  0  0  0  0  0  0  0
  139.0820   76.3100  222.4800 O   0  0  0  0  0  0  0  0  0  0  0  0
  140.4780   76.0440  220.6700 N   0  0  0  0  0  0  0  0  0  0  0  0
  140.7980   75.7240  219.2690 C   0  0  0  0  0  0  0  0  0  0  0  0
  142.3270   75.9480  219.2400 C   0  0  2  0  0  0  0  0  0  0  0  0
  143.0900   74.7600  219.5830 C   0  0  0  0  0  0  0  0  0  0  0  0
  144.3670   74.9450  220.1310 C   0  0  0  0  0  0  0  0  0  0  0  0
  145.1540   73.8650  220.4800 C   0  0  0  0  0  0  0  0  0  0  0  0
  144.7320   72.5520  220.3080 C   0  0  0  0  0  0  0  0  0  0  0  0
  143.4790   72.3750  219.7690 C   0  0  0  0  0  0  0  0  0  0  0  0
  142.6950   73.4570  219.4230 C   0  0  0  0  0  0  0  0  0  0  0  0
  142.4690   77.1350  220.1070 C   0  0  0  0  0  0  0  0  0  0  0  0
  141.4520   77.0000  221.1760 C   0  0  1  0  0  0  0  0  0  0  0  0
  140.7880   78.3070  221.4980 C   0  0  0  0  0  0  0  0  0  0  0  0
  139.9500   78.9450  220.6130 C   0  0  0  0  0  0  0  0  0  0  0  0
  139.3860   80.1540  221.0160 C   0  0  0  0  0  0  0  0  0  0  0  0
  139.6460   80.7080  222.2540 C   0  0  0  0  0  0  0  0  0  0  0  0
  140.4860   80.0630  223.1300 C   0  0  0  0  0  0  0  0  0  0  0  0
  141.0570   78.8630  222.7510 C   0  0  0  0  0  0  0  0  0  0  0  0
  139.9850   71.5510  223.6740 C   0  0  0  0  0  0  0  0  0  0  0  0
  139.5420   70.2850  223.4610 C   0  0  0  0  0  0  0  0  0  0  0  0
  139.5690   69.3390  224.4920 C   0  0  0  0  0  0  0  0  0  0  0  0
  140.0580   69.7200  225.7390 C   0  0  0  0  0  0  0  0  0  0  0  0
  140.1210   68.8610  226.8080 C   0  0  0  0  0  0  0  0  0  0  0  0
  140.6150   69.2850  228.0340 C   0  0  0  0  0  0  0  0  0  0  0  0
  140.6910   68.4640  229.1130 F   0  0  0  0  0  0  0  0  0  0  0  0
  141.0530   70.5900  228.1900 C   0  0  0  0  0  0  0  0  0  0  0  0
  141.0000   71.4650  227.1370 C   0  0  0  0  0  0  0  0  0  0  0  0
  140.5020   71.0060  225.9310 C   0  0  0  0  0  0  0  0  0  0  0  0
  140.4510   71.8570  224.9180 N   0  0  0  0  0  0  0  0  0  0  0  0
  137.9480   73.0330  222.9400 H   0  0  0  0  0  0  0  0  0  0  0  0
  138.9511   73.8646  220.4084 H   0  0  0  0  0  0  0  0  0  0  0  0
  137.6328   74.6634  221.4990 H   0  0  0  0  0  0  0  0  0  0  0  0
  140.5403   74.6825  219.0263 H   0  0  0  0  0  0  0  0  0  0  0  0
  140.2436   76.3268  218.5346 H   0  0  0  0  0  0  0  0  0  0  0  0
  142.7611   76.1353  218.2468 H   0  0  0  0  0  0  0  0  0  0  0  0
  144.7478   75.9654  220.2853 H   0  0  0  0  0  0  0  0  0  0  0  0
  146.1497   74.0505  220.9091 H   0  0  0  0  0  0  0  0  0  0  0  0
  145.3671   71.6987  220.5884 H   0  0  0  0  0  0  0  0  0  0  0  0
  143.0960   71.3559  219.6113 H   0  0  0  0  0  0  0  0  0  0  0  0
  141.6999   73.2634  218.9960 H   0  0  0  0  0  0  0  0  0  0  0  0
  143.4778   77.1676  220.5443 H   0  0  0  0  0  0  0  0  0  0  0  0
  142.3245   78.0640  219.5359 H   0  0  0  0  0  0  0  0  0  0  0  0
  141.9187   76.6651  222.1141 H   0  0  0  0  0  0  0  0  0  0  0  0
  139.7330   78.5165  219.6234 H   0  0  0  0  0  0  0  0  0  0  0  0
  138.7125   80.6837  220.3262 H   0  0  0  0  0  0  0  0  0  0  0  0
  139.1817   81.6638  222.5385 H   0  0  0  0  0  0  0  0  0  0  0  0
  140.7006   80.4956  224.1183 H   0  0  0  0  0  0  0  0  0  0  0  0
  141.7315   78.3393  223.4444 H   0  0  0  0  0  0  0  0  0  0  0  0
  139.1588   70.0008  222.4699 H   0  0  0  0  0  0  0  0  0  0  0  0
  139.2105   68.3133  224.3205 H   0  0  0  0  0  0  0  0  0  0  0  0
  139.7755   67.8232  226.6915 H   0  0  0  0  0  0  0  0  0  0  0  0
  141.4444   70.9246  229.1620 H   0  0  0  0  0  0  0  0  0  0  0  0
  141.3440   72.5039  227.2477 H   0  0  0  0  0  0  0  0  0  0  0  0
  1  2  2  0
  2  3  1  0
  3  4  1  0
  4  5  1  0
  5  6  2  0
  5  7  1  0
  7  8  1  0
  8  9  1  0
  9 10  1  0
 10 11  2  0
 11 12  1  0
 12 13  2  0
 13 14  1  0
 14 15  2  0
  9 16  1  0
 16 17  1  0
 17 18  1  0
 18 19  2  0
 19 20  1  0
 20 21  2  0
 21 22  1  0
 22 23  2  0
  2 24  1  0
 24 25  2  0
 25 26  1  0
 26 27  2  0
 27 28  1  0
 28 29  2  0
 29 30  1  0
 29 31  1  0
 31 32  2  0
 32 33  1  0
 33 34  2  0
 17  7  1  0
 23 18  1  0
 34 24  1  0
 15 10  1  0
 33 27  1  0
  3 35  1  0
  4 36  1  0
  4 37  1  0
  8 38  1  0
  8 39  1  0
  9 40  1  6
 11 41  1  0
 12 42  1  0
 13 43  1  0
 14 44  1  0
 15 45  1  0
 16 46  1  0
 16 47  1  0
 17 48  1  1
 19 49  1  0
 20 50  1  0
 21 51  1  0
 22 52  1  0
 23 53  1  0
 25 54  1  0
 26 55  1  0
 28 56  1  0
 31 57  1  0
 32 58  1  0
M  END
>  <smiles>  (18) 
O=C(NCC(=O)N1C[C@H](c2ccccc2)C[C@H]1c1ccccc1)c1ccc2cc(F)ccc2n1

>  <score_type>  (18) 
oracle

>  <origin>  (18) 
autodockgpu

>  <m_score__min__energy>  (18) 
-9.7100000000000009

>  <m_primary>  (18) 
energy

>  <rmsd>  (18) 
1.6478120647473067

>  <m_score__min__rmsd>  (18) 
1.6478120647473067

>  <meeko>  (18) 
{"free_energy": -9.44, "intermolecular_energy": -11.23, "internal_energy": -2.12, "cluster_size": 21, "cluster_id": 2, "rank_in_cluster": 8}

>  <energy>  (18) 
-9.15

>  <cluster_rmsd>  (18) 
1.07

>  <cluster>  (18) 
1

$$$$

     RDKit          3D

 58 62  0  0  0  0  0  0  0  0999 V2000
  140.4440   71.9560  221.0520 O   0  0  0  0  0  0  0  0  0  0  0  0
  140.0060   72.3740  222.1780 C   0  0  0  0  0  0  0  0  0  0  0  0
  139.5730   73.7210  222.3260 N   0  0  0  0  0  0  0  0  0  0  0  0
  139.5920   74.6910  221.3010 C   0  0  0  0  0  0  0  0  0  0  0  0
  140.8090   75.4040  220.9720 C   0  0  0  0  0  0  0  0  0  0  0  0
  141.8790   74.9490  221.5630 O   0  0  0  0  0  0  0  0  0  0  0  0
  141.0110   76.5060  220.1080 N   0  0  0  0  0  0  0  0  0  0  0  0
  140.4530   76.7450  218.7670 C   0  0  0  0  0  0  0  0  0  0  0  0
  141.5530   77.6200  218.1230 C   0  0  2  0  0  0  0  0  0  0  0  0
  142.5830   76.8480  217.4500 C   0  0  0  0  0  0  0  0  0  0  0  0
  143.0900   77.3550  216.2450 C   0  0  0  0  0  0  0  0  0  0  0  0
  144.0680   76.6770  215.5440 C   0  0  0  0  0  0  0  0  0  0  0  0
  144.5960   75.4690  215.9860 C   0  0  0  0  0  0  0  0  0  0  0  0
  144.0950   74.9750  217.1670 C   0  0  0  0  0  0  0  0  0  0  0  0
  143.1170   75.6560  217.8660 C   0  0  0  0  0  0  0  0  0  0  0  0
  141.9590   78.4700  219.2600 C   0  0  0  0  0  0  0  0  0  0  0  0
  141.8720   77.6210  220.4720 C   0  0  1  0  0  0  0  0  0  0  0  0
  141.3050   78.3620  221.6460 C   0  0  0  0  0  0  0  0  0  0  0  0
  139.9690   78.3130  221.9750 C   0  0  0  0  0  0  0  0  0  0  0  0
  139.5510   79.0390  223.0870 C   0  0  0  0  0  0  0  0  0  0  0  0
  140.4280   79.7870  223.8470 C   0  0  0  0  0  0  0  0  0  0  0  0
  141.7590   79.8310  223.5110 C   0  0  0  0  0  0  0  0  0  0  0  0
  142.1970   79.1190  222.4110 C   0  0  0  0  0  0  0  0  0  0  0  0
  139.9520   71.4520  223.3240 C   0  0  0  0  0  0  0  0  0  0  0  0
  139.5220   70.1680  223.2100 C   0  0  0  0  0  0  0  0  0  0  0  0
  139.4890   69.3270  224.3280 C   0  0  0  0  0  0  0  0  0  0  0  0
  139.9030   69.8320  225.5580 C   0  0  0  0  0  0  0  0  0  0  0  0
  139.9040   69.0800  226.7080 C   0  0  0  0  0  0  0  0  0  0  0  0
  140.3240   69.6250  227.9140 C   0  0  0  0  0  0  0  0  0  0  0  0
  140.3370   68.9130  229.0710 F   0  0  0  0  0  0  0  0  0  0  0  0
  140.7510   70.9420  227.9670 C   0  0  0  0  0  0  0  0  0  0  0  0
  140.7600   71.7090  226.8330 C   0  0  0  0  0  0  0  0  0  0  0  0
  140.3340   71.1320  225.6500 C   0  0  0  0  0  0  0  0  0  0  0  0
  140.3430   71.8800  224.5580 N   0  0  0  0  0  0  0  0  0  0  0  0
  139.2170   73.9710  223.2980 H   0  0  0  0  0  0  0  0  0  0  0  0
  139.2700   74.1807  220.3813 H   0  0  0  0  0  0  0  0  0  0  0  0
  138.9483   75.4852  221.7071 H   0  0  0  0  0  0  0  0  0  0  0  0
  140.3157   75.8030  218.2158 H   0  0  0  0  0  0  0  0  0  0  0  0
  139.4571   77.2120  218.7738 H   0  0  0  0  0  0  0  0  0  0  0  0
  141.2314   78.2355  217.2699 H   0  0  0  0  0  0  0  0  0  0  0  0
  142.7031   78.3068  215.8522 H   0  0  0  0  0  0  0  0  0  0  0  0
  144.4422   77.1076  214.6035 H   0  0  0  0  0  0  0  0  0  0  0  0
  145.3743   74.9362  215.4199 H   0  0  0  0  0  0  0  0  0  0  0  0
  144.4788   74.0226  217.5617 H   0  0  0  0  0  0  0  0  0  0  0  0
  142.7476   75.2189  218.8054 H   0  0  0  0  0  0  0  0  0  0  0  0
  142.9900   78.8265  219.1189 H   0  0  0  0  0  0  0  0  0  0  0  0
  141.3112   79.3548  219.3466 H   0  0  0  0  0  0  0  0  0  0  0  0
  142.8734   77.2907  220.7852 H   0  0  0  0  0  0  0  0  0  0  0  0
  139.2573   77.7214  221.3805 H   0  0  0  0  0  0  0  0  0  0  0  0
  138.4880   79.0159  223.3691 H   0  0  0  0  0  0  0  0  0  0  0  0
  140.0614   80.3467  224.7201 H   0  0  0  0  0  0  0  0  0  0  0  0
  142.4661   80.4246  224.1091 H   0  0  0  0  0  0  0  0  0  0  0  0
  143.2611   79.1482  222.1337 H   0  0  0  0  0  0  0  0  0  0  0  0
  139.1972   69.7865  222.2308 H   0  0  0  0  0  0  0  0  0  0  0  0
  139.1427   68.2869  224.2370 H   0  0  0  0  0  0  0  0  0  0  0  0
  139.5679   68.0332  226.6728 H   0  0  0  0  0  0  0  0  0  0  0  0
  141.0838   71.3726  228.9230 H   0  0  0  0  0  0  0  0  0  0  0  0
  141.0968   72.7558  226.8617 H   0  0  0  0  0  0  0  0  0  0  0  0
  1  2  2  0
  2  3  1  0
  3  4  1  0
  4  5  1  0
  5  6  2  0
  5  7  1  0
  7  8  1  0
  8  9  1  0
  9 10  1  0
 10 11  2  0
 11 12  1  0
 12 13  2  0
 13 14  1  0
 14 15  2  0
  9 16  1  0
 16 17  1  0
 17 18  1  0
 18 19  2  0
 19 20  1  0
 20 21  2  0
 21 22  1  0
 22 23  2  0
  2 24  1  0
 24 25  2  0
 25 26  1  0
 26 27  2  0
 27 28  1  0
 28 29  2  0
 29 30  1  0
 29 31  1  0
 31 32  2  0
 32 33  1  0
 33 34  2  0
 17  7  1  0
 23 18  1  0
 34 24  1  0
 15 10  1  0
 33 27  1  0
  3 35  1  0
  4 36  1  0
  4 37  1  0
  8 38  1  0
  8 39  1  0
  9 40  1  6
 11 41  1  0
 12 42  1  0
 13 43  1  0
 14 44  1  0
 15 45  1  0
 16 46  1  0
 16 47  1  0
 17 48  1  1
 19 49  1  0
 20 50  1  0
 21 51  1  0
 22 52  1  0
 23 53  1  0
 25 54  1  0
 26 55  1  0
 28 56  1  0
 31 57  1  0
 32 58  1  0
M  END
>  <smiles>  (19) 
O=C(NCC(=O)N1C[C@H](c2ccccc2)C[C@H]1c1ccccc1)c1ccc2cc(F)ccc2n1

>  <score_type>  (19) 
oracle

>  <origin>  (19) 
autodockgpu

>  <m_score__min__energy>  (19) 
-9.7100000000000009

>  <m_primary>  (19) 
energy

>  <rmsd>  (19) 
1.5635478681213761

>  <m_score__min__rmsd>  (19) 
1.5635478681213761

>  <meeko>  (19) 
{"free_energy": -9.08, "intermolecular_energy": -10.87, "internal_energy": -1.86, "cluster_size": 21, "cluster_id": 2, "rank_in_cluster": 15}

>  <energy>  (19) 
-9.13

>  <cluster_rmsd>  (19) 
1.1

>  <cluster>  (19) 
1

$$$$

     RDKit          3D

 58 62  0  0  0  0  0  0  0  0999 V2000
  137.5640   71.3370  222.4040 O   0  0  0  0  0  0  0  0  0  0  0  0
  138.6640   71.5010  223.0330 C   0  0  0  0  0  0  0  0  0  0  0  0
  139.5100   72.6040  222.7280 N   0  0  0  0  0  0  0  0  0  0  0  0
  139.2420   73.5750  221.7380 C   0  0  0  0  0  0  0  0  0  0  0  0
  139.8640   74.8810  221.7880 C   0  0  0  0  0  0  0  0  0  0  0  0
  141.1550   74.8590  221.9760 O   0  0  0  0  0  0  0  0  0  0  0  0
  139.2880   76.1680  221.6580 N   0  0  0  0  0  0  0  0  0  0  0  0
  139.5080   77.1780  220.6110 C   0  0  0  0  0  0  0  0  0  0  0  0
  139.2380   78.4900  221.3830 C   0  0  2  0  0  0  0  0  0  0  0  0
  140.4230   79.0370  222.0220 C   0  0  0  0  0  0  0  0  0  0  0  0
  140.7050   78.6190  223.3300 C   0  0  0  0  0  0  0  0  0  0  0  0
  141.8110   79.0960  224.0050 C   0  0  0  0  0  0  0  0  0  0  0  0
  142.6930   80.0070  223.4360 C   0  0  0  0  0  0  0  0  0  0  0  0
  142.4120   80.4150  222.1530 C   0  0  0  0  0  0  0  0  0  0  0  0
  141.3050   79.9350  221.4810 C   0  0  0  0  0  0  0  0  0  0  0  0
  138.1060   78.0980  222.2460 C   0  0  0  0  0  0  0  0  0  0  0  0
  138.3390   76.6870  222.6310 C   0  0  1  0  0  0  0  0  0  0  0  0
  137.0760   75.8770  222.6180 C   0  0  0  0  0  0  0  0  0  0  0  0
  136.5350   75.3730  221.4570 C   0  0  0  0  0  0  0  0  0  0  0  0
  135.3600   74.6340  221.5600 C   0  0  0  0  0  0  0  0  0  0  0  0
  134.7430   74.4020  222.7740 C   0  0  0  0  0  0  0  0  0  0  0  0
  135.2900   74.9100  223.9270 C   0  0  0  0  0  0  0  0  0  0  0  0
  136.4560   75.6470  223.8490 C   0  0  0  0  0  0  0  0  0  0  0  0
  139.0530   70.5420  224.0800 C   0  0  0  0  0  0  0  0  0  0  0  0
  138.8070   69.2100  223.9780 C   0  0  0  0  0  0  0  0  0  0  0  0
  139.1970   68.3350  224.9980 C   0  0  0  0  0  0  0  0  0  0  0  0
  139.8400   68.8560  226.1180 C   0  0  0  0  0  0  0  0  0  0  0  0
  140.2560   68.0730  227.1680 C   0  0  0  0  0  0  0  0  0  0  0  0
  140.8930   68.6360  228.2660 C   0  0  0  0  0  0  0  0  0  0  0  0
  141.3170   67.8940  229.3220 F   0  0  0  0  0  0  0  0  0  0  0  0
  141.1150   70.0030  228.3130 C   0  0  0  0  0  0  0  0  0  0  0  0
  140.7090   70.8020  227.2770 C   0  0  0  0  0  0  0  0  0  0  0  0
  140.0790   70.2050  226.2000 C   0  0  0  0  0  0  0  0  0  0  0  0
  139.6870   70.9840  225.2030 N   0  0  0  0  0  0  0  0  0  0  0  0
  140.3970   72.6600  223.3120 H   0  0  0  0  0  0  0  0  0  0  0  0
  139.5301   73.1279  220.7751 H   0  0  0  0  0  0  0  0  0  0  0  0
  138.1798   73.8060  221.9065 H   0  0  0  0  0  0  0  0  0  0  0  0
  140.5388   77.1420  220.2288 H   0  0  0  0  0  0  0  0  0  0  0  0
  138.8760   77.0445  219.7206 H   0  0  0  0  0  0  0  0  0  0  0  0
  138.9745   79.3602  220.7638 H   0  0  0  0  0  0  0  0  0  0  0  0
  140.0355   77.9007  223.8257 H   0  0  0  0  0  0  0  0  0  0  0  0
  142.0008   78.7425  225.0292 H   0  0  0  0  0  0  0  0  0  0  0  0
  143.5702   80.3822  223.9834 H   0  0  0  0  0  0  0  0  0  0  0  0
  143.0787   81.1342  221.6548 H   0  0  0  0  0  0  0  0  0  0  0  0
  141.1217   80.2927  220.4571 H   0  0  0  0  0  0  0  0  0  0  0  0
  138.0725   78.7356  223.1417 H   0  0  0  0  0  0  0  0  0  0  0  0
  137.1467   78.2134  221.7203 H   0  0  0  0  0  0  0  0  0  0  0  0
  138.7201   76.6253  223.6610 H   0  0  0  0  0  0  0  0  0  0  0  0
  137.0142   75.5480  220.4825 H   0  0  0  0  0  0  0  0  0  0  0  0
  134.9084   74.2216  220.6457 H   0  0  0  0  0  0  0  0  0  0  0  0
  133.8158   73.8118  222.8172 H   0  0  0  0  0  0  0  0  0  0  0  0
  134.8064   74.7325  224.8989 H   0  0  0  0  0  0  0  0  0  0  0  0
  136.9017   76.0577  224.7670 H   0  0  0  0  0  0  0  0  0  0  0  0
  138.2972   68.8160  223.0865 H   0  0  0  0  0  0  0  0  0  0  0  0
  138.9994   67.2560  224.9167 H   0  0  0  0  0  0  0  0  0  0  0  0
  140.0823   66.9872  227.1383 H   0  0  0  0  0  0  0  0  0  0  0  0
  141.6184   70.4476  229.1842 H   0  0  0  0  0  0  0  0  0  0  0  0
  140.8793   71.8885  227.3009 H   0  0  0  0  0  0  0  0  0  0  0  0
  1  2  2  0
  2  3  1  0
  3  4  1  0
  4  5  1  0
  5  6  2  0
  5  7  1  0
  7  8  1  0
  8  9  1  0
  9 10  1  0
 10 11  2  0
 11 12  1  0
 12 13  2  0
 13 14  1  0
 14 15  2  0
  9 16  1  0
 16 17  1  0
 17 18  1  0
 18 19  2  0
 19 20  1  0
 20 21  2  0
 21 22  1  0
 22 23  2  0
  2 24  1  0
 24 25  2  0
 25 26  1  0
 26 27  2  0
 27 28  1  0
 28 29  2  0
 29 30  1  0
 29 31  1  0
 31 32  2  0
 32 33  1  0
 33 34  2  0
 17  7  1  0
 23 18  1  0
 34 24  1  0
 15 10  1  0
 33 27  1  0
  3 35  1  0
  4 36  1  0
  4 37  1  0
  8 38  1  0
  8 39  1  0
  9 40  1  6
 11 41  1  0
 12 42  1  0
 13 43  1  0
 14 44  1  0
 15 45  1  0
 16 46  1  0
 16 47  1  0
 17 48  1  1
 19 49  1  0
 20 50  1  0
 21 51  1  0
 22 52  1  0
 23 53  1  0
 25 54  1  0
 26 55  1  0
 28 56  1  0
 31 57  1  0
 32 58  1  0
M  END
>  <smiles>  (20) 
O=C(NCC(=O)N1C[C@H](c2ccccc2)C[C@H]1c1ccccc1)c1ccc2cc(F)ccc2n1

>  <score_type>  (20) 
oracle

>  <origin>  (20) 
autodockgpu

>  <m_score__min__energy>  (20) 
-9.7100000000000009

>  <m_primary>  (20) 
energy

>  <rmsd>  (20) 
2.7659447252094775

>  <m_score__min__rmsd>  (20) 
2.7659447252094775

>  <meeko>  (20) 
{"free_energy": -9.0, "intermolecular_energy": -10.79, "internal_energy": -2.25, "cluster_size": 25, "cluster_id": 1, "rank_in_cluster": 22}

>  <energy>  (20) 
-9.1

>  <cluster_rmsd>  (20) 
1.15

>  <cluster>  (20) 
1

$$$$

     RDKit          3D

 58 62  0  0  0  0  0  0  0  0999 V2000
  138.3650   71.1970  221.4790 O   0  0  0  0  0  0  0  0  0  0  0  0
  138.9800   71.6030  222.5220 C   0  0  0  0  0  0  0  0  0  0  0  0
  139.4410   72.9460  222.6090 N   0  0  0  0  0  0  0  0  0  0  0  0
  139.2840   73.9190  221.5970 C   0  0  0  0  0  0  0  0  0  0  0  0
  139.8090   75.2580  221.7620 C   0  0  0  0  0  0  0  0  0  0  0  0
  141.0970   75.3130  221.9620 O   0  0  0  0  0  0  0  0  0  0  0  0
  139.1420   76.5050  221.7330 N   0  0  0  0  0  0  0  0  0  0  0  0
  139.3020   77.6180  220.7830 C   0  0  0  0  0  0  0  0  0  0  0  0
  138.9240   78.8330  221.6610 C   0  0  2  0  0  0  0  0  0  0  0  0
  140.0560   79.4050  222.3710 C   0  0  0  0  0  0  0  0  0  0  0  0
  141.0780   78.5330  222.7720 C   0  0  0  0  0  0  0  0  0  0  0  0
  142.1830   79.0000  223.4540 C   0  0  0  0  0  0  0  0  0  0  0  0
  142.3440   80.3420  223.7800 C   0  0  0  0  0  0  0  0  0  0  0  0
  141.3390   81.1940  223.3850 C   0  0  0  0  0  0  0  0  0  0  0  0
  140.2350   80.7230  222.7020 C   0  0  0  0  0  0  0  0  0  0  0  0
  137.8110   78.2850  222.4610 C   0  0  0  0  0  0  0  0  0  0  0  0
  138.1420   76.8660  222.7270 C   0  0  1  0  0  0  0  0  0  0  0  0
  136.9430   75.9710  222.6150 C   0  0  0  0  0  0  0  0  0  0  0  0
  136.5080   75.4680  221.4100 C   0  0  0  0  0  0  0  0  0  0  0  0
  135.3840   74.6460  221.4220 C   0  0  0  0  0  0  0  0  0  0  0  0
  134.7150   74.3350  222.5890 C   0  0  0  0  0  0  0  0  0  0  0  0
  135.1560   74.8430  223.7870 C   0  0  0  0  0  0  0  0  0  0  0  0
  136.2700   75.6620  223.7990 C   0  0  0  0  0  0  0  0  0  0  0  0
  139.2120   70.6710  223.6380 C   0  0  0  0  0  0  0  0  0  0  0  0
  138.8030   69.3760  223.6060 C   0  0  0  0  0  0  0  0  0  0  0  0
  139.0470   68.5260  224.6900 C   0  0  0  0  0  0  0  0  0  0  0  0
  139.7160   69.0330  225.8020 C   0  0  0  0  0  0  0  0  0  0  0  0
  139.9970   68.2730  226.9110 C   0  0  0  0  0  0  0  0  0  0  0  0
  140.6660   68.8210  227.9980 C   0  0  0  0  0  0  0  0  0  0  0  0
  140.9600   68.1010  229.1110 F   0  0  0  0  0  0  0  0  0  0  0  0
  141.0580   70.1500  227.9720 C   0  0  0  0  0  0  0  0  0  0  0  0
  140.7880   70.9250  226.8750 C   0  0  0  0  0  0  0  0  0  0  0  0
  140.1210   70.3450  225.8120 C   0  0  0  0  0  0  0  0  0  0  0  0
  139.8620   71.1010  224.7560 N   0  0  0  0  0  0  0  0  0  0  0  0
  139.9330   73.1910  223.5200 H   0  0  0  0  0  0  0  0  0  0  0  0
  139.7550   73.5077  220.6920 H   0  0  0  0  0  0  0  0  0  0  0  0
  138.1966   74.0850  221.5878 H   0  0  0  0  0  0  0  0  0  0  0  0
  140.3382   77.6911  220.4212 H   0  0  0  0  0  0  0  0  0  0  0  0
  138.6949   77.5187  219.8711 H   0  0  0  0  0  0  0  0  0  0  0  0
  138.6063   79.7338  221.1154 H   0  0  0  0  0  0  0  0  0  0  0  0
  140.9978   77.4608  222.5396 H   0  0  0  0  0  0  0  0  0  0  0  0
  142.9645   78.2849  223.7504 H   0  0  0  0  0  0  0  0  0  0  0  0
  143.2285   80.7033  224.3251 H   0  0  0  0  0  0  0  0  0  0  0  0
  141.4158   82.2666  223.6166 H   0  0  0  0  0  0  0  0  0  0  0  0
  139.4579   81.4439  222.4080 H   0  0  0  0  0  0  0  0  0  0  0  0
  137.7160   78.8368  223.4078 H   0  0  0  0  0  0  0  0  0  0  0  0
  136.8543   78.3764  221.9259 H   0  0  0  0  0  0  0  0  0  0  0  0
  138.5104   76.7414  223.7560 H   0  0  0  0  0  0  0  0  0  0  0  0
  137.0294   75.7067  220.4713 H   0  0  0  0  0  0  0  0  0  0  0  0
  135.0175   74.2313  220.4714 H   0  0  0  0  0  0  0  0  0  0  0  0
  133.8305   73.6817  222.5597 H   0  0  0  0  0  0  0  0  0  0  0  0
  134.6306   74.6017  224.7228 H   0  0  0  0  0  0  0  0  0  0  0  0
  136.6305   76.0751  224.7526 H   0  0  0  0  0  0  0  0  0  0  0  0
  138.2755   68.9925  222.7202 H   0  0  0  0  0  0  0  0  0  0  0  0
  138.7168   67.4770  224.6649 H   0  0  0  0  0  0  0  0  0  0  0  0
  139.6885   67.2175  226.9387 H   0  0  0  0  0  0  0  0  0  0  0  0
  141.5869   70.5834  228.8337 H   0  0  0  0  0  0  0  0  0  0  0  0
  141.0939   71.9811  226.8409 H   0  0  0  0  0  0  0  0  0  0  0  0
  1  2  2  0
  2  3  1  0
  3  4  1  0
  4  5  1  0
  5  6  2  0
  5  7  1  0
  7  8  1  0
  8  9  1  0
  9 10  1  0
 10 11  2  0
 11 12  1  0
 12 13  2  0
 13 14  1  0
 14 15  2  0
  9 16  1  0
 16 17  1  0
 17 18  1  0
 18 19  2  0
 19 20  1  0
 20 21  2  0
 21 22  1  0
 22 23  2  0
  2 24  1  0
 24 25  2  0
 25 26  1  0
 26 27  2  0
 27 28  1  0
 28 29  2  0
 29 30  1  0
 29 31  1  0
 31 32  2  0
 32 33  1  0
 33 34  2  0
 17  7  1  0
 23 18  1  0
 34 24  1  0
 15 10  1  0
 33 27  1  0
  3 35  1  0
  4 36  1  0
  4 37  1  0
  8 38  1  0
  8 39  1  0
  9 40  1  6
 11 41  1  0
 12 42  1  0
 13 43  1  0
 14 44  1  0
 15 45  1  0
 16 46  1  0
 16 47  1  0
 17 48  1  1
 19 49  1  0
 20 50  1  0
 21 51  1  0
 22 52  1  0
 23 53  1  0
 25 54  1  0
 26 55  1  0
 28 56  1  0
 31 57  1  0
 32 58  1  0
M  END
>  <smiles>  (21) 
O=C(NCC(=O)N1C[C@H](c2ccccc2)C[C@H]1c1ccccc1)c1ccc2cc(F)ccc2n1

>  <score_type>  (21) 
oracle

>  <origin>  (21) 
autodockgpu

>  <m_score__min__energy>  (21) 
-9.7100000000000009

>  <m_primary>  (21) 
energy

>  <rmsd>  (21) 
2.918173504278561

>  <m_score__min__rmsd>  (21) 
2.918173504278561

>  <meeko>  (21) 
{"free_energy": -9.2, "intermolecular_energy": -10.99, "internal_energy": -2.27, "cluster_size": 25, "cluster_id": 1, "rank_in_cluster": 9}

>  <energy>  (21) 
-9.1

>  <cluster_rmsd>  (21) 
0.99

>  <cluster>  (21) 
1

$$$$

     RDKit          3D

 58 62  0  0  0  0  0  0  0  0999 V2000
  141.3950   72.6510  221.8750 O   0  0  0  0  0  0  0  0  0  0  0  0
  140.3270   72.5930  222.5740 C   0  0  0  0  0  0  0  0  0  0  0  0
  139.2640   73.5090  222.3410 N   0  0  0  0  0  0  0  0  0  0  0  0
  139.2810   74.5340  221.3700 C   0  0  0  0  0  0  0  0  0  0  0  0
  140.3400   75.5210  221.3470 C   0  0  0  0  0  0  0  0  0  0  0  0
  140.4330   76.2400  222.4310 O   0  0  0  0  0  0  0  0  0  0  0  0
  141.2850   75.8170  220.3360 N   0  0  0  0  0  0  0  0  0  0  0  0
  141.5210   75.1230  219.0590 C   0  0  0  0  0  0  0  0  0  0  0  0
  143.0220   75.4110  218.8220 C   0  0  2  0  0  0  0  0  0  0  0  0
  143.9000   74.4160  219.4130 C   0  0  0  0  0  0  0  0  0  0  0  0
  143.8930   73.1310  218.8540 C   0  0  0  0  0  0  0  0  0  0  0  0
  144.6970   72.1300  219.3620 C   0  0  0  0  0  0  0  0  0  0  0  0
  145.5460   72.3360  220.4430 C   0  0  0  0  0  0  0  0  0  0  0  0
  145.5500   73.5990  220.9890 C   0  0  0  0  0  0  0  0  0  0  0  0
  144.7440   74.5970  220.4770 C   0  0  0  0  0  0  0  0  0  0  0  0
  143.1350   76.8040  219.2990 C   0  0  0  0  0  0  0  0  0  0  0  0
  142.2150   76.9290  220.4540 C   0  0  1  0  0  0  0  0  0  0  0  0
  141.4770   78.2350  220.4550 C   0  0  0  0  0  0  0  0  0  0  0  0
  140.5700   78.5690  219.4750 C   0  0  0  0  0  0  0  0  0  0  0  0
  139.9400   79.8070  219.5750 C   0  0  0  0  0  0  0  0  0  0  0  0
  140.2010   80.6830  220.6110 C   0  0  0  0  0  0  0  0  0  0  0  0
  141.1090   80.3400  221.5830 C   0  0  0  0  0  0  0  0  0  0  0  0
  141.7470   79.1160  221.5050 C   0  0  0  0  0  0  0  0  0  0  0  0
  140.2020   71.5710  223.6270 C   0  0  0  0  0  0  0  0  0  0  0  0
  139.6490   70.3520  223.3980 C   0  0  0  0  0  0  0  0  0  0  0  0
  139.5520   69.4110  224.4300 C   0  0  0  0  0  0  0  0  0  0  0  0
  140.0330   69.7490  225.6930 C   0  0  0  0  0  0  0  0  0  0  0  0
  139.9790   68.8900  226.7630 C   0  0  0  0  0  0  0  0  0  0  0  0
  140.4690   69.2700  228.0060 C   0  0  0  0  0  0  0  0  0  0  0  0
  140.4310   68.4490  229.0870 F   0  0  0  0  0  0  0  0  0  0  0  0
  141.0220   70.5290  228.1760 C   0  0  0  0  0  0  0  0  0  0  0  0
  141.0870   71.4010  227.1220 C   0  0  0  0  0  0  0  0  0  0  0  0
  140.5890   70.9870  225.9000 C   0  0  0  0  0  0  0  0  0  0  0  0
  140.6530   71.8360  224.8860 N   0  0  0  0  0  0  0  0  0  0  0  0
  138.4140   73.3750  222.9680 H   0  0  0  0  0  0  0  0  0  0  0  0
  139.2963   74.0358  220.3894 H   0  0  0  0  0  0  0  0  0  0  0  0
  138.3973   75.1331  221.6347 H   0  0  0  0  0  0  0  0  0  0  0  0
  141.3283   74.0436  219.1471 H   0  0  0  0  0  0  0  0  0  0  0  0
  140.8664   75.4567  218.2404 H   0  0  0  0  0  0  0  0  0  0  0  0
  143.3637   75.3259  217.7799 H   0  0  0  0  0  0  0  0  0  0  0  0
  143.2370   72.9165  217.9975 H   0  0  0  0  0  0  0  0  0  0  0  0
  144.6645   71.1347  218.8948 H   0  0  0  0  0  0  0  0  0  0  0  0
  146.1816   71.5313  220.8412 H   0  0  0  0  0  0  0  0  0  0  0  0
  146.2046   73.8171  221.8457 H   0  0  0  0  0  0  0  0  0  0  0  0
  144.7817   75.5900  220.9486 H   0  0  0  0  0  0  0  0  0  0  0  0
  144.1682   77.0161  219.6114 H   0  0  0  0  0  0  0  0  0  0  0  0
  142.8754   77.5189  218.5044 H   0  0  0  0  0  0  0  0  0  0  0  0
  142.7765   76.9051  221.3996 H   0  0  0  0  0  0  0  0  0  0  0  0
  140.3508   77.8832  218.6433 H   0  0  0  0  0  0  0  0  0  0  0  0
  139.2109   80.0968  218.8040 H   0  0  0  0  0  0  0  0  0  0  0  0
  139.6832   81.6524  220.6573 H   0  0  0  0  0  0  0  0  0  0  0  0
  141.3255   81.0298  222.4121 H   0  0  0  0  0  0  0  0  0  0  0  0
  142.4757   78.8325  222.2787 H   0  0  0  0  0  0  0  0  0  0  0  0
  139.2746   70.1022  222.3943 H   0  0  0  0  0  0  0  0  0  0  0  0
  139.1043   68.4230  224.2470 H   0  0  0  0  0  0  0  0  0  0  0  0
  139.5423   67.8886  226.6342 H   0  0  0  0  0  0  0  0  0  0  0  0
  141.4100   70.8290  229.1606 H   0  0  0  0  0  0  0  0  0  0  0  0
  141.5234   72.4033  227.2440 H   0  0  0  0  0  0  0  0  0  0  0  0
  1  2  2  0
  2  3  1  0
  3  4  1  0
  4  5  1  0
  5  6  2  0
  5  7  1  0
  7  8  1  0
  8  9  1  0
  9 10  1  0
 10 11  2  0
 11 12  1  0
 12 13  2  0
 13 14  1  0
 14 15  2  0
  9 16  1  0
 16 17  1  0
 17 18  1  0
 18 19  2  0
 19 20  1  0
 20 21  2  0
 21 22  1  0
 22 23  2  0
  2 24  1  0
 24 25  2  0
 25 26  1  0
 26 27  2  0
 27 28  1  0
 28 29  2  0
 29 30  1  0
 29 31  1  0
 31 32  2  0
 32 33  1  0
 33 34  2  0
 17  7  1  0
 23 18  1  0
 34 24  1  0
 15 10  1  0
 33 27  1  0
  3 35  1  0
  4 36  1  0
  4 37  1  0
  8 38  1  0
  8 39  1  0
  9 40  1  6
 11 41  1  0
 12 42  1  0
 13 43  1  0
 14 44  1  0
 15 45  1  0
 16 46  1  0
 16 47  1  0
 17 48  1  1
 19 49  1  0
 20 50  1  0
 21 51  1  0
 22 52  1  0
 23 53  1  0
 25 54  1  0
 26 55  1  0
 28 56  1  0
 31 57  1  0
 32 58  1  0
M  END
>  <smiles>  (22) 
O=C(NCC(=O)N1C[C@H](c2ccccc2)C[C@H]1c1ccccc1)c1ccc2cc(F)ccc2n1

>  <score_type>  (22) 
oracle

>  <origin>  (22) 
autodockgpu

>  <m_score__min__energy>  (22) 
-9.7100000000000009

>  <m_primary>  (22) 
energy

>  <rmsd>  (22) 
1.811271117093375

>  <m_score__min__rmsd>  (22) 
1.811271117093375

>  <meeko>  (22) 
{"free_energy": -9.57, "intermolecular_energy": -11.36, "internal_energy": -2.07, "cluster_size": 21, "cluster_id": 2, "rank_in_cluster": 3}

>  <energy>  (22) 
-9.0

>  <cluster_rmsd>  (22) 
1.33

>  <cluster>  (22) 
1

$$$$

     RDKit          3D

 58 62  0  0  0  0  0  0  0  0999 V2000
  141.0540   72.9890  222.3400 O   0  0  0  0  0  0  0  0  0  0  0  0
  139.9310   72.6020  222.8100 C   0  0  0  0  0  0  0  0  0  0  0  0
  138.7190   73.1990  222.3640 N   0  0  0  0  0  0  0  0  0  0  0  0
  138.6370   74.2390  221.4120 C   0  0  0  0  0  0  0  0  0  0  0  0
  139.2880   75.5120  221.6400 C   0  0  0  0  0  0  0  0  0  0  0  0
  138.8700   76.1520  222.6960 O   0  0  0  0  0  0  0  0  0  0  0  0
  140.3070   76.1570  220.8980 N   0  0  0  0  0  0  0  0  0  0  0  0
  140.6900   75.9630  219.4900 C   0  0  0  0  0  0  0  0  0  0  0  0
  142.1910   76.3340  219.5230 C   0  0  2  0  0  0  0  0  0  0  0  0
  143.0580   75.2040  219.8140 C   0  0  0  0  0  0  0  0  0  0  0  0
  142.5000   73.9210  219.7270 C   0  0  0  0  0  0  0  0  0  0  0  0
  143.2580   72.7980  219.9920 C   0  0  0  0  0  0  0  0  0  0  0  0
  144.5980   72.8740  220.3560 C   0  0  0  0  0  0  0  0  0  0  0  0
  145.1400   74.1350  220.4400 C   0  0  0  0  0  0  0  0  0  0  0  0
  144.3790   75.2560  220.1740 C   0  0  0  0  0  0  0  0  0  0  0  0
  142.1950   77.4690  220.4680 C   0  0  0  0  0  0  0  0  0  0  0  0
  141.1690   77.1660  221.4940 C   0  0  1  0  0  0  0  0  0  0  0  0
  140.3730   78.3790  221.8770 C   0  0  0  0  0  0  0  0  0  0  0  0
  139.3600   78.8760  221.0890 C   0  0  0  0  0  0  0  0  0  0  0  0
  138.6850   80.0060  221.5420 C   0  0  0  0  0  0  0  0  0  0  0  0
  139.0050   80.6220  222.7370 C   0  0  0  0  0  0  0  0  0  0  0  0
  140.0180   80.1190  223.5170 C   0  0  0  0  0  0  0  0  0  0  0  0
  140.7020   78.9970  223.0860 C   0  0  0  0  0  0  0  0  0  0  0  0
  139.8960   71.5310  223.8200 C   0  0  0  0  0  0  0  0  0  0  0  0
  139.3210   70.3230  223.5840 C   0  0  0  0  0  0  0  0  0  0  0  0
  139.3130   69.3340  224.5740 C   0  0  0  0  0  0  0  0  0  0  0  0
  139.9030   69.6120  225.8040 C   0  0  0  0  0  0  0  0  0  0  0  0
  139.9410   68.7040  226.8340 C   0  0  0  0  0  0  0  0  0  0  0  0
  140.5390   69.0250  228.0450 C   0  0  0  0  0  0  0  0  0  0  0  0
  140.5940   68.1530  229.0850 F   0  0  0  0  0  0  0  0  0  0  0  0
  141.1080   70.2750  228.2260 C   0  0  0  0  0  0  0  0  0  0  0  0
  141.0830   71.1960  227.2120 C   0  0  0  0  0  0  0  0  0  0  0  0
  140.4790   70.8400  226.0200 C   0  0  0  0  0  0  0  0  0  0  0  0
  140.4560   71.7360  225.0460 N   0  0  0  0  0  0  0  0  0  0  0  0
  137.8370   72.8030  222.8070 H   0  0  0  0  0  0  0  0  0  0  0  0
  139.0521   73.8388  220.4752 H   0  0  0  0  0  0  0  0  0  0  0  0
  137.5700   74.5053  221.4362 H   0  0  0  0  0  0  0  0  0  0  0  0
  140.5410   74.9201  219.1734 H   0  0  0  0  0  0  0  0  0  0  0  0
  140.0974   76.5571  218.7788 H   0  0  0  0  0  0  0  0  0  0  0  0
  142.6290   76.6273  218.5575 H   0  0  0  0  0  0  0  0  0  0  0  0
  141.4432   73.8074  219.4436 H   0  0  0  0  0  0  0  0  0  0  0  0
  142.7852   71.8080  219.9124 H   0  0  0  0  0  0  0  0  0  0  0  0
  145.1930   71.9729  220.5657 H   0  0  0  0  0  0  0  0  0  0  0  0
  146.1963   74.2525  220.7235 H   0  0  0  0  0  0  0  0  0  0  0  0
  144.8585   76.2426  220.2554 H   0  0  0  0  0  0  0  0  0  0  0  0
  143.1845   77.5687  220.9380 H   0  0  0  0  0  0  0  0  0  0  0  0
  141.9753   78.4160  219.9533 H   0  0  0  0  0  0  0  0  0  0  0  0
  141.6419   76.8156  222.4233 H   0  0  0  0  0  0  0  0  0  0  0  0
  139.0932   78.3973  220.1352 H   0  0  0  0  0  0  0  0  0  0  0  0
  137.8713   80.4217  220.9296 H   0  0  0  0  0  0  0  0  0  0  0  0
  138.4495   81.5137  223.0632 H   0  0  0  0  0  0  0  0  0  0  0  0
  140.2810   80.6014  224.4699 H   0  0  0  0  0  0  0  0  0  0  0  0
  141.5150   78.5861  223.7026 H   0  0  0  0  0  0  0  0  0  0  0  0
  138.8580   70.1207  222.6069 H   0  0  0  0  0  0  0  0  0  0  0  0
  138.8491   68.3549  224.3839 H   0  0  0  0  0  0  0  0  0  0  0  0
  139.4916   67.7093  226.6975 H   0  0  0  0  0  0  0  0  0  0  0  0
  141.5810   70.5287  229.1861 H   0  0  0  0  0  0  0  0  0  0  0  0
  141.5313   72.1920  227.3425 H   0  0  0  0  0  0  0  0  0  0  0  0
  1  2  2  0
  2  3  1  0
  3  4  1  0
  4  5  1  0
  5  6  2  0
  5  7  1  0
  7  8  1  0
  8  9  1  0
  9 10  1  0
 10 11  2  0
 11 12  1  0
 12 13  2  0
 13 14  1  0
 14 15  2  0
  9 16  1  0
 16 17  1  0
 17 18  1  0
 18 19  2  0
 19 20  1  0
 20 21  2  0
 21 22  1  0
 22 23  2  0
  2 24  1  0
 24 25  2  0
 25 26  1  0
 26 27  2  0
 27 28  1  0
 28 29  2  0
 29 30  1  0
 29 31  1  0
 31 32  2  0
 32 33  1  0
 33 34  2  0
 17  7  1  0
 23 18  1  0
 34 24  1  0
 15 10  1  0
 33 27  1  0
  3 35  1  0
  4 36  1  0
  4 37  1  0
  8 38  1  0
  8 39  1  0
  9 40  1  6
 11 41  1  0
 12 42  1  0
 13 43  1  0
 14 44  1  0
 15 45  1  0
 16 46  1  0
 16 47  1  0
 17 48  1  1
 19 49  1  0
 20 50  1  0
 21 51  1  0
 22 52  1  0
 23 53  1  0
 25 54  1  0
 26 55  1  0
 28 56  1  0
 31 57  1  0
 32 58  1  0
M  END
>  <smiles>  (23) 
O=C(NCC(=O)N1C[C@H](c2ccccc2)C[C@H]1c1ccccc1)c1ccc2cc(F)ccc2n1

>  <score_type>  (23) 
oracle

>  <origin>  (23) 
autodockgpu

>  <m_score__min__energy>  (23) 
-9.7100000000000009

>  <m_primary>  (23) 
energy

>  <rmsd>  (23) 
1.7389790008260753

>  <m_score__min__rmsd>  (23) 
1.7389790008260753

>  <meeko>  (23) 
{"free_energy": -9.48, "intermolecular_energy": -11.27, "internal_energy": -2.09, "cluster_size": 21, "cluster_id": 2, "rank_in_cluster": 5}

>  <energy>  (23) 
-8.74

>  <cluster_rmsd>  (23) 
0.87

>  <cluster>  (23) 
1

$$$$

     RDKit          3D

 58 62  0  0  0  0  0  0  0  0999 V2000
  138.1760   71.1580  221.6560 O   0  0  0  0  0  0  0  0  0  0  0  0
  138.8810   71.5410  222.6500 C   0  0  0  0  0  0  0  0  0  0  0  0
  139.3750   72.8740  222.7110 N   0  0  0  0  0  0  0  0  0  0  0  0
  139.1590   73.8590  221.7230 C   0  0  0  0  0  0  0  0  0  0  0  0
  139.7830   75.1620  221.8200 C   0  0  0  0  0  0  0  0  0  0  0  0
  141.0750   75.1310  221.9980 O   0  0  0  0  0  0  0  0  0  0  0  0
  139.2080   76.4530  221.7460 N   0  0  0  0  0  0  0  0  0  0  0  0
  139.4550   77.5210  220.7640 C   0  0  0  0  0  0  0  0  0  0  0  0
  139.1590   78.7870  221.6000 C   0  0  2  0  0  0  0  0  0  0  0  0
  140.3230   79.2980  222.3030 C   0  0  0  0  0  0  0  0  0  0  0  0
  140.7350   80.6060  222.0110 C   0  0  0  0  0  0  0  0  0  0  0  0
  141.8340   81.1620  222.6340 C   0  0  0  0  0  0  0  0  0  0  0  0
  142.5860   80.4660  223.5730 C   0  0  0  0  0  0  0  0  0  0  0  0
  142.1800   79.1820  223.8570 C   0  0  0  0  0  0  0  0  0  0  0  0
  141.0790   78.6300  223.2310 C   0  0  0  0  0  0  0  0  0  0  0  0
  138.0030   78.3460  222.4060 C   0  0  0  0  0  0  0  0  0  0  0  0
  138.2290   76.9150  222.7190 C   0  0  1  0  0  0  0  0  0  0  0  0
  136.9690   76.1060  222.6230 C   0  0  0  0  0  0  0  0  0  0  0  0
  136.3820   75.7960  221.4170 C   0  0  0  0  0  0  0  0  0  0  0  0
  135.2140   75.0380  221.4440 C   0  0  0  0  0  0  0  0  0  0  0  0
  134.6490   74.6030  222.6280 C   0  0  0  0  0  0  0  0  0  0  0  0
  135.2420   74.9190  223.8260 C   0  0  0  0  0  0  0  0  0  0  0  0
  136.4020   75.6710  223.8230 C   0  0  0  0  0  0  0  0  0  0  0  0
  139.1820   70.5930  223.7360 C   0  0  0  0  0  0  0  0  0  0  0  0
  138.8670   69.2740  223.6620 C   0  0  0  0  0  0  0  0  0  0  0  0
  139.1740   68.4090  224.7190 C   0  0  0  0  0  0  0  0  0  0  0  0
  139.8070   68.9280  225.8470 C   0  0  0  0  0  0  0  0  0  0  0  0
  140.1440   68.1560  226.9310 C   0  0  0  0  0  0  0  0  0  0  0  0
  140.7730   68.7160  228.0350 C   0  0  0  0  0  0  0  0  0  0  0  0
  141.1210   67.9840  229.1250 F   0  0  0  0  0  0  0  0  0  0  0  0
  141.0690   70.0690  228.0520 C   0  0  0  0  0  0  0  0  0  0  0  0
  140.7420   70.8580  226.9800 C   0  0  0  0  0  0  0  0  0  0  0  0
  140.1160   70.2650  225.8990 C   0  0  0  0  0  0  0  0  0  0  0  0
  139.8010   71.0330  224.8680 N   0  0  0  0  0  0  0  0  0  0  0  0
  139.9440   73.0990  223.5820 H   0  0  0  0  0  0  0  0  0  0  0  0
  139.4913   73.4234  220.7692 H   0  0  0  0  0  0  0  0  0  0  0  0
  138.0909   74.0927  221.8439 H   0  0  0  0  0  0  0  0  0  0  0  0
  140.4965   77.5080  220.4104 H   0  0  0  0  0  0  0  0  0  0  0  0
  138.8492   77.4369  219.8497 H   0  0  0  0  0  0  0  0  0  0  0  0
  138.9114   79.6904  221.0233 H   0  0  0  0  0  0  0  0  0  0  0  0
  140.1734   81.1985  221.2737 H   0  0  0  0  0  0  0  0  0  0  0  0
  142.1248   82.1916  222.3785 H   0  0  0  0  0  0  0  0  0  0  0  0
  143.4605   80.9180  224.0638 H   0  0  0  0  0  0  0  0  0  0  0  0
  142.7402   78.5866  224.5930 H   0  0  0  0  0  0  0  0  0  0  0  0
  140.7940   77.5999  223.4911 H   0  0  0  0  0  0  0  0  0  0  0  0
  137.9411   78.9328  223.3344 H   0  0  0  0  0  0  0  0  0  0  0  0
  137.0593   78.4892  221.8593 H   0  0  0  0  0  0  0  0  0  0  0  0
  138.5798   76.7955  223.7547 H   0  0  0  0  0  0  0  0  0  0  0  0
  136.8197   76.1347  220.4664 H   0  0  0  0  0  0  0  0  0  0  0  0
  134.7259   74.7774  220.4933 H   0  0  0  0  0  0  0  0  0  0  0  0
  133.7261   74.0048  222.6110 H   0  0  0  0  0  0  0  0  0  0  0  0
  134.8002   74.5786  224.7741 H   0  0  0  0  0  0  0  0  0  0  0  0
  136.8842   75.9299  224.7772 H   0  0  0  0  0  0  0  0  0  0  0  0
  138.3666   68.8822  222.7642 H   0  0  0  0  0  0  0  0  0  0  0  0
  138.9205   67.3402  224.6604 H   0  0  0  0  0  0  0  0  0  0  0  0
  139.9129   67.0806  226.9249 H   0  0  0  0  0  0  0  0  0  0  0  0
  141.5674   70.5111  228.9273 H   0  0  0  0  0  0  0  0  0  0  0  0
  140.9714   71.9338  226.9796 H   0  0  0  0  0  0  0  0  0  0  0  0
  1  2  2  0
  2  3  1  0
  3  4  1  0
  4  5  1  0
  5  6  2  0
  5  7  1  0
  7  8  1  0
  8  9  1  0
  9 10  1  0
 10 11  2  0
 11 12  1  0
 12 13  2  0
 13 14  1  0
 14 15  2  0
  9 16  1  0
 16 17  1  0
 17 18  1  0
 18 19  2  0
 19 20  1  0
 20 21  2  0
 21 22  1  0
 22 23  2  0
  2 24  1  0
 24 25  2  0
 25 26  1  0
 26 27  2  0
 27 28  1  0
 28 29  2  0
 29 30  1  0
 29 31  1  0
 31 32  2  0
 32 33  1  0
 33 34  2  0
 17  7  1  0
 23 18  1  0
 34 24  1  0
 15 10  1  0
 33 27  1  0
  3 35  1  0
  4 36  1  0
  4 37  1  0
  8 38  1  0
  8 39  1  0
  9 40  1  6
 11 41  1  0
 12 42  1  0
 13 43  1  0
 14 44  1  0
 15 45  1  0
 16 46  1  0
 16 47  1  0
 17 48  1  1
 19 49  1  0
 20 50  1  0
 21 51  1  0
 22 52  1  0
 23 53  1  0
 25 54  1  0
 26 55  1  0
 28 56  1  0
 31 57  1  0
 32 58  1  0
M  END
>  <smiles>  (24) 
O=C(NCC(=O)N1C[C@H](c2ccccc2)C[C@H]1c1ccccc1)c1ccc2cc(F)ccc2n1

>  <score_type>  (24) 
oracle

>  <origin>  (24) 
autodockgpu

>  <m_score__min__energy>  (24) 
-9.7100000000000009

>  <m_primary>  (24) 
energy

>  <rmsd>  (24) 
2.859953497905405

>  <m_score__min__rmsd>  (24) 
2.859953497905405

>  <meeko>  (24) 
{"free_energy": -9.19, "intermolecular_energy": -10.98, "internal_energy": -2.29, "cluster_size": 25, "cluster_id": 1, "rank_in_cluster": 10}

>  <energy>  (24) 
-8.68

>  <cluster_rmsd>  (24) 
1.1

>  <cluster>  (24) 
1

$$$$

     RDKit          3D

 58 62  0  0  0  0  0  0  0  0999 V2000
  138.2020   71.2060  221.6180 O   0  0  0  0  0  0  0  0  0  0  0  0
  138.9050   71.5890  222.6130 C   0  0  0  0  0  0  0  0  0  0  0  0
  139.3990   72.9230  222.6740 N   0  0  0  0  0  0  0  0  0  0  0  0
  139.1850   73.9070  221.6850 C   0  0  0  0  0  0  0  0  0  0  0  0
  139.7800   75.2220  221.8010 C   0  0  0  0  0  0  0  0  0  0  0  0
  141.0720   75.2180  221.9740 O   0  0  0  0  0  0  0  0  0  0  0  0
  139.1750   76.5000  221.7500 N   0  0  0  0  0  0  0  0  0  0  0  0
  139.3950   77.5900  220.7850 C   0  0  0  0  0  0  0  0  0  0  0  0
  139.0720   78.8350  221.6430 C   0  0  2  0  0  0  0  0  0  0  0  0
  140.2260   79.3610  222.3520 C   0  0  0  0  0  0  0  0  0  0  0  0
  141.4420   78.6780  222.2070 C   0  0  0  0  0  0  0  0  0  0  0  0
  142.5830   79.1140  222.8520 C   0  0  0  0  0  0  0  0  0  0  0  0
  142.5900   80.2370  223.6710 C   0  0  0  0  0  0  0  0  0  0  0  0
  141.3950   80.9040  223.8110 C   0  0  0  0  0  0  0  0  0  0  0  0
  140.2560   80.4650  223.1630 C   0  0  0  0  0  0  0  0  0  0  0  0
  137.9290   78.3540  222.4440 C   0  0  0  0  0  0  0  0  0  0  0  0
  138.1880   76.9240  222.7320 C   0  0  1  0  0  0  0  0  0  0  0  0
  136.9470   76.0880  222.6250 C   0  0  0  0  0  0  0  0  0  0  0  0
  136.3940   75.7400  221.4140 C   0  0  0  0  0  0  0  0  0  0  0  0
  135.2410   74.9600  221.4310 C   0  0  0  0  0  0  0  0  0  0  0  0
  134.6580   74.5380  222.6100 C   0  0  0  0  0  0  0  0  0  0  0  0
  135.2170   74.8910  223.8140 C   0  0  0  0  0  0  0  0  0  0  0  0
  136.3610   75.6660  223.8210 C   0  0  0  0  0  0  0  0  0  0  0  0
  139.2030   70.6430  223.7010 C   0  0  0  0  0  0  0  0  0  0  0  0
  138.8910   69.3230  223.6260 C   0  0  0  0  0  0  0  0  0  0  0  0
  139.1950   68.4600  224.6850 C   0  0  0  0  0  0  0  0  0  0  0  0
  139.8210   68.9800  225.8150 C   0  0  0  0  0  0  0  0  0  0  0  0
  140.1550   68.2080  226.9010 C   0  0  0  0  0  0  0  0  0  0  0  0
  140.7770   68.7710  228.0090 C   0  0  0  0  0  0  0  0  0  0  0  0
  141.1210   68.0390  229.1010 F   0  0  0  0  0  0  0  0  0  0  0  0
  141.0690   70.1250  228.0260 C   0  0  0  0  0  0  0  0  0  0  0  0
  140.7450   70.9120  226.9530 C   0  0  0  0  0  0  0  0  0  0  0  0
  140.1270   70.3170  225.8680 C   0  0  0  0  0  0  0  0  0  0  0  0
  139.8150   71.0850  224.8360 N   0  0  0  0  0  0  0  0  0  0  0  0
  139.9660   73.1480  223.5460 H   0  0  0  0  0  0  0  0  0  0  0  0
  139.5475   73.4821  220.7373 H   0  0  0  0  0  0  0  0  0  0  0  0
  138.1099   74.1183  221.7823 H   0  0  0  0  0  0  0  0  0  0  0  0
  140.4357   77.6069  220.4290 H   0  0  0  0  0  0  0  0  0  0  0  0
  138.7890   77.5072  219.8707 H   0  0  0  0  0  0  0  0  0  0  0  0
  138.8021   79.7419  221.0821 H   0  0  0  0  0  0  0  0  0  0  0  0
  141.4880   77.7821  221.5704 H   0  0  0  0  0  0  0  0  0  0  0  0
  143.5188   78.5529  222.7126 H   0  0  0  0  0  0  0  0  0  0  0  0
  143.5041   80.5750  224.1810 H   0  0  0  0  0  0  0  0  0  0  0  0
  141.3454   81.7995  224.4478 H   0  0  0  0  0  0  0  0  0  0  0  0
  139.3242   81.0319  223.3058 H   0  0  0  0  0  0  0  0  0  0  0  0
  137.8564   78.9234  223.3824 H   0  0  0  0  0  0  0  0  0  0  0  0
  136.9808   78.4848  221.9019 H   0  0  0  0  0  0  0  0  0  0  0  0
  138.5438   76.7959  223.7650 H   0  0  0  0  0  0  0  0  0  0  0  0
  136.8468   76.0665  220.4662 H   0  0  0  0  0  0  0  0  0  0  0  0
  134.7796   74.6706  220.4753 H   0  0  0  0  0  0  0  0  0  0  0  0
  133.7480   73.9206  222.5847 H   0  0  0  0  0  0  0  0  0  0  0  0
  134.7605   74.5615  224.7590 H   0  0  0  0  0  0  0  0  0  0  0  0
  136.8159   75.9543  224.7801 H   0  0  0  0  0  0  0  0  0  0  0  0
  138.3957   68.9295  222.7261 H   0  0  0  0  0  0  0  0  0  0  0  0
  138.9441   67.3906  224.6258 H   0  0  0  0  0  0  0  0  0  0  0  0
  139.9275   67.1318  226.8936 H   0  0  0  0  0  0  0  0  0  0  0  0
  141.5622   70.5691  228.9032 H   0  0  0  0  0  0  0  0  0  0  0  0
  140.9702   71.9887  226.9540 H   0  0  0  0  0  0  0  0  0  0  0  0
  1  2  2  0
  2  3  1  0
  3  4  1  0
  4  5  1  0
  5  6  2  0
  5  7  1  0
  7  8  1  0
  8  9  1  0
  9 10  1  0
 10 11  2  0
 11 12  1  0
 12 13  2  0
 13 14  1  0
 14 15  2  0
  9 16  1  0
 16 17  1  0
 17 18  1  0
 18 19  2  0
 19 20  1  0
 20 21  2  0
 21 22  1  0
 22 23  2  0
  2 24  1  0
 24 25  2  0
 25 26  1  0
 26 27  2  0
 27 28  1  0
 28 29  2  0
 29 30  1  0
 29 31  1  0
 31 32  2  0
 32 33  1  0
 33 34  2  0
 17  7  1  0
 23 18  1  0
 34 24  1  0
 15 10  1  0
 33 27  1  0
  3 35  1  0
  4 36  1  0
  4 37  1  0
  8 38  1  0
  8 39  1  0
  9 40  1  6
 11 41  1  0
 12 42  1  0
 13 43  1  0
 14 44  1  0
 15 45  1  0
 16 46  1  0
 16 47  1  0
 17 48  1  1
 19 49  1  0
 20 50  1  0
 21 51  1  0
 22 52  1  0
 23 53  1  0
 25 54  1  0
 26 55  1  0
 28 56  1  0
 31 57  1  0
 32 58  1  0
M  END
>  <smiles>  (25) 
O=C(NCC(=O)N1C[C@H](c2ccccc2)C[C@H]1c1ccccc1)c1ccc2cc(F)ccc2n1

>  <score_type>  (25) 
oracle

>  <origin>  (25) 
autodockgpu

>  <m_score__min__energy>  (25) 
-9.7100000000000009

>  <m_primary>  (25) 
energy

>  <rmsd>  (25) 
2.8947763223014613

>  <m_score__min__rmsd>  (25) 
2.8947763223014613

>  <meeko>  (25) 
{"free_energy": -9.13, "intermolecular_energy": -10.92, "internal_energy": -2.32, "cluster_size": 25, "cluster_id": 1, "rank_in_cluster": 19}

>  <energy>  (25) 
-8.53

>  <cluster_rmsd>  (25) 
1.88

>  <cluster>  (25) 
1

$$$$

     RDKit          3D

 58 62  0  0  0  0  0  0  0  0999 V2000
  141.4040   72.5350  221.8820 O   0  0  0  0  0  0  0  0  0  0  0  0
  140.3300   72.5360  222.5740 C   0  0  0  0  0  0  0  0  0  0  0  0
  139.3140   73.5010  222.3250 N   0  0  0  0  0  0  0  0  0  0  0  0
  139.3890   74.5150  221.3450 C   0  0  0  0  0  0  0  0  0  0  0  0
  140.0220   75.7850  221.6340 C   0  0  0  0  0  0  0  0  0  0  0  0
  141.2870   75.7010  221.9400 O   0  0  0  0  0  0  0  0  0  0  0  0
  139.4810   77.0920  221.6270 N   0  0  0  0  0  0  0  0  0  0  0  0
  139.7840   78.2150  220.7240 C   0  0  0  0  0  0  0  0  0  0  0  0
  139.4930   79.4320  221.6330 C   0  0  2  0  0  0  0  0  0  0  0  0
  140.6470   79.8660  222.4020 C   0  0  0  0  0  0  0  0  0  0  0  0
  141.8110   79.0900  222.3170 C   0  0  0  0  0  0  0  0  0  0  0  0
  142.9480   79.4350  223.0210 C   0  0  0  0  0  0  0  0  0  0  0  0
  143.0010   80.5540  223.8430 C   0  0  0  0  0  0  0  0  0  0  0  0
  141.8560   81.3130  223.9240 C   0  0  0  0  0  0  0  0  0  0  0  0
  140.7220   80.9640  223.2180 C   0  0  0  0  0  0  0  0  0  0  0  0
  138.3020   78.9690  222.3740 C   0  0  0  0  0  0  0  0  0  0  0  0
  138.4840   77.5160  222.5990 C   0  0  1  0  0  0  0  0  0  0  0  0
  137.2080   76.7480  222.4130 C   0  0  0  0  0  0  0  0  0  0  0  0
  136.5200   76.7390  221.2220 C   0  0  0  0  0  0  0  0  0  0  0  0
  135.3470   75.9910  221.1590 C   0  0  0  0  0  0  0  0  0  0  0  0
  134.8750   75.2760  222.2430 C   0  0  0  0  0  0  0  0  0  0  0  0
  135.5690   75.2920  223.4280 C   0  0  0  0  0  0  0  0  0  0  0  0
  136.7350   76.0280  223.5130 C   0  0  0  0  0  0  0  0  0  0  0  0
  140.1470   71.5300  223.6340 C   0  0  0  0  0  0  0  0  0  0  0  0
  139.5420   70.3350  223.4100 C   0  0  0  0  0  0  0  0  0  0  0  0
  139.3910   69.4090  224.4490 C   0  0  0  0  0  0  0  0  0  0  0  0
  139.8730   69.7370  225.7140 C   0  0  0  0  0  0  0  0  0  0  0  0
  139.7680   68.8920  226.7910 C   0  0  0  0  0  0  0  0  0  0  0  0
  140.2610   69.2620  228.0360 C   0  0  0  0  0  0  0  0  0  0  0  0
  140.1740   68.4530  229.1240 F   0  0  0  0  0  0  0  0  0  0  0  0
  140.8680   70.4960  228.2020 C   0  0  0  0  0  0  0  0  0  0  0  0
  140.9840   71.3540  227.1400 C   0  0  0  0  0  0  0  0  0  0  0  0
  140.4820   70.9510  225.9170 C   0  0  0  0  0  0  0  0  0  0  0  0
  140.5950   71.7860  224.8950 N   0  0  0  0  0  0  0  0  0  0  0  0
  138.4550   73.4140  222.9470 H   0  0  0  0  0  0  0  0  0  0  0  0
  139.9291   74.0838  220.4892 H   0  0  0  0  0  0  0  0  0  0  0  0
  138.3346   74.7959  221.2058 H   0  0  0  0  0  0  0  0  0  0  0  0
  140.8353   78.1977  220.4007 H   0  0  0  0  0  0  0  0  0  0  0  0
  139.2048   78.2062  219.7889 H   0  0  0  0  0  0  0  0  0  0  0  0
  139.2854   80.3774  221.1104 H   0  0  0  0  0  0  0  0  0  0  0  0
  141.8191   78.1931  221.6803 H   0  0  0  0  0  0  0  0  0  0  0  0
  143.8427   78.8019  222.9277 H   0  0  0  0  0  0  0  0  0  0  0  0
  143.9114   80.8195  224.4004 H   0  0  0  0  0  0  0  0  0  0  0  0
  141.8441   82.2103  224.5601 H   0  0  0  0  0  0  0  0  0  0  0  0
  139.8310   81.6016  223.3159 H   0  0  0  0  0  0  0  0  0  0  0  0
  138.2250   79.4957  223.3366 H   0  0  0  0  0  0  0  0  0  0  0  0
  137.3795   79.1713  221.8100 H   0  0  0  0  0  0  0  0  0  0  0  0
  138.8001   77.3210  223.6344 H   0  0  0  0  0  0  0  0  0  0  0  0
  136.8835   77.3027  220.3501 H   0  0  0  0  0  0  0  0  0  0  0  0
  134.7788   75.9687  220.2174 H   0  0  0  0  0  0  0  0  0  0  0  0
  133.9450   74.6950  222.1570 H   0  0  0  0  0  0  0  0  0  0  0  0
  135.2016   74.7267  224.2972 H   0  0  0  0  0  0  0  0  0  0  0  0
  137.2977   76.0474  224.4580 H   0  0  0  0  0  0  0  0  0  0  0  0
  139.1677   70.0928  222.4044 H   0  0  0  0  0  0  0  0  0  0  0  0
  138.9010   68.4406  224.2698 H   0  0  0  0  0  0  0  0  0  0  0  0
  139.2878   67.9102  226.6666 H   0  0  0  0  0  0  0  0  0  0  0  0
  141.2577   70.7877  229.1884 H   0  0  0  0  0  0  0  0  0  0  0  0
  141.4637   72.3369  227.2576 H   0  0  0  0  0  0  0  0  0  0  0  0
  1  2  2  0
  2  3  1  0
  3  4  1  0
  4  5  1  0
  5  6  2  0
  5  7  1  0
  7  8  1  0
  8  9  1  0
  9 10  1  0
 10 11  2  0
 11 12  1  0
 12 13  2  0
 13 14  1  0
 14 15  2  0
  9 16  1  0
 16 17  1  0
 17 18  1  0
 18 19  2  0
 19 20  1  0
 20 21  2  0
 21 22  1  0
 22 23  2  0
  2 24  1  0
 24 25  2  0
 25 26  1  0
 26 27  2  0
 27 28  1  0
 28 29  2  0
 29 30  1  0
 29 31  1  0
 31 32  2  0
 32 33  1  0
 33 34  2  0
 17  7  1  0
 23 18  1  0
 34 24  1  0
 15 10  1  0
 33 27  1  0
  3 35  1  0
  4 36  1  0
  4 37  1  0
  8 38  1  0
  8 39  1  0
  9 40  1  6
 11 41  1  0
 12 42  1  0
 13 43  1  0
 14 44  1  0
 15 45  1  0
 16 46  1  0
 16 47  1  0
 17 48  1  1
 19 49  1  0
 20 50  1  0
 21 51  1  0
 22 52  1  0
 23 53  1  0
 25 54  1  0
 26 55  1  0
 28 56  1  0
 31 57  1  0
 32 58  1  0
M  END
>  <smiles>  (26) 
O=C(NCC(=O)N1C[C@H](c2ccccc2)C[C@H]1c1ccccc1)c1ccc2cc(F)ccc2n1

>  <score_type>  (26) 
oracle

>  <origin>  (26) 
autodockgpu

>  <m_score__min__energy>  (26) 
-9.7100000000000009

>  <m_primary>  (26) 
energy

>  <rmsd>  (26) 
3.0646654147632706

>  <m_score__min__rmsd>  (26) 
3.0646654147632706

>  <meeko>  (26) 
{"free_energy": -9.67, "intermolecular_energy": -11.46, "internal_energy": -1.9, "cluster_size": 25, "cluster_id": 1, "rank_in_cluster": 4}

>  <energy>  (26) 
-9.64

>  <cluster_rmsd>  (26) 
0.0

>  <cluster>  (26) 
2

$$$$

     RDKit          3D

 58 62  0  0  0  0  0  0  0  0999 V2000
  141.3920   72.5890  221.7510 O   0  0  0  0  0  0  0  0  0  0  0  0
  140.3620   72.6330  222.5050 C   0  0  0  0  0  0  0  0  0  0  0  0
  139.3850   73.6530  222.3300 N   0  0  0  0  0  0  0  0  0  0  0  0
  139.4540   74.6770  221.3610 C   0  0  0  0  0  0  0  0  0  0  0  0
  140.6080   75.5490  221.2800 C   0  0  0  0  0  0  0  0  0  0  0  0
  140.8600   76.2170  222.3710 O   0  0  0  0  0  0  0  0  0  0  0  0
  141.4990   75.7780  220.2050 N   0  0  0  0  0  0  0  0  0  0  0  0
  141.6920   74.9870  218.9790 C   0  0  0  0  0  0  0  0  0  0  0  0
  143.1740   75.2820  218.6490 C   0  0  2  0  0  0  0  0  0  0  0  0
  144.1000   74.3550  219.2760 C   0  0  0  0  0  0  0  0  0  0  0  0
  144.3690   73.1530  218.6050 C   0  0  0  0  0  0  0  0  0  0  0  0
  145.2350   72.2200  219.1390 C   0  0  0  0  0  0  0  0  0  0  0  0
  145.8790   72.4140  220.3550 C   0  0  0  0  0  0  0  0  0  0  0  0
  145.6110   73.5930  221.0110 C   0  0  0  0  0  0  0  0  0  0  0  0
  144.7450   74.5250  220.4730 C   0  0  0  0  0  0  0  0  0  0  0  0
  143.2780   76.7110  219.0060 C   0  0  0  0  0  0  0  0  0  0  0  0
  142.4090   76.9130  220.1890 C   0  0  1  0  0  0  0  0  0  0  0  0
  141.6430   78.2010  220.1190 C   0  0  0  0  0  0  0  0  0  0  0  0
  140.8820   78.5480  219.0260 C   0  0  0  0  0  0  0  0  0  0  0  0
  140.2110   79.7670  219.0680 C   0  0  0  0  0  0  0  0  0  0  0  0
  140.2920   80.6120  220.1580 C   0  0  0  0  0  0  0  0  0  0  0  0
  141.0550   80.2580  221.2430 C   0  0  0  0  0  0  0  0  0  0  0  0
  141.7310   79.0520  221.2240 C   0  0  0  0  0  0  0  0  0  0  0  0
  140.1900   71.6210  223.5610 C   0  0  0  0  0  0  0  0  0  0  0  0
  139.5950   70.4210  223.3320 C   0  0  0  0  0  0  0  0  0  0  0  0
  139.4550   69.4890  224.3660 C   0  0  0  0  0  0  0  0  0  0  0  0
  139.9350   69.8150  225.6330 C   0  0  0  0  0  0  0  0  0  0  0  0
  139.8390   68.9640  226.7060 C   0  0  0  0  0  0  0  0  0  0  0  0
  140.3300   69.3330  227.9520 C   0  0  0  0  0  0  0  0  0  0  0  0
  140.2520   68.5180  229.0360 F   0  0  0  0  0  0  0  0  0  0  0  0
  140.9260   70.5720  228.1230 C   0  0  0  0  0  0  0  0  0  0  0  0
  141.0320   71.4360  227.0650 C   0  0  0  0  0  0  0  0  0  0  0  0
  140.5320   71.0340  225.8400 C   0  0  0  0  0  0  0  0  0  0  0  0
  140.6370   71.8750  224.8230 N   0  0  0  0  0  0  0  0  0  0  0  0
  138.5600   73.6000  223.0010 H   0  0  0  0  0  0  0  0  0  0  0  0
  139.3625   74.1868  220.3805 H   0  0  0  0  0  0  0  0  0  0  0  0
  138.6533   75.3627  221.6752 H   0  0  0  0  0  0  0  0  0  0  0  0
  141.5273   73.9150  219.1628 H   0  0  0  0  0  0  0  0  0  0  0  0
  140.9937   75.2409  218.1679 H   0  0  0  0  0  0  0  0  0  0  0  0
  143.4694   75.1181  217.6022 H   0  0  0  0  0  0  0  0  0  0  0  0
  143.8828   72.9509  217.6392 H   0  0  0  0  0  0  0  0  0  0  0  0
  145.4219   71.2899  218.5822 H   0  0  0  0  0  0  0  0  0  0  0  0
  146.5673   71.6638  220.7713 H   0  0  0  0  0  0  0  0  0  0  0  0
  146.0935   73.7966  221.9783 H   0  0  0  0  0  0  0  0  0  0  0  0
  144.5635   75.4529  221.0353 H   0  0  0  0  0  0  0  0  0  0  0  0
  144.3194   76.9667  219.2513 H   0  0  0  0  0  0  0  0  0  0  0  0
  142.9670   77.3539  218.1693 H   0  0  0  0  0  0  0  0  0  0  0  0
  143.0132   76.9767  221.1060 H   0  0  0  0  0  0  0  0  0  0  0  0
  140.8067   77.8860  218.1508 H   0  0  0  0  0  0  0  0  0  0  0  0
  139.5969   80.0669  218.2061 H   0  0  0  0  0  0  0  0  0  0  0  0
  139.7460   81.5669  220.1565 H   0  0  0  0  0  0  0  0  0  0  0  0
  141.1275   80.9244  222.1152 H   0  0  0  0  0  0  0  0  0  0  0  0
  142.3450   78.7591  222.0884 H   0  0  0  0  0  0  0  0  0  0  0  0
  139.2206   70.1805  222.3260 H   0  0  0  0  0  0  0  0  0  0  0  0
  138.9748   68.5166  224.1822 H   0  0  0  0  0  0  0  0  0  0  0  0
  139.3678   67.9784  226.5776 H   0  0  0  0  0  0  0  0  0  0  0  0
  141.3148   70.8626  229.1101 H   0  0  0  0  0  0  0  0  0  0  0  0
  141.5022   72.4230  227.1867 H   0  0  0  0  0  0  0  0  0  0  0  0
  1  2  2  0
  2  3  1  0
  3  4  1  0
  4  5  1  0
  5  6  2  0
  5  7  1  0
  7  8  1  0
  8  9  1  0
  9 10  1  0
 10 11  2  0
 11 12  1  0
 12 13  2  0
 13 14  1  0
 14 15  2  0
  9 16  1  0
 16 17  1  0
 17 18  1  0
 18 19  2  0
 19 20  1  0
 20 21  2  0
 21 22  1  0
 22 23  2  0
  2 24  1  0
 24 25  2  0
 25 26  1  0
 26 27  2  0
 27 28  1  0
 28 29  2  0
 29 30  1  0
 29 31  1  0
 31 32  2  0
 32 33  1  0
 33 34  2  0
 17  7  1  0
 23 18  1  0
 34 24  1  0
 15 10  1  0
 33 27  1  0
  3 35  1  0
  4 36  1  0
  4 37  1  0
  8 38  1  0
  8 39  1  0
  9 40  1  6
 11 41  1  0
 12 42  1  0
 13 43  1  0
 14 44  1  0
 15 45  1  0
 16 46  1  0
 16 47  1  0
 17 48  1  1
 19 49  1  0
 20 50  1  0
 21 51  1  0
 22 52  1  0
 23 53  1  0
 25 54  1  0
 26 55  1  0
 28 56  1  0
 31 57  1  0
 32 58  1  0
M  END
>  <smiles>  (27) 
O=C(NCC(=O)N1C[C@H](c2ccccc2)C[C@H]1c1ccccc1)c1ccc2cc(F)ccc2n1

>  <score_type>  (27) 
oracle

>  <origin>  (27) 
autodockgpu

>  <m_score__min__energy>  (27) 
-9.7100000000000009

>  <m_primary>  (27) 
energy

>  <rmsd>  (27) 
1.8810399090344192

>  <m_score__min__rmsd>  (27) 
1.8810399090344192

>  <meeko>  (27) 
{"free_energy": -9.61, "intermolecular_energy": -11.4, "internal_energy": -2.03, "cluster_size": 21, "cluster_id": 2, "rank_in_cluster": 2}

>  <energy>  (27) 
-9.61

>  <cluster_rmsd>  (27) 
0.14

>  <cluster>  (27) 
2

$$$$

     RDKit          3D

 58 62  0  0  0  0  0  0  0  0999 V2000
  138.1520   71.2000  221.6440 O   0  0  0  0  0  0  0  0  0  0  0  0
  138.8570   71.5810  222.6390 C   0  0  0  0  0  0  0  0  0  0  0  0
  139.3610   72.9100  222.6970 N   0  0  0  0  0  0  0  0  0  0  0  0
  139.1550   73.8940  221.7050 C   0  0  0  0  0  0  0  0  0  0  0  0
  139.7620   75.2040  221.8170 C   0  0  0  0  0  0  0  0  0  0  0  0
  141.0560   75.1880  221.9750 O   0  0  0  0  0  0  0  0  0  0  0  0
  139.1680   76.4870  221.7740 N   0  0  0  0  0  0  0  0  0  0  0  0
  139.3830   77.5750  220.8060 C   0  0  0  0  0  0  0  0  0  0  0  0
  139.0840   78.8230  221.6680 C   0  0  2  0  0  0  0  0  0  0  0  0
  140.2520   79.3390  222.3600 C   0  0  0  0  0  0  0  0  0  0  0  0
  140.5830   80.6860  222.1580 C   0  0  0  0  0  0  0  0  0  0  0  0
  141.6810   81.2490  222.7780 C   0  0  0  0  0  0  0  0  0  0  0  0
  142.5100   80.5220  223.6240 C   0  0  0  0  0  0  0  0  0  0  0  0
  142.1820   79.2010  223.8200 C   0  0  0  0  0  0  0  0  0  0  0  0
  141.0830   78.6420  223.1980 C   0  0  0  0  0  0  0  0  0  0  0  0
  137.9480   78.3520  222.4850 C   0  0  0  0  0  0  0  0  0  0  0  0
  138.1990   76.9190  222.7700 C   0  0  1  0  0  0  0  0  0  0  0  0
  136.9490   76.0940  222.6810 C   0  0  0  0  0  0  0  0  0  0  0  0
  136.2970   75.6200  223.7960 C   0  0  0  0  0  0  0  0  0  0  0  0
  135.1440   74.8650  223.5980 C   0  0  0  0  0  0  0  0  0  0  0  0
  134.6550   74.5910  222.3350 C   0  0  0  0  0  0  0  0  0  0  0  0
  135.3130   75.0680  221.2280 C   0  0  0  0  0  0  0  0  0  0  0  0
  136.4600   75.8190  221.4010 C   0  0  0  0  0  0  0  0  0  0  0  0
  139.1470   70.6350  223.7290 C   0  0  0  0  0  0  0  0  0  0  0  0
  138.8030   69.3220  223.6680 C   0  0  0  0  0  0  0  0  0  0  0  0
  139.1000   68.4590  224.7290 C   0  0  0  0  0  0  0  0  0  0  0  0
  139.7540   68.9720  225.8470 C   0  0  0  0  0  0  0  0  0  0  0  0
  140.0840   68.2000  226.9340 C   0  0  0  0  0  0  0  0  0  0  0  0
  140.7350   68.7550  228.0290 C   0  0  0  0  0  0  0  0  0  0  0  0
  141.0760   68.0230  229.1210 F   0  0  0  0  0  0  0  0  0  0  0  0
  141.0590   70.1020  228.0330 C   0  0  0  0  0  0  0  0  0  0  0  0
  140.7400   70.8900  226.9580 C   0  0  0  0  0  0  0  0  0  0  0  0
  140.0920   70.3020  225.8870 C   0  0  0  0  0  0  0  0  0  0  0  0
  139.7850   71.0700  224.8530 N   0  0  0  0  0  0  0  0  0  0  0  0
  139.9280   73.1340  223.5690 H   0  0  0  0  0  0  0  0  0  0  0  0
  139.5128   73.4633  220.7582 H   0  0  0  0  0  0  0  0  0  0  0  0
  138.0819   74.1153  221.8027 H   0  0  0  0  0  0  0  0  0  0  0  0
  140.4183   77.5827  220.4344 H   0  0  0  0  0  0  0  0  0  0  0  0
  138.7624   77.4975  219.9011 H   0  0  0  0  0  0  0  0  0  0  0  0
  138.8148   79.7325  221.1109 H   0  0  0  0  0  0  0  0  0  0  0  0
  139.9588   81.3038  221.4957 H   0  0  0  0  0  0  0  0  0  0  0  0
  141.9074   82.3099  222.5959 H   0  0  0  0  0  0  0  0  0  0  0  0
  143.3834   80.9796  224.1116 H   0  0  0  0  0  0  0  0  0  0  0  0
  142.8041   78.5805  224.4819 H   0  0  0  0  0  0  0  0  0  0  0  0
  140.8628   77.5806  223.3851 H   0  0  0  0  0  0  0  0  0  0  0  0
  137.8933   78.9222  223.4241 H   0  0  0  0  0  0  0  0  0  0  0  0
  136.9935   78.4908  221.9561 H   0  0  0  0  0  0  0  0  0  0  0  0
  138.5685   76.7874  223.7977 H   0  0  0  0  0  0  0  0  0  0  0  0
  136.6733   75.8301  224.8081 H   0  0  0  0  0  0  0  0  0  0  0  0
  134.6057   74.4745  224.4742 H   0  0  0  0  0  0  0  0  0  0  0  0
  133.7402   73.9918  222.2165 H   0  0  0  0  0  0  0  0  0  0  0  0
  134.9325   74.8553  220.2181 H   0  0  0  0  0  0  0  0  0  0  0  0
  136.9946   76.2050  220.5206 H   0  0  0  0  0  0  0  0  0  0  0  0
  138.2868   68.9341  222.7774 H   0  0  0  0  0  0  0  0  0  0  0  0
  138.8223   67.3957  224.6811 H   0  0  0  0  0  0  0  0  0  0  0  0
  139.8299   67.1297  226.9378 H   0  0  0  0  0  0  0  0  0  0  0  0
  141.5735   70.5400  228.9010 H   0  0  0  0  0  0  0  0  0  0  0  0
  140.9924   71.9606  226.9473 H   0  0  0  0  0  0  0  0  0  0  0  0
  1  2  2  0
  2  3  1  0
  3  4  1  0
  4  5  1  0
  5  6  2  0
  5  7  1  0
  7  8  1  0
  8  9  1  0
  9 10  1  0
 10 11  2  0
 11 12  1  0
 12 13  2  0
 13 14  1  0
 14 15  2  0
  9 16  1  0
 16 17  1  0
 17 18  1  0
 18 19  2  0
 19 20  1  0
 20 21  2  0
 21 22  1  0
 22 23  2  0
  2 24  1  0
 24 25  2  0
 25 26  1  0
 26 27  2  0
 27 28  1  0
 28 29  2  0
 29 30  1  0
 29 31  1  0
 31 32  2  0
 32 33  1  0
 33 34  2  0
 17  7  1  0
 23 18  1  0
 34 24  1  0
 15 10  1  0
 33 27  1  0
  3 35  1  0
  4 36  1  0
  4 37  1  0
  8 38  1  0
  8 39  1  0
  9 40  1  6
 11 41  1  0
 12 42  1  0
 13 43  1  0
 14 44  1  0
 15 45  1  0
 16 46  1  0
 16 47  1  0
 17 48  1  1
 19 49  1  0
 20 50  1  0
 21 51  1  0
 22 52  1  0
 23 53  1  0
 25 54  1  0
 26 55  1  0
 28 56  1  0
 31 57  1  0
 32 58  1  0
M  END
>  <smiles>  (28) 
O=C(NCC(=O)N1C[C@H](c2ccccc2)C[C@H]1c1ccccc1)c1ccc2cc(F)ccc2n1

>  <score_type>  (28) 
oracle

>  <origin>  (28) 
autodockgpu

>  <m_score__min__energy>  (28) 
-9.7100000000000009

>  <m_primary>  (28) 
energy

>  <rmsd>  (28) 
2.901267394729084

>  <m_score__min__rmsd>  (28) 
2.901267394729084

>  <meeko>  (28) 
{"free_energy": -9.16, "intermolecular_energy": -10.95, "internal_energy": -2.29, "cluster_size": 25, "cluster_id": 1, "rank_in_cluster": 14}

>  <energy>  (28) 
-9.57

>  <cluster_rmsd>  (28) 
0.28

>  <cluster>  (28) 
2

$$$$

     RDKit          3D

 58 62  0  0  0  0  0  0  0  0999 V2000
  139.8860   71.4470  221.0660 O   0  0  0  0  0  0  0  0  0  0  0  0
  139.7310   71.9200  222.2430 C   0  0  0  0  0  0  0  0  0  0  0  0
  139.5750   73.3210  222.4390 N   0  0  0  0  0  0  0  0  0  0  0  0
  139.5860   74.2850  221.4080 C   0  0  0  0  0  0  0  0  0  0  0  0
  140.1900   75.5850  221.6100 C   0  0  0  0  0  0  0  0  0  0  0  0
  141.4630   75.5520  221.8920 O   0  0  0  0  0  0  0  0  0  0  0  0
  139.6140   76.8760  221.5410 N   0  0  0  0  0  0  0  0  0  0  0  0
  139.8980   77.9670  220.5950 C   0  0  0  0  0  0  0  0  0  0  0  0
  139.5630   79.2130  221.4470 C   0  0  2  0  0  0  0  0  0  0  0  0
  140.6950   79.7110  222.2090 C   0  0  0  0  0  0  0  0  0  0  0  0
  140.4660   80.7800  223.0870 C   0  0  0  0  0  0  0  0  0  0  0  0
  141.4920   81.3110  223.8430 C   0  0  0  0  0  0  0  0  0  0  0  0
  142.7920   80.8250  223.7780 C   0  0  0  0  0  0  0  0  0  0  0  0
  143.0130   79.7760  222.9150 C   0  0  0  0  0  0  0  0  0  0  0  0
  141.9840   79.2470  222.1610 C   0  0  0  0  0  0  0  0  0  0  0  0
  138.3760   78.7500  222.1930 C   0  0  0  0  0  0  0  0  0  0  0  0
  138.5940   77.3140  222.4820 C   0  0  1  0  0  0  0  0  0  0  0  0
  137.3420   76.5040  222.3150 C   0  0  0  0  0  0  0  0  0  0  0  0
  136.7950   76.2380  221.0810 C   0  0  0  0  0  0  0  0  0  0  0  0
  135.6310   75.4750  221.0410 C   0  0  0  0  0  0  0  0  0  0  0  0
  135.0320   74.9910  222.1880 C   0  0  0  0  0  0  0  0  0  0  0  0
  135.5850   75.2620  223.4160 C   0  0  0  0  0  0  0  0  0  0  0  0
  136.7400   76.0190  223.4790 C   0  0  0  0  0  0  0  0  0  0  0  0
  139.7160   71.0080  223.3980 C   0  0  0  0  0  0  0  0  0  0  0  0
  139.2240   69.7440  223.3240 C   0  0  0  0  0  0  0  0  0  0  0  0
  139.2320   68.9110  224.4480 C   0  0  0  0  0  0  0  0  0  0  0  0
  139.7510   69.4030  225.6430 C   0  0  0  0  0  0  0  0  0  0  0  0
  139.7980   68.6590  226.7960 C   0  0  0  0  0  0  0  0  0  0  0  0
  140.3240   69.1910  227.9660 C   0  0  0  0  0  0  0  0  0  0  0  0
  140.3850   68.4850  229.1250 F   0  0  0  0  0  0  0  0  0  0  0  0
  140.8100   70.4880  227.9790 C   0  0  0  0  0  0  0  0  0  0  0  0
  140.7750   71.2480  226.8400 C   0  0  0  0  0  0  0  0  0  0  0  0
  140.2440   70.6840  225.6950 C   0  0  0  0  0  0  0  0  0  0  0  0
  140.2100   71.4250  224.5980 N   0  0  0  0  0  0  0  0  0  0  0  0
  139.4430   73.6170  223.4530 H   0  0  0  0  0  0  0  0  0  0  0  0
  140.1090   73.8260  220.5561 H   0  0  0  0  0  0  0  0  0  0  0  0
  138.5195   74.5287  221.2929 H   0  0  0  0  0  0  0  0  0  0  0  0
  140.9534   77.9648  220.2849 H   0  0  0  0  0  0  0  0  0  0  0  0
  139.3310   77.9026  219.6546 H   0  0  0  0  0  0  0  0  0  0  0  0
  139.3365   80.1293  220.8821 H   0  0  0  0  0  0  0  0  0  0  0  0
  139.4539   81.2018  223.1748 H   0  0  0  0  0  0  0  0  0  0  0  0
  141.2724   82.1488  224.5211 H   0  0  0  0  0  0  0  0  0  0  0  0
  143.6021   81.2561  224.3845 H   0  0  0  0  0  0  0  0  0  0  0  0
  144.0242   79.3526  222.8244 H   0  0  0  0  0  0  0  0  0  0  0  0
  142.2108   78.4086  221.4859 H   0  0  0  0  0  0  0  0  0  0  0  0
  138.2727   79.3149  223.1312 H   0  0  0  0  0  0  0  0  0  0  0  0
  137.4557   78.9030  221.6103 H   0  0  0  0  0  0  0  0  0  0  0  0
  138.9022   77.1725  223.5284 H   0  0  0  0  0  0  0  0  0  0  0  0
  137.2608   76.6148  220.1585 H   0  0  0  0  0  0  0  0  0  0  0  0
  135.1741   75.2506  220.0658 H   0  0  0  0  0  0  0  0  0  0  0  0
  134.1137   74.3895  222.1181 H   0  0  0  0  0  0  0  0  0  0  0  0
  135.1157   74.8823  224.3355 H   0  0  0  0  0  0  0  0  0  0  0  0
  137.1906   76.2423  224.4573 H   0  0  0  0  0  0  0  0  0  0  0  0
  138.8159   69.3723  222.3725 H   0  0  0  0  0  0  0  0  0  0  0  0
  138.8357   67.8866  224.3890 H   0  0  0  0  0  0  0  0  0  0  0  0
  139.4140   67.6282  226.7930 H   0  0  0  0  0  0  0  0  0  0  0  0
  141.2252   70.9088  228.9066 H   0  0  0  0  0  0  0  0  0  0  0  0
  141.1589   72.2788  226.8365 H   0  0  0  0  0  0  0  0  0  0  0  0
  1  2  2  0
  2  3  1  0
  3  4  1  0
  4  5  1  0
  5  6  2  0
  5  7  1  0
  7  8  1  0
  8  9  1  0
  9 10  1  0
 10 11  2  0
 11 12  1  0
 12 13  2  0
 13 14  1  0
 14 15  2  0
  9 16  1  0
 16 17  1  0
 17 18  1  0
 18 19  2  0
 19 20  1  0
 20 21  2  0
 21 22  1  0
 22 23  2  0
  2 24  1  0
 24 25  2  0
 25 26  1  0
 26 27  2  0
 27 28  1  0
 28 29  2  0
 29 30  1  0
 29 31  1  0
 31 32  2  0
 32 33  1  0
 33 34  2  0
 17  7  1  0
 23 18  1  0
 34 24  1  0
 15 10  1  0
 33 27  1  0
  3 35  1  0
  4 36  1  0
  4 37  1  0
  8 38  1  0
  8 39  1  0
  9 40  1  6
 11 41  1  0
 12 42  1  0
 13 43  1  0
 14 44  1  0
 15 45  1  0
 16 46  1  0
 16 47  1  0
 17 48  1  1
 19 49  1  0
 20 50  1  0
 21 51  1  0
 22 52  1  0
 23 53  1  0
 25 54  1  0
 26 55  1  0
 28 56  1  0
 31 57  1  0
 32 58  1  0
M  END
>  <smiles>  (29) 
O=C(NCC(=O)N1C[C@H](c2ccccc2)C[C@H]1c1ccccc1)c1ccc2cc(F)ccc2n1

>  <score_type>  (29) 
oracle

>  <origin>  (29) 
autodockgpu

>  <m_score__min__energy>  (29) 
-9.7100000000000009

>  <m_primary>  (29) 
energy

>  <rmsd>  (29) 
2.8469718298293123

>  <m_score__min__rmsd>  (29) 
2.8469718298293123

>  <meeko>  (29) 
{"free_energy": -9.27, "intermolecular_energy": -11.06, "internal_energy": -2.08, "cluster_size": 25, "cluster_id": 1, "rank_in_cluster": 7}

>  <energy>  (29) 
-9.52

>  <cluster_rmsd>  (29) 
0.31

>  <cluster>  (29) 
2

$$$$

     RDKit          3D

 58 62  0  0  0  0  0  0  0  0999 V2000
  138.3280   71.2240  221.5300 O   0  0  0  0  0  0  0  0  0  0  0  0
  138.9740   71.6160  222.5610 C   0  0  0  0  0  0  0  0  0  0  0  0
  139.4460   72.9560  222.6480 N   0  0  0  0  0  0  0  0  0  0  0  0
  139.2680   73.9390  221.6500 C   0  0  0  0  0  0  0  0  0  0  0  0
  139.8480   75.2580  221.7900 C   0  0  0  0  0  0  0  0  0  0  0  0
  141.1400   75.2640  221.9690 O   0  0  0  0  0  0  0  0  0  0  0  0
  139.2310   76.5300  221.7570 N   0  0  0  0  0  0  0  0  0  0  0  0
  139.4410   77.6370  220.8090 C   0  0  0  0  0  0  0  0  0  0  0  0
  139.1040   78.8650  221.6860 C   0  0  2  0  0  0  0  0  0  0  0  0
  140.2520   79.3920  222.4040 C   0  0  0  0  0  0  0  0  0  0  0  0
  141.4270   78.6280  222.3990 C   0  0  0  0  0  0  0  0  0  0  0  0
  142.5590   79.0590  223.0620 C   0  0  0  0  0  0  0  0  0  0  0  0
  142.5970   80.2580  223.7640 C   0  0  0  0  0  0  0  0  0  0  0  0
  141.4410   81.0050  223.7680 C   0  0  0  0  0  0  0  0  0  0  0  0
  140.3120   80.5700  223.1030 C   0  0  0  0  0  0  0  0  0  0  0  0
  137.9650   78.3610  222.4780 C   0  0  0  0  0  0  0  0  0  0  0  0
  138.2380   76.9290  222.7440 C   0  0  1  0  0  0  0  0  0  0  0  0
  137.0060   76.0820  222.6230 C   0  0  0  0  0  0  0  0  0  0  0  0
  136.4810   75.7150  221.4050 C   0  0  0  0  0  0  0  0  0  0  0  0
  135.3330   74.9260  221.4080 C   0  0  0  0  0  0  0  0  0  0  0  0
  134.7290   74.5150  222.5810 C   0  0  0  0  0  0  0  0  0  0  0  0
  135.2600   74.8880  223.7920 C   0  0  0  0  0  0  0  0  0  0  0  0
  136.3980   75.6720  223.8120 C   0  0  0  0  0  0  0  0  0  0  0  0
  139.2310   70.6720  223.6610 C   0  0  0  0  0  0  0  0  0  0  0  0
  138.8680   69.3650  223.6010 C   0  0  0  0  0  0  0  0  0  0  0  0
  139.1330   68.5030  224.6720 C   0  0  0  0  0  0  0  0  0  0  0  0
  139.7750   69.0130  225.7990 C   0  0  0  0  0  0  0  0  0  0  0  0
  140.0740   68.2430  226.8960 C   0  0  0  0  0  0  0  0  0  0  0  0
  140.7130   68.7940  227.9990 C   0  0  0  0  0  0  0  0  0  0  0  0
  141.0240   68.0630  229.1010 F   0  0  0  0  0  0  0  0  0  0  0  0
  141.0580   70.1350  228.0000 C   0  0  0  0  0  0  0  0  0  0  0  0
  140.7700   70.9220  226.9160 C   0  0  0  0  0  0  0  0  0  0  0  0
  140.1330   70.3380  225.8370 C   0  0  0  0  0  0  0  0  0  0  0  0
  139.8550   71.1040  224.7930 N   0  0  0  0  0  0  0  0  0  0  0  0
  139.9640   73.1890  223.5470 H   0  0  0  0  0  0  0  0  0  0  0  0
  139.6737   73.5163  220.7190 H   0  0  0  0  0  0  0  0  0  0  0  0
  138.1883   74.1431  221.7017 H   0  0  0  0  0  0  0  0  0  0  0  0
  140.4819   77.6702  220.4547 H   0  0  0  0  0  0  0  0  0  0  0  0
  138.8372   77.5622  219.8926 H   0  0  0  0  0  0  0  0  0  0  0  0
  138.8250   79.7775  221.1388 H   0  0  0  0  0  0  0  0  0  0  0  0
  141.4478   77.6702  221.8585 H   0  0  0  0  0  0  0  0  0  0  0  0
  143.4621   78.4316  223.0336 H   0  0  0  0  0  0  0  0  0  0  0  0
  143.5038   80.5925  224.2891 H   0  0  0  0  0  0  0  0  0  0  0  0
  141.4163   81.9625  224.3089 H   0  0  0  0  0  0  0  0  0  0  0  0
  139.4125   81.2023  223.1357 H   0  0  0  0  0  0  0  0  0  0  0  0
  137.8859   78.9150  223.4250 H   0  0  0  0  0  0  0  0  0  0  0  0
  137.0160   78.4911  221.9372 H   0  0  0  0  0  0  0  0  0  0  0  0
  138.5937   76.7887  223.7754 H   0  0  0  0  0  0  0  0  0  0  0  0
  136.9511   76.0333  220.4628 H   0  0  0  0  0  0  0  0  0  0  0  0
  134.8936   74.6207  220.4469 H   0  0  0  0  0  0  0  0  0  0  0  0
  133.8244   73.8901  222.5452 H   0  0  0  0  0  0  0  0  0  0  0  0
  134.7864   74.5674  224.7317 H   0  0  0  0  0  0  0  0  0  0  0  0
  136.8305   75.9770  224.7763 H   0  0  0  0  0  0  0  0  0  0  0  0
  138.3615   68.9802  222.7035 H   0  0  0  0  0  0  0  0  0  0  0  0
  138.8402   67.4437  224.6248 H   0  0  0  0  0  0  0  0  0  0  0  0
  139.8041   67.1766  226.9011 H   0  0  0  0  0  0  0  0  0  0  0  0
  141.5650   70.5699  228.8740 H   0  0  0  0  0  0  0  0  0  0  0  0
  141.0382   71.9887  226.9046 H   0  0  0  0  0  0  0  0  0  0  0  0
  1  2  2  0
  2  3  1  0
  3  4  1  0
  4  5  1  0
  5  6  2  0
  5  7  1  0
  7  8  1  0
  8  9  1  0
  9 10  1  0
 10 11  2  0
 11 12  1  0
 12 13  2  0
 13 14  1  0
 14 15  2  0
  9 16  1  0
 16 17  1  0
 17 18  1  0
 18 19  2  0
 19 20  1  0
 20 21  2  0
 21 22  1  0
 22 23  2  0
  2 24  1  0
 24 25  2  0
 25 26  1  0
 26 27  2  0
 27 28  1  0
 28 29  2  0
 29 30  1  0
 29 31  1  0
 31 32  2  0
 32 33  1  0
 33 34  2  0
 17  7  1  0
 23 18  1  0
 34 24  1  0
 15 10  1  0
 33 27  1  0
  3 35  1  0
  4 36  1  0
  4 37  1  0
  8 38  1  0
  8 39  1  0
  9 40  1  6
 11 41  1  0
 12 42  1  0
 13 43  1  0
 14 44  1  0
 15 45  1  0
 16 46  1  0
 16 47  1  0
 17 48  1  1
 19 49  1  0
 20 50  1  0
 21 51  1  0
 22 52  1  0
 23 53  1  0
 25 54  1  0
 26 55  1  0
 28 56  1  0
 31 57  1  0
 32 58  1  0
M  END
>  <smiles>  (30) 
O=C(NCC(=O)N1C[C@H](c2ccccc2)C[C@H]1c1ccccc1)c1ccc2cc(F)ccc2n1

>  <score_type>  (30) 
oracle

>  <origin>  (30) 
autodockgpu

>  <m_score__min__energy>  (30) 
-9.7100000000000009

>  <m_primary>  (30) 
energy

>  <rmsd>  (30) 
2.906733465544103

>  <m_score__min__rmsd>  (30) 
2.906733465544103

>  <meeko>  (30) 
{"free_energy": -9.15, "intermolecular_energy": -10.94, "internal_energy": -2.32, "cluster_size": 25, "cluster_id": 1, "rank_in_cluster": 18}

>  <energy>  (30) 
-9.48

>  <cluster_rmsd>  (30) 
1.28

>  <cluster>  (30) 
2

$$$$

     RDKit          3D

 58 62  0  0  0  0  0  0  0  0999 V2000
  140.1720   70.6670  221.7910 O   0  0  0  0  0  0  0  0  0  0  0  0
  139.9400   71.4670  222.7610 C   0  0  0  0  0  0  0  0  0  0  0  0
  139.4120   72.7650  222.5130 N   0  0  0  0  0  0  0  0  0  0  0  0
  139.1170   73.2830  221.2330 C   0  0  0  0  0  0  0  0  0  0  0  0
  140.1120   73.2810  220.1810 C   0  0  0  0  0  0  0  0  0  0  0  0
  140.1140   72.2070  219.4410 O   0  0  0  0  0  0  0  0  0  0  0  0
  141.0700   74.2630  219.8340 N   0  0  0  0  0  0  0  0  0  0  0  0
  141.8300   74.4120  218.5820 C   0  0  0  0  0  0  0  0  0  0  0  0
  143.1180   75.1070  219.0810 C   0  0  2  0  0  0  0  0  0  0  0  0
  144.1560   74.1750  219.4860 C   0  0  0  0  0  0  0  0  0  0  0  0
  144.9400   74.5190  220.5960 C   0  0  0  0  0  0  0  0  0  0  0  0
  145.9480   73.6870  221.0390 C   0  0  0  0  0  0  0  0  0  0  0  0
  146.2410   72.4780  220.4180 C   0  0  0  0  0  0  0  0  0  0  0  0
  145.4700   72.1440  219.3290 C   0  0  0  0  0  0  0  0  0  0  0  0
  144.4610   72.9790  218.8890 C   0  0  0  0  0  0  0  0  0  0  0  0
  142.5800   76.0290  220.1020 C   0  0  0  0  0  0  0  0  0  0  0  0
  141.4520   75.3230  220.7540 C   0  0  1  0  0  0  0  0  0  0  0  0
  140.2890   76.2330  221.0200 C   0  0  0  0  0  0  0  0  0  0  0  0
  139.4970   76.7310  220.0120 C   0  0  0  0  0  0  0  0  0  0  0  0
  138.4420   77.5670  220.3720 C   0  0  0  0  0  0  0  0  0  0  0  0
  138.1850   77.8960  221.6890 C   0  0  0  0  0  0  0  0  0  0  0  0
  138.9820   77.3950  222.6890 C   0  0  0  0  0  0  0  0  0  0  0  0
  140.0350   76.5640  222.3540 C   0  0  0  0  0  0  0  0  0  0  0  0
  140.2210   71.0370  224.1410 C   0  0  0  0  0  0  0  0  0  0  0  0
  140.6880   71.8880  225.0900 C   0  0  0  0  0  0  0  0  0  0  0  0
  140.9400   71.4350  226.3900 C   0  0  0  0  0  0  0  0  0  0  0  0
  140.7040   70.0960  226.6900 C   0  0  0  0  0  0  0  0  0  0  0  0
  140.9230   69.5630  227.9370 C   0  0  0  0  0  0  0  0  0  0  0  0
  140.6750   68.2210  228.1910 C   0  0  0  0  0  0  0  0  0  0  0  0
  140.8820   67.6590  229.4100 F   0  0  0  0  0  0  0  0  0  0  0  0
  140.1990   67.4010  227.1800 C   0  0  0  0  0  0  0  0  0  0  0  0
  139.9720   67.9120  225.9300 C   0  0  0  0  0  0  0  0  0  0  0  0
  140.2300   69.2530  225.7150 C   0  0  0  0  0  0  0  0  0  0  0  0
  140.0110   69.7400  224.5030 N   0  0  0  0  0  0  0  0  0  0  0  0
  139.2450   73.3520  223.3840 H   0  0  0  0  0  0  0  0  0  0  0  0
  138.2590   72.7089  220.8533 H   0  0  0  0  0  0  0  0  0  0  0  0
  138.9771   74.3557  221.4321 H   0  0  0  0  0  0  0  0  0  0  0  0
  142.0513   73.4348  218.1280 H   0  0  0  0  0  0  0  0  0  0  0  0
  141.2960   74.9689  217.7979 H   0  0  0  0  0  0  0  0  0  0  0  0
  143.6872   75.6577  218.3176 H   0  0  0  0  0  0  0  0  0  0  0  0
  144.7489   75.4662  221.1217 H   0  0  0  0  0  0  0  0  0  0  0  0
  146.5406   73.9911  221.9144 H   0  0  0  0  0  0  0  0  0  0  0  0
  147.0474   71.8227  220.7788 H   0  0  0  0  0  0  0  0  0  0  0  0
  145.6596   71.1981  218.8005 H   0  0  0  0  0  0  0  0  0  0  0  0
  143.8715   72.6680  218.0139 H   0  0  0  0  0  0  0  0  0  0  0  0
  143.3564   76.2704  220.8429 H   0  0  0  0  0  0  0  0  0  0  0  0
  142.2485   76.9748  219.6487 H   0  0  0  0  0  0  0  0  0  0  0  0
  141.7556   74.9340  221.7371 H   0  0  0  0  0  0  0  0  0  0  0  0
  139.6895   76.4783  218.9589 H   0  0  0  0  0  0  0  0  0  0  0  0
  137.7940   77.9775  219.5836 H   0  0  0  0  0  0  0  0  0  0  0  0
  137.3427   78.5587  221.9365 H   0  0  0  0  0  0  0  0  0  0  0  0
  138.7855   77.6510  223.7406 H   0  0  0  0  0  0  0  0  0  0  0  0
  140.6807   76.1585  223.1469 H   0  0  0  0  0  0  0  0  0  0  0  0
  140.8699   72.9425  224.8351 H   0  0  0  0  0  0  0  0  0  0  0  0
  141.3174   72.1238  227.1602 H   0  0  0  0  0  0  0  0  0  0  0  0
  141.2997   70.2079  228.7446 H   0  0  0  0  0  0  0  0  0  0  0  0
  140.0032   66.3376  227.3822 H   0  0  0  0  0  0  0  0  0  0  0  0
  139.5944   67.2725  225.1186 H   0  0  0  0  0  0  0  0  0  0  0  0
  1  2  2  0
  2  3  1  0
  3  4  1  0
  4  5  1  0
  5  6  2  0
  5  7  1  0
  7  8  1  0
  8  9  1  0
  9 10  1  0
 10 11  2  0
 11 12  1  0
 12 13  2  0
 13 14  1  0
 14 15  2  0
  9 16  1  0
 16 17  1  0
 17 18  1  0
 18 19  2  0
 19 20  1  0
 20 21  2  0
 21 22  1  0
 22 23  2  0
  2 24  1  0
 24 25  2  0
 25 26  1  0
 26 27  2  0
 27 28  1  0
 28 29  2  0
 29 30  1  0
 29 31  1  0
 31 32  2  0
 32 33  1  0
 33 34  2  0
 17  7  1  0
 23 18  1  0
 34 24  1  0
 15 10  1  0
 33 27  1  0
  3 35  1  0
  4 36  1  0
  4 37  1  0
  8 38  1  0
  8 39  1  0
  9 40  1  6
 11 41  1  0
 12 42  1  0
 13 43  1  0
 14 44  1  0
 15 45  1  0
 16 46  1  0
 16 47  1  0
 17 48  1  1
 19 49  1  0
 20 50  1  0
 21 51  1  0
 22 52  1  0
 23 53  1  0
 25 54  1  0
 26 55  1  0
 28 56  1  0
 31 57  1  0
 32 58  1  0
M  END
>  <smiles>  (31) 
O=C(NCC(=O)N1C[C@H](c2ccccc2)C[C@H]1c1ccccc1)c1ccc2cc(F)ccc2n1

>  <score_type>  (31) 
oracle

>  <origin>  (31) 
autodockgpu

>  <m_score__min__energy>  (31) 
-9.7100000000000009

>  <m_primary>  (31) 
energy

>  <rmsd>  (31) 
2.944448681121664

>  <m_score__min__rmsd>  (31) 
2.944448681121664

>  <meeko>  (31) 
{"free_energy": -8.73, "intermolecular_energy": -10.52, "internal_energy": -1.89, "cluster_size": 21, "cluster_id": 2, "rank_in_cluster": 19}

>  <energy>  (31) 
-9.48

>  <cluster_rmsd>  (31) 
1.03

>  <cluster>  (31) 
2

$$$$

     RDKit          3D

 58 62  0  0  0  0  0  0  0  0999 V2000
  140.9650   72.5440  221.7720 O   0  0  0  0  0  0  0  0  0  0  0  0
  139.9470   72.4340  222.5370 C   0  0  0  0  0  0  0  0  0  0  0  0
  138.8110   73.2690  222.3480 N   0  0  0  0  0  0  0  0  0  0  0  0
  138.7000   74.2650  221.3530 C   0  0  0  0  0  0  0  0  0  0  0  0
  139.4240   75.5140  221.4640 C   0  0  0  0  0  0  0  0  0  0  0  0
  139.0570   76.2650  222.4640 O   0  0  0  0  0  0  0  0  0  0  0  0
  140.4670   76.0340  220.6600 N   0  0  0  0  0  0  0  0  0  0  0  0
  140.7710   75.7570  219.2470 C   0  0  0  0  0  0  0  0  0  0  0  0
  142.3000   75.9840  219.2090 C   0  0  2  0  0  0  0  0  0  0  0  0
  143.0680   74.7870  219.5080 C   0  0  0  0  0  0  0  0  0  0  0  0
  144.2770   74.9480  220.1990 C   0  0  0  0  0  0  0  0  0  0  0  0
  145.0650   73.8600  220.5160 C   0  0  0  0  0  0  0  0  0  0  0  0
  144.7110   72.5610  220.1720 C   0  0  0  0  0  0  0  0  0  0  0  0
  143.5240   72.4070  219.4930 C   0  0  0  0  0  0  0  0  0  0  0  0
  142.7390   73.4980  219.1780 C   0  0  0  0  0  0  0  0  0  0  0  0
  142.4500   77.1440  220.1090 C   0  0  0  0  0  0  0  0  0  0  0  0
  141.4440   76.9750  221.1840 C   0  0  1  0  0  0  0  0  0  0  0  0
  140.7830   78.2700  221.5530 C   0  0  0  0  0  0  0  0  0  0  0  0
  139.9640   78.9540  220.6830 C   0  0  0  0  0  0  0  0  0  0  0  0
  139.4000   80.1470  221.1290 C   0  0  0  0  0  0  0  0  0  0  0  0
  139.6400   80.6430  222.3960 C   0  0  0  0  0  0  0  0  0  0  0  0
  140.4600   79.9530  223.2570 C   0  0  0  0  0  0  0  0  0  0  0  0
  141.0310   78.7680  222.8350 C   0  0  0  0  0  0  0  0  0  0  0  0
  139.9560   71.4350  223.6190 C   0  0  0  0  0  0  0  0  0  0  0  0
  139.5100   70.1650  223.4430 C   0  0  0  0  0  0  0  0  0  0  0  0
  139.5390   69.2490  224.5010 C   0  0  0  0  0  0  0  0  0  0  0  0
  140.0320   69.6660  225.7350 C   0  0  0  0  0  0  0  0  0  0  0  0
  140.0970   68.8370  226.8290 C   0  0  0  0  0  0  0  0  0  0  0  0
  140.5950   69.2970  228.0410 C   0  0  0  0  0  0  0  0  0  0  0  0
  140.6730   68.5060  229.1430 F   0  0  0  0  0  0  0  0  0  0  0  0
  141.0350   70.6050  228.1580 C   0  0  0  0  0  0  0  0  0  0  0  0
  140.9800   71.4480  227.0800 C   0  0  0  0  0  0  0  0  0  0  0  0
  140.4780   70.9550  225.8890 C   0  0  0  0  0  0  0  0  0  0  0  0
  140.4260   71.7770  224.8520 N   0  0  0  0  0  0  0  0  0  0  0  0
  138.0120   73.0950  223.0280 H   0  0  0  0  0  0  0  0  0  0  0  0
  139.0203   73.8007  220.4086 H   0  0  0  0  0  0  0  0  0  0  0  0
  137.6514   74.5841  221.4461 H   0  0  0  0  0  0  0  0  0  0  0  0
  140.5116   74.7230  218.9756 H   0  0  0  0  0  0  0  0  0  0  0  0
  140.2078   76.3805  218.5370 H   0  0  0  0  0  0  0  0  0  0  0  0
  142.7235   76.2017  218.2174 H   0  0  0  0  0  0  0  0  0  0  0  0
  144.6026   75.9567  220.4931 H   0  0  0  0  0  0  0  0  0  0  0  0
  146.0063   74.0271  221.0601 H   0  0  0  0  0  0  0  0  0  0  0  0
  145.3465   71.7007  220.4290 H   0  0  0  0  0  0  0  0  0  0  0  0
  143.1958   71.3997  219.1969 H   0  0  0  0  0  0  0  0  0  0  0  0
  141.7995   73.3236  218.6332 H   0  0  0  0  0  0  0  0  0  0  0  0
  143.4633   77.1648  220.5366 H   0  0  0  0  0  0  0  0  0  0  0  0
  142.2990   78.0897  219.5678 H   0  0  0  0  0  0  0  0  0  0  0  0
  141.9205   76.6122  222.1067 H   0  0  0  0  0  0  0  0  0  0  0  0
  139.7622   78.5719  219.6714 H   0  0  0  0  0  0  0  0  0  0  0  0
  138.7430   80.7119  220.4513 H   0  0  0  0  0  0  0  0  0  0  0  0
  139.1760   81.5879  222.7151 H   0  0  0  0  0  0  0  0  0  0  0  0
  140.6587   80.3390  224.2677 H   0  0  0  0  0  0  0  0  0  0  0  0
  141.6892   78.2093  223.5167 H   0  0  0  0  0  0  0  0  0  0  0  0
  139.1229   69.8534  222.4616 H   0  0  0  0  0  0  0  0  0  0  0  0
  139.1792   68.2191  224.3605 H   0  0  0  0  0  0  0  0  0  0  0  0
  139.7504   67.7965  226.7437 H   0  0  0  0  0  0  0  0  0  0  0  0
  141.4295   70.9675  229.1187 H   0  0  0  0  0  0  0  0  0  0  0  0
  141.3258   72.4892  227.1592 H   0  0  0  0  0  0  0  0  0  0  0  0
  1  2  2  0
  2  3  1  0
  3  4  1  0
  4  5  1  0
  5  6  2  0
  5  7  1  0
  7  8  1  0
  8  9  1  0
  9 10  1  0
 10 11  2  0
 11 12  1  0
 12 13  2  0
 13 14  1  0
 14 15  2  0
  9 16  1  0
 16 17  1  0
 17 18  1  0
 18 19  2  0
 19 20  1  0
 20 21  2  0
 21 22  1  0
 22 23  2  0
  2 24  1  0
 24 25  2  0
 25 26  1  0
 26 27  2  0
 27 28  1  0
 28 29  2  0
 29 30  1  0
 29 31  1  0
 31 32  2  0
 32 33  1  0
 33 34  2  0
 17  7  1  0
 23 18  1  0
 34 24  1  0
 15 10  1  0
 33 27  1  0
  3 35  1  0
  4 36  1  0
  4 37  1  0
  8 38  1  0
  8 39  1  0
  9 40  1  6
 11 41  1  0
 12 42  1  0
 13 43  1  0
 14 44  1  0
 15 45  1  0
 16 46  1  0
 16 47  1  0
 17 48  1  1
 19 49  1  0
 20 50  1  0
 21 51  1  0
 22 52  1  0
 23 53  1  0
 25 54  1  0
 26 55  1  0
 28 56  1  0
 31 57  1  0
 32 58  1  0
M  END
>  <smiles>  (32) 
O=C(NCC(=O)N1C[C@H](c2ccccc2)C[C@H]1c1ccccc1)c1ccc2cc(F)ccc2n1

>  <score_type>  (32) 
oracle

>  <origin>  (32) 
autodockgpu

>  <m_score__min__energy>  (32) 
-9.7100000000000009

>  <m_primary>  (32) 
energy

>  <rmsd>  (32) 
1.5998670636348877

>  <m_score__min__rmsd>  (32) 
1.5998670636348877

>  <meeko>  (32) 
{"free_energy": -9.34, "intermolecular_energy": -11.12, "internal_energy": -2.09, "cluster_size": 21, "cluster_id": 2, "rank_in_cluster": 11}

>  <energy>  (32) 
-9.46

>  <cluster_rmsd>  (32) 
1.26

>  <cluster>  (32) 
2

$$$$

     RDKit          3D

 58 62  0  0  0  0  0  0  0  0999 V2000
  138.2590   71.2280  221.6280 O   0  0  0  0  0  0  0  0  0  0  0  0
  138.9630   71.6230  222.6190 C   0  0  0  0  0  0  0  0  0  0  0  0
  139.4680   72.9530  222.6570 N   0  0  0  0  0  0  0  0  0  0  0  0
  139.2660   73.9210  221.6490 C   0  0  0  0  0  0  0  0  0  0  0  0
  140.0490   73.9030  220.4310 C   0  0  0  0  0  0  0  0  0  0  0  0
  139.7660   72.9210  219.6210 O   0  0  0  0  0  0  0  0  0  0  0  0
  141.0610   74.7870  219.9880 N   0  0  0  0  0  0  0  0  0  0  0  0
  141.7560   74.8220  218.6910 C   0  0  0  0  0  0  0  0  0  0  0  0
  143.1230   75.4270  219.0870 C   0  0  2  0  0  0  0  0  0  0  0  0
  144.1040   74.4280  219.4760 C   0  0  0  0  0  0  0  0  0  0  0  0
  144.2680   73.3190  218.6340 C   0  0  0  0  0  0  0  0  0  0  0  0
  145.1770   72.3250  218.9370 C   0  0  0  0  0  0  0  0  0  0  0  0
  145.9710   72.3660  220.0780 C   0  0  0  0  0  0  0  0  0  0  0  0
  145.8060   73.4560  220.9010 C   0  0  0  0  0  0  0  0  0  0  0  0
  144.8960   74.4480  220.5940 C   0  0  0  0  0  0  0  0  0  0  0  0
  142.7220   76.4300  220.0940 C   0  0  0  0  0  0  0  0  0  0  0  0
  141.5810   75.8480  220.8380 C   0  0  1  0  0  0  0  0  0  0  0  0
  140.5130   76.8610  221.1260 C   0  0  0  0  0  0  0  0  0  0  0  0
  140.1800   77.2370  222.4080 C   0  0  0  0  0  0  0  0  0  0  0  0
  139.1740   78.1880  222.5610 C   0  0  0  0  0  0  0  0  0  0  0  0
  138.5230   78.7470  221.4780 C   0  0  0  0  0  0  0  0  0  0  0  0
  138.8630   78.3660  220.2030 C   0  0  0  0  0  0  0  0  0  0  0  0
  139.8580   77.4230  220.0270 C   0  0  0  0  0  0  0  0  0  0  0  0
  139.2480   70.6940  223.7240 C   0  0  0  0  0  0  0  0  0  0  0  0
  138.9350   69.3740  223.6690 C   0  0  0  0  0  0  0  0  0  0  0  0
  139.2270   68.5280  224.7440 C   0  0  0  0  0  0  0  0  0  0  0  0
  139.8440   69.0660  225.8720 C   0  0  0  0  0  0  0  0  0  0  0  0
  140.1670   68.3120  226.9730 C   0  0  0  0  0  0  0  0  0  0  0  0
  140.7800   68.8910  228.0770 C   0  0  0  0  0  0  0  0  0  0  0  0
  141.1130   68.1770  229.1840 F   0  0  0  0  0  0  0  0  0  0  0  0
  141.0750   70.2440  228.0740 C   0  0  0  0  0  0  0  0  0  0  0  0
  140.7630   71.0150  226.9850 C   0  0  0  0  0  0  0  0  0  0  0  0
  140.1530   70.4030  225.9050 C   0  0  0  0  0  0  0  0  0  0  0  0
  139.8520   71.1540  224.8570 N   0  0  0  0  0  0  0  0  0  0  0  0
  140.0340   73.1900  223.5260 H   0  0  0  0  0  0  0  0  0  0  0  0
  138.2120   73.8405  221.3446 H   0  0  0  0  0  0  0  0  0  0  0  0
  139.5967   74.8503  222.1358 H   0  0  0  0  0  0  0  0  0  0  0  0
  141.8708   73.8124  218.2697 H   0  0  0  0  0  0  0  0  0  0  0  0
  141.2239   75.3895  217.9133 H   0  0  0  0  0  0  0  0  0  0  0  0
  143.6891   75.8978  218.2698 H   0  0  0  0  0  0  0  0  0  0  0  0
  143.6635   73.2397  217.7184 H   0  0  0  0  0  0  0  0  0  0  0  0
  145.2767   71.4704  218.2517 H   0  0  0  0  0  0  0  0  0  0  0  0
  146.6928   71.5690  220.3102 H   0  0  0  0  0  0  0  0  0  0  0  0
  146.4083   73.5385  221.8177 H   0  0  0  0  0  0  0  0  0  0  0  0
  144.8018   75.2997  221.2837 H   0  0  0  0  0  0  0  0  0  0  0  0
  143.5575   76.6350  220.7795 H   0  0  0  0  0  0  0  0  0  0  0  0
  142.4420   77.3812  219.6177 H   0  0  0  0  0  0  0  0  0  0  0  0
  141.9092   75.4755  221.8196 H   0  0  0  0  0  0  0  0  0  0  0  0
  140.6901   76.8019  223.2800 H   0  0  0  0  0  0  0  0  0  0  0  0
  138.8889   78.5038  223.5754 H   0  0  0  0  0  0  0  0  0  0  0  0
  137.7334   79.4962  221.6368 H   0  0  0  0  0  0  0  0  0  0  0  0
  138.3507   78.8051  219.3343 H   0  0  0  0  0  0  0  0  0  0  0  0
  140.1376   77.1112  219.0098 H   0  0  0  0  0  0  0  0  0  0  0  0
  138.4475   68.9663  222.7712 H   0  0  0  0  0  0  0  0  0  0  0  0
  138.9745   67.4583  224.6999 H   0  0  0  0  0  0  0  0  0  0  0  0
  139.9376   67.2362  226.9810 H   0  0  0  0  0  0  0  0  0  0  0  0
  141.5612   70.7012  228.9484 H   0  0  0  0  0  0  0  0  0  0  0  0
  140.9914   72.0909  226.9701 H   0  0  0  0  0  0  0  0  0  0  0  0
  1  2  2  0
  2  3  1  0
  3  4  1  0
  4  5  1  0
  5  6  2  0
  5  7  1  0
  7  8  1  0
  8  9  1  0
  9 10  1  0
 10 11  2  0
 11 12  1  0
 12 13  2  0
 13 14  1  0
 14 15  2  0
  9 16  1  0
 16 17  1  0
 17 18  1  0
 18 19  2  0
 19 20  1  0
 20 21  2  0
 21 22  1  0
 22 23  2  0
  2 24  1  0
 24 25  2  0
 25 26  1  0
 26 27  2  0
 27 28  1  0
 28 29  2  0
 29 30  1  0
 29 31  1  0
 31 32  2  0
 32 33  1  0
 33 34  2  0
 17  7  1  0
 23 18  1  0
 34 24  1  0
 15 10  1  0
 33 27  1  0
  3 35  1  0
  4 36  1  0
  4 37  1  0
  8 38  1  0
  8 39  1  0
  9 40  1  6
 11 41  1  0
 12 42  1  0
 13 43  1  0
 14 44  1  0
 15 45  1  0
 16 46  1  0
 16 47  1  0
 17 48  1  1
 19 49  1  0
 20 50  1  0
 21 51  1  0
 22 52  1  0
 23 53  1  0
 25 54  1  0
 26 55  1  0
 28 56  1  0
 31 57  1  0
 32 58  1  0
M  END
>  <smiles>  (33) 
O=C(NCC(=O)N1C[C@H](c2ccccc2)C[C@H]1c1ccccc1)c1ccc2cc(F)ccc2n1

>  <score_type>  (33) 
oracle

>  <origin>  (33) 
autodockgpu

>  <m_score__min__energy>  (33) 
-9.7100000000000009

>  <m_primary>  (33) 
energy

>  <rmsd>  (33) 
1.8357133728197108

>  <m_score__min__rmsd>  (33) 
1.8357133728197108

>  <meeko>  (33) 
{"free_energy": -8.4, "intermolecular_energy": -10.19, "internal_energy": -2.09, "cluster_size": 21, "cluster_id": 2, "rank_in_cluster": 21}

>  <energy>  (33) 
-9.44

>  <cluster_rmsd>  (33) 
1.02

>  <cluster>  (33) 
2

$$$$

     RDKit          3D

 58 62  0  0  0  0  0  0  0  0999 V2000
  138.0590   71.2400  221.6840 O   0  0  0  0  0  0  0  0  0  0  0  0
  138.8040   71.6020  222.6580 C   0  0  0  0  0  0  0  0  0  0  0  0
  139.3570   72.9120  222.6920 N   0  0  0  0  0  0  0  0  0  0  0  0
  139.1610   73.8950  221.6980 C   0  0  0  0  0  0  0  0  0  0  0  0
  139.7680   75.2050  221.8150 C   0  0  0  0  0  0  0  0  0  0  0  0
  141.0620   75.1890  221.9760 O   0  0  0  0  0  0  0  0  0  0  0  0
  139.1740   76.4880  221.7740 N   0  0  0  0  0  0  0  0  0  0  0  0
  139.3890   77.5780  220.8080 C   0  0  0  0  0  0  0  0  0  0  0  0
  139.0900   78.8240  221.6720 C   0  0  2  0  0  0  0  0  0  0  0  0
  140.2590   79.3390  222.3650 C   0  0  0  0  0  0  0  0  0  0  0  0
  140.5800   80.6910  222.1770 C   0  0  0  0  0  0  0  0  0  0  0  0
  141.6780   81.2530  222.7980 C   0  0  0  0  0  0  0  0  0  0  0  0
  142.5160   80.5210  223.6310 C   0  0  0  0  0  0  0  0  0  0  0  0
  142.1980   79.1950  223.8120 C   0  0  0  0  0  0  0  0  0  0  0  0
  141.0980   78.6370  223.1890 C   0  0  0  0  0  0  0  0  0  0  0  0
  137.9540   78.3520  222.4900 C   0  0  0  0  0  0  0  0  0  0  0  0
  138.2050   76.9190  222.7720 C   0  0  1  0  0  0  0  0  0  0  0  0
  136.9560   76.0940  222.6820 C   0  0  0  0  0  0  0  0  0  0  0  0
  136.2850   75.6480  223.7980 C   0  0  0  0  0  0  0  0  0  0  0  0
  135.1340   74.8900  223.5990 C   0  0  0  0  0  0  0  0  0  0  0  0
  134.6640   74.5870  222.3360 C   0  0  0  0  0  0  0  0  0  0  0  0
  135.3420   75.0360  221.2280 C   0  0  0  0  0  0  0  0  0  0  0  0
  136.4870   75.7890  221.4020 C   0  0  0  0  0  0  0  0  0  0  0  0
  139.0870   70.6530  223.7470 C   0  0  0  0  0  0  0  0  0  0  0  0
  138.7150   69.3480  223.6950 C   0  0  0  0  0  0  0  0  0  0  0  0
  139.0070   68.4820  224.7550 C   0  0  0  0  0  0  0  0  0  0  0  0
  139.6860   68.9850  225.8630 C   0  0  0  0  0  0  0  0  0  0  0  0
  140.0140   68.2100  226.9490 C   0  0  0  0  0  0  0  0  0  0  0  0
  140.6910   68.7540  228.0330 C   0  0  0  0  0  0  0  0  0  0  0  0
  141.0300   68.0190  229.1230 F   0  0  0  0  0  0  0  0  0  0  0  0
  141.0440   70.0940  228.0270 C   0  0  0  0  0  0  0  0  0  0  0  0
  140.7280   70.8840  226.9540 C   0  0  0  0  0  0  0  0  0  0  0  0
  140.0540   70.3080  225.8930 C   0  0  0  0  0  0  0  0  0  0  0  0
  139.7490   71.0780  224.8600 N   0  0  0  0  0  0  0  0  0  0  0  0
  139.9550   73.1210  223.5470 H   0  0  0  0  0  0  0  0  0  0  0  0
  139.5274   73.4635  220.7548 H   0  0  0  0  0  0  0  0  0  0  0  0
  138.0872   74.1170  221.7854 H   0  0  0  0  0  0  0  0  0  0  0  0
  140.4243   77.5864  220.4365 H   0  0  0  0  0  0  0  0  0  0  0  0
  138.7684   77.5022  219.9030 H   0  0  0  0  0  0  0  0  0  0  0  0
  138.8200   79.7338  221.1158 H   0  0  0  0  0  0  0  0  0  0  0  0
  139.9482   81.3128  221.5256 H   0  0  0  0  0  0  0  0  0  0  0  0
  141.8971   82.3174  222.6274 H   0  0  0  0  0  0  0  0  0  0  0  0
  143.3885   80.9785  224.1203 H   0  0  0  0  0  0  0  0  0  0  0  0
  142.8282   78.5700  224.4618 H   0  0  0  0  0  0  0  0  0  0  0  0
  140.8849   77.5722  223.3642 H   0  0  0  0  0  0  0  0  0  0  0  0
  137.9006   78.9206  223.4301 H   0  0  0  0  0  0  0  0  0  0  0  0
  136.9989   78.4922  221.9627 H   0  0  0  0  0  0  0  0  0  0  0  0
  138.5749   76.7863  223.7994 H   0  0  0  0  0  0  0  0  0  0  0  0
  136.6451   75.8820  224.8107 H   0  0  0  0  0  0  0  0  0  0  0  0
  134.5814   74.5207  224.4755 H   0  0  0  0  0  0  0  0  0  0  0  0
  133.7492   73.9877  222.2173 H   0  0  0  0  0  0  0  0  0  0  0  0
  134.9782   74.7992  220.2173 H   0  0  0  0  0  0  0  0  0  0  0  0
  137.0365   76.1531  220.5214 H   0  0  0  0  0  0  0  0  0  0  0  0
  138.1796   68.9683  222.8123 H   0  0  0  0  0  0  0  0  0  0  0  0
  138.7063   67.4247  224.7142 H   0  0  0  0  0  0  0  0  0  0  0  0
  139.7371   67.1455  226.9602 H   0  0  0  0  0  0  0  0  0  0  0  0
  141.5794   70.5242  228.8862 H   0  0  0  0  0  0  0  0  0  0  0  0
  141.0031   71.9489  226.9366 H   0  0  0  0  0  0  0  0  0  0  0  0
  1  2  2  0
  2  3  1  0
  3  4  1  0
  4  5  1  0
  5  6  2  0
  5  7  1  0
  7  8  1  0
  8  9  1  0
  9 10  1  0
 10 11  2  0
 11 12  1  0
 12 13  2  0
 13 14  1  0
 14 15  2  0
  9 16  1  0
 16 17  1  0
 17 18  1  0
 18 19  2  0
 19 20  1  0
 20 21  2  0
 21 22  1  0
 22 23  2  0
  2 24  1  0
 24 25  2  0
 25 26  1  0
 26 27  2  0
 27 28  1  0
 28 29  2  0
 29 30  1  0
 29 31  1  0
 31 32  2  0
 32 33  1  0
 33 34  2  0
 17  7  1  0
 23 18  1  0
 34 24  1  0
 15 10  1  0
 33 27  1  0
  3 35  1  0
  4 36  1  0
  4 37  1  0
  8 38  1  0
  8 39  1  0
  9 40  1  6
 11 41  1  0
 12 42  1  0
 13 43  1  0
 14 44  1  0
 15 45  1  0
 16 46  1  0
 16 47  1  0
 17 48  1  1
 19 49  1  0
 20 50  1  0
 21 51  1  0
 22 52  1  0
 23 53  1  0
 25 54  1  0
 26 55  1  0
 28 56  1  0
 31 57  1  0
 32 58  1  0
M  END
>  <smiles>  (34) 
O=C(NCC(=O)N1C[C@H](c2ccccc2)C[C@H]1c1ccccc1)c1ccc2cc(F)ccc2n1

>  <score_type>  (34) 
oracle

>  <origin>  (34) 
autodockgpu

>  <m_score__min__energy>  (34) 
-9.7100000000000009

>  <m_primary>  (34) 
energy

>  <rmsd>  (34) 
2.904705907115859

>  <m_score__min__rmsd>  (34) 
2.904705907115859

>  <meeko>  (34) 
{"free_energy": -9.16, "intermolecular_energy": -10.95, "internal_energy": -2.3, "cluster_size": 25, "cluster_id": 1, "rank_in_cluster": 13}

>  <energy>  (34) 
-9.44

>  <cluster_rmsd>  (34) 
1.0

>  <cluster>  (34) 
2

$$$$

     RDKit          3D

 58 62  0  0  0  0  0  0  0  0999 V2000
  138.2160   71.4200  221.2990 O   0  0  0  0  0  0  0  0  0  0  0  0
  138.8540   71.8520  222.3180 C   0  0  0  0  0  0  0  0  0  0  0  0
  139.3900   73.1700  222.3260 N   0  0  0  0  0  0  0  0  0  0  0  0
  139.2880   74.0870  221.2570 C   0  0  0  0  0  0  0  0  0  0  0  0
  139.9060   75.3940  221.3340 C   0  0  0  0  0  0  0  0  0  0  0  0
  141.2000   75.3920  221.1660 O   0  0  0  0  0  0  0  0  0  0  0  0
  139.3220   76.6640  221.5570 N   0  0  0  0  0  0  0  0  0  0  0  0
  139.4380   77.8900  220.7510 C   0  0  0  0  0  0  0  0  0  0  0  0
  139.2480   78.9870  221.8240 C   0  0  2  0  0  0  0  0  0  0  0  0
  140.4910   79.4000  222.4520 C   0  0  0  0  0  0  0  0  0  0  0  0
  141.3110   80.2900  221.7440 C   0  0  0  0  0  0  0  0  0  0  0  0
  142.5090   80.7260  222.2720 C   0  0  0  0  0  0  0  0  0  0  0  0
  142.9670   80.3120  223.5170 C   0  0  0  0  0  0  0  0  0  0  0  0
  142.1600   79.4380  224.2090 C   0  0  0  0  0  0  0  0  0  0  0  0
  140.9610   79.0050  223.6770 C   0  0  0  0  0  0  0  0  0  0  0  0
  138.2070   78.3850  222.6810 C   0  0  0  0  0  0  0  0  0  0  0  0
  138.4750   76.9290  222.7110 C   0  0  1  0  0  0  0  0  0  0  0  0
  137.2160   76.1160  222.6360 C   0  0  0  0  0  0  0  0  0  0  0  0
  136.5650   75.6610  223.7600 C   0  0  0  0  0  0  0  0  0  0  0  0
  135.4030   74.9160  223.5750 C   0  0  0  0  0  0  0  0  0  0  0  0
  134.9040   74.6340  222.3170 C   0  0  0  0  0  0  0  0  0  0  0  0
  135.5620   75.0930  221.2020 C   0  0  0  0  0  0  0  0  0  0  0  0
  136.7180   75.8330  221.3620 C   0  0  0  0  0  0  0  0  0  0  0  0
  139.0340   70.9770  223.4880 C   0  0  0  0  0  0  0  0  0  0  0  0
  138.4820   69.7380  223.5660 C   0  0  0  0  0  0  0  0  0  0  0  0
  138.6810   68.9410  224.6980 C   0  0  0  0  0  0  0  0  0  0  0  0
  139.4540   69.4420  225.7440 C   0  0  0  0  0  0  0  0  0  0  0  0
  139.7010   68.7320  226.8930 C   0  0  0  0  0  0  0  0  0  0  0  0
  140.4760   69.2720  227.9100 C   0  0  0  0  0  0  0  0  0  0  0  0
  140.7400   68.6000  229.0610 F   0  0  0  0  0  0  0  0  0  0  0  0
  141.0110   70.5420  227.7730 C   0  0  0  0  0  0  0  0  0  0  0  0
  140.7780   71.2680  226.6350 C   0  0  0  0  0  0  0  0  0  0  0  0
  140.0020   70.6970  225.6430 C   0  0  0  0  0  0  0  0  0  0  0  0
  139.7790   71.4050  224.5470 N   0  0  0  0  0  0  0  0  0  0  0  0
  139.8960   73.4410  223.2210 H   0  0  0  0  0  0  0  0  0  0  0  0
  139.7184   73.5890  220.3757 H   0  0  0  0  0  0  0  0  0  0  0  0
  138.2146   74.3273  221.2462 H   0  0  0  0  0  0  0  0  0  0  0  0
  140.4256   77.9636  220.2723 H   0  0  0  0  0  0  0  0  0  0  0  0
  138.7202   77.9484  219.9195 H   0  0  0  0  0  0  0  0  0  0  0  0
  138.9253   79.9691  221.4481 H   0  0  0  0  0  0  0  0  0  0  0  0
  140.9945   80.6461  220.7525 H   0  0  0  0  0  0  0  0  0  0  0  0
  143.1232   81.4261  221.6867 H   0  0  0  0  0  0  0  0  0  0  0  0
  143.9246   80.6645  223.9279 H   0  0  0  0  0  0  0  0  0  0  0  0
  142.4743   79.0790  225.2001 H   0  0  0  0  0  0  0  0  0  0  0  0
  140.3511   78.3060  224.2681 H   0  0  0  0  0  0  0  0  0  0  0  0
  138.2634   78.8025  223.6971 H   0  0  0  0  0  0  0  0  0  0  0  0
  137.2004   78.5955  222.2905 H   0  0  0  0  0  0  0  0  0  0  0  0
  138.9561   76.6442  223.6583 H   0  0  0  0  0  0  0  0  0  0  0  0
  136.9486   75.8779  224.7679 H   0  0  0  0  0  0  0  0  0  0  0  0
  134.8652   74.5400  224.4578 H   0  0  0  0  0  0  0  0  0  0  0  0
  133.9823   74.0435  222.2092 H   0  0  0  0  0  0  0  0  0  0  0  0
  135.1742   74.8746  220.1960 H   0  0  0  0  0  0  0  0  0  0  0  0
  137.2527   76.2038  220.4751 H   0  0  0  0  0  0  0  0  0  0  0  0
  137.8735   69.3585  222.7319 H   0  0  0  0  0  0  0  0  0  0  0  0
  138.2356   67.9372  224.7616 H   0  0  0  0  0  0  0  0  0  0  0  0
  139.2794   67.7226  227.0090 H   0  0  0  0  0  0  0  0  0  0  0  0
  141.6246   70.9688  228.5800 H   0  0  0  0  0  0  0  0  0  0  0  0
  141.1968   72.2779  226.5135 H   0  0  0  0  0  0  0  0  0  0  0  0
  1  2  2  0
  2  3  1  0
  3  4  1  0
  4  5  1  0
  5  6  2  0
  5  7  1  0
  7  8  1  0
  8  9  1  0
  9 10  1  0
 10 11  2  0
 11 12  1  0
 12 13  2  0
 13 14  1  0
 14 15  2  0
  9 16  1  0
 16 17  1  0
 17 18  1  0
 18 19  2  0
 19 20  1  0
 20 21  2  0
 21 22  1  0
 22 23  2  0
  2 24  1  0
 24 25  2  0
 25 26  1  0
 26 27  2  0
 27 28  1  0
 28 29  2  0
 29 30  1  0
 29 31  1  0
 31 32  2  0
 32 33  1  0
 33 34  2  0
 17  7  1  0
 23 18  1  0
 34 24  1  0
 15 10  1  0
 33 27  1  0
  3 35  1  0
  4 36  1  0
  4 37  1  0
  8 38  1  0
  8 39  1  0
  9 40  1  6
 11 41  1  0
 12 42  1  0
 13 43  1  0
 14 44  1  0
 15 45  1  0
 16 46  1  0
 16 47  1  0
 17 48  1  1
 19 49  1  0
 20 50  1  0
 21 51  1  0
 22 52  1  0
 23 53  1  0
 25 54  1  0
 26 55  1  0
 28 56  1  0
 31 57  1  0
 32 58  1  0
M  END
>  <smiles>  (35) 
O=C(NCC(=O)N1C[C@H](c2ccccc2)C[C@H]1c1ccccc1)c1ccc2cc(F)ccc2n1

>  <score_type>  (35) 
oracle

>  <origin>  (35) 
autodockgpu

>  <m_score__min__energy>  (35) 
-9.7100000000000009

>  <m_primary>  (35) 
energy

>  <rmsd>  (35) 
2.9418608258286385

>  <m_score__min__rmsd>  (35) 
2.9418608258286385

>  <meeko>  (35) 
{"free_energy": -8.68, "intermolecular_energy": -10.47, "internal_energy": -2.27, "cluster_size": 25, "cluster_id": 1, "rank_in_cluster": 24}

>  <energy>  (35) 
-9.34

>  <cluster_rmsd>  (35) 
1.04

>  <cluster>  (35) 
2

$$$$

     RDKit          3D

 58 62  0  0  0  0  0  0  0  0999 V2000
  138.6520   71.3030  221.3270 O   0  0  0  0  0  0  0  0  0  0  0  0
  139.1460   71.7220  222.4280 C   0  0  0  0  0  0  0  0  0  0  0  0
  139.5390   73.0820  222.5690 N   0  0  0  0  0  0  0  0  0  0  0  0
  139.4420   74.0580  221.5530 C   0  0  0  0  0  0  0  0  0  0  0  0
  139.9730   75.3910  221.7460 C   0  0  0  0  0  0  0  0  0  0  0  0
  141.2560   75.4340  221.9770 O   0  0  0  0  0  0  0  0  0  0  0  0
  139.3160   76.6440  221.7170 N   0  0  0  0  0  0  0  0  0  0  0  0
  139.4780   77.7510  220.7600 C   0  0  0  0  0  0  0  0  0  0  0  0
  139.1170   78.9740  221.6360 C   0  0  2  0  0  0  0  0  0  0  0  0
  140.2580   79.5390  222.3350 C   0  0  0  0  0  0  0  0  0  0  0  0
  141.4920   78.8880  222.1950 C   0  0  0  0  0  0  0  0  0  0  0  0
  142.6220   79.3620  222.8310 C   0  0  0  0  0  0  0  0  0  0  0  0
  142.6010   80.4950  223.6360 C   0  0  0  0  0  0  0  0  0  0  0  0
  141.3880   81.1310  223.7720 C   0  0  0  0  0  0  0  0  0  0  0  0
  140.2610   80.6530  223.1330 C   0  0  0  0  0  0  0  0  0  0  0  0
  138.0050   78.4380  222.4470 C   0  0  0  0  0  0  0  0  0  0  0  0
  138.3260   77.0170  222.7160 C   0  0  1  0  0  0  0  0  0  0  0  0
  137.1190   76.1320  222.6170 C   0  0  0  0  0  0  0  0  0  0  0  0
  136.4640   75.6510  223.7280 C   0  0  0  0  0  0  0  0  0  0  0  0
  135.3520   74.8380  223.5200 C   0  0  0  0  0  0  0  0  0  0  0  0
  134.9060   74.5150  222.2530 C   0  0  0  0  0  0  0  0  0  0  0  0
  135.5670   75.0000  221.1510 C   0  0  0  0  0  0  0  0  0  0  0  0
  136.6740   75.8080  221.3330 C   0  0  0  0  0  0  0  0  0  0  0  0
  139.3060   70.7880  223.5550 C   0  0  0  0  0  0  0  0  0  0  0  0
  138.8620   69.5060  223.5100 C   0  0  0  0  0  0  0  0  0  0  0  0
  139.0380   68.6530  224.6060 C   0  0  0  0  0  0  0  0  0  0  0  0
  139.6760   69.1460  225.7420 C   0  0  0  0  0  0  0  0  0  0  0  0
  139.8910   68.3820  226.8640 C   0  0  0  0  0  0  0  0  0  0  0  0
  140.5310   68.9160  227.9750 C   0  0  0  0  0  0  0  0  0  0  0  0
  140.7600   68.1920  229.1010 F   0  0  0  0  0  0  0  0  0  0  0  0
  140.9620   70.2320  227.9610 C   0  0  0  0  0  0  0  0  0  0  0  0
  140.7590   71.0110  226.8520 C   0  0  0  0  0  0  0  0  0  0  0  0
  140.1180   70.4450  225.7650 C   0  0  0  0  0  0  0  0  0  0  0  0
  139.9230   71.2050  224.6980 N   0  0  0  0  0  0  0  0  0  0  0  0
  139.9300   73.3370  223.5250 H   0  0  0  0  0  0  0  0  0  0  0  0
  139.9519   73.6430  220.6711 H   0  0  0  0  0  0  0  0  0  0  0  0
  138.3583   74.2361  221.4915 H   0  0  0  0  0  0  0  0  0  0  0  0
  140.5119   77.8135  220.3897 H   0  0  0  0  0  0  0  0  0  0  0  0
  138.8631   77.6526  219.8533 H   0  0  0  0  0  0  0  0  0  0  0  0
  138.8034   79.8752  221.0888 H   0  0  0  0  0  0  0  0  0  0  0  0
  141.5608   77.9861  221.5690 H   0  0  0  0  0  0  0  0  0  0  0  0
  143.5721   78.8243  222.6960 H   0  0  0  0  0  0  0  0  0  0  0  0
  143.5072   80.8643  224.1385 H   0  0  0  0  0  0  0  0  0  0  0  0
  141.3153   82.0324  224.3983 H   0  0  0  0  0  0  0  0  0  0  0  0
  139.3145   81.1959  223.2721 H   0  0  0  0  0  0  0  0  0  0  0  0
  137.9219   78.9942  223.3924 H   0  0  0  0  0  0  0  0  0  0  0  0
  137.0451   78.5354  221.9188 H   0  0  0  0  0  0  0  0  0  0  0  0
  138.7008   76.8930  223.7427 H   0  0  0  0  0  0  0  0  0  0  0  0
  136.8062   75.8996  224.7434 H   0  0  0  0  0  0  0  0  0  0  0  0
  134.8121   74.4407  224.3921 H   0  0  0  0  0  0  0  0  0  0  0  0
  134.0234   73.8707  222.1270 H   0  0  0  0  0  0  0  0  0  0  0  0
  135.2204   74.7490  220.1377 H   0  0  0  0  0  0  0  0  0  0  0  0
  137.2106   76.2003  220.4566 H   0  0  0  0  0  0  0  0  0  0  0  0
  138.3597   69.1343  222.6047 H   0  0  0  0  0  0  0  0  0  0  0  0
  138.6795   67.6137  224.5709 H   0  0  0  0  0  0  0  0  0  0  0  0
  139.5523   67.3356  226.8823 H   0  0  0  0  0  0  0  0  0  0  0  0
  141.4685   70.6530  228.8421 H   0  0  0  0  0  0  0  0  0  0  0  0
  141.0966   72.0576  226.8270 H   0  0  0  0  0  0  0  0  0  0  0  0
  1  2  2  0
  2  3  1  0
  3  4  1  0
  4  5  1  0
  5  6  2  0
  5  7  1  0
  7  8  1  0
  8  9  1  0
  9 10  1  0
 10 11  2  0
 11 12  1  0
 12 13  2  0
 13 14  1  0
 14 15  2  0
  9 16  1  0
 16 17  1  0
 17 18  1  0
 18 19  2  0
 19 20  1  0
 20 21  2  0
 21 22  1  0
 22 23  2  0
  2 24  1  0
 24 25  2  0
 25 26  1  0
 26 27  2  0
 27 28  1  0
 28 29  2  0
 29 30  1  0
 29 31  1  0
 31 32  2  0
 32 33  1  0
 33 34  2  0
 17  7  1  0
 23 18  1  0
 34 24  1  0
 15 10  1  0
 33 27  1  0
  3 35  1  0
  4 36  1  0
  4 37  1  0
  8 38  1  0
  8 39  1  0
  9 40  1  6
 11 41  1  0
 12 42  1  0
 13 43  1  0
 14 44  1  0
 15 45  1  0
 16 46  1  0
 16 47  1  0
 17 48  1  1
 19 49  1  0
 20 50  1  0
 21 51  1  0
 22 52  1  0
 23 53  1  0
 25 54  1  0
 26 55  1  0
 28 56  1  0
 31 57  1  0
 32 58  1  0
M  END
>  <smiles>  (36) 
O=C(NCC(=O)N1C[C@H](c2ccccc2)C[C@H]1c1ccccc1)c1ccc2cc(F)ccc2n1

>  <score_type>  (36) 
oracle

>  <origin>  (36) 
autodockgpu

>  <m_score__min__energy>  (36) 
-9.7100000000000009

>  <m_primary>  (36) 
energy

>  <rmsd>  (36) 
2.9067861516496047

>  <m_score__min__rmsd>  (36) 
2.9067861516496047

>  <meeko>  (36) 
{"free_energy": -9.1, "intermolecular_energy": -10.89, "internal_energy": -2.33, "cluster_size": 25, "cluster_id": 1, "rank_in_cluster": 21}

>  <energy>  (36) 
-9.34

>  <cluster_rmsd>  (36) 
1.03

>  <cluster>  (36) 
2

$$$$

     RDKit          3D

 58 62  0  0  0  0  0  0  0  0999 V2000
  138.6550   71.2640  221.3850 O   0  0  0  0  0  0  0  0  0  0  0  0
  139.1350   71.6930  222.4890 C   0  0  0  0  0  0  0  0  0  0  0  0
  139.4640   73.0690  222.6440 N   0  0  0  0  0  0  0  0  0  0  0  0
  139.3150   74.0510  221.6410 C   0  0  0  0  0  0  0  0  0  0  0  0
  139.9690   75.3370  221.7540 C   0  0  0  0  0  0  0  0  0  0  0  0
  141.2520   75.2740  221.9780 O   0  0  0  0  0  0  0  0  0  0  0  0
  139.4320   76.6430  221.6530 N   0  0  0  0  0  0  0  0  0  0  0  0
  139.7500   77.7010  220.6810 C   0  0  0  0  0  0  0  0  0  0  0  0
  139.4500   78.9770  221.5010 C   0  0  2  0  0  0  0  0  0  0  0  0
  140.5950   79.4600  222.2550 C   0  0  0  0  0  0  0  0  0  0  0  0
  140.4090   80.5900  223.0620 C   0  0  0  0  0  0  0  0  0  0  0  0
  141.4490   81.1110  223.8060 C   0  0  0  0  0  0  0  0  0  0  0  0
  142.7230   80.5540  223.7950 C   0  0  0  0  0  0  0  0  0  0  0  0
  142.9010   79.4450  223.0000 C   0  0  0  0  0  0  0  0  0  0  0  0
  141.8570   78.9270  222.2590 C   0  0  0  0  0  0  0  0  0  0  0  0
  138.2480   78.5680  222.2560 C   0  0  0  0  0  0  0  0  0  0  0  0
  138.4230   77.1330  222.5800 C   0  0  1  0  0  0  0  0  0  0  0  0
  137.1480   76.3560  222.4290 C   0  0  0  0  0  0  0  0  0  0  0  0
  136.5380   76.1700  221.2090 C   0  0  0  0  0  0  0  0  0  0  0  0
  135.3580   75.4310  221.1840 C   0  0  0  0  0  0  0  0  0  0  0  0
  134.8030   74.8960  222.3300 C   0  0  0  0  0  0  0  0  0  0  0  0
  135.4190   75.0880  223.5430 C   0  0  0  0  0  0  0  0  0  0  0  0
  136.5910   75.8190  223.5920 C   0  0  0  0  0  0  0  0  0  0  0  0
  139.3460   70.7540  223.6030 C   0  0  0  0  0  0  0  0  0  0  0  0
  138.9740   69.4500  223.5400 C   0  0  0  0  0  0  0  0  0  0  0  0
  139.1960   68.5940  224.6250 C   0  0  0  0  0  0  0  0  0  0  0  0
  139.8050   69.1050  225.7680 C   0  0  0  0  0  0  0  0  0  0  0  0
  140.0610   68.3400  226.8800 C   0  0  0  0  0  0  0  0  0  0  0  0
  140.6690   68.8930  227.9990 C   0  0  0  0  0  0  0  0  0  0  0  0
  140.9370   68.1670  229.1160 F   0  0  0  0  0  0  0  0  0  0  0  0
  141.0260   70.2310  228.0040 C   0  0  0  0  0  0  0  0  0  0  0  0
  140.7800   71.0130  226.9060 C   0  0  0  0  0  0  0  0  0  0  0  0
  140.1740   70.4270  225.8090 C   0  0  0  0  0  0  0  0  0  0  0  0
  139.9370   71.1890  224.7520 N   0  0  0  0  0  0  0  0  0  0  0  0
  139.8480   73.3300  223.6020 H   0  0  0  0  0  0  0  0  0  0  0  0
  139.6740   73.5988  220.7048 H   0  0  0  0  0  0  0  0  0  0  0  0
  138.2496   74.3140  221.7164 H   0  0  0  0  0  0  0  0  0  0  0  0
  140.8055   77.6600  220.3741 H   0  0  0  0  0  0  0  0  0  0  0  0
  139.1835   77.6298  219.7408 H   0  0  0  0  0  0  0  0  0  0  0  0
  139.2519   79.8847  220.9121 H   0  0  0  0  0  0  0  0  0  0  0  0
  139.4198   81.0693  223.1035 H   0  0  0  0  0  0  0  0  0  0  0  0
  141.2631   81.9980  224.4294 H   0  0  0  0  0  0  0  0  0  0  0  0
  143.5452   80.9776  224.3904 H   0  0  0  0  0  0  0  0  0  0  0  0
  143.8892   78.9641  222.9540 H   0  0  0  0  0  0  0  0  0  0  0  0
  142.0490   78.0390  221.6389 H   0  0  0  0  0  0  0  0  0  0  0  0
  138.1605   79.1583  223.1800 H   0  0  0  0  0  0  0  0  0  0  0  0
  137.3332   78.7345  221.6682 H   0  0  0  0  0  0  0  0  0  0  0  0
  138.7243   77.0076  223.6305 H   0  0  0  0  0  0  0  0  0  0  0  0
  136.9671   76.5899  220.2873 H   0  0  0  0  0  0  0  0  0  0  0  0
  134.8519   75.2682  220.2210 H   0  0  0  0  0  0  0  0  0  0  0  0
  133.8694   74.3172  222.2717 H   0  0  0  0  0  0  0  0  0  0  0  0
  134.9857   74.6661  224.4618 H   0  0  0  0  0  0  0  0  0  0  0  0
  137.0911   75.9798  224.5584 H   0  0  0  0  0  0  0  0  0  0  0  0
  138.4942   69.0629  222.6289 H   0  0  0  0  0  0  0  0  0  0  0  0
  138.8949   67.5372  224.5755 H   0  0  0  0  0  0  0  0  0  0  0  0
  139.7808   67.2763  226.8839 H   0  0  0  0  0  0  0  0  0  0  0  0
  141.5081   70.6670  228.8914 H   0  0  0  0  0  0  0  0  0  0  0  0
  141.0568   72.0776  226.8970 H   0  0  0  0  0  0  0  0  0  0  0  0
  1  2  2  0
  2  3  1  0
  3  4  1  0
  4  5  1  0
  5  6  2  0
  5  7  1  0
  7  8  1  0
  8  9  1  0
  9 10  1  0
 10 11  2  0
 11 12  1  0
 12 13  2  0
 13 14  1  0
 14 15  2  0
  9 16  1  0
 16 17  1  0
 17 18  1  0
 18 19  2  0
 19 20  1  0
 20 21  2  0
 21 22  1  0
 22 23  2  0
  2 24  1  0
 24 25  2  0
 25 26  1  0
 26 27  2  0
 27 28  1  0
 28 29  2  0
 29 30  1  0
 29 31  1  0
 31 32  2  0
 32 33  1  0
 33 34  2  0
 17  7  1  0
 23 18  1  0
 34 24  1  0
 15 10  1  0
 33 27  1  0
  3 35  1  0
  4 36  1  0
  4 37  1  0
  8 38  1  0
  8 39  1  0
  9 40  1  6
 11 41  1  0
 12 42  1  0
 13 43  1  0
 14 44  1  0
 15 45  1  0
 16 46  1  0
 16 47  1  0
 17 48  1  1
 19 49  1  0
 20 50  1  0
 21 51  1  0
 22 52  1  0
 23 53  1  0
 25 54  1  0
 26 55  1  0
 28 56  1  0
 31 57  1  0
 32 58  1  0
M  END
>  <smiles>  (37) 
O=C(NCC(=O)N1C[C@H](c2ccccc2)C[C@H]1c1ccccc1)c1ccc2cc(F)ccc2n1

>  <score_type>  (37) 
oracle

>  <origin>  (37) 
autodockgpu

>  <m_score__min__energy>  (37) 
-9.7100000000000009

>  <m_primary>  (37) 
energy

>  <rmsd>  (37) 
2.810653545382793

>  <m_score__min__rmsd>  (37) 
2.810653545382793

>  <meeko>  (37) 
{"free_energy": -9.16, "intermolecular_energy": -10.95, "internal_energy": -2.28, "cluster_size": 25, "cluster_id": 1, "rank_in_cluster": 16}

>  <energy>  (37) 
-9.31

>  <cluster_rmsd>  (37) 
1.12

>  <cluster>  (37) 
2

$$$$

     RDKit          3D

 58 62  0  0  0  0  0  0  0  0999 V2000
  140.7490   71.6580  221.1110 O   0  0  0  0  0  0  0  0  0  0  0  0
  140.2840   72.1290  222.2040 C   0  0  0  0  0  0  0  0  0  0  0  0
  139.9590   73.5100  222.3130 N   0  0  0  0  0  0  0  0  0  0  0  0
  140.1210   74.4590  221.2800 C   0  0  0  0  0  0  0  0  0  0  0  0
  140.0990   75.8790  221.5630 C   0  0  0  0  0  0  0  0  0  0  0  0
  139.6160   76.1900  222.7330 O   0  0  0  0  0  0  0  0  0  0  0  0
  140.5250   76.9700  220.7680 N   0  0  0  0  0  0  0  0  0  0  0  0
  141.8960   77.4100  220.4600 C   0  0  0  0  0  0  0  0  0  0  0  0
  141.6930   78.9270  220.2400 C   0  0  2  0  0  0  0  0  0  0  0  0
  141.8210   79.7080  221.4590 C   0  0  0  0  0  0  0  0  0  0  0  0
  142.1220   79.0180  222.6420 C   0  0  0  0  0  0  0  0  0  0  0  0
  142.2560   79.6890  223.8410 C   0  0  0  0  0  0  0  0  0  0  0  0
  142.1000   81.0670  223.9430 C   0  0  0  0  0  0  0  0  0  0  0  0
  141.8030   81.7400  222.7810 C   0  0  0  0  0  0  0  0  0  0  0  0
  141.6710   81.0650  221.5830 C   0  0  0  0  0  0  0  0  0  0  0  0
  140.3950   78.9530  219.5350 C   0  0  0  0  0  0  0  0  0  0  0  0
  139.5790   77.8620  220.1160 C   0  0  1  0  0  0  0  0  0  0  0  0
  138.7920   77.1230  219.0730 C   0  0  0  0  0  0  0  0  0  0  0  0
  139.3440   76.7280  217.8760 C   0  0  0  0  0  0  0  0  0  0  0  0
  138.5230   76.0470  216.9810 C   0  0  0  0  0  0  0  0  0  0  0  0
  137.2010   75.7670  217.2650 C   0  0  0  0  0  0  0  0  0  0  0  0
  136.6590   76.1670  218.4620 C   0  0  0  0  0  0  0  0  0  0  0  0
  137.4550   76.8450  219.3660 C   0  0  0  0  0  0  0  0  0  0  0  0
  140.0850   71.2320  223.3550 C   0  0  0  0  0  0  0  0  0  0  0  0
  139.5090   70.0080  223.2360 C   0  0  0  0  0  0  0  0  0  0  0  0
  139.3410   69.1890  224.3580 C   0  0  0  0  0  0  0  0  0  0  0  0
  139.7750   69.6540  225.5980 C   0  0  0  0  0  0  0  0  0  0  0  0
  139.6510   68.9200  226.7520 C   0  0  0  0  0  0  0  0  0  0  0  0
  140.0970   69.4240  227.9670 C   0  0  0  0  0  0  0  0  0  0  0  0
  139.9890   68.7280  229.1280 F   0  0  0  0  0  0  0  0  0  0  0  0
  140.6760   70.6810  228.0240 C   0  0  0  0  0  0  0  0  0  0  0  0
  140.8110   71.4300  226.8850 C   0  0  0  0  0  0  0  0  0  0  0  0
  140.3560   70.8940  225.6940 C   0  0  0  0  0  0  0  0  0  0  0  0
  140.4870   71.6240  224.5970 N   0  0  0  0  0  0  0  0  0  0  0  0
  139.5710   73.8030  223.2590 H   0  0  0  0  0  0  0  0  0  0  0  0
  141.0935   74.2483  220.8112 H   0  0  0  0  0  0  0  0  0  0  0  0
  139.2122   74.3180  220.6765 H   0  0  0  0  0  0  0  0  0  0  0  0
  142.5788   77.2139  221.2999 H   0  0  0  0  0  0  0  0  0  0  0  0
  142.3513   76.8904  219.6040 H   0  0  0  0  0  0  0  0  0  0  0  0
  142.4705   79.4295  219.6459 H   0  0  0  0  0  0  0  0  0  0  0  0
  142.2532   77.9262  222.6143 H   0  0  0  0  0  0  0  0  0  0  0  0
  142.4945   79.1134  224.7475 H   0  0  0  0  0  0  0  0  0  0  0  0
  142.2086   81.5918  224.9036 H   0  0  0  0  0  0  0  0  0  0  0  0
  141.6686   82.8315  222.8059 H   0  0  0  0  0  0  0  0  0  0  0  0
  141.4329   81.6473  220.6806 H   0  0  0  0  0  0  0  0  0  0  0  0
  139.8983   79.9223  219.6889 H   0  0  0  0  0  0  0  0  0  0  0  0
  140.5280   78.8167  218.4516 H   0  0  0  0  0  0  0  0  0  0  0  0
  138.8352   78.2673  220.8178 H   0  0  0  0  0  0  0  0  0  0  0  0
  140.3956   76.9424  217.6349 H   0  0  0  0  0  0  0  0  0  0  0  0
  138.9409   75.7217  216.0169 H   0  0  0  0  0  0  0  0  0  0  0  0
  136.5832   75.2247  216.5341 H   0  0  0  0  0  0  0  0  0  0  0  0
  135.6065   75.9509  218.6978 H   0  0  0  0  0  0  0  0  0  0  0  0
  137.0305   77.1694  220.3275 H   0  0  0  0  0  0  0  0  0  0  0  0
  139.1717   69.6575  222.2494 H   0  0  0  0  0  0  0  0  0  0  0  0
  138.8752   68.1970  224.2631 H   0  0  0  0  0  0  0  0  0  0  0  0
  139.1929   67.9207  226.7137 H   0  0  0  0  0  0  0  0  0  0  0  0
  141.0285   71.0791  228.9869 H   0  0  0  0  0  0  0  0  0  0  0  0
  141.2685   72.4298  226.9168 H   0  0  0  0  0  0  0  0  0  0  0  0
  1  2  2  0
  2  3  1  0
  3  4  1  0
  4  5  1  0
  5  6  2  0
  5  7  1  0
  7  8  1  0
  8  9  1  0
  9 10  1  0
 10 11  2  0
 11 12  1  0
 12 13  2  0
 13 14  1  0
 14 15  2  0
  9 16  1  0
 16 17  1  0
 17 18  1  0
 18 19  2  0
 19 20  1  0
 20 21  2  0
 21 22  1  0
 22 23  2  0
  2 24  1  0
 24 25  2  0
 25 26  1  0
 26 27  2  0
 27 28  1  0
 28 29  2  0
 29 30  1  0
 29 31  1  0
 31 32  2  0
 32 33  1  0
 33 34  2  0
 17  7  1  0
 23 18  1  0
 34 24  1  0
 15 10  1  0
 33 27  1  0
  3 35  1  0
  4 36  1  0
  4 37  1  0
  8 38  1  0
  8 39  1  0
  9 40  1  6
 11 41  1  0
 12 42  1  0
 13 43  1  0
 14 44  1  0
 15 45  1  0
 16 46  1  0
 16 47  1  0
 17 48  1  1
 19 49  1  0
 20 50  1  0
 21 51  1  0
 22 52  1  0
 23 53  1  0
 25 54  1  0
 26 55  1  0
 28 56  1  0
 31 57  1  0
 32 58  1  0
M  END
>  <smiles>  (38) 
O=C(NCC(=O)N1C[C@H](c2ccccc2)C[C@H]1c1ccccc1)c1ccc2cc(F)ccc2n1

>  <score_type>  (38) 
oracle

>  <origin>  (38) 
autodockgpu

>  <m_score__min__energy>  (38) 
-9.7100000000000009

>  <m_primary>  (38) 
energy

>  <rmsd>  (38) 
2.4693504181124415

>  <m_score__min__rmsd>  (38) 
2.4693504181124415

>  <meeko>  (38) 
{"free_energy": -8.53, "intermolecular_energy": -10.32, "internal_energy": -2.18, "cluster_size": 25, "cluster_id": 1, "rank_in_cluster": 25}

>  <energy>  (38) 
-9.12

>  <cluster_rmsd>  (38) 
1.66

>  <cluster>  (38) 
2

$$$$

     RDKit          3D

 58 62  0  0  0  0  0  0  0  0999 V2000
  141.3600   72.1780  221.6910 O   0  0  0  0  0  0  0  0  0  0  0  0
  140.3820   72.3280  222.5000 C   0  0  0  0  0  0  0  0  0  0  0  0
  139.4840   73.4210  222.3490 N   0  0  0  0  0  0  0  0  0  0  0  0
  139.5820   74.4110  221.3460 C   0  0  0  0  0  0  0  0  0  0  0  0
  140.1730   75.7020  221.6290 C   0  0  0  0  0  0  0  0  0  0  0  0
  141.4460   75.6650  221.9090 O   0  0  0  0  0  0  0  0  0  0  0  0
  139.5820   76.9890  221.6400 N   0  0  0  0  0  0  0  0  0  0  0  0
  139.8260   78.1270  220.7390 C   0  0  0  0  0  0  0  0  0  0  0  0
  139.5060   79.3270  221.6600 C   0  0  2  0  0  0  0  0  0  0  0  0
  140.6560   79.8000  222.4110 C   0  0  0  0  0  0  0  0  0  0  0  0
  141.8210   79.0200  222.3730 C   0  0  0  0  0  0  0  0  0  0  0  0
  142.9540   79.4000  223.0640 C   0  0  0  0  0  0  0  0  0  0  0  0
  143.0050   80.5620  223.8260 C   0  0  0  0  0  0  0  0  0  0  0  0
  141.8600   81.3240  223.8610 C   0  0  0  0  0  0  0  0  0  0  0  0
  140.7290   80.9400  223.1680 C   0  0  0  0  0  0  0  0  0  0  0  0
  138.3470   78.8160  222.4200 C   0  0  0  0  0  0  0  0  0  0  0  0
  138.5880   77.3690  222.6320 C   0  0  1  0  0  0  0  0  0  0  0  0
  137.3390   76.5540  222.4640 C   0  0  0  0  0  0  0  0  0  0  0  0
  136.6740   75.9950  223.5310 C   0  0  0  0  0  0  0  0  0  0  0  0
  135.5230   75.2590  223.2610 C   0  0  0  0  0  0  0  0  0  0  0  0
  135.0490   75.0850  221.9760 C   0  0  0  0  0  0  0  0  0  0  0  0
  135.7200   75.6460  220.9170 C   0  0  0  0  0  0  0  0  0  0  0  0
  136.8650   76.3800  221.1610 C   0  0  0  0  0  0  0  0  0  0  0  0
  140.1890   71.3620  223.5940 C   0  0  0  0  0  0  0  0  0  0  0  0
  139.5560   70.1730  223.4150 C   0  0  0  0  0  0  0  0  0  0  0  0
  139.3970   69.2850  224.4850 C   0  0  0  0  0  0  0  0  0  0  0  0
  139.8980   69.6440  225.7340 C   0  0  0  0  0  0  0  0  0  0  0  0
  139.7860   68.8370  226.8400 C   0  0  0  0  0  0  0  0  0  0  0  0
  140.2990   69.2360  228.0670 C   0  0  0  0  0  0  0  0  0  0  0  0
  140.2060   68.4650  229.1820 F   0  0  0  0  0  0  0  0  0  0  0  0
  140.9340   70.4620  228.1860 C   0  0  0  0  0  0  0  0  0  0  0  0
  141.0580   71.2820  227.0960 C   0  0  0  0  0  0  0  0  0  0  0  0
  140.5340   70.8500  225.8910 C   0  0  0  0  0  0  0  0  0  0  0  0
  140.6550   71.6490  224.8420 N   0  0  0  0  0  0  0  0  0  0  0  0
  138.6990   73.4560  223.0650 H   0  0  0  0  0  0  0  0  0  0  0  0
  140.1702   73.9702  220.5276 H   0  0  0  0  0  0  0  0  0  0  0  0
  138.5293   74.6638  221.1514 H   0  0  0  0  0  0  0  0  0  0  0  0
  140.8712   78.1511  220.3968 H   0  0  0  0  0  0  0  0  0  0  0  0
  139.2307   78.1013  219.8144 H   0  0  0  0  0  0  0  0  0  0  0  0
  139.2536   80.2662  221.1461 H   0  0  0  0  0  0  0  0  0  0  0  0
  141.8320   78.0913  221.7836 H   0  0  0  0  0  0  0  0  0  0  0  0
  143.8478   78.7612  223.0099 H   0  0  0  0  0  0  0  0  0  0  0  0
  143.9132   80.8566  224.3722 H   0  0  0  0  0  0  0  0  0  0  0  0
  141.8453   82.2530  224.4498 H   0  0  0  0  0  0  0  0  0  0  0  0
  139.8389   81.5837  223.2268 H   0  0  0  0  0  0  0  0  0  0  0  0
  138.2685   79.3339  223.3872 H   0  0  0  0  0  0  0  0  0  0  0  0
  137.4070   78.9872  221.8749 H   0  0  0  0  0  0  0  0  0  0  0  0
  138.9300   77.1802  223.6603 H   0  0  0  0  0  0  0  0  0  0  0  0
  137.0385   76.1248  224.5607 H   0  0  0  0  0  0  0  0  0  0  0  0
  134.9743   74.8020  224.0977 H   0  0  0  0  0  0  0  0  0  0  0  0
  134.1354   74.4980  221.8006 H   0  0  0  0  0  0  0  0  0  0  0  0
  135.3511   75.5129  219.8893 H   0  0  0  0  0  0  0  0  0  0  0  0
  137.4099   76.8327  220.3195 H   0  0  0  0  0  0  0  0  0  0  0  0
  139.1657   69.9064  222.4217 H   0  0  0  0  0  0  0  0  0  0  0  0
  138.8859   68.3215  224.3422 H   0  0  0  0  0  0  0  0  0  0  0  0
  139.2836   67.8624  226.7525 H   0  0  0  0  0  0  0  0  0  0  0  0
  141.3396   70.7775  229.1586 H   0  0  0  0  0  0  0  0  0  0  0  0
  141.5604   72.2572  227.1766 H   0  0  0  0  0  0  0  0  0  0  0  0
  1  2  2  0
  2  3  1  0
  3  4  1  0
  4  5  1  0
  5  6  2  0
  5  7  1  0
  7  8  1  0
  8  9  1  0
  9 10  1  0
 10 11  2  0
 11 12  1  0
 12 13  2  0
 13 14  1  0
 14 15  2  0
  9 16  1  0
 16 17  1  0
 17 18  1  0
 18 19  2  0
 19 20  1  0
 20 21  2  0
 21 22  1  0
 22 23  2  0
  2 24  1  0
 24 25  2  0
 25 26  1  0
 26 27  2  0
 27 28  1  0
 28 29  2  0
 29 30  1  0
 29 31  1  0
 31 32  2  0
 32 33  1  0
 33 34  2  0
 17  7  1  0
 23 18  1  0
 34 24  1  0
 15 10  1  0
 33 27  1  0
  3 35  1  0
  4 36  1  0
  4 37  1  0
  8 38  1  0
  8 39  1  0
  9 40  1  6
 11 41  1  0
 12 42  1  0
 13 43  1  0
 14 44  1  0
 15 45  1  0
 16 46  1  0
 16 47  1  0
 17 48  1  1
 19 49  1  0
 20 50  1  0
 21 51  1  0
 22 52  1  0
 23 53  1  0
 25 54  1  0
 26 55  1  0
 28 56  1  0
 31 57  1  0
 32 58  1  0
M  END
>  <smiles>  (39) 
O=C(NCC(=O)N1C[C@H](c2ccccc2)C[C@H]1c1ccccc1)c1ccc2cc(F)ccc2n1

>  <score_type>  (39) 
oracle

>  <origin>  (39) 
autodockgpu

>  <m_score__min__energy>  (39) 
-9.7100000000000009

>  <m_primary>  (39) 
energy

>  <rmsd>  (39) 
3.028899325525736

>  <m_score__min__rmsd>  (39) 
3.028899325525736

>  <meeko>  (39) 
{"free_energy": -9.65, "intermolecular_energy": -11.44, "internal_energy": -1.89, "cluster_size": 25, "cluster_id": 1, "rank_in_cluster": 5}

>  <energy>  (39) 
-9.08

>  <cluster_rmsd>  (39) 
0.95

>  <cluster>  (39) 
2

$$$$

     RDKit          3D

 58 62  0  0  0  0  0  0  0  0999 V2000
  140.2100   71.8650  220.9990 O   0  0  0  0  0  0  0  0  0  0  0  0
  139.9830   72.3370  222.1650 C   0  0  0  0  0  0  0  0  0  0  0  0
  139.7650   73.7320  222.3470 N   0  0  0  0  0  0  0  0  0  0  0  0
  139.7870   74.6920  221.3120 C   0  0  0  0  0  0  0  0  0  0  0  0
  140.4750   75.9550  221.4820 C   0  0  0  0  0  0  0  0  0  0  0  0
  140.8340   76.2140  222.7090 O   0  0  0  0  0  0  0  0  0  0  0  0
  140.8180   76.9390  220.5240 N   0  0  0  0  0  0  0  0  0  0  0  0
  140.2920   77.1270  219.1620 C   0  0  0  0  0  0  0  0  0  0  0  0
  141.4960   77.7880  218.4530 C   0  0  2  0  0  0  0  0  0  0  0  0
  142.4130   76.8290  217.8610 C   0  0  0  0  0  0  0  0  0  0  0  0
  142.4880   75.5580  218.4460 C   0  0  0  0  0  0  0  0  0  0  0  0
  143.3390   74.5930  217.9440 C   0  0  0  0  0  0  0  0  0  0  0  0
  144.1590   74.8240  216.8460 C   0  0  0  0  0  0  0  0  0  0  0  0
  144.0830   76.0740  216.2750 C   0  0  0  0  0  0  0  0  0  0  0  0
  143.2300   77.0360  216.7800 C   0  0  0  0  0  0  0  0  0  0  0  0
  142.0130   78.6760  219.5130 C   0  0  0  0  0  0  0  0  0  0  0  0
  141.8200   77.9590  220.7950 C   0  0  1  0  0  0  0  0  0  0  0  0
  141.3580   78.8710  221.8930 C   0  0  0  0  0  0  0  0  0  0  0  0
  142.2260   79.4220  222.8080 C   0  0  0  0  0  0  0  0  0  0  0  0
  141.6900   80.2560  223.7860 C   0  0  0  0  0  0  0  0  0  0  0  0
  140.3380   80.5350  223.8510 C   0  0  0  0  0  0  0  0  0  0  0  0
  139.4800   79.9800  222.9340 C   0  0  0  0  0  0  0  0  0  0  0  0
  139.9900   79.1480  221.9550 C   0  0  0  0  0  0  0  0  0  0  0  0
  139.9490   71.4290  223.3230 C   0  0  0  0  0  0  0  0  0  0  0  0
  139.4950   70.1510  223.2360 C   0  0  0  0  0  0  0  0  0  0  0  0
  139.4820   69.3230  224.3640 C   0  0  0  0  0  0  0  0  0  0  0  0
  139.9420   69.8340  225.5750 C   0  0  0  0  0  0  0  0  0  0  0  0
  139.9650   69.0950  226.7330 C   0  0  0  0  0  0  0  0  0  0  0  0
  140.4310   69.6470  227.9200 C   0  0  0  0  0  0  0  0  0  0  0  0
  140.4670   68.9470  229.0830 F   0  0  0  0  0  0  0  0  0  0  0  0
  140.8800   70.9570  227.9450 C   0  0  0  0  0  0  0  0  0  0  0  0
  140.8670   71.7110  226.8020 C   0  0  0  0  0  0  0  0  0  0  0  0
  140.3970   71.1280  225.6390 C   0  0  0  0  0  0  0  0  0  0  0  0
  140.3840   71.8640  224.5390 N   0  0  0  0  0  0  0  0  0  0  0  0
  139.5750   74.0260  223.3510 H   0  0  0  0  0  0  0  0  0  0  0  0
  140.2441   74.2015  220.4399 H   0  0  0  0  0  0  0  0  0  0  0  0
  138.7326   74.9978  221.2425 H   0  0  0  0  0  0  0  0  0  0  0  0
  140.0303   76.1654  218.6964 H   0  0  0  0  0  0  0  0  0  0  0  0
  139.3660   77.7190  219.1174 H   0  0  0  0  0  0  0  0  0  0  0  0
  141.2572   78.3617  217.5453 H   0  0  0  0  0  0  0  0  0  0  0  0
  141.8596   75.3253  219.3183 H   0  0  0  0  0  0  0  0  0  0  0  0
  143.3688   73.6068  218.4304 H   0  0  0  0  0  0  0  0  0  0  0  0
  144.8334   74.0485  216.4538 H   0  0  0  0  0  0  0  0  0  0  0  0
  144.7110   76.3105  215.4034 H   0  0  0  0  0  0  0  0  0  0  0  0
  143.2051   78.0199  216.2888 H   0  0  0  0  0  0  0  0  0  0  0  0
  143.0813   78.8808  219.3494 H   0  0  0  0  0  0  0  0  0  0  0  0
  141.4861   79.6416  219.5145 H   0  0  0  0  0  0  0  0  0  0  0  0
  142.7703   77.5301  221.1457 H   0  0  0  0  0  0  0  0  0  0  0  0
  143.3049   79.2111  222.7682 H   0  0  0  0  0  0  0  0  0  0  0  0
  142.3636   80.7066  224.5298 H   0  0  0  0  0  0  0  0  0  0  0  0
  139.9500   81.2006  224.6361 H   0  0  0  0  0  0  0  0  0  0  0  0
  138.4020   80.1944  222.9778 H   0  0  0  0  0  0  0  0  0  0  0  0
  139.3106   78.6986  221.2158 H   0  0  0  0  0  0  0  0  0  0  0  0
  139.1349   69.7644  222.2712 H   0  0  0  0  0  0  0  0  0  0  0  0
  139.1154   68.2882  224.2954 H   0  0  0  0  0  0  0  0  0  0  0  0
  139.6102   68.0539  226.7203 H   0  0  0  0  0  0  0  0  0  0  0  0
  141.2480   71.3929  228.8855 H   0  0  0  0  0  0  0  0  0  0  0  0
  141.2209   72.7525  226.8085 H   0  0  0  0  0  0  0  0  0  0  0  0
  1  2  2  0
  2  3  1  0
  3  4  1  0
  4  5  1  0
  5  6  2  0
  5  7  1  0
  7  8  1  0
  8  9  1  0
  9 10  1  0
 10 11  2  0
 11 12  1  0
 12 13  2  0
 13 14  1  0
 14 15  2  0
  9 16  1  0
 16 17  1  0
 17 18  1  0
 18 19  2  0
 19 20  1  0
 20 21  2  0
 21 22  1  0
 22 23  2  0
  2 24  1  0
 24 25  2  0
 25 26  1  0
 26 27  2  0
 27 28  1  0
 28 29  2  0
 29 30  1  0
 29 31  1  0
 31 32  2  0
 32 33  1  0
 33 34  2  0
 17  7  1  0
 23 18  1  0
 34 24  1  0
 15 10  1  0
 33 27  1  0
  3 35  1  0
  4 36  1  0
  4 37  1  0
  8 38  1  0
  8 39  1  0
  9 40  1  6
 11 41  1  0
 12 42  1  0
 13 43  1  0
 14 44  1  0
 15 45  1  0
 16 46  1  0
 16 47  1  0
 17 48  1  1
 19 49  1  0
 20 50  1  0
 21 51  1  0
 22 52  1  0
 23 53  1  0
 25 54  1  0
 26 55  1  0
 28 56  1  0
 31 57  1  0
 32 58  1  0
M  END
>  <smiles>  (40) 
O=C(NCC(=O)N1C[C@H](c2ccccc2)C[C@H]1c1ccccc1)c1ccc2cc(F)ccc2n1

>  <score_type>  (40) 
oracle

>  <origin>  (40) 
autodockgpu

>  <m_score__min__energy>  (40) 
-9.7100000000000009

>  <m_primary>  (40) 
energy

>  <rmsd>  (40) 
1.7048526179366361

>  <m_score__min__rmsd>  (40) 
1.7048526179366361

>  <meeko>  (40) 
{"free_energy": -9.12, "intermolecular_energy": -10.91, "internal_energy": -2.01, "cluster_size": 21, "cluster_id": 2, "rank_in_cluster": 13}

>  <energy>  (40) 
-9.08

>  <cluster_rmsd>  (40) 
1.81

>  <cluster>  (40) 
2

$$$$

     RDKit          3D

 58 62  0  0  0  0  0  0  0  0999 V2000
  141.3270   72.6460  221.7400 O   0  0  0  0  0  0  0  0  0  0  0  0
  140.3050   72.6340  222.5060 C   0  0  0  0  0  0  0  0  0  0  0  0
  139.2770   73.6060  222.3490 N   0  0  0  0  0  0  0  0  0  0  0  0
  139.2860   74.6400  221.3880 C   0  0  0  0  0  0  0  0  0  0  0  0
  140.3550   75.6160  221.3530 C   0  0  0  0  0  0  0  0  0  0  0  0
  140.4470   76.3560  222.4220 O   0  0  0  0  0  0  0  0  0  0  0  0
  141.3110   75.8800  220.3430 N   0  0  0  0  0  0  0  0  0  0  0  0
  141.5280   75.1780  219.0680 C   0  0  0  0  0  0  0  0  0  0  0  0
  143.0370   75.4170  218.8330 C   0  0  2  0  0  0  0  0  0  0  0  0
  143.8820   74.3950  219.4270 C   0  0  0  0  0  0  0  0  0  0  0  0
  143.7940   73.0970  218.9040 C   0  0  0  0  0  0  0  0  0  0  0  0
  144.5610   72.0710  219.4180 C   0  0  0  0  0  0  0  0  0  0  0  0
  145.4510   72.2620  220.4680 C   0  0  0  0  0  0  0  0  0  0  0  0
  145.5340   73.5370  220.9790 C   0  0  0  0  0  0  0  0  0  0  0  0
  144.7650   74.5610  220.4620 C   0  0  0  0  0  0  0  0  0  0  0  0
  143.1940   76.8060  219.3100 C   0  0  0  0  0  0  0  0  0  0  0  0
  142.2770   76.9620  220.4630 C   0  0  1  0  0  0  0  0  0  0  0  0
  141.5800   78.2910  220.4610 C   0  0  0  0  0  0  0  0  0  0  0  0
  140.7360   78.6790  219.4460 C   0  0  0  0  0  0  0  0  0  0  0  0
  140.1410   79.9340  219.5460 C   0  0  0  0  0  0  0  0  0  0  0  0
  140.3760   80.7740  220.6170 C   0  0  0  0  0  0  0  0  0  0  0  0
  141.2210   80.3780  221.6250 C   0  0  0  0  0  0  0  0  0  0  0  0
  141.8230   79.1360  221.5460 C   0  0  0  0  0  0  0  0  0  0  0  0
  140.1940   71.6070  223.5550 C   0  0  0  0  0  0  0  0  0  0  0  0
  139.6590   70.3800  223.3220 C   0  0  0  0  0  0  0  0  0  0  0  0
  139.5750   69.4340  224.3500 C   0  0  0  0  0  0  0  0  0  0  0  0
  140.0500   69.7750  225.6140 C   0  0  0  0  0  0  0  0  0  0  0  0
  140.0070   68.9120  226.6820 C   0  0  0  0  0  0  0  0  0  0  0  0
  140.4910   69.2960  227.9260 C   0  0  0  0  0  0  0  0  0  0  0  0
  140.4640   68.4700  229.0040 F   0  0  0  0  0  0  0  0  0  0  0  0
  141.0250   70.5620  228.1010 C   0  0  0  0  0  0  0  0  0  0  0  0
  141.0780   71.4380  227.0500 C   0  0  0  0  0  0  0  0  0  0  0  0
  140.5870   71.0210  225.8260 C   0  0  0  0  0  0  0  0  0  0  0  0
  140.6400   71.8740  224.8150 N   0  0  0  0  0  0  0  0  0  0  0  0
  138.4630   73.5070  223.0280 H   0  0  0  0  0  0  0  0  0  0  0  0
  139.2763   74.1513  220.4026 H   0  0  0  0  0  0  0  0  0  0  0  0
  138.4144   75.2460  221.6764 H   0  0  0  0  0  0  0  0  0  0  0  0
  141.3008   74.1054  219.1568 H   0  0  0  0  0  0  0  0  0  0  0  0
  140.8863   75.5322  218.2478 H   0  0  0  0  0  0  0  0  0  0  0  0
  143.3769   75.3198  217.7913 H   0  0  0  0  0  0  0  0  0  0  0  0
  143.1037   72.8934  218.0721 H   0  0  0  0  0  0  0  0  0  0  0  0
  144.4643   71.0662  218.9808 H   0  0  0  0  0  0  0  0  0  0  0  0
  146.0576   71.4370  220.8698 H   0  0  0  0  0  0  0  0  0  0  0  0
  146.2229   73.7436  221.8114 H   0  0  0  0  0  0  0  0  0  0  0  0
  144.8665   75.5630  220.9044 H   0  0  0  0  0  0  0  0  0  0  0  0
  144.2330   76.9846  219.6241 H   0  0  0  0  0  0  0  0  0  0  0  0
  142.9586   77.5283  218.5145 H   0  0  0  0  0  0  0  0  0  0  0  0
  142.8360   76.9215  221.4095 H   0  0  0  0  0  0  0  0  0  0  0  0
  140.5384   78.0215  218.5865 H   0  0  0  0  0  0  0  0  0  0  0  0
  139.4624   80.2669  218.7468 H   0  0  0  0  0  0  0  0  0  0  0  0
  139.8873   81.7584  220.6626 H   0  0  0  0  0  0  0  0  0  0  0  0
  141.4157   81.0392  222.4822 H   0  0  0  0  0  0  0  0  0  0  0  0
  142.5017   78.8093  222.3476 H   0  0  0  0  0  0  0  0  0  0  0  0
  139.2889   70.1281  222.3172 H   0  0  0  0  0  0  0  0  0  0  0  0
  139.1421   68.4402  224.1632 H   0  0  0  0  0  0  0  0  0  0  0  0
  139.5843   67.9050  226.5504 H   0  0  0  0  0  0  0  0  0  0  0  0
  141.4075   70.8645  229.0870 H   0  0  0  0  0  0  0  0  0  0  0  0
  141.4997   72.4462  227.1757 H   0  0  0  0  0  0  0  0  0  0  0  0
  1  2  2  0
  2  3  1  0
  3  4  1  0
  4  5  1  0
  5  6  2  0
  5  7  1  0
  7  8  1  0
  8  9  1  0
  9 10  1  0
 10 11  2  0
 11 12  1  0
 12 13  2  0
 13 14  1  0
 14 15  2  0
  9 16  1  0
 16 17  1  0
 17 18  1  0
 18 19  2  0
 19 20  1  0
 20 21  2  0
 21 22  1  0
 22 23  2  0
  2 24  1  0
 24 25  2  0
 25 26  1  0
 26 27  2  0
 27 28  1  0
 28 29  2  0
 29 30  1  0
 29 31  1  0
 31 32  2  0
 32 33  1  0
 33 34  2  0
 17  7  1  0
 23 18  1  0
 34 24  1  0
 15 10  1  0
 33 27  1  0
  3 35  1  0
  4 36  1  0
  4 37  1  0
  8 38  1  0
  8 39  1  0
  9 40  1  6
 11 41  1  0
 12 42  1  0
 13 43  1  0
 14 44  1  0
 15 45  1  0
 16 46  1  0
 16 47  1  0
 17 48  1  1
 19 49  1  0
 20 50  1  0
 21 51  1  0
 22 52  1  0
 23 53  1  0
 25 54  1  0
 26 55  1  0
 28 56  1  0
 31 57  1  0
 32 58  1  0
M  END
>  <smiles>  (41) 
O=C(NCC(=O)N1C[C@H](c2ccccc2)C[C@H]1c1ccccc1)c1ccc2cc(F)ccc2n1

>  <score_type>  (41) 
oracle

>  <origin>  (41) 
autodockgpu

>  <m_score__min__energy>  (41) 
-9.7100000000000009

>  <m_primary>  (41) 
energy

>  <rmsd>  (41) 
1.8333410876052394

>  <m_score__min__rmsd>  (41) 
1.8333410876052394

>  <meeko>  (41) 
{"free_energy": -9.52, "intermolecular_energy": -11.31, "internal_energy": -2.1, "cluster_size": 21, "cluster_id": 2, "rank_in_cluster": 4}

>  <energy>  (41) 
-9.05

>  <cluster_rmsd>  (41) 
1.04

>  <cluster>  (41) 
2

$$$$

     RDKit          3D

 58 62  0  0  0  0  0  0  0  0999 V2000
  141.4240   72.6730  221.9130 O   0  0  0  0  0  0  0  0  0  0  0  0
  140.3450   72.6420  222.5970 C   0  0  0  0  0  0  0  0  0  0  0  0
  139.3110   73.5890  222.3520 N   0  0  0  0  0  0  0  0  0  0  0  0
  139.3710   74.6170  221.3850 C   0  0  0  0  0  0  0  0  0  0  0  0
  140.0650   75.8580  221.6600 C   0  0  0  0  0  0  0  0  0  0  0  0
  141.3250   75.7180  221.9640 O   0  0  0  0  0  0  0  0  0  0  0  0
  139.5860   77.1890  221.6410 N   0  0  0  0  0  0  0  0  0  0  0  0
  139.9190   78.2790  220.7090 C   0  0  0  0  0  0  0  0  0  0  0  0
  139.7080   79.5250  221.6000 C   0  0  2  0  0  0  0  0  0  0  0  0
  140.9000   79.9180  222.3330 C   0  0  0  0  0  0  0  0  0  0  0  0
  140.7900   81.0000  223.2180 C   0  0  0  0  0  0  0  0  0  0  0  0
  141.8780   81.4350  223.9470 C   0  0  0  0  0  0  0  0  0  0  0  0
  143.1280   80.8350  223.8470 C   0  0  0  0  0  0  0  0  0  0  0  0
  143.2320   79.7740  222.9770 C   0  0  0  0  0  0  0  0  0  0  0  0
  142.1400   79.3420  222.2500 C   0  0  0  0  0  0  0  0  0  0  0  0
  138.5160   79.1340  222.3780 C   0  0  0  0  0  0  0  0  0  0  0  0
  138.6340   77.6780  222.6270 C   0  0  1  0  0  0  0  0  0  0  0  0
  137.3190   76.9680  222.4860 C   0  0  0  0  0  0  0  0  0  0  0  0
  136.4610   77.2070  221.4370 C   0  0  0  0  0  0  0  0  0  0  0  0
  135.2670   76.4910  221.4040 C   0  0  0  0  0  0  0  0  0  0  0  0
  134.9380   75.5690  222.3790 C   0  0  0  0  0  0  0  0  0  0  0  0
  135.8000   75.3390  223.4230 C   0  0  0  0  0  0  0  0  0  0  0  0
  136.9910   76.0390  223.4760 C   0  0  0  0  0  0  0  0  0  0  0  0
  140.1750   71.6200  223.6420 C   0  0  0  0  0  0  0  0  0  0  0  0
  139.5640   70.4300  223.4080 C   0  0  0  0  0  0  0  0  0  0  0  0
  139.4270   69.4870  224.4340 C   0  0  0  0  0  0  0  0  0  0  0  0
  139.9280   69.7940  225.6970 C   0  0  0  0  0  0  0  0  0  0  0  0
  139.8370   68.9310  226.7620 C   0  0  0  0  0  0  0  0  0  0  0  0
  140.3490   69.2790  228.0050 C   0  0  0  0  0  0  0  0  0  0  0  0
  140.2770   68.4530  229.0800 F   0  0  0  0  0  0  0  0  0  0  0  0
  140.9620   70.5090  228.1820 C   0  0  0  0  0  0  0  0  0  0  0  0
  141.0640   71.3840  227.1330 C   0  0  0  0  0  0  0  0  0  0  0  0
  140.5430   71.0030  225.9100 C   0  0  0  0  0  0  0  0  0  0  0  0
  140.6430   71.8550  224.9010 N   0  0  0  0  0  0  0  0  0  0  0  0
  138.4490   73.4760  222.9660 H   0  0  0  0  0  0  0  0  0  0  0  0
  139.8486   74.1819  220.4947 H   0  0  0  0  0  0  0  0  0  0  0  0
  138.3218   74.9379  221.3066 H   0  0  0  0  0  0  0  0  0  0  0  0
  140.9600   78.2058  220.3612 H   0  0  0  0  0  0  0  0  0  0  0  0
  139.3172   78.2801  219.7882 H   0  0  0  0  0  0  0  0  0  0  0  0
  139.5322   80.4689  221.0632 H   0  0  0  0  0  0  0  0  0  0  0  0
  139.8220   81.5097  223.3329 H   0  0  0  0  0  0  0  0  0  0  0  0
  141.7517   82.2867  224.6315 H   0  0  0  0  0  0  0  0  0  0  0  0
  143.9889   81.1898  224.4327 H   0  0  0  0  0  0  0  0  0  0  0  0
  144.1987   79.2626  222.8588 H   0  0  0  0  0  0  0  0  0  0  0  0
  142.2733   78.4896  221.5677 H   0  0  0  0  0  0  0  0  0  0  0  0
  138.4885   79.6815  223.3317 H   0  0  0  0  0  0  0  0  0  0  0  0
  137.5904   79.3702  221.8326 H   0  0  0  0  0  0  0  0  0  0  0  0
  138.9650   77.4875  223.6586 H   0  0  0  0  0  0  0  0  0  0  0  0
  136.7093   77.9373  220.6528 H   0  0  0  0  0  0  0  0  0  0  0  0
  134.5640   76.6649  220.5760 H   0  0  0  0  0  0  0  0  0  0  0  0
  133.9868   75.0199  222.3191 H   0  0  0  0  0  0  0  0  0  0  0  0
  135.5466   74.6086  224.2055 H   0  0  0  0  0  0  0  0  0  0  0  0
  137.6887   75.8622  224.3079 H   0  0  0  0  0  0  0  0  0  0  0  0
  139.1736   70.2051  222.4045 H   0  0  0  0  0  0  0  0  0  0  0  0
  138.9332   68.5222  224.2462 H   0  0  0  0  0  0  0  0  0  0  0  0
  139.3527   67.9524  226.6285 H   0  0  0  0  0  0  0  0  0  0  0  0
  141.3676   70.7834  229.1670 H   0  0  0  0  0  0  0  0  0  0  0  0
  141.5475   72.3638  227.2601 H   0  0  0  0  0  0  0  0  0  0  0  0
  1  2  2  0
  2  3  1  0
  3  4  1  0
  4  5  1  0
  5  6  2  0
  5  7  1  0
  7  8  1  0
  8  9  1  0
  9 10  1  0
 10 11  2  0
 11 12  1  0
 12 13  2  0
 13 14  1  0
 14 15  2  0
  9 16  1  0
 16 17  1  0
 17 18  1  0
 18 19  2  0
 19 20  1  0
 20 21  2  0
 21 22  1  0
 22 23  2  0
  2 24  1  0
 24 25  2  0
 25 26  1  0
 26 27  2  0
 27 28  1  0
 28 29  2  0
 29 30  1  0
 29 31  1  0
 31 32  2  0
 32 33  1  0
 33 34  2  0
 17  7  1  0
 23 18  1  0
 34 24  1  0
 15 10  1  0
 33 27  1  0
  3 35  1  0
  4 36  1  0
  4 37  1  0
  8 38  1  0
  8 39  1  0
  9 40  1  6
 11 41  1  0
 12 42  1  0
 13 43  1  0
 14 44  1  0
 15 45  1  0
 16 46  1  0
 16 47  1  0
 17 48  1  1
 19 49  1  0
 20 50  1  0
 21 51  1  0
 22 52  1  0
 23 53  1  0
 25 54  1  0
 26 55  1  0
 28 56  1  0
 31 57  1  0
 32 58  1  0
M  END
>  <smiles>  (42) 
O=C(NCC(=O)N1C[C@H](c2ccccc2)C[C@H]1c1ccccc1)c1ccc2cc(F)ccc2n1

>  <score_type>  (42) 
oracle

>  <origin>  (42) 
autodockgpu

>  <m_score__min__energy>  (42) 
-9.7100000000000009

>  <m_primary>  (42) 
energy

>  <rmsd>  (42) 
3.0725247491848657

>  <m_score__min__rmsd>  (42) 
3.0725247491848657

>  <meeko>  (42) 
{"free_energy": -9.71, "intermolecular_energy": -11.49, "internal_energy": -1.88, "cluster_size": 25, "cluster_id": 1, "rank_in_cluster": 1}

>  <energy>  (42) 
-9.0

>  <cluster_rmsd>  (42) 
0.75

>  <cluster>  (42) 
2

$$$$

     RDKit          3D

 58 62  0  0  0  0  0  0  0  0999 V2000
  138.9290   71.3070  221.2700 O   0  0  0  0  0  0  0  0  0  0  0  0
  139.3220   71.7460  222.4040 C   0  0  0  0  0  0  0  0  0  0  0  0
  139.6310   73.1240  222.5740 N   0  0  0  0  0  0  0  0  0  0  0  0
  139.5500   74.0990  221.5560 C   0  0  0  0  0  0  0  0  0  0  0  0
  140.0850   75.4300  221.7550 C   0  0  0  0  0  0  0  0  0  0  0  0
  141.3690   75.4700  221.9800 O   0  0  0  0  0  0  0  0  0  0  0  0
  139.4300   76.6850  221.7350 N   0  0  0  0  0  0  0  0  0  0  0  0
  139.5940   77.7990  220.7880 C   0  0  0  0  0  0  0  0  0  0  0  0
  139.2340   79.0150  221.6730 C   0  0  2  0  0  0  0  0  0  0  0  0
  140.3770   79.5730  222.3770 C   0  0  0  0  0  0  0  0  0  0  0  0
  141.6130   78.9310  222.2180 C   0  0  0  0  0  0  0  0  0  0  0  0
  142.7440   79.3990  222.8570 C   0  0  0  0  0  0  0  0  0  0  0  0
  142.7220   80.5160  223.6840 C   0  0  0  0  0  0  0  0  0  0  0  0
  141.5070   81.1420  223.8380 C   0  0  0  0  0  0  0  0  0  0  0  0
  140.3780   80.6710  223.1970 C   0  0  0  0  0  0  0  0  0  0  0  0
  138.1220   78.4750  222.4800 C   0  0  0  0  0  0  0  0  0  0  0  0
  138.4410   77.0510  222.7380 C   0  0  1  0  0  0  0  0  0  0  0  0
  137.2320   76.1690  222.6310 C   0  0  0  0  0  0  0  0  0  0  0  0
  136.5510   75.7140  223.7370 C   0  0  0  0  0  0  0  0  0  0  0  0
  135.4410   74.9010  223.5230 C   0  0  0  0  0  0  0  0  0  0  0  0
  135.0210   74.5530  222.2540 C   0  0  0  0  0  0  0  0  0  0  0  0
  135.7070   75.0120  221.1560 C   0  0  0  0  0  0  0  0  0  0  0  0
  136.8130   75.8200  221.3450 C   0  0  0  0  0  0  0  0  0  0  0  0
  139.4550   70.8150  223.5370 C   0  0  0  0  0  0  0  0  0  0  0  0
  139.0020   69.5360  223.4890 C   0  0  0  0  0  0  0  0  0  0  0  0
  139.1510   68.6870  224.5920 C   0  0  0  0  0  0  0  0  0  0  0  0
  139.7730   69.1790  225.7370 C   0  0  0  0  0  0  0  0  0  0  0  0
  139.9610   68.4190  226.8650 C   0  0  0  0  0  0  0  0  0  0  0  0
  140.5850   68.9520  227.9860 C   0  0  0  0  0  0  0  0  0  0  0  0
  140.7880   68.2310  229.1190 F   0  0  0  0  0  0  0  0  0  0  0  0
  141.0260   70.2650  227.9740 C   0  0  0  0  0  0  0  0  0  0  0  0
  140.8490   71.0410  226.8590 C   0  0  0  0  0  0  0  0  0  0  0  0
  140.2240   70.4760  225.7630 C   0  0  0  0  0  0  0  0  0  0  0  0
  140.0540   71.2320  224.6890 N   0  0  0  0  0  0  0  0  0  0  0  0
  139.9400   73.3940  223.5560 H   0  0  0  0  0  0  0  0  0  0  0  0
  140.0684   73.6810  220.6804 H   0  0  0  0  0  0  0  0  0  0  0  0
  138.4679   74.2815  221.4808 H   0  0  0  0  0  0  0  0  0  0  0  0
  140.6283   77.8632  220.4191 H   0  0  0  0  0  0  0  0  0  0  0  0
  138.9795   77.7087  219.8801 H   0  0  0  0  0  0  0  0  0  0  0  0
  138.9208   79.9204  221.1325 H   0  0  0  0  0  0  0  0  0  0  0  0
  141.6829   78.0414  221.5748 H   0  0  0  0  0  0  0  0  0  0  0  0
  143.6961   78.8691  222.7063 H   0  0  0  0  0  0  0  0  0  0  0  0
  143.6289   80.8803  224.1889 H   0  0  0  0  0  0  0  0  0  0  0  0
  141.4334   82.0312  224.4814 H   0  0  0  0  0  0  0  0  0  0  0  0
  139.4293   81.2055  223.3529 H   0  0  0  0  0  0  0  0  0  0  0  0
  138.0403   79.0241  223.4297 H   0  0  0  0  0  0  0  0  0  0  0  0
  137.1619   78.5780  221.9531 H   0  0  0  0  0  0  0  0  0  0  0  0
  138.8157   76.9176  223.7636 H   0  0  0  0  0  0  0  0  0  0  0  0
  136.8722   75.9831  224.7541 H   0  0  0  0  0  0  0  0  0  0  0  0
  134.8811   74.5241  224.3916 H   0  0  0  0  0  0  0  0  0  0  0  0
  134.1386   73.9094  222.1229 H   0  0  0  0  0  0  0  0  0  0  0  0
  135.3812   74.7407  220.1410 H   0  0  0  0  0  0  0  0  0  0  0  0
  137.3695   76.1924  220.4723 H   0  0  0  0  0  0  0  0  0  0  0  0
  138.5140   69.1639  222.5761 H   0  0  0  0  0  0  0  0  0  0  0  0
  138.7838   67.6508  224.5551 H   0  0  0  0  0  0  0  0  0  0  0  0
  139.6133   67.3755  226.8813 H   0  0  0  0  0  0  0  0  0  0  0  0
  141.5198   70.6858  228.8623 H   0  0  0  0  0  0  0  0  0  0  0  0
  141.1947   72.0850  226.8364 H   0  0  0  0  0  0  0  0  0  0  0  0
  1  2  2  0
  2  3  1  0
  3  4  1  0
  4  5  1  0
  5  6  2  0
  5  7  1  0
  7  8  1  0
  8  9  1  0
  9 10  1  0
 10 11  2  0
 11 12  1  0
 12 13  2  0
 13 14  1  0
 14 15  2  0
  9 16  1  0
 16 17  1  0
 17 18  1  0
 18 19  2  0
 19 20  1  0
 20 21  2  0
 21 22  1  0
 22 23  2  0
  2 24  1  0
 24 25  2  0
 25 26  1  0
 26 27  2  0
 27 28  1  0
 28 29  2  0
 29 30  1  0
 29 31  1  0
 31 32  2  0
 32 33  1  0
 33 34  2  0
 17  7  1  0
 23 18  1  0
 34 24  1  0
 15 10  1  0
 33 27  1  0
  3 35  1  0
  4 36  1  0
  4 37  1  0
  8 38  1  0
  8 39  1  0
  9 40  1  6
 11 41  1  0
 12 42  1  0
 13 43  1  0
 14 44  1  0
 15 45  1  0
 16 46  1  0
 16 47  1  0
 17 48  1  1
 19 49  1  0
 20 50  1  0
 21 51  1  0
 22 52  1  0
 23 53  1  0
 25 54  1  0
 26 55  1  0
 28 56  1  0
 31 57  1  0
 32 58  1  0
M  END
>  <smiles>  (43) 
O=C(NCC(=O)N1C[C@H](c2ccccc2)C[C@H]1c1ccccc1)c1ccc2cc(F)ccc2n1

>  <score_type>  (43) 
oracle

>  <origin>  (43) 
autodockgpu

>  <m_score__min__energy>  (43) 
-9.7100000000000009

>  <m_primary>  (43) 
energy

>  <rmsd>  (43) 
2.9153813468619028

>  <m_score__min__rmsd>  (43) 
2.9153813468619028

>  <meeko>  (43) 
{"free_energy": -9.16, "intermolecular_energy": -10.95, "internal_energy": -2.28, "cluster_size": 25, "cluster_id": 1, "rank_in_cluster": 17}

>  <energy>  (43) 
-8.92

>  <cluster_rmsd>  (43) 
1.87

>  <cluster>  (43) 
2

$$$$

     RDKit          3D

 58 62  0  0  0  0  0  0  0  0999 V2000
  140.0090   71.9610  220.9350 O   0  0  0  0  0  0  0  0  0  0  0  0
  139.8570   72.4090  222.1210 C   0  0  0  0  0  0  0  0  0  0  0  0
  139.6630   73.8010  222.3460 N   0  0  0  0  0  0  0  0  0  0  0  0
  139.6340   74.7840  221.3330 C   0  0  0  0  0  0  0  0  0  0  0  0
  140.8470   75.4490  220.9040 C   0  0  0  0  0  0  0  0  0  0  0  0
  141.9480   74.8900  221.3240 O   0  0  0  0  0  0  0  0  0  0  0  0
  141.0150   76.6020  220.1000 N   0  0  0  0  0  0  0  0  0  0  0  0
  140.4220   76.9100  218.7890 C   0  0  0  0  0  0  0  0  0  0  0  0
  141.4960   77.8340  218.1710 C   0  0  2  0  0  0  0  0  0  0  0  0
  142.5180   77.1140  217.4300 C   0  0  0  0  0  0  0  0  0  0  0  0
  142.9930   75.9140  217.9790 C   0  0  0  0  0  0  0  0  0  0  0  0
  143.9660   75.1750  217.3370 C   0  0  0  0  0  0  0  0  0  0  0  0
  144.5230   75.5720  216.1270 C   0  0  0  0  0  0  0  0  0  0  0  0
  144.0550   76.7500  215.5920 C   0  0  0  0  0  0  0  0  0  0  0  0
  143.0810   77.4860  216.2380 C   0  0  0  0  0  0  0  0  0  0  0  0
  141.9200   78.6220  219.3450 C   0  0  0  0  0  0  0  0  0  0  0  0
  141.8730   77.7050  220.5080 C   0  0  1  0  0  0  0  0  0  0  0  0
  141.3260   78.3700  221.7360 C   0  0  0  0  0  0  0  0  0  0  0  0
  142.1330   79.0130  222.6470 C   0  0  0  0  0  0  0  0  0  0  0  0
  141.5190   79.5980  223.7520 C   0  0  0  0  0  0  0  0  0  0  0  0
  140.1520   79.5480  223.9440 C   0  0  0  0  0  0  0  0  0  0  0  0
  139.3560   78.9030  223.0290 C   0  0  0  0  0  0  0  0  0  0  0  0
  139.9430   78.3140  221.9260 C   0  0  0  0  0  0  0  0  0  0  0  0
  139.8820   71.4760  223.2600 C   0  0  0  0  0  0  0  0  0  0  0  0
  139.4620   70.1880  223.1580 C   0  0  0  0  0  0  0  0  0  0  0  0
  139.5050   69.3360  224.2670 C   0  0  0  0  0  0  0  0  0  0  0  0
  139.9860   69.8340  225.4760 C   0  0  0  0  0  0  0  0  0  0  0  0
  140.0640   69.0720  226.6160 C   0  0  0  0  0  0  0  0  0  0  0  0
  140.5480   69.6120  227.8010 C   0  0  0  0  0  0  0  0  0  0  0  0
  140.6380   68.8890  228.9470 F   0  0  0  0  0  0  0  0  0  0  0  0
  140.9610   70.9330  227.8420 C   0  0  0  0  0  0  0  0  0  0  0  0
  140.8940   71.7110  226.7160 C   0  0  0  0  0  0  0  0  0  0  0  0
  140.4060   71.1390  225.5560 C   0  0  0  0  0  0  0  0  0  0  0  0
  140.3410   71.8980  224.4720 N   0  0  0  0  0  0  0  0  0  0  0  0
  139.5370   74.0750  223.3660 H   0  0  0  0  0  0  0  0  0  0  0  0
  139.2098   74.3009  220.4404 H   0  0  0  0  0  0  0  0  0  0  0  0
  139.0645   75.5992  221.8032 H   0  0  0  0  0  0  0  0  0  0  0  0
  140.2819   75.9994  218.1880 H   0  0  0  0  0  0  0  0  0  0  0  0
  139.4212   77.3630  218.8460 H   0  0  0  0  0  0  0  0  0  0  0  0
  141.1473   78.4938  217.3628 H   0  0  0  0  0  0  0  0  0  0  0  0
  142.5840   75.5565  218.9355 H   0  0  0  0  0  0  0  0  0  0  0  0
  144.3128   74.2390  217.7992 H   0  0  0  0  0  0  0  0  0  0  0  0
  145.2978   74.9753  215.6233 H   0  0  0  0  0  0  0  0  0  0  0  0
  144.4624   77.1108  214.6360 H   0  0  0  0  0  0  0  0  0  0  0  0
  142.7391   78.4210  215.7702 H   0  0  0  0  0  0  0  0  0  0  0  0
  142.9431   78.9992  219.1999 H   0  0  0  0  0  0  0  0  0  0  0  0
  141.2638   79.4915  219.4979 H   0  0  0  0  0  0  0  0  0  0  0  0
  142.8855   77.3707  220.7784 H   0  0  0  0  0  0  0  0  0  0  0  0
  143.2230   79.0630  222.5075 H   0  0  0  0  0  0  0  0  0  0  0  0
  142.1425   80.1163  224.4954 H   0  0  0  0  0  0  0  0  0  0  0  0
  139.7018   80.0237  224.8278 H   0  0  0  0  0  0  0  0  0  0  0  0
  138.2664   78.8562  223.1726 H   0  0  0  0  0  0  0  0  0  0  0  0
  139.3138   77.7945  221.1882 H   0  0  0  0  0  0  0  0  0  0  0  0
  139.0850   69.8119  222.1955 H   0  0  0  0  0  0  0  0  0  0  0  0
  139.1655   68.2928  224.1859 H   0  0  0  0  0  0  0  0  0  0  0  0
  139.7393   68.0213  226.5905 H   0  0  0  0  0  0  0  0  0  0  0  0
  141.3439   71.3590  228.7811 H   0  0  0  0  0  0  0  0  0  0  0  0
  141.2195   72.7616  226.7346 H   0  0  0  0  0  0  0  0  0  0  0  0
  1  2  2  0
  2  3  1  0
  3  4  1  0
  4  5  1  0
  5  6  2  0
  5  7  1  0
  7  8  1  0
  8  9  1  0
  9 10  1  0
 10 11  2  0
 11 12  1  0
 12 13  2  0
 13 14  1  0
 14 15  2  0
  9 16  1  0
 16 17  1  0
 17 18  1  0
 18 19  2  0
 19 20  1  0
 20 21  2  0
 21 22  1  0
 22 23  2  0
  2 24  1  0
 24 25  2  0
 25 26  1  0
 26 27  2  0
 27 28  1  0
 28 29  2  0
 29 30  1  0
 29 31  1  0
 31 32  2  0
 32 33  1  0
 33 34  2  0
 17  7  1  0
 23 18  1  0
 34 24  1  0
 15 10  1  0
 33 27  1  0
  3 35  1  0
  4 36  1  0
  4 37  1  0
  8 38  1  0
  8 39  1  0
  9 40  1  6
 11 41  1  0
 12 42  1  0
 13 43  1  0
 14 44  1  0
 15 45  1  0
 16 46  1  0
 16 47  1  0
 17 48  1  1
 19 49  1  0
 20 50  1  0
 21 51  1  0
 22 52  1  0
 23 53  1  0
 25 54  1  0
 26 55  1  0
 28 56  1  0
 31 57  1  0
 32 58  1  0
M  END
>  <smiles>  (44) 
O=C(NCC(=O)N1C[C@H](c2ccccc2)C[C@H]1c1ccccc1)c1ccc2cc(F)ccc2n1

>  <score_type>  (44) 
oracle

>  <origin>  (44) 
autodockgpu

>  <m_score__min__energy>  (44) 
-9.7100000000000009

>  <m_primary>  (44) 
energy

>  <rmsd>  (44) 
1.632467786949421

>  <m_score__min__rmsd>  (44) 
1.632467786949421

>  <meeko>  (44) 
{"free_energy": -8.92, "intermolecular_energy": -10.71, "internal_energy": -1.92, "cluster_size": 21, "cluster_id": 2, "rank_in_cluster": 18}

>  <energy>  (44) 
-8.73

>  <cluster_rmsd>  (44) 
1.7

>  <cluster>  (44) 
2

$$$$

     RDKit          3D

 58 62  0  0  0  0  0  0  0  0999 V2000
  141.0520   72.9750  222.3170 O   0  0  0  0  0  0  0  0  0  0  0  0
  139.9260   72.5950  222.7870 C   0  0  0  0  0  0  0  0  0  0  0  0
  138.7190   73.2070  222.3470 N   0  0  0  0  0  0  0  0  0  0  0  0
  138.6450   74.2540  221.4020 C   0  0  0  0  0  0  0  0  0  0  0  0
  139.4430   75.4530  221.5540 C   0  0  0  0  0  0  0  0  0  0  0  0
  139.1580   76.1630  222.6090 O   0  0  0  0  0  0  0  0  0  0  0  0
  140.4810   75.9620  220.7380 N   0  0  0  0  0  0  0  0  0  0  0  0
  140.8170   75.6190  219.3460 C   0  0  0  0  0  0  0  0  0  0  0  0
  142.3380   75.8920  219.3170 C   0  0  2  0  0  0  0  0  0  0  0  0
  143.1380   74.7380  219.6920 C   0  0  0  0  0  0  0  0  0  0  0  0
  144.4290   74.9770  220.1840 C   0  0  0  0  0  0  0  0  0  0  0  0
  145.2520   73.9320  220.5570 C   0  0  0  0  0  0  0  0  0  0  0  0
  144.8530   72.6040  220.4660 C   0  0  0  0  0  0  0  0  0  0  0  0
  143.5860   72.3740  219.9820 C   0  0  0  0  0  0  0  0  0  0  0  0
  142.7670   73.4220  219.6100 C   0  0  0  0  0  0  0  0  0  0  0  0
  142.4380   77.1040  220.1550 C   0  0  0  0  0  0  0  0  0  0  0  0
  141.4210   76.9610  221.2230 C   0  0  1  0  0  0  0  0  0  0  0  0
  140.7130   78.2520  221.5110 C   0  0  0  0  0  0  0  0  0  0  0  0
  140.7540   78.8560  222.7470 C   0  0  0  0  0  0  0  0  0  0  0  0
  140.0620   80.0540  222.9040 C   0  0  0  0  0  0  0  0  0  0  0  0
  139.3540   80.6330  221.8680 C   0  0  0  0  0  0  0  0  0  0  0  0
  139.3190   80.0220  220.6380 C   0  0  0  0  0  0  0  0  0  0  0  0
  139.9980   78.8320  220.4600 C   0  0  0  0  0  0  0  0  0  0  0  0
  139.8830   71.5170  223.7890 C   0  0  0  0  0  0  0  0  0  0  0  0
  139.3170   70.3090  223.5370 C   0  0  0  0  0  0  0  0  0  0  0  0
  139.3000   69.3130  224.5210 C   0  0  0  0  0  0  0  0  0  0  0  0
  139.8740   69.5860  225.7600 C   0  0  0  0  0  0  0  0  0  0  0  0
  139.9020   68.6710  226.7840 C   0  0  0  0  0  0  0  0  0  0  0  0
  140.4840   68.9870  228.0050 C   0  0  0  0  0  0  0  0  0  0  0  0
  140.5300   68.1080  229.0400 F   0  0  0  0  0  0  0  0  0  0  0  0
  141.0450   70.2380  228.2010 C   0  0  0  0  0  0  0  0  0  0  0  0
  141.0290   71.1660  227.1930 C   0  0  0  0  0  0  0  0  0  0  0  0
  140.4410   70.8150  225.9920 C   0  0  0  0  0  0  0  0  0  0  0  0
  140.4270   71.7170  225.0220 N   0  0  0  0  0  0  0  0  0  0  0  0
  137.8340   72.8160  222.7890 H   0  0  0  0  0  0  0  0  0  0  0  0
  138.9178   73.8178  220.4297 H   0  0  0  0  0  0  0  0  0  0  0  0
  137.6189   74.6276  221.5343 H   0  0  0  0  0  0  0  0  0  0  0  0
  140.5943   74.5642  219.1276 H   0  0  0  0  0  0  0  0  0  0  0  0
  140.2463   76.1855  218.5953 H   0  0  0  0  0  0  0  0  0  0  0  0
  142.7698   76.0690  218.3209 H   0  0  0  0  0  0  0  0  0  0  0  0
  144.7918   76.0115  220.2743 H   0  0  0  0  0  0  0  0  0  0  0  0
  146.2581   74.1590  220.9393 H   0  0  0  0  0  0  0  0  0  0  0  0
  145.5162   71.7791  220.7656 H   0  0  0  0  0  0  0  0  0  0  0  0
  143.2200   71.3408  219.8900 H   0  0  0  0  0  0  0  0  0  0  0  0
  141.7628   73.1872  219.2273 H   0  0  0  0  0  0  0  0  0  0  0  0
  143.4433   77.1801  220.5950 H   0  0  0  0  0  0  0  0  0  0  0  0
  142.2665   78.0139  219.5612 H   0  0  0  0  0  0  0  0  0  0  0  0
  141.8951   76.6640  222.1701 H   0  0  0  0  0  0  0  0  0  0  0  0
  141.3137   78.4081  223.5814 H   0  0  0  0  0  0  0  0  0  0  0  0
  140.0794   80.5551  223.8831 H   0  0  0  0  0  0  0  0  0  0  0  0
  138.8196   81.5811  222.0279 H   0  0  0  0  0  0  0  0  0  0  0  0
  138.7582   80.4739  219.8065 H   0  0  0  0  0  0  0  0  0  0  0  0
  139.9754   78.3351  219.4789 H   0  0  0  0  0  0  0  0  0  0  0  0
  138.8684   70.1112  222.5523 H   0  0  0  0  0  0  0  0  0  0  0  0
  138.8419   68.3335  224.3191 H   0  0  0  0  0  0  0  0  0  0  0  0
  139.4580   67.6756  226.6353 H   0  0  0  0  0  0  0  0  0  0  0  0
  141.5047   70.4873  229.1687 H   0  0  0  0  0  0  0  0  0  0  0  0
  141.4718   72.1628  227.3354 H   0  0  0  0  0  0  0  0  0  0  0  0
  1  2  2  0
  2  3  1  0
  3  4  1  0
  4  5  1  0
  5  6  2  0
  5  7  1  0
  7  8  1  0
  8  9  1  0
  9 10  1  0
 10 11  2  0
 11 12  1  0
 12 13  2  0
 13 14  1  0
 14 15  2  0
  9 16  1  0
 16 17  1  0
 17 18  1  0
 18 19  2  0
 19 20  1  0
 20 21  2  0
 21 22  1  0
 22 23  2  0
  2 24  1  0
 24 25  2  0
 25 26  1  0
 26 27  2  0
 27 28  1  0
 28 29  2  0
 29 30  1  0
 29 31  1  0
 31 32  2  0
 32 33  1  0
 33 34  2  0
 17  7  1  0
 23 18  1  0
 34 24  1  0
 15 10  1  0
 33 27  1  0
  3 35  1  0
  4 36  1  0
  4 37  1  0
  8 38  1  0
  8 39  1  0
  9 40  1  6
 11 41  1  0
 12 42  1  0
 13 43  1  0
 14 44  1  0
 15 45  1  0
 16 46  1  0
 16 47  1  0
 17 48  1  1
 19 49  1  0
 20 50  1  0
 21 51  1  0
 22 52  1  0
 23 53  1  0
 25 54  1  0
 26 55  1  0
 28 56  1  0
 31 57  1  0
 32 58  1  0
M  END
>  <smiles>  (45) 
O=C(NCC(=O)N1C[C@H](c2ccccc2)C[C@H]1c1ccccc1)c1ccc2cc(F)ccc2n1

>  <score_type>  (45) 
oracle

>  <origin>  (45) 
autodockgpu

>  <m_score__min__energy>  (45) 
-9.7100000000000009

>  <m_primary>  (45) 
energy

>  <rmsd>  (45) 
1.6653033140101032

>  <m_score__min__rmsd>  (45) 
1.6653033140101032

>  <meeko>  (45) 
{"free_energy": -9.34, "intermolecular_energy": -11.13, "internal_energy": -2.1, "cluster_size": 21, "cluster_id": 2, "rank_in_cluster": 10}

>  <energy>  (45) 
-8.56

>  <cluster_rmsd>  (45) 
1.25

>  <cluster>  (45) 
2

$$$$

     RDKit          3D

 58 62  0  0  0  0  0  0  0  0999 V2000
  139.4310   75.8190  220.2760 O   0  0  0  0  0  0  0  0  0  0  0  0
  139.4770   75.9200  221.5490 C   0  0  0  0  0  0  0  0  0  0  0  0
  139.2660   74.7760  222.3690 N   0  0  0  0  0  0  0  0  0  0  0  0
  138.9850   73.4790  221.8870 C   0  0  0  0  0  0  0  0  0  0  0  0
  139.6410   72.3170  222.4480 C   0  0  0  0  0  0  0  0  0  0  0  0
  140.9420   72.3320  222.3560 O   0  0  0  0  0  0  0  0  0  0  0  0
  139.0870   71.1800  223.0830 N   0  0  0  0  0  0  0  0  0  0  0  0
  138.0420   71.1140  224.1170 C   0  0  0  0  0  0  0  0  0  0  0  0
  138.4200   69.8120  224.8590 C   0  0  2  0  0  0  0  0  0  0  0  0
  139.3530   70.0220  225.9530 C   0  0  0  0  0  0  0  0  0  0  0  0
  139.4760   69.0010  226.9060 C   0  0  0  0  0  0  0  0  0  0  0  0
  140.3380   69.1280  227.9770 C   0  0  0  0  0  0  0  0  0  0  0  0
  141.1220   70.2600  228.1700 C   0  0  0  0  0  0  0  0  0  0  0  0
  140.9970   71.2600  227.2330 C   0  0  0  0  0  0  0  0  0  0  0  0
  140.1340   71.1280  226.1630 C   0  0  0  0  0  0  0  0  0  0  0  0
  138.8490   68.9480  223.7420 C   0  0  0  0  0  0  0  0  0  0  0  0
  139.5290   69.8300  222.7650 C   0  0  1  0  0  0  0  0  0  0  0  0
  139.1820   69.4830  221.3470 C   0  0  0  0  0  0  0  0  0  0  0  0
  137.8870   69.2600  220.9380 C   0  0  0  0  0  0  0  0  0  0  0  0
  137.6780   68.9450  219.5980 C   0  0  0  0  0  0  0  0  0  0  0  0
  138.7190   68.8570  218.6940 C   0  0  0  0  0  0  0  0  0  0  0  0
  140.0080   69.0810  219.1120 C   0  0  0  0  0  0  0  0  0  0  0  0
  140.2390   69.3940  220.4380 C   0  0  0  0  0  0  0  0  0  0  0  0
  139.7500   77.2280  222.1660 C   0  0  0  0  0  0  0  0  0  0  0  0
  138.7670   78.0180  222.6690 C   0  0  0  0  0  0  0  0  0  0  0  0
  139.0740   79.2550  223.2470 C   0  0  0  0  0  0  0  0  0  0  0  0
  140.4070   79.6590  223.2960 C   0  0  0  0  0  0  0  0  0  0  0  0
  140.8010   80.8560  223.8430 C   0  0  0  0  0  0  0  0  0  0  0  0
  142.1410   81.2190  223.8680 C   0  0  0  0  0  0  0  0  0  0  0  0
  142.5680   82.3940  224.4000 F   0  0  0  0  0  0  0  0  0  0  0  0
  143.0990   80.3700  223.3380 C   0  0  0  0  0  0  0  0  0  0  0  0
  142.7280   79.1720  222.7880 C   0  0  0  0  0  0  0  0  0  0  0  0
  141.3840   78.8440  222.7810 C   0  0  0  0  0  0  0  0  0  0  0  0
  141.0320   77.6850  222.2460 N   0  0  0  0  0  0  0  0  0  0  0  0
  139.3330   74.9590  223.4150 H   0  0  0  0  0  0  0  0  0  0  0  0
  137.9043   73.3230  222.0205 H   0  0  0  0  0  0  0  0  0  0  0  0
  139.3830   73.5103  220.8620 H   0  0  0  0  0  0  0  0  0  0  0  0
  138.0853   71.9850  224.7874 H   0  0  0  0  0  0  0  0  0  0  0  0
  137.0169   71.1200  223.7180 H   0  0  0  0  0  0  0  0  0  0  0  0
  137.6080   69.3382  225.4301 H   0  0  0  0  0  0  0  0  0  0  0  0
  138.8766   68.0849  226.7988 H   0  0  0  0  0  0  0  0  0  0  0  0
  140.4070   68.3046  228.7032 H   0  0  0  0  0  0  0  0  0  0  0  0
  141.8061   70.3514  229.0265 H   0  0  0  0  0  0  0  0  0  0  0  0
  141.5934   72.1783  227.3379 H   0  0  0  0  0  0  0  0  0  0  0  0
  140.0702   71.9551  225.4406 H   0  0  0  0  0  0  0  0  0  0  0  0
  139.5434   68.1755  224.1041 H   0  0  0  0  0  0  0  0  0  0  0  0
  137.9908   68.4344  223.2841 H   0  0  0  0  0  0  0  0  0  0  0  0
  140.6209   69.7192  222.8387 H   0  0  0  0  0  0  0  0  0  0  0  0
  137.0468   69.3282  221.6447 H   0  0  0  0  0  0  0  0  0  0  0  0
  136.6516   68.7604  219.2481 H   0  0  0  0  0  0  0  0  0  0  0  0
  138.5160   68.6081  217.6419 H   0  0  0  0  0  0  0  0  0  0  0  0
  140.8447   69.0122  218.4012 H   0  0  0  0  0  0  0  0  0  0  0  0
  141.2680   69.5753  220.7820 H   0  0  0  0  0  0  0  0  0  0  0  0
  137.7204   77.6829  222.6218 H   0  0  0  0  0  0  0  0  0  0  0  0
  138.2786   79.8961  223.6548 H   0  0  0  0  0  0  0  0  0  0  0  0
  140.0460   81.5349  224.2662 H   0  0  0  0  0  0  0  0  0  0  0  0
  144.1602   80.6589  223.3590 H   0  0  0  0  0  0  0  0  0  0  0  0
  143.4783   78.4889  222.3632 H   0  0  0  0  0  0  0  0  0  0  0  0
  1  2  2  0
  2  3  1  0
  3  4  1  0
  4  5  1  0
  5  6  2  0
  5  7  1  0
  7  8  1  0
  8  9  1  0
  9 10  1  0
 10 11  2  0
 11 12  1  0
 12 13  2  0
 13 14  1  0
 14 15  2  0
  9 16  1  0
 16 17  1  0
 17 18  1  0
 18 19  2  0
 19 20  1  0
 20 21  2  0
 21 22  1  0
 22 23  2  0
  2 24  1  0
 24 25  2  0
 25 26  1  0
 26 27  2  0
 27 28  1  0
 28 29  2  0
 29 30  1  0
 29 31  1  0
 31 32  2  0
 32 33  1  0
 33 34  2  0
 17  7  1  0
 23 18  1  0
 34 24  1  0
 15 10  1  0
 33 27  1  0
  3 35  1  0
  4 36  1  0
  4 37  1  0
  8 38  1  0
  8 39  1  0
  9 40  1  1
 11 41  1  0
 12 42  1  0
 13 43  1  0
 14 44  1  0
 15 45  1  0
 16 46  1  0
 16 47  1  0
 17 48  1  6
 19 49  1  0
 20 50  1  0
 21 51  1  0
 22 52  1  0
 23 53  1  0
 25 54  1  0
 26 55  1  0
 28 56  1  0
 31 57  1  0
 32 58  1  0
M  END
>  <smiles>  (46) 
O=C(NCC(=O)N1C[C@H](c2ccccc2)C[C@H]1c1ccccc1)c1ccc2cc(F)ccc2n1

>  <score_type>  (46) 
oracle

>  <origin>  (46) 
autodockgpu

>  <m_score__min__energy>  (46) 
-9.7100000000000009

>  <m_primary>  (46) 
energy

>  <rmsd>  (46) 
8.812807416996485

>  <m_score__min__rmsd>  (46) 
8.812807416996485

>  <meeko>  (46) 
{"free_energy": -8.78, "intermolecular_energy": -10.57, "internal_energy": -1.67, "cluster_size": 1, "cluster_id": 3, "rank_in_cluster": 1}

>  <energy>  (46) 
-8.4

>  <cluster_rmsd>  (46) 
1.47

>  <cluster>  (46) 
2

$$$$

     RDKit          3D

 58 62  0  0  0  0  0  0  0  0999 V2000
  141.0640   72.9630  222.2700 O   0  0  0  0  0  0  0  0  0  0  0  0
  139.9370   72.6040  222.7520 C   0  0  0  0  0  0  0  0  0  0  0  0
  138.7360   73.2370  222.3240 N   0  0  0  0  0  0  0  0  0  0  0  0
  138.6710   74.2830  221.3780 C   0  0  0  0  0  0  0  0  0  0  0  0
  139.4780   75.4760  221.5280 C   0  0  0  0  0  0  0  0  0  0  0  0
  139.2060   76.1820  222.5910 O   0  0  0  0  0  0  0  0  0  0  0  0
  140.5120   75.9830  220.7060 N   0  0  0  0  0  0  0  0  0  0  0  0
  140.8350   75.6440  219.3110 C   0  0  0  0  0  0  0  0  0  0  0  0
  142.3570   75.9100  219.2700 C   0  0  2  0  0  0  0  0  0  0  0  0
  143.1540   74.7510  219.6340 C   0  0  0  0  0  0  0  0  0  0  0  0
  144.4500   74.9810  220.1170 C   0  0  0  0  0  0  0  0  0  0  0  0
  145.2700   73.9310  220.4800 C   0  0  0  0  0  0  0  0  0  0  0  0
  144.8650   72.6050  220.3870 C   0  0  0  0  0  0  0  0  0  0  0  0
  143.5930   72.3830  219.9110 C   0  0  0  0  0  0  0  0  0  0  0  0
  142.7760   73.4360  219.5500 C   0  0  0  0  0  0  0  0  0  0  0  0
  142.4690   77.1180  220.1120 C   0  0  0  0  0  0  0  0  0  0  0  0
  141.4600   76.9760  221.1880 C   0  0  1  0  0  0  0  0  0  0  0  0
  140.7610   78.2690  221.4870 C   0  0  0  0  0  0  0  0  0  0  0  0
  139.9340   78.8870  220.5770 C   0  0  0  0  0  0  0  0  0  0  0  0
  139.3350   80.0850  220.9600 C   0  0  0  0  0  0  0  0  0  0  0  0
  139.5500   80.6490  222.2020 C   0  0  0  0  0  0  0  0  0  0  0  0
  140.3790   80.0250  223.1030 C   0  0  0  0  0  0  0  0  0  0  0  0
  140.9850   78.8360  222.7440 C   0  0  0  0  0  0  0  0  0  0  0  0
  139.8850   71.5290  223.7570 C   0  0  0  0  0  0  0  0  0  0  0  0
  139.2950   70.3300  223.5140 C   0  0  0  0  0  0  0  0  0  0  0  0
  139.2710   69.3370  224.5000 C   0  0  0  0  0  0  0  0  0  0  0  0
  139.8620   69.6020  225.7330 C   0  0  0  0  0  0  0  0  0  0  0  0
  139.8840   68.6890  226.7590 C   0  0  0  0  0  0  0  0  0  0  0  0
  140.4830   68.9980  227.9730 C   0  0  0  0  0  0  0  0  0  0  0  0
  140.5240   68.1210  229.0090 F   0  0  0  0  0  0  0  0  0  0  0  0
  141.0680   70.2390  228.1610 C   0  0  0  0  0  0  0  0  0  0  0  0
  141.0580   71.1650  227.1510 C   0  0  0  0  0  0  0  0  0  0  0  0
  140.4520   70.8220  225.9560 C   0  0  0  0  0  0  0  0  0  0  0  0
  140.4440   71.7220  224.9850 N   0  0  0  0  0  0  0  0  0  0  0  0
  137.8490   72.8630  222.7760 H   0  0  0  0  0  0  0  0  0  0  0  0
  138.9408   73.8432  220.4065 H   0  0  0  0  0  0  0  0  0  0  0  0
  137.6480   74.6651  221.5100 H   0  0  0  0  0  0  0  0  0  0  0  0
  140.6056   74.5910  219.0905 H   0  0  0  0  0  0  0  0  0  0  0  0
  140.2609   76.2162  218.5673 H   0  0  0  0  0  0  0  0  0  0  0  0
  142.7818   76.0889  218.2712 H   0  0  0  0  0  0  0  0  0  0  0  0
  144.8190   76.0132  220.2081 H   0  0  0  0  0  0  0  0  0  0  0  0
  146.2798   74.1521  220.8562 H   0  0  0  0  0  0  0  0  0  0  0  0
  145.5266   71.7760  220.6786 H   0  0  0  0  0  0  0  0  0  0  0  0
  143.2218   71.3518  219.8167 H   0  0  0  0  0  0  0  0  0  0  0  0
  141.7676   73.2073  219.1748 H   0  0  0  0  0  0  0  0  0  0  0  0
  143.4781   77.1877  220.5442 H   0  0  0  0  0  0  0  0  0  0  0  0
  142.2965   78.0308  219.5229 H   0  0  0  0  0  0  0  0  0  0  0  0
  141.9397   76.6735  222.1305 H   0  0  0  0  0  0  0  0  0  0  0  0
  139.7526   78.4510  219.5835 H   0  0  0  0  0  0  0  0  0  0  0  0
  138.6694   80.5981  220.2503 H   0  0  0  0  0  0  0  0  0  0  0  0
  139.0586   81.5960  222.4696 H   0  0  0  0  0  0  0  0  0  0  0  0
  140.5575   80.4653  224.0951 H   0  0  0  0  0  0  0  0  0  0  0  0
  141.6522   78.3296  223.4570 H   0  0  0  0  0  0  0  0  0  0  0  0
  138.8324   70.1379  222.5347 H   0  0  0  0  0  0  0  0  0  0  0  0
  138.7941   68.3652  224.3047 H   0  0  0  0  0  0  0  0  0  0  0  0
  139.4215   67.7011  226.6172 H   0  0  0  0  0  0  0  0  0  0  0  0
  141.5419   70.4820  229.1235 H   0  0  0  0  0  0  0  0  0  0  0  0
  141.5194   72.1543  227.2869 H   0  0  0  0  0  0  0  0  0  0  0  0
  1  2  2  0
  2  3  1  0
  3  4  1  0
  4  5  1  0
  5  6  2  0
  5  7  1  0
  7  8  1  0
  8  9  1  0
  9 10  1  0
 10 11  2  0
 11 12  1  0
 12 13  2  0
 13 14  1  0
 14 15  2  0
  9 16  1  0
 16 17  1  0
 17 18  1  0
 18 19  2  0
 19 20  1  0
 20 21  2  0
 21 22  1  0
 22 23  2  0
  2 24  1  0
 24 25  2  0
 25 26  1  0
 26 27  2  0
 27 28  1  0
 28 29  2  0
 29 30  1  0
 29 31  1  0
 31 32  2  0
 32 33  1  0
 33 34  2  0
 17  7  1  0
 23 18  1  0
 34 24  1  0
 15 10  1  0
 33 27  1  0
  3 35  1  0
  4 36  1  0
  4 37  1  0
  8 38  1  0
  8 39  1  0
  9 40  1  6
 11 41  1  0
 12 42  1  0
 13 43  1  0
 14 44  1  0
 15 45  1  0
 16 46  1  0
 16 47  1  0
 17 48  1  1
 19 49  1  0
 20 50  1  0
 21 51  1  0
 22 52  1  0
 23 53  1  0
 25 54  1  0
 26 55  1  0
 28 56  1  0
 31 57  1  0
 32 58  1  0
M  END
>  <smiles>  (47) 
O=C(NCC(=O)N1C[C@H](c2ccccc2)C[C@H]1c1ccccc1)c1ccc2cc(F)ccc2n1

>  <score_type>  (47) 
oracle

>  <origin>  (47) 
autodockgpu

>  <m_score__min__energy>  (47) 
-9.7100000000000009

>  <m_primary>  (47) 
energy

>  <rmsd>  (47) 
1.6599830007654421

>  <m_score__min__rmsd>  (47) 
1.6599830007654421

>  <meeko>  (47) 
{"free_energy": -9.48, "intermolecular_energy": -11.27, "internal_energy": -2.09, "cluster_size": 21, "cluster_id": 2, "rank_in_cluster": 6}

>  <energy>  (47) 
-8.78

>  <cluster_rmsd>  (47) 
0.0

>  <cluster>  (47) 
3

$$$$

     RDKit          3D

 58 62  0  0  0  0  0  0  0  0999 V2000
  140.8250   71.4360  221.7570 O   0  0  0  0  0  0  0  0  0  0  0  0
  139.9300   71.5840  222.6570 C   0  0  0  0  0  0  0  0  0  0  0  0
  138.9900   72.6490  222.5690 N   0  0  0  0  0  0  0  0  0  0  0  0
  138.9570   73.6110  221.5360 C   0  0  0  0  0  0  0  0  0  0  0  0
  139.7030   74.8470  221.6450 C   0  0  0  0  0  0  0  0  0  0  0  0
  139.4510   75.5370  222.7220 O   0  0  0  0  0  0  0  0  0  0  0  0
  140.6600   75.4110  220.7680 N   0  0  0  0  0  0  0  0  0  0  0  0
  141.0320   74.9880  219.4080 C   0  0  0  0  0  0  0  0  0  0  0  0
  142.5030   75.4570  219.3280 C   0  0  2  0  0  0  0  0  0  0  0  0
  143.4520   74.4590  219.7930 C   0  0  0  0  0  0  0  0  0  0  0  0
  144.6280   74.9180  220.4030 C   0  0  0  0  0  0  0  0  0  0  0  0
  145.5800   74.0320  220.8670 C   0  0  0  0  0  0  0  0  0  0  0  0
  145.4300   72.6550  220.7580 C   0  0  0  0  0  0  0  0  0  0  0  0
  144.2750   72.2090  220.1580 C   0  0  0  0  0  0  0  0  0  0  0  0
  143.3250   73.0980  219.6950 C   0  0  0  0  0  0  0  0  0  0  0  0
  142.4430   76.7430  220.0500 C   0  0  0  0  0  0  0  0  0  0  0  0
  141.4600   76.5670  221.1440 C   0  0  1  0  0  0  0  0  0  0  0  0
  140.5870   77.7740  221.3240 C   0  0  0  0  0  0  0  0  0  0  0  0
  140.4990   78.4490  222.5200 C   0  0  0  0  0  0  0  0  0  0  0  0
  139.6590   79.5580  222.5760 C   0  0  0  0  0  0  0  0  0  0  0  0
  138.9320   79.9830  221.4810 C   0  0  0  0  0  0  0  0  0  0  0  0
  139.0260   79.3020  220.2910 C   0  0  0  0  0  0  0  0  0  0  0  0
  139.8530   78.1980  220.2130 C   0  0  0  0  0  0  0  0  0  0  0  0
  139.8760   70.6460  223.7900 C   0  0  0  0  0  0  0  0  0  0  0  0
  139.2920   69.4230  223.6990 C   0  0  0  0  0  0  0  0  0  0  0  0
  139.2650   68.5630  224.8030 C   0  0  0  0  0  0  0  0  0  0  0  0
  139.8480   68.9860  225.9950 C   0  0  0  0  0  0  0  0  0  0  0  0
  139.8680   68.2110  227.1290 C   0  0  0  0  0  0  0  0  0  0  0  0
  140.4580   68.6740  228.2970 C   0  0  0  0  0  0  0  0  0  0  0  0
  140.4960   67.9360  229.4370 F   0  0  0  0  0  0  0  0  0  0  0  0
  141.0380   69.9320  228.3290 C   0  0  0  0  0  0  0  0  0  0  0  0
  141.0300   70.7210  227.2090 C   0  0  0  0  0  0  0  0  0  0  0  0
  140.4330   70.2260  226.0650 C   0  0  0  0  0  0  0  0  0  0  0  0
  140.4270   70.9960  224.9870 N   0  0  0  0  0  0  0  0  0  0  0  0
  138.2790   72.6830  223.3600 H   0  0  0  0  0  0  0  0  0  0  0  0
  139.3178   73.1069  220.6273 H   0  0  0  0  0  0  0  0  0  0  0  0
  137.9126   73.9555  221.5591 H   0  0  0  0  0  0  0  0  0  0  0  0
  140.9515   73.8972  219.2908 H   0  0  0  0  0  0  0  0  0  0  0  0
  140.3870   75.4013  218.6186 H   0  0  0  0  0  0  0  0  0  0  0  0
  142.9031   75.5970  218.3129 H   0  0  0  0  0  0  0  0  0  0  0  0
  144.7947   75.9997  220.5135 H   0  0  0  0  0  0  0  0  0  0  0  0
  146.4897   74.4306  221.3399 H   0  0  0  0  0  0  0  0  0  0  0  0
  146.1945   71.9580  221.1318 H   0  0  0  0  0  0  0  0  0  0  0  0
  144.1057   71.1280  220.0454 H   0  0  0  0  0  0  0  0  0  0  0  0
  142.4183   72.6922  219.2225 H   0  0  0  0  0  0  0  0  0  0  0  0
  143.4311   76.9927  220.4638 H   0  0  0  0  0  0  0  0  0  0  0  0
  142.1473   77.5623  219.3782 H   0  0  0  0  0  0  0  0  0  0  0  0
  141.9735   76.4256  222.1064 H   0  0  0  0  0  0  0  0  0  0  0  0
  141.0721   78.1238  223.4008 H   0  0  0  0  0  0  0  0  0  0  0  0
  139.5716   80.1130  223.5217 H   0  0  0  0  0  0  0  0  0  0  0  0
  138.2792   80.8647  221.5614 H   0  0  0  0  0  0  0  0  0  0  0  0
  138.4509   79.6313  219.4130 H   0  0  0  0  0  0  0  0  0  0  0  0
  139.9346   77.6461  219.2650 H   0  0  0  0  0  0  0  0  0  0  0  0
  138.8363   69.1057  222.7494 H   0  0  0  0  0  0  0  0  0  0  0  0
  138.7925   67.5723  224.7306 H   0  0  0  0  0  0  0  0  0  0  0  0
  139.4106   67.2108  227.1112 H   0  0  0  0  0  0  0  0  0  0  0  0
  141.5056   70.2977  229.2551 H   0  0  0  0  0  0  0  0  0  0  0  0
  141.4865   71.7217  227.2200 H   0  0  0  0  0  0  0  0  0  0  0  0
  1  2  2  0
  2  3  1  0
  3  4  1  0
  4  5  1  0
  5  6  2  0
  5  7  1  0
  7  8  1  0
  8  9  1  0
  9 10  1  0
 10 11  2  0
 11 12  1  0
 12 13  2  0
 13 14  1  0
 14 15  2  0
  9 16  1  0
 16 17  1  0
 17 18  1  0
 18 19  2  0
 19 20  1  0
 20 21  2  0
 21 22  1  0
 22 23  2  0
  2 24  1  0
 24 25  2  0
 25 26  1  0
 26 27  2  0
 27 28  1  0
 28 29  2  0
 29 30  1  0
 29 31  1  0
 31 32  2  0
 32 33  1  0
 33 34  2  0
 17  7  1  0
 23 18  1  0
 34 24  1  0
 15 10  1  0
 33 27  1  0
  3 35  1  0
  4 36  1  0
  4 37  1  0
  8 38  1  0
  8 39  1  0
  9 40  1  6
 11 41  1  0
 12 42  1  0
 13 43  1  0
 14 44  1  0
 15 45  1  0
 16 46  1  0
 16 47  1  0
 17 48  1  1
 19 49  1  0
 20 50  1  0
 21 51  1  0
 22 52  1  0
 23 53  1  0
 25 54  1  0
 26 55  1  0
 28 56  1  0
 31 57  1  0
 32 58  1  0
M  END
>  <smiles>  (48) 
O=C(NCC(=O)N1C[C@H](c2ccccc2)C[C@H]1c1ccccc1)c1ccc2cc(F)ccc2n1

>  <score_type>  (48) 
oracle

>  <origin>  (48) 
autodockgpu

>  <m_score__min__energy>  (48) 
-9.7100000000000009

>  <m_primary>  (48) 
energy

>  <rmsd>  (48) 
1.577835079016806

>  <m_score__min__rmsd>  (48) 
1.577835079016806

>  <meeko>  (48) 
{"free_energy": -9.31, "intermolecular_energy": -11.1, "internal_energy": -1.96, "cluster_size": 21, "cluster_id": 2, "rank_in_cluster": 12}

>  <energy>  (48) 
-8.74

>  <cluster_rmsd>  (48) 
0.0

>  <cluster>  (48) 
4

$$$$

     RDKit          3D

 58 62  0  0  0  0  0  0  0  0999 V2000
  141.0660   72.8640  222.0030 O   0  0  0  0  0  0  0  0  0  0  0  0
  139.9850   72.6130  222.6360 C   0  0  0  0  0  0  0  0  0  0  0  0
  138.7910   73.3260  222.3320 N   0  0  0  0  0  0  0  0  0  0  0  0
  138.6860   74.3420  221.3580 C   0  0  0  0  0  0  0  0  0  0  0  0
  139.4560   75.5630  221.4680 C   0  0  0  0  0  0  0  0  0  0  0  0
  139.1210   76.3250  222.4720 O   0  0  0  0  0  0  0  0  0  0  0  0
  140.5120   76.0470  220.6600 N   0  0  0  0  0  0  0  0  0  0  0  0
  140.8310   75.7200  219.2610 C   0  0  0  0  0  0  0  0  0  0  0  0
  142.3630   75.9330  219.2330 C   0  0  2  0  0  0  0  0  0  0  0  0
  143.1160   74.7400  219.5810 C   0  0  0  0  0  0  0  0  0  0  0  0
  144.3930   74.9170  220.1320 C   0  0  0  0  0  0  0  0  0  0  0  0
  145.1710   73.8330  220.4850 C   0  0  0  0  0  0  0  0  0  0  0  0
  144.7410   72.5230  220.3150 C   0  0  0  0  0  0  0  0  0  0  0  0
  143.4880   72.3530  219.7730 C   0  0  0  0  0  0  0  0  0  0  0  0
  142.7120   73.4400  219.4220 C   0  0  0  0  0  0  0  0  0  0  0  0
  142.5120   77.1210  220.0970 C   0  0  0  0  0  0  0  0  0  0  0  0
  141.4920   76.9970  221.1650 C   0  0  1  0  0  0  0  0  0  0  0  0
  140.8380   78.3090  221.4820 C   0  0  0  0  0  0  0  0  0  0  0  0
  140.0320   78.9680  220.5820 C   0  0  0  0  0  0  0  0  0  0  0  0
  139.4750   80.1800  220.9810 C   0  0  0  0  0  0  0  0  0  0  0  0
  139.7090   80.7180  222.2320 C   0  0  0  0  0  0  0  0  0  0  0  0
  140.5150   80.0540  223.1230 C   0  0  0  0  0  0  0  0  0  0  0  0
  141.0800   78.8490  222.7480 C   0  0  0  0  0  0  0  0  0  0  0  0
  139.9790   71.5790  223.6840 C   0  0  0  0  0  0  0  0  0  0  0  0
  139.5170   70.3210  223.4670 C   0  0  0  0  0  0  0  0  0  0  0  0
  139.5330   69.3700  224.4940 C   0  0  0  0  0  0  0  0  0  0  0  0
  140.0300   69.7400  225.7420 C   0  0  0  0  0  0  0  0  0  0  0  0
  140.0830   68.8750  226.8070 C   0  0  0  0  0  0  0  0  0  0  0  0
  140.5850   69.2880  228.0340 C   0  0  0  0  0  0  0  0  0  0  0  0
  140.6520   68.4610  229.1100 F   0  0  0  0  0  0  0  0  0  0  0  0
  141.0420   70.5860  228.1940 C   0  0  0  0  0  0  0  0  0  0  0  0
  141.0000   71.4650  227.1450 C   0  0  0  0  0  0  0  0  0  0  0  0
  140.4930   71.0180  225.9380 C   0  0  0  0  0  0  0  0  0  0  0  0
  140.4520   71.8730  224.9280 N   0  0  0  0  0  0  0  0  0  0  0  0
  137.9430   73.0390  222.9060 H   0  0  0  0  0  0  0  0  0  0  0  0
  138.9622   73.8836  220.3970 H   0  0  0  0  0  0  0  0  0  0  0  0
  137.6524   74.6954  221.4877 H   0  0  0  0  0  0  0  0  0  0  0  0
  140.5660   74.6796  219.0216 H   0  0  0  0  0  0  0  0  0  0  0  0
  140.2818   76.3242  218.5239 H   0  0  0  0  0  0  0  0  0  0  0  0
  142.8003   76.1146  218.2401 H   0  0  0  0  0  0  0  0  0  0  0  0
  144.7806   75.9350  220.2853 H   0  0  0  0  0  0  0  0  0  0  0  0
  146.1669   74.0127  220.9162 H   0  0  0  0  0  0  0  0  0  0  0  0
  145.3697   71.6662  220.5990 H   0  0  0  0  0  0  0  0  0  0  0  0
  143.0985   71.3362  219.6169 H   0  0  0  0  0  0  0  0  0  0  0  0
  141.7170   73.2526  218.9921 H   0  0  0  0  0  0  0  0  0  0  0  0
  143.5202   77.1472  220.5360 H   0  0  0  0  0  0  0  0  0  0  0  0
  142.3751   78.0493  219.5229 H   0  0  0  0  0  0  0  0  0  0  0  0
  141.9544   76.6615  222.1050 H   0  0  0  0  0  0  0  0  0  0  0  0
  139.8348   78.5520  219.5830 H   0  0  0  0  0  0  0  0  0  0  0  0
  138.8285   80.7263  220.2784 H   0  0  0  0  0  0  0  0  0  0  0  0
  139.2500   81.6772  222.5136 H   0  0  0  0  0  0  0  0  0  0  0  0
  140.7086   80.4745  224.1209 H   0  0  0  0  0  0  0  0  0  0  0  0
  141.7276   78.3091  223.4545 H   0  0  0  0  0  0  0  0  0  0  0  0
  139.1268   70.0467  222.4758 H   0  0  0  0  0  0  0  0  0  0  0  0
  139.1603   68.3499  224.3191 H   0  0  0  0  0  0  0  0  0  0  0  0
  139.7234   67.8424  226.6868 H   0  0  0  0  0  0  0  0  0  0  0  0
  141.4398   70.9114  229.1666 H   0  0  0  0  0  0  0  0  0  0  0  0
  141.3596   72.4983  227.2589 H   0  0  0  0  0  0  0  0  0  0  0  0
  1  2  2  0
  2  3  1  0
  3  4  1  0
  4  5  1  0
  5  6  2  0
  5  7  1  0
  7  8  1  0
  8  9  1  0
  9 10  1  0
 10 11  2  0
 11 12  1  0
 12 13  2  0
 13 14  1  0
 14 15  2  0
  9 16  1  0
 16 17  1  0
 17 18  1  0
 18 19  2  0
 19 20  1  0
 20 21  2  0
 21 22  1  0
 22 23  2  0
  2 24  1  0
 24 25  2  0
 25 26  1  0
 26 27  2  0
 27 28  1  0
 28 29  2  0
 29 30  1  0
 29 31  1  0
 31 32  2  0
 32 33  1  0
 33 34  2  0
 17  7  1  0
 23 18  1  0
 34 24  1  0
 15 10  1  0
 33 27  1  0
  3 35  1  0
  4 36  1  0
  4 37  1  0
  8 38  1  0
  8 39  1  0
  9 40  1  6
 11 41  1  0
 12 42  1  0
 13 43  1  0
 14 44  1  0
 15 45  1  0
 16 46  1  0
 16 47  1  0
 17 48  1  1
 19 49  1  0
 20 50  1  0
 21 51  1  0
 22 52  1  0
 23 53  1  0
 25 54  1  0
 26 55  1  0
 28 56  1  0
 31 57  1  0
 32 58  1  0
M  END
>  <smiles>  (49) 
O=C(NCC(=O)N1C[C@H](c2ccccc2)C[C@H]1c1ccccc1)c1ccc2cc(F)ccc2n1

>  <score_type>  (49) 
oracle

>  <origin>  (49) 
autodockgpu

>  <m_score__min__energy>  (49) 
-9.7100000000000009

>  <m_primary>  (49) 
energy

>  <rmsd>  (49) 
1.6639631886670618

>  <m_score__min__rmsd>  (49) 
1.6639631886670618

>  <meeko>  (49) 
{"free_energy": -9.44, "intermolecular_energy": -11.23, "internal_energy": -2.12, "cluster_size": 21, "cluster_id": 2, "rank_in_cluster": 9}

>  <energy>  (49) 
-8.48

>  <cluster_rmsd>  (49) 
0.0

>  <cluster>  (49) 
5

$$$$

     RDKit          3D

 58 62  0  0  0  0  0  0  0  0999 V2000
  138.1640   71.0890  221.6790 O   0  0  0  0  0  0  0  0  0  0  0  0
  138.8730   71.4840  222.6650 C   0  0  0  0  0  0  0  0  0  0  0  0
  139.3670   72.8190  222.7070 N   0  0  0  0  0  0  0  0  0  0  0  0
  139.1460   73.7910  221.7070 C   0  0  0  0  0  0  0  0  0  0  0  0
  139.7520   75.1030  221.7970 C   0  0  0  0  0  0  0  0  0  0  0  0
  141.0440   75.0920  221.9700 O   0  0  0  0  0  0  0  0  0  0  0  0
  139.1570   76.3850  221.7200 N   0  0  0  0  0  0  0  0  0  0  0  0
  139.3770   77.4480  220.7250 C   0  0  0  0  0  0  0  0  0  0  0  0
  139.0740   78.7170  221.5550 C   0  0  2  0  0  0  0  0  0  0  0  0
  140.2400   79.2500  222.2380 C   0  0  0  0  0  0  0  0  0  0  0  0
  140.0410   80.3240  223.1180 C   0  0  0  0  0  0  0  0  0  0  0  0
  141.1000   80.8870  223.8020 C   0  0  0  0  0  0  0  0  0  0  0  0
  142.4050   80.4310  223.6580 C   0  0  0  0  0  0  0  0  0  0  0  0
  142.5960   79.3790  222.7930 C   0  0  0  0  0  0  0  0  0  0  0  0
  141.5340   78.8170  222.1120 C   0  0  0  0  0  0  0  0  0  0  0  0
  137.9350   78.2670  222.3800 C   0  0  0  0  0  0  0  0  0  0  0  0
  138.1850   76.8420  222.7010 C   0  0  1  0  0  0  0  0  0  0  0  0
  136.9350   76.0150  222.6280 C   0  0  0  0  0  0  0  0  0  0  0  0
  136.3720   75.6340  221.4320 C   0  0  0  0  0  0  0  0  0  0  0  0
  135.2120   74.8650  221.4800 C   0  0  0  0  0  0  0  0  0  0  0  0
  134.6320   74.4870  222.6760 C   0  0  0  0  0  0  0  0  0  0  0  0
  135.2010   74.8730  223.8650 C   0  0  0  0  0  0  0  0  0  0  0  0
  136.3530   75.6370  223.8410 C   0  0  0  0  0  0  0  0  0  0  0  0
  139.1790   70.5510  223.7620 C   0  0  0  0  0  0  0  0  0  0  0  0
  138.8730   69.2290  223.7030 C   0  0  0  0  0  0  0  0  0  0  0  0
  139.1840   68.3790  224.7700 C   0  0  0  0  0  0  0  0  0  0  0  0
  139.8120   68.9140  225.8920 C   0  0  0  0  0  0  0  0  0  0  0  0
  140.1530   68.1560  226.9850 C   0  0  0  0  0  0  0  0  0  0  0  0
  140.7770   68.7330  228.0840 C   0  0  0  0  0  0  0  0  0  0  0  0
  141.1270   68.0150  229.1830 F   0  0  0  0  0  0  0  0  0  0  0  0
  141.0630   70.0880  228.0850 C   0  0  0  0  0  0  0  0  0  0  0  0
  140.7330   70.8630  227.0050 C   0  0  0  0  0  0  0  0  0  0  0  0
  140.1120   70.2530  225.9290 C   0  0  0  0  0  0  0  0  0  0  0  0
  139.7940   71.0080  224.8890 N   0  0  0  0  0  0  0  0  0  0  0  0
  139.9390   73.0550  223.5720 H   0  0  0  0  0  0  0  0  0  0  0  0
  139.4923   73.3505  220.7604 H   0  0  0  0  0  0  0  0  0  0  0  0
  138.0738   74.0112  221.8156 H   0  0  0  0  0  0  0  0  0  0  0  0
  140.4140   77.4462  220.3582 H   0  0  0  0  0  0  0  0  0  0  0  0
  138.7612   77.3478  219.8190 H   0  0  0  0  0  0  0  0  0  0  0  0
  138.8058   79.6119  220.9743 H   0  0  0  0  0  0  0  0  0  0  0  0
  139.0267   80.7234  223.2653 H   0  0  0  0  0  0  0  0  0  0  0  0
  140.9039   81.7264  224.4853 H   0  0  0  0  0  0  0  0  0  0  0  0
  143.2415   80.8877  224.2073 H   0  0  0  0  0  0  0  0  0  0  0  0
  143.6095   78.9793  222.6413 H   0  0  0  0  0  0  0  0  0  0  0  0
  141.7378   77.9767  221.4320 H   0  0  0  0  0  0  0  0  0  0  0  0
  137.8775   78.8604  223.3045 H   0  0  0  0  0  0  0  0  0  0  0  0
  136.9821   78.3930  221.8451 H   0  0  0  0  0  0  0  0  0  0  0  0
  138.5512   76.7363  223.7328 H   0  0  0  0  0  0  0  0  0  0  0  0
  136.8221   75.9264  220.4719 H   0  0  0  0  0  0  0  0  0  0  0  0
  134.7429   74.5486  220.5367 H   0  0  0  0  0  0  0  0  0  0  0  0
  133.7160   73.8779  222.6758 H   0  0  0  0  0  0  0  0  0  0  0  0
  134.7467   74.5785  224.8225 H   0  0  0  0  0  0  0  0  0  0  0  0
  136.8169   75.9510  224.7877 H   0  0  0  0  0  0  0  0  0  0  0  0
  138.3766   68.8233  222.8091 H   0  0  0  0  0  0  0  0  0  0  0  0
  138.9371   67.3081  224.7235 H   0  0  0  0  0  0  0  0  0  0  0  0
  139.9294   67.0790  226.9905 H   0  0  0  0  0  0  0  0  0  0  0  0
  141.5569   70.5434  228.9561 H   0  0  0  0  0  0  0  0  0  0  0  0
  140.9553   71.9402  226.9931 H   0  0  0  0  0  0  0  0  0  0  0  0
  1  2  2  0
  2  3  1  0
  3  4  1  0
  4  5  1  0
  5  6  2  0
  5  7  1  0
  7  8  1  0
  8  9  1  0
  9 10  1  0
 10 11  2  0
 11 12  1  0
 12 13  2  0
 13 14  1  0
 14 15  2  0
  9 16  1  0
 16 17  1  0
 17 18  1  0
 18 19  2  0
 19 20  1  0
 20 21  2  0
 21 22  1  0
 22 23  2  0
  2 24  1  0
 24 25  2  0
 25 26  1  0
 26 27  2  0
 27 28  1  0
 28 29  2  0
 29 30  1  0
 29 31  1  0
 31 32  2  0
 32 33  1  0
 33 34  2  0
 17  7  1  0
 23 18  1  0
 34 24  1  0
 15 10  1  0
 33 27  1  0
  3 35  1  0
  4 36  1  0
  4 37  1  0
  8 38  1  0
  8 39  1  0
  9 40  1  6
 11 41  1  0
 12 42  1  0
 13 43  1  0
 14 44  1  0
 15 45  1  0
 16 46  1  0
 16 47  1  0
 17 48  1  1
 19 49  1  0
 20 50  1  0
 21 51  1  0
 22 52  1  0
 23 53  1  0
 25 54  1  0
 26 55  1  0
 28 56  1  0
 31 57  1  0
 32 58  1  0
M  END
>  <smiles>  (50) 
O=C(NCC(=O)N1C[C@H](c2ccccc2)C[C@H]1c1ccccc1)c1ccc2cc(F)ccc2n1

>  <score_type>  (50) 
oracle

>  <origin>  (50) 
autodockgpu

>  <m_score__min__energy>  (50) 
-9.7100000000000009

>  <m_primary>  (50) 
energy

>  <rmsd>  (50) 
2.8441053275688373

>  <m_score__min__rmsd>  (50) 
2.8441053275688373

>  <meeko>  (50) 
{"free_energy": -9.17, "intermolecular_energy": -10.96, "internal_energy": -2.3, "cluster_size": 25, "cluster_id": 1, "rank_in_cluster": 12}

>  <energy>  (50) 
-8.22

>  <cluster_rmsd>  (50) 
0.0

>  <cluster>  (50) 
6

$$$$
