
     RDKit          3D

 49 52  0  0  0  0  0  0  0  0999 V2000
  141.9600   80.3310  218.6840 N   0  0  0  0  0  0  0  0  0  0  0  0
  141.8570   79.9940  219.7640 C   0  0  0  0  0  0  0  0  0  0  0  0
  141.7300   79.5490  221.1070 C   0  0  0  0  0  0  0  0  0  0  0  0
  141.7890   80.5230  222.1090 C   0  0  0  0  0  0  0  0  0  0  0  0
  141.6730   80.1850  223.4400 C   0  0  0  0  0  0  0  0  0  0  0  0
  141.4990   78.8490  223.7310 C   0  0  0  0  0  0  0  0  0  0  0  0
  141.4420   77.8890  222.7430 C   0  0  0  0  0  0  0  0  0  0  0  0
  141.5570   78.2160  221.3830 C   0  0  0  0  0  0  0  0  0  0  0  0
  141.4910   77.1690  220.3890 C   0  0  1  0  0  0  0  0  0  0  0  0
  142.9400   76.7580  220.0820 C   0  0  0  0  0  0  0  0  0  0  0  0
  142.6760   75.4130  219.4380 C   0  0  0  0  0  0  0  0  0  0  0  0
  141.6730   74.8360  220.4120 C   0  0  0  0  0  0  0  0  0  0  0  0
  140.7880   75.9690  220.6720 N   0  0  0  0  0  0  0  0  0  0  0  0
  139.4380   75.9170  221.1310 C   0  0  0  0  0  0  0  0  0  0  0  0
  138.8630   76.8890  221.6480 O   0  0  0  0  0  0  0  0  0  0  0  0
  138.6910   74.6300  220.9790 C   0  0  0  0  0  0  0  0  0  0  0  0
  138.9310   73.7480  222.0980 N   0  0  0  0  0  0  0  0  0  0  0  0
  139.1750   72.3760  221.8020 C   0  0  0  0  0  0  0  0  0  0  0  0
  139.1820   71.9410  220.6240 O   0  0  0  0  0  0  0  0  0  0  0  0
  139.4200   71.4740  222.9420 C   0  0  0  0  0  0  0  0  0  0  0  0
  139.0580   70.1440  222.8850 C   0  0  0  0  0  0  0  0  0  0  0  0
  139.2580   69.2550  223.9080 C   0  0  0  0  0  0  0  0  0  0  0  0
  139.8570   69.7240  225.0580 C   0  0  0  0  0  0  0  0  0  0  0  0
  140.1150   68.9420  226.1560 C   0  0  0  0  0  0  0  0  0  0  0  0
  140.7170   69.4280  227.3000 C   0  0  0  0  0  0  0  0  0  0  0  0
  141.0470   68.4350  228.6990 Cl  0  0  0  0  0  0  0  0  0  0  0  0
  141.0710   70.7580  227.3400 C   0  0  0  0  0  0  0  0  0  0  0  0
  140.8190   71.5660  226.2380 C   0  0  0  0  0  0  0  0  0  0  0  0
  140.2100   71.0550  225.0910 C   0  0  0  0  0  0  0  0  0  0  0  0
  140.0020   71.9000  224.0780 N   0  0  0  0  0  0  0  0  0  0  0  0
  141.9305   81.5775  221.8297 H   0  0  0  0  0  0  0  0  0  0  0  0
  141.7172   80.9459  224.2331 H   0  0  0  0  0  0  0  0  0  0  0  0
  141.4028   78.5397  224.7822 H   0  0  0  0  0  0  0  0  0  0  0  0
  141.3023   76.8361  223.0290 H   0  0  0  0  0  0  0  0  0  0  0  0
  140.9084   77.6280  219.5766 H   0  0  0  0  0  0  0  0  0  0  0  0
  143.4288   77.4581  219.3885 H   0  0  0  0  0  0  0  0  0  0  0  0
  143.6196   76.7421  220.9468 H   0  0  0  0  0  0  0  0  0  0  0  0
  142.2481   75.5217  218.4305 H   0  0  0  0  0  0  0  0  0  0  0  0
  143.5723   74.7948  219.2815 H   0  0  0  0  0  0  0  0  0  0  0  0
  141.1215   73.9970  219.9627 H   0  0  0  0  0  0  0  0  0  0  0  0
  142.1351   74.4257  221.3220 H   0  0  0  0  0  0  0  0  0  0  0  0
  137.6141   74.8459  220.9176 H   0  0  0  0  0  0  0  0  0  0  0  0
  139.0411   74.1316  220.0630 H   0  0  0  0  0  0  0  0  0  0  0  0
  138.9270   74.0970  223.0840 H   0  0  0  0  0  0  0  0  0  0  0  0
  138.5811   69.7759  221.9646 H   0  0  0  0  0  0  0  0  0  0  0  0
  138.9511   68.2028  223.8151 H   0  0  0  0  0  0  0  0  0  0  0  0
  139.8294   67.8802  226.1234 H   0  0  0  0  0  0  0  0  0  0  0  0
  141.5495   71.1776  228.2372 H   0  0  0  0  0  0  0  0  0  0  0  0
  141.1047   72.6278  226.2703 H   0  0  0  0  0  0  0  0  0  0  0  0
  1  2  3  0
  2  3  1  0
  3  4  2  0
  4  5  1  0
  5  6  2  0
  6  7  1  0
  7  8  2  0
  8  9  1  0
  9 10  1  0
 10 11  1  0
 11 12  1  0
 12 13  1  0
 13 14  1  0
 14 15  2  0
 14 16  1  0
 16 17  1  0
 17 18  1  0
 18 19  2  0
 18 20  1  0
 20 21  2  0
 21 22  1  0
 22 23  2  0
 23 24  1  0
 24 25  2  0
 25 26  1  0
 25 27  1  0
 27 28  2  0
 28 29  1  0
 29 30  2  0
  8  3  1  0
 13  9  1  0
 30 20  1  0
 29 23  1  0
  4 31  1  0
  5 32  1  0
  6 33  1  0
  7 34  1  0
  9 35  1  6
 10 36  1  0
 10 37  1  0
 11 38  1  0
 11 39  1  0
 12 40  1  0
 12 41  1  0
 16 42  1  0
 16 43  1  0
 17 44  1  0
 21 45  1  0
 22 46  1  0
 24 47  1  0
 27 48  1  0
 28 49  1  0
M  END
>  <smiles>  (1) 
N#Cc1ccccc1[C@H]1CCCN1C(=O)CNC(=O)c1ccc2cc(Cl)ccc2n1

>  <score_type>  (1) 
oracle

>  <origin>  (1) 
autodockgpu

>  <m_score__min__energy>  (1) 
-9.0500000000000007

>  <m_primary>  (1) 
energy

>  <rmsd>  (1) 
4.105986505188726

>  <m_score__min__rmsd>  (1) 
4.105986505188726

>  <meeko>  (1) 
{"free_energy": -8.6, "intermolecular_energy": -10.39, "internal_energy": -1.72, "cluster_size": 21, "cluster_id": 2, "rank_in_cluster": 10}

>  <energy>  (1) 
-9.05

>  <cluster_rmsd>  (1) 
0.0

>  <cluster>  (1) 
1

$$$$

     RDKit          3D

 49 52  0  0  0  0  0  0  0  0999 V2000
  137.7900   79.7630  222.2550 N   0  0  0  0  0  0  0  0  0  0  0  0
  138.9080   79.8670  222.4290 C   0  0  0  0  0  0  0  0  0  0  0  0
  140.3060   79.9760  222.6600 C   0  0  0  0  0  0  0  0  0  0  0  0
  140.7090   80.6720  223.8040 C   0  0  0  0  0  0  0  0  0  0  0  0
  142.0440   80.8260  224.1110 C   0  0  0  0  0  0  0  0  0  0  0  0
  142.9530   80.2650  223.2390 C   0  0  0  0  0  0  0  0  0  0  0  0
  142.5540   79.5800  222.1110 C   0  0  0  0  0  0  0  0  0  0  0  0
  141.2000   79.4130  221.7850 C   0  0  0  0  0  0  0  0  0  0  0  0
  140.8380   78.6860  220.5890 C   0  0  1  0  0  0  0  0  0  0  0  0
  141.8780   79.0500  219.5180 C   0  0  0  0  0  0  0  0  0  0  0  0
  141.6470   77.9010  218.5580 C   0  0  0  0  0  0  0  0  0  0  0  0
  141.5950   76.7420  219.5280 C   0  0  0  0  0  0  0  0  0  0  0  0
  140.7740   77.2680  220.6170 N   0  0  0  0  0  0  0  0  0  0  0  0
  140.0180   76.5150  221.5640 C   0  0  0  0  0  0  0  0  0  0  0  0
  139.7650   76.9290  222.7070 O   0  0  0  0  0  0  0  0  0  0  0  0
  139.5140   75.1680  221.1530 C   0  0  0  0  0  0  0  0  0  0  0  0
  139.5980   74.2210  222.2420 N   0  0  0  0  0  0  0  0  0  0  0  0
  139.7840   72.8510  221.8970 C   0  0  0  0  0  0  0  0  0  0  0  0
  139.8700   72.4720  220.7030 O   0  0  0  0  0  0  0  0  0  0  0  0
  139.8690   71.8840  223.0060 C   0  0  0  0  0  0  0  0  0  0  0  0
  139.4470   70.5810  222.8450 C   0  0  0  0  0  0  0  0  0  0  0  0
  139.5000   69.6340  223.8330 C   0  0  0  0  0  0  0  0  0  0  0  0
  140.0070   70.0130  225.0580 C   0  0  0  0  0  0  0  0  0  0  0  0
  140.1170   69.1660  226.1330 C   0  0  0  0  0  0  0  0  0  0  0  0
  140.6280   69.5620  227.3530 C   0  0  0  0  0  0  0  0  0  0  0  0
  140.7690   68.4860  228.7230 Cl  0  0  0  0  0  0  0  0  0  0  0  0
  141.0450   70.8670  227.4960 C   0  0  0  0  0  0  0  0  0  0  0  0
  140.9420   71.7390  226.4200 C   0  0  0  0  0  0  0  0  0  0  0  0
  140.4230   71.3190  225.1950 C   0  0  0  0  0  0  0  0  0  0  0  0
  140.3590   72.2210  224.2130 N   0  0  0  0  0  0  0  0  0  0  0  0
  139.9477   81.1039  224.4702 H   0  0  0  0  0  0  0  0  0  0  0  0
  142.3690   81.3709  225.0096 H   0  0  0  0  0  0  0  0  0  0  0  0
  144.0278   80.3670  223.4495 H   0  0  0  0  0  0  0  0  0  0  0  0
  143.3198   79.1520  221.4474 H   0  0  0  0  0  0  0  0  0  0  0  0
  139.7963   78.9919  220.4119 H   0  0  0  0  0  0  0  0  0  0  0  0
  141.6666   80.0242  219.0529 H   0  0  0  0  0  0  0  0  0  0  0  0
  142.9103   79.1609  219.8813 H   0  0  0  0  0  0  0  0  0  0  0  0
  140.7008   78.0142  218.0085 H   0  0  0  0  0  0  0  0  0  0  0  0
  142.4045   77.8041  217.7663 H   0  0  0  0  0  0  0  0  0  0  0  0
  141.1249   75.8606  219.0674 H   0  0  0  0  0  0  0  0  0  0  0  0
  142.5889   76.4036  219.8561 H   0  0  0  0  0  0  0  0  0  0  0  0
  138.4641   75.2592  220.8376 H   0  0  0  0  0  0  0  0  0  0  0  0
  140.1387   74.8014  220.3251 H   0  0  0  0  0  0  0  0  0  0  0  0
  139.5280   74.5240  223.2400 H   0  0  0  0  0  0  0  0  0  0  0  0
  139.0441   70.2848  221.8653 H   0  0  0  0  0  0  0  0  0  0  0  0
  139.1501   68.6064  223.6554 H   0  0  0  0  0  0  0  0  0  0  0  0
  139.7828   68.1244  226.0170 H   0  0  0  0  0  0  0  0  0  0  0  0
  141.4563   71.2157  228.4548 H   0  0  0  0  0  0  0  0  0  0  0  0
  141.2760   72.7806  226.5358 H   0  0  0  0  0  0  0  0  0  0  0  0
  1  2  3  0
  2  3  1  0
  3  4  2  0
  4  5  1  0
  5  6  2  0
  6  7  1  0
  7  8  2  0
  8  9  1  0
  9 10  1  0
 10 11  1  0
 11 12  1  0
 12 13  1  0
 13 14  1  0
 14 15  2  0
 14 16  1  0
 16 17  1  0
 17 18  1  0
 18 19  2  0
 18 20  1  0
 20 21  2  0
 21 22  1  0
 22 23  2  0
 23 24  1  0
 24 25  2  0
 25 26  1  0
 25 27  1  0
 27 28  2  0
 28 29  1  0
 29 30  2  0
  8  3  1  0
 13  9  1  0
 30 20  1  0
 29 23  1  0
  4 31  1  0
  5 32  1  0
  6 33  1  0
  7 34  1  0
  9 35  1  6
 10 36  1  0
 10 37  1  0
 11 38  1  0
 11 39  1  0
 12 40  1  0
 12 41  1  0
 16 42  1  0
 16 43  1  0
 17 44  1  0
 21 45  1  0
 22 46  1  0
 24 47  1  0
 27 48  1  0
 28 49  1  0
M  END
>  <smiles>  (2) 
N#Cc1ccccc1[C@H]1CCCN1C(=O)CNC(=O)c1ccc2cc(Cl)ccc2n1

>  <score_type>  (2) 
oracle

>  <origin>  (2) 
autodockgpu

>  <m_score__min__energy>  (2) 
-9.0500000000000007

>  <m_primary>  (2) 
energy

>  <rmsd>  (2) 
3.693713697821622

>  <m_score__min__rmsd>  (2) 
3.693713697821622

>  <meeko>  (2) 
{"free_energy": -8.7, "intermolecular_energy": -10.49, "internal_energy": -1.94, "cluster_size": 21, "cluster_id": 2, "rank_in_cluster": 6}

>  <energy>  (2) 
-8.89

>  <cluster_rmsd>  (2) 
0.44

>  <cluster>  (2) 
1

$$$$

     RDKit          3D

 49 52  0  0  0  0  0  0  0  0999 V2000
  141.0040   72.6000  227.6010 N   0  0  0  0  0  0  0  0  0  0  0  0
  140.8110   71.5150  227.3260 C   0  0  0  0  0  0  0  0  0  0  0  0
  140.5890   70.1510  226.9960 C   0  0  0  0  0  0  0  0  0  0  0  0
  141.0550   69.1930  227.9030 C   0  0  0  0  0  0  0  0  0  0  0  0
  140.8820   67.8460  227.6690 C   0  0  0  0  0  0  0  0  0  0  0  0
  140.2330   67.4940  226.5050 C   0  0  0  0  0  0  0  0  0  0  0  0
  139.7750   68.4390  225.6110 C   0  0  0  0  0  0  0  0  0  0  0  0
  139.9420   69.8140  225.8350 C   0  0  0  0  0  0  0  0  0  0  0  0
  139.4420   70.7600  224.8640 C   0  0  1  0  0  0  0  0  0  0  0  0
  140.6360   71.1660  223.9850 C   0  0  0  0  0  0  0  0  0  0  0  0
  139.8810   71.7380  222.8030 C   0  0  0  0  0  0  0  0  0  0  0  0
  138.8300   70.6670  222.6060 C   0  0  0  0  0  0  0  0  0  0  0  0
  138.4030   70.3790  223.9740 N   0  0  0  0  0  0  0  0  0  0  0  0
  137.1600   69.8130  224.3840 C   0  0  0  0  0  0  0  0  0  0  0  0
  137.0650   68.9910  225.3110 O   0  0  0  0  0  0  0  0  0  0  0  0
  135.9200   70.2350  223.6610 C   0  0  0  0  0  0  0  0  0  0  0  0
  135.2390   71.2980  224.3630 N   0  0  0  0  0  0  0  0  0  0  0  0
  135.6510   72.6320  224.0760 C   0  0  0  0  0  0  0  0  0  0  0  0
  136.5660   72.8830  223.2540 O   0  0  0  0  0  0  0  0  0  0  0  0
  134.9590   73.7190  224.7910 C   0  0  0  0  0  0  0  0  0  0  0  0
  135.2610   75.0410  224.5390 C   0  0  0  0  0  0  0  0  0  0  0  0
  134.6550   76.0960  225.1670 C   0  0  0  0  0  0  0  0  0  0  0  0
  133.6860   75.8130  226.1060 C   0  0  0  0  0  0  0  0  0  0  0  0
  133.0010   76.7720  226.8080 C   0  0  0  0  0  0  0  0  0  0  0  0
  132.0330   76.4710  227.7460 C   0  0  0  0  0  0  0  0  0  0  0  0
  131.1590   77.6910  228.6410 Cl  0  0  0  0  0  0  0  0  0  0  0  0
  131.7430   75.1470  227.9850 C   0  0  0  0  0  0  0  0  0  0  0  0
  132.4250   74.1600  227.2840 C   0  0  0  0  0  0  0  0  0  0  0  0
  133.4000   74.4850  226.3410 C   0  0  0  0  0  0  0  0  0  0  0  0
  134.0080   73.4770  225.7130 N   0  0  0  0  0  0  0  0  0  0  0  0
  141.5684   69.5208  228.8189 H   0  0  0  0  0  0  0  0  0  0  0  0
  141.2449   67.0872  228.3779 H   0  0  0  0  0  0  0  0  0  0  0  0
  140.0758   66.4282  226.2827 H   0  0  0  0  0  0  0  0  0  0  0  0
  139.2640   68.1051  224.6959 H   0  0  0  0  0  0  0  0  0  0  0  0
  138.9792   71.5396  225.4869 H   0  0  0  0  0  0  0  0  0  0  0  0
  141.2693   71.9211  224.4737 H   0  0  0  0  0  0  0  0  0  0  0  0
  141.3429   70.3576  223.7468 H   0  0  0  0  0  0  0  0  0  0  0  0
  139.4291   72.7120  223.0420 H   0  0  0  0  0  0  0  0  0  0  0  0
  140.5006   71.9421  221.9173 H   0  0  0  0  0  0  0  0  0  0  0  0
  137.9919   71.0407  221.9994 H   0  0  0  0  0  0  0  0  0  0  0  0
  139.2042   69.7820  222.0705 H   0  0  0  0  0  0  0  0  0  0  0  0
  136.1939   70.5875  222.6556 H   0  0  0  0  0  0  0  0  0  0  0  0
  135.2429   69.3703  223.5993 H   0  0  0  0  0  0  0  0  0  0  0  0
  134.4760   71.1030  225.0500 H   0  0  0  0  0  0  0  0  0  0  0  0
  136.0348   75.2608  223.7888 H   0  0  0  0  0  0  0  0  0  0  0  0
  134.9318   77.1340  224.9304 H   0  0  0  0  0  0  0  0  0  0  0  0
  133.2334   77.8297  226.6149 H   0  0  0  0  0  0  0  0  0  0  0  0
  130.9772   74.8723  228.7253 H   0  0  0  0  0  0  0  0  0  0  0  0
  132.1916   73.1024  227.4764 H   0  0  0  0  0  0  0  0  0  0  0  0
  1  2  3  0
  2  3  1  0
  3  4  2  0
  4  5  1  0
  5  6  2  0
  6  7  1  0
  7  8  2  0
  8  9  1  0
  9 10  1  0
 10 11  1  0
 11 12  1  0
 12 13  1  0
 13 14  1  0
 14 15  2  0
 14 16  1  0
 16 17  1  0
 17 18  1  0
 18 19  2  0
 18 20  1  0
 20 21  2  0
 21 22  1  0
 22 23  2  0
 23 24  1  0
 24 25  2  0
 25 26  1  0
 25 27  1  0
 27 28  2  0
 28 29  1  0
 29 30  2  0
  8  3  1  0
 13  9  1  0
 30 20  1  0
 29 23  1  0
  4 31  1  0
  5 32  1  0
  6 33  1  0
  7 34  1  0
  9 35  1  1
 10 36  1  0
 10 37  1  0
 11 38  1  0
 11 39  1  0
 12 40  1  0
 12 41  1  0
 16 42  1  0
 16 43  1  0
 17 44  1  0
 21 45  1  0
 22 46  1  0
 24 47  1  0
 27 48  1  0
 28 49  1  0
M  END
>  <smiles>  (3) 
N#Cc1ccccc1[C@H]1CCCN1C(=O)CNC(=O)c1ccc2cc(Cl)ccc2n1

>  <score_type>  (3) 
oracle

>  <origin>  (3) 
autodockgpu

>  <m_score__min__energy>  (3) 
-9.0500000000000007

>  <m_primary>  (3) 
energy

>  <rmsd>  (3) 
10.497631383330827

>  <m_score__min__rmsd>  (3) 
10.497631383330827

>  <meeko>  (3) 
{"free_energy": -8.4, "intermolecular_energy": -10.19, "internal_energy": -1.88, "cluster_size": 4, "cluster_id": 1, "rank_in_cluster": 4}

>  <energy>  (3) 
-8.64

>  <cluster_rmsd>  (3) 
0.76

>  <cluster>  (3) 
1

$$$$

     RDKit          3D

 49 52  0  0  0  0  0  0  0  0999 V2000
  140.6880   72.6030  222.7350 N   0  0  0  0  0  0  0  0  0  0  0  0
  140.4470   71.9470  223.6320 C   0  0  0  0  0  0  0  0  0  0  0  0
  140.1240   71.1230  224.7430 C   0  0  0  0  0  0  0  0  0  0  0  0
  140.7320   71.4340  225.9640 C   0  0  0  0  0  0  0  0  0  0  0  0
  140.4760   70.6910  227.0960 C   0  0  0  0  0  0  0  0  0  0  0  0
  139.6000   69.6340  226.9640 C   0  0  0  0  0  0  0  0  0  0  0  0
  139.0030   69.3280  225.7600 C   0  0  0  0  0  0  0  0  0  0  0  0
  139.2510   70.0750  224.5980 C   0  0  0  0  0  0  0  0  0  0  0  0
  138.5980   69.7090  223.3620 C   0  0  1  0  0  0  0  0  0  0  0  0
  138.6160   68.1740  223.2890 C   0  0  0  0  0  0  0  0  0  0  0  0
  137.5320   67.9700  222.2500 C   0  0  0  0  0  0  0  0  0  0  0  0
  136.4750   68.9200  222.7690 C   0  0  0  0  0  0  0  0  0  0  0  0
  137.2540   70.1030  223.1290 N   0  0  0  0  0  0  0  0  0  0  0  0
  136.7790   71.4440  223.2360 C   0  0  0  0  0  0  0  0  0  0  0  0
  136.2210   71.8830  224.2560 O   0  0  0  0  0  0  0  0  0  0  0  0
  136.9660   72.3540  222.0640 C   0  0  0  0  0  0  0  0  0  0  0  0
  137.9310   73.3900  222.3520 N   0  0  0  0  0  0  0  0  0  0  0  0
  137.7810   74.6270  221.6630 C   0  0  0  0  0  0  0  0  0  0  0  0
  136.8550   74.8200  220.8370 O   0  0  0  0  0  0  0  0  0  0  0  0
  138.7650   75.6850  221.9550 C   0  0  0  0  0  0  0  0  0  0  0  0
  140.1060   75.4990  221.6950 C   0  0  0  0  0  0  0  0  0  0  0  0
  141.0690   76.4400  221.9430 C   0  0  0  0  0  0  0  0  0  0  0  0
  140.6670   77.6440  222.4820 C   0  0  0  0  0  0  0  0  0  0  0  0
  141.5260   78.6720  222.7780 C   0  0  0  0  0  0  0  0  0  0  0  0
  141.1060   79.8710  223.3180 C   0  0  0  0  0  0  0  0  0  0  0  0
  142.1990   81.1820  223.6960 Cl  0  0  0  0  0  0  0  0  0  0  0  0
  139.7640   80.0410  223.5710 C   0  0  0  0  0  0  0  0  0  0  0  0
  138.8770   79.0120  223.2770 C   0  0  0  0  0  0  0  0  0  0  0  0
  139.3220   77.8070  222.7320 C   0  0  0  0  0  0  0  0  0  0  0  0
  138.4050   76.8710  222.4810 N   0  0  0  0  0  0  0  0  0  0  0  0
  141.4258   72.2856  226.0214 H   0  0  0  0  0  0  0  0  0  0  0  0
  140.9485   70.9299  228.0602 H   0  0  0  0  0  0  0  0  0  0  0  0
  139.3711   69.0171  227.8455 H   0  0  0  0  0  0  0  0  0  0  0  0
  138.3122   68.4736  225.7083 H   0  0  0  0  0  0  0  0  0  0  0  0
  139.1687   70.2620  222.6014 H   0  0  0  0  0  0  0  0  0  0  0  0
  139.5891   67.7891  222.9500 H   0  0  0  0  0  0  0  0  0  0  0  0
  138.4567   67.6543  224.2453 H   0  0  0  0  0  0  0  0  0  0  0  0
  137.8746   68.2533  221.2438 H   0  0  0  0  0  0  0  0  0  0  0  0
  137.1970   66.9288  222.1336 H   0  0  0  0  0  0  0  0  0  0  0  0
  135.7353   69.1545  221.9893 H   0  0  0  0  0  0  0  0  0  0  0  0
  135.8931   68.5092  223.6072 H   0  0  0  0  0  0  0  0  0  0  0  0
  137.3191   71.7642  221.2052 H   0  0  0  0  0  0  0  0  0  0  0  0
  136.0012   72.8316  221.8380 H   0  0  0  0  0  0  0  0  0  0  0  0
  138.7070   73.2420  223.0370 H   0  0  0  0  0  0  0  0  0  0  0  0
  140.4209   74.5377  221.2628 H   0  0  0  0  0  0  0  0  0  0  0  0
  142.1278   76.2423  221.7198 H   0  0  0  0  0  0  0  0  0  0  0  0
  142.5985   78.5345  222.5758 H   0  0  0  0  0  0  0  0  0  0  0  0
  139.3962   80.9837  224.0024 H   0  0  0  0  0  0  0  0  0  0  0  0
  137.8043   79.1502  223.4777 H   0  0  0  0  0  0  0  0  0  0  0  0
  1  2  3  0
  2  3  1  0
  3  4  2  0
  4  5  1  0
  5  6  2  0
  6  7  1  0
  7  8  2  0
  8  9  1  0
  9 10  1  0
 10 11  1  0
 11 12  1  0
 12 13  1  0
 13 14  1  0
 14 15  2  0
 14 16  1  0
 16 17  1  0
 17 18  1  0
 18 19  2  0
 18 20  1  0
 20 21  2  0
 21 22  1  0
 22 23  2  0
 23 24  1  0
 24 25  2  0
 25 26  1  0
 25 27  1  0
 27 28  2  0
 28 29  1  0
 29 30  2  0
  8  3  1  0
 13  9  1  0
 30 20  1  0
 29 23  1  0
  4 31  1  0
  5 32  1  0
  6 33  1  0
  7 34  1  0
  9 35  1  6
 10 36  1  0
 10 37  1  0
 11 38  1  0
 11 39  1  0
 12 40  1  0
 12 41  1  0
 16 42  1  0
 16 43  1  0
 17 44  1  0
 21 45  1  0
 22 46  1  0
 24 47  1  0
 27 48  1  0
 28 49  1  0
M  END
>  <smiles>  (4) 
N#Cc1ccccc1[C@H]1CCCN1C(=O)CNC(=O)c1ccc2cc(Cl)ccc2n1

>  <score_type>  (4) 
oracle

>  <origin>  (4) 
autodockgpu

>  <m_score__min__energy>  (4) 
-9.0500000000000007

>  <m_primary>  (4) 
energy

>  <rmsd>  (4) 
9.894599040923683

>  <m_score__min__rmsd>  (4) 
9.894599040923683

>  <meeko>  (4) 
{"free_energy": -8.16, "intermolecular_energy": -9.95, "internal_energy": -2.47, "cluster_size": 17, "cluster_id": 5, "rank_in_cluster": 1}

>  <energy>  (4) 
-8.4

>  <cluster_rmsd>  (4) 
1.19

>  <cluster>  (4) 
1

$$$$

     RDKit          3D

 49 52  0  0  0  0  0  0  0  0999 V2000
  140.6950   72.5930  223.1580 N   0  0  0  0  0  0  0  0  0  0  0  0
  140.4560   71.8600  223.9930 C   0  0  0  0  0  0  0  0  0  0  0  0
  140.1760   70.9510  225.0480 C   0  0  0  0  0  0  0  0  0  0  0  0
  140.6610   71.2820  226.3180 C   0  0  0  0  0  0  0  0  0  0  0  0
  140.4360   70.4620  227.4030 C   0  0  0  0  0  0  0  0  0  0  0  0
  139.7160   69.3090  227.1730 C   0  0  0  0  0  0  0  0  0  0  0  0
  139.2390   68.9830  225.9210 C   0  0  0  0  0  0  0  0  0  0  0  0
  139.4590   69.8070  224.8070 C   0  0  0  0  0  0  0  0  0  0  0  0
  138.9360   69.4170  223.5170 C   0  0  1  0  0  0  0  0  0  0  0  0
  138.8170   67.8850  223.5330 C   0  0  0  0  0  0  0  0  0  0  0  0
  137.8610   67.7060  222.3720 C   0  0  0  0  0  0  0  0  0  0  0  0
  136.8420   68.7770  222.6910 C   0  0  0  0  0  0  0  0  0  0  0  0
  137.6770   69.9100  223.0860 N   0  0  0  0  0  0  0  0  0  0  0  0
  137.3210   71.2910  223.0540 C   0  0  0  0  0  0  0  0  0  0  0  0
  136.8830   71.8980  224.0450 O   0  0  0  0  0  0  0  0  0  0  0  0
  137.4880   72.0320  221.7650 C   0  0  0  0  0  0  0  0  0  0  0  0
  138.1400   73.3050  221.9720 N   0  0  0  0  0  0  0  0  0  0  0  0
  139.1450   73.6790  221.0340 C   0  0  0  0  0  0  0  0  0  0  0  0
  139.4590   72.9420  220.0680 O   0  0  0  0  0  0  0  0  0  0  0  0
  139.8120   74.9770  221.2430 C   0  0  0  0  0  0  0  0  0  0  0  0
  140.9920   75.2810  220.5970 C   0  0  0  0  0  0  0  0  0  0  0  0
  141.6600   76.4670  220.7470 C   0  0  0  0  0  0  0  0  0  0  0  0
  141.1160   77.4080  221.5960 C   0  0  0  0  0  0  0  0  0  0  0  0
  141.6800   78.6340  221.8370 C   0  0  0  0  0  0  0  0  0  0  0  0
  141.1210   79.5650  222.6910 C   0  0  0  0  0  0  0  0  0  0  0  0
  141.8390   81.1280  223.0000 Cl  0  0  0  0  0  0  0  0  0  0  0  0
  139.9440   79.2450  223.3280 C   0  0  0  0  0  0  0  0  0  0  0  0
  139.3550   78.0080  223.0960 C   0  0  0  0  0  0  0  0  0  0  0  0
  139.9370   77.0810  222.2300 C   0  0  0  0  0  0  0  0  0  0  0  0
  139.3070   75.9160  222.0650 N   0  0  0  0  0  0  0  0  0  0  0  0
  141.2317   72.2126  226.4530 H   0  0  0  0  0  0  0  0  0  0  0  0
  140.8130   70.7156  228.4048 H   0  0  0  0  0  0  0  0  0  0  0  0
  139.5160   68.6285  228.0138 H   0  0  0  0  0  0  0  0  0  0  0  0
  138.6699   68.0505  225.7920 H   0  0  0  0  0  0  0  0  0  0  0  0
  139.6484   69.8658  222.8091 H   0  0  0  0  0  0  0  0  0  0  0  0
  139.7844   67.3948  223.3493 H   0  0  0  0  0  0  0  0  0  0  0  0
  138.4878   67.4473  224.4870 H   0  0  0  0  0  0  0  0  0  0  0  0
  138.3550   67.8894  221.4064 H   0  0  0  0  0  0  0  0  0  0  0  0
  137.4461   66.6924  222.2702 H   0  0  0  0  0  0  0  0  0  0  0  0
  136.2342   69.0216  221.8074 H   0  0  0  0  0  0  0  0  0  0  0  0
  136.1212   68.4759  223.4655 H   0  0  0  0  0  0  0  0  0  0  0  0
  138.0969   71.4249  221.0789 H   0  0  0  0  0  0  0  0  0  0  0  0
  136.4908   72.2177  221.3395 H   0  0  0  0  0  0  0  0  0  0  0  0
  137.8870   73.9280  222.7730 H   0  0  0  0  0  0  0  0  0  0  0  0
  141.4218   74.5265  219.9217 H   0  0  0  0  0  0  0  0  0  0  0  0
  142.5990   76.6626  220.2084 H   0  0  0  0  0  0  0  0  0  0  0  0
  142.6209   78.8881  221.3270 H   0  0  0  0  0  0  0  0  0  0  0  0
  139.4730   79.9629  224.0156 H   0  0  0  0  0  0  0  0  0  0  0  0
  138.4128   77.7548  223.6041 H   0  0  0  0  0  0  0  0  0  0  0  0
  1  2  3  0
  2  3  1  0
  3  4  2  0
  4  5  1  0
  5  6  2  0
  6  7  1  0
  7  8  2  0
  8  9  1  0
  9 10  1  0
 10 11  1  0
 11 12  1  0
 12 13  1  0
 13 14  1  0
 14 15  2  0
 14 16  1  0
 16 17  1  0
 17 18  1  0
 18 19  2  0
 18 20  1  0
 20 21  2  0
 21 22  1  0
 22 23  2  0
 23 24  1  0
 24 25  2  0
 25 26  1  0
 25 27  1  0
 27 28  2  0
 28 29  1  0
 29 30  2  0
  8  3  1  0
 13  9  1  0
 30 20  1  0
 29 23  1  0
  4 31  1  0
  5 32  1  0
  6 33  1  0
  7 34  1  0
  9 35  1  6
 10 36  1  0
 10 37  1  0
 11 38  1  0
 11 39  1  0
 12 40  1  0
 12 41  1  0
 16 42  1  0
 16 43  1  0
 17 44  1  0
 21 45  1  0
 22 46  1  0
 24 47  1  0
 27 48  1  0
 28 49  1  0
M  END
>  <smiles>  (5) 
N#Cc1ccccc1[C@H]1CCCN1C(=O)CNC(=O)c1ccc2cc(Cl)ccc2n1

>  <score_type>  (5) 
oracle

>  <origin>  (5) 
autodockgpu

>  <m_score__min__energy>  (5) 
-9.0500000000000007

>  <m_primary>  (5) 
energy

>  <rmsd>  (5) 
10.009861178271107

>  <m_score__min__rmsd>  (5) 
10.009861178271107

>  <meeko>  (5) 
{"free_energy": -7.77, "intermolecular_energy": -9.56, "internal_energy": -2.3, "cluster_size": 2, "cluster_id": 3, "rank_in_cluster": 2}

>  <energy>  (5) 
-8.86

>  <cluster_rmsd>  (5) 
0.0

>  <cluster>  (5) 
2

$$$$

     RDKit          3D

 49 52  0  0  0  0  0  0  0  0999 V2000
  137.8360   79.5440  222.3090 N   0  0  0  0  0  0  0  0  0  0  0  0
  138.9420   79.7430  222.4780 C   0  0  0  0  0  0  0  0  0  0  0  0
  140.3290   79.9860  222.6660 C   0  0  0  0  0  0  0  0  0  0  0  0
  140.7000   80.7040  223.8080 C   0  0  0  0  0  0  0  0  0  0  0  0
  142.0230   80.9860  224.0740 C   0  0  0  0  0  0  0  0  0  0  0  0
  142.9520   80.5280  223.1650 C   0  0  0  0  0  0  0  0  0  0  0  0
  142.5860   79.8210  222.0390 C   0  0  0  0  0  0  0  0  0  0  0  0
  141.2440   79.5260  221.7540 C   0  0  0  0  0  0  0  0  0  0  0  0
  140.9160   78.7810  220.5590 C   0  0  1  0  0  0  0  0  0  0  0  0
  141.8710   79.2690  219.4580 C   0  0  0  0  0  0  0  0  0  0  0  0
  141.7260   78.1160  218.4860 C   0  0  0  0  0  0  0  0  0  0  0  0
  141.8330   76.9430  219.4360 C   0  0  0  0  0  0  0  0  0  0  0  0
  141.0030   77.3640  220.5630 N   0  0  0  0  0  0  0  0  0  0  0  0
  140.3670   76.5220  221.5230 C   0  0  0  0  0  0  0  0  0  0  0  0
  140.2210   76.8460  222.7130 O   0  0  0  0  0  0  0  0  0  0  0  0
  139.8570   75.1920  221.0660 C   0  0  0  0  0  0  0  0  0  0  0  0
  139.8160   74.2430  222.1560 N   0  0  0  0  0  0  0  0  0  0  0  0
  140.1460   72.8910  221.8510 C   0  0  0  0  0  0  0  0  0  0  0  0
  140.4580   72.5290  220.6900 O   0  0  0  0  0  0  0  0  0  0  0  0
  140.1040   71.9210  222.9600 C   0  0  0  0  0  0  0  0  0  0  0  0
  139.5690   70.6630  222.7840 C   0  0  0  0  0  0  0  0  0  0  0  0
  139.5010   69.7170  223.7720 C   0  0  0  0  0  0  0  0  0  0  0  0
  139.9990   70.0490  225.0140 C   0  0  0  0  0  0  0  0  0  0  0  0
  139.9940   69.1980  226.0900 C   0  0  0  0  0  0  0  0  0  0  0  0
  140.4980   69.5470  227.3270 C   0  0  0  0  0  0  0  0  0  0  0  0
  140.4930   68.4640  228.6990 Cl  0  0  0  0  0  0  0  0  0  0  0  0
  141.0290   70.8070  227.4870 C   0  0  0  0  0  0  0  0  0  0  0  0
  141.0440   71.6840  226.4090 C   0  0  0  0  0  0  0  0  0  0  0  0
  140.5300   71.3110  225.1660 C   0  0  0  0  0  0  0  0  0  0  0  0
  140.5820   72.2140  224.1850 N   0  0  0  0  0  0  0  0  0  0  0  0
  139.9228   81.0494  224.5056 H   0  0  0  0  0  0  0  0  0  0  0  0
  142.3229   81.5500  224.9696 H   0  0  0  0  0  0  0  0  0  0  0  0
  144.0180   80.7326  223.3430 H   0  0  0  0  0  0  0  0  0  0  0  0
  143.3678   79.4788  221.3449 H   0  0  0  0  0  0  0  0  0  0  0  0
  139.8417   78.9763  220.4256 H   0  0  0  0  0  0  0  0  0  0  0  0
  141.5408   80.2220  219.0189 H   0  0  0  0  0  0  0  0  0  0  0  0
  142.8989   79.4834  219.7858 H   0  0  0  0  0  0  0  0  0  0  0  0
  140.7530   78.1364  217.9732 H   0  0  0  0  0  0  0  0  0  0  0  0
  142.4591   78.1114  217.6659 H   0  0  0  0  0  0  0  0  0  0  0  0
  141.4409   76.0237  218.9765 H   0  0  0  0  0  0  0  0  0  0  0  0
  142.8686   76.7063  219.7216 H   0  0  0  0  0  0  0  0  0  0  0  0
  138.8418   75.3172  220.6613 H   0  0  0  0  0  0  0  0  0  0  0  0
  140.5384   74.8052  220.2939 H   0  0  0  0  0  0  0  0  0  0  0  0
  139.5580   74.5320  223.1270 H   0  0  0  0  0  0  0  0  0  0  0  0
  139.1731   70.4034  221.7911 H   0  0  0  0  0  0  0  0  0  0  0  0
  139.0639   68.7258  223.5811 H   0  0  0  0  0  0  0  0  0  0  0  0
  139.5690   68.1916  225.9613 H   0  0  0  0  0  0  0  0  0  0  0  0
  141.4380   71.1170  228.4599 H   0  0  0  0  0  0  0  0  0  0  0  0
  141.4687   72.6905  226.5377 H   0  0  0  0  0  0  0  0  0  0  0  0
  1  2  3  0
  2  3  1  0
  3  4  2  0
  4  5  1  0
  5  6  2  0
  6  7  1  0
  7  8  2  0
  8  9  1  0
  9 10  1  0
 10 11  1  0
 11 12  1  0
 12 13  1  0
 13 14  1  0
 14 15  2  0
 14 16  1  0
 16 17  1  0
 17 18  1  0
 18 19  2  0
 18 20  1  0
 20 21  2  0
 21 22  1  0
 22 23  2  0
 23 24  1  0
 24 25  2  0
 25 26  1  0
 25 27  1  0
 27 28  2  0
 28 29  1  0
 29 30  2  0
  8  3  1  0
 13  9  1  0
 30 20  1  0
 29 23  1  0
  4 31  1  0
  5 32  1  0
  6 33  1  0
  7 34  1  0
  9 35  1  6
 10 36  1  0
 10 37  1  0
 11 38  1  0
 11 39  1  0
 12 40  1  0
 12 41  1  0
 16 42  1  0
 16 43  1  0
 17 44  1  0
 21 45  1  0
 22 46  1  0
 24 47  1  0
 27 48  1  0
 28 49  1  0
M  END
>  <smiles>  (6) 
N#Cc1ccccc1[C@H]1CCCN1C(=O)CNC(=O)c1ccc2cc(Cl)ccc2n1

>  <score_type>  (6) 
oracle

>  <origin>  (6) 
autodockgpu

>  <m_score__min__energy>  (6) 
-9.0500000000000007

>  <m_primary>  (6) 
energy

>  <rmsd>  (6) 
3.6546593407328607

>  <m_score__min__rmsd>  (6) 
3.6546593407328607

>  <meeko>  (6) 
{"free_energy": -8.82, "intermolecular_energy": -10.61, "internal_energy": -1.94, "cluster_size": 21, "cluster_id": 2, "rank_in_cluster": 3}

>  <energy>  (6) 
-8.84

>  <cluster_rmsd>  (6) 
0.46

>  <cluster>  (6) 
2

$$$$

     RDKit          3D

 49 52  0  0  0  0  0  0  0  0999 V2000
  140.7440   72.5260  227.9550 N   0  0  0  0  0  0  0  0  0  0  0  0
  140.6580   71.4430  227.6240 C   0  0  0  0  0  0  0  0  0  0  0  0
  140.5660   70.0930  227.1910 C   0  0  0  0  0  0  0  0  0  0  0  0
  141.1110   69.1160  228.0310 C   0  0  0  0  0  0  0  0  0  0  0  0
  141.0650   67.7800  227.6940 C   0  0  0  0  0  0  0  0  0  0  0  0
  140.4610   67.4600  226.4970 C   0  0  0  0  0  0  0  0  0  0  0  0
  139.9250   68.4230  225.6690 C   0  0  0  0  0  0  0  0  0  0  0  0
  139.9630   69.7870  225.9970 C   0  0  0  0  0  0  0  0  0  0  0  0
  139.3860   70.7540  225.0920 C   0  0  1  0  0  0  0  0  0  0  0  0
  140.5460   71.3410  224.2730 C   0  0  0  0  0  0  0  0  0  0  0  0
  139.7550   71.9290  223.1220 C   0  0  0  0  0  0  0  0  0  0  0  0
  138.8170   70.7810  222.8210 C   0  0  0  0  0  0  0  0  0  0  0  0
  138.4020   70.3460  224.1530 N   0  0  0  0  0  0  0  0  0  0  0  0
  137.2140   69.6320  224.4920 C   0  0  0  0  0  0  0  0  0  0  0  0
  137.1900   68.7260  225.3410 O   0  0  0  0  0  0  0  0  0  0  0  0
  135.9460   69.9990  223.7890 C   0  0  0  0  0  0  0  0  0  0  0  0
  135.3160   71.1440  224.4060 N   0  0  0  0  0  0  0  0  0  0  0  0
  134.3830   70.8860  225.4510 C   0  0  0  0  0  0  0  0  0  0  0  0
  134.1110   69.7190  225.8250 O   0  0  0  0  0  0  0  0  0  0  0  0
  133.7380   72.0520  226.0820 C   0  0  0  0  0  0  0  0  0  0  0  0
  132.6400   71.8990  226.9010 C   0  0  0  0  0  0  0  0  0  0  0  0
  131.9960   72.9400  227.5170 C   0  0  0  0  0  0  0  0  0  0  0  0
  132.4810   74.2120  227.3010 C   0  0  0  0  0  0  0  0  0  0  0  0
  131.9330   75.3410  227.8550 C   0  0  0  0  0  0  0  0  0  0  0  0
  132.4320   76.6090  227.6280 C   0  0  0  0  0  0  0  0  0  0  0  0
  131.7360   78.0490  228.3330 Cl  0  0  0  0  0  0  0  0  0  0  0  0
  133.5300   76.7440  226.8070 C   0  0  0  0  0  0  0  0  0  0  0  0
  134.1000   75.6120  226.2370 C   0  0  0  0  0  0  0  0  0  0  0  0
  133.5800   74.3400  226.4790 C   0  0  0  0  0  0  0  0  0  0  0  0
  134.1870   73.3070  225.8910 N   0  0  0  0  0  0  0  0  0  0  0  0
  141.5843   69.4190  228.9766 H   0  0  0  0  0  0  0  0  0  0  0  0
  141.4903   67.0058  228.3495 H   0  0  0  0  0  0  0  0  0  0  0  0
  140.4050   66.4042  226.1933 H   0  0  0  0  0  0  0  0  0  0  0  0
  139.4541   68.1135  224.7243 H   0  0  0  0  0  0  0  0  0  0  0  0
  138.8405   71.4334  225.7634 H   0  0  0  0  0  0  0  0  0  0  0  0
  141.0955   72.1128  224.8319 H   0  0  0  0  0  0  0  0  0  0  0  0
  141.3318   70.6257  223.9885 H   0  0  0  0  0  0  0  0  0  0  0  0
  139.2068   72.8331  223.4254 H   0  0  0  0  0  0  0  0  0  0  0  0
  140.3639   72.2608  222.2681 H   0  0  0  0  0  0  0  0  0  0  0  0
  137.9546   71.1188  222.2277 H   0  0  0  0  0  0  0  0  0  0  0  0
  139.2832   69.9813  222.2267 H   0  0  0  0  0  0  0  0  0  0  0  0
  136.1742   70.2377  222.7397 H   0  0  0  0  0  0  0  0  0  0  0  0
  135.2544   69.1460  223.8525 H   0  0  0  0  0  0  0  0  0  0  0  0
  135.5340   72.1210  224.1030 H   0  0  0  0  0  0  0  0  0  0  0  0
  132.2582   70.8814  227.0701 H   0  0  0  0  0  0  0  0  0  0  0  0
  131.1219   72.7664  228.1618 H   0  0  0  0  0  0  0  0  0  0  0  0
  131.0561   75.2316  228.5100 H   0  0  0  0  0  0  0  0  0  0  0  0
  133.9520   77.7394  226.6044 H   0  0  0  0  0  0  0  0  0  0  0  0
  134.9776   75.7208  225.5828 H   0  0  0  0  0  0  0  0  0  0  0  0
  1  2  3  0
  2  3  1  0
  3  4  2  0
  4  5  1  0
  5  6  2  0
  6  7  1  0
  7  8  2  0
  8  9  1  0
  9 10  1  0
 10 11  1  0
 11 12  1  0
 12 13  1  0
 13 14  1  0
 14 15  2  0
 14 16  1  0
 16 17  1  0
 17 18  1  0
 18 19  2  0
 18 20  1  0
 20 21  2  0
 21 22  1  0
 22 23  2  0
 23 24  1  0
 24 25  2  0
 25 26  1  0
 25 27  1  0
 27 28  2  0
 28 29  1  0
 29 30  2  0
  8  3  1  0
 13  9  1  0
 30 20  1  0
 29 23  1  0
  4 31  1  0
  5 32  1  0
  6 33  1  0
  7 34  1  0
  9 35  1  1
 10 36  1  0
 10 37  1  0
 11 38  1  0
 11 39  1  0
 12 40  1  0
 12 41  1  0
 16 42  1  0
 16 43  1  0
 17 44  1  0
 21 45  1  0
 22 46  1  0
 24 47  1  0
 27 48  1  0
 28 49  1  0
M  END
>  <smiles>  (7) 
N#Cc1ccccc1[C@H]1CCCN1C(=O)CNC(=O)c1ccc2cc(Cl)ccc2n1

>  <score_type>  (7) 
oracle

>  <origin>  (7) 
autodockgpu

>  <m_score__min__energy>  (7) 
-9.0500000000000007

>  <m_primary>  (7) 
energy

>  <rmsd>  (7) 
10.743930860178423

>  <m_score__min__rmsd>  (7) 
10.743930860178423

>  <meeko>  (7) 
{"free_energy": -8.89, "intermolecular_energy": -10.68, "internal_energy": -1.66, "cluster_size": 4, "cluster_id": 1, "rank_in_cluster": 2}

>  <energy>  (7) 
-8.82

>  <cluster_rmsd>  (7) 
0.07

>  <cluster>  (7) 
2

$$$$

     RDKit          3D

 49 52  0  0  0  0  0  0  0  0999 V2000
  137.8250   79.5600  222.2420 N   0  0  0  0  0  0  0  0  0  0  0  0
  138.9310   79.7490  222.4230 C   0  0  0  0  0  0  0  0  0  0  0  0
  140.3170   79.9860  222.6250 C   0  0  0  0  0  0  0  0  0  0  0  0
  140.6790   80.7120  223.7650 C   0  0  0  0  0  0  0  0  0  0  0  0
  142.0000   80.9880  224.0440 C   0  0  0  0  0  0  0  0  0  0  0  0
  142.9380   80.5180  223.1490 C   0  0  0  0  0  0  0  0  0  0  0  0
  142.5800   79.8040  222.0260 C   0  0  0  0  0  0  0  0  0  0  0  0
  141.2400   79.5130  221.7270 C   0  0  0  0  0  0  0  0  0  0  0  0
  140.9210   78.7610  220.5350 C   0  0  1  0  0  0  0  0  0  0  0  0
  141.8980   79.2260  219.4440 C   0  0  0  0  0  0  0  0  0  0  0  0
  141.7540   78.0650  218.4810 C   0  0  0  0  0  0  0  0  0  0  0  0
  141.8330   76.9010  219.4440 C   0  0  0  0  0  0  0  0  0  0  0  0
  140.9910   77.3430  220.5540 N   0  0  0  0  0  0  0  0  0  0  0  0
  140.3310   76.5170  221.5130 C   0  0  0  0  0  0  0  0  0  0  0  0
  140.1870   76.8480  222.7020 O   0  0  0  0  0  0  0  0  0  0  0  0
  139.7930   75.1980  221.0570 C   0  0  0  0  0  0  0  0  0  0  0  0
  139.7320   74.2510  222.1460 N   0  0  0  0  0  0  0  0  0  0  0  0
  140.1870   72.9270  221.8810 C   0  0  0  0  0  0  0  0  0  0  0  0
  140.6230   72.5880  220.7540 O   0  0  0  0  0  0  0  0  0  0  0  0
  140.1260   71.9590  222.9910 C   0  0  0  0  0  0  0  0  0  0  0  0
  139.5550   70.7150  222.8170 C   0  0  0  0  0  0  0  0  0  0  0  0
  139.4670   69.7720  223.8050 C   0  0  0  0  0  0  0  0  0  0  0  0
  139.9810   70.0900  225.0440 C   0  0  0  0  0  0  0  0  0  0  0  0
  139.9590   69.2390  226.1210 C   0  0  0  0  0  0  0  0  0  0  0  0
  140.4790   69.5740  227.3550 C   0  0  0  0  0  0  0  0  0  0  0  0
  140.4520   68.4920  228.7270 Cl  0  0  0  0  0  0  0  0  0  0  0  0
  141.0440   70.8200  227.5120 C   0  0  0  0  0  0  0  0  0  0  0  0
  141.0770   71.6960  226.4340 C   0  0  0  0  0  0  0  0  0  0  0  0
  140.5460   71.3380  225.1940 C   0  0  0  0  0  0  0  0  0  0  0  0
  140.6180   72.2390  224.2120 N   0  0  0  0  0  0  0  0  0  0  0  0
  139.8958   81.0685  224.4502 H   0  0  0  0  0  0  0  0  0  0  0  0
  142.2926   81.5567  224.9389 H   0  0  0  0  0  0  0  0  0  0  0  0
  144.0030   80.7189  223.3370 H   0  0  0  0  0  0  0  0  0  0  0  0
  143.3678   79.4518  221.3438 H   0  0  0  0  0  0  0  0  0  0  0  0
  139.8514   78.9684  220.3836 H   0  0  0  0  0  0  0  0  0  0  0  0
  141.5860   80.1784  218.9905 H   0  0  0  0  0  0  0  0  0  0  0  0
  142.9233   79.4312  219.7854 H   0  0  0  0  0  0  0  0  0  0  0  0
  140.7891   78.0915  217.9534 H   0  0  0  0  0  0  0  0  0  0  0  0
  142.4991   78.0437  217.6720 H   0  0  0  0  0  0  0  0  0  0  0  0
  141.4373   75.9816  218.9879 H   0  0  0  0  0  0  0  0  0  0  0  0
  142.8613   76.6554  219.7477 H   0  0  0  0  0  0  0  0  0  0  0  0
  138.7806   75.3445  220.6525 H   0  0  0  0  0  0  0  0  0  0  0  0
  140.4663   74.7966  220.2853 H   0  0  0  0  0  0  0  0  0  0  0  0
  139.3710   74.5210  223.0900 H   0  0  0  0  0  0  0  0  0  0  0  0
  139.1466   70.4667  221.8263 H   0  0  0  0  0  0  0  0  0  0  0  0
  139.0017   68.7932  223.6167 H   0  0  0  0  0  0  0  0  0  0  0  0
  139.5062   68.2445  225.9948 H   0  0  0  0  0  0  0  0  0  0  0  0
  141.4657   71.1193  228.4829 H   0  0  0  0  0  0  0  0  0  0  0  0
  141.5301   72.6903  226.5603 H   0  0  0  0  0  0  0  0  0  0  0  0
  1  2  3  0
  2  3  1  0
  3  4  2  0
  4  5  1  0
  5  6  2  0
  6  7  1  0
  7  8  2  0
  8  9  1  0
  9 10  1  0
 10 11  1  0
 11 12  1  0
 12 13  1  0
 13 14  1  0
 14 15  2  0
 14 16  1  0
 16 17  1  0
 17 18  1  0
 18 19  2  0
 18 20  1  0
 20 21  2  0
 21 22  1  0
 22 23  2  0
 23 24  1  0
 24 25  2  0
 25 26  1  0
 25 27  1  0
 27 28  2  0
 28 29  1  0
 29 30  2  0
  8  3  1  0
 13  9  1  0
 30 20  1  0
 29 23  1  0
  4 31  1  0
  5 32  1  0
  6 33  1  0
  7 34  1  0
  9 35  1  6
 10 36  1  0
 10 37  1  0
 11 38  1  0
 11 39  1  0
 12 40  1  0
 12 41  1  0
 16 42  1  0
 16 43  1  0
 17 44  1  0
 21 45  1  0
 22 46  1  0
 24 47  1  0
 27 48  1  0
 28 49  1  0
M  END
>  <smiles>  (8) 
N#Cc1ccccc1[C@H]1CCCN1C(=O)CNC(=O)c1ccc2cc(Cl)ccc2n1

>  <score_type>  (8) 
oracle

>  <origin>  (8) 
autodockgpu

>  <m_score__min__energy>  (8) 
-9.0500000000000007

>  <m_primary>  (8) 
energy

>  <rmsd>  (8) 
3.653171344346247

>  <m_score__min__rmsd>  (8) 
3.653171344346247

>  <meeko>  (8) 
{"free_energy": -8.86, "intermolecular_energy": -10.65, "internal_energy": -1.86, "cluster_size": 21, "cluster_id": 2, "rank_in_cluster": 1}

>  <energy>  (8) 
-8.72

>  <cluster_rmsd>  (8) 
0.55

>  <cluster>  (8) 
2

$$$$

     RDKit          3D

 49 52  0  0  0  0  0  0  0  0999 V2000
  141.9540   80.3780  218.7310 N   0  0  0  0  0  0  0  0  0  0  0  0
  141.8390   80.0200  219.8040 C   0  0  0  0  0  0  0  0  0  0  0  0
  141.7160   79.5590  221.1420 C   0  0  0  0  0  0  0  0  0  0  0  0
  141.7790   80.5220  222.1550 C   0  0  0  0  0  0  0  0  0  0  0  0
  141.6670   80.1690  223.4820 C   0  0  0  0  0  0  0  0  0  0  0  0
  141.4930   78.8290  223.7580 C   0  0  0  0  0  0  0  0  0  0  0  0
  141.4310   77.8810  222.7590 C   0  0  0  0  0  0  0  0  0  0  0  0
  141.5430   78.2240  221.4030 C   0  0  0  0  0  0  0  0  0  0  0  0
  141.4720   77.1890  220.3970 C   0  0  1  0  0  0  0  0  0  0  0  0
  142.9190   76.7900  220.0690 C   0  0  0  0  0  0  0  0  0  0  0  0
  142.6570   75.4510  219.4110 C   0  0  0  0  0  0  0  0  0  0  0  0
  141.6680   74.8560  220.3890 C   0  0  0  0  0  0  0  0  0  0  0  0
  140.7790   75.9800  220.6730 N   0  0  0  0  0  0  0  0  0  0  0  0
  139.4350   75.9140  221.1470 C   0  0  0  0  0  0  0  0  0  0  0  0
  138.8610   76.8750  221.6840 O   0  0  0  0  0  0  0  0  0  0  0  0
  138.6930   74.6250  220.9840 C   0  0  0  0  0  0  0  0  0  0  0  0
  138.9270   73.7400  222.1020 N   0  0  0  0  0  0  0  0  0  0  0  0
  139.1900   72.3720  221.8030 C   0  0  0  0  0  0  0  0  0  0  0  0
  139.2170   71.9440  220.6230 O   0  0  0  0  0  0  0  0  0  0  0  0
  139.4280   71.4670  222.9420 C   0  0  0  0  0  0  0  0  0  0  0  0
  139.0620   70.1390  222.8810 C   0  0  0  0  0  0  0  0  0  0  0  0
  139.2550   69.2470  223.9030 C   0  0  0  0  0  0  0  0  0  0  0  0
  139.8520   69.7110  225.0560 C   0  0  0  0  0  0  0  0  0  0  0  0
  140.1050   68.9270  226.1530 C   0  0  0  0  0  0  0  0  0  0  0  0
  140.7040   69.4080  227.3000 C   0  0  0  0  0  0  0  0  0  0  0  0
  141.0270   68.4110  228.6980 Cl  0  0  0  0  0  0  0  0  0  0  0  0
  141.0630   70.7370  227.3430 C   0  0  0  0  0  0  0  0  0  0  0  0
  140.8160   71.5480  226.2430 C   0  0  0  0  0  0  0  0  0  0  0  0
  140.2100   71.0410  225.0920 C   0  0  0  0  0  0  0  0  0  0  0  0
  140.0080   71.8890  224.0810 N   0  0  0  0  0  0  0  0  0  0  0  0
  141.9204   81.5795  221.8872 H   0  0  0  0  0  0  0  0  0  0  0  0
  141.7142   80.9206  224.2837 H   0  0  0  0  0  0  0  0  0  0  0  0
  141.4010   78.5073  224.8059 H   0  0  0  0  0  0  0  0  0  0  0  0
  141.2896   76.8251  223.0329 H   0  0  0  0  0  0  0  0  0  0  0  0
  140.8777   77.6551  219.5973 H   0  0  0  0  0  0  0  0  0  0  0  0
  143.3960   77.5016  219.3789 H   0  0  0  0  0  0  0  0  0  0  0  0
  143.6076   76.7671  220.9265 H   0  0  0  0  0  0  0  0  0  0  0  0
  142.2177   75.5691  218.4095 H   0  0  0  0  0  0  0  0  0  0  0  0
  143.5554   74.8406  219.2371 H   0  0  0  0  0  0  0  0  0  0  0  0
  141.1165   74.0192  219.9354 H   0  0  0  0  0  0  0  0  0  0  0  0
  142.1427   74.4376  221.2888 H   0  0  0  0  0  0  0  0  0  0  0  0
  137.6160   74.8377  220.9146 H   0  0  0  0  0  0  0  0  0  0  0  0
  139.0516   74.1310  220.0689 H   0  0  0  0  0  0  0  0  0  0  0  0
  138.9060   74.0840  223.0890 H   0  0  0  0  0  0  0  0  0  0  0  0
  138.5874   69.7744  221.9580 H   0  0  0  0  0  0  0  0  0  0  0  0
  138.9442   68.1962  223.8069 H   0  0  0  0  0  0  0  0  0  0  0  0
  139.8172   67.8659  226.1170 H   0  0  0  0  0  0  0  0  0  0  0  0
  141.5417   71.1529  228.2418 H   0  0  0  0  0  0  0  0  0  0  0  0
  141.1031   72.6093  226.2793 H   0  0  0  0  0  0  0  0  0  0  0  0
  1  2  3  0
  2  3  1  0
  3  4  2  0
  4  5  1  0
  5  6  2  0
  6  7  1  0
  7  8  2  0
  8  9  1  0
  9 10  1  0
 10 11  1  0
 11 12  1  0
 12 13  1  0
 13 14  1  0
 14 15  2  0
 14 16  1  0
 16 17  1  0
 17 18  1  0
 18 19  2  0
 18 20  1  0
 20 21  2  0
 21 22  1  0
 22 23  2  0
 23 24  1  0
 24 25  2  0
 25 26  1  0
 25 27  1  0
 27 28  2  0
 28 29  1  0
 29 30  2  0
  8  3  1  0
 13  9  1  0
 30 20  1  0
 29 23  1  0
  4 31  1  0
  5 32  1  0
  6 33  1  0
  7 34  1  0
  9 35  1  6
 10 36  1  0
 10 37  1  0
 11 38  1  0
 11 39  1  0
 12 40  1  0
 12 41  1  0
 16 42  1  0
 16 43  1  0
 17 44  1  0
 21 45  1  0
 22 46  1  0
 24 47  1  0
 27 48  1  0
 28 49  1  0
M  END
>  <smiles>  (9) 
N#Cc1ccccc1[C@H]1CCCN1C(=O)CNC(=O)c1ccc2cc(Cl)ccc2n1

>  <score_type>  (9) 
oracle

>  <origin>  (9) 
autodockgpu

>  <m_score__min__energy>  (9) 
-9.0500000000000007

>  <m_primary>  (9) 
energy

>  <rmsd>  (9) 
4.107145882200475

>  <m_score__min__rmsd>  (9) 
4.107145882200475

>  <meeko>  (9) 
{"free_energy": -8.63, "intermolecular_energy": -10.42, "internal_energy": -1.7, "cluster_size": 21, "cluster_id": 2, "rank_in_cluster": 8}

>  <energy>  (9) 
-8.7

>  <cluster_rmsd>  (9) 
0.24

>  <cluster>  (9) 
2

$$$$

     RDKit          3D

 49 52  0  0  0  0  0  0  0  0999 V2000
  137.6660   79.5690  221.1860 N   0  0  0  0  0  0  0  0  0  0  0  0
  138.7180   79.6390  221.6100 C   0  0  0  0  0  0  0  0  0  0  0  0
  140.0260   79.7120  222.1590 C   0  0  0  0  0  0  0  0  0  0  0  0
  140.2140   80.5740  223.2450 C   0  0  0  0  0  0  0  0  0  0  0  0
  141.4480   80.7080  223.8440 C   0  0  0  0  0  0  0  0  0  0  0  0
  142.4780   79.9560  223.3210 C   0  0  0  0  0  0  0  0  0  0  0  0
  142.2930   79.1070  222.2510 C   0  0  0  0  0  0  0  0  0  0  0  0
  141.0430   78.9590  221.6310 C   0  0  0  0  0  0  0  0  0  0  0  0
  140.9050   78.0550  220.5120 C   0  0  1  0  0  0  0  0  0  0  0  0
  142.2050   78.1570  219.6980 C   0  0  0  0  0  0  0  0  0  0  0  0
  142.0920   76.8720  218.9020 C   0  0  0  0  0  0  0  0  0  0  0  0
  141.6860   75.9090  219.9960 C   0  0  0  0  0  0  0  0  0  0  0  0
  140.6880   76.6710  220.7430 N   0  0  0  0  0  0  0  0  0  0  0  0
  139.6520   76.1470  221.5720 C   0  0  0  0  0  0  0  0  0  0  0  0
  139.1880   76.7650  222.5450 O   0  0  0  0  0  0  0  0  0  0  0  0
  139.1060   74.7920  221.2480 C   0  0  0  0  0  0  0  0  0  0  0  0
  139.3390   73.8600  222.3270 N   0  0  0  0  0  0  0  0  0  0  0  0
  139.2670   72.4720  222.0120 C   0  0  0  0  0  0  0  0  0  0  0  0
  139.0110   72.0670  220.8520 O   0  0  0  0  0  0  0  0  0  0  0  0
  139.5040   71.5190  223.1120 C   0  0  0  0  0  0  0  0  0  0  0  0
  139.1620   70.1890  222.9840 C   0  0  0  0  0  0  0  0  0  0  0  0
  139.3560   69.2550  223.9660 C   0  0  0  0  0  0  0  0  0  0  0  0
  139.9280   69.6740  225.1490 C   0  0  0  0  0  0  0  0  0  0  0  0
  140.1780   68.8440  226.2120 C   0  0  0  0  0  0  0  0  0  0  0  0
  140.7520   69.2820  227.3890 C   0  0  0  0  0  0  0  0  0  0  0  0
  141.0720   68.2260  228.7450 Cl  0  0  0  0  0  0  0  0  0  0  0  0
  141.0880   70.6120  227.4990 C   0  0  0  0  0  0  0  0  0  0  0  0
  140.8430   71.4690  226.4340 C   0  0  0  0  0  0  0  0  0  0  0  0
  140.2620   71.0070  225.2520 C   0  0  0  0  0  0  0  0  0  0  0  0
  140.0600   71.8970  224.2780 N   0  0  0  0  0  0  0  0  0  0  0  0
  139.3618   81.1550  223.6274 H   0  0  0  0  0  0  0  0  0  0  0  0
  141.6035   81.3828  224.6986 H   0  0  0  0  0  0  0  0  0  0  0  0
  143.4784   80.0359  223.7714 H   0  0  0  0  0  0  0  0  0  0  0  0
  143.1492   78.5294  221.8726 H   0  0  0  0  0  0  0  0  0  0  0  0
  139.9740   78.3891  220.0308 H   0  0  0  0  0  0  0  0  0  0  0  0
  142.2155   79.0445  219.0482 H   0  0  0  0  0  0  0  0  0  0  0  0
  143.1254   78.2654  220.2906 H   0  0  0  0  0  0  0  0  0  0  0  0
  141.3232   76.9451  218.1186 H   0  0  0  0  0  0  0  0  0  0  0  0
  143.0032   76.5885  218.3548 H   0  0  0  0  0  0  0  0  0  0  0  0
  141.2500   74.9912  219.5745 H   0  0  0  0  0  0  0  0  0  0  0  0
  142.5303   75.5720  220.6154 H   0  0  0  0  0  0  0  0  0  0  0  0
  138.0231   74.8745  221.0734 H   0  0  0  0  0  0  0  0  0  0  0  0
  139.6179   74.4174  220.3493 H   0  0  0  0  0  0  0  0  0  0  0  0
  139.5540   74.1850  223.2970 H   0  0  0  0  0  0  0  0  0  0  0  0
  138.7071   69.8597  222.0382 H   0  0  0  0  0  0  0  0  0  0  0  0
  139.0652   68.2047  223.8164 H   0  0  0  0  0  0  0  0  0  0  0  0
  139.9090   67.7811  226.1228 H   0  0  0  0  0  0  0  0  0  0  0  0
  141.5470   70.9932  228.4231 H   0  0  0  0  0  0  0  0  0  0  0  0
  141.1119   72.5319  226.5237 H   0  0  0  0  0  0  0  0  0  0  0  0
  1  2  3  0
  2  3  1  0
  3  4  2  0
  4  5  1  0
  5  6  2  0
  6  7  1  0
  7  8  2  0
  8  9  1  0
  9 10  1  0
 10 11  1  0
 11 12  1  0
 12 13  1  0
 13 14  1  0
 14 15  2  0
 14 16  1  0
 16 17  1  0
 17 18  1  0
 18 19  2  0
 18 20  1  0
 20 21  2  0
 21 22  1  0
 22 23  2  0
 23 24  1  0
 24 25  2  0
 25 26  1  0
 25 27  1  0
 27 28  2  0
 28 29  1  0
 29 30  2  0
  8  3  1  0
 13  9  1  0
 30 20  1  0
 29 23  1  0
  4 31  1  0
  5 32  1  0
  6 33  1  0
  7 34  1  0
  9 35  1  6
 10 36  1  0
 10 37  1  0
 11 38  1  0
 11 39  1  0
 12 40  1  0
 12 41  1  0
 16 42  1  0
 16 43  1  0
 17 44  1  0
 21 45  1  0
 22 46  1  0
 24 47  1  0
 27 48  1  0
 28 49  1  0
M  END
>  <smiles>  (10) 
N#Cc1ccccc1[C@H]1CCCN1C(=O)CNC(=O)c1ccc2cc(Cl)ccc2n1

>  <score_type>  (10) 
oracle

>  <origin>  (10) 
autodockgpu

>  <m_score__min__energy>  (10) 
-9.0500000000000007

>  <m_primary>  (10) 
energy

>  <rmsd>  (10) 
3.755171437360818

>  <m_score__min__rmsd>  (10) 
3.755171437360818

>  <meeko>  (10) 
{"free_energy": -8.39, "intermolecular_energy": -10.18, "internal_energy": -1.86, "cluster_size": 21, "cluster_id": 2, "rank_in_cluster": 16}

>  <energy>  (10) 
-8.7

>  <cluster_rmsd>  (10) 
0.26

>  <cluster>  (10) 
2

$$$$

     RDKit          3D

 49 52  0  0  0  0  0  0  0  0999 V2000
  140.6120   72.8090  222.6860 N   0  0  0  0  0  0  0  0  0  0  0  0
  140.4520   72.1760  223.6160 C   0  0  0  0  0  0  0  0  0  0  0  0
  140.2730   71.3720  224.7740 C   0  0  0  0  0  0  0  0  0  0  0  0
  140.9170   71.7880  225.9440 C   0  0  0  0  0  0  0  0  0  0  0  0
  140.7980   71.0720  227.1160 C   0  0  0  0  0  0  0  0  0  0  0  0
  140.0210   69.9340  227.0750 C   0  0  0  0  0  0  0  0  0  0  0  0
  139.3890   69.5240  225.9210 C   0  0  0  0  0  0  0  0  0  0  0  0
  139.4980   70.2410  224.7200 C   0  0  0  0  0  0  0  0  0  0  0  0
  138.8140   69.7650  223.5400 C   0  0  1  0  0  0  0  0  0  0  0  0
  138.8250   68.2300  223.6100 C   0  0  0  0  0  0  0  0  0  0  0  0
  137.7160   67.9350  222.6210 C   0  0  0  0  0  0  0  0  0  0  0  0
  136.6750   68.9350  223.0730 C   0  0  0  0  0  0  0  0  0  0  0  0
  137.4660   70.1430  223.3030 N   0  0  0  0  0  0  0  0  0  0  0  0
  136.9970   71.4910  223.2950 C   0  0  0  0  0  0  0  0  0  0  0  0
  136.4470   72.0190  224.2750 O   0  0  0  0  0  0  0  0  0  0  0  0
  137.1820   72.2940  222.0470 C   0  0  0  0  0  0  0  0  0  0  0  0
  137.8360   73.5520  222.3250 N   0  0  0  0  0  0  0  0  0  0  0  0
  137.1090   74.7410  222.0280 C   0  0  0  0  0  0  0  0  0  0  0  0
  135.9510   74.7070  221.5430 O   0  0  0  0  0  0  0  0  0  0  0  0
  137.7730   76.0260  222.3100 C   0  0  0  0  0  0  0  0  0  0  0  0
  137.0410   77.1820  222.4780 C   0  0  0  0  0  0  0  0  0  0  0  0
  137.5960   78.4060  222.7420 C   0  0  0  0  0  0  0  0  0  0  0  0
  138.9690   78.4780  222.8460 C   0  0  0  0  0  0  0  0  0  0  0  0
  139.6540   79.6380  223.1070 C   0  0  0  0  0  0  0  0  0  0  0  0
  141.0300   79.6930  223.2080 C   0  0  0  0  0  0  0  0  0  0  0  0
  141.9050   81.1690  223.5410 Cl  0  0  0  0  0  0  0  0  0  0  0  0
  141.7460   78.5290  223.0380 C   0  0  0  0  0  0  0  0  0  0  0  0
  141.0710   77.3440  222.7730 C   0  0  0  0  0  0  0  0  0  0  0  0
  139.6800   77.3100  222.6750 C   0  0  0  0  0  0  0  0  0  0  0  0
  139.1110   76.1310  222.4170 N   0  0  0  0  0  0  0  0  0  0  0  0
  141.5288   72.7020  225.9286 H   0  0  0  0  0  0  0  0  0  0  0  0
  141.2996   71.3937  228.0406 H   0  0  0  0  0  0  0  0  0  0  0  0
  139.9019   69.3356  227.9903 H   0  0  0  0  0  0  0  0  0  0  0  0
  138.7811   68.6075  225.9422 H   0  0  0  0  0  0  0  0  0  0  0  0
  139.3680   70.2416  222.7179 H   0  0  0  0  0  0  0  0  0  0  0  0
  139.7885   67.8100  223.2855 H   0  0  0  0  0  0  0  0  0  0  0  0
  138.6868   67.8030  224.6143 H   0  0  0  0  0  0  0  0  0  0  0  0
  138.0352   68.1205  221.5848 H   0  0  0  0  0  0  0  0  0  0  0  0
  137.3751   66.8892  222.6111 H   0  0  0  0  0  0  0  0  0  0  0  0
  135.9180   69.0996  222.2920 H   0  0  0  0  0  0  0  0  0  0  0  0
  136.1118   68.6074  223.9593 H   0  0  0  0  0  0  0  0  0  0  0  0
  137.7969   71.7192  221.3388 H   0  0  0  0  0  0  0  0  0  0  0  0
  136.1907   72.5048  221.6193 H   0  0  0  0  0  0  0  0  0  0  0  0
  138.8000   73.5940  222.7290 H   0  0  0  0  0  0  0  0  0  0  0  0
  135.9460   77.1176  222.3951 H   0  0  0  0  0  0  0  0  0  0  0  0
  136.9681   79.3006  222.8668 H   0  0  0  0  0  0  0  0  0  0  0  0
  139.0805   80.5669  223.2420 H   0  0  0  0  0  0  0  0  0  0  0  0
  142.8435   78.5374  223.1114 H   0  0  0  0  0  0  0  0  0  0  0  0
  141.6443   76.4150  222.6379 H   0  0  0  0  0  0  0  0  0  0  0  0
  1  2  3  0
  2  3  1  0
  3  4  2  0
  4  5  1  0
  5  6  2  0
  6  7  1  0
  7  8  2  0
  8  9  1  0
  9 10  1  0
 10 11  1  0
 11 12  1  0
 12 13  1  0
 13 14  1  0
 14 15  2  0
 14 16  1  0
 16 17  1  0
 17 18  1  0
 18 19  2  0
 18 20  1  0
 20 21  2  0
 21 22  1  0
 22 23  2  0
 23 24  1  0
 24 25  2  0
 25 26  1  0
 25 27  1  0
 27 28  2  0
 28 29  1  0
 29 30  2  0
  8  3  1  0
 13  9  1  0
 30 20  1  0
 29 23  1  0
  4 31  1  0
  5 32  1  0
  6 33  1  0
  7 34  1  0
  9 35  1  6
 10 36  1  0
 10 37  1  0
 11 38  1  0
 11 39  1  0
 12 40  1  0
 12 41  1  0
 16 42  1  0
 16 43  1  0
 17 44  1  0
 21 45  1  0
 22 46  1  0
 24 47  1  0
 27 48  1  0
 28 49  1  0
M  END
>  <smiles>  (11) 
N#Cc1ccccc1[C@H]1CCCN1C(=O)CNC(=O)c1ccc2cc(Cl)ccc2n1

>  <score_type>  (11) 
oracle

>  <origin>  (11) 
autodockgpu

>  <m_score__min__energy>  (11) 
-9.0500000000000007

>  <m_primary>  (11) 
energy

>  <rmsd>  (11) 
9.883899774221181

>  <m_score__min__rmsd>  (11) 
9.883899774221181

>  <meeko>  (11) 
{"free_energy": -7.91, "intermolecular_energy": -9.7, "internal_energy": -2.71, "cluster_size": 17, "cluster_id": 5, "rank_in_cluster": 14}

>  <energy>  (11) 
-8.68

>  <cluster_rmsd>  (11) 
0.65

>  <cluster>  (11) 
2

$$$$

     RDKit          3D

 49 52  0  0  0  0  0  0  0  0999 V2000
  137.6570   79.1800  223.1070 N   0  0  0  0  0  0  0  0  0  0  0  0
  138.7690   79.3680  222.9690 C   0  0  0  0  0  0  0  0  0  0  0  0
  140.1600   79.6120  222.8200 C   0  0  0  0  0  0  0  0  0  0  0  0
  140.8020   80.2930  223.8600 C   0  0  0  0  0  0  0  0  0  0  0  0
  142.1510   80.5720  223.8040 C   0  0  0  0  0  0  0  0  0  0  0  0
  142.8280   80.1500  222.6800 C   0  0  0  0  0  0  0  0  0  0  0  0
  142.1950   79.4800  221.6550 C   0  0  0  0  0  0  0  0  0  0  0  0
  140.8230   79.1880  221.6970 C   0  0  0  0  0  0  0  0  0  0  0  0
  140.2100   78.4830  220.5930 C   0  0  1  0  0  0  0  0  0  0  0  0
  140.7990   79.0800  219.3050 C   0  0  0  0  0  0  0  0  0  0  0  0
  140.4420   77.9680  218.3400 C   0  0  0  0  0  0  0  0  0  0  0  0
  140.8610   76.7600  219.1490 C   0  0  0  0  0  0  0  0  0  0  0  0
  140.3580   77.0750  220.4840 N   0  0  0  0  0  0  0  0  0  0  0  0
  140.0530   76.1510  221.5270 C   0  0  0  0  0  0  0  0  0  0  0  0
  140.2300   76.4080  222.7300 O   0  0  0  0  0  0  0  0  0  0  0  0
  139.4940   74.8170  221.1460 C   0  0  0  0  0  0  0  0  0  0  0  0
  139.5770   73.8800  222.2430 N   0  0  0  0  0  0  0  0  0  0  0  0
  139.6980   72.5000  221.9090 C   0  0  0  0  0  0  0  0  0  0  0  0
  139.7290   72.1040  220.7180 O   0  0  0  0  0  0  0  0  0  0  0  0
  139.7820   71.5420  223.0260 C   0  0  0  0  0  0  0  0  0  0  0  0
  139.3480   70.2410  222.8810 C   0  0  0  0  0  0  0  0  0  0  0  0
  139.3990   69.3040  223.8780 C   0  0  0  0  0  0  0  0  0  0  0  0
  139.9180   69.6890  225.0960 C   0  0  0  0  0  0  0  0  0  0  0  0
  140.0280   68.8520  226.1770 C   0  0  0  0  0  0  0  0  0  0  0  0
  140.5510   69.2550  227.3900 C   0  0  0  0  0  0  0  0  0  0  0  0
  140.6920   68.1900  228.7690 Cl  0  0  0  0  0  0  0  0  0  0  0  0
  140.9800   70.5570  227.5180 C   0  0  0  0  0  0  0  0  0  0  0  0
  140.8780   71.4200  226.4340 C   0  0  0  0  0  0  0  0  0  0  0  0
  140.3470   70.9930  225.2170 C   0  0  0  0  0  0  0  0  0  0  0  0
  140.2840   71.8870  224.2270 N   0  0  0  0  0  0  0  0  0  0  0  0
  140.2203   80.6114  224.7376 H   0  0  0  0  0  0  0  0  0  0  0  0
  142.6629   81.1062  224.6180 H   0  0  0  0  0  0  0  0  0  0  0  0
  143.9058   80.3540  222.5984 H   0  0  0  0  0  0  0  0  0  0  0  0
  142.7819   79.1654  220.7794 H   0  0  0  0  0  0  0  0  0  0  0  0
  139.1333   78.6197  220.7719 H   0  0  0  0  0  0  0  0  0  0  0  0
  140.3174   80.0311  219.0340 H   0  0  0  0  0  0  0  0  0  0  0  0
  141.8667   79.3405  219.3508 H   0  0  0  0  0  0  0  0  0  0  0  0
  139.3651   77.9539  218.1163 H   0  0  0  0  0  0  0  0  0  0  0  0
  140.9182   78.0468  217.3515 H   0  0  0  0  0  0  0  0  0  0  0  0
  140.3990   75.8415  218.7580 H   0  0  0  0  0  0  0  0  0  0  0  0
  141.9448   76.5737  219.1244 H   0  0  0  0  0  0  0  0  0  0  0  0
  138.4394   74.9394  220.8583 H   0  0  0  0  0  0  0  0  0  0  0  0
  140.0832   74.4209  220.3058 H   0  0  0  0  0  0  0  0  0  0  0  0
  139.5530   74.1960  223.2390 H   0  0  0  0  0  0  0  0  0  0  0  0
  138.9366   69.9382  221.9068 H   0  0  0  0  0  0  0  0  0  0  0  0
  139.0379   68.2782  223.7128 H   0  0  0  0  0  0  0  0  0  0  0  0
  139.6840   67.8124  226.0731 H   0  0  0  0  0  0  0  0  0  0  0  0
  141.4001   70.9111  228.4709 H   0  0  0  0  0  0  0  0  0  0  0  0
  141.2225   72.4595  226.5375 H   0  0  0  0  0  0  0  0  0  0  0  0
  1  2  3  0
  2  3  1  0
  3  4  2  0
  4  5  1  0
  5  6  2  0
  6  7  1  0
  7  8  2  0
  8  9  1  0
  9 10  1  0
 10 11  1  0
 11 12  1  0
 12 13  1  0
 13 14  1  0
 14 15  2  0
 14 16  1  0
 16 17  1  0
 17 18  1  0
 18 19  2  0
 18 20  1  0
 20 21  2  0
 21 22  1  0
 22 23  2  0
 23 24  1  0
 24 25  2  0
 25 26  1  0
 25 27  1  0
 27 28  2  0
 28 29  1  0
 29 30  2  0
  8  3  1  0
 13  9  1  0
 30 20  1  0
 29 23  1  0
  4 31  1  0
  5 32  1  0
  6 33  1  0
  7 34  1  0
  9 35  1  6
 10 36  1  0
 10 37  1  0
 11 38  1  0
 11 39  1  0
 12 40  1  0
 12 41  1  0
 16 42  1  0
 16 43  1  0
 17 44  1  0
 21 45  1  0
 22 46  1  0
 24 47  1  0
 27 48  1  0
 28 49  1  0
M  END
>  <smiles>  (12) 
N#Cc1ccccc1[C@H]1CCCN1C(=O)CNC(=O)c1ccc2cc(Cl)ccc2n1

>  <score_type>  (12) 
oracle

>  <origin>  (12) 
autodockgpu

>  <m_score__min__energy>  (12) 
-9.0500000000000007

>  <m_primary>  (12) 
energy

>  <rmsd>  (12) 
3.7634611056562277

>  <m_score__min__rmsd>  (12) 
3.7634611056562277

>  <meeko>  (12) 
{"free_energy": -8.47, "intermolecular_energy": -10.26, "internal_energy": -2.07, "cluster_size": 21, "cluster_id": 2, "rank_in_cluster": 15}

>  <energy>  (12) 
-8.63

>  <cluster_rmsd>  (12) 
1.48

>  <cluster>  (12) 
2

$$$$

     RDKit          3D

 49 52  0  0  0  0  0  0  0  0999 V2000
  140.5360   72.7490  222.7260 N   0  0  0  0  0  0  0  0  0  0  0  0
  140.3720   72.0630  223.6180 C   0  0  0  0  0  0  0  0  0  0  0  0
  140.1540   71.2230  224.7420 C   0  0  0  0  0  0  0  0  0  0  0  0
  140.8140   71.5630  225.9280 C   0  0  0  0  0  0  0  0  0  0  0  0
  140.6600   70.8070  227.0710 C   0  0  0  0  0  0  0  0  0  0  0  0
  139.8310   69.7100  226.9850 C   0  0  0  0  0  0  0  0  0  0  0  0
  139.1810   69.3750  225.8160 C   0  0  0  0  0  0  0  0  0  0  0  0
  139.3260   70.1340  224.6440 C   0  0  0  0  0  0  0  0  0  0  0  0
  138.6220   69.7370  223.4460 C   0  0  1  0  0  0  0  0  0  0  0  0
  138.5200   68.2040  223.4800 C   0  0  0  0  0  0  0  0  0  0  0  0
  137.4030   68.0150  222.4730 C   0  0  0  0  0  0  0  0  0  0  0  0
  136.4340   69.0780  222.9400 C   0  0  0  0  0  0  0  0  0  0  0  0
  137.3080   70.2190  223.2060 N   0  0  0  0  0  0  0  0  0  0  0  0
  136.9400   71.5970  223.2260 C   0  0  0  0  0  0  0  0  0  0  0  0
  136.4370   72.1460  224.2210 O   0  0  0  0  0  0  0  0  0  0  0  0
  137.1750   72.4080  221.9920 C   0  0  0  0  0  0  0  0  0  0  0  0
  137.8260   73.6600  222.3020 N   0  0  0  0  0  0  0  0  0  0  0  0
  137.1060   74.8550  222.0090 C   0  0  0  0  0  0  0  0  0  0  0  0
  135.9580   74.8310  221.5020 O   0  0  0  0  0  0  0  0  0  0  0  0
  137.7680   76.1340  222.3250 C   0  0  0  0  0  0  0  0  0  0  0  0
  137.0300   77.2740  222.5650 C   0  0  0  0  0  0  0  0  0  0  0  0
  137.5830   78.4910  222.8630 C   0  0  0  0  0  0  0  0  0  0  0  0
  138.9580   78.5740  222.9260 C   0  0  0  0  0  0  0  0  0  0  0  0
  139.6400   79.7290  223.2140 C   0  0  0  0  0  0  0  0  0  0  0  0
  141.0190   79.7940  223.2730 C   0  0  0  0  0  0  0  0  0  0  0  0
  141.8890   81.2640  223.6400 Cl  0  0  0  0  0  0  0  0  0  0  0  0
  141.7390   78.6460  223.0300 C   0  0  0  0  0  0  0  0  0  0  0  0
  141.0670   77.4660  222.7370 C   0  0  0  0  0  0  0  0  0  0  0  0
  139.6730   77.4210  222.6830 C   0  0  0  0  0  0  0  0  0  0  0  0
  139.1070   76.2480  222.3930 N   0  0  0  0  0  0  0  0  0  0  0  0
  141.4667   72.4482  225.9490 H   0  0  0  0  0  0  0  0  0  0  0  0
  141.1749   71.0676  228.0075 H   0  0  0  0  0  0  0  0  0  0  0  0
  139.6831   69.0822  227.8761 H   0  0  0  0  0  0  0  0  0  0  0  0
  138.5305   68.4880  225.8014 H   0  0  0  0  0  0  0  0  0  0  0  0
  139.2181   70.1900  222.6401 H   0  0  0  0  0  0  0  0  0  0  0  0
  139.4537   67.7217  223.1549 H   0  0  0  0  0  0  0  0  0  0  0  0
  138.3399   67.7650  224.4724 H   0  0  0  0  0  0  0  0  0  0  0  0
  137.7465   68.2011  221.4447 H   0  0  0  0  0  0  0  0  0  0  0  0
  136.9862   66.9978  222.4339 H   0  0  0  0  0  0  0  0  0  0  0  0
  135.6992   69.3159  222.1567 H   0  0  0  0  0  0  0  0  0  0  0  0
  135.8397   68.7719  223.8136 H   0  0  0  0  0  0  0  0  0  0  0  0
  137.8116   71.8344  221.3022 H   0  0  0  0  0  0  0  0  0  0  0  0
  136.2009   72.6283  221.5309 H   0  0  0  0  0  0  0  0  0  0  0  0
  138.7810   73.6930  222.7240 H   0  0  0  0  0  0  0  0  0  0  0  0
  135.9336   77.2016  222.5141 H   0  0  0  0  0  0  0  0  0  0  0  0
  136.9514   79.3728  223.0460 H   0  0  0  0  0  0  0  0  0  0  0  0
  139.0627   80.6452  223.4068 H   0  0  0  0  0  0  0  0  0  0  0  0
  142.8382   78.6630  223.0676 H   0  0  0  0  0  0  0  0  0  0  0  0
  141.6444   76.5498  222.5439 H   0  0  0  0  0  0  0  0  0  0  0  0
  1  2  3  0
  2  3  1  0
  3  4  2  0
  4  5  1  0
  5  6  2  0
  6  7  1  0
  7  8  2  0
  8  9  1  0
  9 10  1  0
 10 11  1  0
 11 12  1  0
 12 13  1  0
 13 14  1  0
 14 15  2  0
 14 16  1  0
 16 17  1  0
 17 18  1  0
 18 19  2  0
 18 20  1  0
 20 21  2  0
 21 22  1  0
 22 23  2  0
 23 24  1  0
 24 25  2  0
 25 26  1  0
 25 27  1  0
 27 28  2  0
 28 29  1  0
 29 30  2  0
  8  3  1  0
 13  9  1  0
 30 20  1  0
 29 23  1  0
  4 31  1  0
  5 32  1  0
  6 33  1  0
  7 34  1  0
  9 35  1  6
 10 36  1  0
 10 37  1  0
 11 38  1  0
 11 39  1  0
 12 40  1  0
 12 41  1  0
 16 42  1  0
 16 43  1  0
 17 44  1  0
 21 45  1  0
 22 46  1  0
 24 47  1  0
 27 48  1  0
 28 49  1  0
M  END
>  <smiles>  (13) 
N#Cc1ccccc1[C@H]1CCCN1C(=O)CNC(=O)c1ccc2cc(Cl)ccc2n1

>  <score_type>  (13) 
oracle

>  <origin>  (13) 
autodockgpu

>  <m_score__min__energy>  (13) 
-9.0500000000000007

>  <m_primary>  (13) 
energy

>  <rmsd>  (13) 
9.963676393548866

>  <m_score__min__rmsd>  (13) 
9.963676393548866

>  <meeko>  (13) 
{"free_energy": -7.97, "intermolecular_energy": -9.76, "internal_energy": -2.66, "cluster_size": 17, "cluster_id": 5, "rank_in_cluster": 5}

>  <energy>  (13) 
-8.62

>  <cluster_rmsd>  (13) 
0.65

>  <cluster>  (13) 
2

$$$$

     RDKit          3D

 49 52  0  0  0  0  0  0  0  0999 V2000
  138.0270   78.6830  222.4270 N   0  0  0  0  0  0  0  0  0  0  0  0
  139.0620   79.1410  222.5360 C   0  0  0  0  0  0  0  0  0  0  0  0
  140.3570   79.7120  222.6470 C   0  0  0  0  0  0  0  0  0  0  0  0
  140.6250   80.4640  223.7950 C   0  0  0  0  0  0  0  0  0  0  0  0
  141.8550   81.0540  223.9910 C   0  0  0  0  0  0  0  0  0  0  0  0
  142.7990   80.8670  223.0040 C   0  0  0  0  0  0  0  0  0  0  0  0
  142.5340   80.1270  221.8720 C   0  0  0  0  0  0  0  0  0  0  0  0
  141.2880   79.5190  221.6580 C   0  0  0  0  0  0  0  0  0  0  0  0
  141.0650   78.7540  220.4520 C   0  0  1  0  0  0  0  0  0  0  0  0
  141.8660   79.4420  219.3360 C   0  0  0  0  0  0  0  0  0  0  0  0
  141.9090   78.3060  218.3350 C   0  0  0  0  0  0  0  0  0  0  0  0
  142.2750   77.1540  219.2450 C   0  0  0  0  0  0  0  0  0  0  0  0
  141.4220   77.3800  220.4100 N   0  0  0  0  0  0  0  0  0  0  0  0
  140.9970   76.4080  221.3650 C   0  0  0  0  0  0  0  0  0  0  0  0
  140.9880   76.6230  222.5880 O   0  0  0  0  0  0  0  0  0  0  0  0
  140.5430   75.0760  220.8590 C   0  0  0  0  0  0  0  0  0  0  0  0
  140.5970   74.0740  221.9000 N   0  0  0  0  0  0  0  0  0  0  0  0
  139.7560   72.9340  221.7470 C   0  0  0  0  0  0  0  0  0  0  0  0
  138.9960   72.7980  220.7570 O   0  0  0  0  0  0  0  0  0  0  0  0
  139.8080   71.9120  222.8070 C   0  0  0  0  0  0  0  0  0  0  0  0
  139.2790   70.6540  222.6070 C   0  0  0  0  0  0  0  0  0  0  0  0
  139.2960   69.6600  223.5490 C   0  0  0  0  0  0  0  0  0  0  0  0
  139.8790   69.9400  224.7670 C   0  0  0  0  0  0  0  0  0  0  0  0
  139.9640   69.0380  225.7970 C   0  0  0  0  0  0  0  0  0  0  0  0
  140.5510   69.3360  227.0110 C   0  0  0  0  0  0  0  0  0  0  0  0
  140.6610   68.1880  228.3250 Cl  0  0  0  0  0  0  0  0  0  0  0  0
  141.0750   70.5960  227.1940 C   0  0  0  0  0  0  0  0  0  0  0  0
  140.9990   71.5240  226.1630 C   0  0  0  0  0  0  0  0  0  0  0  0
  140.4010   71.2030  224.9430 C   0  0  0  0  0  0  0  0  0  0  0  0
  140.3700   72.1530  224.0070 N   0  0  0  0  0  0  0  0  0  0  0  0
  139.8398   80.5869  224.5555 H   0  0  0  0  0  0  0  0  0  0  0  0
  142.0731   81.6460  224.8921 H   0  0  0  0  0  0  0  0  0  0  0  0
  143.7933   81.3219  223.1235 H   0  0  0  0  0  0  0  0  0  0  0  0
  143.3225   80.0097  221.1141 H   0  0  0  0  0  0  0  0  0  0  0  0
  139.9690   78.7426  220.3593 H   0  0  0  0  0  0  0  0  0  0  0  0
  141.3426   80.3232  218.9366 H   0  0  0  0  0  0  0  0  0  0  0  0
  142.8452   79.8429  219.6367 H   0  0  0  0  0  0  0  0  0  0  0  0
  140.9317   78.1501  217.8548 H   0  0  0  0  0  0  0  0  0  0  0  0
  142.5981   78.4624  217.4920 H   0  0  0  0  0  0  0  0  0  0  0  0
  142.0504   76.1873  218.7707 H   0  0  0  0  0  0  0  0  0  0  0  0
  143.3466   77.1153  219.4901 H   0  0  0  0  0  0  0  0  0  0  0  0
  139.5074   75.1633  220.4986 H   0  0  0  0  0  0  0  0  0  0  0  0
  141.2133   74.7668  220.0434 H   0  0  0  0  0  0  0  0  0  0  0  0
  141.2260   74.1760  222.7290 H   0  0  0  0  0  0  0  0  0  0  0  0
  138.8161   70.4362  221.6332 H   0  0  0  0  0  0  0  0  0  0  0  0
  138.8595   68.6719  223.3411 H   0  0  0  0  0  0  0  0  0  0  0  0
  139.5456   68.0315  225.6492 H   0  0  0  0  0  0  0  0  0  0  0  0
  141.5500   70.8657  228.1488 H   0  0  0  0  0  0  0  0  0  0  0  0
  141.4178   72.5304  226.3106 H   0  0  0  0  0  0  0  0  0  0  0  0
  1  2  3  0
  2  3  1  0
  3  4  2  0
  4  5  1  0
  5  6  2  0
  6  7  1  0
  7  8  2  0
  8  9  1  0
  9 10  1  0
 10 11  1  0
 11 12  1  0
 12 13  1  0
 13 14  1  0
 14 15  2  0
 14 16  1  0
 16 17  1  0
 17 18  1  0
 18 19  2  0
 18 20  1  0
 20 21  2  0
 21 22  1  0
 22 23  2  0
 23 24  1  0
 24 25  2  0
 25 26  1  0
 25 27  1  0
 27 28  2  0
 28 29  1  0
 29 30  2  0
  8  3  1  0
 13  9  1  0
 30 20  1  0
 29 23  1  0
  4 31  1  0
  5 32  1  0
  6 33  1  0
  7 34  1  0
  9 35  1  6
 10 36  1  0
 10 37  1  0
 11 38  1  0
 11 39  1  0
 12 40  1  0
 12 41  1  0
 16 42  1  0
 16 43  1  0
 17 44  1  0
 21 45  1  0
 22 46  1  0
 24 47  1  0
 27 48  1  0
 28 49  1  0
M  END
>  <smiles>  (14) 
N#Cc1ccccc1[C@H]1CCCN1C(=O)CNC(=O)c1ccc2cc(Cl)ccc2n1

>  <score_type>  (14) 
oracle

>  <origin>  (14) 
autodockgpu

>  <m_score__min__energy>  (14) 
-9.0500000000000007

>  <m_primary>  (14) 
energy

>  <rmsd>  (14) 
3.601428044216707

>  <m_score__min__rmsd>  (14) 
3.601428044216707

>  <meeko>  (14) 
{"free_energy": -8.18, "intermolecular_energy": -9.97, "internal_energy": -2.04, "cluster_size": 21, "cluster_id": 2, "rank_in_cluster": 19}

>  <energy>  (14) 
-8.6

>  <cluster_rmsd>  (14) 
1.49

>  <cluster>  (14) 
2

$$$$

     RDKit          3D

 49 52  0  0  0  0  0  0  0  0999 V2000
  140.6360   72.6200  222.7190 N   0  0  0  0  0  0  0  0  0  0  0  0
  140.3830   71.9480  223.6000 C   0  0  0  0  0  0  0  0  0  0  0  0
  140.0680   71.1280  224.7160 C   0  0  0  0  0  0  0  0  0  0  0  0
  140.6910   71.4370  225.9300 C   0  0  0  0  0  0  0  0  0  0  0  0
  140.4440   70.6970  227.0660 C   0  0  0  0  0  0  0  0  0  0  0  0
  139.5600   69.6470  226.9460 C   0  0  0  0  0  0  0  0  0  0  0  0
  138.9470   69.3420  225.7490 C   0  0  0  0  0  0  0  0  0  0  0  0
  139.1860   70.0850  224.5830 C   0  0  0  0  0  0  0  0  0  0  0  0
  138.5170   69.7210  223.3560 C   0  0  1  0  0  0  0  0  0  0  0  0
  138.4810   68.1860  223.3090 C   0  0  0  0  0  0  0  0  0  0  0  0
  137.3870   68.0020  222.2760 C   0  0  0  0  0  0  0  0  0  0  0  0
  136.3660   68.9970  222.7810 C   0  0  0  0  0  0  0  0  0  0  0  0
  137.1860   70.1580  223.1190 N   0  0  0  0  0  0  0  0  0  0  0  0
  136.7590   71.5170  223.2040 C   0  0  0  0  0  0  0  0  0  0  0  0
  136.2170   71.9910  224.2170 O   0  0  0  0  0  0  0  0  0  0  0  0
  136.9770   72.4000  222.0170 C   0  0  0  0  0  0  0  0  0  0  0  0
  137.9300   73.4460  222.3100 N   0  0  0  0  0  0  0  0  0  0  0  0
  137.8060   74.6610  221.5760 C   0  0  0  0  0  0  0  0  0  0  0  0
  136.9120   74.8250  220.7100 O   0  0  0  0  0  0  0  0  0  0  0  0
  138.7770   75.7290  221.8720 C   0  0  0  0  0  0  0  0  0  0  0  0
  140.1110   75.5840  221.5520 C   0  0  0  0  0  0  0  0  0  0  0  0
  141.0630   76.5380  221.8000 C   0  0  0  0  0  0  0  0  0  0  0  0
  140.6560   77.7090  222.4030 C   0  0  0  0  0  0  0  0  0  0  0  0
  141.5040   78.7440  222.7070 C   0  0  0  0  0  0  0  0  0  0  0  0
  141.0800   79.9110  223.3120 C   0  0  0  0  0  0  0  0  0  0  0  0
  142.1580   81.2310  223.7000 Cl  0  0  0  0  0  0  0  0  0  0  0  0
  139.7450   80.0390  223.6250 C   0  0  0  0  0  0  0  0  0  0  0  0
  138.8710   79.0020  223.3250 C   0  0  0  0  0  0  0  0  0  0  0  0
  139.3190   77.8310  222.7130 C   0  0  0  0  0  0  0  0  0  0  0  0
  138.4130   76.8840  222.4610 N   0  0  0  0  0  0  0  0  0  0  0  0
  141.3899   72.2851  225.9785 H   0  0  0  0  0  0  0  0  0  0  0  0
  140.9300   70.9336  228.0240 H   0  0  0  0  0  0  0  0  0  0  0  0
  139.3366   69.0337  227.8314 H   0  0  0  0  0  0  0  0  0  0  0  0
  138.2505   68.4916  225.7071 H   0  0  0  0  0  0  0  0  0  0  0  0
  139.1046   70.2408  222.5849 H   0  0  0  0  0  0  0  0  0  0  0  0
  139.4391   67.7617  222.9743 H   0  0  0  0  0  0  0  0  0  0  0  0
  138.3065   67.6886  224.2745 H   0  0  0  0  0  0  0  0  0  0  0  0
  137.7362   68.2556  221.2642 H   0  0  0  0  0  0  0  0  0  0  0  0
  137.0154   66.9713  222.1785 H   0  0  0  0  0  0  0  0  0  0  0  0
  135.6327   69.2438  221.9991 H   0  0  0  0  0  0  0  0  0  0  0  0
  135.7729   68.6210  223.6277 H   0  0  0  0  0  0  0  0  0  0  0  0
  137.3572   71.7920  221.1829 H   0  0  0  0  0  0  0  0  0  0  0  0
  136.0178   72.8681  221.7511 H   0  0  0  0  0  0  0  0  0  0  0  0
  138.6790   73.3210  223.0290 H   0  0  0  0  0  0  0  0  0  0  0  0
  140.4291   74.6480  221.0696 H   0  0  0  0  0  0  0  0  0  0  0  0
  142.1161   76.3750  221.5272 H   0  0  0  0  0  0  0  0  0  0  0  0
  142.5702   78.6395  222.4575 H   0  0  0  0  0  0  0  0  0  0  0  0
  139.3740   80.9547  224.1085 H   0  0  0  0  0  0  0  0  0  0  0  0
  137.8048   79.1060  223.5748 H   0  0  0  0  0  0  0  0  0  0  0  0
  1  2  3  0
  2  3  1  0
  3  4  2  0
  4  5  1  0
  5  6  2  0
  6  7  1  0
  7  8  2  0
  8  9  1  0
  9 10  1  0
 10 11  1  0
 11 12  1  0
 12 13  1  0
 13 14  1  0
 14 15  2  0
 14 16  1  0
 16 17  1  0
 17 18  1  0
 18 19  2  0
 18 20  1  0
 20 21  2  0
 21 22  1  0
 22 23  2  0
 23 24  1  0
 24 25  2  0
 25 26  1  0
 25 27  1  0
 27 28  2  0
 28 29  1  0
 29 30  2  0
  8  3  1  0
 13  9  1  0
 30 20  1  0
 29 23  1  0
  4 31  1  0
  5 32  1  0
  6 33  1  0
  7 34  1  0
  9 35  1  6
 10 36  1  0
 10 37  1  0
 11 38  1  0
 11 39  1  0
 12 40  1  0
 12 41  1  0
 16 42  1  0
 16 43  1  0
 17 44  1  0
 21 45  1  0
 22 46  1  0
 24 47  1  0
 27 48  1  0
 28 49  1  0
M  END
>  <smiles>  (15) 
N#Cc1ccccc1[C@H]1CCCN1C(=O)CNC(=O)c1ccc2cc(Cl)ccc2n1

>  <score_type>  (15) 
oracle

>  <origin>  (15) 
autodockgpu

>  <m_score__min__energy>  (15) 
-9.0500000000000007

>  <m_primary>  (15) 
energy

>  <rmsd>  (15) 
9.909804297551371

>  <m_score__min__rmsd>  (15) 
9.909804297551371

>  <meeko>  (15) 
{"free_energy": -8.16, "intermolecular_energy": -9.95, "internal_energy": -2.46, "cluster_size": 17, "cluster_id": 5, "rank_in_cluster": 2}

>  <energy>  (15) 
-8.59

>  <cluster_rmsd>  (15) 
1.18

>  <cluster>  (15) 
2

$$$$

     RDKit          3D

 49 52  0  0  0  0  0  0  0  0999 V2000
  140.5670   72.9920  222.3440 N   0  0  0  0  0  0  0  0  0  0  0  0
  141.0660   73.8240  221.7520 C   0  0  0  0  0  0  0  0  0  0  0  0
  141.7030   74.8700  221.0320 C   0  0  0  0  0  0  0  0  0  0  0  0
  142.9310   74.5720  220.4300 C   0  0  0  0  0  0  0  0  0  0  0  0
  143.6210   75.5230  219.7090 C   0  0  0  0  0  0  0  0  0  0  0  0
  143.0440   76.7710  219.6140 C   0  0  0  0  0  0  0  0  0  0  0  0
  141.8350   77.0640  220.2080 C   0  0  0  0  0  0  0  0  0  0  0  0
  141.1200   76.1080  220.9440 C   0  0  0  0  0  0  0  0  0  0  0  0
  139.8570   76.4700  221.5460 C   0  0  1  0  0  0  0  0  0  0  0  0
  139.8300   78.0040  221.6300 C   0  0  0  0  0  0  0  0  0  0  0  0
  138.3400   78.2090  221.8150 C   0  0  0  0  0  0  0  0  0  0  0  0
  137.8030   77.2700  220.7580 C   0  0  0  0  0  0  0  0  0  0  0  0
  138.6400   76.0840  220.9230 N   0  0  0  0  0  0  0  0  0  0  0  0
  138.3220   74.7470  220.5400 C   0  0  0  0  0  0  0  0  0  0  0  0
  138.8870   74.1620  219.6010 O   0  0  0  0  0  0  0  0  0  0  0  0
  137.2590   74.0270  221.3090 C   0  0  0  0  0  0  0  0  0  0  0  0
  137.8320   73.2040  222.3490 N   0  0  0  0  0  0  0  0  0  0  0  0
  137.3450   71.8690  222.4610 C   0  0  0  0  0  0  0  0  0  0  0  0
  136.4570   71.4190  221.6960 O   0  0  0  0  0  0  0  0  0  0  0  0
  137.9260   71.0280  223.5220 C   0  0  0  0  0  0  0  0  0  0  0  0
  137.4780   69.7410  223.7330 C   0  0  0  0  0  0  0  0  0  0  0  0
  137.9760   68.9080  224.7010 C   0  0  0  0  0  0  0  0  0  0  0  0
  138.9850   69.3910  225.5060 C   0  0  0  0  0  0  0  0  0  0  0  0
  139.5720   68.6650  226.5110 C   0  0  0  0  0  0  0  0  0  0  0  0
  140.5830   69.1650  227.3090 C   0  0  0  0  0  0  0  0  0  0  0  0
  141.3330   68.2410  228.5890 Cl  0  0  0  0  0  0  0  0  0  0  0  0
  141.0180   70.4510  227.0840 C   0  0  0  0  0  0  0  0  0  0  0  0
  140.4370   71.2030  226.0710 C   0  0  0  0  0  0  0  0  0  0  0  0
  139.4170   70.6790  225.2760 C   0  0  0  0  0  0  0  0  0  0  0  0
  138.9120   71.4690  224.3260 N   0  0  0  0  0  0  0  0  0  0  0  0
  143.3528   73.5614  220.5340 H   0  0  0  0  0  0  0  0  0  0  0  0
  144.5861   75.2966  219.2322 H   0  0  0  0  0  0  0  0  0  0  0  0
  143.5640   77.5572  219.0470 H   0  0  0  0  0  0  0  0  0  0  0  0
  141.4191   78.0768  220.1016 H   0  0  0  0  0  0  0  0  0  0  0  0
  139.8573   75.9076  222.4914 H   0  0  0  0  0  0  0  0  0  0  0  0
  140.4070   78.3797  222.4878 H   0  0  0  0  0  0  0  0  0  0  0  0
  140.2758   78.5311  220.7736 H   0  0  0  0  0  0  0  0  0  0  0  0
  138.0114   77.9169  222.8233 H   0  0  0  0  0  0  0  0  0  0  0  0
  138.0037   79.2518  221.7173 H   0  0  0  0  0  0  0  0  0  0  0  0
  136.7435   77.0353  220.9379 H   0  0  0  0  0  0  0  0  0  0  0  0
  137.8397   77.6909  219.7424 H   0  0  0  0  0  0  0  0  0  0  0  0
  136.5849   74.7659  221.7669 H   0  0  0  0  0  0  0  0  0  0  0  0
  136.7076   73.3762  220.6145 H   0  0  0  0  0  0  0  0  0  0  0  0
  138.5710   73.5670  222.9930 H   0  0  0  0  0  0  0  0  0  0  0  0
  136.6736   69.3604  223.0864 H   0  0  0  0  0  0  0  0  0  0  0  0
  137.5836   67.8886  224.8309 H   0  0  0  0  0  0  0  0  0  0  0  0
  139.2218   67.6377  226.6898 H   0  0  0  0  0  0  0  0  0  0  0  0
  141.8203   70.8804  227.7021 H   0  0  0  0  0  0  0  0  0  0  0  0
  140.7873   72.2303  225.8922 H   0  0  0  0  0  0  0  0  0  0  0  0
  1  2  3  0
  2  3  1  0
  3  4  2  0
  4  5  1  0
  5  6  2  0
  6  7  1  0
  7  8  2  0
  8  9  1  0
  9 10  1  0
 10 11  1  0
 11 12  1  0
 12 13  1  0
 13 14  1  0
 14 15  2  0
 14 16  1  0
 16 17  1  0
 17 18  1  0
 18 19  2  0
 18 20  1  0
 20 21  2  0
 21 22  1  0
 22 23  2  0
 23 24  1  0
 24 25  2  0
 25 26  1  0
 25 27  1  0
 27 28  2  0
 28 29  1  0
 29 30  2  0
  8  3  1  0
 13  9  1  0
 30 20  1  0
 29 23  1  0
  4 31  1  0
  5 32  1  0
  6 33  1  0
  7 34  1  0
  9 35  1  1
 10 36  1  0
 10 37  1  0
 11 38  1  0
 11 39  1  0
 12 40  1  0
 12 41  1  0
 16 42  1  0
 16 43  1  0
 17 44  1  0
 21 45  1  0
 22 46  1  0
 24 47  1  0
 27 48  1  0
 28 49  1  0
M  END
>  <smiles>  (16) 
N#Cc1ccccc1[C@H]1CCCN1C(=O)CNC(=O)c1ccc2cc(Cl)ccc2n1

>  <score_type>  (16) 
oracle

>  <origin>  (16) 
autodockgpu

>  <m_score__min__energy>  (16) 
-9.0500000000000007

>  <m_primary>  (16) 
energy

>  <rmsd>  (16) 
5.081396553215542

>  <m_score__min__rmsd>  (16) 
5.081396553215542

>  <meeko>  (16) 
{"free_energy": -7.22, "intermolecular_energy": -9.01, "internal_energy": -2.69, "cluster_size": 4, "cluster_id": 4, "rank_in_cluster": 3}

>  <energy>  (16) 
-8.56

>  <cluster_rmsd>  (16) 
1.38

>  <cluster>  (16) 
2

$$$$

     RDKit          3D

 49 52  0  0  0  0  0  0  0  0999 V2000
  140.6450   72.6350  223.0860 N   0  0  0  0  0  0  0  0  0  0  0  0
  140.4540   71.8920  223.9240 C   0  0  0  0  0  0  0  0  0  0  0  0
  140.1920   70.9710  224.9730 C   0  0  0  0  0  0  0  0  0  0  0  0
  140.6870   71.2930  226.2420 C   0  0  0  0  0  0  0  0  0  0  0  0
  140.4790   70.4600  227.3200 C   0  0  0  0  0  0  0  0  0  0  0  0
  139.7650   69.3040  227.0860 C   0  0  0  0  0  0  0  0  0  0  0  0
  139.2790   68.9870  225.8360 C   0  0  0  0  0  0  0  0  0  0  0  0
  139.4810   69.8240  224.7280 C   0  0  0  0  0  0  0  0  0  0  0  0
  138.9480   69.4430  223.4400 C   0  0  1  0  0  0  0  0  0  0  0  0
  138.8260   67.9110  223.4470 C   0  0  0  0  0  0  0  0  0  0  0  0
  137.8610   67.7410  222.2920 C   0  0  0  0  0  0  0  0  0  0  0  0
  136.8460   68.8130  222.6240 C   0  0  0  0  0  0  0  0  0  0  0  0
  137.6870   69.9410  223.0200 N   0  0  0  0  0  0  0  0  0  0  0  0
  137.3350   71.3240  222.9980 C   0  0  0  0  0  0  0  0  0  0  0  0
  136.8290   71.9060  223.9710 O   0  0  0  0  0  0  0  0  0  0  0  0
  137.5910   72.0970  221.7430 C   0  0  0  0  0  0  0  0  0  0  0  0
  138.3730   73.2830  222.0080 N   0  0  0  0  0  0  0  0  0  0  0  0
  138.7340   74.0850  220.8880 C   0  0  0  0  0  0  0  0  0  0  0  0
  138.3960   73.7830  219.7170 O   0  0  0  0  0  0  0  0  0  0  0  0
  139.5310   75.2960  221.1550 C   0  0  0  0  0  0  0  0  0  0  0  0
  140.7590   75.4840  220.5550 C   0  0  0  0  0  0  0  0  0  0  0  0
  141.5480   76.5850  220.7610 C   0  0  0  0  0  0  0  0  0  0  0  0
  141.0800   77.5580  221.6190 C   0  0  0  0  0  0  0  0  0  0  0  0
  141.7670   78.7090  221.9130 C   0  0  0  0  0  0  0  0  0  0  0  0
  141.2840   79.6740  222.7740 C   0  0  0  0  0  0  0  0  0  0  0  0
  142.1570   81.1400  223.1510 Cl  0  0  0  0  0  0  0  0  0  0  0  0
  140.0570   79.4700  223.3640 C   0  0  0  0  0  0  0  0  0  0  0  0
  139.3450   78.3120  223.0790 C   0  0  0  0  0  0  0  0  0  0  0  0
  139.8510   77.3480  222.2050 C   0  0  0  0  0  0  0  0  0  0  0  0
  139.1040   76.2640  221.9870 N   0  0  0  0  0  0  0  0  0  0  0  0
  141.2516   72.2267  226.3812 H   0  0  0  0  0  0  0  0  0  0  0  0
  140.8646   70.7059  228.3204 H   0  0  0  0  0  0  0  0  0  0  0  0
  139.5777   68.6141  227.9220 H   0  0  0  0  0  0  0  0  0  0  0  0
  138.7166   68.0510  225.7030 H   0  0  0  0  0  0  0  0  0  0  0  0
  139.6565   69.8952  222.7304 H   0  0  0  0  0  0  0  0  0  0  0  0
  139.7911   67.4201  223.2530 H   0  0  0  0  0  0  0  0  0  0  0  0
  138.5030   67.4680  224.4006 H   0  0  0  0  0  0  0  0  0  0  0  0
  138.3485   67.9286  221.3240 H   0  0  0  0  0  0  0  0  0  0  0  0
  137.4428   66.7289  222.1880 H   0  0  0  0  0  0  0  0  0  0  0  0
  136.2331   69.0644  221.7458 H   0  0  0  0  0  0  0  0  0  0  0  0
  136.1291   68.5094  223.4011 H   0  0  0  0  0  0  0  0  0  0  0  0
  138.1377   71.4582  221.0337 H   0  0  0  0  0  0  0  0  0  0  0  0
  136.6230   72.4059  221.3216 H   0  0  0  0  0  0  0  0  0  0  0  0
  138.6610   73.5460  222.9780 H   0  0  0  0  0  0  0  0  0  0  0  0
  141.1261   74.7044  219.8713 H   0  0  0  0  0  0  0  0  0  0  0  0
  142.5213   76.6893  220.2593 H   0  0  0  0  0  0  0  0  0  0  0  0
  142.7474   78.8701  221.4410 H   0  0  0  0  0  0  0  0  0  0  0  0
  139.6436   80.2185  224.0560 H   0  0  0  0  0  0  0  0  0  0  0  0
  138.3643   78.1514  223.5506 H   0  0  0  0  0  0  0  0  0  0  0  0
  1  2  3  0
  2  3  1  0
  3  4  2  0
  4  5  1  0
  5  6  2  0
  6  7  1  0
  7  8  2  0
  8  9  1  0
  9 10  1  0
 10 11  1  0
 11 12  1  0
 12 13  1  0
 13 14  1  0
 14 15  2  0
 14 16  1  0
 16 17  1  0
 17 18  1  0
 18 19  2  0
 18 20  1  0
 20 21  2  0
 21 22  1  0
 22 23  2  0
 23 24  1  0
 24 25  2  0
 25 26  1  0
 25 27  1  0
 27 28  2  0
 28 29  1  0
 29 30  2  0
  8  3  1  0
 13  9  1  0
 30 20  1  0
 29 23  1  0
  4 31  1  0
  5 32  1  0
  6 33  1  0
  7 34  1  0
  9 35  1  6
 10 36  1  0
 10 37  1  0
 11 38  1  0
 11 39  1  0
 12 40  1  0
 12 41  1  0
 16 42  1  0
 16 43  1  0
 17 44  1  0
 21 45  1  0
 22 46  1  0
 24 47  1  0
 27 48  1  0
 28 49  1  0
M  END
>  <smiles>  (17) 
N#Cc1ccccc1[C@H]1CCCN1C(=O)CNC(=O)c1ccc2cc(Cl)ccc2n1

>  <score_type>  (17) 
oracle

>  <origin>  (17) 
autodockgpu

>  <m_score__min__energy>  (17) 
-9.0500000000000007

>  <m_primary>  (17) 
energy

>  <rmsd>  (17) 
10.033286383229388

>  <m_score__min__rmsd>  (17) 
10.033286383229388

>  <meeko>  (17) 
{"free_energy": -7.89, "intermolecular_energy": -9.68, "internal_energy": -2.49, "cluster_size": 17, "cluster_id": 5, "rank_in_cluster": 15}

>  <energy>  (17) 
-8.5

>  <cluster_rmsd>  (17) 
0.64

>  <cluster>  (17) 
2

$$$$

     RDKit          3D

 49 52  0  0  0  0  0  0  0  0999 V2000
  140.2190   66.7600  226.4830 N   0  0  0  0  0  0  0  0  0  0  0  0
  140.3110   67.8850  226.6170 C   0  0  0  0  0  0  0  0  0  0  0  0
  140.4200   69.2890  226.8070 C   0  0  0  0  0  0  0  0  0  0  0  0
  141.0800   69.7240  227.9620 C   0  0  0  0  0  0  0  0  0  0  0  0
  141.2360   71.0680  228.2290 C   0  0  0  0  0  0  0  0  0  0  0  0
  140.7120   71.9510  227.3100 C   0  0  0  0  0  0  0  0  0  0  0  0
  140.0610   71.5210  226.1730 C   0  0  0  0  0  0  0  0  0  0  0  0
  139.8950   70.1570  225.8850 C   0  0  0  0  0  0  0  0  0  0  0  0
  139.2040   69.7620  224.6790 C   0  0  1  0  0  0  0  0  0  0  0  0
  137.8480   69.1860  225.1140 C   0  0  0  0  0  0  0  0  0  0  0  0
  137.1140   69.2750  223.7920 C   0  0  0  0  0  0  0  0  0  0  0  0
  137.4980   70.6730  223.3600 C   0  0  0  0  0  0  0  0  0  0  0  0
  138.9240   70.7270  223.6760 N   0  0  0  0  0  0  0  0  0  0  0  0
  139.9010   71.5890  223.0930 C   0  0  0  0  0  0  0  0  0  0  0  0
  141.0570   71.6940  223.5340 O   0  0  0  0  0  0  0  0  0  0  0  0
  139.5050   72.3970  221.8980 C   0  0  0  0  0  0  0  0  0  0  0  0
  139.2020   73.7620  222.2650 N   0  0  0  0  0  0  0  0  0  0  0  0
  140.1920   74.7460  221.9750 C   0  0  0  0  0  0  0  0  0  0  0  0
  141.2820   74.4500  221.4270 O   0  0  0  0  0  0  0  0  0  0  0  0
  139.8860   76.1390  222.3480 C   0  0  0  0  0  0  0  0  0  0  0  0
  140.8930   77.0630  222.5270 C   0  0  0  0  0  0  0  0  0  0  0  0
  140.6770   78.3700  222.8730 C   0  0  0  0  0  0  0  0  0  0  0  0
  139.3720   78.7800  223.0510 C   0  0  0  0  0  0  0  0  0  0  0  0
  139.0140   80.0580  223.3980 C   0  0  0  0  0  0  0  0  0  0  0  0
  137.7020   80.4510  223.5720 C   0  0  0  0  0  0  0  0  0  0  0  0
  137.2440   82.0790  224.0130 Cl  0  0  0  0  0  0  0  0  0  0  0  0
  136.7090   79.5150  223.3900 C   0  0  0  0  0  0  0  0  0  0  0  0
  137.0500   78.2150  223.0390 C   0  0  0  0  0  0  0  0  0  0  0  0
  138.3830   77.8380  222.8670 C   0  0  0  0  0  0  0  0  0  0  0  0
  138.6240   76.5700  222.5300 N   0  0  0  0  0  0  0  0  0  0  0  0
  141.4808   68.9819  228.6682 H   0  0  0  0  0  0  0  0  0  0  0  0
  141.7545   71.4188  229.1335 H   0  0  0  0  0  0  0  0  0  0  0  0
  140.8162   73.0314  227.4888 H   0  0  0  0  0  0  0  0  0  0  0  0
  139.6604   72.2679  225.4718 H   0  0  0  0  0  0  0  0  0  0  0  0
  139.9155   69.0785  224.1927 H   0  0  0  0  0  0  0  0  0  0  0  0
  137.9356   68.1480  225.4674 H   0  0  0  0  0  0  0  0  0  0  0  0
  137.3652   69.7013  225.9574 H   0  0  0  0  0  0  0  0  0  0  0  0
  137.4689   68.5170  223.0782 H   0  0  0  0  0  0  0  0  0  0  0  0
  136.0307   69.0950  223.8551 H   0  0  0  0  0  0  0  0  0  0  0  0
  137.3246   70.8171  222.2833 H   0  0  0  0  0  0  0  0  0  0  0  0
  136.9110   71.4598  223.8563 H   0  0  0  0  0  0  0  0  0  0  0  0
  140.3332   72.3958  221.1740 H   0  0  0  0  0  0  0  0  0  0  0  0
  138.6030   71.9471  221.4575 H   0  0  0  0  0  0  0  0  0  0  0  0
  138.2980   74.0210  222.7220 H   0  0  0  0  0  0  0  0  0  0  0  0
  141.9317   76.7307  222.3833 H   0  0  0  0  0  0  0  0  0  0  0  0
  141.5157   79.0694  223.0046 H   0  0  0  0  0  0  0  0  0  0  0  0
  139.8090   80.8041  223.5444 H   0  0  0  0  0  0  0  0  0  0  0  0
  135.6533   79.7945  223.5216 H   0  0  0  0  0  0  0  0  0  0  0  0
  136.2549   77.4688  222.8939 H   0  0  0  0  0  0  0  0  0  0  0  0
  1  2  3  0
  2  3  1  0
  3  4  2  0
  4  5  1  0
  5  6  2  0
  6  7  1  0
  7  8  2  0
  8  9  1  0
  9 10  1  0
 10 11  1  0
 11 12  1  0
 12 13  1  0
 13 14  1  0
 14 15  2  0
 14 16  1  0
 16 17  1  0
 17 18  1  0
 18 19  2  0
 18 20  1  0
 20 21  2  0
 21 22  1  0
 22 23  2  0
 23 24  1  0
 24 25  2  0
 25 26  1  0
 25 27  1  0
 27 28  2  0
 28 29  1  0
 29 30  2  0
  8  3  1  0
 13  9  1  0
 30 20  1  0
 29 23  1  0
  4 31  1  0
  5 32  1  0
  6 33  1  0
  7 34  1  0
  9 35  1  6
 10 36  1  0
 10 37  1  0
 11 38  1  0
 11 39  1  0
 12 40  1  0
 12 41  1  0
 16 42  1  0
 16 43  1  0
 17 44  1  0
 21 45  1  0
 22 46  1  0
 24 47  1  0
 27 48  1  0
 28 49  1  0
M  END
>  <smiles>  (18) 
N#Cc1ccccc1[C@H]1CCCN1C(=O)CNC(=O)c1ccc2cc(Cl)ccc2n1

>  <score_type>  (18) 
oracle

>  <origin>  (18) 
autodockgpu

>  <m_score__min__energy>  (18) 
-9.0500000000000007

>  <m_primary>  (18) 
energy

>  <rmsd>  (18) 
9.762726819857894

>  <m_score__min__rmsd>  (18) 
9.762726819857894

>  <meeko>  (18) 
{"free_energy": -8.51, "intermolecular_energy": -10.3, "internal_energy": -1.53, "cluster_size": 2, "cluster_id": 3, "rank_in_cluster": 1}

>  <energy>  (18) 
-8.49

>  <cluster_rmsd>  (18) 
1.06

>  <cluster>  (18) 
2

$$$$

     RDKit          3D

 49 52  0  0  0  0  0  0  0  0999 V2000
  138.0380   78.1190  222.7980 N   0  0  0  0  0  0  0  0  0  0  0  0
  139.0070   78.7080  222.7260 C   0  0  0  0  0  0  0  0  0  0  0  0
  140.2320   79.4230  222.6370 C   0  0  0  0  0  0  0  0  0  0  0  0
  140.5510   80.2730  223.7020 C   0  0  0  0  0  0  0  0  0  0  0  0
  141.7190   81.0040  223.7040 C   0  0  0  0  0  0  0  0  0  0  0  0
  142.5480   80.8570  222.6120 C   0  0  0  0  0  0  0  0  0  0  0  0
  142.2320   80.0200  221.5640 C   0  0  0  0  0  0  0  0  0  0  0  0
  141.0480   79.2680  221.5460 C   0  0  0  0  0  0  0  0  0  0  0  0
  140.7670   78.4060  220.4200 C   0  0  1  0  0  0  0  0  0  0  0  0
  141.5730   78.9530  219.2320 C   0  0  0  0  0  0  0  0  0  0  0  0
  141.5460   77.7290  218.3390 C   0  0  0  0  0  0  0  0  0  0  0  0
  141.8820   76.6510  219.3460 C   0  0  0  0  0  0  0  0  0  0  0  0
  141.0640   77.0200  220.4990 N   0  0  0  0  0  0  0  0  0  0  0  0
  140.6180   76.1600  221.5470 C   0  0  0  0  0  0  0  0  0  0  0  0
  141.0630   76.2200  222.7050 O   0  0  0  0  0  0  0  0  0  0  0  0
  139.5680   75.1440  221.2250 C   0  0  0  0  0  0  0  0  0  0  0  0
  139.4860   74.1310  222.2530 N   0  0  0  0  0  0  0  0  0  0  0  0
  140.3650   73.0160  222.1340 C   0  0  0  0  0  0  0  0  0  0  0  0
  141.1760   72.9070  221.1820 O   0  0  0  0  0  0  0  0  0  0  0  0
  140.2840   71.9800  223.1800 C   0  0  0  0  0  0  0  0  0  0  0  0
  139.7420   70.7410  222.9120 C   0  0  0  0  0  0  0  0  0  0  0  0
  139.6370   69.7370  223.8370 C   0  0  0  0  0  0  0  0  0  0  0  0
  140.1040   69.9870  225.1100 C   0  0  0  0  0  0  0  0  0  0  0  0
  140.0610   69.0710  226.1320 C   0  0  0  0  0  0  0  0  0  0  0  0
  140.5340   69.3380  227.4020 C   0  0  0  0  0  0  0  0  0  0  0  0
  140.4810   68.1740  228.7040 Cl  0  0  0  0  0  0  0  0  0  0  0  0
  141.0720   70.5810  227.6520 C   0  0  0  0  0  0  0  0  0  0  0  0
  141.1250   71.5210  226.6310 C   0  0  0  0  0  0  0  0  0  0  0  0
  140.6420   71.2310  225.3550 C   0  0  0  0  0  0  0  0  0  0  0  0
  140.7300   72.1920  224.4320 N   0  0  0  0  0  0  0  0  0  0  0  0
  139.8577   80.3590  224.5517 H   0  0  0  0  0  0  0  0  0  0  0  0
  141.9779   81.6734  224.5376 H   0  0  0  0  0  0  0  0  0  0  0  0
  143.4895   81.4247  222.5764 H   0  0  0  0  0  0  0  0  0  0  0  0
  142.9287   79.9392  220.7166 H   0  0  0  0  0  0  0  0  0  0  0  0
  139.6697   78.4343  220.3476 H   0  0  0  0  0  0  0  0  0  0  0  0
  141.0795   79.8166  218.7622 H   0  0  0  0  0  0  0  0  0  0  0  0
  142.5746   79.3357  219.4777 H   0  0  0  0  0  0  0  0  0  0  0  0
  140.5530   77.5731  217.8923 H   0  0  0  0  0  0  0  0  0  0  0  0
  142.2224   77.7764  217.4729 H   0  0  0  0  0  0  0  0  0  0  0  0
  141.6072   75.6554  218.9674 H   0  0  0  0  0  0  0  0  0  0  0  0
  142.9560   76.5886  219.5756 H   0  0  0  0  0  0  0  0  0  0  0  0
  138.5944   75.6489  221.1408 H   0  0  0  0  0  0  0  0  0  0  0  0
  139.8359   74.6558  220.2764 H   0  0  0  0  0  0  0  0  0  0  0  0
  138.8150   74.2100  223.0500 H   0  0  0  0  0  0  0  0  0  0  0  0
  139.3719   70.5475  221.8944 H   0  0  0  0  0  0  0  0  0  0  0  0
  139.1953   68.7646  223.5737 H   0  0  0  0  0  0  0  0  0  0  0  0
  139.6302   68.0792  225.9301 H   0  0  0  0  0  0  0  0  0  0  0  0
  141.4568   70.8273  228.6526 H   0  0  0  0  0  0  0  0  0  0  0  0
  141.5560   72.5128  226.8324 H   0  0  0  0  0  0  0  0  0  0  0  0
  1  2  3  0
  2  3  1  0
  3  4  2  0
  4  5  1  0
  5  6  2  0
  6  7  1  0
  7  8  2  0
  8  9  1  0
  9 10  1  0
 10 11  1  0
 11 12  1  0
 12 13  1  0
 13 14  1  0
 14 15  2  0
 14 16  1  0
 16 17  1  0
 17 18  1  0
 18 19  2  0
 18 20  1  0
 20 21  2  0
 21 22  1  0
 22 23  2  0
 23 24  1  0
 24 25  2  0
 25 26  1  0
 25 27  1  0
 27 28  2  0
 28 29  1  0
 29 30  2  0
  8  3  1  0
 13  9  1  0
 30 20  1  0
 29 23  1  0
  4 31  1  0
  5 32  1  0
  6 33  1  0
  7 34  1  0
  9 35  1  6
 10 36  1  0
 10 37  1  0
 11 38  1  0
 11 39  1  0
 12 40  1  0
 12 41  1  0
 16 42  1  0
 16 43  1  0
 17 44  1  0
 21 45  1  0
 22 46  1  0
 24 47  1  0
 27 48  1  0
 28 49  1  0
M  END
>  <smiles>  (19) 
N#Cc1ccccc1[C@H]1CCCN1C(=O)CNC(=O)c1ccc2cc(Cl)ccc2n1

>  <score_type>  (19) 
oracle

>  <origin>  (19) 
autodockgpu

>  <m_score__min__energy>  (19) 
-9.0500000000000007

>  <m_primary>  (19) 
energy

>  <rmsd>  (19) 
3.6506551949819053

>  <m_score__min__rmsd>  (19) 
3.6506551949819053

>  <meeko>  (19) 
{"free_energy": -8.72, "intermolecular_energy": -10.51, "internal_energy": -1.69, "cluster_size": 21, "cluster_id": 2, "rank_in_cluster": 4}

>  <energy>  (19) 
-8.47

>  <cluster_rmsd>  (19) 
0.64

>  <cluster>  (19) 
2

$$$$

     RDKit          3D

 49 52  0  0  0  0  0  0  0  0999 V2000
  143.2180   75.7620  220.0840 N   0  0  0  0  0  0  0  0  0  0  0  0
  142.7530   76.7540  219.7830 C   0  0  0  0  0  0  0  0  0  0  0  0
  142.1510   77.9900  219.4220 C   0  0  0  0  0  0  0  0  0  0  0  0
  142.0250   78.2600  218.0550 C   0  0  0  0  0  0  0  0  0  0  0  0
  141.4510   79.4320  217.6100 C   0  0  0  0  0  0  0  0  0  0  0  0
  141.0140   80.3160  218.5740 C   0  0  0  0  0  0  0  0  0  0  0  0
  141.1400   80.0490  219.9200 C   0  0  0  0  0  0  0  0  0  0  0  0
  141.7210   78.8610  220.3890 C   0  0  0  0  0  0  0  0  0  0  0  0
  141.8280   78.6330  221.8130 C   0  0  1  0  0  0  0  0  0  0  0  0
  142.5470   79.8560  222.4040 C   0  0  0  0  0  0  0  0  0  0  0  0
  142.1590   79.6830  223.8580 C   0  0  0  0  0  0  0  0  0  0  0  0
  140.6840   79.3830  223.7120 C   0  0  0  0  0  0  0  0  0  0  0  0
  140.6540   78.4480  222.5900 N   0  0  0  0  0  0  0  0  0  0  0  0
  139.6360   77.4920  222.2940 C   0  0  0  0  0  0  0  0  0  0  0  0
  138.4600   77.6220  222.6720 O   0  0  0  0  0  0  0  0  0  0  0  0
  140.0120   76.2860  221.4930 C   0  0  0  0  0  0  0  0  0  0  0  0
  139.7510   75.0680  222.2250 N   0  0  0  0  0  0  0  0  0  0  0  0
  140.2560   73.8570  221.6700 C   0  0  0  0  0  0  0  0  0  0  0  0
  140.9000   73.8380  220.5920 O   0  0  0  0  0  0  0  0  0  0  0  0
  139.9900   72.6130  222.4140 C   0  0  0  0  0  0  0  0  0  0  0  0
  139.1150   71.6660  221.9240 C   0  0  0  0  0  0  0  0  0  0  0  0
  138.8250   70.4910  222.5650 C   0  0  0  0  0  0  0  0  0  0  0  0
  139.4490   70.2460  223.7700 C   0  0  0  0  0  0  0  0  0  0  0  0
  139.2500   69.1120  224.5150 C   0  0  0  0  0  0  0  0  0  0  0  0
  139.8840   68.8820  225.7210 C   0  0  0  0  0  0  0  0  0  0  0  0
  139.6330   67.4380  226.6710 Cl  0  0  0  0  0  0  0  0  0  0  0  0
  140.7550   69.8380  226.1950 C   0  0  0  0  0  0  0  0  0  0  0  0
  140.9700   70.9940  225.4550 C   0  0  0  0  0  0  0  0  0  0  0  0
  140.3200   71.2060  224.2390 C   0  0  0  0  0  0  0  0  0  0  0  0
  140.5830   72.3440  223.5920 N   0  0  0  0  0  0  0  0  0  0  0  0
  142.3901   77.5248  217.3228 H   0  0  0  0  0  0  0  0  0  0  0  0
  141.3466   79.6514  216.5372 H   0  0  0  0  0  0  0  0  0  0  0  0
  140.5509   81.2628  218.2590 H   0  0  0  0  0  0  0  0  0  0  0  0
  140.7746   80.7885  220.6477 H   0  0  0  0  0  0  0  0  0  0  0  0
  142.3392   77.6610  221.8755 H   0  0  0  0  0  0  0  0  0  0  0  0
  143.6362   79.8034  222.2592 H   0  0  0  0  0  0  0  0  0  0  0  0
  142.2780   80.8238  221.9557 H   0  0  0  0  0  0  0  0  0  0  0  0
  142.6996   78.8474  224.3265 H   0  0  0  0  0  0  0  0  0  0  0  0
  142.3915   80.5443  224.5015 H   0  0  0  0  0  0  0  0  0  0  0  0
  140.2816   78.9197  224.6249 H   0  0  0  0  0  0  0  0  0  0  0  0
  140.0709   80.2813  223.5471 H   0  0  0  0  0  0  0  0  0  0  0  0
  139.4262   76.2772  220.5620 H   0  0  0  0  0  0  0  0  0  0  0  0
  141.0889   76.3360  221.2744 H   0  0  0  0  0  0  0  0  0  0  0  0
  139.2150   75.0710  223.1230 H   0  0  0  0  0  0  0  0  0  0  0  0
  138.6211   71.8663  220.9618 H   0  0  0  0  0  0  0  0  0  0  0  0
  138.1182   69.7672  222.1332 H   0  0  0  0  0  0  0  0  0  0  0  0
  138.5534   68.3502  224.1349 H   0  0  0  0  0  0  0  0  0  0  0  0
  141.2762   69.6874  227.1519 H   0  0  0  0  0  0  0  0  0  0  0  0
  141.6658   71.7565  225.8351 H   0  0  0  0  0  0  0  0  0  0  0  0
  1  2  3  0
  2  3  1  0
  3  4  2  0
  4  5  1  0
  5  6  2  0
  6  7  1  0
  7  8  2  0
  8  9  1  0
  9 10  1  0
 10 11  1  0
 11 12  1  0
 12 13  1  0
 13 14  1  0
 14 15  2  0
 14 16  1  0
 16 17  1  0
 17 18  1  0
 18 19  2  0
 18 20  1  0
 20 21  2  0
 21 22  1  0
 22 23  2  0
 23 24  1  0
 24 25  2  0
 25 26  1  0
 25 27  1  0
 27 28  2  0
 28 29  1  0
 29 30  2  0
  8  3  1  0
 13  9  1  0
 30 20  1  0
 29 23  1  0
  4 31  1  0
  5 32  1  0
  6 33  1  0
  7 34  1  0
  9 35  1  6
 10 36  1  0
 10 37  1  0
 11 38  1  0
 11 39  1  0
 12 40  1  0
 12 41  1  0
 16 42  1  0
 16 43  1  0
 17 44  1  0
 21 45  1  0
 22 46  1  0
 24 47  1  0
 27 48  1  0
 28 49  1  0
M  END
>  <smiles>  (20) 
N#Cc1ccccc1[C@H]1CCCN1C(=O)CNC(=O)c1ccc2cc(Cl)ccc2n1

>  <score_type>  (20) 
oracle

>  <origin>  (20) 
autodockgpu

>  <m_score__min__energy>  (20) 
-9.0500000000000007

>  <m_primary>  (20) 
energy

>  <rmsd>  (20) 
3.6464553777219173

>  <m_score__min__rmsd>  (20) 
3.6464553777219173

>  <meeko>  (20) 
{"free_energy": -8.06, "intermolecular_energy": -9.85, "internal_energy": -1.78, "cluster_size": 4, "cluster_id": 4, "rank_in_cluster": 2}

>  <energy>  (20) 
-8.39

>  <cluster_rmsd>  (20) 
0.78

>  <cluster>  (20) 
2

$$$$

     RDKit          3D

 49 52  0  0  0  0  0  0  0  0999 V2000
  140.6210   72.7420  222.7230 N   0  0  0  0  0  0  0  0  0  0  0  0
  140.4400   72.1410  223.6710 C   0  0  0  0  0  0  0  0  0  0  0  0
  140.2250   71.3710  224.8450 C   0  0  0  0  0  0  0  0  0  0  0  0
  140.8350   71.8210  226.0210 C   0  0  0  0  0  0  0  0  0  0  0  0
  140.6810   71.1390  227.2090 C   0  0  0  0  0  0  0  0  0  0  0  0
  139.9030   70.0010  227.1790 C   0  0  0  0  0  0  0  0  0  0  0  0
  139.3040   69.5580  226.0190 C   0  0  0  0  0  0  0  0  0  0  0  0
  139.4500   70.2400  224.8020 C   0  0  0  0  0  0  0  0  0  0  0  0
  138.8000   69.7310  223.6160 C   0  0  1  0  0  0  0  0  0  0  0  0
  138.8160   68.1980  223.7260 C   0  0  0  0  0  0  0  0  0  0  0  0
  137.7350   67.8730  222.7160 C   0  0  0  0  0  0  0  0  0  0  0  0
  136.6780   68.8780  223.1140 C   0  0  0  0  0  0  0  0  0  0  0  0
  137.4570   70.0950  223.3340 N   0  0  0  0  0  0  0  0  0  0  0  0
  136.9830   71.4400  223.2790 C   0  0  0  0  0  0  0  0  0  0  0  0
  136.3720   71.9790  224.2170 O   0  0  0  0  0  0  0  0  0  0  0  0
  137.2380   72.2270  222.0330 C   0  0  0  0  0  0  0  0  0  0  0  0
  137.8610   73.4960  222.3320 N   0  0  0  0  0  0  0  0  0  0  0  0
  137.1320   74.6730  221.9950 C   0  0  0  0  0  0  0  0  0  0  0  0
  135.9980   74.6200  221.4590 O   0  0  0  0  0  0  0  0  0  0  0  0
  137.7660   75.9680  222.2980 C   0  0  0  0  0  0  0  0  0  0  0  0
  137.0050   77.1010  222.5010 C   0  0  0  0  0  0  0  0  0  0  0  0
  137.5320   78.3320  222.7870 C   0  0  0  0  0  0  0  0  0  0  0  0
  138.9030   78.4390  222.8760 C   0  0  0  0  0  0  0  0  0  0  0  0
  139.5600   79.6110  223.1550 C   0  0  0  0  0  0  0  0  0  0  0  0
  140.9360   79.7000  223.2410 C   0  0  0  0  0  0  0  0  0  0  0  0
  141.7750   81.1910  223.5970 Cl  0  0  0  0  0  0  0  0  0  0  0  0
  141.6800   78.5600  223.0360 C   0  0  0  0  0  0  0  0  0  0  0  0
  141.0330   77.3630  222.7520 C   0  0  0  0  0  0  0  0  0  0  0  0
  139.6420   77.2940  222.6700 C   0  0  0  0  0  0  0  0  0  0  0  0
  139.1020   76.1060  222.3920 N   0  0  0  0  0  0  0  0  0  0  0  0
  141.4477   72.7343  225.9972 H   0  0  0  0  0  0  0  0  0  0  0  0
  141.1567   71.4865  228.1379 H   0  0  0  0  0  0  0  0  0  0  0  0
  139.7560   69.4300  228.1076 H   0  0  0  0  0  0  0  0  0  0  0  0
  138.6939   68.6432  226.0487 H   0  0  0  0  0  0  0  0  0  0  0  0
  139.3734   70.1899  222.7971 H   0  0  0  0  0  0  0  0  0  0  0  0
  139.7895   67.7745  223.4380 H   0  0  0  0  0  0  0  0  0  0  0  0
  138.6533   67.7959  224.7369 H   0  0  0  0  0  0  0  0  0  0  0  0
  138.0810   68.0340  221.6843 H   0  0  0  0  0  0  0  0  0  0  0  0
  137.3990   66.8256  222.7240 H   0  0  0  0  0  0  0  0  0  0  0  0
  135.9416   69.0187  222.3091 H   0  0  0  0  0  0  0  0  0  0  0  0
  136.0924   68.5702  223.9928 H   0  0  0  0  0  0  0  0  0  0  0  0
  137.9016   71.6486  221.3734 H   0  0  0  0  0  0  0  0  0  0  0  0
  136.2733   72.4210  221.5413 H   0  0  0  0  0  0  0  0  0  0  0  0
  138.8050   73.5530  222.7780 H   0  0  0  0  0  0  0  0  0  0  0  0
  135.9112   77.0100  222.4289 H   0  0  0  0  0  0  0  0  0  0  0  0
  136.8826   79.2064  222.9406 H   0  0  0  0  0  0  0  0  0  0  0  0
  138.9639   80.5211  223.3176 H   0  0  0  0  0  0  0  0  0  0  0  0
  142.7777   78.5961  223.0965 H   0  0  0  0  0  0  0  0  0  0  0  0
  141.6290   76.4530  222.5888 H   0  0  0  0  0  0  0  0  0  0  0  0
  1  2  3  0
  2  3  1  0
  3  4  2  0
  4  5  1  0
  5  6  2  0
  6  7  1  0
  7  8  2  0
  8  9  1  0
  9 10  1  0
 10 11  1  0
 11 12  1  0
 12 13  1  0
 13 14  1  0
 14 15  2  0
 14 16  1  0
 16 17  1  0
 17 18  1  0
 18 19  2  0
 18 20  1  0
 20 21  2  0
 21 22  1  0
 22 23  2  0
 23 24  1  0
 24 25  2  0
 25 26  1  0
 25 27  1  0
 27 28  2  0
 28 29  1  0
 29 30  2  0
  8  3  1  0
 13  9  1  0
 30 20  1  0
 29 23  1  0
  4 31  1  0
  5 32  1  0
  6 33  1  0
  7 34  1  0
  9 35  1  6
 10 36  1  0
 10 37  1  0
 11 38  1  0
 11 39  1  0
 12 40  1  0
 12 41  1  0
 16 42  1  0
 16 43  1  0
 17 44  1  0
 21 45  1  0
 22 46  1  0
 24 47  1  0
 27 48  1  0
 28 49  1  0
M  END
>  <smiles>  (21) 
N#Cc1ccccc1[C@H]1CCCN1C(=O)CNC(=O)c1ccc2cc(Cl)ccc2n1

>  <score_type>  (21) 
oracle

>  <origin>  (21) 
autodockgpu

>  <m_score__min__energy>  (21) 
-9.0500000000000007

>  <m_primary>  (21) 
energy

>  <rmsd>  (21) 
9.884146509732629

>  <m_score__min__rmsd>  (21) 
9.884146509732629

>  <meeko>  (21) 
{"free_energy": -7.91, "intermolecular_energy": -9.7, "internal_energy": -2.68, "cluster_size": 17, "cluster_id": 5, "rank_in_cluster": 13}

>  <energy>  (21) 
-8.3

>  <cluster_rmsd>  (21) 
0.83

>  <cluster>  (21) 
2

$$$$

     RDKit          3D

 49 52  0  0  0  0  0  0  0  0999 V2000
  137.8060   79.7310  222.3200 N   0  0  0  0  0  0  0  0  0  0  0  0
  138.9290   79.8230  222.4680 C   0  0  0  0  0  0  0  0  0  0  0  0
  140.3300   79.9270  222.6760 C   0  0  0  0  0  0  0  0  0  0  0  0
  140.7540   80.5960  223.8300 C   0  0  0  0  0  0  0  0  0  0  0  0
  142.0950   80.7430  224.1160 C   0  0  0  0  0  0  0  0  0  0  0  0
  142.9870   80.2030  223.2140 C   0  0  0  0  0  0  0  0  0  0  0  0
  142.5680   79.5450  222.0780 C   0  0  0  0  0  0  0  0  0  0  0  0
  141.2080   79.3850  221.7720 C   0  0  0  0  0  0  0  0  0  0  0  0
  140.8250   78.6870  220.5660 C   0  0  1  0  0  0  0  0  0  0  0  0
  141.8300   79.0970  219.4790 C   0  0  0  0  0  0  0  0  0  0  0  0
  141.5900   77.9730  218.4920 C   0  0  0  0  0  0  0  0  0  0  0  0
  141.5810   76.7850  219.4300 C   0  0  0  0  0  0  0  0  0  0  0  0
  140.7830   77.2680  220.5540 N   0  0  0  0  0  0  0  0  0  0  0  0
  140.0650   76.4760  221.5000 C   0  0  0  0  0  0  0  0  0  0  0  0
  139.8110   76.8660  222.6520 O   0  0  0  0  0  0  0  0  0  0  0  0
  139.6010   75.1190  221.0750 C   0  0  0  0  0  0  0  0  0  0  0  0
  139.6570   74.1790  222.1710 N   0  0  0  0  0  0  0  0  0  0  0  0
  139.8540   72.8070  221.8400 C   0  0  0  0  0  0  0  0  0  0  0  0
  139.9740   72.4220  220.6510 O   0  0  0  0  0  0  0  0  0  0  0  0
  139.9110   71.8460  222.9560 C   0  0  0  0  0  0  0  0  0  0  0  0
  139.4890   70.5430  222.7930 C   0  0  0  0  0  0  0  0  0  0  0  0
  139.5160   69.6030  223.7880 C   0  0  0  0  0  0  0  0  0  0  0  0
  139.9960   69.9870  225.0220 C   0  0  0  0  0  0  0  0  0  0  0  0
  140.0780   69.1470  226.1040 C   0  0  0  0  0  0  0  0  0  0  0  0
  140.5620   69.5490  227.3340 C   0  0  0  0  0  0  0  0  0  0  0  0
  140.6670   68.4810  228.7120 Cl  0  0  0  0  0  0  0  0  0  0  0  0
  140.9790   70.8530  227.4780 C   0  0  0  0  0  0  0  0  0  0  0  0
  140.9040   71.7190  226.3950 C   0  0  0  0  0  0  0  0  0  0  0  0
  140.4130   71.2930  225.1600 C   0  0  0  0  0  0  0  0  0  0  0  0
  140.3740   72.1900  224.1730 N   0  0  0  0  0  0  0  0  0  0  0  0
  140.0051   81.0114  224.5203 H   0  0  0  0  0  0  0  0  0  0  0  0
  142.4369   81.2664  225.0211 H   0  0  0  0  0  0  0  0  0  0  0  0
  144.0656   80.3003  223.4069 H   0  0  0  0  0  0  0  0  0  0  0  0
  143.3218   79.1331  221.3909 H   0  0  0  0  0  0  0  0  0  0  0  0
  139.7745   78.9817  220.4261 H   0  0  0  0  0  0  0  0  0  0  0  0
  141.5922   80.0809  219.0484 H   0  0  0  0  0  0  0  0  0  0  0  0
  142.8701   79.2126  219.8180 H   0  0  0  0  0  0  0  0  0  0  0  0
  140.6278   78.0874  217.9713 H   0  0  0  0  0  0  0  0  0  0  0  0
  142.3270   77.9106  217.6778 H   0  0  0  0  0  0  0  0  0  0  0  0
  141.1110   75.9101  218.9571 H   0  0  0  0  0  0  0  0  0  0  0  0
  142.5880   76.4519  219.7214 H   0  0  0  0  0  0  0  0  0  0  0  0
  138.5634   75.1908  220.7169 H   0  0  0  0  0  0  0  0  0  0  0  0
  140.2644   74.7596  220.2745 H   0  0  0  0  0  0  0  0  0  0  0  0
  139.5590   74.4870  223.1660 H   0  0  0  0  0  0  0  0  0  0  0  0
  139.1085   70.2415  221.8059 H   0  0  0  0  0  0  0  0  0  0  0  0
  139.1664   68.5756  223.6088 H   0  0  0  0  0  0  0  0  0  0  0  0
  139.7430   68.1058  225.9866 H   0  0  0  0  0  0  0  0  0  0  0  0
  141.3688   71.2065  228.4440 H   0  0  0  0  0  0  0  0  0  0  0  0
  141.2379   72.7605  226.5128 H   0  0  0  0  0  0  0  0  0  0  0  0
  1  2  3  0
  2  3  1  0
  3  4  2  0
  4  5  1  0
  5  6  2  0
  6  7  1  0
  7  8  2  0
  8  9  1  0
  9 10  1  0
 10 11  1  0
 11 12  1  0
 12 13  1  0
 13 14  1  0
 14 15  2  0
 14 16  1  0
 16 17  1  0
 17 18  1  0
 18 19  2  0
 18 20  1  0
 20 21  2  0
 21 22  1  0
 22 23  2  0
 23 24  1  0
 24 25  2  0
 25 26  1  0
 25 27  1  0
 27 28  2  0
 28 29  1  0
 29 30  2  0
  8  3  1  0
 13  9  1  0
 30 20  1  0
 29 23  1  0
  4 31  1  0
  5 32  1  0
  6 33  1  0
  7 34  1  0
  9 35  1  6
 10 36  1  0
 10 37  1  0
 11 38  1  0
 11 39  1  0
 12 40  1  0
 12 41  1  0
 16 42  1  0
 16 43  1  0
 17 44  1  0
 21 45  1  0
 22 46  1  0
 24 47  1  0
 27 48  1  0
 28 49  1  0
M  END
>  <smiles>  (22) 
N#Cc1ccccc1[C@H]1CCCN1C(=O)CNC(=O)c1ccc2cc(Cl)ccc2n1

>  <score_type>  (22) 
oracle

>  <origin>  (22) 
autodockgpu

>  <m_score__min__energy>  (22) 
-9.0500000000000007

>  <m_primary>  (22) 
energy

>  <rmsd>  (22) 
3.7030713166496168

>  <m_score__min__rmsd>  (22) 
3.7030713166496168

>  <meeko>  (22) 
{"free_energy": -8.7, "intermolecular_energy": -10.49, "internal_energy": -1.96, "cluster_size": 21, "cluster_id": 2, "rank_in_cluster": 5}

>  <energy>  (22) 
-8.26

>  <cluster_rmsd>  (22) 
0.95

>  <cluster>  (22) 
2

$$$$

     RDKit          3D

 49 52  0  0  0  0  0  0  0  0999 V2000
  138.5690   82.0110  221.0790 N   0  0  0  0  0  0  0  0  0  0  0  0
  139.4150   81.4930  221.6340 C   0  0  0  0  0  0  0  0  0  0  0  0
  140.4850   80.8440  222.3070 C   0  0  0  0  0  0  0  0  0  0  0  0
  141.7760   81.0780  221.8230 C   0  0  0  0  0  0  0  0  0  0  0  0
  142.8750   80.4930  222.4140 C   0  0  0  0  0  0  0  0  0  0  0  0
  142.6380   79.6730  223.4960 C   0  0  0  0  0  0  0  0  0  0  0  0
  141.3650   79.4430  223.9720 C   0  0  0  0  0  0  0  0  0  0  0  0
  140.2360   80.0310  223.3830 C   0  0  0  0  0  0  0  0  0  0  0  0
  138.9240   79.7540  223.9230 C   0  0  1  0  0  0  0  0  0  0  0  0
  138.3530   81.0960  224.4070 C   0  0  0  0  0  0  0  0  0  0  0  0
  136.8870   80.7200  224.4820 C   0  0  0  0  0  0  0  0  0  0  0  0
  136.7230   79.9980  223.1630 C   0  0  0  0  0  0  0  0  0  0  0  0
  137.9270   79.1720  223.0960 N   0  0  0  0  0  0  0  0  0  0  0  0
  138.1070   77.9750  222.3410 C   0  0  0  0  0  0  0  0  0  0  0  0
  138.4440   76.8960  222.8570 O   0  0  0  0  0  0  0  0  0  0  0  0
  137.8760   78.0310  220.8640 C   0  0  0  0  0  0  0  0  0  0  0  0
  138.7570   78.9860  220.2320 N   0  0  0  0  0  0  0  0  0  0  0  0
  139.9760   78.4850  219.6920 C   0  0  0  0  0  0  0  0  0  0  0  0
  140.2830   77.2690  219.7590 O   0  0  0  0  0  0  0  0  0  0  0  0
  140.8770   79.4570  219.0470 C   0  0  0  0  0  0  0  0  0  0  0  0
  142.0660   79.0530  218.4760 C   0  0  0  0  0  0  0  0  0  0  0  0
  142.9450   79.9050  217.8620 C   0  0  0  0  0  0  0  0  0  0  0  0
  142.6160   81.2430  217.8140 C   0  0  0  0  0  0  0  0  0  0  0  0
  143.4050   82.2020  217.2310 C   0  0  0  0  0  0  0  0  0  0  0  0
  143.0600   83.5390  217.1920 C   0  0  0  0  0  0  0  0  0  0  0  0
  144.0630   84.7620  216.4490 Cl  0  0  0  0  0  0  0  0  0  0  0  0
  141.8700   83.9240  217.7660 C   0  0  0  0  0  0  0  0  0  0  0  0
  141.0560   82.9680  218.3620 C   0  0  0  0  0  0  0  0  0  0  0  0
  141.4240   81.6220  218.3900 C   0  0  0  0  0  0  0  0  0  0  0  0
  140.5850   80.7700  218.9840 N   0  0  0  0  0  0  0  0  0  0  0  0
  141.9167   81.7402  220.9560 H   0  0  0  0  0  0  0  0  0  0  0  0
  143.8937   80.6722  222.0396 H   0  0  0  0  0  0  0  0  0  0  0  0
  143.4900   79.1876  223.9946 H   0  0  0  0  0  0  0  0  0  0  0  0
  141.2307   78.7792  224.8388 H   0  0  0  0  0  0  0  0  0  0  0  0
  139.1201   78.9803  224.6799 H   0  0  0  0  0  0  0  0  0  0  0  0
  138.7551   81.3845  225.3894 H   0  0  0  0  0  0  0  0  0  0  0  0
  138.5857   81.9642  223.7728 H   0  0  0  0  0  0  0  0  0  0  0  0
  136.6801   80.0585  225.3361 H   0  0  0  0  0  0  0  0  0  0  0  0
  136.2021   81.5679  224.6300 H   0  0  0  0  0  0  0  0  0  0  0  0
  135.8153   79.3767  223.1613 H   0  0  0  0  0  0  0  0  0  0  0  0
  136.6117   80.6772  222.3049 H   0  0  0  0  0  0  0  0  0  0  0  0
  138.0593   77.0351  220.4344 H   0  0  0  0  0  0  0  0  0  0  0  0
  136.8371   78.3456  220.6862 H   0  0  0  0  0  0  0  0  0  0  0  0
  138.5140   80.0010  220.1700 H   0  0  0  0  0  0  0  0  0  0  0  0
  142.3231   77.9842  218.5162 H   0  0  0  0  0  0  0  0  0  0  0  0
  143.8824   79.5341  217.4218 H   0  0  0  0  0  0  0  0  0  0  0  0
  144.3561   81.8920  216.7736 H   0  0  0  0  0  0  0  0  0  0  0  0
  141.5652   84.9809  217.7532 H   0  0  0  0  0  0  0  0  0  0  0  0
  140.1049   83.2777  218.8197 H   0  0  0  0  0  0  0  0  0  0  0  0
  1  2  3  0
  2  3  1  0
  3  4  2  0
  4  5  1  0
  5  6  2  0
  6  7  1  0
  7  8  2  0
  8  9  1  0
  9 10  1  0
 10 11  1  0
 11 12  1  0
 12 13  1  0
 13 14  1  0
 14 15  2  0
 14 16  1  0
 16 17  1  0
 17 18  1  0
 18 19  2  0
 18 20  1  0
 20 21  2  0
 21 22  1  0
 22 23  2  0
 23 24  1  0
 24 25  2  0
 25 26  1  0
 25 27  1  0
 27 28  2  0
 28 29  1  0
 29 30  2  0
  8  3  1  0
 13  9  1  0
 30 20  1  0
 29 23  1  0
  4 31  1  0
  5 32  1  0
  6 33  1  0
  7 34  1  0
  9 35  1  1
 10 36  1  0
 10 37  1  0
 11 38  1  0
 11 39  1  0
 12 40  1  0
 12 41  1  0
 16 42  1  0
 16 43  1  0
 17 44  1  0
 21 45  1  0
 22 46  1  0
 24 47  1  0
 27 48  1  0
 28 49  1  0
M  END
>  <smiles>  (23) 
N#Cc1ccccc1[C@H]1CCCN1C(=O)CNC(=O)c1ccc2cc(Cl)ccc2n1

>  <score_type>  (23) 
oracle

>  <origin>  (23) 
autodockgpu

>  <m_score__min__energy>  (23) 
-9.0500000000000007

>  <m_primary>  (23) 
energy

>  <rmsd>  (23) 
8.708596683963323

>  <m_score__min__rmsd>  (23) 
8.708596683963323

>  <meeko>  (23) 
{"free_energy": -5.72, "intermolecular_energy": -7.51, "internal_energy": -3.66, "cluster_size": 1, "cluster_id": 7, "rank_in_cluster": 1}

>  <energy>  (23) 
-8.18

>  <cluster_rmsd>  (23) 
0.65

>  <cluster>  (23) 
2

$$$$

     RDKit          3D

 49 52  0  0  0  0  0  0  0  0999 V2000
  140.6900   72.6240  222.7420 N   0  0  0  0  0  0  0  0  0  0  0  0
  140.4390   71.9610  223.6300 C   0  0  0  0  0  0  0  0  0  0  0  0
  140.1140   71.1520  224.7510 C   0  0  0  0  0  0  0  0  0  0  0  0
  140.6940   71.4980  225.9760 C   0  0  0  0  0  0  0  0  0  0  0  0
  140.4350   70.7720  227.1180 C   0  0  0  0  0  0  0  0  0  0  0  0
  139.5820   69.6960  226.9920 C   0  0  0  0  0  0  0  0  0  0  0  0
  139.0110   69.3550  225.7850 C   0  0  0  0  0  0  0  0  0  0  0  0
  139.2640   70.0840  224.6130 C   0  0  0  0  0  0  0  0  0  0  0  0
  138.6390   69.6810  223.3740 C   0  0  1  0  0  0  0  0  0  0  0  0
  138.5510   68.1470  223.4000 C   0  0  0  0  0  0  0  0  0  0  0  0
  137.5000   67.9480  222.3270 C   0  0  0  0  0  0  0  0  0  0  0  0
  136.4930   69.0010  222.7330 C   0  0  0  0  0  0  0  0  0  0  0  0
  137.3380   70.1500  223.0530 N   0  0  0  0  0  0  0  0  0  0  0  0
  136.9550   71.5240  223.0520 C   0  0  0  0  0  0  0  0  0  0  0  0
  136.4570   72.0870  224.0410 O   0  0  0  0  0  0  0  0  0  0  0  0
  137.1670   72.3140  221.7990 C   0  0  0  0  0  0  0  0  0  0  0  0
  138.1460   73.3580  221.9970 N   0  0  0  0  0  0  0  0  0  0  0  0
  137.6760   74.7030  221.9640 C   0  0  0  0  0  0  0  0  0  0  0  0
  136.4660   74.9790  221.7700 O   0  0  0  0  0  0  0  0  0  0  0  0
  138.6720   75.7700  222.1640 C   0  0  0  0  0  0  0  0  0  0  0  0
  140.0030   75.5650  221.8650 C   0  0  0  0  0  0  0  0  0  0  0  0
  140.9760   76.5140  222.0280 C   0  0  0  0  0  0  0  0  0  0  0  0
  140.5970   77.7450  222.5200 C   0  0  0  0  0  0  0  0  0  0  0  0
  141.4690   78.7830  222.7310 C   0  0  0  0  0  0  0  0  0  0  0  0
  141.0720   80.0100  223.2240 C   0  0  0  0  0  0  0  0  0  0  0  0
  142.1810   81.3340  223.4930 Cl  0  0  0  0  0  0  0  0  0  0  0  0
  139.7400   80.1980  223.5170 C   0  0  0  0  0  0  0  0  0  0  0  0
  138.8410   79.1600  223.3100 C   0  0  0  0  0  0  0  0  0  0  0  0
  139.2630   77.9270  222.8100 C   0  0  0  0  0  0  0  0  0  0  0  0
  138.3350   76.9830  222.6420 N   0  0  0  0  0  0  0  0  0  0  0  0
  141.3688   72.3651  226.0285 H   0  0  0  0  0  0  0  0  0  0  0  0
  140.8874   71.0382  228.0847 H   0  0  0  0  0  0  0  0  0  0  0  0
  139.3504   69.0917  227.8815 H   0  0  0  0  0  0  0  0  0  0  0  0
  138.3376   68.4864  225.7390 H   0  0  0  0  0  0  0  0  0  0  0  0
  139.2793   70.1412  222.6070 H   0  0  0  0  0  0  0  0  0  0  0  0
  139.5077   67.6750  223.1320 H   0  0  0  0  0  0  0  0  0  0  0  0
  138.3152   67.7046  224.3791 H   0  0  0  0  0  0  0  0  0  0  0  0
  137.9042   68.1381  221.3218 H   0  0  0  0  0  0  0  0  0  0  0  0
  137.0964   66.9267  222.2629 H   0  0  0  0  0  0  0  0  0  0  0  0
  135.8061   69.2324  221.9056 H   0  0  0  0  0  0  0  0  0  0  0  0
  135.8482   68.6885  223.5676 H   0  0  0  0  0  0  0  0  0  0  0  0
  137.5184   71.6390  221.0047 H   0  0  0  0  0  0  0  0  0  0  0  0
  136.2121   72.7818  221.5173 H   0  0  0  0  0  0  0  0  0  0  0  0
  139.1560   73.1410  222.1590 H   0  0  0  0  0  0  0  0  0  0  0  0
  140.2999   74.5812  221.4726 H   0  0  0  0  0  0  0  0  0  0  0  0
  142.0252   76.3016  221.7749 H   0  0  0  0  0  0  0  0  0  0  0  0
  142.5329   78.6307  222.4967 H   0  0  0  0  0  0  0  0  0  0  0  0
  139.3905   81.1632  223.9121 H   0  0  0  0  0  0  0  0  0  0  0  0
  137.7771   79.3122  223.5443 H   0  0  0  0  0  0  0  0  0  0  0  0
  1  2  3  0
  2  3  1  0
  3  4  2  0
  4  5  1  0
  5  6  2  0
  6  7  1  0
  7  8  2  0
  8  9  1  0
  9 10  1  0
 10 11  1  0
 11 12  1  0
 12 13  1  0
 13 14  1  0
 14 15  2  0
 14 16  1  0
 16 17  1  0
 17 18  1  0
 18 19  2  0
 18 20  1  0
 20 21  2  0
 21 22  1  0
 22 23  2  0
 23 24  1  0
 24 25  2  0
 25 26  1  0
 25 27  1  0
 27 28  2  0
 28 29  1  0
 29 30  2  0
  8  3  1  0
 13  9  1  0
 30 20  1  0
 29 23  1  0
  4 31  1  0
  5 32  1  0
  6 33  1  0
  7 34  1  0
  9 35  1  6
 10 36  1  0
 10 37  1  0
 11 38  1  0
 11 39  1  0
 12 40  1  0
 12 41  1  0
 16 42  1  0
 16 43  1  0
 17 44  1  0
 21 45  1  0
 22 46  1  0
 24 47  1  0
 27 48  1  0
 28 49  1  0
M  END
>  <smiles>  (24) 
N#Cc1ccccc1[C@H]1CCCN1C(=O)CNC(=O)c1ccc2cc(Cl)ccc2n1

>  <score_type>  (24) 
oracle

>  <origin>  (24) 
autodockgpu

>  <m_score__min__energy>  (24) 
-9.0500000000000007

>  <m_primary>  (24) 
energy

>  <rmsd>  (24) 
9.895595118259005

>  <m_score__min__rmsd>  (24) 
9.895595118259005

>  <meeko>  (24) 
{"free_energy": -7.72, "intermolecular_energy": -9.51, "internal_energy": -2.46, "cluster_size": 17, "cluster_id": 5, "rank_in_cluster": 17}

>  <energy>  (24) 
-7.92

>  <cluster_rmsd>  (24) 
1.4

>  <cluster>  (24) 
2

$$$$

     RDKit          3D

 49 52  0  0  0  0  0  0  0  0999 V2000
  140.6550   72.6590  222.7280 N   0  0  0  0  0  0  0  0  0  0  0  0
  140.5020   71.9810  223.6280 C   0  0  0  0  0  0  0  0  0  0  0  0
  140.2870   71.1380  224.7500 C   0  0  0  0  0  0  0  0  0  0  0  0
  140.9280   71.4890  225.9430 C   0  0  0  0  0  0  0  0  0  0  0  0
  140.7750   70.7310  227.0840 C   0  0  0  0  0  0  0  0  0  0  0  0
  139.9660   69.6190  226.9900 C   0  0  0  0  0  0  0  0  0  0  0  0
  139.3350   69.2730  225.8140 C   0  0  0  0  0  0  0  0  0  0  0  0
  139.4800   70.0340  224.6440 C   0  0  0  0  0  0  0  0  0  0  0  0
  138.7950   69.6250  223.4380 C   0  0  1  0  0  0  0  0  0  0  0  0
  138.7590   68.0880  223.4500 C   0  0  0  0  0  0  0  0  0  0  0  0
  137.6530   67.8670  222.4380 C   0  0  0  0  0  0  0  0  0  0  0  0
  136.6380   68.8810  222.9170 C   0  0  0  0  0  0  0  0  0  0  0  0
  137.4630   70.0530  223.2010 N   0  0  0  0  0  0  0  0  0  0  0  0
  137.0370   71.4140  223.2400 C   0  0  0  0  0  0  0  0  0  0  0  0
  136.5430   71.9380  224.2520 O   0  0  0  0  0  0  0  0  0  0  0  0
  137.1960   72.2390  222.0020 C   0  0  0  0  0  0  0  0  0  0  0  0
  137.8510   73.4950  222.2890 N   0  0  0  0  0  0  0  0  0  0  0  0
  137.1340   74.6860  221.9780 C   0  0  0  0  0  0  0  0  0  0  0  0
  135.9840   74.6570  221.4750 O   0  0  0  0  0  0  0  0  0  0  0  0
  137.7990   75.9680  222.2690 C   0  0  0  0  0  0  0  0  0  0  0  0
  137.0670   77.1230  222.4530 C   0  0  0  0  0  0  0  0  0  0  0  0
  137.6240   78.3440  222.7260 C   0  0  0  0  0  0  0  0  0  0  0  0
  138.9980   78.4160  222.8220 C   0  0  0  0  0  0  0  0  0  0  0  0
  139.6840   79.5740  223.0900 C   0  0  0  0  0  0  0  0  0  0  0  0
  141.0610   79.6280  223.1840 C   0  0  0  0  0  0  0  0  0  0  0  0
  141.9360   81.1010  223.5260 Cl  0  0  0  0  0  0  0  0  0  0  0  0
  141.7760   78.4670  222.9970 C   0  0  0  0  0  0  0  0  0  0  0  0
  141.1000   77.2840  222.7250 C   0  0  0  0  0  0  0  0  0  0  0  0
  139.7080   77.2500  222.6350 C   0  0  0  0  0  0  0  0  0  0  0  0
  139.1380   76.0730  222.3690 N   0  0  0  0  0  0  0  0  0  0  0  0
  141.5650   72.3853  225.9709 H   0  0  0  0  0  0  0  0  0  0  0  0
  141.2752   71.0010  228.0258 H   0  0  0  0  0  0  0  0  0  0  0  0
  139.8195   68.9889  227.8797 H   0  0  0  0  0  0  0  0  0  0  0  0
  138.7000   68.3751  225.7923 H   0  0  0  0  0  0  0  0  0  0  0  0
  139.3722   70.1157  222.6405 H   0  0  0  0  0  0  0  0  0  0  0  0
  139.7129   67.6508  223.1201 H   0  0  0  0  0  0  0  0  0  0  0  0
  138.5966   67.6270  224.4354 H   0  0  0  0  0  0  0  0  0  0  0  0
  137.9905   68.0824  221.4134 H   0  0  0  0  0  0  0  0  0  0  0  0
  137.2797   66.8337  222.3838 H   0  0  0  0  0  0  0  0  0  0  0  0
  135.8956   69.0987  222.1351 H   0  0  0  0  0  0  0  0  0  0  0  0
  136.0544   68.5379  223.7840 H   0  0  0  0  0  0  0  0  0  0  0  0
  137.7994   71.6785  221.2728 H   0  0  0  0  0  0  0  0  0  0  0  0
  136.1962   72.4533  221.5966 H   0  0  0  0  0  0  0  0  0  0  0  0
  138.8080   73.5320  222.7080 H   0  0  0  0  0  0  0  0  0  0  0  0
  135.9716   77.0594  222.3759 H   0  0  0  0  0  0  0  0  0  0  0  0
  136.9968   79.2371  222.8640 H   0  0  0  0  0  0  0  0  0  0  0  0
  139.1111   80.5015  223.2366 H   0  0  0  0  0  0  0  0  0  0  0  0
  142.8740   78.4756  223.0623 H   0  0  0  0  0  0  0  0  0  0  0  0
  141.6730   76.3567  222.5778 H   0  0  0  0  0  0  0  0  0  0  0  0
  1  2  3  0
  2  3  1  0
  3  4  2  0
  4  5  1  0
  5  6  2  0
  6  7  1  0
  7  8  2  0
  8  9  1  0
  9 10  1  0
 10 11  1  0
 11 12  1  0
 12 13  1  0
 13 14  1  0
 14 15  2  0
 14 16  1  0
 16 17  1  0
 17 18  1  0
 18 19  2  0
 18 20  1  0
 20 21  2  0
 21 22  1  0
 22 23  2  0
 23 24  1  0
 24 25  2  0
 25 26  1  0
 25 27  1  0
 27 28  2  0
 28 29  1  0
 29 30  2  0
  8  3  1  0
 13  9  1  0
 30 20  1  0
 29 23  1  0
  4 31  1  0
  5 32  1  0
  6 33  1  0
  7 34  1  0
  9 35  1  6
 10 36  1  0
 10 37  1  0
 11 38  1  0
 11 39  1  0
 12 40  1  0
 12 41  1  0
 16 42  1  0
 16 43  1  0
 17 44  1  0
 21 45  1  0
 22 46  1  0
 24 47  1  0
 27 48  1  0
 28 49  1  0
M  END
>  <smiles>  (25) 
N#Cc1ccccc1[C@H]1CCCN1C(=O)CNC(=O)c1ccc2cc(Cl)ccc2n1

>  <score_type>  (25) 
oracle

>  <origin>  (25) 
autodockgpu

>  <m_score__min__energy>  (25) 
-9.0500000000000007

>  <m_primary>  (25) 
energy

>  <rmsd>  (25) 
9.972388852004014

>  <m_score__min__rmsd>  (25) 
9.972388852004014

>  <meeko>  (25) 
{"free_energy": -7.92, "intermolecular_energy": -9.71, "internal_energy": -2.69, "cluster_size": 17, "cluster_id": 5, "rank_in_cluster": 11}

>  <energy>  (25) 
-7.89

>  <cluster_rmsd>  (25) 
1.61

>  <cluster>  (25) 
2

$$$$

     RDKit          3D

 49 52  0  0  0  0  0  0  0  0999 V2000
  142.8490   74.4700  220.7390 N   0  0  0  0  0  0  0  0  0  0  0  0
  142.6550   75.4700  220.2350 C   0  0  0  0  0  0  0  0  0  0  0  0
  142.4070   76.7300  219.6280 C   0  0  0  0  0  0  0  0  0  0  0  0
  142.7690   76.8710  218.2840 C   0  0  0  0  0  0  0  0  0  0  0  0
  142.5650   78.0570  217.6120 C   0  0  0  0  0  0  0  0  0  0  0  0
  141.9910   79.0870  218.3260 C   0  0  0  0  0  0  0  0  0  0  0  0
  141.6360   78.9480  219.6500 C   0  0  0  0  0  0  0  0  0  0  0  0
  141.8360   77.7480  220.3490 C   0  0  0  0  0  0  0  0  0  0  0  0
  141.4450   77.6570  221.7370 C   0  0  1  0  0  0  0  0  0  0  0  0
  142.0320   78.8890  222.4440 C   0  0  0  0  0  0  0  0  0  0  0  0
  141.1690   78.8860  223.6900 C   0  0  0  0  0  0  0  0  0  0  0  0
  139.8060   78.6570  223.0760 C   0  0  0  0  0  0  0  0  0  0  0  0
  140.0680   77.6180  222.0830 N   0  0  0  0  0  0  0  0  0  0  0  0
  139.1270   76.6970  221.5330 C   0  0  0  0  0  0  0  0  0  0  0  0
  137.9120   76.9420  221.4550 O   0  0  0  0  0  0  0  0  0  0  0  0
  139.6360   75.3840  221.0290 C   0  0  0  0  0  0  0  0  0  0  0  0
  139.6600   74.3930  222.0800 N   0  0  0  0  0  0  0  0  0  0  0  0
  139.8770   73.0400  221.6910 C   0  0  0  0  0  0  0  0  0  0  0  0
  140.0400   72.7120  220.4900 O   0  0  0  0  0  0  0  0  0  0  0  0
  139.9010   72.0260  222.7610 C   0  0  0  0  0  0  0  0  0  0  0  0
  139.3670   70.7700  222.5610 C   0  0  0  0  0  0  0  0  0  0  0  0
  139.3580   69.7850  223.5130 C   0  0  0  0  0  0  0  0  0  0  0  0
  139.9180   70.0720  224.7400 C   0  0  0  0  0  0  0  0  0  0  0  0
  139.9750   69.1790  225.7790 C   0  0  0  0  0  0  0  0  0  0  0  0
  140.5400   69.4840  227.0020 C   0  0  0  0  0  0  0  0  0  0  0  0
  140.6150   68.3480  228.3280 Cl  0  0  0  0  0  0  0  0  0  0  0  0
  141.0680   70.7420  227.1850 C   0  0  0  0  0  0  0  0  0  0  0  0
  141.0200   71.6610  226.1440 C   0  0  0  0  0  0  0  0  0  0  0  0
  140.4450   71.3330  224.9150 C   0  0  0  0  0  0  0  0  0  0  0  0
  140.4390   72.2750  223.9690 N   0  0  0  0  0  0  0  0  0  0  0  0
  143.2241   76.0210  217.7546 H   0  0  0  0  0  0  0  0  0  0  0  0
  142.8470   78.1760  216.5554 H   0  0  0  0  0  0  0  0  0  0  0  0
  141.8110   80.0489  217.8236 H   0  0  0  0  0  0  0  0  0  0  0  0
  141.1828   79.8023  220.1741 H   0  0  0  0  0  0  0  0  0  0  0  0
  141.8194   76.6682  222.0406 H   0  0  0  0  0  0  0  0  0  0  0  0
  143.0982   78.7586  222.6812 H   0  0  0  0  0  0  0  0  0  0  0  0
  142.0138   79.8210  221.8601 H   0  0  0  0  0  0  0  0  0  0  0  0
  141.4479   78.0726  224.3760 H   0  0  0  0  0  0  0  0  0  0  0  0
  141.2489   79.7932  224.3069 H   0  0  0  0  0  0  0  0  0  0  0  0
  139.0847   78.3107  223.8308 H   0  0  0  0  0  0  0  0  0  0  0  0
  139.3636   79.5679  222.6465 H   0  0  0  0  0  0  0  0  0  0  0  0
  138.9799   75.0321  220.2193 H   0  0  0  0  0  0  0  0  0  0  0  0
  140.6632   75.5269  220.6625 H   0  0  0  0  0  0  0  0  0  0  0  0
  139.5250   74.6530  223.0840 H   0  0  0  0  0  0  0  0  0  0  0  0
  138.9225   70.5463  221.5800 H   0  0  0  0  0  0  0  0  0  0  0  0
  138.9187   68.7981  223.3056 H   0  0  0  0  0  0  0  0  0  0  0  0
  139.5517   68.1744  225.6319 H   0  0  0  0  0  0  0  0  0  0  0  0
  141.5241   71.0174  228.1473 H   0  0  0  0  0  0  0  0  0  0  0  0
  141.4430   72.6657  226.2910 H   0  0  0  0  0  0  0  0  0  0  0  0
  1  2  3  0
  2  3  1  0
  3  4  2  0
  4  5  1  0
  5  6  2  0
  6  7  1  0
  7  8  2  0
  8  9  1  0
  9 10  1  0
 10 11  1  0
 11 12  1  0
 12 13  1  0
 13 14  1  0
 14 15  2  0
 14 16  1  0
 16 17  1  0
 17 18  1  0
 18 19  2  0
 18 20  1  0
 20 21  2  0
 21 22  1  0
 22 23  2  0
 23 24  1  0
 24 25  2  0
 25 26  1  0
 25 27  1  0
 27 28  2  0
 28 29  1  0
 29 30  2  0
  8  3  1  0
 13  9  1  0
 30 20  1  0
 29 23  1  0
  4 31  1  0
  5 32  1  0
  6 33  1  0
  7 34  1  0
  9 35  1  1
 10 36  1  0
 10 37  1  0
 11 38  1  0
 11 39  1  0
 12 40  1  0
 12 41  1  0
 16 42  1  0
 16 43  1  0
 17 44  1  0
 21 45  1  0
 22 46  1  0
 24 47  1  0
 27 48  1  0
 28 49  1  0
M  END
>  <smiles>  (26) 
N#Cc1ccccc1[C@H]1CCCN1C(=O)CNC(=O)c1ccc2cc(Cl)ccc2n1

>  <score_type>  (26) 
oracle

>  <origin>  (26) 
autodockgpu

>  <m_score__min__energy>  (26) 
-9.0500000000000007

>  <m_primary>  (26) 
energy

>  <rmsd>  (26) 
4.079988553712006

>  <m_score__min__rmsd>  (26) 
4.079988553712006

>  <meeko>  (26) 
{"free_energy": -8.2, "intermolecular_energy": -9.99, "internal_energy": -1.84, "cluster_size": 4, "cluster_id": 4, "rank_in_cluster": 1}

>  <energy>  (26) 
-8.51

>  <cluster_rmsd>  (26) 
0.0

>  <cluster>  (26) 
3

$$$$

     RDKit          3D

 49 52  0  0  0  0  0  0  0  0999 V2000
  139.6020   79.6560  219.6180 N   0  0  0  0  0  0  0  0  0  0  0  0
  140.2280   79.7160  220.5640 C   0  0  0  0  0  0  0  0  0  0  0  0
  141.0040   79.8140  221.7500 C   0  0  0  0  0  0  0  0  0  0  0  0
  142.1400   80.6290  221.7020 C   0  0  0  0  0  0  0  0  0  0  0  0
  142.9510   80.7870  222.8050 C   0  0  0  0  0  0  0  0  0  0  0  0
  142.5900   80.1040  223.9470 C   0  0  0  0  0  0  0  0  0  0  0  0
  141.4710   79.3000  223.9930 C   0  0  0  0  0  0  0  0  0  0  0  0
  140.6340   79.1300  222.8800 C   0  0  0  0  0  0  0  0  0  0  0  0
  139.4740   78.2740  222.9840 C   0  0  1  0  0  0  0  0  0  0  0  0
  138.2510   79.1980  223.0970 C   0  0  0  0  0  0  0  0  0  0  0  0
  137.1660   78.2080  222.7250 C   0  0  0  0  0  0  0  0  0  0  0  0
  137.7980   77.5520  221.5170 C   0  0  0  0  0  0  0  0  0  0  0  0
  139.1810   77.3510  221.9460 N   0  0  0  0  0  0  0  0  0  0  0  0
  140.1080   76.3950  221.4330 C   0  0  0  0  0  0  0  0  0  0  0  0
  141.3220   76.6320  221.3100 O   0  0  0  0  0  0  0  0  0  0  0  0
  139.5870   75.0520  221.0300 C   0  0  0  0  0  0  0  0  0  0  0  0
  139.6310   74.1200  222.1330 N   0  0  0  0  0  0  0  0  0  0  0  0
  139.9020   72.7570  221.8200 C   0  0  0  0  0  0  0  0  0  0  0  0
  140.0930   72.3720  220.6410 O   0  0  0  0  0  0  0  0  0  0  0  0
  139.9470   71.8030  222.9430 C   0  0  0  0  0  0  0  0  0  0  0  0
  139.4910   70.5100  222.7960 C   0  0  0  0  0  0  0  0  0  0  0  0
  139.5050   69.5770  223.7980 C   0  0  0  0  0  0  0  0  0  0  0  0
  140.0070   69.9600  225.0240 C   0  0  0  0  0  0  0  0  0  0  0  0
  140.0790   69.1270  226.1120 C   0  0  0  0  0  0  0  0  0  0  0  0
  140.5850   69.5260  227.3330 C   0  0  0  0  0  0  0  0  0  0  0  0
  140.6790   68.4670  228.7200 Cl  0  0  0  0  0  0  0  0  0  0  0  0
  141.0360   70.8210  227.4630 C   0  0  0  0  0  0  0  0  0  0  0  0
  140.9710   71.6800  226.3730 C   0  0  0  0  0  0  0  0  0  0  0  0
  140.4570   71.2560  225.1470 C   0  0  0  0  0  0  0  0  0  0  0  0
  140.4300   72.1450  224.1520 N   0  0  0  0  0  0  0  0  0  0  0  0
  142.3903   81.1528  220.7677 H   0  0  0  0  0  0  0  0  0  0  0  0
  143.8445   81.4280  222.7756 H   0  0  0  0  0  0  0  0  0  0  0  0
  143.2132   80.2035  224.8480 H   0  0  0  0  0  0  0  0  0  0  0  0
  141.2274   78.7767  224.9294 H   0  0  0  0  0  0  0  0  0  0  0  0
  139.7097   77.6324  223.8458 H   0  0  0  0  0  0  0  0  0  0  0  0
  138.1214   79.5867  224.1178 H   0  0  0  0  0  0  0  0  0  0  0  0
  138.2896   80.1088  222.4815 H   0  0  0  0  0  0  0  0  0  0  0  0
  136.9828   77.4833  223.5320 H   0  0  0  0  0  0  0  0  0  0  0  0
  136.1785   78.6562  222.5406 H   0  0  0  0  0  0  0  0  0  0  0  0
  137.3110   76.5930  221.2864 H   0  0  0  0  0  0  0  0  0  0  0  0
  137.7089   78.1512  220.5988 H   0  0  0  0  0  0  0  0  0  0  0  0
  138.5457   75.1582  220.6918 H   0  0  0  0  0  0  0  0  0  0  0  0
  140.2210   74.6621  220.2201 H   0  0  0  0  0  0  0  0  0  0  0  0
  139.4730   74.4280  223.1200 H   0  0  0  0  0  0  0  0  0  0  0  0
  139.0923   70.2103  221.8156 H   0  0  0  0  0  0  0  0  0  0  0  0
  139.1288   68.5570  223.6308 H   0  0  0  0  0  0  0  0  0  0  0  0
  139.7169   68.0937  226.0065 H   0  0  0  0  0  0  0  0  0  0  0  0
  141.4443   71.1722  228.4221 H   0  0  0  0  0  0  0  0  0  0  0  0
  141.3315   72.7139  226.4785 H   0  0  0  0  0  0  0  0  0  0  0  0
  1  2  3  0
  2  3  1  0
  3  4  2  0
  4  5  1  0
  5  6  2  0
  6  7  1  0
  7  8  2  0
  8  9  1  0
  9 10  1  0
 10 11  1  0
 11 12  1  0
 12 13  1  0
 13 14  1  0
 14 15  2  0
 14 16  1  0
 16 17  1  0
 17 18  1  0
 18 19  2  0
 18 20  1  0
 20 21  2  0
 21 22  1  0
 22 23  2  0
 23 24  1  0
 24 25  2  0
 25 26  1  0
 25 27  1  0
 27 28  2  0
 28 29  1  0
 29 30  2  0
  8  3  1  0
 13  9  1  0
 30 20  1  0
 29 23  1  0
  4 31  1  0
  5 32  1  0
  6 33  1  0
  7 34  1  0
  9 35  1  1
 10 36  1  0
 10 37  1  0
 11 38  1  0
 11 39  1  0
 12 40  1  0
 12 41  1  0
 16 42  1  0
 16 43  1  0
 17 44  1  0
 21 45  1  0
 22 46  1  0
 24 47  1  0
 27 48  1  0
 28 49  1  0
M  END
>  <smiles>  (27) 
N#Cc1ccccc1[C@H]1CCCN1C(=O)CNC(=O)c1ccc2cc(Cl)ccc2n1

>  <score_type>  (27) 
oracle

>  <origin>  (27) 
autodockgpu

>  <m_score__min__energy>  (27) 
-9.0500000000000007

>  <m_primary>  (27) 
energy

>  <rmsd>  (27) 
3.9960744975901017

>  <m_score__min__rmsd>  (27) 
3.9960744975901017

>  <meeko>  (27) 
{"free_energy": -8.59, "intermolecular_energy": -10.38, "internal_energy": -1.63, "cluster_size": 21, "cluster_id": 2, "rank_in_cluster": 11}

>  <energy>  (27) 
-7.77

>  <cluster_rmsd>  (27) 
1.98

>  <cluster>  (27) 
3

$$$$

     RDKit          3D

 49 52  0  0  0  0  0  0  0  0999 V2000
  138.3260   76.7520  222.1750 N   0  0  0  0  0  0  0  0  0  0  0  0
  139.1860   77.4830  222.3050 C   0  0  0  0  0  0  0  0  0  0  0  0
  140.2720   78.3890  222.4470 C   0  0  0  0  0  0  0  0  0  0  0  0
  140.3510   79.1040  223.6460 C   0  0  0  0  0  0  0  0  0  0  0  0
  141.3710   80.0030  223.8740 C   0  0  0  0  0  0  0  0  0  0  0  0
  142.2990   80.1600  222.8670 C   0  0  0  0  0  0  0  0  0  0  0  0
  142.2190   79.4550  221.6850 C   0  0  0  0  0  0  0  0  0  0  0  0
  141.1890   78.5360  221.4380 C   0  0  0  0  0  0  0  0  0  0  0  0
  141.1540   77.8250  220.1800 C   0  0  1  0  0  0  0  0  0  0  0  0
  141.8410   78.7260  219.1420 C   0  0  0  0  0  0  0  0  0  0  0  0
  142.1320   77.6880  218.0780 C   0  0  0  0  0  0  0  0  0  0  0  0
  142.6850   76.5690  218.9320 C   0  0  0  0  0  0  0  0  0  0  0  0
  141.7700   76.5500  220.0710 N   0  0  0  0  0  0  0  0  0  0  0  0
  141.5110   75.4540  220.9470 C   0  0  0  0  0  0  0  0  0  0  0  0
  141.4050   75.5840  222.1770 O   0  0  0  0  0  0  0  0  0  0  0  0
  141.3600   74.0920  220.3460 C   0  0  0  0  0  0  0  0  0  0  0  0
  141.3410   73.0680  221.3650 N   0  0  0  0  0  0  0  0  0  0  0  0
  140.1910   73.0090  222.2040 C   0  0  0  0  0  0  0  0  0  0  0  0
  139.2310   73.8070  222.0730 O   0  0  0  0  0  0  0  0  0  0  0  0
  140.1700   71.9660  223.2450 C   0  0  0  0  0  0  0  0  0  0  0  0
  139.6720   70.7070  222.9800 C   0  0  0  0  0  0  0  0  0  0  0  0
  139.6240   69.6960  223.9010 C   0  0  0  0  0  0  0  0  0  0  0  0
  140.1050   69.9570  225.1670 C   0  0  0  0  0  0  0  0  0  0  0  0
  140.1170   69.0350  226.1830 C   0  0  0  0  0  0  0  0  0  0  0  0
  140.6020   69.3140  227.4460 C   0  0  0  0  0  0  0  0  0  0  0  0
  140.6190   68.1420  228.7420 Cl  0  0  0  0  0  0  0  0  0  0  0  0
  141.0960   70.5750  227.6940 C   0  0  0  0  0  0  0  0  0  0  0  0
  141.0930   71.5220  226.6780 C   0  0  0  0  0  0  0  0  0  0  0  0
  140.5980   71.2200  225.4080 C   0  0  0  0  0  0  0  0  0  0  0  0
  140.6310   72.1880  224.4900 N   0  0  0  0  0  0  0  0  0  0  0  0
  139.5861   78.9465  224.4207 H   0  0  0  0  0  0  0  0  0  0  0  0
  141.4410   80.5683  224.8150 H   0  0  0  0  0  0  0  0  0  0  0  0
  143.1279   80.8687  223.0107 H   0  0  0  0  0  0  0  0  0  0  0  0
  142.9855   79.6181  220.9131 H   0  0  0  0  0  0  0  0  0  0  0  0
  140.0840   77.6116  220.0404 H   0  0  0  0  0  0  0  0  0  0  0  0
  141.1700   79.5162  218.7740 H   0  0  0  0  0  0  0  0  0  0  0  0
  142.7150   79.2851  219.5073 H   0  0  0  0  0  0  0  0  0  0  0  0
  141.2179   77.3815  217.5484 H   0  0  0  0  0  0  0  0  0  0  0  0
  142.8033   78.0283  217.2758 H   0  0  0  0  0  0  0  0  0  0  0  0
  142.6652   75.6111  218.3916 H   0  0  0  0  0  0  0  0  0  0  0  0
  143.7361   76.7188  219.2197 H   0  0  0  0  0  0  0  0  0  0  0  0
  140.4173   74.0523  219.7805 H   0  0  0  0  0  0  0  0  0  0  0  0
  142.2189   73.9073  219.6840 H   0  0  0  0  0  0  0  0  0  0  0  0
  142.1340   72.3970  221.4850 H   0  0  0  0  0  0  0  0  0  0  0  0
  139.2909   70.5038  221.9683 H   0  0  0  0  0  0  0  0  0  0  0  0
  139.2155   68.7084  223.6404 H   0  0  0  0  0  0  0  0  0  0  0  0
  139.7225   68.0279  225.9827 H   0  0  0  0  0  0  0  0  0  0  0  0
  141.4899   70.8304  228.6888 H   0  0  0  0  0  0  0  0  0  0  0  0
  141.4881   72.5290  226.8777 H   0  0  0  0  0  0  0  0  0  0  0  0
  1  2  3  0
  2  3  1  0
  3  4  2  0
  4  5  1  0
  5  6  2  0
  6  7  1  0
  7  8  2  0
  8  9  1  0
  9 10  1  0
 10 11  1  0
 11 12  1  0
 12 13  1  0
 13 14  1  0
 14 15  2  0
 14 16  1  0
 16 17  1  0
 17 18  1  0
 18 19  2  0
 18 20  1  0
 20 21  2  0
 21 22  1  0
 22 23  2  0
 23 24  1  0
 24 25  2  0
 25 26  1  0
 25 27  1  0
 27 28  2  0
 28 29  1  0
 29 30  2  0
  8  3  1  0
 13  9  1  0
 30 20  1  0
 29 23  1  0
  4 31  1  0
  5 32  1  0
  6 33  1  0
  7 34  1  0
  9 35  1  6
 10 36  1  0
 10 37  1  0
 11 38  1  0
 11 39  1  0
 12 40  1  0
 12 41  1  0
 16 42  1  0
 16 43  1  0
 17 44  1  0
 21 45  1  0
 22 46  1  0
 24 47  1  0
 27 48  1  0
 28 49  1  0
M  END
>  <smiles>  (28) 
N#Cc1ccccc1[C@H]1CCCN1C(=O)CNC(=O)c1ccc2cc(Cl)ccc2n1

>  <score_type>  (28) 
oracle

>  <origin>  (28) 
autodockgpu

>  <m_score__min__energy>  (28) 
-9.0500000000000007

>  <m_primary>  (28) 
energy

>  <rmsd>  (28) 
3.807081657980771

>  <m_score__min__rmsd>  (28) 
3.807081657980771

>  <meeko>  (28) 
{"free_energy": -8.56, "intermolecular_energy": -10.35, "internal_energy": -1.62, "cluster_size": 21, "cluster_id": 2, "rank_in_cluster": 12}

>  <energy>  (28) 
-8.2

>  <cluster_rmsd>  (28) 
0.0

>  <cluster>  (28) 
4

$$$$

     RDKit          3D

 49 52  0  0  0  0  0  0  0  0999 V2000
  137.9170   80.1830  223.7020 N   0  0  0  0  0  0  0  0  0  0  0  0
  139.0200   80.0860  223.4440 C   0  0  0  0  0  0  0  0  0  0  0  0
  140.4030   79.9650  223.1460 C   0  0  0  0  0  0  0  0  0  0  0  0
  141.3050   80.3850  224.1300 C   0  0  0  0  0  0  0  0  0  0  0  0
  142.6670   80.3030  223.9300 C   0  0  0  0  0  0  0  0  0  0  0  0
  143.0890   79.7920  222.7220 C   0  0  0  0  0  0  0  0  0  0  0  0
  142.2000   79.3790  221.7530 C   0  0  0  0  0  0  0  0  0  0  0  0
  140.8110   79.4550  221.9400 C   0  0  0  0  0  0  0  0  0  0  0  0
  139.9240   79.0090  220.8900 C   0  0  1  0  0  0  0  0  0  0  0  0
  140.3510   79.7420  219.6090 C   0  0  0  0  0  0  0  0  0  0  0  0
  139.6830   78.8470  218.5860 C   0  0  0  0  0  0  0  0  0  0  0  0
  140.0720   77.4860  219.1180 C   0  0  0  0  0  0  0  0  0  0  0  0
  139.8600   77.6300  220.5570 N   0  0  0  0  0  0  0  0  0  0  0  0
  139.6230   76.5850  221.4990 C   0  0  0  0  0  0  0  0  0  0  0  0
  139.3930   76.7990  222.7010 O   0  0  0  0  0  0  0  0  0  0  0  0
  139.6540   75.1720  221.0080 C   0  0  0  0  0  0  0  0  0  0  0  0
  139.6260   74.2340  222.1060 N   0  0  0  0  0  0  0  0  0  0  0  0
  140.0520   72.9020  221.8320 C   0  0  0  0  0  0  0  0  0  0  0  0
  140.4340   72.5490  220.6900 O   0  0  0  0  0  0  0  0  0  0  0  0
  140.0250   71.9430  222.9510 C   0  0  0  0  0  0  0  0  0  0  0  0
  139.4490   70.6980  222.8050 C   0  0  0  0  0  0  0  0  0  0  0  0
  139.3920   69.7630  223.8030 C   0  0  0  0  0  0  0  0  0  0  0  0
  139.9450   70.0900  225.0230 C   0  0  0  0  0  0  0  0  0  0  0  0
  139.9560   69.2480  226.1060 C   0  0  0  0  0  0  0  0  0  0  0  0
  140.5150   69.5930  227.3210 C   0  0  0  0  0  0  0  0  0  0  0  0
  140.5300   68.5220  228.7020 Cl  0  0  0  0  0  0  0  0  0  0  0  0
  141.0850   70.8390  227.4500 C   0  0  0  0  0  0  0  0  0  0  0  0
  141.0850   71.7060  226.3640 C   0  0  0  0  0  0  0  0  0  0  0  0
  140.5150   71.3390  225.1450 C   0  0  0  0  0  0  0  0  0  0  0  0
  140.5560   72.2320  224.1540 N   0  0  0  0  0  0  0  0  0  0  0  0
  140.9211   80.7874  225.0791 H   0  0  0  0  0  0  0  0  0  0  0  0
  143.3827   80.6301  224.6986 H   0  0  0  0  0  0  0  0  0  0  0  0
  144.1682   79.7112  222.5249 H   0  0  0  0  0  0  0  0  0  0  0  0
  142.5903   78.9783  220.8059 H   0  0  0  0  0  0  0  0  0  0  0  0
  138.9243   79.2279  221.2934 H   0  0  0  0  0  0  0  0  0  0  0  0
  139.9617   80.7702  219.5735 H   0  0  0  0  0  0  0  0  0  0  0  0
  141.4353   79.8767  219.4816 H   0  0  0  0  0  0  0  0  0  0  0  0
  138.5915   78.9834  218.5776 H   0  0  0  0  0  0  0  0  0  0  0  0
  139.9832   79.0360  217.5448 H   0  0  0  0  0  0  0  0  0  0  0  0
  139.4288   76.6980  218.6993 H   0  0  0  0  0  0  0  0  0  0  0  0
  141.0991   77.1924  218.8557 H   0  0  0  0  0  0  0  0  0  0  0  0
  138.7790   74.9969  220.3648 H   0  0  0  0  0  0  0  0  0  0  0  0
  140.5871   75.0203  220.4456 H   0  0  0  0  0  0  0  0  0  0  0  0
  139.3100   74.5160  223.0620 H   0  0  0  0  0  0  0  0  0  0  0  0
  139.0099   70.4417  221.8295 H   0  0  0  0  0  0  0  0  0  0  0  0
  138.9206   68.7831  223.6372 H   0  0  0  0  0  0  0  0  0  0  0  0
  139.4988   68.2529  226.0020 H   0  0  0  0  0  0  0  0  0  0  0  0
  141.5368   71.1460  228.4048 H   0  0  0  0  0  0  0  0  0  0  0  0
  141.5432   72.7006  226.4677 H   0  0  0  0  0  0  0  0  0  0  0  0
  1  2  3  0
  2  3  1  0
  3  4  2  0
  4  5  1  0
  5  6  2  0
  6  7  1  0
  7  8  2  0
  8  9  1  0
  9 10  1  0
 10 11  1  0
 11 12  1  0
 12 13  1  0
 13 14  1  0
 14 15  2  0
 14 16  1  0
 16 17  1  0
 17 18  1  0
 18 19  2  0
 18 20  1  0
 20 21  2  0
 21 22  1  0
 22 23  2  0
 23 24  1  0
 24 25  2  0
 25 26  1  0
 25 27  1  0
 27 28  2  0
 28 29  1  0
 29 30  2  0
  8  3  1  0
 13  9  1  0
 30 20  1  0
 29 23  1  0
  4 31  1  0
  5 32  1  0
  6 33  1  0
  7 34  1  0
  9 35  1  1
 10 36  1  0
 10 37  1  0
 11 38  1  0
 11 39  1  0
 12 40  1  0
 12 41  1  0
 16 42  1  0
 16 43  1  0
 17 44  1  0
 21 45  1  0
 22 46  1  0
 24 47  1  0
 27 48  1  0
 28 49  1  0
M  END
>  <smiles>  (29) 
N#Cc1ccccc1[C@H]1CCCN1C(=O)CNC(=O)c1ccc2cc(Cl)ccc2n1

>  <score_type>  (29) 
oracle

>  <origin>  (29) 
autodockgpu

>  <m_score__min__energy>  (29) 
-9.0500000000000007

>  <m_primary>  (29) 
energy

>  <rmsd>  (29) 
3.7659045966235363

>  <m_score__min__rmsd>  (29) 
3.7659045966235363

>  <meeko>  (29) 
{"free_energy": -8.3, "intermolecular_energy": -10.09, "internal_energy": -2.02, "cluster_size": 21, "cluster_id": 2, "rank_in_cluster": 17}

>  <energy>  (29) 
-8.06

>  <cluster_rmsd>  (29) 
1.07

>  <cluster>  (29) 
4

$$$$

     RDKit          3D

 49 52  0  0  0  0  0  0  0  0999 V2000
  140.6830   72.7050  222.7020 N   0  0  0  0  0  0  0  0  0  0  0  0
  140.5060   72.0860  223.6390 C   0  0  0  0  0  0  0  0  0  0  0  0
  140.2960   71.2940  224.7990 C   0  0  0  0  0  0  0  0  0  0  0  0
  140.9240   71.7120  225.9770 C   0  0  0  0  0  0  0  0  0  0  0  0
  140.7760   71.0070  227.1530 C   0  0  0  0  0  0  0  0  0  0  0  0
  139.9860   69.8780  227.1060 C   0  0  0  0  0  0  0  0  0  0  0  0
  139.3690   69.4660  225.9450 C   0  0  0  0  0  0  0  0  0  0  0  0
  139.5080   70.1730  224.7400 C   0  0  0  0  0  0  0  0  0  0  0  0
  138.8390   69.6950  223.5520 C   0  0  1  0  0  0  0  0  0  0  0  0
  138.8270   68.1610  223.6360 C   0  0  0  0  0  0  0  0  0  0  0  0
  137.7320   67.8730  222.6290 C   0  0  0  0  0  0  0  0  0  0  0  0
  136.6980   68.8920  223.0530 C   0  0  0  0  0  0  0  0  0  0  0  0
  137.5010   70.0900  223.2860 N   0  0  0  0  0  0  0  0  0  0  0  0
  137.0530   71.4440  223.2580 C   0  0  0  0  0  0  0  0  0  0  0  0
  136.4890   71.9890  224.2210 O   0  0  0  0  0  0  0  0  0  0  0  0
  137.2770   72.2350  222.0080 C   0  0  0  0  0  0  0  0  0  0  0  0
  137.9120   73.5000  222.2940 N   0  0  0  0  0  0  0  0  0  0  0  0
  137.1810   74.6810  221.9720 C   0  0  0  0  0  0  0  0  0  0  0  0
  136.0360   74.6340  221.4600 O   0  0  0  0  0  0  0  0  0  0  0  0
  137.8280   75.9730  222.2620 C   0  0  0  0  0  0  0  0  0  0  0  0
  137.0790   77.1180  222.4370 C   0  0  0  0  0  0  0  0  0  0  0  0
  137.6170   78.3470  222.7090 C   0  0  0  0  0  0  0  0  0  0  0  0
  138.9890   78.4390  222.8140 C   0  0  0  0  0  0  0  0  0  0  0  0
  139.6570   79.6070  223.0820 C   0  0  0  0  0  0  0  0  0  0  0  0
  141.0320   79.6800  223.1840 C   0  0  0  0  0  0  0  0  0  0  0  0
  141.8850   81.1670  223.5260 Cl  0  0  0  0  0  0  0  0  0  0  0  0
  141.7650   78.5280  223.0060 C   0  0  0  0  0  0  0  0  0  0  0  0
  141.1070   77.3350  222.7340 C   0  0  0  0  0  0  0  0  0  0  0  0
  139.7160   77.2820  222.6360 C   0  0  0  0  0  0  0  0  0  0  0  0
  139.1640   76.0960  222.3700 N   0  0  0  0  0  0  0  0  0  0  0  0
  141.5467   72.6187  225.9651 H   0  0  0  0  0  0  0  0  0  0  0  0
  141.2649   71.3300  228.0840 H   0  0  0  0  0  0  0  0  0  0  0  0
  139.8439   69.2881  228.0235 H   0  0  0  0  0  0  0  0  0  0  0  0
  138.7497   68.5571  225.9627 H   0  0  0  0  0  0  0  0  0  0  0  0
  139.4151   70.1558  222.7360 H   0  0  0  0  0  0  0  0  0  0  0  0
  139.7902   67.7244  223.3332 H   0  0  0  0  0  0  0  0  0  0  0  0
  138.6645   67.7450  224.6413 H   0  0  0  0  0  0  0  0  0  0  0  0
  138.0728   68.0445  221.5973 H   0  0  0  0  0  0  0  0  0  0  0  0
  137.3760   66.8322  222.6218 H   0  0  0  0  0  0  0  0  0  0  0  0
  135.9575   69.0599  222.2571 H   0  0  0  0  0  0  0  0  0  0  0  0
  136.1148   68.5808  223.9322 H   0  0  0  0  0  0  0  0  0  0  0  0
  137.9203   71.6567  221.3285 H   0  0  0  0  0  0  0  0  0  0  0  0
  136.2999   72.4343  221.5436 H   0  0  0  0  0  0  0  0  0  0  0  0
  138.8650   73.5530  222.7200 H   0  0  0  0  0  0  0  0  0  0  0  0
  135.9851   77.0389  222.3530 H   0  0  0  0  0  0  0  0  0  0  0  0
  136.9764   79.2316  222.8395 H   0  0  0  0  0  0  0  0  0  0  0  0
  139.0705   80.5270  223.2220 H   0  0  0  0  0  0  0  0  0  0  0  0
  142.8623   78.5521  223.0785 H   0  0  0  0  0  0  0  0  0  0  0  0
  141.6934   76.4151  222.5933 H   0  0  0  0  0  0  0  0  0  0  0  0
  1  2  3  0
  2  3  1  0
  3  4  2  0
  4  5  1  0
  5  6  2  0
  6  7  1  0
  7  8  2  0
  8  9  1  0
  9 10  1  0
 10 11  1  0
 11 12  1  0
 12 13  1  0
 13 14  1  0
 14 15  2  0
 14 16  1  0
 16 17  1  0
 17 18  1  0
 18 19  2  0
 18 20  1  0
 20 21  2  0
 21 22  1  0
 22 23  2  0
 23 24  1  0
 24 25  2  0
 25 26  1  0
 25 27  1  0
 27 28  2  0
 28 29  1  0
 29 30  2  0
  8  3  1  0
 13  9  1  0
 30 20  1  0
 29 23  1  0
  4 31  1  0
  5 32  1  0
  6 33  1  0
  7 34  1  0
  9 35  1  6
 10 36  1  0
 10 37  1  0
 11 38  1  0
 11 39  1  0
 12 40  1  0
 12 41  1  0
 16 42  1  0
 16 43  1  0
 17 44  1  0
 21 45  1  0
 22 46  1  0
 24 47  1  0
 27 48  1  0
 28 49  1  0
M  END
>  <smiles>  (30) 
N#Cc1ccccc1[C@H]1CCCN1C(=O)CNC(=O)c1ccc2cc(Cl)ccc2n1

>  <score_type>  (30) 
oracle

>  <origin>  (30) 
autodockgpu

>  <m_score__min__energy>  (30) 
-9.0500000000000007

>  <m_primary>  (30) 
energy

>  <rmsd>  (30) 
9.90954311402741

>  <m_score__min__rmsd>  (30) 
9.90954311402741

>  <meeko>  (30) 
{"free_energy": -7.94, "intermolecular_energy": -9.73, "internal_energy": -2.69, "cluster_size": 17, "cluster_id": 5, "rank_in_cluster": 10}

>  <energy>  (30) 
-7.22

>  <cluster_rmsd>  (30) 
1.81

>  <cluster>  (30) 
4

$$$$

     RDKit          3D

 49 52  0  0  0  0  0  0  0  0999 V2000
  140.9470   74.0470  217.6730 N   0  0  0  0  0  0  0  0  0  0  0  0
  141.8920   73.9480  218.2970 C   0  0  0  0  0  0  0  0  0  0  0  0
  143.0710   73.8480  219.0840 C   0  0  0  0  0  0  0  0  0  0  0  0
  143.6950   72.5970  219.1380 C   0  0  0  0  0  0  0  0  0  0  0  0
  144.8450   72.4060  219.8730 C   0  0  0  0  0  0  0  0  0  0  0  0
  145.3420   73.5000  220.5470 C   0  0  0  0  0  0  0  0  0  0  0  0
  144.7260   74.7320  220.4940 C   0  0  0  0  0  0  0  0  0  0  0  0
  143.5560   74.9440  219.7500 C   0  0  0  0  0  0  0  0  0  0  0  0
  142.9510   76.2570  219.7290 C   0  0  1  0  0  0  0  0  0  0  0  0
  143.2190   76.8460  218.3360 C   0  0  0  0  0  0  0  0  0  0  0  0
  142.1670   77.9360  218.3290 C   0  0  0  0  0  0  0  0  0  0  0  0
  140.9770   77.1700  218.8640 C   0  0  0  0  0  0  0  0  0  0  0  0
  141.5570   76.3970  219.9600 N   0  0  0  0  0  0  0  0  0  0  0  0
  140.8710   75.8600  221.0900 C   0  0  0  0  0  0  0  0  0  0  0  0
  141.1650   76.1550  222.2600 O   0  0  0  0  0  0  0  0  0  0  0  0
  139.7480   74.9030  220.8440 C   0  0  0  0  0  0  0  0  0  0  0  0
  139.6190   73.9560  221.9270 N   0  0  0  0  0  0  0  0  0  0  0  0
  140.4210   72.7800  221.8600 C   0  0  0  0  0  0  0  0  0  0  0  0
  141.2080   72.5660  220.9050 O   0  0  0  0  0  0  0  0  0  0  0  0
  140.2910   71.8120  222.9640 C   0  0  0  0  0  0  0  0  0  0  0  0
  139.6560   70.6020  222.7770 C   0  0  0  0  0  0  0  0  0  0  0  0
  139.5020   69.6610  223.7600 C   0  0  0  0  0  0  0  0  0  0  0  0
  140.0160   69.9450  225.0070 C   0  0  0  0  0  0  0  0  0  0  0  0
  139.9320   69.0930  226.0790 C   0  0  0  0  0  0  0  0  0  0  0  0
  140.4530   69.3940  227.3220 C   0  0  0  0  0  0  0  0  0  0  0  0
  140.3480   68.3090  228.6880 Cl  0  0  0  0  0  0  0  0  0  0  0  0
  141.0840   70.6050  227.4920 C   0  0  0  0  0  0  0  0  0  0  0  0
  141.1800   71.4830  226.4190 C   0  0  0  0  0  0  0  0  0  0  0  0
  140.6470   71.1590  225.1700 C   0  0  0  0  0  0  0  0  0  0  0  0
  140.7820   72.0590  224.1940 N   0  0  0  0  0  0  0  0  0  0  0  0
  143.2604   71.7516  218.5845 H   0  0  0  0  0  0  0  0  0  0  0  0
  145.3427   71.4261  219.9194 H   0  0  0  0  0  0  0  0  0  0  0  0
  146.2580   73.3869  221.1455 H   0  0  0  0  0  0  0  0  0  0  0  0
  145.1646   75.5730  221.0512 H   0  0  0  0  0  0  0  0  0  0  0  0
  143.4108   76.7609  220.5920 H   0  0  0  0  0  0  0  0  0  0  0  0
  144.2365   77.2551  218.2506 H   0  0  0  0  0  0  0  0  0  0  0  0
  143.1623   76.1304  217.5025 H   0  0  0  0  0  0  0  0  0  0  0  0
  142.4429   78.7716  218.9891 H   0  0  0  0  0  0  0  0  0  0  0  0
  142.0050   78.4120  217.3506 H   0  0  0  0  0  0  0  0  0  0  0  0
  140.1975   77.8541  219.2305 H   0  0  0  0  0  0  0  0  0  0  0  0
  140.4828   76.5463  218.1045 H   0  0  0  0  0  0  0  0  0  0  0  0
  138.8094   75.4687  220.7489 H   0  0  0  0  0  0  0  0  0  0  0  0
  139.9622   74.3465  219.9197 H   0  0  0  0  0  0  0  0  0  0  0  0
  138.9680   74.1220  222.7280 H   0  0  0  0  0  0  0  0  0  0  0  0
  139.2493   70.3797  221.7794 H   0  0  0  0  0  0  0  0  0  0  0  0
  138.9854   68.7104  223.5611 H   0  0  0  0  0  0  0  0  0  0  0  0
  139.4264   68.1257  225.9421 H   0  0  0  0  0  0  0  0  0  0  0  0
  141.5091   70.8760  228.4697 H   0  0  0  0  0  0  0  0  0  0  0  0
  141.6850   72.4506  226.5563 H   0  0  0  0  0  0  0  0  0  0  0  0
  1  2  3  0
  2  3  1  0
  3  4  2  0
  4  5  1  0
  5  6  2  0
  6  7  1  0
  7  8  2  0
  8  9  1  0
  9 10  1  0
 10 11  1  0
 11 12  1  0
 12 13  1  0
 13 14  1  0
 14 15  2  0
 14 16  1  0
 16 17  1  0
 17 18  1  0
 18 19  2  0
 18 20  1  0
 20 21  2  0
 21 22  1  0
 22 23  2  0
 23 24  1  0
 24 25  2  0
 25 26  1  0
 25 27  1  0
 27 28  2  0
 28 29  1  0
 29 30  2  0
  8  3  1  0
 13  9  1  0
 30 20  1  0
 29 23  1  0
  4 31  1  0
  5 32  1  0
  6 33  1  0
  7 34  1  0
  9 35  1  1
 10 36  1  0
 10 37  1  0
 11 38  1  0
 11 39  1  0
 12 40  1  0
 12 41  1  0
 16 42  1  0
 16 43  1  0
 17 44  1  0
 21 45  1  0
 22 46  1  0
 24 47  1  0
 27 48  1  0
 28 49  1  0
M  END
>  <smiles>  (31) 
N#Cc1ccccc1[C@H]1CCCN1C(=O)CNC(=O)c1ccc2cc(Cl)ccc2n1

>  <score_type>  (31) 
oracle

>  <origin>  (31) 
autodockgpu

>  <m_score__min__energy>  (31) 
-9.0500000000000007

>  <m_primary>  (31) 
energy

>  <rmsd>  (31) 
6.188233804414775

>  <m_score__min__rmsd>  (31) 
6.188233804414775

>  <meeko>  (31) 
{"free_energy": -7.91, "intermolecular_energy": -9.7, "internal_energy": -2.11, "cluster_size": 1, "cluster_id": 6, "rank_in_cluster": 1}

>  <energy>  (31) 
-7.2

>  <cluster_rmsd>  (31) 
1.83

>  <cluster>  (31) 
4

$$$$

     RDKit          3D

 49 52  0  0  0  0  0  0  0  0999 V2000
  140.8540   72.2510  227.9650 N   0  0  0  0  0  0  0  0  0  0  0  0
  140.6610   71.2300  227.5060 C   0  0  0  0  0  0  0  0  0  0  0  0
  140.4370   69.9430  226.9470 C   0  0  0  0  0  0  0  0  0  0  0  0
  140.8420   68.8400  227.7060 C   0  0  0  0  0  0  0  0  0  0  0  0
  140.6640   67.5530  227.2450 C   0  0  0  0  0  0  0  0  0  0  0  0
  140.0710   67.4110  226.0090 C   0  0  0  0  0  0  0  0  0  0  0  0
  139.6730   68.4990  225.2610 C   0  0  0  0  0  0  0  0  0  0  0  0
  139.8470   69.8150  225.7160 C   0  0  0  0  0  0  0  0  0  0  0  0
  139.4110   70.9180  224.8900 C   0  0  1  0  0  0  0  0  0  0  0  0
  140.6570   71.4450  224.1620 C   0  0  0  0  0  0  0  0  0  0  0  0
  139.9770   72.2180  223.0510 C   0  0  0  0  0  0  0  0  0  0  0  0
  138.9340   71.2130  222.6170 C   0  0  0  0  0  0  0  0  0  0  0  0
  138.4250   70.7070  223.8910 N   0  0  0  0  0  0  0  0  0  0  0  0
  137.1560   70.1010  224.1280 C   0  0  0  0  0  0  0  0  0  0  0  0
  136.9900   69.1810  224.9460 O   0  0  0  0  0  0  0  0  0  0  0  0
  135.9780   70.6020  223.3540 C   0  0  0  0  0  0  0  0  0  0  0  0
  135.5700   71.9110  223.8100 N   0  0  0  0  0  0  0  0  0  0  0  0
  134.8870   71.9790  225.0590 C   0  0  0  0  0  0  0  0  0  0  0  0
  134.6450   70.9520  225.7400 O   0  0  0  0  0  0  0  0  0  0  0  0
  134.4690   73.3120  225.5260 C   0  0  0  0  0  0  0  0  0  0  0  0
  135.0740   74.4550  225.0470 C   0  0  0  0  0  0  0  0  0  0  0  0
  134.7320   75.7220  225.4400 C   0  0  0  0  0  0  0  0  0  0  0  0
  133.7210   75.8550  226.3690 C   0  0  0  0  0  0  0  0  0  0  0  0
  133.2800   77.0630  226.8470 C   0  0  0  0  0  0  0  0  0  0  0  0
  132.2660   77.1780  227.7780 C   0  0  0  0  0  0  0  0  0  0  0  0
  131.7020   78.7150  228.3890 Cl  0  0  0  0  0  0  0  0  0  0  0  0
  131.6730   76.0270  228.2450 C   0  0  0  0  0  0  0  0  0  0  0  0
  132.1050   74.7940  227.7730 C   0  0  0  0  0  0  0  0  0  0  0  0
  133.1310   74.7000  226.8320 C   0  0  0  0  0  0  0  0  0  0  0  0
  133.4860   73.4770  226.4320 N   0  0  0  0  0  0  0  0  0  0  0  0
  141.3107   69.0024  228.6878 H   0  0  0  0  0  0  0  0  0  0  0  0
  140.9803   66.6807  227.8357 H   0  0  0  0  0  0  0  0  0  0  0  0
  139.9104   66.3997  225.6072 H   0  0  0  0  0  0  0  0  0  0  0  0
  139.2057   68.3304  224.2795 H   0  0  0  0  0  0  0  0  0  0  0  0
  138.9168   71.5904  225.6066 H   0  0  0  0  0  0  0  0  0  0  0  0
  141.2649   72.0977  224.8057 H   0  0  0  0  0  0  0  0  0  0  0  0
  141.3717   70.6763  223.8330 H   0  0  0  0  0  0  0  0  0  0  0  0
  139.5175   73.1455  223.4234 H   0  0  0  0  0  0  0  0  0  0  0  0
  140.6496   72.5569  222.2493 H   0  0  0  0  0  0  0  0  0  0  0  0
  138.1356   71.6963  222.0348 H   0  0  0  0  0  0  0  0  0  0  0  0
  139.3336   70.4243  221.9626 H   0  0  0  0  0  0  0  0  0  0  0  0
  136.2475   70.6611  222.2892 H   0  0  0  0  0  0  0  0  0  0  0  0
  135.1408   69.9046  223.5048 H   0  0  0  0  0  0  0  0  0  0  0  0
  135.7650   72.7740  223.2520 H   0  0  0  0  0  0  0  0  0  0  0  0
  135.8788   74.3427  224.3055 H   0  0  0  0  0  0  0  0  0  0  0  0
  135.2461   76.6033  225.0288 H   0  0  0  0  0  0  0  0  0  0  0  0
  133.7553   77.9814  226.4720 H   0  0  0  0  0  0  0  0  0  0  0  0
  130.8627   76.0831  228.9868 H   0  0  0  0  0  0  0  0  0  0  0  0
  131.6298   73.8754  228.1477 H   0  0  0  0  0  0  0  0  0  0  0  0
  1  2  3  0
  2  3  1  0
  3  4  2  0
  4  5  1  0
  5  6  2  0
  6  7  1  0
  7  8  2  0
  8  9  1  0
  9 10  1  0
 10 11  1  0
 11 12  1  0
 12 13  1  0
 13 14  1  0
 14 15  2  0
 14 16  1  0
 16 17  1  0
 17 18  1  0
 18 19  2  0
 18 20  1  0
 20 21  2  0
 21 22  1  0
 22 23  2  0
 23 24  1  0
 24 25  2  0
 25 26  1  0
 25 27  1  0
 27 28  2  0
 28 29  1  0
 29 30  2  0
  8  3  1  0
 13  9  1  0
 30 20  1  0
 29 23  1  0
  4 31  1  0
  5 32  1  0
  6 33  1  0
  7 34  1  0
  9 35  1  1
 10 36  1  0
 10 37  1  0
 11 38  1  0
 11 39  1  0
 12 40  1  0
 12 41  1  0
 16 42  1  0
 16 43  1  0
 17 44  1  0
 21 45  1  0
 22 46  1  0
 24 47  1  0
 27 48  1  0
 28 49  1  0
M  END
>  <smiles>  (32) 
N#Cc1ccccc1[C@H]1CCCN1C(=O)CNC(=O)c1ccc2cc(Cl)ccc2n1

>  <score_type>  (32) 
oracle

>  <origin>  (32) 
autodockgpu

>  <m_score__min__energy>  (32) 
-9.0500000000000007

>  <m_primary>  (32) 
energy

>  <rmsd>  (32) 
10.575459249841899

>  <m_score__min__rmsd>  (32) 
10.575459249841899

>  <meeko>  (32) 
{"free_energy": -8.64, "intermolecular_energy": -10.43, "internal_energy": -1.47, "cluster_size": 4, "cluster_id": 1, "rank_in_cluster": 3}

>  <energy>  (32) 
-8.16

>  <cluster_rmsd>  (32) 
0.0

>  <cluster>  (32) 
5

$$$$

     RDKit          3D

 49 52  0  0  0  0  0  0  0  0999 V2000
  137.7170   79.0580  221.8340 N   0  0  0  0  0  0  0  0  0  0  0  0
  138.8080   79.2680  222.0760 C   0  0  0  0  0  0  0  0  0  0  0  0
  140.1730   79.5080  222.3890 C   0  0  0  0  0  0  0  0  0  0  0  0
  140.4380   80.3460  223.4770 C   0  0  0  0  0  0  0  0  0  0  0  0
  141.7310   80.6340  223.8570 C   0  0  0  0  0  0  0  0  0  0  0  0
  142.7410   80.0590  223.1140 C   0  0  0  0  0  0  0  0  0  0  0  0
  142.4790   79.2340  222.0420 C   0  0  0  0  0  0  0  0  0  0  0  0
  141.1680   78.9300  221.6430 C   0  0  0  0  0  0  0  0  0  0  0  0
  140.9510   78.0590  220.5100 C   0  0  1  0  0  0  0  0  0  0  0  0
  142.1340   78.2750  219.5530 C   0  0  0  0  0  0  0  0  0  0  0  0
  142.0030   77.0150  218.7220 C   0  0  0  0  0  0  0  0  0  0  0  0
  141.7930   75.9890  219.8130 C   0  0  0  0  0  0  0  0  0  0  0  0
  140.8470   76.6570  220.7060 N   0  0  0  0  0  0  0  0  0  0  0  0
  139.9530   76.0370  221.6290 C   0  0  0  0  0  0  0  0  0  0  0  0
  139.7840   76.4540  222.7870 O   0  0  0  0  0  0  0  0  0  0  0  0
  139.1910   74.8340  221.1730 C   0  0  0  0  0  0  0  0  0  0  0  0
  139.1620   73.8120  222.1950 N   0  0  0  0  0  0  0  0  0  0  0  0
  140.3200   72.9920  222.3240 C   0  0  0  0  0  0  0  0  0  0  0  0
  141.3250   73.1400  221.5870 O   0  0  0  0  0  0  0  0  0  0  0  0
  140.2930   71.9490  223.3660 C   0  0  0  0  0  0  0  0  0  0  0  0
  139.8410   70.6770  223.0850 C   0  0  0  0  0  0  0  0  0  0  0  0
  139.7910   69.6640  224.0060 C   0  0  0  0  0  0  0  0  0  0  0  0
  140.2200   69.9400  225.2870 C   0  0  0  0  0  0  0  0  0  0  0  0
  140.2240   69.0190  226.3040 C   0  0  0  0  0  0  0  0  0  0  0  0
  140.6580   69.3120  227.5820 C   0  0  0  0  0  0  0  0  0  0  0  0
  140.6640   68.1410  228.8790 Cl  0  0  0  0  0  0  0  0  0  0  0  0
  141.1060   70.5870  227.8450 C   0  0  0  0  0  0  0  0  0  0  0  0
  141.1110   71.5330  226.8280 C   0  0  0  0  0  0  0  0  0  0  0  0
  140.6680   71.2170  225.5430 C   0  0  0  0  0  0  0  0  0  0  0  0
  140.7050   72.1850  224.6250 N   0  0  0  0  0  0  0  0  0  0  0  0
  139.5996   80.7829  224.0393 H   0  0  0  0  0  0  0  0  0  0  0  0
  141.9474   81.2912  224.7122 H   0  0  0  0  0  0  0  0  0  0  0  0
  143.7868   80.2653  223.3854 H   0  0  0  0  0  0  0  0  0  0  0  0
  143.3215   78.8011  221.4827 H   0  0  0  0  0  0  0  0  0  0  0  0
  139.9503   78.3481  220.1563 H   0  0  0  0  0  0  0  0  0  0  0  0
  142.0119   79.1838  218.9454 H   0  0  0  0  0  0  0  0  0  0  0  0
  143.1112   78.4225  220.0360 H   0  0  0  0  0  0  0  0  0  0  0  0
  141.1413   77.0655  218.0401 H   0  0  0  0  0  0  0  0  0  0  0  0
  142.8563   76.8117  218.0583 H   0  0  0  0  0  0  0  0  0  0  0  0
  141.3665   75.0600  219.4068 H   0  0  0  0  0  0  0  0  0  0  0  0
  142.7252   75.6865  220.3126 H   0  0  0  0  0  0  0  0  0  0  0  0
  138.1593   75.1323  220.9352 H   0  0  0  0  0  0  0  0  0  0  0  0
  139.6917   74.4222  220.2844 H   0  0  0  0  0  0  0  0  0  0  0  0
  138.3310   73.6790  222.8150 H   0  0  0  0  0  0  0  0  0  0  0  0
  139.5005   70.4630  222.0611 H   0  0  0  0  0  0  0  0  0  0  0  0
  139.4213   68.6647  223.7329 H   0  0  0  0  0  0  0  0  0  0  0  0
  139.8652   68.0010  226.0918 H   0  0  0  0  0  0  0  0  0  0  0  0
  141.4572   70.8544  228.8526 H   0  0  0  0  0  0  0  0  0  0  0  0
  141.4710   72.5507  227.0395 H   0  0  0  0  0  0  0  0  0  0  0  0
  1  2  3  0
  2  3  1  0
  3  4  2  0
  4  5  1  0
  5  6  2  0
  6  7  1  0
  7  8  2  0
  8  9  1  0
  9 10  1  0
 10 11  1  0
 11 12  1  0
 12 13  1  0
 13 14  1  0
 14 15  2  0
 14 16  1  0
 16 17  1  0
 17 18  1  0
 18 19  2  0
 18 20  1  0
 20 21  2  0
 21 22  1  0
 22 23  2  0
 23 24  1  0
 24 25  2  0
 25 26  1  0
 25 27  1  0
 27 28  2  0
 28 29  1  0
 29 30  2  0
  8  3  1  0
 13  9  1  0
 30 20  1  0
 29 23  1  0
  4 31  1  0
  5 32  1  0
  6 33  1  0
  7 34  1  0
  9 35  1  6
 10 36  1  0
 10 37  1  0
 11 38  1  0
 11 39  1  0
 12 40  1  0
 12 41  1  0
 16 42  1  0
 16 43  1  0
 17 44  1  0
 21 45  1  0
 22 46  1  0
 24 47  1  0
 27 48  1  0
 28 49  1  0
M  END
>  <smiles>  (33) 
N#Cc1ccccc1[C@H]1CCCN1C(=O)CNC(=O)c1ccc2cc(Cl)ccc2n1

>  <score_type>  (33) 
oracle

>  <origin>  (33) 
autodockgpu

>  <m_score__min__energy>  (33) 
-9.0500000000000007

>  <m_primary>  (33) 
energy

>  <rmsd>  (33) 
3.763751319706963

>  <m_score__min__rmsd>  (33) 
3.763751319706963

>  <meeko>  (33) 
{"free_energy": -8.62, "intermolecular_energy": -10.41, "internal_energy": -1.68, "cluster_size": 21, "cluster_id": 2, "rank_in_cluster": 9}

>  <energy>  (33) 
-8.16

>  <cluster_rmsd>  (33) 
0.09

>  <cluster>  (33) 
5

$$$$

     RDKit          3D

 49 52  0  0  0  0  0  0  0  0999 V2000
  140.6820   72.7100  222.7180 N   0  0  0  0  0  0  0  0  0  0  0  0
  140.4850   72.0920  223.6510 C   0  0  0  0  0  0  0  0  0  0  0  0
  140.2600   71.3290  224.8280 C   0  0  0  0  0  0  0  0  0  0  0  0
  140.8830   71.7680  226.0000 C   0  0  0  0  0  0  0  0  0  0  0  0
  140.7200   71.0930  227.1910 C   0  0  0  0  0  0  0  0  0  0  0  0
  139.9190   69.9710  227.1660 C   0  0  0  0  0  0  0  0  0  0  0  0
  139.3060   69.5380  226.0090 C   0  0  0  0  0  0  0  0  0  0  0  0
  139.4610   70.2150  224.7900 C   0  0  0  0  0  0  0  0  0  0  0  0
  138.7950   69.7160  223.6080 C   0  0  1  0  0  0  0  0  0  0  0  0
  138.7710   68.1840  223.7270 C   0  0  0  0  0  0  0  0  0  0  0  0
  137.6800   67.8820  222.7200 C   0  0  0  0  0  0  0  0  0  0  0  0
  136.6510   68.9180  223.1140 C   0  0  0  0  0  0  0  0  0  0  0  0
  137.4620   70.1150  223.3260 N   0  0  0  0  0  0  0  0  0  0  0  0
  137.0240   71.4720  223.2640 C   0  0  0  0  0  0  0  0  0  0  0  0
  136.4320   72.0320  224.2010 O   0  0  0  0  0  0  0  0  0  0  0  0
  137.2960   72.2440  222.0130 C   0  0  0  0  0  0  0  0  0  0  0  0
  137.9160   73.5160  222.3050 N   0  0  0  0  0  0  0  0  0  0  0  0
  137.1690   74.6890  221.9930 C   0  0  0  0  0  0  0  0  0  0  0  0
  136.0230   74.6300  221.4850 O   0  0  0  0  0  0  0  0  0  0  0  0
  137.7990   75.9880  222.2910 C   0  0  0  0  0  0  0  0  0  0  0  0
  137.0360   77.1230  222.4660 C   0  0  0  0  0  0  0  0  0  0  0  0
  137.5590   78.3580  222.7440 C   0  0  0  0  0  0  0  0  0  0  0  0
  138.9290   78.4650  222.8540 C   0  0  0  0  0  0  0  0  0  0  0  0
  139.5830   79.6400  223.1290 C   0  0  0  0  0  0  0  0  0  0  0  0
  140.9570   79.7290  223.2360 C   0  0  0  0  0  0  0  0  0  0  0  0
  141.7910   81.2240  223.5860 Cl  0  0  0  0  0  0  0  0  0  0  0  0
  141.7030   78.5860  223.0570 C   0  0  0  0  0  0  0  0  0  0  0  0
  141.0600   77.3870  222.7790 C   0  0  0  0  0  0  0  0  0  0  0  0
  139.6700   77.3170  222.6750 C   0  0  0  0  0  0  0  0  0  0  0  0
  139.1330   76.1260  222.4040 N   0  0  0  0  0  0  0  0  0  0  0  0
  141.5146   72.6681  225.9714 H   0  0  0  0  0  0  0  0  0  0  0  0
  141.2059   71.4334  228.1173 H   0  0  0  0  0  0  0  0  0  0  0  0
  139.7644   69.4046  228.0962 H   0  0  0  0  0  0  0  0  0  0  0  0
  138.6775   68.6359  226.0429 H   0  0  0  0  0  0  0  0  0  0  0  0
  139.3786   70.1540  222.7849 H   0  0  0  0  0  0  0  0  0  0  0  0
  139.7326   67.7334  223.4401 H   0  0  0  0  0  0  0  0  0  0  0  0
  138.5995   67.7920  224.7404 H   0  0  0  0  0  0  0  0  0  0  0  0
  138.0286   68.0276  221.6869 H   0  0  0  0  0  0  0  0  0  0  0  0
  137.3159   66.8441  222.7343 H   0  0  0  0  0  0  0  0  0  0  0  0
  135.9173   69.0738  222.3094 H   0  0  0  0  0  0  0  0  0  0  0  0
  136.0593   68.6309  223.9957 H   0  0  0  0  0  0  0  0  0  0  0  0
  137.9677   71.6575  221.3690 H   0  0  0  0  0  0  0  0  0  0  0  0
  136.3380   72.4330  221.5066 H   0  0  0  0  0  0  0  0  0  0  0  0
  138.8700   73.5780  222.7290 H   0  0  0  0  0  0  0  0  0  0  0  0
  135.9434   77.0313  222.3772 H   0  0  0  0  0  0  0  0  0  0  0  0
  136.9079   79.2348  222.8751 H   0  0  0  0  0  0  0  0  0  0  0  0
  138.9853   80.5526  223.2706 H   0  0  0  0  0  0  0  0  0  0  0  0
  142.7997   78.6221  223.1336 H   0  0  0  0  0  0  0  0  0  0  0  0
  141.6579   76.4745  222.6380 H   0  0  0  0  0  0  0  0  0  0  0  0
  1  2  3  0
  2  3  1  0
  3  4  2  0
  4  5  1  0
  5  6  2  0
  6  7  1  0
  7  8  2  0
  8  9  1  0
  9 10  1  0
 10 11  1  0
 11 12  1  0
 12 13  1  0
 13 14  1  0
 14 15  2  0
 14 16  1  0
 16 17  1  0
 17 18  1  0
 18 19  2  0
 18 20  1  0
 20 21  2  0
 21 22  1  0
 22 23  2  0
 23 24  1  0
 24 25  2  0
 25 26  1  0
 25 27  1  0
 27 28  2  0
 28 29  1  0
 29 30  2  0
  8  3  1  0
 13  9  1  0
 30 20  1  0
 29 23  1  0
  4 31  1  0
  5 32  1  0
  6 33  1  0
  7 34  1  0
  9 35  1  6
 10 36  1  0
 10 37  1  0
 11 38  1  0
 11 39  1  0
 12 40  1  0
 12 41  1  0
 16 42  1  0
 16 43  1  0
 17 44  1  0
 21 45  1  0
 22 46  1  0
 24 47  1  0
 27 48  1  0
 28 49  1  0
M  END
>  <smiles>  (34) 
N#Cc1ccccc1[C@H]1CCCN1C(=O)CNC(=O)c1ccc2cc(Cl)ccc2n1

>  <score_type>  (34) 
oracle

>  <origin>  (34) 
autodockgpu

>  <m_score__min__energy>  (34) 
-9.0500000000000007

>  <m_primary>  (34) 
energy

>  <rmsd>  (34) 
9.901641110170624

>  <m_score__min__rmsd>  (34) 
9.901641110170624

>  <meeko>  (34) 
{"free_energy": -7.92, "intermolecular_energy": -9.71, "internal_energy": -2.69, "cluster_size": 17, "cluster_id": 5, "rank_in_cluster": 12}

>  <energy>  (34) 
-8.15

>  <cluster_rmsd>  (34) 
0.11

>  <cluster>  (34) 
5

$$$$

     RDKit          3D

 49 52  0  0  0  0  0  0  0  0999 V2000
  140.5220   72.7570  222.7140 N   0  0  0  0  0  0  0  0  0  0  0  0
  140.3820   72.0690  223.6080 C   0  0  0  0  0  0  0  0  0  0  0  0
  140.1860   71.2020  224.7170 C   0  0  0  0  0  0  0  0  0  0  0  0
  140.8390   71.5350  225.9080 C   0  0  0  0  0  0  0  0  0  0  0  0
  140.7050   70.7540  227.0360 C   0  0  0  0  0  0  0  0  0  0  0  0
  139.9030   69.6380  226.9300 C   0  0  0  0  0  0  0  0  0  0  0  0
  139.2610   69.3100  225.7550 C   0  0  0  0  0  0  0  0  0  0  0  0
  139.3860   70.0950  224.5980 C   0  0  0  0  0  0  0  0  0  0  0  0
  138.6900   69.7040  223.3930 C   0  0  1  0  0  0  0  0  0  0  0  0
  138.6180   68.1690  223.4010 C   0  0  0  0  0  0  0  0  0  0  0  0
  137.5060   67.9750  222.3910 C   0  0  0  0  0  0  0  0  0  0  0  0
  136.5150   69.0120  222.8730 C   0  0  0  0  0  0  0  0  0  0  0  0
  137.3670   70.1640  223.1590 N   0  0  0  0  0  0  0  0  0  0  0  0
  136.9730   71.5350  223.2010 C   0  0  0  0  0  0  0  0  0  0  0  0
  136.4830   72.0640  224.2120 O   0  0  0  0  0  0  0  0  0  0  0  0
  137.1620   72.3610  221.9690 C   0  0  0  0  0  0  0  0  0  0  0  0
  137.8140   73.6150  222.2730 N   0  0  0  0  0  0  0  0  0  0  0  0
  137.1100   74.8080  221.9420 C   0  0  0  0  0  0  0  0  0  0  0  0
  135.9740   74.7830  221.4080 O   0  0  0  0  0  0  0  0  0  0  0  0
  137.7720   76.0880  222.2510 C   0  0  0  0  0  0  0  0  0  0  0  0
  137.0370   77.2370  222.4550 C   0  0  0  0  0  0  0  0  0  0  0  0
  137.5910   78.4560  222.7450 C   0  0  0  0  0  0  0  0  0  0  0  0
  138.9640   78.5310  222.8370 C   0  0  0  0  0  0  0  0  0  0  0  0
  139.6470   79.6870  223.1210 C   0  0  0  0  0  0  0  0  0  0  0  0
  141.0240   79.7440  223.2100 C   0  0  0  0  0  0  0  0  0  0  0  0
  141.8960   81.2150  223.5720 Cl  0  0  0  0  0  0  0  0  0  0  0  0
  141.7430   78.5880  223.0030 C   0  0  0  0  0  0  0  0  0  0  0  0
  141.0700   77.4080  222.7150 C   0  0  0  0  0  0  0  0  0  0  0  0
  139.6770   77.3710  222.6300 C   0  0  0  0  0  0  0  0  0  0  0  0
  139.1110   76.1960  222.3480 N   0  0  0  0  0  0  0  0  0  0  0  0
  141.4701   72.4352  225.9453 H   0  0  0  0  0  0  0  0  0  0  0  0
  141.2144   71.0095  227.9769 H   0  0  0  0  0  0  0  0  0  0  0  0
  139.7714   68.9899  227.8090 H   0  0  0  0  0  0  0  0  0  0  0  0
  138.6329   68.4075  225.7232 H   0  0  0  0  0  0  0  0  0  0  0  0
  139.2778   70.1824  222.5957 H   0  0  0  0  0  0  0  0  0  0  0  0
  139.5610   67.7107  223.0684 H   0  0  0  0  0  0  0  0  0  0  0  0
  138.4462   67.7100  224.3858 H   0  0  0  0  0  0  0  0  0  0  0  0
  137.8467   68.1838  221.3662 H   0  0  0  0  0  0  0  0  0  0  0  0
  137.1088   66.9507  222.3362 H   0  0  0  0  0  0  0  0  0  0  0  0
  135.7774   69.2486  222.0920 H   0  0  0  0  0  0  0  0  0  0  0  0
  135.9243   68.6808  223.7398 H   0  0  0  0  0  0  0  0  0  0  0  0
  137.7802   71.8000  221.2527 H   0  0  0  0  0  0  0  0  0  0  0  0
  136.1722   72.5787  221.5414 H   0  0  0  0  0  0  0  0  0  0  0  0
  138.7590   73.6490  222.7180 H   0  0  0  0  0  0  0  0  0  0  0  0
  135.9415   77.1708  222.3805 H   0  0  0  0  0  0  0  0  0  0  0  0
  136.9613   79.3447  222.8991 H   0  0  0  0  0  0  0  0  0  0  0  0
  139.0716   80.6100  223.2852 H   0  0  0  0  0  0  0  0  0  0  0  0
  142.8412   78.5992  223.0653 H   0  0  0  0  0  0  0  0  0  0  0  0
  141.6453   76.4850  222.5507 H   0  0  0  0  0  0  0  0  0  0  0  0
  1  2  3  0
  2  3  1  0
  3  4  2  0
  4  5  1  0
  5  6  2  0
  6  7  1  0
  7  8  2  0
  8  9  1  0
  9 10  1  0
 10 11  1  0
 11 12  1  0
 12 13  1  0
 13 14  1  0
 14 15  2  0
 14 16  1  0
 16 17  1  0
 17 18  1  0
 18 19  2  0
 18 20  1  0
 20 21  2  0
 21 22  1  0
 22 23  2  0
 23 24  1  0
 24 25  2  0
 25 26  1  0
 25 27  1  0
 27 28  2  0
 28 29  1  0
 29 30  2  0
  8  3  1  0
 13  9  1  0
 30 20  1  0
 29 23  1  0
  4 31  1  0
  5 32  1  0
  6 33  1  0
  7 34  1  0
  9 35  1  6
 10 36  1  0
 10 37  1  0
 11 38  1  0
 11 39  1  0
 12 40  1  0
 12 41  1  0
 16 42  1  0
 16 43  1  0
 17 44  1  0
 21 45  1  0
 22 46  1  0
 24 47  1  0
 27 48  1  0
 28 49  1  0
M  END
>  <smiles>  (35) 
N#Cc1ccccc1[C@H]1CCCN1C(=O)CNC(=O)c1ccc2cc(Cl)ccc2n1

>  <score_type>  (35) 
oracle

>  <origin>  (35) 
autodockgpu

>  <m_score__min__energy>  (35) 
-9.0500000000000007

>  <m_primary>  (35) 
energy

>  <rmsd>  (35) 
9.96993948981467

>  <m_score__min__rmsd>  (35) 
9.96993948981467

>  <meeko>  (35) 
{"free_energy": -7.97, "intermolecular_energy": -9.76, "internal_energy": -2.66, "cluster_size": 17, "cluster_id": 5, "rank_in_cluster": 6}

>  <energy>  (35) 
-8.12

>  <cluster_rmsd>  (35) 
0.25

>  <cluster>  (35) 
5

$$$$

     RDKit          3D

 49 52  0  0  0  0  0  0  0  0999 V2000
  140.6350   72.7300  222.6760 N   0  0  0  0  0  0  0  0  0  0  0  0
  140.4780   72.1140  223.6180 C   0  0  0  0  0  0  0  0  0  0  0  0
  140.2700   71.3280  224.7830 C   0  0  0  0  0  0  0  0  0  0  0  0
  140.9020   71.7510  225.9580 C   0  0  0  0  0  0  0  0  0  0  0  0
  140.7550   71.0530  227.1370 C   0  0  0  0  0  0  0  0  0  0  0  0
  139.9620   69.9260  227.0990 C   0  0  0  0  0  0  0  0  0  0  0  0
  139.3410   69.5090  225.9410 C   0  0  0  0  0  0  0  0  0  0  0  0
  139.4790   70.2090  224.7330 C   0  0  0  0  0  0  0  0  0  0  0  0
  138.8060   69.7270  223.5480 C   0  0  1  0  0  0  0  0  0  0  0  0
  138.8070   68.1920  223.6320 C   0  0  0  0  0  0  0  0  0  0  0  0
  137.7070   67.8960  222.6320 C   0  0  0  0  0  0  0  0  0  0  0  0
  136.6670   68.9060  223.0640 C   0  0  0  0  0  0  0  0  0  0  0  0
  137.4630   70.1110  223.2930 N   0  0  0  0  0  0  0  0  0  0  0  0
  137.0030   71.4610  223.2680 C   0  0  0  0  0  0  0  0  0  0  0  0
  136.4410   72.0000  224.2360 O   0  0  0  0  0  0  0  0  0  0  0  0
  137.2120   72.2550  222.0170 C   0  0  0  0  0  0  0  0  0  0  0  0
  137.8560   73.5180  222.2990 N   0  0  0  0  0  0  0  0  0  0  0  0
  137.1250   74.7010  221.9870 C   0  0  0  0  0  0  0  0  0  0  0  0
  135.9740   74.6590  221.4880 O   0  0  0  0  0  0  0  0  0  0  0  0
  137.7800   75.9910  222.2730 C   0  0  0  0  0  0  0  0  0  0  0  0
  137.0370   77.1390  222.4530 C   0  0  0  0  0  0  0  0  0  0  0  0
  137.5830   78.3660  222.7210 C   0  0  0  0  0  0  0  0  0  0  0  0
  138.9560   78.4510  222.8160 C   0  0  0  0  0  0  0  0  0  0  0  0
  139.6310   79.6160  223.0790 C   0  0  0  0  0  0  0  0  0  0  0  0
  141.0080   79.6840  223.1700 C   0  0  0  0  0  0  0  0  0  0  0  0
  141.8700   81.1660  223.5060 Cl  0  0  0  0  0  0  0  0  0  0  0  0
  141.7330   78.5280  222.9870 C   0  0  0  0  0  0  0  0  0  0  0  0
  141.0680   77.3380  222.7200 C   0  0  0  0  0  0  0  0  0  0  0  0
  139.6760   77.2910  222.6320 C   0  0  0  0  0  0  0  0  0  0  0  0
  139.1170   76.1080  222.3710 N   0  0  0  0  0  0  0  0  0  0  0  0
  141.5268   72.6562  225.9400 H   0  0  0  0  0  0  0  0  0  0  0  0
  141.2473   71.3797  228.0648 H   0  0  0  0  0  0  0  0  0  0  0  0
  139.8205   69.3419  228.0203 H   0  0  0  0  0  0  0  0  0  0  0  0
  138.7196   68.6016  225.9648 H   0  0  0  0  0  0  0  0  0  0  0  0
  139.3721   70.1928  222.7279 H   0  0  0  0  0  0  0  0  0  0  0  0
  139.7715   67.7631  223.3225 H   0  0  0  0  0  0  0  0  0  0  0  0
  138.6550   67.7743  224.6382 H   0  0  0  0  0  0  0  0  0  0  0  0
  138.0393   68.0714  221.5982 H   0  0  0  0  0  0  0  0  0  0  0  0
  137.3596   66.8523  222.6264 H   0  0  0  0  0  0  0  0  0  0  0  0
  135.9199   69.0687  222.2732 H   0  0  0  0  0  0  0  0  0  0  0  0
  136.0918   68.5892  223.9465 H   0  0  0  0  0  0  0  0  0  0  0  0
  137.8438   71.6767  221.3267 H   0  0  0  0  0  0  0  0  0  0  0  0
  136.2294   72.4588  221.5665 H   0  0  0  0  0  0  0  0  0  0  0  0
  138.8140   73.5660  222.7140 H   0  0  0  0  0  0  0  0  0  0  0  0
  135.9422   77.0647  222.3769 H   0  0  0  0  0  0  0  0  0  0  0  0
  136.9477   79.2538  222.8559 H   0  0  0  0  0  0  0  0  0  0  0  0
  139.0493   80.5383  223.2241 H   0  0  0  0  0  0  0  0  0  0  0  0
  142.8309   78.5466  223.0517 H   0  0  0  0  0  0  0  0  0  0  0  0
  141.6494   76.4155  222.5752 H   0  0  0  0  0  0  0  0  0  0  0  0
  1  2  3  0
  2  3  1  0
  3  4  2  0
  4  5  1  0
  5  6  2  0
  6  7  1  0
  7  8  2  0
  8  9  1  0
  9 10  1  0
 10 11  1  0
 11 12  1  0
 12 13  1  0
 13 14  1  0
 14 15  2  0
 14 16  1  0
 16 17  1  0
 17 18  1  0
 18 19  2  0
 18 20  1  0
 20 21  2  0
 21 22  1  0
 22 23  2  0
 23 24  1  0
 24 25  2  0
 25 26  1  0
 25 27  1  0
 27 28  2  0
 28 29  1  0
 29 30  2  0
  8  3  1  0
 13  9  1  0
 30 20  1  0
 29 23  1  0
  4 31  1  0
  5 32  1  0
  6 33  1  0
  7 34  1  0
  9 35  1  6
 10 36  1  0
 10 37  1  0
 11 38  1  0
 11 39  1  0
 12 40  1  0
 12 41  1  0
 16 42  1  0
 16 43  1  0
 17 44  1  0
 21 45  1  0
 22 46  1  0
 24 47  1  0
 27 48  1  0
 28 49  1  0
M  END
>  <smiles>  (36) 
N#Cc1ccccc1[C@H]1CCCN1C(=O)CNC(=O)c1ccc2cc(Cl)ccc2n1

>  <score_type>  (36) 
oracle

>  <origin>  (36) 
autodockgpu

>  <m_score__min__energy>  (36) 
-9.0500000000000007

>  <m_primary>  (36) 
energy

>  <rmsd>  (36) 
9.896629753114686

>  <m_score__min__rmsd>  (36) 
9.896629753114686

>  <meeko>  (36) 
{"free_energy": -7.94, "intermolecular_energy": -9.73, "internal_energy": -2.7, "cluster_size": 17, "cluster_id": 5, "rank_in_cluster": 9}

>  <energy>  (36) 
-7.97

>  <cluster_rmsd>  (36) 
0.68

>  <cluster>  (36) 
5

$$$$

     RDKit          3D

 49 52  0  0  0  0  0  0  0  0999 V2000
  137.6710   79.4360  221.4280 N   0  0  0  0  0  0  0  0  0  0  0  0
  138.7360   79.5710  221.8010 C   0  0  0  0  0  0  0  0  0  0  0  0
  140.0710   79.7150  222.2640 C   0  0  0  0  0  0  0  0  0  0  0  0
  140.2780   80.5700  223.3520 C   0  0  0  0  0  0  0  0  0  0  0  0
  141.5390   80.7700  223.8720 C   0  0  0  0  0  0  0  0  0  0  0  0
  142.5760   80.0910  223.2690 C   0  0  0  0  0  0  0  0  0  0  0  0
  142.3710   79.2500  222.1960 C   0  0  0  0  0  0  0  0  0  0  0  0
  141.0940   79.0340  221.6560 C   0  0  0  0  0  0  0  0  0  0  0  0
  140.9370   78.1410  220.5300 C   0  0  1  0  0  0  0  0  0  0  0  0
  142.1940   78.3000  219.6610 C   0  0  0  0  0  0  0  0  0  0  0  0
  142.0900   77.0240  218.8520 C   0  0  0  0  0  0  0  0  0  0  0  0
  141.7680   76.0320  219.9480 C   0  0  0  0  0  0  0  0  0  0  0  0
  140.7780   76.7480  220.7500 N   0  0  0  0  0  0  0  0  0  0  0  0
  139.8000   76.1760  221.6170 C   0  0  0  0  0  0  0  0  0  0  0  0
  139.3980   76.7430  222.6470 O   0  0  0  0  0  0  0  0  0  0  0  0
  139.2390   74.8360  221.2620 C   0  0  0  0  0  0  0  0  0  0  0  0
  139.4160   73.8900  222.3400 N   0  0  0  0  0  0  0  0  0  0  0  0
  139.5490   72.5170  221.9830 C   0  0  0  0  0  0  0  0  0  0  0  0
  139.5130   72.1350  220.7880 O   0  0  0  0  0  0  0  0  0  0  0  0
  139.7290   71.5500  223.0810 C   0  0  0  0  0  0  0  0  0  0  0  0
  139.3900   70.2230  222.9210 C   0  0  0  0  0  0  0  0  0  0  0  0
  139.5330   69.2760  223.9000 C   0  0  0  0  0  0  0  0  0  0  0  0
  140.0470   69.6800  225.1140 C   0  0  0  0  0  0  0  0  0  0  0  0
  140.2420   68.8360  226.1780 C   0  0  0  0  0  0  0  0  0  0  0  0
  140.7590   69.2580  227.3870 C   0  0  0  0  0  0  0  0  0  0  0  0
  141.0090   68.1850  228.7440 Cl  0  0  0  0  0  0  0  0  0  0  0  0
  141.0930   70.5860  227.5300 C   0  0  0  0  0  0  0  0  0  0  0  0
  140.9030   71.4560  226.4640 C   0  0  0  0  0  0  0  0  0  0  0  0
  140.3790   71.0100  225.2500 C   0  0  0  0  0  0  0  0  0  0  0  0
  140.2280   71.9120  224.2780 N   0  0  0  0  0  0  0  0  0  0  0  0
  139.4196   81.0917  223.8003 H   0  0  0  0  0  0  0  0  0  0  0  0
  141.7096   81.4398  224.7277 H   0  0  0  0  0  0  0  0  0  0  0  0
  143.5973   80.2241  223.6553 H   0  0  0  0  0  0  0  0  0  0  0  0
  143.2337   78.7332  221.7502 H   0  0  0  0  0  0  0  0  0  0  0  0
  139.9746   78.4485  220.0950 H   0  0  0  0  0  0  0  0  0  0  0  0
  142.1444   79.1961  219.0250 H   0  0  0  0  0  0  0  0  0  0  0  0
  143.1358   78.4328  220.2136 H   0  0  0  0  0  0  0  0  0  0  0  0
  141.2844   77.0806  218.1052 H   0  0  0  0  0  0  0  0  0  0  0  0
  142.9848   76.7808  218.2603 H   0  0  0  0  0  0  0  0  0  0  0  0
  141.3462   75.1050  219.5324 H   0  0  0  0  0  0  0  0  0  0  0  0
  142.6505   75.7168  220.5240 H   0  0  0  0  0  0  0  0  0  0  0  0
  138.1646   74.9419  221.0510 H   0  0  0  0  0  0  0  0  0  0  0  0
  139.7740   74.4589  220.3780 H   0  0  0  0  0  0  0  0  0  0  0  0
  139.4480   74.1960  223.3390 H   0  0  0  0  0  0  0  0  0  0  0  0
  138.9808   69.9065  221.9503 H   0  0  0  0  0  0  0  0  0  0  0  0
  139.2475   68.2284  223.7237 H   0  0  0  0  0  0  0  0  0  0  0  0
  139.9744   67.7753  226.0628 H   0  0  0  0  0  0  0  0  0  0  0  0
  141.5067   70.9548  228.4802 H   0  0  0  0  0  0  0  0  0  0  0  0
  141.1707   72.5167  226.5790 H   0  0  0  0  0  0  0  0  0  0  0  0
  1  2  3  0
  2  3  1  0
  3  4  2  0
  4  5  1  0
  5  6  2  0
  6  7  1  0
  7  8  2  0
  8  9  1  0
  9 10  1  0
 10 11  1  0
 11 12  1  0
 12 13  1  0
 13 14  1  0
 14 15  2  0
 14 16  1  0
 16 17  1  0
 17 18  1  0
 18 19  2  0
 18 20  1  0
 20 21  2  0
 21 22  1  0
 22 23  2  0
 23 24  1  0
 24 25  2  0
 25 26  1  0
 25 27  1  0
 27 28  2  0
 28 29  1  0
 29 30  2  0
  8  3  1  0
 13  9  1  0
 30 20  1  0
 29 23  1  0
  4 31  1  0
  5 32  1  0
  6 33  1  0
  7 34  1  0
  9 35  1  6
 10 36  1  0
 10 37  1  0
 11 38  1  0
 11 39  1  0
 12 40  1  0
 12 41  1  0
 16 42  1  0
 16 43  1  0
 17 44  1  0
 21 45  1  0
 22 46  1  0
 24 47  1  0
 27 48  1  0
 28 49  1  0
M  END
>  <smiles>  (37) 
N#Cc1ccccc1[C@H]1CCCN1C(=O)CNC(=O)c1ccc2cc(Cl)ccc2n1

>  <score_type>  (37) 
oracle

>  <origin>  (37) 
autodockgpu

>  <m_score__min__energy>  (37) 
-9.0500000000000007

>  <m_primary>  (37) 
energy

>  <rmsd>  (37) 
3.7344025750532133

>  <m_score__min__rmsd>  (37) 
3.7344025750532133

>  <meeko>  (37) 
{"free_energy": -8.5, "intermolecular_energy": -10.29, "internal_energy": -1.86, "cluster_size": 21, "cluster_id": 2, "rank_in_cluster": 13}

>  <energy>  (37) 
-7.97

>  <cluster_rmsd>  (37) 
0.68

>  <cluster>  (37) 
5

$$$$

     RDKit          3D

 49 52  0  0  0  0  0  0  0  0999 V2000
  139.0260   76.1530  222.3260 N   0  0  0  0  0  0  0  0  0  0  0  0
  139.7640   77.0160  222.3550 C   0  0  0  0  0  0  0  0  0  0  0  0
  140.6940   78.0890  222.4150 C   0  0  0  0  0  0  0  0  0  0  0  0
  140.9540   78.6350  223.6770 C   0  0  0  0  0  0  0  0  0  0  0  0
  141.8430   79.6770  223.8320 C   0  0  0  0  0  0  0  0  0  0  0  0
  142.4560   80.1480  222.6910 C   0  0  0  0  0  0  0  0  0  0  0  0
  142.1990   79.6100  221.4490 C   0  0  0  0  0  0  0  0  0  0  0  0
  141.2970   78.5490  221.2730 C   0  0  0  0  0  0  0  0  0  0  0  0
  141.0640   78.0230  219.9470 C   0  0  1  0  0  0  0  0  0  0  0  0
  141.4060   79.1490  218.9580 C   0  0  0  0  0  0  0  0  0  0  0  0
  141.5670   78.3220  217.6990 C   0  0  0  0  0  0  0  0  0  0  0  0
  142.4110   77.1830  218.2270 C   0  0  0  0  0  0  0  0  0  0  0  0
  141.7760   76.8760  219.5060 N   0  0  0  0  0  0  0  0  0  0  0  0
  141.8350   75.6420  220.2210 C   0  0  0  0  0  0  0  0  0  0  0  0
  142.8540   75.2560  220.8150 O   0  0  0  0  0  0  0  0  0  0  0  0
  140.6100   74.7850  220.2490 C   0  0  0  0  0  0  0  0  0  0  0  0
  140.6280   73.8810  221.3770 N   0  0  0  0  0  0  0  0  0  0  0  0
  139.5600   72.9430  221.4740 C   0  0  0  0  0  0  0  0  0  0  0  0
  138.6370   72.8960  220.6230 O   0  0  0  0  0  0  0  0  0  0  0  0
  139.5750   72.0210  222.6230 C   0  0  0  0  0  0  0  0  0  0  0  0
  138.8400   70.8550  222.6080 C   0  0  0  0  0  0  0  0  0  0  0  0
  138.8120   69.9570  223.6420 C   0  0  0  0  0  0  0  0  0  0  0  0
  139.5660   70.2420  224.7600 C   0  0  0  0  0  0  0  0  0  0  0  0
  139.6280   69.4300  225.8650 C   0  0  0  0  0  0  0  0  0  0  0  0
  140.3900   69.7310  226.9770 C   0  0  0  0  0  0  0  0  0  0  0  0
  140.4710   68.6990  228.3850 Cl  0  0  0  0  0  0  0  0  0  0  0  0
  141.1180   70.8990  226.9760 C   0  0  0  0  0  0  0  0  0  0  0  0
  141.0690   71.7340  225.8670 C   0  0  0  0  0  0  0  0  0  0  0  0
  140.2930   71.4120  224.7520 C   0  0  0  0  0  0  0  0  0  0  0  0
  140.3010   72.2700  223.7300 N   0  0  0  0  0  0  0  0  0  0  0  0
  140.4406   78.2260  224.5597 H   0  0  0  0  0  0  0  0  0  0  0  0
  142.0533   80.1122  224.8201 H   0  0  0  0  0  0  0  0  0  0  0  0
  143.1722   80.9787  222.7745 H   0  0  0  0  0  0  0  0  0  0  0  0
  142.7154   80.0237  220.5702 H   0  0  0  0  0  0  0  0  0  0  0  0
  140.0191   77.6820  219.9901 H   0  0  0  0  0  0  0  0  0  0  0  0
  140.5896   79.8808  218.8686 H   0  0  0  0  0  0  0  0  0  0  0  0
  142.2734   79.7685  219.2298 H   0  0  0  0  0  0  0  0  0  0  0  0
  140.5976   77.9674  217.3187 H   0  0  0  0  0  0  0  0  0  0  0  0
  142.0056   78.8624  216.8472 H   0  0  0  0  0  0  0  0  0  0  0  0
  142.3765   76.3171  217.5495 H   0  0  0  0  0  0  0  0  0  0  0  0
  143.4771   77.4375  218.3199 H   0  0  0  0  0  0  0  0  0  0  0  0
  139.7224   75.4307  220.3212 H   0  0  0  0  0  0  0  0  0  0  0  0
  140.5823   74.1880  219.3255 H   0  0  0  0  0  0  0  0  0  0  0  0
  141.3900   73.9100  222.0920 H   0  0  0  0  0  0  0  0  0  0  0  0
  138.2406   70.6325  221.7129 H   0  0  0  0  0  0  0  0  0  0  0  0
  138.2082   69.0395  223.5821 H   0  0  0  0  0  0  0  0  0  0  0  0
  139.0445   68.4975  225.8649 H   0  0  0  0  0  0  0  0  0  0  0  0
  141.7338   71.1691  227.8465 H   0  0  0  0  0  0  0  0  0  0  0  0
  141.6526   72.6664  225.8673 H   0  0  0  0  0  0  0  0  0  0  0  0
  1  2  3  0
  2  3  1  0
  3  4  2  0
  4  5  1  0
  5  6  2  0
  6  7  1  0
  7  8  2  0
  8  9  1  0
  9 10  1  0
 10 11  1  0
 11 12  1  0
 12 13  1  0
 13 14  1  0
 14 15  2  0
 14 16  1  0
 16 17  1  0
 17 18  1  0
 18 19  2  0
 18 20  1  0
 20 21  2  0
 21 22  1  0
 22 23  2  0
 23 24  1  0
 24 25  2  0
 25 26  1  0
 25 27  1  0
 27 28  2  0
 28 29  1  0
 29 30  2  0
  8  3  1  0
 13  9  1  0
 30 20  1  0
 29 23  1  0
  4 31  1  0
  5 32  1  0
  6 33  1  0
  7 34  1  0
  9 35  1  1
 10 36  1  0
 10 37  1  0
 11 38  1  0
 11 39  1  0
 12 40  1  0
 12 41  1  0
 16 42  1  0
 16 43  1  0
 17 44  1  0
 21 45  1  0
 22 46  1  0
 24 47  1  0
 27 48  1  0
 28 49  1  0
M  END
>  <smiles>  (38) 
N#Cc1ccccc1[C@H]1CCCN1C(=O)CNC(=O)c1ccc2cc(Cl)ccc2n1

>  <score_type>  (38) 
oracle

>  <origin>  (38) 
autodockgpu

>  <m_score__min__energy>  (38) 
-9.0500000000000007

>  <m_primary>  (38) 
energy

>  <rmsd>  (38) 
3.8729051094369327

>  <m_score__min__rmsd>  (38) 
3.8729051094369327

>  <meeko>  (38) 
{"free_energy": -7.92, "intermolecular_energy": -9.71, "internal_energy": -2.27, "cluster_size": 21, "cluster_id": 2, "rank_in_cluster": 20}

>  <energy>  (38) 
-7.96

>  <cluster_rmsd>  (38) 
0.68

>  <cluster>  (38) 
5

$$$$

     RDKit          3D

 49 52  0  0  0  0  0  0  0  0999 V2000
  140.8140   72.2830  222.2210 N   0  0  0  0  0  0  0  0  0  0  0  0
  141.4000   73.0430  221.6120 C   0  0  0  0  0  0  0  0  0  0  0  0
  142.1530   73.9830  220.8590 C   0  0  0  0  0  0  0  0  0  0  0  0
  143.2670   73.4970  220.1660 C   0  0  0  0  0  0  0  0  0  0  0  0
  144.0560   74.3350  219.4070 C   0  0  0  0  0  0  0  0  0  0  0  0
  143.6940   75.6650  219.3690 C   0  0  0  0  0  0  0  0  0  0  0  0
  142.5970   76.1430  220.0530 C   0  0  0  0  0  0  0  0  0  0  0  0
  141.7830   75.3030  220.8280 C   0  0  0  0  0  0  0  0  0  0  0  0
  140.6450   75.8580  221.5250 C   0  0  1  0  0  0  0  0  0  0  0  0
  140.9440   77.3500  221.7440 C   0  0  0  0  0  0  0  0  0  0  0  0
  139.5380   77.8380  222.0240 C   0  0  0  0  0  0  0  0  0  0  0  0
  138.7800   77.1360  220.9190 C   0  0  0  0  0  0  0  0  0  0  0  0
  139.3550   75.7930  220.9360 N   0  0  0  0  0  0  0  0  0  0  0  0
  138.7500   74.5940  220.4550 C   0  0  0  0  0  0  0  0  0  0  0  0
  139.0780   74.0550  219.3850 O   0  0  0  0  0  0  0  0  0  0  0  0
  137.6740   73.9650  221.2830 C   0  0  0  0  0  0  0  0  0  0  0  0
  138.2320   73.1250  222.3180 N   0  0  0  0  0  0  0  0  0  0  0  0
  137.6180   71.8560  222.5240 C   0  0  0  0  0  0  0  0  0  0  0  0
  136.6340   71.4750  221.8430 O   0  0  0  0  0  0  0  0  0  0  0  0
  138.1850   70.9970  223.5790 C   0  0  0  0  0  0  0  0  0  0  0  0
  137.8080   69.6760  223.6980 C   0  0  0  0  0  0  0  0  0  0  0  0
  138.2970   68.8260  224.6540 C   0  0  0  0  0  0  0  0  0  0  0  0
  139.2200   69.3280  225.5480 C   0  0  0  0  0  0  0  0  0  0  0  0
  139.7880   68.5870  226.5530 C   0  0  0  0  0  0  0  0  0  0  0  0
  140.7110   69.1060  227.4400 C   0  0  0  0  0  0  0  0  0  0  0  0
  141.4370   68.1650  228.7210 Cl  0  0  0  0  0  0  0  0  0  0  0  0
  141.0760   70.4270  227.3070 C   0  0  0  0  0  0  0  0  0  0  0  0
  140.5120   71.1930  226.2950 C   0  0  0  0  0  0  0  0  0  0  0  0
  139.5810   70.6500  225.4090 C   0  0  0  0  0  0  0  0  0  0  0  0
  139.0870   71.4560  224.4670 N   0  0  0  0  0  0  0  0  0  0  0  0
  143.5177   72.4277  220.2278 H   0  0  0  0  0  0  0  0  0  0  0  0
  144.9325   73.9605  218.8579 H   0  0  0  0  0  0  0  0  0  0  0  0
  144.2990   76.3657  218.7749 H   0  0  0  0  0  0  0  0  0  0  0  0
  142.3526   77.2136  219.9895 H   0  0  0  0  0  0  0  0  0  0  0  0
  140.5586   75.2193  222.4164 H   0  0  0  0  0  0  0  0  0  0  0  0
  141.6152   77.5143  222.5999 H   0  0  0  0  0  0  0  0  0  0  0  0
  141.4621   77.8541  220.9149 H   0  0  0  0  0  0  0  0  0  0  0  0
  139.1894   77.5242  223.0190 H   0  0  0  0  0  0  0  0  0  0  0  0
  139.4252   78.9321  222.0350 H   0  0  0  0  0  0  0  0  0  0  0  0
  137.7015   77.1082  221.1338 H   0  0  0  0  0  0  0  0  0  0  0  0
  138.8693   77.6361  219.9433 H   0  0  0  0  0  0  0  0  0  0  0  0
  137.0720   74.7580  221.7507 H   0  0  0  0  0  0  0  0  0  0  0  0
  137.0511   73.3398  220.6264 H   0  0  0  0  0  0  0  0  0  0  0  0
  139.0510   73.4300  222.8920 H   0  0  0  0  0  0  0  0  0  0  0  0
  137.0710   69.2817  222.9829 H   0  0  0  0  0  0  0  0  0  0  0  0
  137.9651   67.7786  224.7072 H   0  0  0  0  0  0  0  0  0  0  0  0
  139.4952   67.5318  226.6572 H   0  0  0  0  0  0  0  0  0  0  0  0
  141.8083   70.8720  227.9967 H   0  0  0  0  0  0  0  0  0  0  0  0
  140.8049   72.2481  226.1900 H   0  0  0  0  0  0  0  0  0  0  0  0
  1  2  3  0
  2  3  1  0
  3  4  2  0
  4  5  1  0
  5  6  2  0
  6  7  1  0
  7  8  2  0
  8  9  1  0
  9 10  1  0
 10 11  1  0
 11 12  1  0
 12 13  1  0
 13 14  1  0
 14 15  2  0
 14 16  1  0
 16 17  1  0
 17 18  1  0
 18 19  2  0
 18 20  1  0
 20 21  2  0
 21 22  1  0
 22 23  2  0
 23 24  1  0
 24 25  2  0
 25 26  1  0
 25 27  1  0
 27 28  2  0
 28 29  1  0
 29 30  2  0
  8  3  1  0
 13  9  1  0
 30 20  1  0
 29 23  1  0
  4 31  1  0
  5 32  1  0
  6 33  1  0
  7 34  1  0
  9 35  1  1
 10 36  1  0
 10 37  1  0
 11 38  1  0
 11 39  1  0
 12 40  1  0
 12 41  1  0
 16 42  1  0
 16 43  1  0
 17 44  1  0
 21 45  1  0
 22 46  1  0
 24 47  1  0
 27 48  1  0
 28 49  1  0
M  END
>  <smiles>  (39) 
N#Cc1ccccc1[C@H]1CCCN1C(=O)CNC(=O)c1ccc2cc(Cl)ccc2n1

>  <score_type>  (39) 
oracle

>  <origin>  (39) 
autodockgpu

>  <m_score__min__energy>  (39) 
-9.0500000000000007

>  <m_primary>  (39) 
energy

>  <rmsd>  (39) 
5.4613454548979075

>  <m_score__min__rmsd>  (39) 
5.4613454548979075

>  <meeko>  (39) 
{"free_energy": -7.2, "intermolecular_energy": -8.99, "internal_energy": -2.76, "cluster_size": 4, "cluster_id": 4, "rank_in_cluster": 4}

>  <energy>  (39) 
-7.95

>  <cluster_rmsd>  (39) 
0.67

>  <cluster>  (39) 
5

$$$$

     RDKit          3D

 49 52  0  0  0  0  0  0  0  0999 V2000
  138.1500   80.9680  221.3800 N   0  0  0  0  0  0  0  0  0  0  0  0
  139.1880   80.7560  221.7920 C   0  0  0  0  0  0  0  0  0  0  0  0
  140.4920   80.5150  222.3010 C   0  0  0  0  0  0  0  0  0  0  0  0
  140.8770   81.2400  223.4340 C   0  0  0  0  0  0  0  0  0  0  0  0
  142.1230   81.0700  224.0000 C   0  0  0  0  0  0  0  0  0  0  0  0
  142.9620   80.1580  223.3960 C   0  0  0  0  0  0  0  0  0  0  0  0
  142.5820   79.4440  222.2800 C   0  0  0  0  0  0  0  0  0  0  0  0
  141.3180   79.6040  221.6920 C   0  0  0  0  0  0  0  0  0  0  0  0
  140.9720   78.8300  220.5220 C   0  0  1  0  0  0  0  0  0  0  0  0
  141.8030   79.3920  219.3580 C   0  0  0  0  0  0  0  0  0  0  0  0
  141.6890   78.2280  218.3960 C   0  0  0  0  0  0  0  0  0  0  0  0
  141.9600   77.0720  219.3340 C   0  0  0  0  0  0  0  0  0  0  0  0
  141.1780   77.4260  220.5160 N   0  0  0  0  0  0  0  0  0  0  0  0
  140.6840   76.5360  221.5170 C   0  0  0  0  0  0  0  0  0  0  0  0
  140.7990   76.7590  222.7340 O   0  0  0  0  0  0  0  0  0  0  0  0
  139.9990   75.2840  221.0710 C   0  0  0  0  0  0  0  0  0  0  0  0
  139.9020   74.3260  222.1490 N   0  0  0  0  0  0  0  0  0  0  0  0
  140.2850   72.9840  221.8600 C   0  0  0  0  0  0  0  0  0  0  0  0
  140.6870   72.6380  220.7220 O   0  0  0  0  0  0  0  0  0  0  0  0
  140.1870   72.0050  222.9570 C   0  0  0  0  0  0  0  0  0  0  0  0
  139.5780   70.7820  222.7650 C   0  0  0  0  0  0  0  0  0  0  0  0
  139.4560   69.8300  223.7420 C   0  0  0  0  0  0  0  0  0  0  0  0
  139.9740   70.1170  224.9870 C   0  0  0  0  0  0  0  0  0  0  0  0
  139.9190   69.2540  226.0530 C   0  0  0  0  0  0  0  0  0  0  0  0
  140.4440   69.5570  227.2940 C   0  0  0  0  0  0  0  0  0  0  0  0
  140.3760   68.4600  228.6520 Cl  0  0  0  0  0  0  0  0  0  0  0  0
  141.0480   70.7820  227.4670 C   0  0  0  0  0  0  0  0  0  0  0  0
  141.1140   71.6700  226.4010 C   0  0  0  0  0  0  0  0  0  0  0  0
  140.5780   71.3440  225.1540 C   0  0  0  0  0  0  0  0  0  0  0  0
  140.6820   72.2540  224.1840 N   0  0  0  0  0  0  0  0  0  0  0  0
  140.1737   81.9580  223.8810 H   0  0  0  0  0  0  0  0  0  0  0  0
  142.4328   81.6354  224.8913 H   0  0  0  0  0  0  0  0  0  0  0  0
  143.9650   79.9952  223.8174 H   0  0  0  0  0  0  0  0  0  0  0  0
  143.2901   78.7280  221.8374 H   0  0  0  0  0  0  0  0  0  0  0  0
  139.8784   78.9340  220.4652 H   0  0  0  0  0  0  0  0  0  0  0  0
  141.3637   80.3120  218.9450 H   0  0  0  0  0  0  0  0  0  0  0  0
  142.8295   79.6932  219.6140 H   0  0  0  0  0  0  0  0  0  0  0  0
  140.6847   78.1644  217.9518 H   0  0  0  0  0  0  0  0  0  0  0  0
  142.3613   78.2822  217.5270 H   0  0  0  0  0  0  0  0  0  0  0  0
  141.6159   76.1211  218.9011 H   0  0  0  0  0  0  0  0  0  0  0  0
  143.0291   76.9244  219.5466 H   0  0  0  0  0  0  0  0  0  0  0  0
  138.9863   75.5344  220.7220 H   0  0  0  0  0  0  0  0  0  0  0  0
  140.5903   74.8349  220.2595 H   0  0  0  0  0  0  0  0  0  0  0  0
  139.5690   74.6010  223.1000 H   0  0  0  0  0  0  0  0  0  0  0  0
  139.1666   70.5586  221.7696 H   0  0  0  0  0  0  0  0  0  0  0  0
  138.9612   68.8685  223.5401 H   0  0  0  0  0  0  0  0  0  0  0  0
  139.4347   68.2764  225.9124 H   0  0  0  0  0  0  0  0  0  0  0  0
  141.4755   71.0557  228.4429 H   0  0  0  0  0  0  0  0  0  0  0  0
  141.5974   72.6480  226.5420 H   0  0  0  0  0  0  0  0  0  0  0  0
  1  2  3  0
  2  3  1  0
  3  4  2  0
  4  5  1  0
  5  6  2  0
  6  7  1  0
  7  8  2  0
  8  9  1  0
  9 10  1  0
 10 11  1  0
 11 12  1  0
 12 13  1  0
 13 14  1  0
 14 15  2  0
 14 16  1  0
 16 17  1  0
 17 18  1  0
 18 19  2  0
 18 20  1  0
 20 21  2  0
 21 22  1  0
 22 23  2  0
 23 24  1  0
 24 25  2  0
 25 26  1  0
 25 27  1  0
 27 28  2  0
 28 29  1  0
 29 30  2  0
  8  3  1  0
 13  9  1  0
 30 20  1  0
 29 23  1  0
  4 31  1  0
  5 32  1  0
  6 33  1  0
  7 34  1  0
  9 35  1  6
 10 36  1  0
 10 37  1  0
 11 38  1  0
 11 39  1  0
 12 40  1  0
 12 41  1  0
 16 42  1  0
 16 43  1  0
 17 44  1  0
 21 45  1  0
 22 46  1  0
 24 47  1  0
 27 48  1  0
 28 49  1  0
M  END
>  <smiles>  (40) 
N#Cc1ccccc1[C@H]1CCCN1C(=O)CNC(=O)c1ccc2cc(Cl)ccc2n1

>  <score_type>  (40) 
oracle

>  <origin>  (40) 
autodockgpu

>  <m_score__min__energy>  (40) 
-9.0500000000000007

>  <m_primary>  (40) 
energy

>  <rmsd>  (40) 
3.7011073035659847

>  <m_score__min__rmsd>  (40) 
3.7011073035659847

>  <meeko>  (40) 
{"free_energy": -8.84, "intermolecular_energy": -10.63, "internal_energy": -1.8, "cluster_size": 21, "cluster_id": 2, "rank_in_cluster": 2}

>  <energy>  (40) 
-7.94

>  <cluster_rmsd>  (40) 
0.71

>  <cluster>  (40) 
5

$$$$

     RDKit          3D

 49 52  0  0  0  0  0  0  0  0999 V2000
  139.7490   75.4680  222.3760 N   0  0  0  0  0  0  0  0  0  0  0  0
  140.3350   76.4400  222.3340 C   0  0  0  0  0  0  0  0  0  0  0  0
  141.0790   77.6500  222.3020 C   0  0  0  0  0  0  0  0  0  0  0  0
  141.4340   78.2110  223.5330 C   0  0  0  0  0  0  0  0  0  0  0  0
  142.1580   79.3820  223.6010 C   0  0  0  0  0  0  0  0  0  0  0  0
  142.5100   79.9670  222.4030 C   0  0  0  0  0  0  0  0  0  0  0  0
  142.1580   79.4140  221.1900 C   0  0  0  0  0  0  0  0  0  0  0  0
  141.4220   78.2220  221.1040 C   0  0  0  0  0  0  0  0  0  0  0  0
  141.0810   77.6870  219.8060 C   0  0  1  0  0  0  0  0  0  0  0  0
  141.1640   78.8550  218.8100 C   0  0  0  0  0  0  0  0  0  0  0  0
  141.2520   78.0650  217.5200 C   0  0  0  0  0  0  0  0  0  0  0  0
  142.2800   77.0240  217.9080 C   0  0  0  0  0  0  0  0  0  0  0  0
  141.8530   76.6330  219.2490 N   0  0  0  0  0  0  0  0  0  0  0  0
  142.1410   75.4070  219.9190 C   0  0  0  0  0  0  0  0  0  0  0  0
  143.1450   75.2480  220.6330 O   0  0  0  0  0  0  0  0  0  0  0  0
  141.1850   74.2690  219.7490 C   0  0  0  0  0  0  0  0  0  0  0  0
  141.1890   73.4020  220.9050 N   0  0  0  0  0  0  0  0  0  0  0  0
  139.9760   72.7210  221.2090 C   0  0  0  0  0  0  0  0  0  0  0  0
  138.9420   72.8620  220.5110 O   0  0  0  0  0  0  0  0  0  0  0  0
  139.9770   71.8370  222.3890 C   0  0  0  0  0  0  0  0  0  0  0  0
  139.4310   70.5720  222.3280 C   0  0  0  0  0  0  0  0  0  0  0  0
  139.4010   69.7030  223.3860 C   0  0  0  0  0  0  0  0  0  0  0  0
  139.9510   70.1230  224.5780 C   0  0  0  0  0  0  0  0  0  0  0  0
  139.9880   69.3550  225.7140 C   0  0  0  0  0  0  0  0  0  0  0  0
  140.5430   69.7920  226.9010 C   0  0  0  0  0  0  0  0  0  0  0  0
  140.5920   68.8150  228.3490 Cl  0  0  0  0  0  0  0  0  0  0  0  0
  141.0840   71.0580  226.9440 C   0  0  0  0  0  0  0  0  0  0  0  0
  141.0570   71.8510  225.8040 C   0  0  0  0  0  0  0  0  0  0  0  0
  140.4910   71.3900  224.6140 C   0  0  0  0  0  0  0  0  0  0  0  0
  140.5050   72.2170  223.5670 N   0  0  0  0  0  0  0  0  0  0  0  0
  141.1301   77.7089  224.4633 H   0  0  0  0  0  0  0  0  0  0  0  0
  142.4416   79.8287  224.5654 H   0  0  0  0  0  0  0  0  0  0  0  0
  143.0887   80.9024  222.4154 H   0  0  0  0  0  0  0  0  0  0  0  0
  142.4628   79.9216  220.2630 H   0  0  0  0  0  0  0  0  0  0  0  0
  140.0954   77.2282  219.9735 H   0  0  0  0  0  0  0  0  0  0  0  0
  140.2663   79.4898  218.8438 H   0  0  0  0  0  0  0  0  0  0  0  0
  141.9846   79.5665  218.9845 H   0  0  0  0  0  0  0  0  0  0  0  0
  140.2874   77.6060  217.2576 H   0  0  0  0  0  0  0  0  0  0  0  0
  141.5131   78.6607  216.6329 H   0  0  0  0  0  0  0  0  0  0  0  0
  142.2560   76.1671  217.2187 H   0  0  0  0  0  0  0  0  0  0  0  0
  143.3139   77.3976  217.8714 H   0  0  0  0  0  0  0  0  0  0  0  0
  140.1711   74.6712  219.6063 H   0  0  0  0  0  0  0  0  0  0  0  0
  141.4976   73.6812  218.8734 H   0  0  0  0  0  0  0  0  0  0  0  0
  142.0440   73.2770  221.4950 H   0  0  0  0  0  0  0  0  0  0  0  0
  138.9942   70.2418  221.3740 H   0  0  0  0  0  0  0  0  0  0  0  0
  138.9529   68.7032  223.2878 H   0  0  0  0  0  0  0  0  0  0  0  0
  139.5556   68.3442  225.6780 H   0  0  0  0  0  0  0  0  0  0  0  0
  141.5336   71.4378  227.8733 H   0  0  0  0  0  0  0  0  0  0  0  0
  141.4899   72.8616  225.8395 H   0  0  0  0  0  0  0  0  0  0  0  0
  1  2  3  0
  2  3  1  0
  3  4  2  0
  4  5  1  0
  5  6  2  0
  6  7  1  0
  7  8  2  0
  8  9  1  0
  9 10  1  0
 10 11  1  0
 11 12  1  0
 12 13  1  0
 13 14  1  0
 14 15  2  0
 14 16  1  0
 16 17  1  0
 17 18  1  0
 18 19  2  0
 18 20  1  0
 20 21  2  0
 21 22  1  0
 22 23  2  0
 23 24  1  0
 24 25  2  0
 25 26  1  0
 25 27  1  0
 27 28  2  0
 28 29  1  0
 29 30  2  0
  8  3  1  0
 13  9  1  0
 30 20  1  0
 29 23  1  0
  4 31  1  0
  5 32  1  0
  6 33  1  0
  7 34  1  0
  9 35  1  1
 10 36  1  0
 10 37  1  0
 11 38  1  0
 11 39  1  0
 12 40  1  0
 12 41  1  0
 16 42  1  0
 16 43  1  0
 17 44  1  0
 21 45  1  0
 22 46  1  0
 24 47  1  0
 27 48  1  0
 28 49  1  0
M  END
>  <smiles>  (41) 
N#Cc1ccccc1[C@H]1CCCN1C(=O)CNC(=O)c1ccc2cc(Cl)ccc2n1

>  <score_type>  (41) 
oracle

>  <origin>  (41) 
autodockgpu

>  <m_score__min__energy>  (41) 
-9.0500000000000007

>  <m_primary>  (41) 
energy

>  <rmsd>  (41) 
4.035172598805662

>  <m_score__min__rmsd>  (41) 
4.035172598805662

>  <meeko>  (41) 
{"free_energy": -7.89, "intermolecular_energy": -9.68, "internal_energy": -2.21, "cluster_size": 21, "cluster_id": 2, "rank_in_cluster": 21}

>  <energy>  (41) 
-7.94

>  <cluster_rmsd>  (41) 
0.71

>  <cluster>  (41) 
5

$$$$

     RDKit          3D

 49 52  0  0  0  0  0  0  0  0999 V2000
  138.6050   76.7650  222.7000 N   0  0  0  0  0  0  0  0  0  0  0  0
  139.4690   77.5030  222.6630 C   0  0  0  0  0  0  0  0  0  0  0  0
  140.5410   78.4340  222.6390 C   0  0  0  0  0  0  0  0  0  0  0  0
  140.9210   78.9980  223.8610 C   0  0  0  0  0  0  0  0  0  0  0  0
  141.9530   79.9090  223.9360 C   0  0  0  0  0  0  0  0  0  0  0  0
  142.5840   80.2340  222.7540 C   0  0  0  0  0  0  0  0  0  0  0  0
  142.2080   79.6780  221.5490 C   0  0  0  0  0  0  0  0  0  0  0  0
  141.1610   78.7490  221.4560 C   0  0  0  0  0  0  0  0  0  0  0  0
  140.8080   78.1980  220.1680 C   0  0  1  0  0  0  0  0  0  0  0  0
  141.3560   79.1660  219.1080 C   0  0  0  0  0  0  0  0  0  0  0  0
  141.3290   78.2460  217.9040 C   0  0  0  0  0  0  0  0  0  0  0  0
  141.9330   76.9960  218.5040 C   0  0  0  0  0  0  0  0  0  0  0  0
  141.2670   76.9050  219.8020 N   0  0  0  0  0  0  0  0  0  0  0  0
  141.0860   75.7330  220.5940 C   0  0  0  0  0  0  0  0  0  0  0  0
  142.0150   75.1840  221.2100 O   0  0  0  0  0  0  0  0  0  0  0  0
  139.7130   75.1460  220.6820 C   0  0  0  0  0  0  0  0  0  0  0  0
  139.5900   74.2650  221.8210 N   0  0  0  0  0  0  0  0  0  0  0  0
  140.0810   72.9360  221.6680 C   0  0  0  0  0  0  0  0  0  0  0  0
  140.5960   72.5370  220.5950 O   0  0  0  0  0  0  0  0  0  0  0  0
  139.9570   72.0350  222.8280 C   0  0  0  0  0  0  0  0  0  0  0  0
  139.1540   70.9150  222.7740 C   0  0  0  0  0  0  0  0  0  0  0  0
  138.9960   70.0390  223.8150 C   0  0  0  0  0  0  0  0  0  0  0  0
  139.6840   70.2970  224.9810 C   0  0  0  0  0  0  0  0  0  0  0  0
  139.6170   69.5030  226.0980 C   0  0  0  0  0  0  0  0  0  0  0  0
  140.3140   69.7760  227.2590 C   0  0  0  0  0  0  0  0  0  0  0  0
  140.2300   68.7660  228.6820 Cl  0  0  0  0  0  0  0  0  0  0  0  0
  141.1110   70.8980  227.2950 C   0  0  0  0  0  0  0  0  0  0  0  0
  141.1930   71.7150  226.1750 C   0  0  0  0  0  0  0  0  0  0  0  0
  140.4810   71.4210  225.0110 C   0  0  0  0  0  0  0  0  0  0  0  0
  140.6150   72.2590  223.9810 N   0  0  0  0  0  0  0  0  0  0  0  0
  140.3871   78.7097  224.7785 H   0  0  0  0  0  0  0  0  0  0  0  0
  142.2586   80.3555  224.8937 H   0  0  0  0  0  0  0  0  0  0  0  0
  143.4118   80.9582  222.7725 H   0  0  0  0  0  0  0  0  0  0  0  0
  142.7445   79.9715  220.6347 H   0  0  0  0  0  0  0  0  0  0  0  0
  139.7165   78.0789  220.2342 H   0  0  0  0  0  0  0  0  0  0  0  0
  140.7031   80.0408  218.9725 H   0  0  0  0  0  0  0  0  0  0  0  0
  142.3346   79.6126  219.3383 H   0  0  0  0  0  0  0  0  0  0  0  0
  140.3028   78.0716  217.5483 H   0  0  0  0  0  0  0  0  0  0  0  0
  141.8553   78.6318  217.0184 H   0  0  0  0  0  0  0  0  0  0  0  0
  141.7150   76.1138  217.8842 H   0  0  0  0  0  0  0  0  0  0  0  0
  143.0297   77.0353  218.5792 H   0  0  0  0  0  0  0  0  0  0  0  0
  138.9805   75.9609  220.7787 H   0  0  0  0  0  0  0  0  0  0  0  0
  139.5266   74.5611  219.7692 H   0  0  0  0  0  0  0  0  0  0  0  0
  139.1630   74.5850  222.7200 H   0  0  0  0  0  0  0  0  0  0  0  0
  138.6085   70.7134  221.8403 H   0  0  0  0  0  0  0  0  0  0  0  0
  138.3420   69.1592  223.7235 H   0  0  0  0  0  0  0  0  0  0  0  0
  138.9787   68.6076  226.0676 H   0  0  0  0  0  0  0  0  0  0  0  0
  141.6786   71.1455  228.2041 H   0  0  0  0  0  0  0  0  0  0  0  0
  141.8310   72.6106  226.2058 H   0  0  0  0  0  0  0  0  0  0  0  0
  1  2  3  0
  2  3  1  0
  3  4  2  0
  4  5  1  0
  5  6  2  0
  6  7  1  0
  7  8  2  0
  8  9  1  0
  9 10  1  0
 10 11  1  0
 11 12  1  0
 12 13  1  0
 13 14  1  0
 14 15  2  0
 14 16  1  0
 16 17  1  0
 17 18  1  0
 18 19  2  0
 18 20  1  0
 20 21  2  0
 21 22  1  0
 22 23  2  0
 23 24  1  0
 24 25  2  0
 25 26  1  0
 25 27  1  0
 27 28  2  0
 28 29  1  0
 29 30  2  0
  8  3  1  0
 13  9  1  0
 30 20  1  0
 29 23  1  0
  4 31  1  0
  5 32  1  0
  6 33  1  0
  7 34  1  0
  9 35  1  1
 10 36  1  0
 10 37  1  0
 11 38  1  0
 11 39  1  0
 12 40  1  0
 12 41  1  0
 16 42  1  0
 16 43  1  0
 17 44  1  0
 21 45  1  0
 22 46  1  0
 24 47  1  0
 27 48  1  0
 28 49  1  0
M  END
>  <smiles>  (42) 
N#Cc1ccccc1[C@H]1CCCN1C(=O)CNC(=O)c1ccc2cc(Cl)ccc2n1

>  <score_type>  (42) 
oracle

>  <origin>  (42) 
autodockgpu

>  <m_score__min__energy>  (42) 
-9.0500000000000007

>  <m_primary>  (42) 
energy

>  <rmsd>  (42) 
3.8221234028053668

>  <m_score__min__rmsd>  (42) 
3.8221234028053668

>  <meeko>  (42) 
{"free_energy": -8.49, "intermolecular_energy": -10.28, "internal_energy": -2.0, "cluster_size": 21, "cluster_id": 2, "rank_in_cluster": 14}

>  <energy>  (42) 
-7.92

>  <cluster_rmsd>  (42) 
0.69

>  <cluster>  (42) 
5

$$$$

     RDKit          3D

 49 52  0  0  0  0  0  0  0  0999 V2000
  140.5500   72.7300  222.7230 N   0  0  0  0  0  0  0  0  0  0  0  0
  140.3750   72.0300  223.6010 C   0  0  0  0  0  0  0  0  0  0  0  0
  140.1750   71.1660  224.7110 C   0  0  0  0  0  0  0  0  0  0  0  0
  140.8400   71.4910  225.8980 C   0  0  0  0  0  0  0  0  0  0  0  0
  140.7040   70.7120  227.0270 C   0  0  0  0  0  0  0  0  0  0  0  0
  139.8870   69.6070  226.9270 C   0  0  0  0  0  0  0  0  0  0  0  0
  139.2320   69.2870  225.7560 C   0  0  0  0  0  0  0  0  0  0  0  0
  139.3590   70.0700  224.5990 C   0  0  0  0  0  0  0  0  0  0  0  0
  138.6500   69.6880  223.3990 C   0  0  1  0  0  0  0  0  0  0  0  0
  138.5570   68.1540  223.4080 C   0  0  0  0  0  0  0  0  0  0  0  0
  137.4350   67.9750  222.4050 C   0  0  0  0  0  0  0  0  0  0  0  0
  136.4620   69.0240  222.8950 C   0  0  0  0  0  0  0  0  0  0  0  0
  137.3310   70.1650  223.1740 N   0  0  0  0  0  0  0  0  0  0  0  0
  136.9550   71.5410  223.2190 C   0  0  0  0  0  0  0  0  0  0  0  0
  136.4770   72.0770  224.2320 O   0  0  0  0  0  0  0  0  0  0  0  0
  137.1510   72.3660  221.9860 C   0  0  0  0  0  0  0  0  0  0  0  0
  137.8000   73.6200  222.2920 N   0  0  0  0  0  0  0  0  0  0  0  0
  137.0950   74.8130  221.9610 C   0  0  0  0  0  0  0  0  0  0  0  0
  135.9590   74.7870  221.4250 O   0  0  0  0  0  0  0  0  0  0  0  0
  137.7550   76.0940  222.2710 C   0  0  0  0  0  0  0  0  0  0  0  0
  137.0180   77.2420  222.4740 C   0  0  0  0  0  0  0  0  0  0  0  0
  137.5700   78.4610  222.7650 C   0  0  0  0  0  0  0  0  0  0  0  0
  138.9430   78.5380  222.8600 C   0  0  0  0  0  0  0  0  0  0  0  0
  139.6240   79.6940  223.1450 C   0  0  0  0  0  0  0  0  0  0  0  0
  141.0010   79.7530  223.2370 C   0  0  0  0  0  0  0  0  0  0  0  0
  141.8700   81.2250  223.6010 Cl  0  0  0  0  0  0  0  0  0  0  0  0
  141.7210   78.5980  223.0310 C   0  0  0  0  0  0  0  0  0  0  0  0
  141.0500   77.4170  222.7420 C   0  0  0  0  0  0  0  0  0  0  0  0
  139.6580   77.3780  222.6540 C   0  0  0  0  0  0  0  0  0  0  0  0
  139.0930   76.2030  222.3700 N   0  0  0  0  0  0  0  0  0  0  0  0
  141.4823   72.3834  225.9310 H   0  0  0  0  0  0  0  0  0  0  0  0
  141.2235   70.9609  227.9641 H   0  0  0  0  0  0  0  0  0  0  0  0
  139.7531   68.9609  227.8071 H   0  0  0  0  0  0  0  0  0  0  0  0
  138.5921   68.3927  225.7286 H   0  0  0  0  0  0  0  0  0  0  0  0
  139.2391   70.1584  222.5979 H   0  0  0  0  0  0  0  0  0  0  0  0
  139.4914   67.6827  223.0692 H   0  0  0  0  0  0  0  0  0  0  0  0
  138.3856   67.6976  224.3940 H   0  0  0  0  0  0  0  0  0  0  0  0
  137.7711   68.1802  221.3779 H   0  0  0  0  0  0  0  0  0  0  0  0
  137.0241   66.9560  222.3518 H   0  0  0  0  0  0  0  0  0  0  0  0
  135.7211   69.2702  222.1201 H   0  0  0  0  0  0  0  0  0  0  0  0
  135.8744   68.7002  223.7667 H   0  0  0  0  0  0  0  0  0  0  0  0
  137.7738   71.8044  221.2742 H   0  0  0  0  0  0  0  0  0  0  0  0
  136.1636   72.5825  221.5521 H   0  0  0  0  0  0  0  0  0  0  0  0
  138.7450   73.6550  222.7370 H   0  0  0  0  0  0  0  0  0  0  0  0
  135.9227   77.1745  222.3977 H   0  0  0  0  0  0  0  0  0  0  0  0
  136.9389   79.3489  222.9178 H   0  0  0  0  0  0  0  0  0  0  0  0
  139.0472   80.6164  223.3078 H   0  0  0  0  0  0  0  0  0  0  0  0
  142.8191   78.6104  223.0948 H   0  0  0  0  0  0  0  0  0  0  0  0
  141.6269   76.4947  222.5794 H   0  0  0  0  0  0  0  0  0  0  0  0
  1  2  3  0
  2  3  1  0
  3  4  2  0
  4  5  1  0
  5  6  2  0
  6  7  1  0
  7  8  2  0
  8  9  1  0
  9 10  1  0
 10 11  1  0
 11 12  1  0
 12 13  1  0
 13 14  1  0
 14 15  2  0
 14 16  1  0
 16 17  1  0
 17 18  1  0
 18 19  2  0
 18 20  1  0
 20 21  2  0
 21 22  1  0
 22 23  2  0
 23 24  1  0
 24 25  2  0
 25 26  1  0
 25 27  1  0
 27 28  2  0
 28 29  1  0
 29 30  2  0
  8  3  1  0
 13  9  1  0
 30 20  1  0
 29 23  1  0
  4 31  1  0
  5 32  1  0
  6 33  1  0
  7 34  1  0
  9 35  1  6
 10 36  1  0
 10 37  1  0
 11 38  1  0
 11 39  1  0
 12 40  1  0
 12 41  1  0
 16 42  1  0
 16 43  1  0
 17 44  1  0
 21 45  1  0
 22 46  1  0
 24 47  1  0
 27 48  1  0
 28 49  1  0
M  END
>  <smiles>  (43) 
N#Cc1ccccc1[C@H]1CCCN1C(=O)CNC(=O)c1ccc2cc(Cl)ccc2n1

>  <score_type>  (43) 
oracle

>  <origin>  (43) 
autodockgpu

>  <m_score__min__energy>  (43) 
-9.0500000000000007

>  <m_primary>  (43) 
energy

>  <rmsd>  (43) 
9.987836479501087

>  <m_score__min__rmsd>  (43) 
9.987836479501087

>  <meeko>  (43) 
{"free_energy": -7.96, "intermolecular_energy": -9.75, "internal_energy": -2.66, "cluster_size": 17, "cluster_id": 5, "rank_in_cluster": 7}

>  <energy>  (43) 
-7.92

>  <cluster_rmsd>  (43) 
0.71

>  <cluster>  (43) 
5

$$$$

     RDKit          3D

 49 52  0  0  0  0  0  0  0  0999 V2000
  140.5500   72.7140  222.7310 N   0  0  0  0  0  0  0  0  0  0  0  0
  140.3930   72.0470  223.6370 C   0  0  0  0  0  0  0  0  0  0  0  0
  140.1760   71.2260  224.7760 C   0  0  0  0  0  0  0  0  0  0  0  0
  140.8490   71.5770  225.9510 C   0  0  0  0  0  0  0  0  0  0  0  0
  140.6970   70.8400  227.1060 C   0  0  0  0  0  0  0  0  0  0  0  0
  139.8570   69.7490  227.0430 C   0  0  0  0  0  0  0  0  0  0  0  0
  139.1950   69.4030  225.8840 C   0  0  0  0  0  0  0  0  0  0  0  0
  139.3380   70.1430  224.7010 C   0  0  0  0  0  0  0  0  0  0  0  0
  138.6200   69.7350  223.5140 C   0  0  1  0  0  0  0  0  0  0  0  0
  138.4970   68.2050  223.5750 C   0  0  0  0  0  0  0  0  0  0  0  0
  137.3720   68.0140  222.5790 C   0  0  0  0  0  0  0  0  0  0  0  0
  136.4200   69.0980  223.0330 C   0  0  0  0  0  0  0  0  0  0  0  0
  137.3110   70.2310  223.2740 N   0  0  0  0  0  0  0  0  0  0  0  0
  136.9630   71.6140  223.2720 C   0  0  0  0  0  0  0  0  0  0  0  0
  136.4650   72.1850  224.2570 O   0  0  0  0  0  0  0  0  0  0  0  0
  137.2110   72.4030  222.0260 C   0  0  0  0  0  0  0  0  0  0  0  0
  137.8560   73.6620  222.3210 N   0  0  0  0  0  0  0  0  0  0  0  0
  137.1100   74.8480  222.0650 C   0  0  0  0  0  0  0  0  0  0  0  0
  135.9440   74.8130  221.6010 O   0  0  0  0  0  0  0  0  0  0  0  0
  137.7660   76.1340  222.3650 C   0  0  0  0  0  0  0  0  0  0  0  0
  137.0240   77.2790  222.5650 C   0  0  0  0  0  0  0  0  0  0  0  0
  137.5720   78.5030  222.8470 C   0  0  0  0  0  0  0  0  0  0  0  0
  138.9450   78.5870  222.9350 C   0  0  0  0  0  0  0  0  0  0  0  0
  139.6220   79.7480  223.2110 C   0  0  0  0  0  0  0  0  0  0  0  0
  140.9990   79.8140  223.2960 C   0  0  0  0  0  0  0  0  0  0  0  0
  141.8630   81.2920  223.6470 Cl  0  0  0  0  0  0  0  0  0  0  0  0
  141.7230   78.6620  223.0930 C   0  0  0  0  0  0  0  0  0  0  0  0
  141.0570   77.4750  222.8130 C   0  0  0  0  0  0  0  0  0  0  0  0
  139.6640   77.4290  222.7320 C   0  0  0  0  0  0  0  0  0  0  0  0
  139.1040   76.2500  222.4570 N   0  0  0  0  0  0  0  0  0  0  0  0
  141.5106   72.4558  225.9534 H   0  0  0  0  0  0  0  0  0  0  0  0
  141.2215   71.1099  228.0344 H   0  0  0  0  0  0  0  0  0  0  0  0
  139.7103   69.1359  227.9444 H   0  0  0  0  0  0  0  0  0  0  0  0
  138.5363   68.5220  225.8872 H   0  0  0  0  0  0  0  0  0  0  0  0
  139.2170   70.1659  222.6967 H   0  0  0  0  0  0  0  0  0  0  0  0
  139.4219   67.7043  223.2526 H   0  0  0  0  0  0  0  0  0  0  0  0
  138.3170   67.7858  224.5759 H   0  0  0  0  0  0  0  0  0  0  0  0
  137.7116   68.1776  221.5456 H   0  0  0  0  0  0  0  0  0  0  0  0
  136.9413   67.0020  222.5603 H   0  0  0  0  0  0  0  0  0  0  0  0
  135.6839   69.3324  222.2499 H   0  0  0  0  0  0  0  0  0  0  0  0
  135.8266   68.8152  223.9150 H   0  0  0  0  0  0  0  0  0  0  0  0
  137.8568   71.8183  221.3543 H   0  0  0  0  0  0  0  0  0  0  0  0
  136.2420   72.6128  221.5495 H   0  0  0  0  0  0  0  0  0  0  0  0
  138.8270   73.7050  222.7070 H   0  0  0  0  0  0  0  0  0  0  0  0
  135.9287   77.2056  222.4941 H   0  0  0  0  0  0  0  0  0  0  0  0
  136.9375   79.3887  222.9981 H   0  0  0  0  0  0  0  0  0  0  0  0
  139.0415   80.6684  223.3720 H   0  0  0  0  0  0  0  0  0  0  0  0
  142.8213   78.6804  223.1519 H   0  0  0  0  0  0  0  0  0  0  0  0
  141.6379   76.5548  222.6523 H   0  0  0  0  0  0  0  0  0  0  0  0
  1  2  3  0
  2  3  1  0
  3  4  2  0
  4  5  1  0
  5  6  2  0
  6  7  1  0
  7  8  2  0
  8  9  1  0
  9 10  1  0
 10 11  1  0
 11 12  1  0
 12 13  1  0
 13 14  1  0
 14 15  2  0
 14 16  1  0
 16 17  1  0
 17 18  1  0
 18 19  2  0
 18 20  1  0
 20 21  2  0
 21 22  1  0
 22 23  2  0
 23 24  1  0
 24 25  2  0
 25 26  1  0
 25 27  1  0
 27 28  2  0
 28 29  1  0
 29 30  2  0
  8  3  1  0
 13  9  1  0
 30 20  1  0
 29 23  1  0
  4 31  1  0
  5 32  1  0
  6 33  1  0
  7 34  1  0
  9 35  1  6
 10 36  1  0
 10 37  1  0
 11 38  1  0
 11 39  1  0
 12 40  1  0
 12 41  1  0
 16 42  1  0
 16 43  1  0
 17 44  1  0
 21 45  1  0
 22 46  1  0
 24 47  1  0
 27 48  1  0
 28 49  1  0
M  END
>  <smiles>  (44) 
N#Cc1ccccc1[C@H]1CCCN1C(=O)CNC(=O)c1ccc2cc(Cl)ccc2n1

>  <score_type>  (44) 
oracle

>  <origin>  (44) 
autodockgpu

>  <m_score__min__energy>  (44) 
-9.0500000000000007

>  <m_primary>  (44) 
energy

>  <rmsd>  (44) 
9.969434396670088

>  <m_score__min__rmsd>  (44) 
9.969434396670088

>  <meeko>  (44) 
{"free_energy": -7.88, "intermolecular_energy": -9.67, "internal_energy": -2.68, "cluster_size": 17, "cluster_id": 5, "rank_in_cluster": 16}

>  <energy>  (44) 
-7.91

>  <cluster_rmsd>  (44) 
0.72

>  <cluster>  (44) 
5

$$$$

     RDKit          3D

 49 52  0  0  0  0  0  0  0  0999 V2000
  140.6260   72.7170  222.7200 N   0  0  0  0  0  0  0  0  0  0  0  0
  140.4340   72.0440  223.6150 C   0  0  0  0  0  0  0  0  0  0  0  0
  140.2180   71.2030  224.7390 C   0  0  0  0  0  0  0  0  0  0  0  0
  140.8770   71.5430  225.9250 C   0  0  0  0  0  0  0  0  0  0  0  0
  140.7250   70.7860  227.0670 C   0  0  0  0  0  0  0  0  0  0  0  0
  139.8990   69.6860  226.9810 C   0  0  0  0  0  0  0  0  0  0  0  0
  139.2500   69.3510  225.8110 C   0  0  0  0  0  0  0  0  0  0  0  0
  139.3930   70.1110  224.6400 C   0  0  0  0  0  0  0  0  0  0  0  0
  138.6900   69.7130  223.4420 C   0  0  1  0  0  0  0  0  0  0  0  0
  138.6010   68.1790  223.4690 C   0  0  0  0  0  0  0  0  0  0  0  0
  137.4840   67.9850  222.4640 C   0  0  0  0  0  0  0  0  0  0  0  0
  136.5070   69.0390  222.9360 C   0  0  0  0  0  0  0  0  0  0  0  0
  137.3720   70.1850  223.2050 N   0  0  0  0  0  0  0  0  0  0  0  0
  136.9930   71.5600  223.2320 C   0  0  0  0  0  0  0  0  0  0  0  0
  136.4940   72.1030  224.2310 O   0  0  0  0  0  0  0  0  0  0  0  0
  137.2110   72.3750  221.9960 C   0  0  0  0  0  0  0  0  0  0  0  0
  137.8610   73.6290  222.3030 N   0  0  0  0  0  0  0  0  0  0  0  0
  137.1480   74.8230  221.9900 C   0  0  0  0  0  0  0  0  0  0  0  0
  136.0060   74.7970  221.4690 O   0  0  0  0  0  0  0  0  0  0  0  0
  137.8090   76.1030  222.3020 C   0  0  0  0  0  0  0  0  0  0  0  0
  137.0720   77.2500  222.5100 C   0  0  0  0  0  0  0  0  0  0  0  0
  137.6240   78.4690  222.8030 C   0  0  0  0  0  0  0  0  0  0  0  0
  138.9980   78.5460  222.8940 C   0  0  0  0  0  0  0  0  0  0  0  0
  139.6790   79.7020  223.1800 C   0  0  0  0  0  0  0  0  0  0  0  0
  141.0560   79.7620  223.2680 C   0  0  0  0  0  0  0  0  0  0  0  0
  141.9250   81.2330  223.6330 Cl  0  0  0  0  0  0  0  0  0  0  0  0
  141.7760   78.6080  223.0570 C   0  0  0  0  0  0  0  0  0  0  0  0
  141.1050   77.4260  222.7660 C   0  0  0  0  0  0  0  0  0  0  0  0
  139.7120   77.3870  222.6830 C   0  0  0  0  0  0  0  0  0  0  0  0
  139.1470   76.2120  222.3980 N   0  0  0  0  0  0  0  0  0  0  0  0
  141.5277   72.4296  225.9468 H   0  0  0  0  0  0  0  0  0  0  0  0
  141.2392   71.0477  228.0036 H   0  0  0  0  0  0  0  0  0  0  0  0
  139.7531   69.0569  227.8715 H   0  0  0  0  0  0  0  0  0  0  0  0
  138.6016   68.4625  225.7953 H   0  0  0  0  0  0  0  0  0  0  0  0
  139.2813   70.1749  222.6376 H   0  0  0  0  0  0  0  0  0  0  0  0
  139.5380   67.7062  223.1397 H   0  0  0  0  0  0  0  0  0  0  0  0
  138.4267   67.7340  224.4597 H   0  0  0  0  0  0  0  0  0  0  0  0
  137.8242   68.1772  221.4357 H   0  0  0  0  0  0  0  0  0  0  0  0
  137.0750   66.9647  222.4226 H   0  0  0  0  0  0  0  0  0  0  0  0
  135.7696   69.2741  222.1544 H   0  0  0  0  0  0  0  0  0  0  0  0
  135.9160   68.7251  223.8090 H   0  0  0  0  0  0  0  0  0  0  0  0
  137.8420   71.8056  221.2977 H   0  0  0  0  0  0  0  0  0  0  0  0
  136.2313   72.5923  221.5455 H   0  0  0  0  0  0  0  0  0  0  0  0
  138.8120   73.6640  222.7370 H   0  0  0  0  0  0  0  0  0  0  0  0
  135.9766   77.1820  222.4363 H   0  0  0  0  0  0  0  0  0  0  0  0
  136.9929   79.3561  222.9603 H   0  0  0  0  0  0  0  0  0  0  0  0
  139.1019   80.6234  223.3469 H   0  0  0  0  0  0  0  0  0  0  0  0
  142.8742   78.6211  223.1182 H   0  0  0  0  0  0  0  0  0  0  0  0
  141.6820   76.5047  222.5981 H   0  0  0  0  0  0  0  0  0  0  0  0
  1  2  3  0
  2  3  1  0
  3  4  2  0
  4  5  1  0
  5  6  2  0
  6  7  1  0
  7  8  2  0
  8  9  1  0
  9 10  1  0
 10 11  1  0
 11 12  1  0
 12 13  1  0
 13 14  1  0
 14 15  2  0
 14 16  1  0
 16 17  1  0
 17 18  1  0
 18 19  2  0
 18 20  1  0
 20 21  2  0
 21 22  1  0
 22 23  2  0
 23 24  1  0
 24 25  2  0
 25 26  1  0
 25 27  1  0
 27 28  2  0
 28 29  1  0
 29 30  2  0
  8  3  1  0
 13  9  1  0
 30 20  1  0
 29 23  1  0
  4 31  1  0
  5 32  1  0
  6 33  1  0
  7 34  1  0
  9 35  1  6
 10 36  1  0
 10 37  1  0
 11 38  1  0
 11 39  1  0
 12 40  1  0
 12 41  1  0
 16 42  1  0
 16 43  1  0
 17 44  1  0
 21 45  1  0
 22 46  1  0
 24 47  1  0
 27 48  1  0
 28 49  1  0
M  END
>  <smiles>  (45) 
N#Cc1ccccc1[C@H]1CCCN1C(=O)CNC(=O)c1ccc2cc(Cl)ccc2n1

>  <score_type>  (45) 
oracle

>  <origin>  (45) 
autodockgpu

>  <m_score__min__energy>  (45) 
-9.0500000000000007

>  <m_primary>  (45) 
energy

>  <rmsd>  (45) 
9.964632913944774

>  <m_score__min__rmsd>  (45) 
9.964632913944774

>  <meeko>  (45) 
{"free_energy": -7.95, "intermolecular_energy": -9.74, "internal_energy": -2.67, "cluster_size": 17, "cluster_id": 5, "rank_in_cluster": 8}

>  <energy>  (45) 
-7.91

>  <cluster_rmsd>  (45) 
0.72

>  <cluster>  (45) 
5

$$$$

     RDKit          3D

 49 52  0  0  0  0  0  0  0  0999 V2000
  140.6330   72.6250  222.7330 N   0  0  0  0  0  0  0  0  0  0  0  0
  140.3940   71.9600  223.6220 C   0  0  0  0  0  0  0  0  0  0  0  0
  140.0760   71.1420  224.7390 C   0  0  0  0  0  0  0  0  0  0  0  0
  140.7020   71.4490  225.9520 C   0  0  0  0  0  0  0  0  0  0  0  0
  140.4520   70.7110  227.0900 C   0  0  0  0  0  0  0  0  0  0  0  0
  139.5620   69.6650  226.9710 C   0  0  0  0  0  0  0  0  0  0  0  0
  138.9460   69.3630  225.7750 C   0  0  0  0  0  0  0  0  0  0  0  0
  139.1890   70.1040  224.6080 C   0  0  0  0  0  0  0  0  0  0  0  0
  138.5160   69.7420  223.3810 C   0  0  1  0  0  0  0  0  0  0  0  0
  138.4730   68.2070  223.3350 C   0  0  0  0  0  0  0  0  0  0  0  0
  137.3780   68.0280  222.3040 C   0  0  0  0  0  0  0  0  0  0  0  0
  136.3620   69.0280  222.8100 C   0  0  0  0  0  0  0  0  0  0  0  0
  137.1880   70.1850  223.1460 N   0  0  0  0  0  0  0  0  0  0  0  0
  136.7660   71.5460  223.2310 C   0  0  0  0  0  0  0  0  0  0  0  0
  136.2310   72.0240  224.2450 O   0  0  0  0  0  0  0  0  0  0  0  0
  136.9840   72.4270  222.0420 C   0  0  0  0  0  0  0  0  0  0  0  0
  137.9340   73.4760  222.3340 N   0  0  0  0  0  0  0  0  0  0  0  0
  137.8290   74.6760  221.5720 C   0  0  0  0  0  0  0  0  0  0  0  0
  136.9560   74.8240  220.6830 O   0  0  0  0  0  0  0  0  0  0  0  0
  138.7970   75.7480  221.8670 C   0  0  0  0  0  0  0  0  0  0  0  0
  140.1250   75.6210  221.5190 C   0  0  0  0  0  0  0  0  0  0  0  0
  141.0730   76.5790  221.7640 C   0  0  0  0  0  0  0  0  0  0  0  0
  140.6690   77.7350  222.3960 C   0  0  0  0  0  0  0  0  0  0  0  0
  141.5130   78.7730  222.7010 C   0  0  0  0  0  0  0  0  0  0  0  0
  141.0910   79.9250  223.3350 C   0  0  0  0  0  0  0  0  0  0  0  0
  142.1650   81.2480  223.7240 Cl  0  0  0  0  0  0  0  0  0  0  0  0
  139.7620   80.0350  223.6760 C   0  0  0  0  0  0  0  0  0  0  0  0
  138.8900   78.9960  223.3750 C   0  0  0  0  0  0  0  0  0  0  0  0
  139.3370   77.8390  222.7340 C   0  0  0  0  0  0  0  0  0  0  0  0
  138.4350   76.8890  222.4830 N   0  0  0  0  0  0  0  0  0  0  0  0
  141.4055   72.2933  225.9988 H   0  0  0  0  0  0  0  0  0  0  0  0
  140.9398   70.9460  228.0475 H   0  0  0  0  0  0  0  0  0  0  0  0
  139.3365   69.0529  227.8567 H   0  0  0  0  0  0  0  0  0  0  0  0
  138.2440   68.5171  225.7343 H   0  0  0  0  0  0  0  0  0  0  0  0
  139.1048   70.2583  222.6085 H   0  0  0  0  0  0  0  0  0  0  0  0
  139.4287   67.7780  222.9995 H   0  0  0  0  0  0  0  0  0  0  0  0
  138.2973   67.7108  224.3009 H   0  0  0  0  0  0  0  0  0  0  0  0
  137.7273   68.2798  221.2918 H   0  0  0  0  0  0  0  0  0  0  0  0
  137.0015   66.9990  222.2070 H   0  0  0  0  0  0  0  0  0  0  0  0
  135.6287   69.2778  222.0290 H   0  0  0  0  0  0  0  0  0  0  0  0
  135.7682   68.6553  223.6577 H   0  0  0  0  0  0  0  0  0  0  0  0
  137.3670   71.8179  221.2099 H   0  0  0  0  0  0  0  0  0  0  0  0
  136.0241   72.8923  221.7735 H   0  0  0  0  0  0  0  0  0  0  0  0
  138.6660   73.3650  223.0720 H   0  0  0  0  0  0  0  0  0  0  0  0
  140.4419   74.6961  221.0150 H   0  0  0  0  0  0  0  0  0  0  0  0
  142.1215   76.4305  221.4663 H   0  0  0  0  0  0  0  0  0  0  0  0
  142.5748   78.6834  222.4279 H   0  0  0  0  0  0  0  0  0  0  0  0
  139.3930   80.9388  224.1830 H   0  0  0  0  0  0  0  0  0  0  0  0
  137.8279   79.0866  223.6467 H   0  0  0  0  0  0  0  0  0  0  0  0
  1  2  3  0
  2  3  1  0
  3  4  2  0
  4  5  1  0
  5  6  2  0
  6  7  1  0
  7  8  2  0
  8  9  1  0
  9 10  1  0
 10 11  1  0
 11 12  1  0
 12 13  1  0
 13 14  1  0
 14 15  2  0
 14 16  1  0
 16 17  1  0
 17 18  1  0
 18 19  2  0
 18 20  1  0
 20 21  2  0
 21 22  1  0
 22 23  2  0
 23 24  1  0
 24 25  2  0
 25 26  1  0
 25 27  1  0
 27 28  2  0
 28 29  1  0
 29 30  2  0
  8  3  1  0
 13  9  1  0
 30 20  1  0
 29 23  1  0
  4 31  1  0
  5 32  1  0
  6 33  1  0
  7 34  1  0
  9 35  1  6
 10 36  1  0
 10 37  1  0
 11 38  1  0
 11 39  1  0
 12 40  1  0
 12 41  1  0
 16 42  1  0
 16 43  1  0
 17 44  1  0
 21 45  1  0
 22 46  1  0
 24 47  1  0
 27 48  1  0
 28 49  1  0
M  END
>  <smiles>  (46) 
N#Cc1ccccc1[C@H]1CCCN1C(=O)CNC(=O)c1ccc2cc(Cl)ccc2n1

>  <score_type>  (46) 
oracle

>  <origin>  (46) 
autodockgpu

>  <m_score__min__energy>  (46) 
-9.0500000000000007

>  <m_primary>  (46) 
energy

>  <rmsd>  (46) 
9.910763459474179

>  <m_score__min__rmsd>  (46) 
9.910763459474179

>  <meeko>  (46) 
{"free_energy": -8.15, "intermolecular_energy": -9.94, "internal_energy": -2.47, "cluster_size": 17, "cluster_id": 5, "rank_in_cluster": 3}

>  <energy>  (46) 
-7.89

>  <cluster_rmsd>  (46) 
0.79

>  <cluster>  (46) 
5

$$$$

     RDKit          3D

 49 52  0  0  0  0  0  0  0  0999 V2000
  137.9530   81.0230  223.3660 N   0  0  0  0  0  0  0  0  0  0  0  0
  139.0150   80.6510  223.2120 C   0  0  0  0  0  0  0  0  0  0  0  0
  140.3440   80.1980  222.9970 C   0  0  0  0  0  0  0  0  0  0  0  0
  141.3120   80.6010  223.9240 C   0  0  0  0  0  0  0  0  0  0  0  0
  142.6270   80.2080  223.7980 C   0  0  0  0  0  0  0  0  0  0  0  0
  142.9370   79.4060  222.7200 C   0  0  0  0  0  0  0  0  0  0  0  0
  141.9830   79.0100  221.8070 C   0  0  0  0  0  0  0  0  0  0  0  0
  140.6400   79.4000  221.9210 C   0  0  0  0  0  0  0  0  0  0  0  0
  139.6820   78.9560  220.9340 C   0  0  1  0  0  0  0  0  0  0  0  0
  140.0000   79.7130  219.6360 C   0  0  0  0  0  0  0  0  0  0  0  0
  139.2680   78.8230  218.6530 C   0  0  0  0  0  0  0  0  0  0  0  0
  139.7150   77.4600  219.1340 C   0  0  0  0  0  0  0  0  0  0  0  0
  139.6110   77.5810  220.5860 N   0  0  0  0  0  0  0  0  0  0  0  0
  139.4600   76.5190  221.5280 C   0  0  0  0  0  0  0  0  0  0  0  0
  139.1880   76.7120  222.7240 O   0  0  0  0  0  0  0  0  0  0  0  0
  139.6380   75.1160  221.0420 C   0  0  0  0  0  0  0  0  0  0  0  0
  139.6760   74.1810  222.1430 N   0  0  0  0  0  0  0  0  0  0  0  0
  139.9140   72.8130  221.8240 C   0  0  0  0  0  0  0  0  0  0  0  0
  140.0830   72.4260  220.6410 O   0  0  0  0  0  0  0  0  0  0  0  0
  139.9530   71.8560  222.9450 C   0  0  0  0  0  0  0  0  0  0  0  0
  139.4850   70.5680  222.7960 C   0  0  0  0  0  0  0  0  0  0  0  0
  139.4940   69.6320  223.7960 C   0  0  0  0  0  0  0  0  0  0  0  0
  140.0020   70.0070  225.0210 C   0  0  0  0  0  0  0  0  0  0  0  0
  140.0700   69.1710  226.1070 C   0  0  0  0  0  0  0  0  0  0  0  0
  140.5820   69.5640  227.3280 C   0  0  0  0  0  0  0  0  0  0  0  0
  140.6700   68.5000  228.7120 Cl  0  0  0  0  0  0  0  0  0  0  0  0
  141.0450   70.8540  227.4600 C   0  0  0  0  0  0  0  0  0  0  0  0
  140.9850   71.7160  226.3720 C   0  0  0  0  0  0  0  0  0  0  0  0
  140.4640   71.2990  225.1460 C   0  0  0  0  0  0  0  0  0  0  0  0
  140.4430   72.1910  224.1540 N   0  0  0  0  0  0  0  0  0  0  0  0
  141.0182   81.2426  224.7678 H   0  0  0  0  0  0  0  0  0  0  0  0
  143.3932   80.5195  224.5233 H   0  0  0  0  0  0  0  0  0  0  0  0
  143.9764   79.0723  222.5845 H   0  0  0  0  0  0  0  0  0  0  0  0
  142.2834   78.3696  220.9646 H   0  0  0  0  0  0  0  0  0  0  0  0
  138.7131   79.1547  221.4154 H   0  0  0  0  0  0  0  0  0  0  0  0
  139.5953   80.7358  219.6460 H   0  0  0  0  0  0  0  0  0  0  0  0
  141.0695   79.8652  219.4286 H   0  0  0  0  0  0  0  0  0  0  0  0
  138.1773   78.9436  218.7295 H   0  0  0  0  0  0  0  0  0  0  0  0
  139.4853   79.0309  217.5949 H   0  0  0  0  0  0  0  0  0  0  0  0
  139.0527   76.6684  218.7536 H   0  0  0  0  0  0  0  0  0  0  0  0
  140.7231   77.1852  218.7903 H   0  0  0  0  0  0  0  0  0  0  0  0
  138.7985   74.8566  220.3802 H   0  0  0  0  0  0  0  0  0  0  0  0
  140.5934   75.0543  220.5003 H   0  0  0  0  0  0  0  0  0  0  0  0
  139.5370   74.4900  223.1320 H   0  0  0  0  0  0  0  0  0  0  0  0
  139.0804   70.2745  221.8161 H   0  0  0  0  0  0  0  0  0  0  0  0
  139.1089   68.6156  223.6271 H   0  0  0  0  0  0  0  0  0  0  0  0
  139.6998   68.1407  226.0002 H   0  0  0  0  0  0  0  0  0  0  0  0
  141.4589   71.1992  228.4189 H   0  0  0  0  0  0  0  0  0  0  0  0
  141.3550   72.7464  226.4788 H   0  0  0  0  0  0  0  0  0  0  0  0
  1  2  3  0
  2  3  1  0
  3  4  2  0
  4  5  1  0
  5  6  2  0
  6  7  1  0
  7  8  2  0
  8  9  1  0
  9 10  1  0
 10 11  1  0
 11 12  1  0
 12 13  1  0
 13 14  1  0
 14 15  2  0
 14 16  1  0
 16 17  1  0
 17 18  1  0
 18 19  2  0
 18 20  1  0
 20 21  2  0
 21 22  1  0
 22 23  2  0
 23 24  1  0
 24 25  2  0
 25 26  1  0
 25 27  1  0
 27 28  2  0
 28 29  1  0
 29 30  2  0
  8  3  1  0
 13  9  1  0
 30 20  1  0
 29 23  1  0
  4 31  1  0
  5 32  1  0
  6 33  1  0
  7 34  1  0
  9 35  1  1
 10 36  1  0
 10 37  1  0
 11 38  1  0
 11 39  1  0
 12 40  1  0
 12 41  1  0
 16 42  1  0
 16 43  1  0
 17 44  1  0
 21 45  1  0
 22 46  1  0
 24 47  1  0
 27 48  1  0
 28 49  1  0
M  END
>  <smiles>  (47) 
N#Cc1ccccc1[C@H]1CCCN1C(=O)CNC(=O)c1ccc2cc(Cl)ccc2n1

>  <score_type>  (47) 
oracle

>  <origin>  (47) 
autodockgpu

>  <m_score__min__energy>  (47) 
-9.0500000000000007

>  <m_primary>  (47) 
energy

>  <rmsd>  (47) 
3.8083395852783863

>  <m_score__min__rmsd>  (47) 
3.8083395852783863

>  <meeko>  (47) 
{"free_energy": -8.26, "intermolecular_energy": -10.05, "internal_energy": -2.09, "cluster_size": 21, "cluster_id": 2, "rank_in_cluster": 18}

>  <energy>  (47) 
-7.88

>  <cluster_rmsd>  (47) 
0.69

>  <cluster>  (47) 
5

$$$$

     RDKit          3D

 49 52  0  0  0  0  0  0  0  0999 V2000
  140.6680   72.6360  222.7240 N   0  0  0  0  0  0  0  0  0  0  0  0
  140.3890   71.9760  223.6060 C   0  0  0  0  0  0  0  0  0  0  0  0
  140.0630   71.1440  224.7110 C   0  0  0  0  0  0  0  0  0  0  0  0
  140.7020   71.4190  225.9250 C   0  0  0  0  0  0  0  0  0  0  0  0
  140.4470   70.6660  227.0510 C   0  0  0  0  0  0  0  0  0  0  0  0
  139.5390   69.6370  226.9190 C   0  0  0  0  0  0  0  0  0  0  0  0
  138.9120   69.3660  225.7220 C   0  0  0  0  0  0  0  0  0  0  0  0
  139.1590   70.1230  224.5670 C   0  0  0  0  0  0  0  0  0  0  0  0
  138.4730   69.7940  223.3380 C   0  0  1  0  0  0  0  0  0  0  0  0
  138.4310   68.2600  223.2520 C   0  0  0  0  0  0  0  0  0  0  0  0
  137.3240   68.1080  222.2280 C   0  0  0  0  0  0  0  0  0  0  0  0
  136.3130   69.0930  222.7710 C   0  0  0  0  0  0  0  0  0  0  0  0
  137.1420   70.2420  223.1300 N   0  0  0  0  0  0  0  0  0  0  0  0
  136.7210   71.5990  223.2560 C   0  0  0  0  0  0  0  0  0  0  0  0
  136.2170   72.0550  224.2960 O   0  0  0  0  0  0  0  0  0  0  0  0
  136.8990   72.5050  222.0790 C   0  0  0  0  0  0  0  0  0  0  0  0
  137.8970   73.5170  222.3420 N   0  0  0  0  0  0  0  0  0  0  0  0
  137.5940   74.8480  221.9340 C   0  0  0  0  0  0  0  0  0  0  0  0
  136.5110   75.1400  221.3690 O   0  0  0  0  0  0  0  0  0  0  0  0
  138.6100   75.8820  222.2000 C   0  0  0  0  0  0  0  0  0  0  0  0
  139.9470   75.6400  221.9650 C   0  0  0  0  0  0  0  0  0  0  0  0
  140.9390   76.5570  222.1900 C   0  0  0  0  0  0  0  0  0  0  0  0
  140.5730   77.7920  222.6810 C   0  0  0  0  0  0  0  0  0  0  0  0
  141.4630   78.8010  222.9510 C   0  0  0  0  0  0  0  0  0  0  0  0
  141.0780   80.0320  223.4430 C   0  0  0  0  0  0  0  0  0  0  0  0
  142.2110   81.3180  223.7880 Cl  0  0  0  0  0  0  0  0  0  0  0  0
  139.7400   80.2570  223.6730 C   0  0  0  0  0  0  0  0  0  0  0  0
  138.8220   79.2490  223.4050 C   0  0  0  0  0  0  0  0  0  0  0  0
  139.2310   78.0100  222.9080 C   0  0  0  0  0  0  0  0  0  0  0  0
  138.2850   77.0970  222.6800 N   0  0  0  0  0  0  0  0  0  0  0  0
  141.4201   72.2503  225.9818 H   0  0  0  0  0  0  0  0  0  0  0  0
  140.9444   70.8761  228.0094 H   0  0  0  0  0  0  0  0  0  0  0  0
  139.3080   69.0136  227.7954 H   0  0  0  0  0  0  0  0  0  0  0  0
  138.1969   68.5317  225.6707 H   0  0  0  0  0  0  0  0  0  0  0  0
  139.0522   70.3314  222.5727 H   0  0  0  0  0  0  0  0  0  0  0  0
  139.3833   67.8410  222.8947 H   0  0  0  0  0  0  0  0  0  0  0  0
  138.2667   67.7378  224.2061 H   0  0  0  0  0  0  0  0  0  0  0  0
  137.6622   68.3871  221.2192 H   0  0  0  0  0  0  0  0  0  0  0  0
  136.9469   67.0817  222.1080 H   0  0  0  0  0  0  0  0  0  0  0  0
  135.5717   69.3632  222.0046 H   0  0  0  0  0  0  0  0  0  0  0  0
  135.7283   68.6970  223.6144 H   0  0  0  0  0  0  0  0  0  0  0  0
  137.2147   71.9073  221.2111 H   0  0  0  0  0  0  0  0  0  0  0  0
  135.9406   73.0061  221.8783 H   0  0  0  0  0  0  0  0  0  0  0  0
  138.8020   73.2870  222.8120 H   0  0  0  0  0  0  0  0  0  0  0  0
  140.2336   74.6526  221.5739 H   0  0  0  0  0  0  0  0  0  0  0  0
  141.9927   76.3161  221.9857 H   0  0  0  0  0  0  0  0  0  0  0  0
  142.5324   78.6206  222.7669 H   0  0  0  0  0  0  0  0  0  0  0  0
  139.4001   81.2267  224.0657 H   0  0  0  0  0  0  0  0  0  0  0  0
  137.7526   79.4306  223.5879 H   0  0  0  0  0  0  0  0  0  0  0  0
  1  2  3  0
  2  3  1  0
  3  4  2  0
  4  5  1  0
  5  6  2  0
  6  7  1  0
  7  8  2  0
  8  9  1  0
  9 10  1  0
 10 11  1  0
 11 12  1  0
 12 13  1  0
 13 14  1  0
 14 15  2  0
 14 16  1  0
 16 17  1  0
 17 18  1  0
 18 19  2  0
 18 20  1  0
 20 21  2  0
 21 22  1  0
 22 23  2  0
 23 24  1  0
 24 25  2  0
 25 26  1  0
 25 27  1  0
 27 28  2  0
 28 29  1  0
 29 30  2  0
  8  3  1  0
 13  9  1  0
 30 20  1  0
 29 23  1  0
  4 31  1  0
  5 32  1  0
  6 33  1  0
  7 34  1  0
  9 35  1  6
 10 36  1  0
 10 37  1  0
 11 38  1  0
 11 39  1  0
 12 40  1  0
 12 41  1  0
 16 42  1  0
 16 43  1  0
 17 44  1  0
 21 45  1  0
 22 46  1  0
 24 47  1  0
 27 48  1  0
 28 49  1  0
M  END
>  <smiles>  (48) 
N#Cc1ccccc1[C@H]1CCCN1C(=O)CNC(=O)c1ccc2cc(Cl)ccc2n1

>  <score_type>  (48) 
oracle

>  <origin>  (48) 
autodockgpu

>  <m_score__min__energy>  (48) 
-9.0500000000000007

>  <m_primary>  (48) 
energy

>  <rmsd>  (48) 
9.906625018042746

>  <m_score__min__rmsd>  (48) 
9.906625018042746

>  <meeko>  (48) 
{"free_energy": -8.12, "intermolecular_energy": -9.91, "internal_energy": -2.45, "cluster_size": 17, "cluster_id": 5, "rank_in_cluster": 4}

>  <energy>  (48) 
-7.72

>  <cluster_rmsd>  (48) 
0.32

>  <cluster>  (48) 
5

$$$$

     RDKit          3D

 49 52  0  0  0  0  0  0  0  0999 V2000
  138.0330   78.0640  223.0290 N   0  0  0  0  0  0  0  0  0  0  0  0
  139.0350   78.5830  222.8950 C   0  0  0  0  0  0  0  0  0  0  0  0
  140.2760   79.2540  222.7280 C   0  0  0  0  0  0  0  0  0  0  0  0
  140.7520   79.9920  223.8170 C   0  0  0  0  0  0  0  0  0  0  0  0
  141.9480   80.6740  223.7470 C   0  0  0  0  0  0  0  0  0  0  0  0
  142.6440   80.5920  222.5600 C   0  0  0  0  0  0  0  0  0  0  0  0
  142.1740   79.8650  221.4870 C   0  0  0  0  0  0  0  0  0  0  0  0
  140.9590   79.1650  221.5420 C   0  0  0  0  0  0  0  0  0  0  0  0
  140.5140   78.4180  220.3870 C   0  0  1  0  0  0  0  0  0  0  0  0
  141.1470   79.0870  219.1570 C   0  0  0  0  0  0  0  0  0  0  0  0
  140.9830   77.9590  218.1590 C   0  0  0  0  0  0  0  0  0  0  0  0
  141.4500   76.7870  218.9940 C   0  0  0  0  0  0  0  0  0  0  0  0
  140.8080   77.0330  220.2840 N   0  0  0  0  0  0  0  0  0  0  0  0
  140.5090   76.0690  221.2920 C   0  0  0  0  0  0  0  0  0  0  0  0
  141.1150   76.0160  222.3750 O   0  0  0  0  0  0  0  0  0  0  0  0
  139.4150   75.0850  221.0240 C   0  0  0  0  0  0  0  0  0  0  0  0
  139.3380   74.0890  222.0690 N   0  0  0  0  0  0  0  0  0  0  0  0
  140.3030   73.0410  222.0380 C   0  0  0  0  0  0  0  0  0  0  0  0
  141.1840   72.9750  221.1470 O   0  0  0  0  0  0  0  0  0  0  0  0
  140.2260   72.0240  223.1020 C   0  0  0  0  0  0  0  0  0  0  0  0
  139.6620   70.7880  222.8640 C   0  0  0  0  0  0  0  0  0  0  0  0
  139.5610   69.8010  223.8070 C   0  0  0  0  0  0  0  0  0  0  0  0
  140.0540   70.0640  225.0680 C   0  0  0  0  0  0  0  0  0  0  0  0
  140.0170   69.1660  226.1040 C   0  0  0  0  0  0  0  0  0  0  0  0
  140.5160   69.4460  227.3610 C   0  0  0  0  0  0  0  0  0  0  0  0
  140.4700   68.3040  228.6820 Cl  0  0  0  0  0  0  0  0  0  0  0  0
  141.0760   70.6850  227.5820 C   0  0  0  0  0  0  0  0  0  0  0  0
  141.1230   71.6080  226.5450 C   0  0  0  0  0  0  0  0  0  0  0  0
  140.6130   71.3050  225.2820 C   0  0  0  0  0  0  0  0  0  0  0  0
  140.6980   72.2500  224.3430 N   0  0  0  0  0  0  0  0  0  0  0  0
  140.1621   80.0287  224.7447 H   0  0  0  0  0  0  0  0  0  0  0  0
  142.3292   81.2565  224.5987 H   0  0  0  0  0  0  0  0  0  0  0  0
  143.6031   81.1225  222.4661 H   0  0  0  0  0  0  0  0  0  0  0  0
  142.7681   79.8327  220.5618 H   0  0  0  0  0  0  0  0  0  0  0  0
  139.4179   78.4459  220.4746 H   0  0  0  0  0  0  0  0  0  0  0  0
  140.5986   79.9903  218.8515 H   0  0  0  0  0  0  0  0  0  0  0  0
  142.1764   79.4495  219.2944 H   0  0  0  0  0  0  0  0  0  0  0  0
  139.9352   77.8428  217.8451 H   0  0  0  0  0  0  0  0  0  0  0  0
  141.5297   78.0975  217.2146 H   0  0  0  0  0  0  0  0  0  0  0  0
  141.1154   75.8331  218.5603 H   0  0  0  0  0  0  0  0  0  0  0  0
  142.5452   76.7081  219.0603 H   0  0  0  0  0  0  0  0  0  0  0  0
  138.4562   75.6212  220.9685 H   0  0  0  0  0  0  0  0  0  0  0  0
  139.6310   74.5754  220.0734 H   0  0  0  0  0  0  0  0  0  0  0  0
  138.6090   74.1330  222.8170 H   0  0  0  0  0  0  0  0  0  0  0  0
  139.2702   70.5833  221.8567 H   0  0  0  0  0  0  0  0  0  0  0  0
  139.1020   68.8305  223.5672 H   0  0  0  0  0  0  0  0  0  0  0  0
  139.5693   68.1772  225.9255 H   0  0  0  0  0  0  0  0  0  0  0  0
  141.4826   70.9413  228.5714 H   0  0  0  0  0  0  0  0  0  0  0  0
  141.5709   72.5968  226.7229 H   0  0  0  0  0  0  0  0  0  0  0  0
  1  2  3  0
  2  3  1  0
  3  4  2  0
  4  5  1  0
  5  6  2  0
  6  7  1  0
  7  8  2  0
  8  9  1  0
  9 10  1  0
 10 11  1  0
 11 12  1  0
 12 13  1  0
 13 14  1  0
 14 15  2  0
 14 16  1  0
 16 17  1  0
 17 18  1  0
 18 19  2  0
 18 20  1  0
 20 21  2  0
 21 22  1  0
 22 23  2  0
 23 24  1  0
 24 25  2  0
 25 26  1  0
 25 27  1  0
 27 28  2  0
 28 29  1  0
 29 30  2  0
  8  3  1  0
 13  9  1  0
 30 20  1  0
 29 23  1  0
  4 31  1  0
  5 32  1  0
  6 33  1  0
  7 34  1  0
  9 35  1  6
 10 36  1  0
 10 37  1  0
 11 38  1  0
 11 39  1  0
 12 40  1  0
 12 41  1  0
 16 42  1  0
 16 43  1  0
 17 44  1  0
 21 45  1  0
 22 46  1  0
 24 47  1  0
 27 48  1  0
 28 49  1  0
M  END
>  <smiles>  (49) 
N#Cc1ccccc1[C@H]1CCCN1C(=O)CNC(=O)c1ccc2cc(Cl)ccc2n1

>  <score_type>  (49) 
oracle

>  <origin>  (49) 
autodockgpu

>  <m_score__min__energy>  (49) 
-9.0500000000000007

>  <m_primary>  (49) 
energy

>  <rmsd>  (49) 
3.705728176905882

>  <m_score__min__rmsd>  (49) 
3.705728176905882

>  <meeko>  (49) 
{"free_energy": -8.68, "intermolecular_energy": -10.47, "internal_energy": -1.68, "cluster_size": 21, "cluster_id": 2, "rank_in_cluster": 7}

>  <energy>  (49) 
-7.91

>  <cluster_rmsd>  (49) 
0.0

>  <cluster>  (49) 
6

$$$$

     RDKit          3D

 49 52  0  0  0  0  0  0  0  0999 V2000
  141.1270   72.6060  227.5970 N   0  0  0  0  0  0  0  0  0  0  0  0
  140.8800   71.5280  227.3350 C   0  0  0  0  0  0  0  0  0  0  0  0
  140.5840   70.1830  226.9860 C   0  0  0  0  0  0  0  0  0  0  0  0
  141.0420   69.1850  227.8530 C   0  0  0  0  0  0  0  0  0  0  0  0
  140.8010   67.8520  227.5980 C   0  0  0  0  0  0  0  0  0  0  0  0
  140.0930   67.5560  226.4530 C   0  0  0  0  0  0  0  0  0  0  0  0
  139.6430   68.5400  225.5980 C   0  0  0  0  0  0  0  0  0  0  0  0
  139.8790   69.9010  225.8440 C   0  0  0  0  0  0  0  0  0  0  0  0
  139.3850   70.8900  224.9130 C   0  0  1  0  0  0  0  0  0  0  0  0
  140.5420   71.2130  223.9550 C   0  0  0  0  0  0  0  0  0  0  0  0
  139.7510   71.8500  222.8300 C   0  0  0  0  0  0  0  0  0  0  0  0
  138.6130   70.8610  222.7040 C   0  0  0  0  0  0  0  0  0  0  0  0
  138.2620   70.5940  224.0970 N   0  0  0  0  0  0  0  0  0  0  0  0
  137.0110   70.1180  224.5910 C   0  0  0  0  0  0  0  0  0  0  0  0
  136.9110   69.4170  225.6120 O   0  0  0  0  0  0  0  0  0  0  0  0
  135.7700   70.4860  223.8400 C   0  0  0  0  0  0  0  0  0  0  0  0
  135.0960   71.6050  224.4570 N   0  0  0  0  0  0  0  0  0  0  0  0
  134.2560   71.3220  225.5720 C   0  0  0  0  0  0  0  0  0  0  0  0
  134.1000   70.1550  226.0070 O   0  0  0  0  0  0  0  0  0  0  0  0
  133.5670   72.4620  226.2030 C   0  0  0  0  0  0  0  0  0  0  0  0
  132.4150   72.2770  226.9390 C   0  0  0  0  0  0  0  0  0  0  0  0
  131.7280   73.2930  227.5490 C   0  0  0  0  0  0  0  0  0  0  0  0
  132.2230   74.5730  227.4170 C   0  0  0  0  0  0  0  0  0  0  0  0
  131.6350   75.6790  227.9760 C   0  0  0  0  0  0  0  0  0  0  0  0
  132.1440   76.9550  227.8330 C   0  0  0  0  0  0  0  0  0  0  0  0
  131.3970   78.3650  228.5440 Cl  0  0  0  0  0  0  0  0  0  0  0  0
  133.2940   77.1220  227.0950 C   0  0  0  0  0  0  0  0  0  0  0  0
  133.9050   76.0140  226.5210 C   0  0  0  0  0  0  0  0  0  0  0  0
  133.3750   74.7330  226.6770 C   0  0  0  0  0  0  0  0  0  0  0  0
  134.0230   73.7240  226.0920 N   0  0  0  0  0  0  0  0  0  0  0  0
  141.6046   69.4693  228.7545 H   0  0  0  0  0  0  0  0  0  0  0  0
  141.1567   67.0621  228.2759 H   0  0  0  0  0  0  0  0  0  0  0  0
  139.8806   66.5035  226.2141 H   0  0  0  0  0  0  0  0  0  0  0  0
  139.0828   68.2494  224.6970 H   0  0  0  0  0  0  0  0  0  0  0  0
  139.0260   71.6972  225.5684 H   0  0  0  0  0  0  0  0  0  0  0  0
  141.2624   71.9146  224.4008 H   0  0  0  0  0  0  0  0  0  0  0  0
  141.1684   70.3564  223.6655 H   0  0  0  0  0  0  0  0  0  0  0  0
  139.3902   72.8525  223.1034 H   0  0  0  0  0  0  0  0  0  0  0  0
  140.3208   72.0159  221.9038 H   0  0  0  0  0  0  0  0  0  0  0  0
  137.7647   71.3002  222.1586 H   0  0  0  0  0  0  0  0  0  0  0  0
  138.8829   69.9553  222.1411 H   0  0  0  0  0  0  0  0  0  0  0  0
  136.0418   70.7556  222.8088 H   0  0  0  0  0  0  0  0  0  0  0  0
  135.0891   69.6221  223.8496 H   0  0  0  0  0  0  0  0  0  0  0  0
  135.2180   72.5820  224.1040 H   0  0  0  0  0  0  0  0  0  0  0  0
  132.0252   71.2535  227.0421 H   0  0  0  0  0  0  0  0  0  0  0  0
  130.8121   73.0943  228.1249 H   0  0  0  0  0  0  0  0  0  0  0  0
  130.7160   75.5435  228.5651 H   0  0  0  0  0  0  0  0  0  0  0  0
  133.7258   78.1248  226.9608 H   0  0  0  0  0  0  0  0  0  0  0  0
  134.8243   76.1495  225.9323 H   0  0  0  0  0  0  0  0  0  0  0  0
  1  2  3  0
  2  3  1  0
  3  4  2  0
  4  5  1  0
  5  6  2  0
  6  7  1  0
  7  8  2  0
  8  9  1  0
  9 10  1  0
 10 11  1  0
 11 12  1  0
 12 13  1  0
 13 14  1  0
 14 15  2  0
 14 16  1  0
 16 17  1  0
 17 18  1  0
 18 19  2  0
 18 20  1  0
 20 21  2  0
 21 22  1  0
 22 23  2  0
 23 24  1  0
 24 25  2  0
 25 26  1  0
 25 27  1  0
 27 28  2  0
 28 29  1  0
 29 30  2  0
  8  3  1  0
 13  9  1  0
 30 20  1  0
 29 23  1  0
  4 31  1  0
  5 32  1  0
  6 33  1  0
  7 34  1  0
  9 35  1  1
 10 36  1  0
 10 37  1  0
 11 38  1  0
 11 39  1  0
 12 40  1  0
 12 41  1  0
 16 42  1  0
 16 43  1  0
 17 44  1  0
 21 45  1  0
 22 46  1  0
 24 47  1  0
 27 48  1  0
 28 49  1  0
M  END
>  <smiles>  (50) 
N#Cc1ccccc1[C@H]1CCCN1C(=O)CNC(=O)c1ccc2cc(Cl)ccc2n1

>  <score_type>  (50) 
oracle

>  <origin>  (50) 
autodockgpu

>  <m_score__min__energy>  (50) 
-9.0500000000000007

>  <m_primary>  (50) 
energy

>  <rmsd>  (50) 
10.784732553012885

>  <m_score__min__rmsd>  (50) 
10.784732553012885

>  <meeko>  (50) 
{"free_energy": -9.05, "intermolecular_energy": -10.84, "internal_energy": -1.64, "cluster_size": 4, "cluster_id": 1, "rank_in_cluster": 1}

>  <energy>  (50) 
-5.72

>  <cluster_rmsd>  (50) 
0.0

>  <cluster>  (50) 
7

$$$$
