
     RDKit          3D

 43 45  0  0  0  0  0  0  0  0999 V2000
  140.3370   74.3140  222.2540 O   0  0  0  0  0  0  0  0  0  0  0  0
  140.6880   75.1050  221.3200 C   0  0  0  0  0  0  0  0  0  0  0  0
  141.1320   74.4810  220.1210 N   0  0  0  0  0  0  0  0  0  0  0  0
  141.1470   73.0540  220.0640 C   0  0  0  0  0  0  0  0  0  0  0  0
  142.1880   72.4560  220.9280 C   0  0  0  0  0  0  0  0  0  0  0  0
  141.8070   71.9180  222.0000 O   0  0  0  0  0  0  0  0  0  0  0  0
  143.5440   72.5180  220.5150 N   0  0  0  0  0  0  0  0  0  0  0  0
  144.3650   71.4230  220.0170 C   0  0  0  0  0  0  0  0  0  0  0  0
  145.4540   72.1560  219.2800 C   0  0  0  0  0  0  0  0  0  0  0  0
  145.7390   73.3160  220.2210 C   0  0  2  0  0  0  0  0  0  0  0  0
  146.3520   72.8610  221.3960 O   0  0  0  0  0  0  0  0  0  0  0  0
  144.3140   73.7500  220.5430 C   0  0  1  0  0  0  0  0  0  0  0  0
  143.8950   74.7140  219.4600 C   0  0  0  0  0  0  0  0  0  0  0  0
  143.3520   75.8820  219.9650 O   0  0  0  0  0  0  0  0  0  0  0  0
  140.6360   76.5570  221.4770 C   0  0  0  0  0  0  0  0  0  0  0  0
  139.8760   77.0640  222.5020 C   0  0  0  0  0  0  0  0  0  0  0  0
  139.7510   78.4170  222.7470 C   0  0  0  0  0  0  0  0  0  0  0  0
  140.4300   79.2700  221.9130 C   0  0  0  0  0  0  0  0  0  0  0  0
  140.3270   80.6270  222.1290 C   0  0  0  0  0  0  0  0  0  0  0  0
  141.0020   81.4700  221.2990 C   0  0  0  0  0  0  0  0  0  0  0  0
  140.8970   83.2010  221.5430 Cl  0  0  0  0  0  0  0  0  0  0  0  0
  141.7860   81.0040  220.2470 C   0  0  0  0  0  0  0  0  0  0  0  0
  141.8540   79.6320  220.0740 C   0  0  0  0  0  0  0  0  0  0  0  0
  141.1980   78.7450  220.8780 C   0  0  0  0  0  0  0  0  0  0  0  0
  141.2860   77.4110  220.6800 N   0  0  0  0  0  0  0  0  0  0  0  0
  141.4300   75.0810  219.3250 H   0  0  0  0  0  0  0  0  0  0  0  0
  140.1645   72.6792  220.3869 H   0  0  0  0  0  0  0  0  0  0  0  0
  141.3730   72.7667  219.0265 H   0  0  0  0  0  0  0  0  0  0  0  0
  144.7754   70.8238  220.8431 H   0  0  0  0  0  0  0  0  0  0  0  0
  143.8137   70.7047  219.3924 H   0  0  0  0  0  0  0  0  0  0  0  0
  146.3428   71.5222  219.1446 H   0  0  0  0  0  0  0  0  0  0  0  0
  145.1731   72.4660  218.2626 H   0  0  0  0  0  0  0  0  0  0  0  0
  146.4000   74.0907  219.8051 H   0  0  0  0  0  0  0  0  0  0  0  0
  145.7430   72.2580  221.9000 H   0  0  0  0  0  0  0  0  0  0  0  0
  144.1837   74.2546  221.5117 H   0  0  0  0  0  0  0  0  0  0  0  0
  144.7778   74.9691  218.8553 H   0  0  0  0  0  0  0  0  0  0  0  0
  143.1182   74.2199  218.8580 H   0  0  0  0  0  0  0  0  0  0  0  0
  142.9710   75.6770  220.8560 H   0  0  0  0  0  0  0  0  0  0  0  0
  139.3425   76.3602  223.1578 H   0  0  0  0  0  0  0  0  0  0  0  0
  139.1337   78.7952  223.5751 H   0  0  0  0  0  0  0  0  0  0  0  0
  139.7136   81.0205  222.9530 H   0  0  0  0  0  0  0  0  0  0  0  0
  142.3269   81.6946  219.5833 H   0  0  0  0  0  0  0  0  0  0  0  0
  142.4659   79.2378  219.2493 H   0  0  0  0  0  0  0  0  0  0  0  0
  1  2  2  0
  2  3  1  0
  3  4  1  0
  4  5  1  0
  5  6  2  0
  5  7  1  0
  7  8  1  0
  8  9  1  0
  9 10  1  0
 10 11  1  0
 10 12  1  0
 12 13  1  0
 13 14  1  0
  2 15  1  0
 15 16  2  0
 16 17  1  0
 17 18  2  0
 18 19  1  0
 19 20  2  0
 20 21  1  0
 20 22  1  0
 22 23  2  0
 23 24  1  0
 24 25  2  0
 12  7  1  0
 25 15  1  0
 24 18  1  0
  3 26  1  0
  4 27  1  0
  4 28  1  0
  8 29  1  0
  8 30  1  0
  9 31  1  0
  9 32  1  0
 10 33  1  6
 11 34  1  0
 12 35  1  1
 13 36  1  0
 13 37  1  0
 14 38  1  0
 16 39  1  0
 17 40  1  0
 19 41  1  0
 22 42  1  0
 23 43  1  0
M  END
>  <smiles>  (1) 
O=C(NCC(=O)N1CC[C@H](O)[C@H]1CO)c1ccc2cc(Cl)ccc2n1

>  <score_type>  (1) 
oracle

>  <origin>  (1) 
autodockgpu

>  <m_score__min__energy>  (1) 
-7.2300000000000004

>  <m_primary>  (1) 
energy

>  <rmsd>  (1) 
8.017695315837535

>  <m_score__min__rmsd>  (1) 
8.017695315837535

>  <meeko>  (1) 
{"free_energy": -5.56, "intermolecular_energy": -7.64, "internal_energy": -2.08, "cluster_size": 1, "cluster_id": 5, "rank_in_cluster": 1}

>  <energy>  (1) 
-7.23

>  <cluster_rmsd>  (1) 
0.0

>  <cluster>  (1) 
1

$$$$

     RDKit          3D

 43 45  0  0  0  0  0  0  0  0999 V2000
  141.2680   73.7440  221.0310 O   0  0  0  0  0  0  0  0  0  0  0  0
  140.4070   73.7390  221.9690 C   0  0  0  0  0  0  0  0  0  0  0  0
  139.7440   74.9770  222.2000 N   0  0  0  0  0  0  0  0  0  0  0  0
  140.0900   76.0950  221.3820 C   0  0  0  0  0  0  0  0  0  0  0  0
  139.6140   77.3810  221.9360 C   0  0  0  0  0  0  0  0  0  0  0  0
  138.4190   77.4320  222.3270 O   0  0  0  0  0  0  0  0  0  0  0  0
  140.5120   78.4780  221.9980 N   0  0  0  0  0  0  0  0  0  0  0  0
  141.1570   79.1530  220.8800 C   0  0  0  0  0  0  0  0  0  0  0  0
  141.5300   80.4790  221.4840 C   0  0  0  0  0  0  0  0  0  0  0  0
  142.0190   80.0660  222.8640 C   0  0  2  0  0  0  0  0  0  0  0  0
  143.2300   79.3680  222.7710 O   0  0  0  0  0  0  0  0  0  0  0  0
  140.9150   79.0890  223.2530 C   0  0  1  0  0  0  0  0  0  0  0  0
  139.8080   79.9060  223.8760 C   0  0  0  0  0  0  0  0  0  0  0  0
  138.7640   80.1460  223.0000 O   0  0  0  0  0  0  0  0  0  0  0  0
  140.1230   72.5380  222.7520 C   0  0  0  0  0  0  0  0  0  0  0  0
  139.1840   71.6630  222.2650 C   0  0  0  0  0  0  0  0  0  0  0  0
  138.8330   70.4980  222.9160 C   0  0  0  0  0  0  0  0  0  0  0  0
  139.4700   70.2270  224.1020 C   0  0  0  0  0  0  0  0  0  0  0  0
  139.1440   69.0720  224.7790 C   0  0  0  0  0  0  0  0  0  0  0  0
  139.7770   68.8070  225.9560 C   0  0  0  0  0  0  0  0  0  0  0  0
  139.3900   67.3480  226.8430 Cl  0  0  0  0  0  0  0  0  0  0  0  0
  140.7360   69.6630  226.4890 C   0  0  0  0  0  0  0  0  0  0  0  0
  141.0260   70.8100  225.7680 C   0  0  0  0  0  0  0  0  0  0  0  0
  140.4200   71.1200  224.5850 C   0  0  0  0  0  0  0  0  0  0  0  0
  140.7270   72.2500  223.9090 N   0  0  0  0  0  0  0  0  0  0  0  0
  139.0300   75.0290  222.9550 H   0  0  0  0  0  0  0  0  0  0  0  0
  141.1853   76.1365  221.2890 H   0  0  0  0  0  0  0  0  0  0  0  0
  139.6020   75.9544  220.4062 H   0  0  0  0  0  0  0  0  0  0  0  0
  142.0480   78.6035  220.5423 H   0  0  0  0  0  0  0  0  0  0  0  0
  140.5199   79.2373  219.9872 H   0  0  0  0  0  0  0  0  0  0  0  0
  142.3269   80.9717  220.9076 H   0  0  0  0  0  0  0  0  0  0  0  0
  140.7059   81.2074  221.5030 H   0  0  0  0  0  0  0  0  0  0  0  0
  142.1936   80.9025  223.5567 H   0  0  0  0  0  0  0  0  0  0  0  0
  143.1060   78.5100  222.2820 H   0  0  0  0  0  0  0  0  0  0  0  0
  141.2073   78.3117  223.9744 H   0  0  0  0  0  0  0  0  0  0  0  0
  139.4173   79.3619  224.7486 H   0  0  0  0  0  0  0  0  0  0  0  0
  140.2334   80.8796  224.1609 H   0  0  0  0  0  0  0  0  0  0  0  0
  138.3970   79.2690  222.7210 H   0  0  0  0  0  0  0  0  0  0  0  0
  138.6887   71.9014  221.3122 H   0  0  0  0  0  0  0  0  0  0  0  0
  138.0755   69.8158  222.5027 H   0  0  0  0  0  0  0  0  0  0  0  0
  138.3894   68.3793  224.3781 H   0  0  0  0  0  0  0  0  0  0  0  0
  141.2412   69.4390  227.4401 H   0  0  0  0  0  0  0  0  0  0  0  0
  141.7803   71.5036  226.1679 H   0  0  0  0  0  0  0  0  0  0  0  0
  1  2  2  0
  2  3  1  0
  3  4  1  0
  4  5  1  0
  5  6  2  0
  5  7  1  0
  7  8  1  0
  8  9  1  0
  9 10  1  0
 10 11  1  0
 10 12  1  0
 12 13  1  0
 13 14  1  0
  2 15  1  0
 15 16  2  0
 16 17  1  0
 17 18  2  0
 18 19  1  0
 19 20  2  0
 20 21  1  0
 20 22  1  0
 22 23  2  0
 23 24  1  0
 24 25  2  0
 12  7  1  0
 25 15  1  0
 24 18  1  0
  3 26  1  0
  4 27  1  0
  4 28  1  0
  8 29  1  0
  8 30  1  0
  9 31  1  0
  9 32  1  0
 10 33  1  1
 11 34  1  0
 12 35  1  1
 13 36  1  0
 13 37  1  0
 14 38  1  0
 16 39  1  0
 17 40  1  0
 19 41  1  0
 22 42  1  0
 23 43  1  0
M  END
>  <smiles>  (2) 
O=C(NCC(=O)N1CC[C@H](O)[C@H]1CO)c1ccc2cc(Cl)ccc2n1

>  <score_type>  (2) 
oracle

>  <origin>  (2) 
autodockgpu

>  <m_score__min__energy>  (2) 
-7.2300000000000004

>  <m_primary>  (2) 
energy

>  <rmsd>  (2) 
4.2693605076112675

>  <m_score__min__rmsd>  (2) 
4.2693605076112675

>  <meeko>  (2) 
{"free_energy": -6.25, "intermolecular_energy": -8.33, "internal_energy": -1.77, "cluster_size": 7, "cluster_id": 2, "rank_in_cluster": 5}

>  <energy>  (2) 
-7.17

>  <cluster_rmsd>  (2) 
0.42

>  <cluster>  (2) 
1

$$$$

     RDKit          3D

 43 45  0  0  0  0  0  0  0  0999 V2000
  139.8130   72.4940  220.2150 O   0  0  0  0  0  0  0  0  0  0  0  0
  140.3780   72.7650  221.3240 C   0  0  0  0  0  0  0  0  0  0  0  0
  141.1480   73.9610  221.3440 N   0  0  0  0  0  0  0  0  0  0  0  0
  141.2230   74.7410  220.1500 C   0  0  0  0  0  0  0  0  0  0  0  0
  142.1860   74.1970  219.1680 C   0  0  0  0  0  0  0  0  0  0  0  0
  141.8620   74.2500  217.9540 O   0  0  0  0  0  0  0  0  0  0  0  0
  143.4090   73.6480  219.6370 N   0  0  0  0  0  0  0  0  0  0  0  0
  144.3140   74.2250  220.6210 C   0  0  0  0  0  0  0  0  0  0  0  0
  145.0950   73.0220  221.0740 C   0  0  0  0  0  0  0  0  0  0  0  0
  145.3260   72.2890  219.7620 C   0  0  2  0  0  0  0  0  0  0  0  0
  146.2170   73.0000  218.9470 O   0  0  0  0  0  0  0  0  0  0  0  0
  143.9280   72.3780  219.1610 C   0  0  1  0  0  0  0  0  0  0  0  0
  143.1460   71.2020  219.6950 C   0  0  0  0  0  0  0  0  0  0  0  0
  141.8540   71.1510  219.2030 O   0  0  0  0  0  0  0  0  0  0  0  0
  140.2400   71.8990  222.4930 C   0  0  0  0  0  0  0  0  0  0  0  0
  139.6260   70.6840  222.3220 C   0  0  0  0  0  0  0  0  0  0  0  0
  139.4390   69.7840  223.3510 C   0  0  0  0  0  0  0  0  0  0  0  0
  139.9000   70.1480  224.5930 C   0  0  0  0  0  0  0  0  0  0  0  0
  139.7300   69.2740  225.6440 C   0  0  0  0  0  0  0  0  0  0  0  0
  140.1880   69.6390  226.8740 C   0  0  0  0  0  0  0  0  0  0  0  0
  139.9910   68.5530  228.2330 Cl  0  0  0  0  0  0  0  0  0  0  0  0
  140.8170   70.8600  227.0970 C   0  0  0  0  0  0  0  0  0  0  0  0
  140.9620   71.7010  226.0070 C   0  0  0  0  0  0  0  0  0  0  0  0
  140.5210   71.3820  224.7550 C   0  0  0  0  0  0  0  0  0  0  0  0
  140.6790   72.2290  223.7120 N   0  0  0  0  0  0  0  0  0  0  0  0
  141.6310   74.2300  222.2260 H   0  0  0  0  0  0  0  0  0  0  0  0
  140.2262   74.7693  219.6858 H   0  0  0  0  0  0  0  0  0  0  0  0
  141.5709   75.7455  220.4326 H   0  0  0  0  0  0  0  0  0  0  0  0
  144.9717   74.9794  220.1646 H   0  0  0  0  0  0  0  0  0  0  0  0
  143.8010   74.7531  221.4382 H   0  0  0  0  0  0  0  0  0  0  0  0
  146.0464   73.3151  221.5419 H   0  0  0  0  0  0  0  0  0  0  0  0
  144.5811   72.4187  221.8369 H   0  0  0  0  0  0  0  0  0  0  0  0
  145.7442   71.2775  219.8711 H   0  0  0  0  0  0  0  0  0  0  0  0
  145.9700   73.9640  218.9130 H   0  0  0  0  0  0  0  0  0  0  0  0
  143.8853   72.3399  218.0625 H   0  0  0  0  0  0  0  0  0  0  0  0
  143.6670   70.2755  219.4119 H   0  0  0  0  0  0  0  0  0  0  0  0
  143.0809   71.3153  220.7872 H   0  0  0  0  0  0  0  0  0  0  0  0
  141.5680   72.0800  219.0120 H   0  0  0  0  0  0  0  0  0  0  0  0
  139.2661   70.4149  221.3180 H   0  0  0  0  0  0  0  0  0  0  0  0
  138.9423   68.8168  223.1841 H   0  0  0  0  0  0  0  0  0  0  0  0
  139.2355   68.3030  225.4935 H   0  0  0  0  0  0  0  0  0  0  0  0
  141.1827   71.1443  228.0947 H   0  0  0  0  0  0  0  0  0  0  0  0
  141.4560   72.6724  226.1568 H   0  0  0  0  0  0  0  0  0  0  0  0
  1  2  2  0
  2  3  1  0
  3  4  1  0
  4  5  1  0
  5  6  2  0
  5  7  1  0
  7  8  1  0
  8  9  1  0
  9 10  1  0
 10 11  1  0
 10 12  1  0
 12 13  1  0
 13 14  1  0
  2 15  1  0
 15 16  2  0
 16 17  1  0
 17 18  2  0
 18 19  1  0
 19 20  2  0
 20 21  1  0
 20 22  1  0
 22 23  2  0
 23 24  1  0
 24 25  2  0
 12  7  1  0
 25 15  1  0
 24 18  1  0
  3 26  1  0
  4 27  1  0
  4 28  1  0
  8 29  1  0
  8 30  1  0
  9 31  1  0
  9 32  1  0
 10 33  1  1
 11 34  1  0
 12 35  1  6
 13 36  1  0
 13 37  1  0
 14 38  1  0
 16 39  1  0
 17 40  1  0
 19 41  1  0
 22 42  1  0
 23 43  1  0
M  END
>  <smiles>  (3) 
O=C(NCC(=O)N1CC[C@H](O)[C@H]1CO)c1ccc2cc(Cl)ccc2n1

>  <score_type>  (3) 
oracle

>  <origin>  (3) 
autodockgpu

>  <m_score__min__energy>  (3) 
-7.2300000000000004

>  <m_primary>  (3) 
energy

>  <rmsd>  (3) 
4.180993056678608

>  <m_score__min__rmsd>  (3) 
4.180993056678608

>  <meeko>  (3) 
{"free_energy": -6.08, "intermolecular_energy": -8.17, "internal_energy": -2.49, "cluster_size": 23, "cluster_id": 1, "rank_in_cluster": 19}

>  <energy>  (3) 
-6.92

>  <cluster_rmsd>  (3) 
0.9

>  <cluster>  (3) 
1

$$$$

     RDKit          3D

 43 45  0  0  0  0  0  0  0  0999 V2000
  142.0660   74.7240  218.0370 O   0  0  0  0  0  0  0  0  0  0  0  0
  142.8440   75.7310  218.0640 C   0  0  0  0  0  0  0  0  0  0  0  0
  144.0730   75.5780  217.3640 N   0  0  0  0  0  0  0  0  0  0  0  0
  144.3280   74.3370  216.7040 C   0  0  0  0  0  0  0  0  0  0  0  0
  145.0390   73.3650  217.5630 C   0  0  0  0  0  0  0  0  0  0  0  0
  146.2120   73.0540  217.2310 O   0  0  0  0  0  0  0  0  0  0  0  0
  144.3750   72.8380  218.7010 N   0  0  0  0  0  0  0  0  0  0  0  0
  143.6690   71.5680  218.8000 C   0  0  0  0  0  0  0  0  0  0  0  0
  143.6520   71.3330  220.2860 C   0  0  0  0  0  0  0  0  0  0  0  0
  143.3520   72.7250  220.8190 C   0  0  2  0  0  0  0  0  0  0  0  0
  142.0400   73.1030  220.5060 O   0  0  0  0  0  0  0  0  0  0  0  0
  144.3180   73.5440  219.9700 C   0  0  1  0  0  0  0  0  0  0  0  0
  145.6450   73.5400  220.6890 C   0  0  0  0  0  0  0  0  0  0  0  0
  146.7210   73.4400  219.8250 O   0  0  0  0  0  0  0  0  0  0  0  0
  142.4910   76.9610  218.7710 C   0  0  0  0  0  0  0  0  0  0  0  0
  142.1330   76.8610  220.0920 C   0  0  0  0  0  0  0  0  0  0  0  0
  141.7810   77.9520  220.8600 C   0  0  0  0  0  0  0  0  0  0  0  0
  141.7980   79.1820  220.2480 C   0  0  0  0  0  0  0  0  0  0  0  0
  141.4510   80.2930  220.9850 C   0  0  0  0  0  0  0  0  0  0  0  0
  141.4680   81.5100  220.3740 C   0  0  0  0  0  0  0  0  0  0  0  0
  141.0350   82.9440  221.2790 Cl  0  0  0  0  0  0  0  0  0  0  0  0
  141.8240   81.6610  219.0370 C   0  0  0  0  0  0  0  0  0  0  0  0
  142.1640   80.5130  218.3420 C   0  0  0  0  0  0  0  0  0  0  0  0
  142.1620   79.2710  218.9080 C   0  0  0  0  0  0  0  0  0  0  0  0
  142.4990   78.1700  218.1990 N   0  0  0  0  0  0  0  0  0  0  0  0
  144.7460   76.3710  217.3540 H   0  0  0  0  0  0  0  0  0  0  0  0
  143.3670   73.8980  216.3979 H   0  0  0  0  0  0  0  0  0  0  0  0
  144.9743   74.5490  215.8395 H   0  0  0  0  0  0  0  0  0  0  0  0
  142.6488   71.6456  218.3962 H   0  0  0  0  0  0  0  0  0  0  0  0
  144.1389   70.7542  218.2282 H   0  0  0  0  0  0  0  0  0  0  0  0
  142.8656   70.6179  220.5692 H   0  0  0  0  0  0  0  0  0  0  0  0
  144.5828   70.8974  220.6783 H   0  0  0  0  0  0  0  0  0  0  0  0
  143.4540   72.8296  221.9093 H   0  0  0  0  0  0  0  0  0  0  0  0
  142.0150   73.6170  219.6550 H   0  0  0  0  0  0  0  0  0  0  0  0
  144.0268   74.5921  219.8065 H   0  0  0  0  0  0  0  0  0  0  0  0
  145.7384   74.4754  221.2603 H   0  0  0  0  0  0  0  0  0  0  0  0
  145.6638   72.6580  221.3460 H   0  0  0  0  0  0  0  0  0  0  0  0
  146.5880   74.1020  219.1000 H   0  0  0  0  0  0  0  0  0  0  0  0
  142.1263   75.8656  220.5601 H   0  0  0  0  0  0  0  0  0  0  0  0
  141.4988   77.8417  221.9174 H   0  0  0  0  0  0  0  0  0  0  0  0
  141.1665   80.1992  222.0434 H   0  0  0  0  0  0  0  0  0  0  0  0
  141.8347   82.6491  218.5538 H   0  0  0  0  0  0  0  0  0  0  0  0
  142.4492   80.6062  217.2837 H   0  0  0  0  0  0  0  0  0  0  0  0
  1  2  2  0
  2  3  1  0
  3  4  1  0
  4  5  1  0
  5  6  2  0
  5  7  1  0
  7  8  1  0
  8  9  1  0
  9 10  1  0
 10 11  1  0
 10 12  1  0
 12 13  1  0
 13 14  1  0
  2 15  1  0
 15 16  2  0
 16 17  1  0
 17 18  2  0
 18 19  1  0
 19 20  2  0
 20 21  1  0
 20 22  1  0
 22 23  2  0
 23 24  1  0
 24 25  2  0
 12  7  1  0
 25 15  1  0
 24 18  1  0
  3 26  1  0
  4 27  1  0
  4 28  1  0
  8 29  1  0
  8 30  1  0
  9 31  1  0
  9 32  1  0
 10 33  1  1
 11 34  1  0
 12 35  1  6
 13 36  1  0
 13 37  1  0
 14 38  1  0
 16 39  1  0
 17 40  1  0
 19 41  1  0
 22 42  1  0
 23 43  1  0
M  END
>  <smiles>  (4) 
O=C(NCC(=O)N1CC[C@H](O)[C@H]1CO)c1ccc2cc(Cl)ccc2n1

>  <score_type>  (4) 
oracle

>  <origin>  (4) 
autodockgpu

>  <m_score__min__energy>  (4) 
-7.2300000000000004

>  <m_primary>  (4) 
energy

>  <rmsd>  (4) 
9.003409508973919

>  <m_score__min__rmsd>  (4) 
9.003409508973919

>  <meeko>  (4) 
{"free_energy": -5.37, "intermolecular_energy": -7.46, "internal_energy": -2.66, "cluster_size": 2, "cluster_id": 8, "rank_in_cluster": 1}

>  <energy>  (4) 
-6.8

>  <cluster_rmsd>  (4) 
0.76

>  <cluster>  (4) 
1

$$$$

     RDKit          3D

 43 45  0  0  0  0  0  0  0  0999 V2000
  140.0260   74.0340  222.0170 O   0  0  0  0  0  0  0  0  0  0  0  0
  140.4080   72.8220  221.9250 C   0  0  0  0  0  0  0  0  0  0  0  0
  140.8830   72.4230  220.6450 N   0  0  0  0  0  0  0  0  0  0  0  0
  140.8920   73.3890  219.5930 C   0  0  0  0  0  0  0  0  0  0  0  0
  142.1390   73.3600  218.7970 C   0  0  0  0  0  0  0  0  0  0  0  0
  142.0260   73.4360  217.5470 O   0  0  0  0  0  0  0  0  0  0  0  0
  143.3820   73.2470  219.4730 N   0  0  0  0  0  0  0  0  0  0  0  0
  143.9960   74.2270  220.3590 C   0  0  0  0  0  0  0  0  0  0  0  0
  144.9640   73.3810  221.1400 C   0  0  0  0  0  0  0  0  0  0  0  0
  145.5260   72.4710  220.0590 C   0  0  2  0  0  0  0  0  0  0  0  0
  146.3290   73.1970  219.1700 O   0  0  0  0  0  0  0  0  0  0  0  0
  144.2360   72.0780  219.3500 C   0  0  1  0  0  0  0  0  0  0  0  0
  143.6790   70.8820  220.0860 C   0  0  0  0  0  0  0  0  0  0  0  0
  142.4740   70.4470  219.5630 O   0  0  0  0  0  0  0  0  0  0  0  0
  140.3590   71.9080  223.0650 C   0  0  0  0  0  0  0  0  0  0  0  0
  139.8510   70.6500  222.8550 C   0  0  0  0  0  0  0  0  0  0  0  0
  139.7550   69.7020  223.8540 C   0  0  0  0  0  0  0  0  0  0  0  0
  140.1950   70.0620  225.1040 C   0  0  0  0  0  0  0  0  0  0  0  0
  140.1140   69.1410  226.1250 C   0  0  0  0  0  0  0  0  0  0  0  0
  140.5510   69.5020  227.3630 C   0  0  0  0  0  0  0  0  0  0  0  0
  140.4650   68.3570  228.6850 Cl  0  0  0  0  0  0  0  0  0  0  0  0
  141.0740   70.7650  227.6240 C   0  0  0  0  0  0  0  0  0  0  0  0
  141.1330   71.6530  226.5630 C   0  0  0  0  0  0  0  0  0  0  0  0
  140.7080   71.3400  225.3040 C   0  0  0  0  0  0  0  0  0  0  0  0
  140.7800   72.2330  224.2910 N   0  0  0  0  0  0  0  0  0  0  0  0
  141.2070   71.4430  220.5140 H   0  0  0  0  0  0  0  0  0  0  0  0
  140.0431   73.1869  218.9233 H   0  0  0  0  0  0  0  0  0  0  0  0
  140.8189   74.3837  220.0569 H   0  0  0  0  0  0  0  0  0  0  0  0
  144.5188   75.0089  219.7887 H   0  0  0  0  0  0  0  0  0  0  0  0
  143.2745   74.7695  220.9876 H   0  0  0  0  0  0  0  0  0  0  0  0
  145.7540   73.9950  221.5970 H   0  0  0  0  0  0  0  0  0  0  0  0
  144.5050   72.8415  221.9816 H   0  0  0  0  0  0  0  0  0  0  0  0
  146.1458   71.6433  220.4341 H   0  0  0  0  0  0  0  0  0  0  0  0
  145.9390   74.0960  218.9960 H   0  0  0  0  0  0  0  0  0  0  0  0
  144.3480   71.8015  218.2912 H   0  0  0  0  0  0  0  0  0  0  0  0
  144.4071   70.0598  220.0234 H   0  0  0  0  0  0  0  0  0  0  0  0
  143.4985   71.1871  221.1273 H   0  0  0  0  0  0  0  0  0  0  0  0
  142.5210   69.4600  219.4790 H   0  0  0  0  0  0  0  0  0  0  0  0
  139.5048   70.3854  221.8450 H   0  0  0  0  0  0  0  0  0  0  0  0
  139.3436   68.7010  223.6571 H   0  0  0  0  0  0  0  0  0  0  0  0
  139.7052   68.1359  225.9442 H   0  0  0  0  0  0  0  0  0  0  0  0
  141.4248   71.0454  228.6281 H   0  0  0  0  0  0  0  0  0  0  0  0
  141.5417   72.6582  226.7432 H   0  0  0  0  0  0  0  0  0  0  0  0
  1  2  2  0
  2  3  1  0
  3  4  1  0
  4  5  1  0
  5  6  2  0
  5  7  1  0
  7  8  1  0
  8  9  1  0
  9 10  1  0
 10 11  1  0
 10 12  1  0
 12 13  1  0
 13 14  1  0
  2 15  1  0
 15 16  2  0
 16 17  1  0
 17 18  2  0
 18 19  1  0
 19 20  2  0
 20 21  1  0
 20 22  1  0
 22 23  2  0
 23 24  1  0
 24 25  2  0
 12  7  1  0
 25 15  1  0
 24 18  1  0
  3 26  1  0
  4 27  1  0
  4 28  1  0
  8 29  1  0
  8 30  1  0
  9 31  1  0
  9 32  1  0
 10 33  1  1
 11 34  1  0
 12 35  1  6
 13 36  1  0
 13 37  1  0
 14 38  1  0
 16 39  1  0
 17 40  1  0
 19 41  1  0
 22 42  1  0
 23 43  1  0
M  END
>  <smiles>  (5) 
O=C(NCC(=O)N1CC[C@H](O)[C@H]1CO)c1ccc2cc(Cl)ccc2n1

>  <score_type>  (5) 
oracle

>  <origin>  (5) 
autodockgpu

>  <m_score__min__energy>  (5) 
-7.2300000000000004

>  <m_primary>  (5) 
energy

>  <rmsd>  (5) 
4.223537049706085

>  <m_score__min__rmsd>  (5) 
4.223537049706085

>  <meeko>  (5) 
{"free_energy": -6.71, "intermolecular_energy": -8.8, "internal_energy": -1.85, "cluster_size": 23, "cluster_id": 1, "rank_in_cluster": 7}

>  <energy>  (5) 
-6.75

>  <cluster_rmsd>  (5) 
0.28

>  <cluster>  (5) 
1

$$$$

     RDKit          3D

 43 45  0  0  0  0  0  0  0  0999 V2000
  140.4340   74.0450  221.9880 O   0  0  0  0  0  0  0  0  0  0  0  0
  140.3860   72.7780  221.8740 C   0  0  0  0  0  0  0  0  0  0  0  0
  140.4460   72.2780  220.5430 N   0  0  0  0  0  0  0  0  0  0  0  0
  140.5520   73.2150  219.4700 C   0  0  0  0  0  0  0  0  0  0  0  0
  141.7420   72.9840  218.6220 C   0  0  0  0  0  0  0  0  0  0  0  0
  141.5410   72.5720  217.4500 O   0  0  0  0  0  0  0  0  0  0  0  0
  143.0300   73.2330  219.1620 N   0  0  0  0  0  0  0  0  0  0  0  0
  143.5770   74.5140  219.5850 C   0  0  0  0  0  0  0  0  0  0  0  0
  144.6890   74.0940  220.5070 C   0  0  0  0  0  0  0  0  0  0  0  0
  145.2860   72.9140  219.7570 C   0  0  2  0  0  0  0  0  0  0  0  0
  145.9360   73.3440  218.5940 O   0  0  0  0  0  0  0  0  0  0  0  0
  144.0090   72.1780  219.3660 C   0  0  1  0  0  0  0  0  0  0  0  0
  143.6500   71.2780  220.5240 C   0  0  0  0  0  0  0  0  0  0  0  0
  142.4730   70.5820  220.3150 O   0  0  0  0  0  0  0  0  0  0  0  0
  140.2770   71.9010  223.0380 C   0  0  0  0  0  0  0  0  0  0  0  0
  139.6980   70.6690  222.8590 C   0  0  0  0  0  0  0  0  0  0  0  0
  139.5410   69.7570  223.8830 C   0  0  0  0  0  0  0  0  0  0  0  0
  139.9940   70.1250  225.1260 C   0  0  0  0  0  0  0  0  0  0  0  0
  139.8530   69.2390  226.1720 C   0  0  0  0  0  0  0  0  0  0  0  0
  140.3030   69.6090  227.4030 C   0  0  0  0  0  0  0  0  0  0  0  0
  140.1420   68.5090  228.7550 Cl  0  0  0  0  0  0  0  0  0  0  0  0
  140.8970   70.8470  227.6320 C   0  0  0  0  0  0  0  0  0  0  0  0
  141.0150   71.6990  226.5480 C   0  0  0  0  0  0  0  0  0  0  0  0
  140.5790   71.3760  225.2950 C   0  0  0  0  0  0  0  0  0  0  0  0
  140.7090   72.2340  224.2580 N   0  0  0  0  0  0  0  0  0  0  0  0
  140.4110   71.2490  220.3920 H   0  0  0  0  0  0  0  0  0  0  0  0
  139.6522   73.1338  218.8424 H   0  0  0  0  0  0  0  0  0  0  0  0
  140.6513   74.2166  219.9138 H   0  0  0  0  0  0  0  0  0  0  0  0
  143.9633   75.0855  218.7282 H   0  0  0  0  0  0  0  0  0  0  0  0
  142.8369   75.1764  220.0578 H   0  0  0  0  0  0  0  0  0  0  0  0
  145.4263   74.8997  220.6382 H   0  0  0  0  0  0  0  0  0  0  0  0
  144.3546   73.8508  221.5263 H   0  0  0  0  0  0  0  0  0  0  0  0
  146.0249   72.3345  220.3299 H   0  0  0  0  0  0  0  0  0  0  0  0
  145.6380   74.2600  218.3420 H   0  0  0  0  0  0  0  0  0  0  0  0
  144.0844   71.5526  218.4642 H   0  0  0  0  0  0  0  0  0  0  0  0
  144.4649   70.5543  220.6729 H   0  0  0  0  0  0  0  0  0  0  0  0
  143.5057   71.9163  221.4082 H   0  0  0  0  0  0  0  0  0  0  0  0
  142.1340   70.8270  219.4160 H   0  0  0  0  0  0  0  0  0  0  0  0
  139.3432   70.3965  221.8541 H   0  0  0  0  0  0  0  0  0  0  0  0
  139.0727   68.7767  223.7107 H   0  0  0  0  0  0  0  0  0  0  0  0
  139.3873   68.2547  226.0161 H   0  0  0  0  0  0  0  0  0  0  0  0
  141.2568   71.1353  228.6307 H   0  0  0  0  0  0  0  0  0  0  0  0
  141.4820   72.6828  226.7030 H   0  0  0  0  0  0  0  0  0  0  0  0
  1  2  2  0
  2  3  1  0
  3  4  1  0
  4  5  1  0
  5  6  2  0
  5  7  1  0
  7  8  1  0
  8  9  1  0
  9 10  1  0
 10 11  1  0
 10 12  1  0
 12 13  1  0
 13 14  1  0
  2 15  1  0
 15 16  2  0
 16 17  1  0
 17 18  2  0
 18 19  1  0
 19 20  2  0
 20 21  1  0
 20 22  1  0
 22 23  2  0
 23 24  1  0
 24 25  2  0
 12  7  1  0
 25 15  1  0
 24 18  1  0
  3 26  1  0
  4 27  1  0
  4 28  1  0
  8 29  1  0
  8 30  1  0
  9 31  1  0
  9 32  1  0
 10 33  1  1
 11 34  1  0
 12 35  1  6
 13 36  1  0
 13 37  1  0
 14 38  1  0
 16 39  1  0
 17 40  1  0
 19 41  1  0
 22 42  1  0
 23 43  1  0
M  END
>  <smiles>  (6) 
O=C(NCC(=O)N1CC[C@H](O)[C@H]1CO)c1ccc2cc(Cl)ccc2n1

>  <score_type>  (6) 
oracle

>  <origin>  (6) 
autodockgpu

>  <m_score__min__energy>  (6) 
-7.2300000000000004

>  <m_primary>  (6) 
energy

>  <rmsd>  (6) 
3.9377939124985213

>  <m_score__min__rmsd>  (6) 
3.9377939124985213

>  <meeko>  (6) 
{"free_energy": -6.62, "intermolecular_energy": -8.71, "internal_energy": -2.0, "cluster_size": 23, "cluster_id": 1, "rank_in_cluster": 9}

>  <energy>  (6) 
-6.74

>  <cluster_rmsd>  (6) 
0.95

>  <cluster>  (6) 
1

$$$$

     RDKit          3D

 43 45  0  0  0  0  0  0  0  0999 V2000
  139.1300   74.0000  220.6070 O   0  0  0  0  0  0  0  0  0  0  0  0
  140.0570   73.6100  221.3880 C   0  0  0  0  0  0  0  0  0  0  0  0
  141.3030   74.2840  221.2480 N   0  0  0  0  0  0  0  0  0  0  0  0
  141.4090   75.3170  220.2670 C   0  0  0  0  0  0  0  0  0  0  0  0
  142.4510   75.0410  219.2540 C   0  0  0  0  0  0  0  0  0  0  0  0
  142.2710   75.5100  218.1010 O   0  0  0  0  0  0  0  0  0  0  0  0
  143.5840   74.2700  219.6250 N   0  0  0  0  0  0  0  0  0  0  0  0
  144.6910   74.6850  220.4740 C   0  0  0  0  0  0  0  0  0  0  0  0
  145.2620   73.3640  220.9150 C   0  0  0  0  0  0  0  0  0  0  0  0
  145.1920   72.5510  219.6320 C   0  0  2  0  0  0  0  0  0  0  0  0
  146.1080   73.0340  218.6890 O   0  0  0  0  0  0  0  0  0  0  0  0
  143.7810   72.9030  219.1740 C   0  0  1  0  0  0  0  0  0  0  0  0
  142.8450   71.9340  219.8560 C   0  0  0  0  0  0  0  0  0  0  0  0
  142.8330   72.0790  221.2310 O   0  0  0  0  0  0  0  0  0  0  0  0
  139.8480   72.5410  222.3630 C   0  0  0  0  0  0  0  0  0  0  0  0
  138.7010   71.7940  222.2570 C   0  0  0  0  0  0  0  0  0  0  0  0
  138.3960   70.7600  223.1180 C   0  0  0  0  0  0  0  0  0  0  0  0
  139.2990   70.4880  224.1160 C   0  0  0  0  0  0  0  0  0  0  0  0
  139.0260   69.4620  224.9950 C   0  0  0  0  0  0  0  0  0  0  0  0
  139.9250   69.1960  225.9830 C   0  0  0  0  0  0  0  0  0  0  0  0
  139.6130   67.8990  227.1170 Cl  0  0  0  0  0  0  0  0  0  0  0  0
  141.1010   69.9250  226.1290 C   0  0  0  0  0  0  0  0  0  0  0  0
  141.3270   70.9450  225.2200 C   0  0  0  0  0  0  0  0  0  0  0  0
  140.4580   71.2510  224.2130 C   0  0  0  0  0  0  0  0  0  0  0  0
  140.7100   72.2550  223.3430 N   0  0  0  0  0  0  0  0  0  0  0  0
  142.0950   74.0050  221.8630 H   0  0  0  0  0  0  0  0  0  0  0  0
  140.4400   75.4172  219.7561 H   0  0  0  0  0  0  0  0  0  0  0  0
  141.6924   76.2424  220.7899 H   0  0  0  0  0  0  0  0  0  0  0  0
  145.4304   75.2708  219.9082 H   0  0  0  0  0  0  0  0  0  0  0  0
  144.3898   75.3373  221.3069 H   0  0  0  0  0  0  0  0  0  0  0  0
  146.2994   73.4726  221.2642 H   0  0  0  0  0  0  0  0  0  0  0  0
  144.7273   72.9078  221.7612 H   0  0  0  0  0  0  0  0  0  0  0  0
  145.4094   71.4800  219.7573 H   0  0  0  0  0  0  0  0  0  0  0  0
  146.0210   74.0200  218.5860 H   0  0  0  0  0  0  0  0  0  0  0  0
  143.6076   72.8333  218.0900 H   0  0  0  0  0  0  0  0  0  0  0  0
  141.8266   72.1024  219.4759 H   0  0  0  0  0  0  0  0  0  0  0  0
  143.2006   70.9172  219.6331 H   0  0  0  0  0  0  0  0  0  0  0  0
  141.9140   71.8850  221.5470 H   0  0  0  0  0  0  0  0  0  0  0  0
  137.9931   72.0306  221.4490 H   0  0  0  0  0  0  0  0  0  0  0  0
  137.4688   70.1782  223.0096 H   0  0  0  0  0  0  0  0  0  0  0  0
  138.1029   68.8713  224.9007 H   0  0  0  0  0  0  0  0  0  0  0  0
  141.8196   69.7010  226.9311 H   0  0  0  0  0  0  0  0  0  0  0  0
  142.2499   71.5361  225.3139 H   0  0  0  0  0  0  0  0  0  0  0  0
  1  2  2  0
  2  3  1  0
  3  4  1  0
  4  5  1  0
  5  6  2  0
  5  7  1  0
  7  8  1  0
  8  9  1  0
  9 10  1  0
 10 11  1  0
 10 12  1  0
 12 13  1  0
 13 14  1  0
  2 15  1  0
 15 16  2  0
 16 17  1  0
 17 18  2  0
 18 19  1  0
 19 20  2  0
 20 21  1  0
 20 22  1  0
 22 23  2  0
 23 24  1  0
 24 25  2  0
 12  7  1  0
 25 15  1  0
 24 18  1  0
  3 26  1  0
  4 27  1  0
  4 28  1  0
  8 29  1  0
  8 30  1  0
  9 31  1  0
  9 32  1  0
 10 33  1  1
 11 34  1  0
 12 35  1  6
 13 36  1  0
 13 37  1  0
 14 38  1  0
 16 39  1  0
 17 40  1  0
 19 41  1  0
 22 42  1  0
 23 43  1  0
M  END
>  <smiles>  (7) 
O=C(NCC(=O)N1CC[C@H](O)[C@H]1CO)c1ccc2cc(Cl)ccc2n1

>  <score_type>  (7) 
oracle

>  <origin>  (7) 
autodockgpu

>  <m_score__min__energy>  (7) 
-7.2300000000000004

>  <m_primary>  (7) 
energy

>  <rmsd>  (7) 
4.262182224193006

>  <m_score__min__rmsd>  (7) 
4.262182224193006

>  <meeko>  (7) 
{"free_energy": -5.99, "intermolecular_energy": -8.07, "internal_energy": -2.6, "cluster_size": 23, "cluster_id": 1, "rank_in_cluster": 20}

>  <energy>  (7) 
-6.71

>  <cluster_rmsd>  (7) 
0.97

>  <cluster>  (7) 
1

$$$$

     RDKit          3D

 43 45  0  0  0  0  0  0  0  0999 V2000
  139.8230   72.3480  220.2410 O   0  0  0  0  0  0  0  0  0  0  0  0
  140.3670   72.6880  221.3410 C   0  0  0  0  0  0  0  0  0  0  0  0
  141.1040   73.9050  221.3120 N   0  0  0  0  0  0  0  0  0  0  0  0
  141.1710   74.6280  220.0820 C   0  0  0  0  0  0  0  0  0  0  0  0
  142.1570   74.0620  219.1360 C   0  0  0  0  0  0  0  0  0  0  0  0
  141.8050   73.9550  217.9330 O   0  0  0  0  0  0  0  0  0  0  0  0
  143.4310   73.6700  219.6230 N   0  0  0  0  0  0  0  0  0  0  0  0
  144.3340   74.4500  220.4570 C   0  0  0  0  0  0  0  0  0  0  0  0
  145.2110   73.3840  221.0550 C   0  0  0  0  0  0  0  0  0  0  0  0
  145.4390   72.4640  219.8660 C   0  0  2  0  0  0  0  0  0  0  0  0
  146.2460   73.0870  218.9060 O   0  0  0  0  0  0  0  0  0  0  0  0
  144.0150   72.3720  219.3290 C   0  0  1  0  0  0  0  0  0  0  0  0
  143.3350   71.2530  220.0820 C   0  0  0  0  0  0  0  0  0  0  0  0
  142.0580   70.9960  219.6180 O   0  0  0  0  0  0  0  0  0  0  0  0
  140.2390   71.8760  222.5500 C   0  0  0  0  0  0  0  0  0  0  0  0
  139.6100   70.6610  222.4410 C   0  0  0  0  0  0  0  0  0  0  0  0
  139.4310   69.8090  223.5130 C   0  0  0  0  0  0  0  0  0  0  0  0
  139.9150   70.2230  224.7300 C   0  0  0  0  0  0  0  0  0  0  0  0
  139.7530   69.3970  225.8210 C   0  0  0  0  0  0  0  0  0  0  0  0
  140.2340   69.8110  227.0260 C   0  0  0  0  0  0  0  0  0  0  0  0
  140.0480   68.7890  228.4350 Cl  0  0  0  0  0  0  0  0  0  0  0  0
  140.8800   71.0340  227.1850 C   0  0  0  0  0  0  0  0  0  0  0  0
  141.0160   71.8250  226.0560 C   0  0  0  0  0  0  0  0  0  0  0  0
  140.5510   71.4560  224.8270 C   0  0  0  0  0  0  0  0  0  0  0  0
  140.7010   72.2540  223.7460 N   0  0  0  0  0  0  0  0  0  0  0  0
  141.5690   74.2300  222.1840 H   0  0  0  0  0  0  0  0  0  0  0  0
  140.1784   74.6081  219.6084 H   0  0  0  0  0  0  0  0  0  0  0  0
  141.4906   75.6537  220.3184 H   0  0  0  0  0  0  0  0  0  0  0  0
  144.9214   75.1589  219.8549 H   0  0  0  0  0  0  0  0  0  0  0  0
  143.8198   75.0711  221.2052 H   0  0  0  0  0  0  0  0  0  0  0  0
  146.1583   73.8049  221.4230 H   0  0  0  0  0  0  0  0  0  0  0  0
  144.7686   72.8817  221.9279 H   0  0  0  0  0  0  0  0  0  0  0  0
  145.9283   71.5102  220.1126 H   0  0  0  0  0  0  0  0  0  0  0  0
  146.0830   74.0690  218.8910 H   0  0  0  0  0  0  0  0  0  0  0  0
  143.9313   72.1549  218.2539 H   0  0  0  0  0  0  0  0  0  0  0  0
  143.9386   70.3396  219.9754 H   0  0  0  0  0  0  0  0  0  0  0  0
  143.2499   71.5641  221.1336 H   0  0  0  0  0  0  0  0  0  0  0  0
  141.6900   71.8440  219.2600 H   0  0  0  0  0  0  0  0  0  0  0  0
  139.2315   70.3520  221.4555 H   0  0  0  0  0  0  0  0  0  0  0  0
  138.9227   68.8404  223.3972 H   0  0  0  0  0  0  0  0  0  0  0  0
  139.2468   68.4255  225.7209 H   0  0  0  0  0  0  0  0  0  0  0  0
  141.2651   71.3576  228.1632 H   0  0  0  0  0  0  0  0  0  0  0  0
  141.5227   72.7964  226.1546 H   0  0  0  0  0  0  0  0  0  0  0  0
  1  2  2  0
  2  3  1  0
  3  4  1  0
  4  5  1  0
  5  6  2  0
  5  7  1  0
  7  8  1  0
  8  9  1  0
  9 10  1  0
 10 11  1  0
 10 12  1  0
 12 13  1  0
 13 14  1  0
  2 15  1  0
 15 16  2  0
 16 17  1  0
 17 18  2  0
 18 19  1  0
 19 20  2  0
 20 21  1  0
 20 22  1  0
 22 23  2  0
 23 24  1  0
 24 25  2  0
 12  7  1  0
 25 15  1  0
 24 18  1  0
  3 26  1  0
  4 27  1  0
  4 28  1  0
  8 29  1  0
  8 30  1  0
  9 31  1  0
  9 32  1  0
 10 33  1  1
 11 34  1  0
 12 35  1  6
 13 36  1  0
 13 37  1  0
 14 38  1  0
 16 39  1  0
 17 40  1  0
 19 41  1  0
 22 42  1  0
 23 43  1  0
M  END
>  <smiles>  (8) 
O=C(NCC(=O)N1CC[C@H](O)[C@H]1CO)c1ccc2cc(Cl)ccc2n1

>  <score_type>  (8) 
oracle

>  <origin>  (8) 
autodockgpu

>  <m_score__min__energy>  (8) 
-7.2300000000000004

>  <m_primary>  (8) 
energy

>  <rmsd>  (8) 
4.165826400064161

>  <m_score__min__rmsd>  (8) 
4.165826400064161

>  <meeko>  (8) 
{"free_energy": -6.38, "intermolecular_energy": -8.47, "internal_energy": -2.42, "cluster_size": 23, "cluster_id": 1, "rank_in_cluster": 11}

>  <energy>  (8) 
-6.64

>  <cluster_rmsd>  (8) 
0.89

>  <cluster>  (8) 
1

$$$$

     RDKit          3D

 43 45  0  0  0  0  0  0  0  0999 V2000
  141.2940   71.2970  221.6830 O   0  0  0  0  0  0  0  0  0  0  0  0
  140.9210   72.4180  222.1570 C   0  0  0  0  0  0  0  0  0  0  0  0
  140.2660   72.3650  223.4190 N   0  0  0  0  0  0  0  0  0  0  0  0
  140.0840   71.0900  224.0360 C   0  0  0  0  0  0  0  0  0  0  0  0
  140.4740   71.0820  225.4630 C   0  0  0  0  0  0  0  0  0  0  0  0
  140.7820   72.1860  225.9810 O   0  0  0  0  0  0  0  0  0  0  0  0
  140.4840   69.8500  226.1660 N   0  0  0  0  0  0  0  0  0  0  0  0
  141.4670   68.7810  226.0580 C   0  0  0  0  0  0  0  0  0  0  0  0
  141.2620   68.0330  227.3470 C   0  0  0  0  0  0  0  0  0  0  0  0
  139.7460   68.0340  227.4700 C   0  0  2  0  0  0  0  0  0  0  0  0
  139.1700   67.2140  226.4910 O   0  0  0  0  0  0  0  0  0  0  0  0
  139.4550   69.4900  227.1280 C   0  0  1  0  0  0  0  0  0  0  0  0
  139.5730   70.2740  228.4130 C   0  0  0  0  0  0  0  0  0  0  0  0
  140.6210   71.1760  228.3950 O   0  0  0  0  0  0  0  0  0  0  0  0
  141.1550   73.6740  221.4450 C   0  0  0  0  0  0  0  0  0  0  0  0
  141.7280   73.6070  220.1990 C   0  0  0  0  0  0  0  0  0  0  0  0
  141.9950   74.7240  219.4340 C   0  0  0  0  0  0  0  0  0  0  0  0
  141.6620   75.9440  219.9690 C   0  0  0  0  0  0  0  0  0  0  0  0
  141.9160   77.0810  219.2320 C   0  0  0  0  0  0  0  0  0  0  0  0
  141.5840   78.2890  219.7660 C   0  0  0  0  0  0  0  0  0  0  0  0
  141.8900   79.7550  218.8590 Cl  0  0  0  0  0  0  0  0  0  0  0  0
  141.0010   78.4070  221.0240 C   0  0  0  0  0  0  0  0  0  0  0  0
  140.7680   77.2340  221.7220 C   0  0  0  0  0  0  0  0  0  0  0  0
  141.0820   75.9990  221.2320 C   0  0  0  0  0  0  0  0  0  0  0  0
  140.8400   74.8740  221.9420 N   0  0  0  0  0  0  0  0  0  0  0  0
  139.9400   73.2540  223.8510 H   0  0  0  0  0  0  0  0  0  0  0  0
  139.0226   70.8114  223.9603 H   0  0  0  0  0  0  0  0  0  0  0  0
  140.7328   70.3730  223.5116 H   0  0  0  0  0  0  0  0  0  0  0  0
  141.2651   68.1394  225.1876 H   0  0  0  0  0  0  0  0  0  0  0  0
  142.4968   69.1396  225.9133 H   0  0  0  0  0  0  0  0  0  0  0  0
  141.6579   67.0087  227.2829 H   0  0  0  0  0  0  0  0  0  0  0  0
  141.7790   68.4805  228.2086 H   0  0  0  0  0  0  0  0  0  0  0  0
  139.3654   67.6775  228.4385 H   0  0  0  0  0  0  0  0  0  0  0  0
  139.1810   66.2610  226.7790 H   0  0  0  0  0  0  0  0  0  0  0  0
  138.4578   69.6827  226.7056 H   0  0  0  0  0  0  0  0  0  0  0  0
  138.6359   70.8269  228.5749 H   0  0  0  0  0  0  0  0  0  0  0  0
  139.7675   69.5557  229.2231 H   0  0  0  0  0  0  0  0  0  0  0  0
  140.4000   71.8820  227.7350 H   0  0  0  0  0  0  0  0  0  0  0  0
  141.9859   72.6181  219.7922 H   0  0  0  0  0  0  0  0  0  0  0  0
  142.4549   74.6406  218.4382 H   0  0  0  0  0  0  0  0  0  0  0  0
  142.3764   77.0140  218.2352 H   0  0  0  0  0  0  0  0  0  0  0  0
  140.7370   79.3883  221.4452 H   0  0  0  0  0  0  0  0  0  0  0  0
  140.3079   77.3004  222.7190 H   0  0  0  0  0  0  0  0  0  0  0  0
  1  2  2  0
  2  3  1  0
  3  4  1  0
  4  5  1  0
  5  6  2  0
  5  7  1  0
  7  8  1  0
  8  9  1  0
  9 10  1  0
 10 11  1  0
 10 12  1  0
 12 13  1  0
 13 14  1  0
  2 15  1  0
 15 16  2  0
 16 17  1  0
 17 18  2  0
 18 19  1  0
 19 20  2  0
 20 21  1  0
 20 22  1  0
 22 23  2  0
 23 24  1  0
 24 25  2  0
 12  7  1  0
 25 15  1  0
 24 18  1  0
  3 26  1  0
  4 27  1  0
  4 28  1  0
  8 29  1  0
  8 30  1  0
  9 31  1  0
  9 32  1  0
 10 33  1  1
 11 34  1  0
 12 35  1  6
 13 36  1  0
 13 37  1  0
 14 38  1  0
 16 39  1  0
 17 40  1  0
 19 41  1  0
 22 42  1  0
 23 43  1  0
M  END
>  <smiles>  (9) 
O=C(NCC(=O)N1CC[C@H](O)[C@H]1CO)c1ccc2cc(Cl)ccc2n1

>  <score_type>  (9) 
oracle

>  <origin>  (9) 
autodockgpu

>  <m_score__min__energy>  (9) 
-7.2300000000000004

>  <m_primary>  (9) 
energy

>  <rmsd>  (9) 
9.332460647895127

>  <m_score__min__rmsd>  (9) 
9.332460647895127

>  <meeko>  (9) 
{"free_energy": -6.3, "intermolecular_energy": -8.39, "internal_energy": -1.91, "cluster_size": 5, "cluster_id": 4, "rank_in_cluster": 3}

>  <energy>  (9) 
-6.62

>  <cluster_rmsd>  (9) 
0.98

>  <cluster>  (9) 
1

$$$$

     RDKit          3D

 43 45  0  0  0  0  0  0  0  0999 V2000
  140.7510   72.0600  220.1800 O   0  0  0  0  0  0  0  0  0  0  0  0
  140.9160   72.5720  221.3340 C   0  0  0  0  0  0  0  0  0  0  0  0
  141.4190   73.9030  221.3490 N   0  0  0  0  0  0  0  0  0  0  0  0
  141.6920   74.5400  220.1000 C   0  0  0  0  0  0  0  0  0  0  0  0
  143.0840   74.3360  219.6430 C   0  0  0  0  0  0  0  0  0  0  0  0
  143.8400   75.3410  219.6350 O   0  0  0  0  0  0  0  0  0  0  0  0
  143.4920   73.0370  219.2400 N   0  0  0  0  0  0  0  0  0  0  0  0
  143.1590   72.3550  217.9970 C   0  0  0  0  0  0  0  0  0  0  0  0
  144.2440   71.3170  217.9080 C   0  0  0  0  0  0  0  0  0  0  0  0
  144.3430   70.8460  219.3500 C   0  0  2  0  0  0  0  0  0  0  0  0
  143.1980   70.1280  219.7170 O   0  0  0  0  0  0  0  0  0  0  0  0
  144.3340   72.1910  220.0670 C   0  0  1  0  0  0  0  0  0  0  0  0
  145.7640   72.6730  220.1120 C   0  0  0  0  0  0  0  0  0  0  0  0
  146.1220   73.3890  218.9840 O   0  0  0  0  0  0  0  0  0  0  0  0
  140.6060   71.8360  222.5580 C   0  0  0  0  0  0  0  0  0  0  0  0
  139.8750   70.6790  222.4410 C   0  0  0  0  0  0  0  0  0  0  0  0
  139.5230   69.9010  223.5260 C   0  0  0  0  0  0  0  0  0  0  0  0
  139.9360   70.3270  224.7640 C   0  0  0  0  0  0  0  0  0  0  0  0
  139.6020   69.5750  225.8690 C   0  0  0  0  0  0  0  0  0  0  0  0
  140.0130   70.0010  227.0950 C   0  0  0  0  0  0  0  0  0  0  0  0
  139.6080   69.0700  228.5210 Cl  0  0  0  0  0  0  0  0  0  0  0  0
  140.7560   71.1660  227.2620 C   0  0  0  0  0  0  0  0  0  0  0  0
  141.0650   71.8850  226.1200 C   0  0  0  0  0  0  0  0  0  0  0  0
  140.6760   71.5010  224.8690 C   0  0  0  0  0  0  0  0  0  0  0  0
  140.9950   72.2280  223.7750 N   0  0  0  0  0  0  0  0  0  0  0  0
  141.5720   74.3700  222.2660 H   0  0  0  0  0  0  0  0  0  0  0  0
  141.0095   74.1308  219.3405 H   0  0  0  0  0  0  0  0  0  0  0  0
  141.5456   75.6210  220.2413 H   0  0  0  0  0  0  0  0  0  0  0  0
  142.1640   71.8892  218.0511 H   0  0  0  0  0  0  0  0  0  0  0  0
  143.1120   73.0227  217.1241 H   0  0  0  0  0  0  0  0  0  0  0  0
  143.9570   70.4942  217.2367 H   0  0  0  0  0  0  0  0  0  0  0  0
  145.1912   71.6968  217.4975 H   0  0  0  0  0  0  0  0  0  0  0  0
  145.2009   70.1899  219.5586 H   0  0  0  0  0  0  0  0  0  0  0  0
  142.4330   70.7440  219.8800 H   0  0  0  0  0  0  0  0  0  0  0  0
  143.9528   72.1712  221.0986 H   0  0  0  0  0  0  0  0  0  0  0  0
  145.8900   73.3189  220.9934 H   0  0  0  0  0  0  0  0  0  0  0  0
  146.4122   71.7856  220.1617 H   0  0  0  0  0  0  0  0  0  0  0  0
  145.5910   74.2250  218.9760 H   0  0  0  0  0  0  0  0  0  0  0  0
  139.5559   70.3580  221.4384 H   0  0  0  0  0  0  0  0  0  0  0  0
  138.9363   68.9786  223.4036 H   0  0  0  0  0  0  0  0  0  0  0  0
  139.0158   68.6502  225.7630 H   0  0  0  0  0  0  0  0  0  0  0  0
  141.0832   71.5007  228.2574 H   0  0  0  0  0  0  0  0  0  0  0  0
  141.6517   72.8094  226.2256 H   0  0  0  0  0  0  0  0  0  0  0  0
  1  2  2  0
  2  3  1  0
  3  4  1  0
  4  5  1  0
  5  6  2  0
  5  7  1  0
  7  8  1  0
  8  9  1  0
  9 10  1  0
 10 11  1  0
 10 12  1  0
 12 13  1  0
 13 14  1  0
  2 15  1  0
 15 16  2  0
 16 17  1  0
 17 18  2  0
 18 19  1  0
 19 20  2  0
 20 21  1  0
 20 22  1  0
 22 23  2  0
 23 24  1  0
 24 25  2  0
 12  7  1  0
 25 15  1  0
 24 18  1  0
  3 26  1  0
  4 27  1  0
  4 28  1  0
  8 29  1  0
  8 30  1  0
  9 31  1  0
  9 32  1  0
 10 33  1  6
 11 34  1  0
 12 35  1  1
 13 36  1  0
 13 37  1  0
 14 38  1  0
 16 39  1  0
 17 40  1  0
 19 41  1  0
 22 42  1  0
 23 43  1  0
M  END
>  <smiles>  (10) 
O=C(NCC(=O)N1CC[C@H](O)[C@H]1CO)c1ccc2cc(Cl)ccc2n1

>  <score_type>  (10) 
oracle

>  <origin>  (10) 
autodockgpu

>  <m_score__min__energy>  (10) 
-7.2300000000000004

>  <m_primary>  (10) 
energy

>  <rmsd>  (10) 
4.1214422847306995

>  <m_score__min__rmsd>  (10) 
4.1214422847306995

>  <meeko>  (10) 
{"free_energy": -5.35, "intermolecular_energy": -7.44, "internal_energy": -2.82, "cluster_size": 23, "cluster_id": 1, "rank_in_cluster": 23}

>  <energy>  (10) 
-6.51

>  <cluster_rmsd>  (10) 
0.86

>  <cluster>  (10) 
1

$$$$

     RDKit          3D

 43 45  0  0  0  0  0  0  0  0999 V2000
  140.0290   74.0590  221.9650 O   0  0  0  0  0  0  0  0  0  0  0  0
  140.3350   72.8260  221.8800 C   0  0  0  0  0  0  0  0  0  0  0  0
  140.7600   72.3850  220.5960 N   0  0  0  0  0  0  0  0  0  0  0  0
  140.8070   73.3370  219.5320 C   0  0  0  0  0  0  0  0  0  0  0  0
  141.9860   73.1630  218.6570 C   0  0  0  0  0  0  0  0  0  0  0  0
  141.7700   72.9340  217.4390 O   0  0  0  0  0  0  0  0  0  0  0  0
  143.2840   73.2580  219.2240 N   0  0  0  0  0  0  0  0  0  0  0  0
  143.9290   74.4520  219.7520 C   0  0  0  0  0  0  0  0  0  0  0  0
  144.9890   73.8680  220.6460 C   0  0  0  0  0  0  0  0  0  0  0  0
  145.4960   72.7050  219.8080 C   0  0  2  0  0  0  0  0  0  0  0  0
  146.1960   73.1700  218.6870 O   0  0  0  0  0  0  0  0  0  0  0  0
  144.1680   72.1130  219.3500 C   0  0  1  0  0  0  0  0  0  0  0  0
  143.7200   71.1570  220.4290 C   0  0  0  0  0  0  0  0  0  0  0  0
  142.6300   70.3940  220.0490 O   0  0  0  0  0  0  0  0  0  0  0  0
  140.2540   71.9280  223.0310 C   0  0  0  0  0  0  0  0  0  0  0  0
  139.6740   70.6980  222.8440 C   0  0  0  0  0  0  0  0  0  0  0  0
  139.5420   69.7680  223.8560 C   0  0  0  0  0  0  0  0  0  0  0  0
  140.0210   70.1170  225.0950 C   0  0  0  0  0  0  0  0  0  0  0  0
  139.9050   69.2130  226.1280 C   0  0  0  0  0  0  0  0  0  0  0  0
  140.3820   69.5630  227.3550 C   0  0  0  0  0  0  0  0  0  0  0  0
  140.2530   68.4400  228.6910 Cl  0  0  0  0  0  0  0  0  0  0  0  0
  140.9780   70.7980  227.5920 C   0  0  0  0  0  0  0  0  0  0  0  0
  141.0690   71.6700  226.5200 C   0  0  0  0  0  0  0  0  0  0  0  0
  140.6070   71.3670  225.2720 C   0  0  0  0  0  0  0  0  0  0  0  0
  140.7120   72.2430  224.2470 N   0  0  0  0  0  0  0  0  0  0  0  0
  141.0220   71.3850  220.4710 H   0  0  0  0  0  0  0  0  0  0  0  0
  139.8980   73.2274  218.9223 H   0  0  0  0  0  0  0  0  0  0  0  0
  140.8769   74.3366  219.9858 H   0  0  0  0  0  0  0  0  0  0  0  0
  144.3737   75.0550  218.9466 H   0  0  0  0  0  0  0  0  0  0  0  0
  143.2399   75.1351  220.2702 H   0  0  0  0  0  0  0  0  0  0  0  0
  145.7890   74.5957  220.8469 H   0  0  0  0  0  0  0  0  0  0  0  0
  144.6211   73.5739  221.6401 H   0  0  0  0  0  0  0  0  0  0  0  0
  146.1759   72.0217  220.3379 H   0  0  0  0  0  0  0  0  0  0  0  0
  145.9970   74.1310  218.5210 H   0  0  0  0  0  0  0  0  0  0  0  0
  144.2032   71.5575  218.4012 H   0  0  0  0  0  0  0  0  0  0  0  0
  144.5548   70.4823  220.6699 H   0  0  0  0  0  0  0  0  0  0  0  0
  143.4173   71.7575  221.2995 H   0  0  0  0  0  0  0  0  0  0  0  0
  142.3120   70.7380  219.1760 H   0  0  0  0  0  0  0  0  0  0  0  0
  139.2974   70.4417  221.8428 H   0  0  0  0  0  0  0  0  0  0  0  0
  139.0731   68.7891  223.6775 H   0  0  0  0  0  0  0  0  0  0  0  0
  139.4377   68.2305  225.9657 H   0  0  0  0  0  0  0  0  0  0  0  0
  141.3600   71.0696  228.5871 H   0  0  0  0  0  0  0  0  0  0  0  0
  141.5355   72.6529  226.6819 H   0  0  0  0  0  0  0  0  0  0  0  0
  1  2  2  0
  2  3  1  0
  3  4  1  0
  4  5  1  0
  5  6  2  0
  5  7  1  0
  7  8  1  0
  8  9  1  0
  9 10  1  0
 10 11  1  0
 10 12  1  0
 12 13  1  0
 13 14  1  0
  2 15  1  0
 15 16  2  0
 16 17  1  0
 17 18  2  0
 18 19  1  0
 19 20  2  0
 20 21  1  0
 20 22  1  0
 22 23  2  0
 23 24  1  0
 24 25  2  0
 12  7  1  0
 25 15  1  0
 24 18  1  0
  3 26  1  0
  4 27  1  0
  4 28  1  0
  8 29  1  0
  8 30  1  0
  9 31  1  0
  9 32  1  0
 10 33  1  1
 11 34  1  0
 12 35  1  6
 13 36  1  0
 13 37  1  0
 14 38  1  0
 16 39  1  0
 17 40  1  0
 19 41  1  0
 22 42  1  0
 23 43  1  0
M  END
>  <smiles>  (11) 
O=C(NCC(=O)N1CC[C@H](O)[C@H]1CO)c1ccc2cc(Cl)ccc2n1

>  <score_type>  (11) 
oracle

>  <origin>  (11) 
autodockgpu

>  <m_score__min__energy>  (11) 
-7.2300000000000004

>  <m_primary>  (11) 
energy

>  <rmsd>  (11) 
4.089616602572625

>  <m_score__min__rmsd>  (11) 
4.089616602572625

>  <meeko>  (11) 
{"free_energy": -6.92, "intermolecular_energy": -9.01, "internal_energy": -1.93, "cluster_size": 23, "cluster_id": 1, "rank_in_cluster": 3}

>  <energy>  (11) 
-6.38

>  <cluster_rmsd>  (11) 
1.11

>  <cluster>  (11) 
1

$$$$

     RDKit          3D

 43 45  0  0  0  0  0  0  0  0999 V2000
  140.5020   70.7530  221.3190 O   0  0  0  0  0  0  0  0  0  0  0  0
  140.1070   71.7260  222.0390 C   0  0  0  0  0  0  0  0  0  0  0  0
  139.2670   71.3790  223.1340 N   0  0  0  0  0  0  0  0  0  0  0  0
  138.9430   70.0020  223.3310 C   0  0  0  0  0  0  0  0  0  0  0  0
  138.4810   69.7120  224.7060 C   0  0  0  0  0  0  0  0  0  0  0  0
  137.2770   69.9620  224.9740 O   0  0  0  0  0  0  0  0  0  0  0  0
  139.4030   69.1760  225.6420 N   0  0  0  0  0  0  0  0  0  0  0  0
  139.9390   67.8230  225.6750 C   0  0  0  0  0  0  0  0  0  0  0  0
  141.1870   67.9970  226.4980 C   0  0  0  0  0  0  0  0  0  0  0  0
  140.7110   68.9470  227.5860 C   0  0  2  0  0  0  0  0  0  0  0  0
  139.8090   68.3040  228.4450 O   0  0  0  0  0  0  0  0  0  0  0  0
  139.9490   69.9580  226.7380 C   0  0  1  0  0  0  0  0  0  0  0  0
  140.9550   70.9810  226.2680 C   0  0  0  0  0  0  0  0  0  0  0  0
  140.4280   71.8620  225.3400 O   0  0  0  0  0  0  0  0  0  0  0  0
  140.4960   73.1060  221.7540 C   0  0  0  0  0  0  0  0  0  0  0  0
  141.5510   73.3110  220.8990 C   0  0  0  0  0  0  0  0  0  0  0  0
  142.0070   74.5670  220.5560 C   0  0  0  0  0  0  0  0  0  0  0  0
  141.3570   75.6430  221.1100 C   0  0  0  0  0  0  0  0  0  0  0  0
  141.7860   76.9120  220.7890 C   0  0  0  0  0  0  0  0  0  0  0  0
  141.1390   77.9760  221.3410 C   0  0  0  0  0  0  0  0  0  0  0  0
  141.6560   79.6040  220.9560 Cl  0  0  0  0  0  0  0  0  0  0  0  0
  140.0650   77.8190  222.2120 C   0  0  0  0  0  0  0  0  0  0  0  0
  139.6740   76.5220  222.5010 C   0  0  0  0  0  0  0  0  0  0  0  0
  140.2890   75.4230  221.9740 C   0  0  0  0  0  0  0  0  0  0  0  0
  139.8810   74.1710  222.2790 N   0  0  0  0  0  0  0  0  0  0  0  0
  138.9160   72.1370  223.7550 H   0  0  0  0  0  0  0  0  0  0  0  0
  138.1451   69.7246  222.6265 H   0  0  0  0  0  0  0  0  0  0  0  0
  139.8598   69.4187  223.1601 H   0  0  0  0  0  0  0  0  0  0  0  0
  139.2367   67.1272  226.1573 H   0  0  0  0  0  0  0  0  0  0  0  0
  140.1228   67.3958  224.6781 H   0  0  0  0  0  0  0  0  0  0  0  0
  141.5244   67.0395  226.9216 H   0  0  0  0  0  0  0  0  0  0  0  0
  142.0496   68.3701  225.9264 H   0  0  0  0  0  0  0  0  0  0  0  0
  141.5121   69.3520  228.2218 H   0  0  0  0  0  0  0  0  0  0  0  0
  139.7100   67.3450  228.1970 H   0  0  0  0  0  0  0  0  0  0  0  0
  139.1412   70.4936  227.2582 H   0  0  0  0  0  0  0  0  0  0  0  0
  141.3058   71.5550  227.1383 H   0  0  0  0  0  0  0  0  0  0  0  0
  141.7777   70.4377  225.7801 H   0  0  0  0  0  0  0  0  0  0  0  0
  139.4420   71.7750  225.3680 H   0  0  0  0  0  0  0  0  0  0  0  0
  142.0554   72.4336  220.4680 H   0  0  0  0  0  0  0  0  0  0  0  0
  142.8549   74.7012  219.8682 H   0  0  0  0  0  0  0  0  0  0  0  0
  142.6320   77.0627  220.1023 H   0  0  0  0  0  0  0  0  0  0  0  0
  139.5498   78.6860  222.6512 H   0  0  0  0  0  0  0  0  0  0  0  0
  138.8280   76.3704  223.1875 H   0  0  0  0  0  0  0  0  0  0  0  0
  1  2  2  0
  2  3  1  0
  3  4  1  0
  4  5  1  0
  5  6  2  0
  5  7  1  0
  7  8  1  0
  8  9  1  0
  9 10  1  0
 10 11  1  0
 10 12  1  0
 12 13  1  0
 13 14  1  0
  2 15  1  0
 15 16  2  0
 16 17  1  0
 17 18  2  0
 18 19  1  0
 19 20  2  0
 20 21  1  0
 20 22  1  0
 22 23  2  0
 23 24  1  0
 24 25  2  0
 12  7  1  0
 25 15  1  0
 24 18  1  0
  3 26  1  0
  4 27  1  0
  4 28  1  0
  8 29  1  0
  8 30  1  0
  9 31  1  0
  9 32  1  0
 10 33  1  1
 11 34  1  0
 12 35  1  1
 13 36  1  0
 13 37  1  0
 14 38  1  0
 16 39  1  0
 17 40  1  0
 19 41  1  0
 22 42  1  0
 23 43  1  0
M  END
>  <smiles>  (12) 
O=C(NCC(=O)N1CC[C@H](O)[C@H]1CO)c1ccc2cc(Cl)ccc2n1

>  <score_type>  (12) 
oracle

>  <origin>  (12) 
autodockgpu

>  <m_score__min__energy>  (12) 
-7.2300000000000004

>  <m_primary>  (12) 
energy

>  <rmsd>  (12) 
8.79282678095961

>  <m_score__min__rmsd>  (12) 
8.79282678095961

>  <meeko>  (12) 
{"free_energy": -6.39, "intermolecular_energy": -8.48, "internal_energy": -1.79, "cluster_size": 5, "cluster_id": 4, "rank_in_cluster": 1}

>  <energy>  (12) 
-6.34

>  <cluster_rmsd>  (12) 
1.03

>  <cluster>  (12) 
1

$$$$

     RDKit          3D

 43 45  0  0  0  0  0  0  0  0999 V2000
  136.8410   71.3790  221.2830 O   0  0  0  0  0  0  0  0  0  0  0  0
  137.0560   71.8990  222.4250 C   0  0  0  0  0  0  0  0  0  0  0  0
  136.6510   73.2560  222.5680 N   0  0  0  0  0  0  0  0  0  0  0  0
  136.0520   73.9070  221.4460 C   0  0  0  0  0  0  0  0  0  0  0  0
  137.0340   74.2730  220.4030 C   0  0  0  0  0  0  0  0  0  0  0  0
  136.5810   74.7140  219.3150 O   0  0  0  0  0  0  0  0  0  0  0  0
  138.4180   74.1100  220.6730 N   0  0  0  0  0  0  0  0  0  0  0  0
  139.3120   73.1050  220.1170 C   0  0  0  0  0  0  0  0  0  0  0  0
  140.6640   73.7290  220.3350 C   0  0  0  0  0  0  0  0  0  0  0  0
  140.5120   74.3190  221.7280 C   0  0  2  0  0  0  0  0  0  0  0  0
  140.4330   73.3040  222.6910 O   0  0  0  0  0  0  0  0  0  0  0  0
  139.1430   74.9750  221.5890 C   0  0  1  0  0  0  0  0  0  0  0  0
  139.3740   76.3520  221.0150 C   0  0  0  0  0  0  0  0  0  0  0  0
  139.1970   76.3970  219.6440 O   0  0  0  0  0  0  0  0  0  0  0  0
  137.6780   71.1460  223.5130 C   0  0  0  0  0  0  0  0  0  0  0  0
  137.0530   70.0000  223.9370 C   0  0  0  0  0  0  0  0  0  0  0  0
  137.5460   69.2080  224.9540 C   0  0  0  0  0  0  0  0  0  0  0  0
  138.7160   69.6100  225.5510 C   0  0  0  0  0  0  0  0  0  0  0  0
  139.2360   68.8440  226.5710 C   0  0  0  0  0  0  0  0  0  0  0  0
  140.3960   69.2460  227.1600 C   0  0  0  0  0  0  0  0  0  0  0  0
  141.0880   68.2960  228.4580 Cl  0  0  0  0  0  0  0  0  0  0  0  0
  141.0660   70.4000  226.7640 C   0  0  0  0  0  0  0  0  0  0  0  0
  140.5000   71.1340  225.7350 C   0  0  0  0  0  0  0  0  0  0  0  0
  139.3400   70.7740  225.1120 C   0  0  0  0  0  0  0  0  0  0  0  0
  138.8150   71.5150  224.1110 N   0  0  0  0  0  0  0  0  0  0  0  0
  136.8040   73.7310  223.4810 H   0  0  0  0  0  0  0  0  0  0  0  0
  135.3061   73.2299  221.0041 H   0  0  0  0  0  0  0  0  0  0  0  0
  135.5936   74.8383  221.8100 H   0  0  0  0  0  0  0  0  0  0  0  0
  139.2220   72.1496  220.6546 H   0  0  0  0  0  0  0  0  0  0  0  0
  139.1024   72.8601  219.0653 H   0  0  0  0  0  0  0  0  0  0  0  0
  141.4634   72.9740  220.3047 H   0  0  0  0  0  0  0  0  0  0  0  0
  140.9444   74.4650  219.5672 H   0  0  0  0  0  0  0  0  0  0  0  0
  141.3370   74.9776  222.0372 H   0  0  0  0  0  0  0  0  0  0  0  0
  139.5450   73.3130  223.1400 H   0  0  0  0  0  0  0  0  0  0  0  0
  138.5796   75.0905  222.5267 H   0  0  0  0  0  0  0  0  0  0  0  0
  138.6665   77.0516  221.4840 H   0  0  0  0  0  0  0  0  0  0  0  0
  140.4184   76.6272  221.2237 H   0  0  0  0  0  0  0  0  0  0  0  0
  138.3290   75.9660  219.4380 H   0  0  0  0  0  0  0  0  0  0  0  0
  136.1168   69.6992  223.4439 H   0  0  0  0  0  0  0  0  0  0  0  0
  137.0242   68.2937  225.2730 H   0  0  0  0  0  0  0  0  0  0  0  0
  138.7254   67.9278  226.9024 H   0  0  0  0  0  0  0  0  0  0  0  0
  142.0030   70.7148  227.2467 H   0  0  0  0  0  0  0  0  0  0  0  0
  141.0096   72.0509  225.4039 H   0  0  0  0  0  0  0  0  0  0  0  0
  1  2  2  0
  2  3  1  0
  3  4  1  0
  4  5  1  0
  5  6  2  0
  5  7  1  0
  7  8  1  0
  8  9  1  0
  9 10  1  0
 10 11  1  0
 10 12  1  0
 12 13  1  0
 13 14  1  0
  2 15  1  0
 15 16  2  0
 16 17  1  0
 17 18  2  0
 18 19  1  0
 19 20  2  0
 20 21  1  0
 20 22  1  0
 22 23  2  0
 23 24  1  0
 24 25  2  0
 12  7  1  0
 25 15  1  0
 24 18  1  0
  3 26  1  0
  4 27  1  0
  4 28  1  0
  8 29  1  0
  8 30  1  0
  9 31  1  0
  9 32  1  0
 10 33  1  1
 11 34  1  0
 12 35  1  1
 13 36  1  0
 13 37  1  0
 14 38  1  0
 16 39  1  0
 17 40  1  0
 19 41  1  0
 22 42  1  0
 23 43  1  0
M  END
>  <smiles>  (13) 
O=C(NCC(=O)N1CC[C@H](O)[C@H]1CO)c1ccc2cc(Cl)ccc2n1

>  <score_type>  (13) 
oracle

>  <origin>  (13) 
autodockgpu

>  <m_score__min__energy>  (13) 
-7.2300000000000004

>  <m_primary>  (13) 
energy

>  <rmsd>  (13) 
3.1115543984946883

>  <m_score__min__rmsd>  (13) 
3.1115543984946883

>  <meeko>  (13) 
{"free_energy": -5.06, "intermolecular_energy": -7.15, "internal_energy": -2.89, "cluster_size": 2, "cluster_id": 9, "rank_in_cluster": 2}

>  <energy>  (13) 
-6.34

>  <cluster_rmsd>  (13) 
1.08

>  <cluster>  (13) 
1

$$$$

     RDKit          3D

 43 45  0  0  0  0  0  0  0  0999 V2000
  143.1700   79.0400  218.0570 O   0  0  0  0  0  0  0  0  0  0  0  0
  142.5650   78.0560  218.5930 C   0  0  0  0  0  0  0  0  0  0  0  0
  141.3150   78.3610  219.2020 N   0  0  0  0  0  0  0  0  0  0  0  0
  140.8540   79.7120  219.1640 C   0  0  0  0  0  0  0  0  0  0  0  0
  140.2120   80.1360  220.4280 C   0  0  0  0  0  0  0  0  0  0  0  0
  139.0160   80.5220  220.3650 O   0  0  0  0  0  0  0  0  0  0  0  0
  140.9650   80.0890  221.6300 N   0  0  0  0  0  0  0  0  0  0  0  0
  141.0160   81.0990  222.6780 C   0  0  0  0  0  0  0  0  0  0  0  0
  141.5100   80.3060  223.8570 C   0  0  0  0  0  0  0  0  0  0  0  0
  142.5730   79.4270  223.2160 C   0  0  2  0  0  0  0  0  0  0  0  0
  143.6760   80.1930  222.8200 O   0  0  0  0  0  0  0  0  0  0  0  0
  141.8200   78.9660  221.9740 C   0  0  1  0  0  0  0  0  0  0  0  0
  141.0280   77.7430  222.3720 C   0  0  0  0  0  0  0  0  0  0  0  0
  141.2570   76.6640  221.5370 O   0  0  0  0  0  0  0  0  0  0  0  0
  143.1220   76.7050  218.5790 C   0  0  0  0  0  0  0  0  0  0  0  0
  143.2360   76.0710  217.3670 C   0  0  0  0  0  0  0  0  0  0  0  0
  143.7470   74.7960  217.2300 C   0  0  0  0  0  0  0  0  0  0  0  0
  144.1530   74.1570  218.3760 C   0  0  0  0  0  0  0  0  0  0  0  0
  144.6670   72.8830  218.2760 C   0  0  0  0  0  0  0  0  0  0  0  0
  145.0690   72.2530  219.4150 C   0  0  0  0  0  0  0  0  0  0  0  0
  145.7290   70.6340  219.3270 Cl  0  0  0  0  0  0  0  0  0  0  0  0
  144.9740   72.8550  220.6660 C   0  0  0  0  0  0  0  0  0  0  0  0
  144.4490   74.1360  220.7110 C   0  0  0  0  0  0  0  0  0  0  0  0
  144.0330   74.8100  219.5990 C   0  0  0  0  0  0  0  0  0  0  0  0
  143.5250   76.0600  219.6790 N   0  0  0  0  0  0  0  0  0  0  0  0
  140.7780   77.5940  219.6550 H   0  0  0  0  0  0  0  0  0  0  0  0
  141.7129   80.3708  218.9681 H   0  0  0  0  0  0  0  0  0  0  0  0
  140.0966   79.7806  218.3693 H   0  0  0  0  0  0  0  0  0  0  0  0
  141.7156   81.9076  222.4194 H   0  0  0  0  0  0  0  0  0  0  0  0
  140.0538   81.6018  222.8550 H   0  0  0  0  0  0  0  0  0  0  0  0
  141.9429   80.9610  224.6274 H   0  0  0  0  0  0  0  0  0  0  0  0
  140.7212   79.7436  224.3781 H   0  0  0  0  0  0  0  0  0  0  0  0
  142.9642   78.6330  223.8691 H   0  0  0  0  0  0  0  0  0  0  0  0
  144.1250   79.7830  222.0310 H   0  0  0  0  0  0  0  0  0  0  0  0
  142.4514   78.6947  221.1151 H   0  0  0  0  0  0  0  0  0  0  0  0
  141.3085   77.4603  223.3974 H   0  0  0  0  0  0  0  0  0  0  0  0
  139.9609   77.9996  222.2985 H   0  0  0  0  0  0  0  0  0  0  0  0
  142.2200   76.6620  221.3040 H   0  0  0  0  0  0  0  0  0  0  0  0
  142.9049   76.6034  216.4632 H   0  0  0  0  0  0  0  0  0  0  0  0
  143.8257   74.3124  216.2451 H   0  0  0  0  0  0  0  0  0  0  0  0
  144.7510   72.3855  217.2985 H   0  0  0  0  0  0  0  0  0  0  0  0
  145.3015   72.3363  221.5791 H   0  0  0  0  0  0  0  0  0  0  0  0
  144.3633   74.6335  221.6883 H   0  0  0  0  0  0  0  0  0  0  0  0
  1  2  2  0
  2  3  1  0
  3  4  1  0
  4  5  1  0
  5  6  2  0
  5  7  1  0
  7  8  1  0
  8  9  1  0
  9 10  1  0
 10 11  1  0
 10 12  1  0
 12 13  1  0
 13 14  1  0
  2 15  1  0
 15 16  2  0
 16 17  1  0
 17 18  2  0
 18 19  1  0
 19 20  2  0
 20 21  1  0
 20 22  1  0
 22 23  2  0
 23 24  1  0
 24 25  2  0
 12  7  1  0
 25 15  1  0
 24 18  1  0
  3 26  1  0
  4 27  1  0
  4 28  1  0
  8 29  1  0
  8 30  1  0
  9 31  1  0
  9 32  1  0
 10 33  1  1
 11 34  1  0
 12 35  1  6
 13 36  1  0
 13 37  1  0
 14 38  1  0
 16 39  1  0
 17 40  1  0
 19 41  1  0
 22 42  1  0
 23 43  1  0
M  END
>  <smiles>  (14) 
O=C(NCC(=O)N1CC[C@H](O)[C@H]1CO)c1ccc2cc(Cl)ccc2n1

>  <score_type>  (14) 
oracle

>  <origin>  (14) 
autodockgpu

>  <m_score__min__energy>  (14) 
-7.2300000000000004

>  <m_primary>  (14) 
energy

>  <rmsd>  (14) 
8.085125121700642

>  <m_score__min__rmsd>  (14) 
8.085125121700642

>  <meeko>  (14) 
{"free_energy": -5.44, "intermolecular_energy": -7.53, "internal_energy": -2.51, "cluster_size": 1, "cluster_id": 7, "rank_in_cluster": 1}

>  <energy>  (14) 
-6.32

>  <cluster_rmsd>  (14) 
0.84

>  <cluster>  (14) 
1

$$$$

     RDKit          3D

 43 45  0  0  0  0  0  0  0  0999 V2000
  139.9310   72.3690  220.2430 O   0  0  0  0  0  0  0  0  0  0  0  0
  140.4250   72.7100  221.3660 C   0  0  0  0  0  0  0  0  0  0  0  0
  141.1320   73.9460  221.3770 N   0  0  0  0  0  0  0  0  0  0  0  0
  141.2260   74.6840  220.1580 C   0  0  0  0  0  0  0  0  0  0  0  0
  142.1610   74.0730  219.1870 C   0  0  0  0  0  0  0  0  0  0  0  0
  141.7800   73.9980  217.9910 O   0  0  0  0  0  0  0  0  0  0  0  0
  143.4200   73.6070  219.6460 N   0  0  0  0  0  0  0  0  0  0  0  0
  144.3020   74.2530  220.6080 C   0  0  0  0  0  0  0  0  0  0  0  0
  145.1600   73.1060  221.0690 C   0  0  0  0  0  0  0  0  0  0  0  0
  145.4180   72.3670  219.7650 C   0  0  2  0  0  0  0  0  0  0  0  0
  146.2530   73.1170  218.9270 O   0  0  0  0  0  0  0  0  0  0  0  0
  144.0090   72.3620  219.1830 C   0  0  1  0  0  0  0  0  0  0  0  0
  143.3070   71.1500  219.7470 C   0  0  0  0  0  0  0  0  0  0  0  0
  141.9990   71.0390  219.3110 O   0  0  0  0  0  0  0  0  0  0  0  0
  140.2730   71.8820  222.5610 C   0  0  0  0  0  0  0  0  0  0  0  0
  139.6580   70.6630  222.4210 C   0  0  0  0  0  0  0  0  0  0  0  0
  139.4590   69.7960  223.4770 C   0  0  0  0  0  0  0  0  0  0  0  0
  139.9070   70.1990  224.7120 C   0  0  0  0  0  0  0  0  0  0  0  0
  139.7250   69.3590  225.7880 C   0  0  0  0  0  0  0  0  0  0  0  0
  140.1700   69.7610  227.0100 C   0  0  0  0  0  0  0  0  0  0  0  0
  139.9570   68.7200  228.4010 Cl  0  0  0  0  0  0  0  0  0  0  0  0
  140.8000   70.9880  227.2010 C   0  0  0  0  0  0  0  0  0  0  0  0
  140.9580   71.7940  226.0860 C   0  0  0  0  0  0  0  0  0  0  0  0
  140.5290   71.4370  224.8400 C   0  0  0  0  0  0  0  0  0  0  0  0
  140.7000   72.2500  223.7740 N   0  0  0  0  0  0  0  0  0  0  0  0
  141.5560   74.2720  222.2690 H   0  0  0  0  0  0  0  0  0  0  0  0
  140.2272   74.7343  219.6999 H   0  0  0  0  0  0  0  0  0  0  0  0
  141.6128   75.6835  220.4056 H   0  0  0  0  0  0  0  0  0  0  0  0
  144.9073   75.0376  220.1305 H   0  0  0  0  0  0  0  0  0  0  0  0
  143.7691   74.7629  221.4241 H   0  0  0  0  0  0  0  0  0  0  0  0
  146.0979   73.4631  221.5194 H   0  0  0  0  0  0  0  0  0  0  0  0
  144.6931   72.4854  221.8480 H   0  0  0  0  0  0  0  0  0  0  0  0
  145.8983   71.3845  219.8834 H   0  0  0  0  0  0  0  0  0  0  0  0
  145.9620   74.0690  218.9010 H   0  0  0  0  0  0  0  0  0  0  0  0
  143.9539   72.3034  218.0859 H   0  0  0  0  0  0  0  0  0  0  0  0
  143.8581   70.2492  219.4390 H   0  0  0  0  0  0  0  0  0  0  0  0
  143.2841   71.2590  220.8413 H   0  0  0  0  0  0  0  0  0  0  0  0
  141.6940   71.9420  219.0390 H   0  0  0  0  0  0  0  0  0  0  0  0
  139.3078   70.3632  221.4223 H   0  0  0  0  0  0  0  0  0  0  0  0
  138.9631   68.8243  223.3358 H   0  0  0  0  0  0  0  0  0  0  0  0
  139.2308   68.3843  225.6627 H   0  0  0  0  0  0  0  0  0  0  0  0
  141.1562   71.3029  228.1929 H   0  0  0  0  0  0  0  0  0  0  0  0
  141.4528   72.7685  226.2102 H   0  0  0  0  0  0  0  0  0  0  0  0
  1  2  2  0
  2  3  1  0
  3  4  1  0
  4  5  1  0
  5  6  2  0
  5  7  1  0
  7  8  1  0
  8  9  1  0
  9 10  1  0
 10 11  1  0
 10 12  1  0
 12 13  1  0
 13 14  1  0
  2 15  1  0
 15 16  2  0
 16 17  1  0
 17 18  2  0
 18 19  1  0
 19 20  2  0
 20 21  1  0
 20 22  1  0
 22 23  2  0
 23 24  1  0
 24 25  2  0
 12  7  1  0
 25 15  1  0
 24 18  1  0
  3 26  1  0
  4 27  1  0
  4 28  1  0
  8 29  1  0
  8 30  1  0
  9 31  1  0
  9 32  1  0
 10 33  1  1
 11 34  1  0
 12 35  1  6
 13 36  1  0
 13 37  1  0
 14 38  1  0
 16 39  1  0
 17 40  1  0
 19 41  1  0
 22 42  1  0
 23 43  1  0
M  END
>  <smiles>  (15) 
O=C(NCC(=O)N1CC[C@H](O)[C@H]1CO)c1ccc2cc(Cl)ccc2n1

>  <score_type>  (15) 
oracle

>  <origin>  (15) 
autodockgpu

>  <m_score__min__energy>  (15) 
-7.2300000000000004

>  <m_primary>  (15) 
energy

>  <rmsd>  (15) 
4.185461830767699

>  <m_score__min__rmsd>  (15) 
4.185461830767699

>  <meeko>  (15) 
{"free_energy": -6.18, "intermolecular_energy": -8.27, "internal_energy": -2.6, "cluster_size": 23, "cluster_id": 1, "rank_in_cluster": 17}

>  <energy>  (15) 
-6.32

>  <cluster_rmsd>  (15) 
1.02

>  <cluster>  (15) 
1

$$$$

     RDKit          3D

 43 45  0  0  0  0  0  0  0  0999 V2000
  139.1470   73.2480  221.3440 O   0  0  0  0  0  0  0  0  0  0  0  0
  140.2150   72.7730  221.8490 C   0  0  0  0  0  0  0  0  0  0  0  0
  141.4240   73.1570  221.2030 N   0  0  0  0  0  0  0  0  0  0  0  0
  141.3420   74.0210  220.0690 C   0  0  0  0  0  0  0  0  0  0  0  0
  142.2980   75.1480  220.1360 C   0  0  0  0  0  0  0  0  0  0  0  0
  143.5030   74.8970  219.8790 O   0  0  0  0  0  0  0  0  0  0  0  0
  141.8160   76.4380  220.4840 N   0  0  0  0  0  0  0  0  0  0  0  0
  141.9740   77.6710  219.7260 C   0  0  0  0  0  0  0  0  0  0  0  0
  140.8670   78.5250  220.2800 C   0  0  0  0  0  0  0  0  0  0  0  0
  140.9430   78.2080  221.7660 C   0  0  2  0  0  0  0  0  0  0  0  0
  142.1120   78.7390  222.3260 O   0  0  0  0  0  0  0  0  0  0  0  0
  141.0700   76.6910  221.7040 C   0  0  1  0  0  0  0  0  0  0  0  0
  139.6670   76.1360  221.6440 C   0  0  0  0  0  0  0  0  0  0  0  0
  139.2270   75.6600  222.8660 O   0  0  0  0  0  0  0  0  0  0  0  0
  140.1940   71.8930  223.0160 C   0  0  0  0  0  0  0  0  0  0  0  0
  139.6490   70.6420  222.8640 C   0  0  0  0  0  0  0  0  0  0  0  0
  139.5740   69.7250  223.8930 C   0  0  0  0  0  0  0  0  0  0  0  0
  140.0750   70.1100  225.1130 C   0  0  0  0  0  0  0  0  0  0  0  0
  140.0160   69.2200  226.1630 C   0  0  0  0  0  0  0  0  0  0  0  0
  140.5140   69.6050  227.3710 C   0  0  0  0  0  0  0  0  0  0  0  0
  140.4580   68.5000  228.7270 Cl  0  0  0  0  0  0  0  0  0  0  0  0
  141.0770   70.8620  227.5720 C   0  0  0  0  0  0  0  0  0  0  0  0
  141.1110   71.7180  226.4840 C   0  0  0  0  0  0  0  0  0  0  0  0
  140.6250   71.3800  225.2540 C   0  0  0  0  0  0  0  0  0  0  0  0
  140.6750   72.2420  224.2130 N   0  0  0  0  0  0  0  0  0  0  0  0
  142.3270   72.7970  221.5750 H   0  0  0  0  0  0  0  0  0  0  0  0
  141.5543   73.4335  219.1636 H   0  0  0  0  0  0  0  0  0  0  0  0
  140.3283   74.4476  220.0506 H   0  0  0  0  0  0  0  0  0  0  0  0
  142.9586   78.1272  219.9062 H   0  0  0  0  0  0  0  0  0  0  0  0
  141.9217   77.5306  218.6363 H   0  0  0  0  0  0  0  0  0  0  0  0
  141.0506   79.5925  220.0883 H   0  0  0  0  0  0  0  0  0  0  0  0
  139.8828   78.3244  219.8316 H   0  0  0  0  0  0  0  0  0  0  0  0
  140.1061   78.6016  222.3616 H   0  0  0  0  0  0  0  0  0  0  0  0
  142.9160   78.2790  221.9640 H   0  0  0  0  0  0  0  0  0  0  0  0
  141.5797   76.2272  222.5614 H   0  0  0  0  0  0  0  0  0  0  0  0
  138.9870   76.9344  221.3121 H   0  0  0  0  0  0  0  0  0  0  0  0
  139.6751   75.2893  220.9418 H   0  0  0  0  0  0  0  0  0  0  0  0
  138.9500   74.7170  222.7410 H   0  0  0  0  0  0  0  0  0  0  0  0
  139.2542   70.3576  221.8775 H   0  0  0  0  0  0  0  0  0  0  0  0
  139.1322   68.7289  223.7427 H   0  0  0  0  0  0  0  0  0  0  0  0
  139.5765   68.2206  226.0288 H   0  0  0  0  0  0  0  0  0  0  0  0
  141.4772   71.1621  228.5517 H   0  0  0  0  0  0  0  0  0  0  0  0
  141.5504   72.7176  226.6172 H   0  0  0  0  0  0  0  0  0  0  0  0
  1  2  2  0
  2  3  1  0
  3  4  1  0
  4  5  1  0
  5  6  2  0
  5  7  1  0
  7  8  1  0
  8  9  1  0
  9 10  1  0
 10 11  1  0
 10 12  1  0
 12 13  1  0
 13 14  1  0
  2 15  1  0
 15 16  2  0
 16 17  1  0
 17 18  2  0
 18 19  1  0
 19 20  2  0
 20 21  1  0
 20 22  1  0
 22 23  2  0
 23 24  1  0
 24 25  2  0
 12  7  1  0
 25 15  1  0
 24 18  1  0
  3 26  1  0
  4 27  1  0
  4 28  1  0
  8 29  1  0
  8 30  1  0
  9 31  1  0
  9 32  1  0
 10 33  1  1
 11 34  1  0
 12 35  1  1
 13 36  1  0
 13 37  1  0
 14 38  1  0
 16 39  1  0
 17 40  1  0
 19 41  1  0
 22 42  1  0
 23 43  1  0
M  END
>  <smiles>  (16) 
O=C(NCC(=O)N1CC[C@H](O)[C@H]1CO)c1ccc2cc(Cl)ccc2n1

>  <score_type>  (16) 
oracle

>  <origin>  (16) 
autodockgpu

>  <m_score__min__energy>  (16) 
-7.2300000000000004

>  <m_primary>  (16) 
energy

>  <rmsd>  (16) 
3.268430697904135

>  <m_score__min__rmsd>  (16) 
3.268430697904135

>  <meeko>  (16) 
{"free_energy": -6.65, "intermolecular_energy": -8.74, "internal_energy": -1.7, "cluster_size": 7, "cluster_id": 2, "rank_in_cluster": 3}

>  <energy>  (16) 
-6.22

>  <cluster_rmsd>  (16) 
1.35

>  <cluster>  (16) 
1

$$$$

     RDKit          3D

 43 45  0  0  0  0  0  0  0  0999 V2000
  140.5900   70.8020  221.3400 O   0  0  0  0  0  0  0  0  0  0  0  0
  140.2120   71.7710  222.0740 C   0  0  0  0  0  0  0  0  0  0  0  0
  139.4100   71.4170  223.1940 N   0  0  0  0  0  0  0  0  0  0  0  0
  139.1020   70.0370  223.4000 C   0  0  0  0  0  0  0  0  0  0  0  0
  138.6040   69.7570  224.7640 C   0  0  0  0  0  0  0  0  0  0  0  0
  137.3940   70.0090  224.9990 O   0  0  0  0  0  0  0  0  0  0  0  0
  139.5020   69.2270  225.7270 N   0  0  0  0  0  0  0  0  0  0  0  0
  140.1060   67.9020  225.7340 C   0  0  0  0  0  0  0  0  0  0  0  0
  141.2960   68.1030  226.6320 C   0  0  0  0  0  0  0  0  0  0  0  0
  140.7120   68.9780  227.7310 C   0  0  2  0  0  0  0  0  0  0  0  0
  139.8010   68.2530  228.5100 O   0  0  0  0  0  0  0  0  0  0  0  0
  139.9450   69.9860  226.8840 C   0  0  1  0  0  0  0  0  0  0  0  0
  140.9200   71.0780  226.5130 C   0  0  0  0  0  0  0  0  0  0  0  0
  140.4510   71.8910  225.4970 O   0  0  0  0  0  0  0  0  0  0  0  0
  140.5820   73.1540  221.7790 C   0  0  0  0  0  0  0  0  0  0  0  0
  141.6480   73.3670  220.9410 C   0  0  0  0  0  0  0  0  0  0  0  0
  142.0880   74.6270  220.5900 C   0  0  0  0  0  0  0  0  0  0  0  0
  141.4090   75.6980  221.1180 C   0  0  0  0  0  0  0  0  0  0  0  0
  141.8220   76.9710  220.7900 C   0  0  0  0  0  0  0  0  0  0  0  0
  141.1460   78.0300  221.3160 C   0  0  0  0  0  0  0  0  0  0  0  0
  141.6410   79.6620  220.9200 Cl  0  0  0  0  0  0  0  0  0  0  0  0
  140.0590   77.8630  222.1690 C   0  0  0  0  0  0  0  0  0  0  0  0
  139.6860   76.5640  222.4670 C   0  0  0  0  0  0  0  0  0  0  0  0
  140.3300   75.4700  221.9660 C   0  0  0  0  0  0  0  0  0  0  0  0
  139.9390   74.2140  222.2790 N   0  0  0  0  0  0  0  0  0  0  0  0
  139.0730   72.1710  223.8280 H   0  0  0  0  0  0  0  0  0  0  0  0
  138.3300   69.7376  222.6759 H   0  0  0  0  0  0  0  0  0  0  0  0
  140.0328   69.4667  223.2644 H   0  0  0  0  0  0  0  0  0  0  0  0
  139.4165   67.1510  226.1470 H   0  0  0  0  0  0  0  0  0  0  0  0
  140.3654   67.5285  224.7324 H   0  0  0  0  0  0  0  0  0  0  0  0
  141.6611   67.1461  227.0334 H   0  0  0  0  0  0  0  0  0  0  0  0
  142.1666   68.5454  226.1257 H   0  0  0  0  0  0  0  0  0  0  0  0
  141.4547   69.3940  228.4277 H   0  0  0  0  0  0  0  0  0  0  0  0
  139.6340   67.3560  228.1130 H   0  0  0  0  0  0  0  0  0  0  0  0
  139.0834   70.4564  227.3802 H   0  0  0  0  0  0  0  0  0  0  0  0
  141.1079   71.6985  227.4016 H   0  0  0  0  0  0  0  0  0  0  0  0
  141.8395   70.5935  226.1526 H   0  0  0  0  0  0  0  0  0  0  0  0
  139.4650   71.8020  225.4710 H   0  0  0  0  0  0  0  0  0  0  0  0
  142.1756   72.4935  220.5304 H   0  0  0  0  0  0  0  0  0  0  0  0
  142.9459   74.7677  219.9161 H   0  0  0  0  0  0  0  0  0  0  0  0
  142.6787   77.1285  220.1182 H   0  0  0  0  0  0  0  0  0  0  0  0
  139.5201   78.7256  222.5879 H   0  0  0  0  0  0  0  0  0  0  0  0
  138.8300   76.4058  223.1395 H   0  0  0  0  0  0  0  0  0  0  0  0
  1  2  2  0
  2  3  1  0
  3  4  1  0
  4  5  1  0
  5  6  2  0
  5  7  1  0
  7  8  1  0
  8  9  1  0
  9 10  1  0
 10 11  1  0
 10 12  1  0
 12 13  1  0
 13 14  1  0
  2 15  1  0
 15 16  2  0
 16 17  1  0
 17 18  2  0
 18 19  1  0
 19 20  2  0
 20 21  1  0
 20 22  1  0
 22 23  2  0
 23 24  1  0
 24 25  2  0
 12  7  1  0
 25 15  1  0
 24 18  1  0
  3 26  1  0
  4 27  1  0
  4 28  1  0
  8 29  1  0
  8 30  1  0
  9 31  1  0
  9 32  1  0
 10 33  1  1
 11 34  1  0
 12 35  1  1
 13 36  1  0
 13 37  1  0
 14 38  1  0
 16 39  1  0
 17 40  1  0
 19 41  1  0
 22 42  1  0
 23 43  1  0
M  END
>  <smiles>  (17) 
O=C(NCC(=O)N1CC[C@H](O)[C@H]1CO)c1ccc2cc(Cl)ccc2n1

>  <score_type>  (17) 
oracle

>  <origin>  (17) 
autodockgpu

>  <m_score__min__energy>  (17) 
-7.2300000000000004

>  <m_primary>  (17) 
energy

>  <rmsd>  (17) 
8.840122101148262

>  <m_score__min__rmsd>  (17) 
8.840122101148262

>  <meeko>  (17) 
{"free_energy": -6.38, "intermolecular_energy": -8.47, "internal_energy": -1.81, "cluster_size": 5, "cluster_id": 4, "rank_in_cluster": 2}

>  <energy>  (17) 
-6.18

>  <cluster_rmsd>  (17) 
1.16

>  <cluster>  (17) 
1

$$$$

     RDKit          3D

 43 45  0  0  0  0  0  0  0  0999 V2000
  140.7690   73.7820  220.7790 O   0  0  0  0  0  0  0  0  0  0  0  0
  140.1660   73.8110  221.9000 C   0  0  0  0  0  0  0  0  0  0  0  0
  139.7070   75.0920  222.3180 N   0  0  0  0  0  0  0  0  0  0  0  0
  139.9540   76.2120  221.4670 C   0  0  0  0  0  0  0  0  0  0  0  0
  139.6840   77.5070  222.1290 C   0  0  0  0  0  0  0  0  0  0  0  0
  138.5980   77.6180  222.7550 O   0  0  0  0  0  0  0  0  0  0  0  0
  140.6460   78.5450  222.0260 N   0  0  0  0  0  0  0  0  0  0  0  0
  141.4200   78.9170  220.8500 C   0  0  0  0  0  0  0  0  0  0  0  0
  141.8310   80.3260  221.1760 C   0  0  0  0  0  0  0  0  0  0  0  0
  142.1830   80.2150  222.6510 C   0  0  2  0  0  0  0  0  0  0  0  0
  143.3490   79.4580  222.8260 O   0  0  0  0  0  0  0  0  0  0  0  0
  140.9900   79.4060  223.1460 C   0  0  1  0  0  0  0  0  0  0  0  0
  139.8940   80.3940  223.4680 C   0  0  0  0  0  0  0  0  0  0  0  0
  138.8750   79.8350  224.2180 O   0  0  0  0  0  0  0  0  0  0  0  0
  139.9620   72.6050  222.7000 C   0  0  0  0  0  0  0  0  0  0  0  0
  138.9890   71.7250  222.2950 C   0  0  0  0  0  0  0  0  0  0  0  0
  138.7070   70.5540  222.9700 C   0  0  0  0  0  0  0  0  0  0  0  0
  139.4500   70.2830  224.0930 C   0  0  0  0  0  0  0  0  0  0  0  0
  139.1950   69.1230  224.7910 C   0  0  0  0  0  0  0  0  0  0  0  0
  139.9340   68.8580  225.9040 C   0  0  0  0  0  0  0  0  0  0  0  0
  139.6390   67.3930  226.8160 Cl  0  0  0  0  0  0  0  0  0  0  0  0
  140.9310   69.7190  226.3520 C   0  0  0  0  0  0  0  0  0  0  0  0
  141.1470   70.8710  225.6140 C   0  0  0  0  0  0  0  0  0  0  0  0
  140.4340   71.1820  224.4920 C   0  0  0  0  0  0  0  0  0  0  0  0
  140.6710   72.3170  223.7960 N   0  0  0  0  0  0  0  0  0  0  0  0
  139.2070   75.1720  223.2270 H   0  0  0  0  0  0  0  0  0  0  0  0
  141.0086   76.1902  221.1550 H   0  0  0  0  0  0  0  0  0  0  0  0
  139.2718   76.1313  220.6079 H   0  0  0  0  0  0  0  0  0  0  0  0
  142.2965   78.2640  220.7260 H   0  0  0  0  0  0  0  0  0  0  0  0
  140.8624   78.8258  219.9062 H   0  0  0  0  0  0  0  0  0  0  0  0
  142.7009   80.6375  220.5791 H   0  0  0  0  0  0  0  0  0  0  0  0
  141.0573   81.0770  220.9583 H   0  0  0  0  0  0  0  0  0  0  0  0
  142.3587   81.1779  223.1530 H   0  0  0  0  0  0  0  0  0  0  0  0
  143.4820   78.8350  222.0610 H   0  0  0  0  0  0  0  0  0  0  0  0
  141.1732   78.8009  224.0462 H   0  0  0  0  0  0  0  0  0  0  0  0
  140.3295   81.2306  224.0341 H   0  0  0  0  0  0  0  0  0  0  0  0
  139.4593   80.7303  222.5152 H   0  0  0  0  0  0  0  0  0  0  0  0
  138.5960   78.9970  223.7710 H   0  0  0  0  0  0  0  0  0  0  0  0
  138.4079   71.9637  221.3920 H   0  0  0  0  0  0  0  0  0  0  0  0
  137.9208   69.8673  222.6232 H   0  0  0  0  0  0  0  0  0  0  0  0
  138.4120   68.4263  224.4569 H   0  0  0  0  0  0  0  0  0  0  0  0
  141.5216   69.4947  227.2525 H   0  0  0  0  0  0  0  0  0  0  0  0
  141.9298   71.5681  225.9476 H   0  0  0  0  0  0  0  0  0  0  0  0
  1  2  2  0
  2  3  1  0
  3  4  1  0
  4  5  1  0
  5  6  2  0
  5  7  1  0
  7  8  1  0
  8  9  1  0
  9 10  1  0
 10 11  1  0
 10 12  1  0
 12 13  1  0
 13 14  1  0
  2 15  1  0
 15 16  2  0
 16 17  1  0
 17 18  2  0
 18 19  1  0
 19 20  2  0
 20 21  1  0
 20 22  1  0
 22 23  2  0
 23 24  1  0
 24 25  2  0
 12  7  1  0
 25 15  1  0
 24 18  1  0
  3 26  1  0
  4 27  1  0
  4 28  1  0
  8 29  1  0
  8 30  1  0
  9 31  1  0
  9 32  1  0
 10 33  1  1
 11 34  1  0
 12 35  1  1
 13 36  1  0
 13 37  1  0
 14 38  1  0
 16 39  1  0
 17 40  1  0
 19 41  1  0
 22 42  1  0
 23 43  1  0
M  END
>  <smiles>  (18) 
O=C(NCC(=O)N1CC[C@H](O)[C@H]1CO)c1ccc2cc(Cl)ccc2n1

>  <score_type>  (18) 
oracle

>  <origin>  (18) 
autodockgpu

>  <m_score__min__energy>  (18) 
-7.2300000000000004

>  <m_primary>  (18) 
energy

>  <rmsd>  (18) 
4.209359630076032

>  <m_score__min__rmsd>  (18) 
4.209359630076032

>  <meeko>  (18) 
{"free_energy": -6.67, "intermolecular_energy": -8.76, "internal_energy": -1.7, "cluster_size": 7, "cluster_id": 2, "rank_in_cluster": 1}

>  <energy>  (18) 
-6.1

>  <cluster_rmsd>  (18) 
1.36

>  <cluster>  (18) 
1

$$$$

     RDKit          3D

 43 45  0  0  0  0  0  0  0  0999 V2000
  140.5020   72.1150  220.9640 O   0  0  0  0  0  0  0  0  0  0  0  0
  140.1060   72.4890  222.1150 C   0  0  0  0  0  0  0  0  0  0  0  0
  139.6380   73.8300  222.1990 N   0  0  0  0  0  0  0  0  0  0  0  0
  139.6500   74.6280  221.0140 C   0  0  0  0  0  0  0  0  0  0  0  0
  140.7490   75.6170  220.9990 C   0  0  0  0  0  0  0  0  0  0  0  0
  141.1130   76.0900  222.1070 O   0  0  0  0  0  0  0  0  0  0  0  0
  141.3300   75.9810  219.7560 N   0  0  0  0  0  0  0  0  0  0  0  0
  140.9430   75.5130  218.4320 C   0  0  0  0  0  0  0  0  0  0  0  0
  141.5110   76.5840  217.5410 C   0  0  0  0  0  0  0  0  0  0  0  0
  142.8610   76.8460  218.1910 C   0  0  2  0  0  0  0  0  0  0  0  0
  143.7160   75.7510  218.0150 O   0  0  0  0  0  0  0  0  0  0  0  0
  142.4400   76.9140  219.6550 C   0  0  1  0  0  0  0  0  0  0  0  0
  142.0180   78.3380  219.9240 C   0  0  0  0  0  0  0  0  0  0  0  0
  142.0970   78.6750  221.2630 O   0  0  0  0  0  0  0  0  0  0  0  0
  140.1340   71.5940  223.2700 C   0  0  0  0  0  0  0  0  0  0  0  0
  139.6340   70.3250  223.1100 C   0  0  0  0  0  0  0  0  0  0  0  0
  139.6070   69.3930  224.1270 C   0  0  0  0  0  0  0  0  0  0  0  0
  140.1110   69.7800  225.3450 C   0  0  0  0  0  0  0  0  0  0  0  0
  140.1000   68.8750  226.3840 C   0  0  0  0  0  0  0  0  0  0  0  0
  140.6010   69.2630  227.5890 C   0  0  0  0  0  0  0  0  0  0  0  0
  140.6050   68.1400  228.9320 Cl  0  0  0  0  0  0  0  0  0  0  0  0
  141.1190   70.5380  227.8000 C   0  0  0  0  0  0  0  0  0  0  0  0
  141.1060   71.4080  226.7230 C   0  0  0  0  0  0  0  0  0  0  0  0
  140.6160   71.0680  225.4950 C   0  0  0  0  0  0  0  0  0  0  0  0
  140.6180   71.9440  224.4660 N   0  0  0  0  0  0  0  0  0  0  0  0
  139.3020   74.1870  223.1170 H   0  0  0  0  0  0  0  0  0  0  0  0
  139.7632   73.9639  220.1445 H   0  0  0  0  0  0  0  0  0  0  0  0
  138.7026   75.1860  220.9815 H   0  0  0  0  0  0  0  0  0  0  0  0
  141.3872   74.5315  218.2098 H   0  0  0  0  0  0  0  0  0  0  0  0
  139.8592   75.3671  218.3133 H   0  0  0  0  0  0  0  0  0  0  0  0
  141.6269   76.2254  216.5076 H   0  0  0  0  0  0  0  0  0  0  0  0
  140.8754   77.4780  217.4583 H   0  0  0  0  0  0  0  0  0  0  0  0
  143.3948   77.7239  217.7981 H   0  0  0  0  0  0  0  0  0  0  0  0
  144.5170   76.0110  217.4840 H   0  0  0  0  0  0  0  0  0  0  0  0
  143.2228   76.6518  220.3819 H   0  0  0  0  0  0  0  0  0  0  0  0
  142.6722   79.0127  219.3523 H   0  0  0  0  0  0  0  0  0  0  0  0
  140.9657   78.4356  219.6187 H   0  0  0  0  0  0  0  0  0  0  0  0
  142.3010   77.8480  221.7700 H   0  0  0  0  0  0  0  0  0  0  0  0
  139.2366   70.0382  222.1252 H   0  0  0  0  0  0  0  0  0  0  0  0
  139.1994   68.3835  223.9693 H   0  0  0  0  0  0  0  0  0  0  0  0
  139.6955   67.8618  226.2430 H   0  0  0  0  0  0  0  0  0  0  0  0
  141.5205   70.8405  228.7784 H   0  0  0  0  0  0  0  0  0  0  0  0
  141.5098   72.4215  226.8635 H   0  0  0  0  0  0  0  0  0  0  0  0
  1  2  2  0
  2  3  1  0
  3  4  1  0
  4  5  1  0
  5  6  2  0
  5  7  1  0
  7  8  1  0
  8  9  1  0
  9 10  1  0
 10 11  1  0
 10 12  1  0
 12 13  1  0
 13 14  1  0
  2 15  1  0
 15 16  2  0
 16 17  1  0
 17 18  2  0
 18 19  1  0
 19 20  2  0
 20 21  1  0
 20 22  1  0
 22 23  2  0
 23 24  1  0
 24 25  2  0
 12  7  1  0
 25 15  1  0
 24 18  1  0
  3 26  1  0
  4 27  1  0
  4 28  1  0
  8 29  1  0
  8 30  1  0
  9 31  1  0
  9 32  1  0
 10 33  1  6
 11 34  1  0
 12 35  1  1
 13 36  1  0
 13 37  1  0
 14 38  1  0
 16 39  1  0
 17 40  1  0
 19 41  1  0
 22 42  1  0
 23 43  1  0
M  END
>  <smiles>  (19) 
O=C(NCC(=O)N1CC[C@H](O)[C@H]1CO)c1ccc2cc(Cl)ccc2n1

>  <score_type>  (19) 
oracle

>  <origin>  (19) 
autodockgpu

>  <m_score__min__energy>  (19) 
-7.2300000000000004

>  <m_primary>  (19) 
energy

>  <rmsd>  (19) 
1.659162556153409

>  <m_score__min__rmsd>  (19) 
1.659162556153409

>  <meeko>  (19) 
{"free_energy": -6.48, "intermolecular_energy": -8.57, "internal_energy": -1.69, "cluster_size": 7, "cluster_id": 3, "rank_in_cluster": 1}

>  <energy>  (19) 
-6.08

>  <cluster_rmsd>  (19) 
1.18

>  <cluster>  (19) 
1

$$$$

     RDKit          3D

 43 45  0  0  0  0  0  0  0  0999 V2000
  139.1220   73.6670  221.6590 O   0  0  0  0  0  0  0  0  0  0  0  0
  140.1010   72.8780  221.8560 C   0  0  0  0  0  0  0  0  0  0  0  0
  141.1620   72.9690  220.9120 N   0  0  0  0  0  0  0  0  0  0  0  0
  141.0450   73.9140  219.8480 C   0  0  0  0  0  0  0  0  0  0  0  0
  142.3500   74.4680  219.4250 C   0  0  0  0  0  0  0  0  0  0  0  0
  142.3360   75.5580  218.7980 O   0  0  0  0  0  0  0  0  0  0  0  0
  143.5350   73.7530  219.7410 N   0  0  0  0  0  0  0  0  0  0  0  0
  144.4500   74.0080  220.8450 C   0  0  0  0  0  0  0  0  0  0  0  0
  145.1610   72.6890  220.9760 C   0  0  0  0  0  0  0  0  0  0  0  0
  145.3790   72.3070  219.5200 C   0  0  2  0  0  0  0  0  0  0  0  0
  146.3180   73.1560  218.9210 O   0  0  0  0  0  0  0  0  0  0  0  0
  143.9980   72.6220  218.9560 C   0  0  1  0  0  0  0  0  0  0  0  0
  143.1490   71.3910  219.1660 C   0  0  0  0  0  0  0  0  0  0  0  0
  142.9530   71.0990  220.5040 O   0  0  0  0  0  0  0  0  0  0  0  0
  140.1270   71.9430  222.9790 C   0  0  0  0  0  0  0  0  0  0  0  0
  139.6390   70.6770  222.7700 C   0  0  0  0  0  0  0  0  0  0  0  0
  139.6130   69.7090  223.7540 C   0  0  0  0  0  0  0  0  0  0  0  0
  140.1030   70.0580  224.9890 C   0  0  0  0  0  0  0  0  0  0  0  0
  140.0910   69.1170  225.9950 C   0  0  0  0  0  0  0  0  0  0  0  0
  140.5780   69.4660  227.2180 C   0  0  0  0  0  0  0  0  0  0  0  0
  140.5810   68.2960  228.5200 Cl  0  0  0  0  0  0  0  0  0  0  0  0
  141.0830   70.7370  227.4770 C   0  0  0  0  0  0  0  0  0  0  0  0
  141.0720   71.6440  226.4320 C   0  0  0  0  0  0  0  0  0  0  0  0
  140.5950   71.3440  225.1880 C   0  0  0  0  0  0  0  0  0  0  0  0
  140.5990   72.2560  224.1900 N   0  0  0  0  0  0  0  0  0  0  0  0
  141.9880   72.3460  221.0260 H   0  0  0  0  0  0  0  0  0  0  0  0
  140.5789   73.4155  218.9853 H   0  0  0  0  0  0  0  0  0  0  0  0
  140.4340   74.7516  220.2156 H   0  0  0  0  0  0  0  0  0  0  0  0
  145.1532   74.8182  220.6018 H   0  0  0  0  0  0  0  0  0  0  0  0
  143.9493   74.3346  221.7684 H   0  0  0  0  0  0  0  0  0  0  0  0
  146.1172   72.8006  221.5083 H   0  0  0  0  0  0  0  0  0  0  0  0
  144.6034   71.9380  221.5549 H   0  0  0  0  0  0  0  0  0  0  0  0
  145.7442   71.2809  219.3661 H   0  0  0  0  0  0  0  0  0  0  0  0
  145.9710   74.0870  218.8730 H   0  0  0  0  0  0  0  0  0  0  0  0
  143.9727   72.8702  217.8847 H   0  0  0  0  0  0  0  0  0  0  0  0
  142.1688   71.5550  218.6944 H   0  0  0  0  0  0  0  0  0  0  0  0
  143.6805   70.5401  218.7148 H   0  0  0  0  0  0  0  0  0  0  0  0
  142.3990   70.2780  220.5550 H   0  0  0  0  0  0  0  0  0  0  0  0
  139.2509   70.4222  221.7728 H   0  0  0  0  0  0  0  0  0  0  0  0
  139.2170   68.7017  223.5576 H   0  0  0  0  0  0  0  0  0  0  0  0
  139.6968   68.1061  225.8145 H   0  0  0  0  0  0  0  0  0  0  0  0
  141.4736   71.0085  228.4688 H   0  0  0  0  0  0  0  0  0  0  0  0
  141.4663   72.6550  226.6119 H   0  0  0  0  0  0  0  0  0  0  0  0
  1  2  2  0
  2  3  1  0
  3  4  1  0
  4  5  1  0
  5  6  2  0
  5  7  1  0
  7  8  1  0
  8  9  1  0
  9 10  1  0
 10 11  1  0
 10 12  1  0
 12 13  1  0
 13 14  1  0
  2 15  1  0
 15 16  2  0
 16 17  1  0
 17 18  2  0
 18 19  1  0
 19 20  2  0
 20 21  1  0
 20 22  1  0
 22 23  2  0
 23 24  1  0
 24 25  2  0
 12  7  1  0
 25 15  1  0
 24 18  1  0
  3 26  1  0
  4 27  1  0
  4 28  1  0
  8 29  1  0
  8 30  1  0
  9 31  1  0
  9 32  1  0
 10 33  1  1
 11 34  1  0
 12 35  1  6
 13 36  1  0
 13 37  1  0
 14 38  1  0
 16 39  1  0
 17 40  1  0
 19 41  1  0
 22 42  1  0
 23 43  1  0
M  END
>  <smiles>  (20) 
O=C(NCC(=O)N1CC[C@H](O)[C@H]1CO)c1ccc2cc(Cl)ccc2n1

>  <score_type>  (20) 
oracle

>  <origin>  (20) 
autodockgpu

>  <m_score__min__energy>  (20) 
-7.2300000000000004

>  <m_primary>  (20) 
energy

>  <rmsd>  (20) 
4.083735111917899

>  <m_score__min__rmsd>  (20) 
4.083735111917899

>  <meeko>  (20) 
{"free_energy": -6.32, "intermolecular_energy": -8.41, "internal_energy": -1.69, "cluster_size": 23, "cluster_id": 1, "rank_in_cluster": 14}

>  <energy>  (20) 
-5.99

>  <cluster_rmsd>  (20) 
1.24

>  <cluster>  (20) 
1

$$$$

     RDKit          3D

 43 45  0  0  0  0  0  0  0  0999 V2000
  140.7910   72.6320  221.0490 O   0  0  0  0  0  0  0  0  0  0  0  0
  140.1000   72.8140  222.1030 C   0  0  0  0  0  0  0  0  0  0  0  0
  139.3110   73.9980  222.1240 N   0  0  0  0  0  0  0  0  0  0  0  0
  139.3570   74.8640  220.9890 C   0  0  0  0  0  0  0  0  0  0  0  0
  140.7090   75.4110  220.7390 C   0  0  0  0  0  0  0  0  0  0  0  0
  141.0850   76.3680  221.4630 O   0  0  0  0  0  0  0  0  0  0  0  0
  141.5020   74.8390  219.7100 N   0  0  0  0  0  0  0  0  0  0  0  0
  141.0480   74.3550  218.4130 C   0  0  0  0  0  0  0  0  0  0  0  0
  142.3190   74.3710  217.6090 C   0  0  0  0  0  0  0  0  0  0  0  0
  143.3300   73.8410  218.6130 C   0  0  2  0  0  0  0  0  0  0  0  0
  143.0990   72.4850  218.8800 O   0  0  0  0  0  0  0  0  0  0  0  0
  142.9380   74.6590  219.8380 C   0  0  1  0  0  0  0  0  0  0  0  0
  143.6900   75.9650  219.7510 C   0  0  0  0  0  0  0  0  0  0  0  0
  142.8570   77.0670  219.8270 O   0  0  0  0  0  0  0  0  0  0  0  0
  140.1210   71.8650  223.2140 C   0  0  0  0  0  0  0  0  0  0  0  0
  139.6160   70.6070  222.9920 C   0  0  0  0  0  0  0  0  0  0  0  0
  139.5840   69.6280  223.9650 C   0  0  0  0  0  0  0  0  0  0  0  0
  140.0850   69.9550  225.2010 C   0  0  0  0  0  0  0  0  0  0  0  0
  140.0680   69.0020  226.1950 C   0  0  0  0  0  0  0  0  0  0  0  0
  140.5660   69.3300  227.4190 C   0  0  0  0  0  0  0  0  0  0  0  0
  140.5620   68.1440  228.7070 Cl  0  0  0  0  0  0  0  0  0  0  0  0
  141.0880   70.5910  227.6920 C   0  0  0  0  0  0  0  0  0  0  0  0
  141.0820   71.5120  226.6580 C   0  0  0  0  0  0  0  0  0  0  0  0
  140.5940   71.2320  225.4130 C   0  0  0  0  0  0  0  0  0  0  0  0
  140.6030   72.1560  224.4270 N   0  0  0  0  0  0  0  0  0  0  0  0
  138.7260   74.1950  222.9620 H   0  0  0  0  0  0  0  0  0  0  0  0
  139.0375   74.2977  220.1018 H   0  0  0  0  0  0  0  0  0  0  0  0
  138.6888   75.7135  221.1936 H   0  0  0  0  0  0  0  0  0  0  0  0
  140.6358   73.3380  218.4882 H   0  0  0  0  0  0  0  0  0  0  0  0
  140.2388   74.9571  217.9741 H   0  0  0  0  0  0  0  0  0  0  0  0
  142.2451   73.7136  216.7302 H   0  0  0  0  0  0  0  0  0  0  0  0
  142.5744   75.3596  217.1998 H   0  0  0  0  0  0  0  0  0  0  0  0
  144.3788   73.9206  218.2910 H   0  0  0  0  0  0  0  0  0  0  0  0
  142.3790   72.3780  219.5590 H   0  0  0  0  0  0  0  0  0  0  0  0
  143.1760   74.1970  220.8075 H   0  0  0  0  0  0  0  0  0  0  0  0
  144.4115   76.0115  220.5800 H   0  0  0  0  0  0  0  0  0  0  0  0
  144.1919   75.9948  218.7726 H   0  0  0  0  0  0  0  0  0  0  0  0
  142.8560   77.3810  220.7670 H   0  0  0  0  0  0  0  0  0  0  0  0
  139.2192   70.3689  221.9941 H   0  0  0  0  0  0  0  0  0  0  0  0
  139.1744   68.6281  223.7588 H   0  0  0  0  0  0  0  0  0  0  0  0
  139.6611   67.9980  226.0043 H   0  0  0  0  0  0  0  0  0  0  0  0
  141.4875   70.8447  228.6850 H   0  0  0  0  0  0  0  0  0  0  0  0
  141.4892   72.5161  226.8479 H   0  0  0  0  0  0  0  0  0  0  0  0
  1  2  2  0
  2  3  1  0
  3  4  1  0
  4  5  1  0
  5  6  2  0
  5  7  1  0
  7  8  1  0
  8  9  1  0
  9 10  1  0
 10 11  1  0
 10 12  1  0
 12 13  1  0
 13 14  1  0
  2 15  1  0
 15 16  2  0
 16 17  1  0
 17 18  2  0
 18 19  1  0
 19 20  2  0
 20 21  1  0
 20 22  1  0
 22 23  2  0
 23 24  1  0
 24 25  2  0
 12  7  1  0
 25 15  1  0
 24 18  1  0
  3 26  1  0
  4 27  1  0
  4 28  1  0
  8 29  1  0
  8 30  1  0
  9 31  1  0
  9 32  1  0
 10 33  1  6
 11 34  1  0
 12 35  1  1
 13 36  1  0
 13 37  1  0
 14 38  1  0
 16 39  1  0
 17 40  1  0
 19 41  1  0
 22 42  1  0
 23 43  1  0
M  END
>  <smiles>  (21) 
O=C(NCC(=O)N1CC[C@H](O)[C@H]1CO)c1ccc2cc(Cl)ccc2n1

>  <score_type>  (21) 
oracle

>  <origin>  (21) 
autodockgpu

>  <m_score__min__energy>  (21) 
-7.2300000000000004

>  <m_primary>  (21) 
energy

>  <rmsd>  (21) 
2.241693288516979

>  <m_score__min__rmsd>  (21) 
2.241693288516979

>  <meeko>  (21) 
{"free_energy": -5.71, "intermolecular_energy": -7.8, "internal_energy": -2.26, "cluster_size": 7, "cluster_id": 3, "rank_in_cluster": 4}

>  <energy>  (21) 
-5.97

>  <cluster_rmsd>  (21) 
1.66

>  <cluster>  (21) 
1

$$$$

     RDKit          3D

 43 45  0  0  0  0  0  0  0  0999 V2000
  141.0910   72.6540  221.1190 O   0  0  0  0  0  0  0  0  0  0  0  0
  140.3050   72.8130  222.1080 C   0  0  0  0  0  0  0  0  0  0  0  0
  139.4770   73.9690  222.0550 N   0  0  0  0  0  0  0  0  0  0  0  0
  139.5930   74.8350  220.9250 C   0  0  0  0  0  0  0  0  0  0  0  0
  140.7310   75.7740  221.0350 C   0  0  0  0  0  0  0  0  0  0  0  0
  141.3800   75.7680  222.1120 O   0  0  0  0  0  0  0  0  0  0  0  0
  141.0300   76.6220  219.9370 N   0  0  0  0  0  0  0  0  0  0  0  0
  140.3490   76.6730  218.6510 C   0  0  0  0  0  0  0  0  0  0  0  0
  140.7310   78.0380  218.1460 C   0  0  0  0  0  0  0  0  0  0  0  0
  142.1970   78.1180  218.5430 C   0  0  2  0  0  0  0  0  0  0  0  0
  142.9660   77.2310  217.7780 O   0  0  0  0  0  0  0  0  0  0  0  0
  142.1120   77.5920  219.9710 C   0  0  1  0  0  0  0  0  0  0  0  0
  141.7950   78.7750  220.8540 C   0  0  0  0  0  0  0  0  0  0  0  0
  141.6930   78.4320  222.1900 O   0  0  0  0  0  0  0  0  0  0  0  0
  140.2610   71.8670  223.2210 C   0  0  0  0  0  0  0  0  0  0  0  0
  139.7280   70.6240  222.9840 C   0  0  0  0  0  0  0  0  0  0  0  0
  139.6340   69.6490  223.9570 C   0  0  0  0  0  0  0  0  0  0  0  0
  140.1040   69.9640  225.2080 C   0  0  0  0  0  0  0  0  0  0  0  0
  140.0260   69.0140  226.2030 C   0  0  0  0  0  0  0  0  0  0  0  0
  140.4930   69.3310  227.4430 C   0  0  0  0  0  0  0  0  0  0  0  0
  140.4110   68.1490  228.7320 Cl  0  0  0  0  0  0  0  0  0  0  0  0
  141.0420   70.5770  227.7300 C   0  0  0  0  0  0  0  0  0  0  0  0
  141.0970   71.4950  226.6950 C   0  0  0  0  0  0  0  0  0  0  0  0
  140.6430   71.2260  225.4360 C   0  0  0  0  0  0  0  0  0  0  0  0
  140.7110   72.1470  224.4480 N   0  0  0  0  0  0  0  0  0  0  0  0
  138.8150   74.1480  222.8380 H   0  0  0  0  0  0  0  0  0  0  0  0
  139.7313   74.2197  220.0237 H   0  0  0  0  0  0  0  0  0  0  0  0
  138.6728   75.4355  220.8729 H   0  0  0  0  0  0  0  0  0  0  0  0
  140.7097   75.8824  217.9766 H   0  0  0  0  0  0  0  0  0  0  0  0
  139.2626   76.5142  218.7188 H   0  0  0  0  0  0  0  0  0  0  0  0
  140.6069   78.1107  217.0554 H   0  0  0  0  0  0  0  0  0  0  0  0
  140.1141   78.8524  218.5538 H   0  0  0  0  0  0  0  0  0  0  0  0
  142.6511   79.1120  218.4177 H   0  0  0  0  0  0  0  0  0  0  0  0
  143.5800   77.7290  217.1730 H   0  0  0  0  0  0  0  0  0  0  0  0
  143.0293   77.1211  220.3543 H   0  0  0  0  0  0  0  0  0  0  0  0
  142.5950   79.5217  220.7425 H   0  0  0  0  0  0  0  0  0  0  0  0
  140.8196   79.1734  220.5380 H   0  0  0  0  0  0  0  0  0  0  0  0
  142.1590   77.5660  222.3160 H   0  0  0  0  0  0  0  0  0  0  0  0
  139.3593   70.3947  221.9733 H   0  0  0  0  0  0  0  0  0  0  0  0
  139.2009   68.6616  223.7392 H   0  0  0  0  0  0  0  0  0  0  0  0
  139.5963   68.0218  226.0007 H   0  0  0  0  0  0  0  0  0  0  0  0
  141.4159   70.8219  228.7351 H   0  0  0  0  0  0  0  0  0  0  0  0
  141.5266   72.4874  226.8966 H   0  0  0  0  0  0  0  0  0  0  0  0
  1  2  2  0
  2  3  1  0
  3  4  1  0
  4  5  1  0
  5  6  2  0
  5  7  1  0
  7  8  1  0
  8  9  1  0
  9 10  1  0
 10 11  1  0
 10 12  1  0
 12 13  1  0
 13 14  1  0
  2 15  1  0
 15 16  2  0
 16 17  1  0
 17 18  2  0
 18 19  1  0
 19 20  2  0
 20 21  1  0
 20 22  1  0
 22 23  2  0
 23 24  1  0
 24 25  2  0
 12  7  1  0
 25 15  1  0
 24 18  1  0
  3 26  1  0
  4 27  1  0
  4 28  1  0
  8 29  1  0
  8 30  1  0
  9 31  1  0
  9 32  1  0
 10 33  1  1
 11 34  1  0
 12 35  1  1
 13 36  1  0
 13 37  1  0
 14 38  1  0
 16 39  1  0
 17 40  1  0
 19 41  1  0
 22 42  1  0
 23 43  1  0
M  END
>  <smiles>  (22) 
O=C(NCC(=O)N1CC[C@H](O)[C@H]1CO)c1ccc2cc(Cl)ccc2n1

>  <score_type>  (22) 
oracle

>  <origin>  (22) 
autodockgpu

>  <m_score__min__energy>  (22) 
-7.2300000000000004

>  <m_primary>  (22) 
energy

>  <rmsd>  (22) 
1.9503183905896655

>  <m_score__min__rmsd>  (22) 
1.9503183905896655

>  <meeko>  (22) 
{"free_energy": -6.24, "intermolecular_energy": -8.33, "internal_energy": -1.59, "cluster_size": 7, "cluster_id": 3, "rank_in_cluster": 3}

>  <energy>  (22) 
-5.79

>  <cluster_rmsd>  (22) 
1.44

>  <cluster>  (22) 
1

$$$$

     RDKit          3D

 43 45  0  0  0  0  0  0  0  0999 V2000
  140.3300   72.3990  220.8760 O   0  0  0  0  0  0  0  0  0  0  0  0
  140.0100   72.7450  222.0580 C   0  0  0  0  0  0  0  0  0  0  0  0
  139.5950   74.0980  222.2110 N   0  0  0  0  0  0  0  0  0  0  0  0
  139.5730   74.9350  221.0540 C   0  0  0  0  0  0  0  0  0  0  0  0
  140.2830   76.2170  221.2590 C   0  0  0  0  0  0  0  0  0  0  0  0
  140.3550   76.6530  222.4370 O   0  0  0  0  0  0  0  0  0  0  0  0
  140.8380   76.8820  220.1350 N   0  0  0  0  0  0  0  0  0  0  0  0
  140.6980   76.5120  218.7340 C   0  0  0  0  0  0  0  0  0  0  0  0
  141.0220   77.8030  218.0330 C   0  0  0  0  0  0  0  0  0  0  0  0
  142.1940   78.3180  218.8540 C   0  0  2  0  0  0  0  0  0  0  0  0
  143.3260   77.5170  218.6570 O   0  0  0  0  0  0  0  0  0  0  0  0
  141.6560   78.0760  220.2590 C   0  0  1  0  0  0  0  0  0  0  0  0
  140.8430   79.2930  220.6330 C   0  0  0  0  0  0  0  0  0  0  0  0
  140.5820   79.3650  221.9890 O   0  0  0  0  0  0  0  0  0  0  0  0
  140.0670   71.8100  223.1800 C   0  0  0  0  0  0  0  0  0  0  0  0
  139.5920   70.5380  222.9780 C   0  0  0  0  0  0  0  0  0  0  0  0
  139.5940   69.5700  223.9620 C   0  0  0  0  0  0  0  0  0  0  0  0
  140.1010   69.9240  225.1890 C   0  0  0  0  0  0  0  0  0  0  0  0
  140.1180   68.9820  226.1940 C   0  0  0  0  0  0  0  0  0  0  0  0
  140.6210   69.3370  227.4090 C   0  0  0  0  0  0  0  0  0  0  0  0
  140.6610   68.1670  228.7100 Cl  0  0  0  0  0  0  0  0  0  0  0  0
  141.1140   70.6140  227.6610 C   0  0  0  0  0  0  0  0  0  0  0  0
  141.0740   71.5220  226.6160 C   0  0  0  0  0  0  0  0  0  0  0  0
  140.5800   71.2160  225.3810 C   0  0  0  0  0  0  0  0  0  0  0  0
  140.5540   72.1280  224.3840 N   0  0  0  0  0  0  0  0  0  0  0  0
  139.3220   74.4340  223.1570 H   0  0  0  0  0  0  0  0  0  0  0  0
  140.0518   74.3973  220.2223 H   0  0  0  0  0  0  0  0  0  0  0  0
  138.5209   75.1707  220.8362 H   0  0  0  0  0  0  0  0  0  0  0  0
  141.4080   75.7186  218.4577 H   0  0  0  0  0  0  0  0  0  0  0  0
  139.7072   76.1072  218.4801 H   0  0  0  0  0  0  0  0  0  0  0  0
  141.3123   77.6285  216.9864 H   0  0  0  0  0  0  0  0  0  0  0  0
  140.1758   78.5036  217.9768 H   0  0  0  0  0  0  0  0  0  0  0  0
  142.4982   79.3491  218.6211 H   0  0  0  0  0  0  0  0  0  0  0  0
  143.9010   77.5140  219.4690 H   0  0  0  0  0  0  0  0  0  0  0  0
  142.4210   77.9303  221.0359 H   0  0  0  0  0  0  0  0  0  0  0  0
  141.3994   80.1934  220.3335 H   0  0  0  0  0  0  0  0  0  0  0  0
  139.8768   79.2196  220.1124 H   0  0  0  0  0  0  0  0  0  0  0  0
  140.5120   78.4390  222.3330 H   0  0  0  0  0  0  0  0  0  0  0  0
  139.1916   70.2783  221.9869 H   0  0  0  0  0  0  0  0  0  0  0  0
  139.2062   68.5583  223.7720 H   0  0  0  0  0  0  0  0  0  0  0  0
  139.7340   67.9661  226.0192 H   0  0  0  0  0  0  0  0  0  0  0  0
  141.5175   70.8898  228.6465 H   0  0  0  0  0  0  0  0  0  0  0  0
  141.4586   72.5379  226.7895 H   0  0  0  0  0  0  0  0  0  0  0  0
  1  2  2  0
  2  3  1  0
  3  4  1  0
  4  5  1  0
  5  6  2  0
  5  7  1  0
  7  8  1  0
  8  9  1  0
  9 10  1  0
 10 11  1  0
 10 12  1  0
 12 13  1  0
 13 14  1  0
  2 15  1  0
 15 16  2  0
 16 17  1  0
 17 18  2  0
 18 19  1  0
 19 20  2  0
 20 21  1  0
 20 22  1  0
 22 23  2  0
 23 24  1  0
 24 25  2  0
 12  7  1  0
 25 15  1  0
 24 18  1  0
  3 26  1  0
  4 27  1  0
  4 28  1  0
  8 29  1  0
  8 30  1  0
  9 31  1  0
  9 32  1  0
 10 33  1  1
 11 34  1  0
 12 35  1  1
 13 36  1  0
 13 37  1  0
 14 38  1  0
 16 39  1  0
 17 40  1  0
 19 41  1  0
 22 42  1  0
 23 43  1  0
M  END
>  <smiles>  (23) 
O=C(NCC(=O)N1CC[C@H](O)[C@H]1CO)c1ccc2cc(Cl)ccc2n1

>  <score_type>  (23) 
oracle

>  <origin>  (23) 
autodockgpu

>  <m_score__min__energy>  (23) 
-7.2300000000000004

>  <m_primary>  (23) 
energy

>  <rmsd>  (23) 
2.084012410890854

>  <m_score__min__rmsd>  (23) 
2.084012410890854

>  <meeko>  (23) 
{"free_energy": -6.02, "intermolecular_energy": -8.11, "internal_energy": -1.84, "cluster_size": 7, "cluster_id": 2, "rank_in_cluster": 7}

>  <energy>  (23) 
-5.35

>  <cluster_rmsd>  (23) 
1.41

>  <cluster>  (23) 
1

$$$$

     RDKit          3D

 43 45  0  0  0  0  0  0  0  0999 V2000
  139.9800   74.0100  222.3380 O   0  0  0  0  0  0  0  0  0  0  0  0
  140.3530   72.7980  222.2230 C   0  0  0  0  0  0  0  0  0  0  0  0
  140.8260   72.4190  220.9360 N   0  0  0  0  0  0  0  0  0  0  0  0
  140.8440   73.4050  219.9030 C   0  0  0  0  0  0  0  0  0  0  0  0
  141.9140   73.1750  218.9070 C   0  0  0  0  0  0  0  0  0  0  0  0
  141.5700   73.1000  217.6990 O   0  0  0  0  0  0  0  0  0  0  0  0
  143.2540   73.0500  219.3560 N   0  0  0  0  0  0  0  0  0  0  0  0
  143.9710   73.9450  220.2530 C   0  0  0  0  0  0  0  0  0  0  0  0
  145.0840   73.0660  220.7540 C   0  0  0  0  0  0  0  0  0  0  0  0
  145.4910   72.3290  219.4880 C   0  0  2  0  0  0  0  0  0  0  0  0
  146.1110   73.2010  218.5850 O   0  0  0  0  0  0  0  0  0  0  0  0
  144.1160   71.9540  218.9480 C   0  0  1  0  0  0  0  0  0  0  0  0
  143.7310   70.6470  219.6000 C   0  0  0  0  0  0  0  0  0  0  0  0
  142.3910   70.3440  219.4380 O   0  0  0  0  0  0  0  0  0  0  0  0
  140.2970   71.8630  223.3450 C   0  0  0  0  0  0  0  0  0  0  0  0
  139.8140   70.6010  223.1030 C   0  0  0  0  0  0  0  0  0  0  0  0
  139.7130   69.6340  224.0830 C   0  0  0  0  0  0  0  0  0  0  0  0
  140.1230   69.9780  225.3480 C   0  0  0  0  0  0  0  0  0  0  0  0
  140.0360   69.0370  226.3510 C   0  0  0  0  0  0  0  0  0  0  0  0
  140.4430   69.3830  227.6040 C   0  0  0  0  0  0  0  0  0  0  0  0
  140.3490   68.2130  228.9030 Cl  0  0  0  0  0  0  0  0  0  0  0  0
  140.9400   70.6500  227.8970 C   0  0  0  0  0  0  0  0  0  0  0  0
  141.0060   71.5570  226.8530 C   0  0  0  0  0  0  0  0  0  0  0  0
  140.6110   71.2600  225.5810 C   0  0  0  0  0  0  0  0  0  0  0  0
  140.6890   72.1720  224.5860 N   0  0  0  0  0  0  0  0  0  0  0  0
  141.1440   71.4400  220.7870 H   0  0  0  0  0  0  0  0  0  0  0  0
  139.8734   73.3892  219.3856 H   0  0  0  0  0  0  0  0  0  0  0  0
  141.0384   74.3779  220.3781 H   0  0  0  0  0  0  0  0  0  0  0  0
  144.3648   74.8191  219.7137 H   0  0  0  0  0  0  0  0  0  0  0  0
  143.3439   74.3639  221.0538 H   0  0  0  0  0  0  0  0  0  0  0  0
  145.9163   73.6629  221.1552 H   0  0  0  0  0  0  0  0  0  0  0  0
  144.7904   72.4028  221.5810 H   0  0  0  0  0  0  0  0  0  0  0  0
  146.1928   71.4974  219.6488 H   0  0  0  0  0  0  0  0  0  0  0  0
  146.0130   74.1460  218.8840 H   0  0  0  0  0  0  0  0  0  0  0  0
  144.0609   71.8159  217.8581 H   0  0  0  0  0  0  0  0  0  0  0  0
  144.3307   69.8406  219.1528 H   0  0  0  0  0  0  0  0  0  0  0  0
  143.9214   70.7451  220.6789 H   0  0  0  0  0  0  0  0  0  0  0  0
  142.0200   70.9680  218.7630 H   0  0  0  0  0  0  0  0  0  0  0  0
  139.4928   70.3488  222.0816 H   0  0  0  0  0  0  0  0  0  0  0  0
  139.3209   68.6307  223.8603 H   0  0  0  0  0  0  0  0  0  0  0  0
  139.6466   68.0292  226.1444 H   0  0  0  0  0  0  0  0  0  0  0  0
  141.2658   70.9185  228.9128 H   0  0  0  0  0  0  0  0  0  0  0  0
  141.3954   72.5650  227.0587 H   0  0  0  0  0  0  0  0  0  0  0  0
  1  2  2  0
  2  3  1  0
  3  4  1  0
  4  5  1  0
  5  6  2  0
  5  7  1  0
  7  8  1  0
  8  9  1  0
  9 10  1  0
 10 11  1  0
 10 12  1  0
 12 13  1  0
 13 14  1  0
  2 15  1  0
 15 16  2  0
 16 17  1  0
 17 18  2  0
 18 19  1  0
 19 20  2  0
 20 21  1  0
 20 22  1  0
 22 23  2  0
 23 24  1  0
 24 25  2  0
 12  7  1  0
 25 15  1  0
 24 18  1  0
  3 26  1  0
  4 27  1  0
  4 28  1  0
  8 29  1  0
  8 30  1  0
  9 31  1  0
  9 32  1  0
 10 33  1  1
 11 34  1  0
 12 35  1  6
 13 36  1  0
 13 37  1  0
 14 38  1  0
 16 39  1  0
 17 40  1  0
 19 41  1  0
 22 42  1  0
 23 43  1  0
M  END
>  <smiles>  (24) 
O=C(NCC(=O)N1CC[C@H](O)[C@H]1CO)c1ccc2cc(Cl)ccc2n1

>  <score_type>  (24) 
oracle

>  <origin>  (24) 
autodockgpu

>  <m_score__min__energy>  (24) 
-7.2300000000000004

>  <m_primary>  (24) 
energy

>  <rmsd>  (24) 
4.189227405066957

>  <m_score__min__rmsd>  (24) 
4.189227405066957

>  <meeko>  (24) 
{"free_energy": -6.64, "intermolecular_energy": -8.73, "internal_energy": -2.06, "cluster_size": 23, "cluster_id": 1, "rank_in_cluster": 8}

>  <energy>  (24) 
-6.67

>  <cluster_rmsd>  (24) 
0.0

>  <cluster>  (24) 
2

$$$$

     RDKit          3D

 43 45  0  0  0  0  0  0  0  0999 V2000
  141.1670   71.2960  221.8450 O   0  0  0  0  0  0  0  0  0  0  0  0
  140.7710   72.4330  222.2600 C   0  0  0  0  0  0  0  0  0  0  0  0
  139.9940   72.4150  223.4520 N   0  0  0  0  0  0  0  0  0  0  0  0
  139.7290   71.1560  224.0700 C   0  0  0  0  0  0  0  0  0  0  0  0
  140.2980   71.0530  225.4320 C   0  0  0  0  0  0  0  0  0  0  0  0
  140.7190   72.1130  225.9610 O   0  0  0  0  0  0  0  0  0  0  0  0
  140.3420   69.7830  226.0640 N   0  0  0  0  0  0  0  0  0  0  0  0
  141.4110   68.7970  225.9880 C   0  0  0  0  0  0  0  0  0  0  0  0
  141.1530   67.9580  227.2100 C   0  0  0  0  0  0  0  0  0  0  0  0
  139.6370   67.8410  227.1930 C   0  0  2  0  0  0  0  0  0  0  0  0
  139.2130   67.0440  226.1230 O   0  0  0  0  0  0  0  0  0  0  0  0
  139.2650   69.2910  226.9070 C   0  0  1  0  0  0  0  0  0  0  0  0
  139.2090   70.0010  228.2390 C   0  0  0  0  0  0  0  0  0  0  0  0
  140.1840   70.9740  228.3670 O   0  0  0  0  0  0  0  0  0  0  0  0
  141.0980   73.6700  221.5530 C   0  0  0  0  0  0  0  0  0  0  0  0
  141.8270   73.5720  220.3950 C   0  0  0  0  0  0  0  0  0  0  0  0
  142.1940   74.6700  219.6430 C   0  0  0  0  0  0  0  0  0  0  0  0
  141.7970   75.9040  220.0990 C   0  0  0  0  0  0  0  0  0  0  0  0
  142.1460   77.0210  219.3730 C   0  0  0  0  0  0  0  0  0  0  0  0
  141.7500   78.2420  219.8290 C   0  0  0  0  0  0  0  0  0  0  0  0
  142.1740   79.6850  218.9320 Cl  0  0  0  0  0  0  0  0  0  0  0  0
  141.0090   78.3910  220.9970 C   0  0  0  0  0  0  0  0  0  0  0  0
  140.6850   77.2360  221.6880 C   0  0  0  0  0  0  0  0  0  0  0  0
  141.0570   75.9900  221.2740 C   0  0  0  0  0  0  0  0  0  0  0  0
  140.7240   74.8830  221.9750 N   0  0  0  0  0  0  0  0  0  0  0  0
  139.6450   73.3180  223.8350 H   0  0  0  0  0  0  0  0  0  0  0  0
  138.6395   71.0183  224.1333 H   0  0  0  0  0  0  0  0  0  0  0  0
  140.2043   70.3787  223.4536 H   0  0  0  0  0  0  0  0  0  0  0  0
  141.3365   68.1973  225.0689 H   0  0  0  0  0  0  0  0  0  0  0  0
  142.4184   69.2377  225.9582 H   0  0  0  0  0  0  0  0  0  0  0  0
  141.6318   66.9712  227.1266 H   0  0  0  0  0  0  0  0  0  0  0  0
  141.5561   68.3881  228.1387 H   0  0  0  0  0  0  0  0  0  0  0  0
  139.2025   67.3978  228.1012 H   0  0  0  0  0  0  0  0  0  0  0  0
  139.7140   67.2720  225.2940 H   0  0  0  0  0  0  0  0  0  0  0  0
  138.2963   69.4370  226.4068 H   0  0  0  0  0  0  0  0  0  0  0  0
  138.2222   70.4758  228.3434 H   0  0  0  0  0  0  0  0  0  0  0  0
  139.3843   69.2499  229.0233 H   0  0  0  0  0  0  0  0  0  0  0  0
  139.9990   71.6770  227.6940 H   0  0  0  0  0  0  0  0  0  0  0  0
  142.1329   72.5733  220.0501 H   0  0  0  0  0  0  0  0  0  0  0  0
  142.7794   74.5617  218.7180 H   0  0  0  0  0  0  0  0  0  0  0  0
  142.7312   76.9293  218.4461 H   0  0  0  0  0  0  0  0  0  0  0  0
  140.6946   79.3823  221.3554 H   0  0  0  0  0  0  0  0  0  0  0  0
  140.0998   77.3269  222.6150 H   0  0  0  0  0  0  0  0  0  0  0  0
  1  2  2  0
  2  3  1  0
  3  4  1  0
  4  5  1  0
  5  6  2  0
  5  7  1  0
  7  8  1  0
  8  9  1  0
  9 10  1  0
 10 11  1  0
 10 12  1  0
 12 13  1  0
 13 14  1  0
  2 15  1  0
 15 16  2  0
 16 17  1  0
 17 18  2  0
 18 19  1  0
 19 20  2  0
 20 21  1  0
 20 22  1  0
 22 23  2  0
 23 24  1  0
 24 25  2  0
 12  7  1  0
 25 15  1  0
 24 18  1  0
  3 26  1  0
  4 27  1  0
  4 28  1  0
  8 29  1  0
  8 30  1  0
  9 31  1  0
  9 32  1  0
 10 33  1  1
 11 34  1  0
 12 35  1  6
 13 36  1  0
 13 37  1  0
 14 38  1  0
 16 39  1  0
 17 40  1  0
 19 41  1  0
 22 42  1  0
 23 43  1  0
M  END
>  <smiles>  (25) 
O=C(NCC(=O)N1CC[C@H](O)[C@H]1CO)c1ccc2cc(Cl)ccc2n1

>  <score_type>  (25) 
oracle

>  <origin>  (25) 
autodockgpu

>  <m_score__min__energy>  (25) 
-7.2300000000000004

>  <m_primary>  (25) 
energy

>  <rmsd>  (25) 
9.215725446162734

>  <m_score__min__rmsd>  (25) 
9.215725446162734

>  <meeko>  (25) 
{"free_energy": -6.18, "intermolecular_energy": -8.27, "internal_energy": -1.84, "cluster_size": 5, "cluster_id": 4, "rank_in_cluster": 5}

>  <energy>  (25) 
-6.66

>  <cluster_rmsd>  (25) 
1.2

>  <cluster>  (25) 
2

$$$$

     RDKit          3D

 43 45  0  0  0  0  0  0  0  0999 V2000
  139.1990   73.3510  221.9050 O   0  0  0  0  0  0  0  0  0  0  0  0
  140.2600   72.7930  222.3330 C   0  0  0  0  0  0  0  0  0  0  0  0
  141.4590   73.1490  221.6550 N   0  0  0  0  0  0  0  0  0  0  0  0
  141.3770   74.0810  220.5760 C   0  0  0  0  0  0  0  0  0  0  0  0
  142.1840   73.6760  219.4040 C   0  0  0  0  0  0  0  0  0  0  0  0
  141.5720   73.4870  218.3220 O   0  0  0  0  0  0  0  0  0  0  0  0
  143.5860   73.5220  219.5560 N   0  0  0  0  0  0  0  0  0  0  0  0
  144.5160   74.4630  220.1640 C   0  0  0  0  0  0  0  0  0  0  0  0
  145.6840   73.5780  220.5030 C   0  0  0  0  0  0  0  0  0  0  0  0
  145.7700   72.6910  219.2710 C   0  0  2  0  0  0  0  0  0  0  0  0
  146.1980   73.4280  218.1590 O   0  0  0  0  0  0  0  0  0  0  0  0
  144.2970   72.3410  219.0950 C   0  0  1  0  0  0  0  0  0  0  0  0
  144.0280   71.1350  219.9620 C   0  0  0  0  0  0  0  0  0  0  0  0
  143.6480   71.4740  221.2480 O   0  0  0  0  0  0  0  0  0  0  0  0
  140.2410   71.8480  223.4490 C   0  0  0  0  0  0  0  0  0  0  0  0
  139.7210   70.5980  223.2210 C   0  0  0  0  0  0  0  0  0  0  0  0
  139.6500   69.6240  224.1960 C   0  0  0  0  0  0  0  0  0  0  0  0
  140.1290   69.9490  225.4420 C   0  0  0  0  0  0  0  0  0  0  0  0
  140.0730   69.0010  226.4400 C   0  0  0  0  0  0  0  0  0  0  0  0
  140.5490   69.3270  227.6740 C   0  0  0  0  0  0  0  0  0  0  0  0
  140.4960   68.1470  228.9670 Cl  0  0  0  0  0  0  0  0  0  0  0  0
  141.0850   70.5810  227.9530 C   0  0  0  0  0  0  0  0  0  0  0  0
  141.1170   71.4960  226.9150 C   0  0  0  0  0  0  0  0  0  0  0  0
  140.6530   71.2190  225.6610 C   0  0  0  0  0  0  0  0  0  0  0  0
  140.7000   72.1380  224.6710 N   0  0  0  0  0  0  0  0  0  0  0  0
  142.3560   72.7220  221.9650 H   0  0  0  0  0  0  0  0  0  0  0  0
  140.3253   74.1670  220.2654 H   0  0  0  0  0  0  0  0  0  0  0  0
  141.7765   75.0403  220.9368 H   0  0  0  0  0  0  0  0  0  0  0  0
  144.8059   75.2524  219.4549 H   0  0  0  0  0  0  0  0  0  0  0  0
  144.1005   74.9983  221.0305 H   0  0  0  0  0  0  0  0  0  0  0  0
  146.6046   74.1645  220.6394 H   0  0  0  0  0  0  0  0  0  0  0  0
  145.5633   73.0222  221.4445 H   0  0  0  0  0  0  0  0  0  0  0  0
  146.4626   71.8418  219.3665 H   0  0  0  0  0  0  0  0  0  0  0  0
  145.5900   74.1980  217.9920 H   0  0  0  0  0  0  0  0  0  0  0  0
  143.9919   72.0929  218.0677 H   0  0  0  0  0  0  0  0  0  0  0  0
  143.2226   70.5438  219.5018 H   0  0  0  0  0  0  0  0  0  0  0  0
  144.9646   70.5625  220.0332 H   0  0  0  0  0  0  0  0  0  0  0  0
  144.4140   71.2840  221.8480 H   0  0  0  0  0  0  0  0  0  0  0  0
  139.3437   70.3621  222.2150 H   0  0  0  0  0  0  0  0  0  0  0  0
  139.2281   68.6303  223.9847 H   0  0  0  0  0  0  0  0  0  0  0  0
  139.6533   68.0031  226.2448 H   0  0  0  0  0  0  0  0  0  0  0  0
  141.4661   70.8334  228.9535 H   0  0  0  0  0  0  0  0  0  0  0  0
  141.5363   72.4942  227.1096 H   0  0  0  0  0  0  0  0  0  0  0  0
  1  2  2  0
  2  3  1  0
  3  4  1  0
  4  5  1  0
  5  6  2  0
  5  7  1  0
  7  8  1  0
  8  9  1  0
  9 10  1  0
 10 11  1  0
 10 12  1  0
 12 13  1  0
 13 14  1  0
  2 15  1  0
 15 16  2  0
 16 17  1  0
 17 18  2  0
 18 19  1  0
 19 20  2  0
 20 21  1  0
 20 22  1  0
 22 23  2  0
 23 24  1  0
 24 25  2  0
 12  7  1  0
 25 15  1  0
 24 18  1  0
  3 26  1  0
  4 27  1  0
  4 28  1  0
  8 29  1  0
  8 30  1  0
  9 31  1  0
  9 32  1  0
 10 33  1  1
 11 34  1  0
 12 35  1  6
 13 36  1  0
 13 37  1  0
 14 38  1  0
 16 39  1  0
 17 40  1  0
 19 41  1  0
 22 42  1  0
 23 43  1  0
M  END
>  <smiles>  (26) 
O=C(NCC(=O)N1CC[C@H](O)[C@H]1CO)c1ccc2cc(Cl)ccc2n1

>  <score_type>  (26) 
oracle

>  <origin>  (26) 
autodockgpu

>  <m_score__min__energy>  (26) 
-7.2300000000000004

>  <m_primary>  (26) 
energy

>  <rmsd>  (26) 
4.14330972006138

>  <m_score__min__rmsd>  (26) 
4.14330972006138

>  <meeko>  (26) 
{"free_energy": -6.75, "intermolecular_energy": -8.84, "internal_energy": -1.76, "cluster_size": 23, "cluster_id": 1, "rank_in_cluster": 5}

>  <energy>  (26) 
-6.65

>  <cluster_rmsd>  (26) 
1.81

>  <cluster>  (26) 
2

$$$$

     RDKit          3D

 43 45  0  0  0  0  0  0  0  0999 V2000
  140.9740   74.6720  221.9740 O   0  0  0  0  0  0  0  0  0  0  0  0
  140.7300   73.5210  221.4870 C   0  0  0  0  0  0  0  0  0  0  0  0
  140.7460   73.4390  220.0660 N   0  0  0  0  0  0  0  0  0  0  0  0
  141.0270   74.6250  219.3210 C   0  0  0  0  0  0  0  0  0  0  0  0
  142.3310   74.5700  218.6260 C   0  0  0  0  0  0  0  0  0  0  0  0
  142.3960   75.0920  217.4830 O   0  0  0  0  0  0  0  0  0  0  0  0
  143.4280   73.9400  219.2690 N   0  0  0  0  0  0  0  0  0  0  0  0
  144.1500   74.4110  220.4430 C   0  0  0  0  0  0  0  0  0  0  0  0
  144.7960   73.1470  220.9430 C   0  0  0  0  0  0  0  0  0  0  0  0
  145.2470   72.4940  219.6460 C   0  0  2  0  0  0  0  0  0  0  0  0
  146.2950   73.2200  219.0640 O   0  0  0  0  0  0  0  0  0  0  0  0
  143.9890   72.6830  218.8060 C   0  0  1  0  0  0  0  0  0  0  0  0
  143.0870   71.5080  219.0990 C   0  0  0  0  0  0  0  0  0  0  0  0
  141.9020   71.5540  218.3860 O   0  0  0  0  0  0  0  0  0  0  0  0
  140.4530   72.3650  222.3370 C   0  0  0  0  0  0  0  0  0  0  0  0
  139.8730   71.2660  221.7540 C   0  0  0  0  0  0  0  0  0  0  0  0
  139.5660   70.1170  222.4560 C   0  0  0  0  0  0  0  0  0  0  0  0
  139.8650   70.1030  223.7960 C   0  0  0  0  0  0  0  0  0  0  0  0
  139.5710   68.9730  224.5270 C   0  0  0  0  0  0  0  0  0  0  0  0
  139.8690   68.9620  225.8560 C   0  0  0  0  0  0  0  0  0  0  0  0
  139.5110   67.5430  226.8170 Cl  0  0  0  0  0  0  0  0  0  0  0  0
  140.4570   70.0530  226.4910 C   0  0  0  0  0  0  0  0  0  0  0  0
  140.7310   71.1630  225.7110 C   0  0  0  0  0  0  0  0  0  0  0  0
  140.4520   71.2230  224.3750 C   0  0  0  0  0  0  0  0  0  0  0  0
  140.7330   72.3240  223.6440 N   0  0  0  0  0  0  0  0  0  0  0  0
  140.5530   72.5210  219.6160 H   0  0  0  0  0  0  0  0  0  0  0  0
  140.2346   74.7648  218.5709 H   0  0  0  0  0  0  0  0  0  0  0  0
  141.0667   75.4620  220.0337 H   0  0  0  0  0  0  0  0  0  0  0  0
  144.9040   75.1649  220.1724 H   0  0  0  0  0  0  0  0  0  0  0  0
  143.5094   74.9056  221.1880 H   0  0  0  0  0  0  0  0  0  0  0  0
  145.6510   73.3667  221.5992 H   0  0  0  0  0  0  0  0  0  0  0  0
  144.1302   72.5168  221.5509 H   0  0  0  0  0  0  0  0  0  0  0  0
  145.6077   71.4606  219.7553 H   0  0  0  0  0  0  0  0  0  0  0  0
  146.0000   74.1420  218.8360 H   0  0  0  0  0  0  0  0  0  0  0  0
  144.1509   72.7204  217.7186 H   0  0  0  0  0  0  0  0  0  0  0  0
  143.6195   70.5817  218.8374 H   0  0  0  0  0  0  0  0  0  0  0  0
  142.8329   71.5427  220.1687 H   0  0  0  0  0  0  0  0  0  0  0  0
  141.9310   72.3540  217.8030 H   0  0  0  0  0  0  0  0  0  0  0  0
  139.6423   71.3021  220.6791 H   0  0  0  0  0  0  0  0  0  0  0  0
  139.1018   69.2502  221.9628 H   0  0  0  0  0  0  0  0  0  0  0  0
  139.1058   68.0989  224.0480 H   0  0  0  0  0  0  0  0  0  0  0  0
  140.6933   70.0335  227.5651 H   0  0  0  0  0  0  0  0  0  0  0  0
  141.1953   72.0380  226.1893 H   0  0  0  0  0  0  0  0  0  0  0  0
  1  2  2  0
  2  3  1  0
  3  4  1  0
  4  5  1  0
  5  6  2  0
  5  7  1  0
  7  8  1  0
  8  9  1  0
  9 10  1  0
 10 11  1  0
 10 12  1  0
 12 13  1  0
 13 14  1  0
  2 15  1  0
 15 16  2  0
 16 17  1  0
 17 18  2  0
 18 19  1  0
 19 20  2  0
 20 21  1  0
 20 22  1  0
 22 23  2  0
 23 24  1  0
 24 25  2  0
 12  7  1  0
 25 15  1  0
 24 18  1  0
  3 26  1  0
  4 27  1  0
  4 28  1  0
  8 29  1  0
  8 30  1  0
  9 31  1  0
  9 32  1  0
 10 33  1  1
 11 34  1  0
 12 35  1  6
 13 36  1  0
 13 37  1  0
 14 38  1  0
 16 39  1  0
 17 40  1  0
 19 41  1  0
 22 42  1  0
 23 43  1  0
M  END
>  <smiles>  (27) 
O=C(NCC(=O)N1CC[C@H](O)[C@H]1CO)c1ccc2cc(Cl)ccc2n1

>  <score_type>  (27) 
oracle

>  <origin>  (27) 
autodockgpu

>  <m_score__min__energy>  (27) 
-7.2300000000000004

>  <m_primary>  (27) 
energy

>  <rmsd>  (27) 
4.285527097606484

>  <m_score__min__rmsd>  (27) 
4.285527097606484

>  <meeko>  (27) 
{"free_energy": -5.79, "intermolecular_energy": -7.88, "internal_energy": -2.15, "cluster_size": 23, "cluster_id": 1, "rank_in_cluster": 22}

>  <energy>  (27) 
-6.54

>  <cluster_rmsd>  (27) 
0.49

>  <cluster>  (27) 
2

$$$$

     RDKit          3D

 43 45  0  0  0  0  0  0  0  0999 V2000
  140.6540   72.4240  220.8900 O   0  0  0  0  0  0  0  0  0  0  0  0
  140.2370   72.7750  222.0410 C   0  0  0  0  0  0  0  0  0  0  0  0
  139.8060   74.1260  222.1530 N   0  0  0  0  0  0  0  0  0  0  0  0
  139.8740   74.9580  220.9940 C   0  0  0  0  0  0  0  0  0  0  0  0
  141.1850   75.6270  220.8430 C   0  0  0  0  0  0  0  0  0  0  0  0
  142.1720   74.9000  220.5600 O   0  0  0  0  0  0  0  0  0  0  0  0
  141.2650   77.0320  221.0250 N   0  0  0  0  0  0  0  0  0  0  0  0
  141.7320   78.0200  220.0630 C   0  0  0  0  0  0  0  0  0  0  0  0
  141.1130   79.2870  220.5870 C   0  0  0  0  0  0  0  0  0  0  0  0
  141.3090   79.1330  222.0870 C   0  0  2  0  0  0  0  0  0  0  0  0
  142.6650   79.2380  222.4230 O   0  0  0  0  0  0  0  0  0  0  0  0
  140.8680   77.6840  222.2620 C   0  0  1  0  0  0  0  0  0  0  0  0
  139.3690   77.7020  222.4460 C   0  0  0  0  0  0  0  0  0  0  0  0
  138.8940   76.5650  223.0740 O   0  0  0  0  0  0  0  0  0  0  0  0
  140.2060   71.8450  223.1690 C   0  0  0  0  0  0  0  0  0  0  0  0
  139.6500   70.6070  222.9620 C   0  0  0  0  0  0  0  0  0  0  0  0
  139.5650   69.6470  223.9510 C   0  0  0  0  0  0  0  0  0  0  0  0
  140.0680   69.9730  225.1860 C   0  0  0  0  0  0  0  0  0  0  0  0
  140.0000   69.0390  226.1970 C   0  0  0  0  0  0  0  0  0  0  0  0
  140.5000   69.3670  227.4200 C   0  0  0  0  0  0  0  0  0  0  0  0
  140.4320   68.2050  228.7280 Cl  0  0  0  0  0  0  0  0  0  0  0  0
  141.0730   70.6100  227.6770 C   0  0  0  0  0  0  0  0  0  0  0  0
  141.1160   71.5110  226.6270 C   0  0  0  0  0  0  0  0  0  0  0  0
  140.6290   71.2310  225.3830 C   0  0  0  0  0  0  0  0  0  0  0  0
  140.6880   72.1370  224.3810 N   0  0  0  0  0  0  0  0  0  0  0  0
  139.4550   74.4660  223.0720 H   0  0  0  0  0  0  0  0  0  0  0  0
  139.6922   74.3368  220.1046 H   0  0  0  0  0  0  0  0  0  0  0  0
  139.1127   75.7440  221.1062 H   0  0  0  0  0  0  0  0  0  0  0  0
  142.8301   78.0845  220.0580 H   0  0  0  0  0  0  0  0  0  0  0  0
  141.4566   77.7900  219.0232 H   0  0  0  0  0  0  0  0  0  0  0  0
  141.6356   80.1760  220.2042 H   0  0  0  0  0  0  0  0  0  0  0  0
  140.0639   79.4268  220.2873 H   0  0  0  0  0  0  0  0  0  0  0  0
  140.7788   79.8796  222.6964 H   0  0  0  0  0  0  0  0  0  0  0  0
  143.2190   78.6570  221.8350 H   0  0  0  0  0  0  0  0  0  0  0  0
  141.3071   77.1596  223.1235 H   0  0  0  0  0  0  0  0  0  0  0  0
  139.0997   78.5782  223.0540 H   0  0  0  0  0  0  0  0  0  0  0  0
  138.9123   77.7443  221.4462 H   0  0  0  0  0  0  0  0  0  0  0  0
  138.1300   76.2240  222.5440 H   0  0  0  0  0  0  0  0  0  0  0  0
  139.2544   70.3691  221.9635 H   0  0  0  0  0  0  0  0  0  0  0  0
  139.1134   68.6628  223.7574 H   0  0  0  0  0  0  0  0  0  0  0  0
  139.5516   68.0503  226.0197 H   0  0  0  0  0  0  0  0  0  0  0  0
  141.4733   70.8643  228.6695 H   0  0  0  0  0  0  0  0  0  0  0  0
  141.5641   72.5000  226.8036 H   0  0  0  0  0  0  0  0  0  0  0  0
  1  2  2  0
  2  3  1  0
  3  4  1  0
  4  5  1  0
  5  6  2  0
  5  7  1  0
  7  8  1  0
  8  9  1  0
  9 10  1  0
 10 11  1  0
 10 12  1  0
 12 13  1  0
 13 14  1  0
  2 15  1  0
 15 16  2  0
 16 17  1  0
 17 18  2  0
 18 19  1  0
 19 20  2  0
 20 21  1  0
 20 22  1  0
 22 23  2  0
 23 24  1  0
 24 25  2  0
 12  7  1  0
 25 15  1  0
 24 18  1  0
  3 26  1  0
  4 27  1  0
  4 28  1  0
  8 29  1  0
  8 30  1  0
  9 31  1  0
  9 32  1  0
 10 33  1  1
 11 34  1  0
 12 35  1  1
 13 36  1  0
 13 37  1  0
 14 38  1  0
 16 39  1  0
 17 40  1  0
 19 41  1  0
 22 42  1  0
 23 43  1  0
M  END
>  <smiles>  (28) 
O=C(NCC(=O)N1CC[C@H](O)[C@H]1CO)c1ccc2cc(Cl)ccc2n1

>  <score_type>  (28) 
oracle

>  <origin>  (28) 
autodockgpu

>  <m_score__min__energy>  (28) 
-7.2300000000000004

>  <m_primary>  (28) 
energy

>  <rmsd>  (28) 
3.289975667212513

>  <m_score__min__rmsd>  (28) 
3.289975667212513

>  <meeko>  (28) 
{"free_energy": -6.66, "intermolecular_energy": -8.75, "internal_energy": -1.45, "cluster_size": 7, "cluster_id": 2, "rank_in_cluster": 2}

>  <energy>  (28) 
-6.25

>  <cluster_rmsd>  (28) 
0.44

>  <cluster>  (28) 
2

$$$$

     RDKit          3D

 43 45  0  0  0  0  0  0  0  0999 V2000
  140.8820   73.9060  220.9260 O   0  0  0  0  0  0  0  0  0  0  0  0
  140.1320   73.8970  221.9550 C   0  0  0  0  0  0  0  0  0  0  0  0
  139.5230   75.1400  222.2820 N   0  0  0  0  0  0  0  0  0  0  0  0
  139.7960   76.2690  221.4500 C   0  0  0  0  0  0  0  0  0  0  0  0
  139.5760   77.5580  222.1410 C   0  0  0  0  0  0  0  0  0  0  0  0
  138.5060   77.6880  222.7900 O   0  0  0  0  0  0  0  0  0  0  0  0
  140.5660   78.5700  222.0400 N   0  0  0  0  0  0  0  0  0  0  0  0
  141.3440   78.9270  220.8620 C   0  0  0  0  0  0  0  0  0  0  0  0
  141.7960   80.3230  221.1930 C   0  0  0  0  0  0  0  0  0  0  0  0
  142.1520   80.1930  222.6660 C   0  0  2  0  0  0  0  0  0  0  0  0
  143.2970   79.4030  222.8310 O   0  0  0  0  0  0  0  0  0  0  0  0
  140.9390   79.4140  223.1620 C   0  0  1  0  0  0  0  0  0  0  0  0
  139.8730   80.4300  223.4960 C   0  0  0  0  0  0  0  0  0  0  0  0
  138.9440   80.5830  222.4820 O   0  0  0  0  0  0  0  0  0  0  0  0
  139.9160   72.6850  222.7440 C   0  0  0  0  0  0  0  0  0  0  0  0
  138.8470   71.8900  222.4150 C   0  0  0  0  0  0  0  0  0  0  0  0
  138.5430   70.7230  223.0880 C   0  0  0  0  0  0  0  0  0  0  0  0
  139.3670   70.3660  224.1280 C   0  0  0  0  0  0  0  0  0  0  0  0
  139.0930   69.2080  224.8210 C   0  0  0  0  0  0  0  0  0  0  0  0
  139.9120   68.8580  225.8520 C   0  0  0  0  0  0  0  0  0  0  0  0
  139.5970   67.3920  226.7550 Cl  0  0  0  0  0  0  0  0  0  0  0  0
  141.0080   69.6320  226.2210 C   0  0  0  0  0  0  0  0  0  0  0  0
  141.2380   70.7860  225.4920 C   0  0  0  0  0  0  0  0  0  0  0  0
  140.4480   71.1810  224.4510 C   0  0  0  0  0  0  0  0  0  0  0  0
  140.7020   72.3150  223.7600 N   0  0  0  0  0  0  0  0  0  0  0  0
  138.9000   75.1890  223.1140 H   0  0  0  0  0  0  0  0  0  0  0  0
  140.8455   76.2197  221.1243 H   0  0  0  0  0  0  0  0  0  0  0  0
  139.1014   76.2277  220.5980 H   0  0  0  0  0  0  0  0  0  0  0  0
  142.2014   78.2506  220.7299 H   0  0  0  0  0  0  0  0  0  0  0  0
  140.7790   78.8566  219.9208 H   0  0  0  0  0  0  0  0  0  0  0  0
  142.6713   80.6134  220.5934 H   0  0  0  0  0  0  0  0  0  0  0  0
  141.0430   81.0969  220.9830 H   0  0  0  0  0  0  0  0  0  0  0  0
  142.3568   81.1476  223.1728 H   0  0  0  0  0  0  0  0  0  0  0  0
  143.5420   78.9550  221.9760 H   0  0  0  0  0  0  0  0  0  0  0  0
  141.1097   78.7982  224.0574 H   0  0  0  0  0  0  0  0  0  0  0  0
  139.3493   80.1040  224.4067 H   0  0  0  0  0  0  0  0  0  0  0  0
  140.3718   81.4000  223.6384 H   0  0  0  0  0  0  0  0  0  0  0  0
  138.5170   79.7020  222.3300 H   0  0  0  0  0  0  0  0  0  0  0  0
  138.2031   72.1961  221.5773 H   0  0  0  0  0  0  0  0  0  0  0  0
  137.6781   70.1056  222.8036 H   0  0  0  0  0  0  0  0  0  0  0  0
  138.2323   68.5797  224.5483 H   0  0  0  0  0  0  0  0  0  0  0  0
  141.6627   69.3397  227.0552 H   0  0  0  0  0  0  0  0  0  0  0  0
  142.0984   71.4148  225.7645 H   0  0  0  0  0  0  0  0  0  0  0  0
  1  2  2  0
  2  3  1  0
  3  4  1  0
  4  5  1  0
  5  6  2  0
  5  7  1  0
  7  8  1  0
  8  9  1  0
  9 10  1  0
 10 11  1  0
 10 12  1  0
 12 13  1  0
 13 14  1  0
  2 15  1  0
 15 16  2  0
 16 17  1  0
 17 18  2  0
 18 19  1  0
 19 20  2  0
 20 21  1  0
 20 22  1  0
 22 23  2  0
 23 24  1  0
 24 25  2  0
 12  7  1  0
 25 15  1  0
 24 18  1  0
  3 26  1  0
  4 27  1  0
  4 28  1  0
  8 29  1  0
  8 30  1  0
  9 31  1  0
  9 32  1  0
 10 33  1  1
 11 34  1  0
 12 35  1  1
 13 36  1  0
 13 37  1  0
 14 38  1  0
 16 39  1  0
 17 40  1  0
 19 41  1  0
 22 42  1  0
 23 43  1  0
M  END
>  <smiles>  (29) 
O=C(NCC(=O)N1CC[C@H](O)[C@H]1CO)c1ccc2cc(Cl)ccc2n1

>  <score_type>  (29) 
oracle

>  <origin>  (29) 
autodockgpu

>  <m_score__min__energy>  (29) 
-7.2300000000000004

>  <m_primary>  (29) 
energy

>  <rmsd>  (29) 
4.2683530714612115

>  <m_score__min__rmsd>  (29) 
4.2683530714612115

>  <meeko>  (29) 
{"free_energy": -6.54, "intermolecular_energy": -8.63, "internal_energy": -1.74, "cluster_size": 7, "cluster_id": 2, "rank_in_cluster": 4}

>  <energy>  (29) 
-6.24

>  <cluster_rmsd>  (29) 
1.58

>  <cluster>  (29) 
2

$$$$

     RDKit          3D

 43 45  0  0  0  0  0  0  0  0999 V2000
  136.2540   74.9560  220.9750 O   0  0  0  0  0  0  0  0  0  0  0  0
  136.6410   75.2230  222.1580 C   0  0  0  0  0  0  0  0  0  0  0  0
  136.1830   74.3340  223.1700 N   0  0  0  0  0  0  0  0  0  0  0  0
  135.3460   73.2420  222.7860 C   0  0  0  0  0  0  0  0  0  0  0  0
  136.0780   72.1930  222.0420 C   0  0  0  0  0  0  0  0  0  0  0  0
  135.3920   71.3790  221.3710 O   0  0  0  0  0  0  0  0  0  0  0  0
  137.4940   72.1550  222.1210 N   0  0  0  0  0  0  0  0  0  0  0  0
  138.3030   71.5090  223.1450 C   0  0  0  0  0  0  0  0  0  0  0  0
  139.6270   71.3520  222.4490 C   0  0  0  0  0  0  0  0  0  0  0  0
  139.7540   72.6790  221.7180 C   0  0  2  0  0  0  0  0  0  0  0  0
  139.9550   73.7270  222.6260 O   0  0  0  0  0  0  0  0  0  0  0  0
  138.3500   72.7930  221.1350 C   0  0  1  0  0  0  0  0  0  0  0  0
  138.3610   72.0520  219.8190 C   0  0  0  0  0  0  0  0  0  0  0  0
  137.1360   72.0860  219.1770 O   0  0  0  0  0  0  0  0  0  0  0  0
  137.5000   76.3690  222.4500 C   0  0  0  0  0  0  0  0  0  0  0  0
  136.8930   77.5630  222.7540 C   0  0  0  0  0  0  0  0  0  0  0  0
  137.6000   78.7120  223.0470 C   0  0  0  0  0  0  0  0  0  0  0  0
  138.9710   78.6270  223.0250 C   0  0  0  0  0  0  0  0  0  0  0  0
  139.7080   79.7550  223.3120 C   0  0  0  0  0  0  0  0  0  0  0  0
  141.0670   79.6670  223.2900 C   0  0  0  0  0  0  0  0  0  0  0  0
  142.0370   81.0790  223.6500 Cl  0  0  0  0  0  0  0  0  0  0  0  0
  141.7260   78.4790  222.9880 C   0  0  0  0  0  0  0  0  0  0  0  0
  140.9380   77.3760  222.7070 C   0  0  0  0  0  0  0  0  0  0  0  0
  139.5740   77.4120  222.7160 C   0  0  0  0  0  0  0  0  0  0  0  0
  138.8350   76.3150  222.4360 N   0  0  0  0  0  0  0  0  0  0  0  0
  136.4700   74.5060  224.1550 H   0  0  0  0  0  0  0  0  0  0  0  0
  134.9148   72.7936  223.6932 H   0  0  0  0  0  0  0  0  0  0  0  0
  134.5677   73.6399  222.1183 H   0  0  0  0  0  0  0  0  0  0  0  0
  138.3949   72.1425  224.0396 H   0  0  0  0  0  0  0  0  0  0  0  0
  137.8802   70.5615  223.5102 H   0  0  0  0  0  0  0  0  0  0  0  0
  140.4450   71.2128  223.1712 H   0  0  0  0  0  0  0  0  0  0  0  0
  139.6819   70.4733  221.7895 H   0  0  0  0  0  0  0  0  0  0  0  0
  140.5844   72.7273  220.9982 H   0  0  0  0  0  0  0  0  0  0  0  0
  139.1010   74.2050  222.8060 H   0  0  0  0  0  0  0  0  0  0  0  0
  138.0035   73.8189  220.9414 H   0  0  0  0  0  0  0  0  0  0  0  0
  139.1151   72.5112  219.1629 H   0  0  0  0  0  0  0  0  0  0  0  0
  138.5950   70.9986  220.0327 H   0  0  0  0  0  0  0  0  0  0  0  0
  136.4690   72.4440  219.8170 H   0  0  0  0  0  0  0  0  0  0  0  0
  135.7939   77.6057  222.7645 H   0  0  0  0  0  0  0  0  0  0  0  0
  137.0876   79.6551  223.2877 H   0  0  0  0  0  0  0  0  0  0  0  0
  139.2100   80.7056  223.5536 H   0  0  0  0  0  0  0  0  0  0  0  0
  142.8243   78.4191  222.9733 H   0  0  0  0  0  0  0  0  0  0  0  0
  141.4352   76.4251  222.4649 H   0  0  0  0  0  0  0  0  0  0  0  0
  1  2  2  0
  2  3  1  0
  3  4  1  0
  4  5  1  0
  5  6  2  0
  5  7  1  0
  7  8  1  0
  8  9  1  0
  9 10  1  0
 10 11  1  0
 10 12  1  0
 12 13  1  0
 13 14  1  0
  2 15  1  0
 15 16  2  0
 16 17  1  0
 17 18  2  0
 18 19  1  0
 19 20  2  0
 20 21  1  0
 20 22  1  0
 22 23  2  0
 23 24  1  0
 24 25  2  0
 12  7  1  0
 25 15  1  0
 24 18  1  0
  3 26  1  0
  4 27  1  0
  4 28  1  0
  8 29  1  0
  8 30  1  0
  9 31  1  0
  9 32  1  0
 10 33  1  6
 11 34  1  0
 12 35  1  6
 13 36  1  0
 13 37  1  0
 14 38  1  0
 16 39  1  0
 17 40  1  0
 19 41  1  0
 22 42  1  0
 23 43  1  0
M  END
>  <smiles>  (30) 
O=C(NCC(=O)N1CC[C@H](O)[C@H]1CO)c1ccc2cc(Cl)ccc2n1

>  <score_type>  (30) 
oracle

>  <origin>  (30) 
autodockgpu

>  <m_score__min__energy>  (30) 
-7.2300000000000004

>  <m_primary>  (30) 
energy

>  <rmsd>  (30) 
7.38716980279626

>  <m_score__min__rmsd>  (30) 
7.38716980279626

>  <meeko>  (30) 
{"free_energy": -4.76, "intermolecular_energy": -6.85, "internal_energy": -2.91, "cluster_size": 1, "cluster_id": 10, "rank_in_cluster": 1}

>  <energy>  (30) 
-6.02

>  <cluster_rmsd>  (30) 
1.89

>  <cluster>  (30) 
2

$$$$

     RDKit          3D

 43 45  0  0  0  0  0  0  0  0999 V2000
  136.3410   77.9960  222.4650 O   0  0  0  0  0  0  0  0  0  0  0  0
  136.5960   76.8560  222.9700 C   0  0  0  0  0  0  0  0  0  0  0  0
  137.8610   76.3010  222.6280 N   0  0  0  0  0  0  0  0  0  0  0  0
  138.7200   77.0510  221.7670 C   0  0  0  0  0  0  0  0  0  0  0  0
  140.1270   77.0560  222.2230 C   0  0  0  0  0  0  0  0  0  0  0  0
  140.5790   75.9870  222.7090 O   0  0  0  0  0  0  0  0  0  0  0  0
  140.8870   78.2480  222.0950 N   0  0  0  0  0  0  0  0  0  0  0  0
  141.6270   78.7000  220.9240 C   0  0  0  0  0  0  0  0  0  0  0  0
  141.7610   80.1750  221.1870 C   0  0  0  0  0  0  0  0  0  0  0  0
  142.0680   80.2000  222.6760 C   0  0  2  0  0  0  0  0  0  0  0  0
  143.3450   79.6790  222.9270 O   0  0  0  0  0  0  0  0  0  0  0  0
  141.0240   79.2090  223.1760 C   0  0  1  0  0  0  0  0  0  0  0  0
  139.7550   79.9920  223.4120 C   0  0  0  0  0  0  0  0  0  0  0  0
  138.7080   79.1970  223.8430 O   0  0  0  0  0  0  0  0  0  0  0  0
  135.6470   76.1670  223.8430 C   0  0  0  0  0  0  0  0  0  0  0  0
  134.7180   76.9290  224.5060 C   0  0  0  0  0  0  0  0  0  0  0  0
  133.7720   76.3910  225.3560 C   0  0  0  0  0  0  0  0  0  0  0  0
  133.7860   75.0280  225.5260 C   0  0  0  0  0  0  0  0  0  0  0  0
  132.8570   74.4570  226.3680 C   0  0  0  0  0  0  0  0  0  0  0  0
  132.8750   73.1050  226.5340 C   0  0  0  0  0  0  0  0  0  0  0  0
  131.7080   72.3440  227.5950 Cl  0  0  0  0  0  0  0  0  0  0  0  0
  133.7980   72.2920  225.8830 C   0  0  0  0  0  0  0  0  0  0  0  0
  134.7090   72.9160  225.0490 C   0  0  0  0  0  0  0  0  0  0  0  0
  134.7330   74.2660  224.8490 C   0  0  0  0  0  0  0  0  0  0  0  0
  135.6390   74.8430  224.0270 N   0  0  0  0  0  0  0  0  0  0  0  0
  138.1210   75.3710  223.0140 H   0  0  0  0  0  0  0  0  0  0  0  0
  138.6787   76.6112  220.7596 H   0  0  0  0  0  0  0  0  0  0  0  0
  138.3666   78.0927  221.7726 H   0  0  0  0  0  0  0  0  0  0  0  0
  142.6120   78.2142  220.8619 H   0  0  0  0  0  0  0  0  0  0  0  0
  141.1337   78.4633  219.9697 H   0  0  0  0  0  0  0  0  0  0  0  0
  142.5827   80.6130  220.6014 H   0  0  0  0  0  0  0  0  0  0  0  0
  140.8727   80.7597  220.9059 H   0  0  0  0  0  0  0  0  0  0  0  0
  142.0449   81.2012  223.1311 H   0  0  0  0  0  0  0  0  0  0  0  0
  143.6710   79.1560  222.1460 H   0  0  0  0  0  0  0  0  0  0  0  0
  141.2792   78.6903  224.1119 H   0  0  0  0  0  0  0  0  0  0  0  0
  139.9518   80.7588  224.1757 H   0  0  0  0  0  0  0  0  0  0  0  0
  139.4582   80.4397  222.4521 H   0  0  0  0  0  0  0  0  0  0  0  0
  138.0480   79.1410  223.1060 H   0  0  0  0  0  0  0  0  0  0  0  0
  134.7273   78.0183  224.3533 H   0  0  0  0  0  0  0  0  0  0  0  0
  133.0390   77.0264  225.8745 H   0  0  0  0  0  0  0  0  0  0  0  0
  132.1176   75.0786  226.8942 H   0  0  0  0  0  0  0  0  0  0  0  0
  133.8032   71.2012  226.0252 H   0  0  0  0  0  0  0  0  0  0  0  0
  135.4486   72.2949  224.5225 H   0  0  0  0  0  0  0  0  0  0  0  0
  1  2  2  0
  2  3  1  0
  3  4  1  0
  4  5  1  0
  5  6  2  0
  5  7  1  0
  7  8  1  0
  8  9  1  0
  9 10  1  0
 10 11  1  0
 10 12  1  0
 12 13  1  0
 13 14  1  0
  2 15  1  0
 15 16  2  0
 16 17  1  0
 17 18  2  0
 18 19  1  0
 19 20  2  0
 20 21  1  0
 20 22  1  0
 22 23  2  0
 23 24  1  0
 24 25  2  0
 12  7  1  0
 25 15  1  0
 24 18  1  0
  3 26  1  0
  4 27  1  0
  4 28  1  0
  8 29  1  0
  8 30  1  0
  9 31  1  0
  9 32  1  0
 10 33  1  1
 11 34  1  0
 12 35  1  1
 13 36  1  0
 13 37  1  0
 14 38  1  0
 16 39  1  0
 17 40  1  0
 19 41  1  0
 22 42  1  0
 23 43  1  0
M  END
>  <smiles>  (31) 
O=C(NCC(=O)N1CC[C@H](O)[C@H]1CO)c1ccc2cc(Cl)ccc2n1

>  <score_type>  (31) 
oracle

>  <origin>  (31) 
autodockgpu

>  <m_score__min__energy>  (31) 
-7.2300000000000004

>  <m_primary>  (31) 
energy

>  <rmsd>  (31) 
6.765321744741838

>  <m_score__min__rmsd>  (31) 
6.765321744741838

>  <meeko>  (31) 
{"free_energy": -5.49, "intermolecular_energy": -7.58, "internal_energy": -1.98, "cluster_size": 1, "cluster_id": 6, "rank_in_cluster": 1}

>  <energy>  (31) 
-6.48

>  <cluster_rmsd>  (31) 
0.0

>  <cluster>  (31) 
3

$$$$

     RDKit          3D

 43 45  0  0  0  0  0  0  0  0999 V2000
  141.0130   72.3450  221.1200 O   0  0  0  0  0  0  0  0  0  0  0  0
  140.2750   72.5730  222.1330 C   0  0  0  0  0  0  0  0  0  0  0  0
  139.4960   73.7610  222.0700 N   0  0  0  0  0  0  0  0  0  0  0  0
  139.6010   74.5820  220.9060 C   0  0  0  0  0  0  0  0  0  0  0  0
  140.8640   75.3520  220.8590 C   0  0  0  0  0  0  0  0  0  0  0  0
  141.5090   75.4660  221.9330 O   0  0  0  0  0  0  0  0  0  0  0  0
  141.2790   75.9170  219.6250 N   0  0  0  0  0  0  0  0  0  0  0  0
  140.7710   75.6030  218.2970 C   0  0  0  0  0  0  0  0  0  0  0  0
  141.1750   76.8200  217.5100 C   0  0  0  0  0  0  0  0  0  0  0  0
  142.5730   77.0870  218.0450 C   0  0  2  0  0  0  0  0  0  0  0  0
  143.4610   76.0870  217.6280 O   0  0  0  0  0  0  0  0  0  0  0  0
  142.3170   76.9300  219.5390 C   0  0  1  0  0  0  0  0  0  0  0  0
  141.8520   78.2730  220.0470 C   0  0  0  0  0  0  0  0  0  0  0  0
  141.7720   78.3240  221.4270 O   0  0  0  0  0  0  0  0  0  0  0  0
  140.2370   71.6680  223.2800 C   0  0  0  0  0  0  0  0  0  0  0  0
  139.6900   70.4220  223.0950 C   0  0  0  0  0  0  0  0  0  0  0  0
  139.6000   69.4840  224.1030 C   0  0  0  0  0  0  0  0  0  0  0  0
  140.0880   69.8400  225.3370 C   0  0  0  0  0  0  0  0  0  0  0  0
  140.0130   68.9280  226.3670 C   0  0  0  0  0  0  0  0  0  0  0  0
  140.4970   69.2860  227.5890 C   0  0  0  0  0  0  0  0  0  0  0  0
  140.4210   68.1530  228.9210 Cl  0  0  0  0  0  0  0  0  0  0  0  0
  141.0610   70.5370  227.8240 C   0  0  0  0  0  0  0  0  0  0  0  0
  141.1110   71.4160  226.7550 C   0  0  0  0  0  0  0  0  0  0  0  0
  140.6390   71.1050  225.5120 C   0  0  0  0  0  0  0  0  0  0  0  0
  140.7040   71.9890  224.4910 N   0  0  0  0  0  0  0  0  0  0  0  0
  138.8740   73.9950  222.8720 H   0  0  0  0  0  0  0  0  0  0  0  0
  139.5488   73.9379  220.0158 H   0  0  0  0  0  0  0  0  0  0  0  0
  138.7730   75.3056  220.9355 H   0  0  0  0  0  0  0  0  0  0  0  0
  141.2404   74.6932  217.8946 H   0  0  0  0  0  0  0  0  0  0  0  0
  139.6904   75.3987  218.2730 H   0  0  0  0  0  0  0  0  0  0  0  0
  141.1926   76.6109  216.4302 H   0  0  0  0  0  0  0  0  0  0  0  0
  140.4861   77.6705  217.6202 H   0  0  0  0  0  0  0  0  0  0  0  0
  143.0105   78.0444  217.7258 H   0  0  0  0  0  0  0  0  0  0  0  0
  144.3980   76.3300  217.8610 H   0  0  0  0  0  0  0  0  0  0  0  0
  143.1900   76.6280  220.1362 H   0  0  0  0  0  0  0  0  0  0  0  0
  142.5609   79.0424  219.7071 H   0  0  0  0  0  0  0  0  0  0  0  0
  140.8412   78.4465  219.6493 H   0  0  0  0  0  0  0  0  0  0  0  0
  142.2030   77.5070  221.7850 H   0  0  0  0  0  0  0  0  0  0  0  0
  139.3062   70.1598  222.0980 H   0  0  0  0  0  0  0  0  0  0  0  0
  139.1563   68.4931  223.9261 H   0  0  0  0  0  0  0  0  0  0  0  0
  139.5722   67.9331  226.2062 H   0  0  0  0  0  0  0  0  0  0  0  0
  141.4497   70.8149  228.8148 H   0  0  0  0  0  0  0  0  0  0  0  0
  141.5515   72.4112  226.9147 H   0  0  0  0  0  0  0  0  0  0  0  0
  1  2  2  0
  2  3  1  0
  3  4  1  0
  4  5  1  0
  5  6  2  0
  5  7  1  0
  7  8  1  0
  8  9  1  0
  9 10  1  0
 10 11  1  0
 10 12  1  0
 12 13  1  0
 13 14  1  0
  2 15  1  0
 15 16  2  0
 16 17  1  0
 17 18  2  0
 18 19  1  0
 19 20  2  0
 20 21  1  0
 20 22  1  0
 22 23  2  0
 23 24  1  0
 24 25  2  0
 12  7  1  0
 25 15  1  0
 24 18  1  0
  3 26  1  0
  4 27  1  0
  4 28  1  0
  8 29  1  0
  8 30  1  0
  9 31  1  0
  9 32  1  0
 10 33  1  1
 11 34  1  0
 12 35  1  1
 13 36  1  0
 13 37  1  0
 14 38  1  0
 16 39  1  0
 17 40  1  0
 19 41  1  0
 22 42  1  0
 23 43  1  0
M  END
>  <smiles>  (32) 
O=C(NCC(=O)N1CC[C@H](O)[C@H]1CO)c1ccc2cc(Cl)ccc2n1

>  <score_type>  (32) 
oracle

>  <origin>  (32) 
autodockgpu

>  <m_score__min__energy>  (32) 
-7.2300000000000004

>  <m_primary>  (32) 
energy

>  <rmsd>  (32) 
1.655426818190534

>  <m_score__min__rmsd>  (32) 
1.655426818190534

>  <meeko>  (32) 
{"free_energy": -6.47, "intermolecular_energy": -8.55, "internal_energy": -1.62, "cluster_size": 7, "cluster_id": 3, "rank_in_cluster": 2}

>  <energy>  (32) 
-6.47

>  <cluster_rmsd>  (32) 
0.33

>  <cluster>  (32) 
3

$$$$

     RDKit          3D

 43 45  0  0  0  0  0  0  0  0999 V2000
  139.7140   73.8400  222.3320 O   0  0  0  0  0  0  0  0  0  0  0  0
  140.2770   72.6990  222.2880 C   0  0  0  0  0  0  0  0  0  0  0  0
  140.9400   72.3880  221.0680 N   0  0  0  0  0  0  0  0  0  0  0  0
  140.9210   73.3560  220.0190 C   0  0  0  0  0  0  0  0  0  0  0  0
  142.0030   73.1550  219.0310 C   0  0  0  0  0  0  0  0  0  0  0  0
  141.6630   72.9690  217.8340 O   0  0  0  0  0  0  0  0  0  0  0  0
  143.3510   73.1790  219.4750 N   0  0  0  0  0  0  0  0  0  0  0  0
  144.0170   74.2420  220.2150 C   0  0  0  0  0  0  0  0  0  0  0  0
  145.1830   73.5160  220.8280 C   0  0  0  0  0  0  0  0  0  0  0  0
  145.6280   72.6190  219.6840 C   0  0  2  0  0  0  0  0  0  0  0  0
  146.1900   73.3780  218.6490 O   0  0  0  0  0  0  0  0  0  0  0  0
  144.2760   72.0860  219.2270 C   0  0  1  0  0  0  0  0  0  0  0  0
  143.9730   70.8750  220.0760 C   0  0  0  0  0  0  0  0  0  0  0  0
  142.6840   70.4040  219.8960 O   0  0  0  0  0  0  0  0  0  0  0  0
  140.2410   71.7750  223.4200 C   0  0  0  0  0  0  0  0  0  0  0  0
  139.7130   70.5250  223.2100 C   0  0  0  0  0  0  0  0  0  0  0  0
  139.6270   69.5690  224.2020 C   0  0  0  0  0  0  0  0  0  0  0  0
  140.0980   69.9120  225.4450 C   0  0  0  0  0  0  0  0  0  0  0  0
  140.0260   68.9820  226.4590 C   0  0  0  0  0  0  0  0  0  0  0  0
  140.4940   69.3260  227.6910 C   0  0  0  0  0  0  0  0  0  0  0  0
  140.4210   68.1700  229.0040 Cl  0  0  0  0  0  0  0  0  0  0  0  0
  141.0380   70.5800  227.9520 C   0  0  0  0  0  0  0  0  0  0  0  0
  141.0860   71.4770  226.8990 C   0  0  0  0  0  0  0  0  0  0  0  0
  140.6300   71.1810  225.6460 C   0  0  0  0  0  0  0  0  0  0  0  0
  140.6920   72.0820  224.6400 N   0  0  0  0  0  0  0  0  0  0  0  0
  141.4180   71.4670  220.9780 H   0  0  0  0  0  0  0  0  0  0  0  0
  139.9540   73.2909  219.4987 H   0  0  0  0  0  0  0  0  0  0  0  0
  141.0728   74.3438  220.4785 H   0  0  0  0  0  0  0  0  0  0  0  0
  144.3549   75.0449  219.5434 H   0  0  0  0  0  0  0  0  0  0  0  0
  143.3700   74.7415  220.9511 H   0  0  0  0  0  0  0  0  0  0  0  0
  145.9799   74.2148  221.1222 H   0  0  0  0  0  0  0  0  0  0  0  0
  144.9330   72.9706  221.7500 H   0  0  0  0  0  0  0  0  0  0  0  0
  146.3796   71.8648  219.9601 H   0  0  0  0  0  0  0  0  0  0  0  0
  146.7200   74.1360  219.0170 H   0  0  0  0  0  0  0  0  0  0  0  0
  144.2247   71.7797  218.1718 H   0  0  0  0  0  0  0  0  0  0  0  0
  144.6799   70.0746  219.8120 H   0  0  0  0  0  0  0  0  0  0  0  0
  144.0723   71.1753  221.1296 H   0  0  0  0  0  0  0  0  0  0  0  0
  142.2800   70.9120  219.1480 H   0  0  0  0  0  0  0  0  0  0  0  0
  139.3416   70.2740  222.2055 H   0  0  0  0  0  0  0  0  0  0  0  0
  139.1994   68.5749  224.0049 H   0  0  0  0  0  0  0  0  0  0  0  0
  139.6001   67.9841  226.2777 H   0  0  0  0  0  0  0  0  0  0  0  0
  141.4133   70.8466  228.9510 H   0  0  0  0  0  0  0  0  0  0  0  0
  141.5114   72.4752  227.0797 H   0  0  0  0  0  0  0  0  0  0  0  0
  1  2  2  0
  2  3  1  0
  3  4  1  0
  4  5  1  0
  5  6  2  0
  5  7  1  0
  7  8  1  0
  8  9  1  0
  9 10  1  0
 10 11  1  0
 10 12  1  0
 12 13  1  0
 13 14  1  0
  2 15  1  0
 15 16  2  0
 16 17  1  0
 17 18  2  0
 18 19  1  0
 19 20  2  0
 20 21  1  0
 20 22  1  0
 22 23  2  0
 23 24  1  0
 24 25  2  0
 12  7  1  0
 25 15  1  0
 24 18  1  0
  3 26  1  0
  4 27  1  0
  4 28  1  0
  8 29  1  0
  8 30  1  0
  9 31  1  0
  9 32  1  0
 10 33  1  1
 11 34  1  0
 12 35  1  6
 13 36  1  0
 13 37  1  0
 14 38  1  0
 16 39  1  0
 17 40  1  0
 19 41  1  0
 22 42  1  0
 23 43  1  0
M  END
>  <smiles>  (33) 
O=C(NCC(=O)N1CC[C@H](O)[C@H]1CO)c1ccc2cc(Cl)ccc2n1

>  <score_type>  (33) 
oracle

>  <origin>  (33) 
autodockgpu

>  <m_score__min__energy>  (33) 
-7.2300000000000004

>  <m_primary>  (33) 
energy

>  <rmsd>  (33) 
4.187445356426023

>  <m_score__min__rmsd>  (33) 
4.187445356426023

>  <meeko>  (33) 
{"free_energy": -6.8, "intermolecular_energy": -8.89, "internal_energy": -1.98, "cluster_size": 23, "cluster_id": 1, "rank_in_cluster": 4}

>  <energy>  (33) 
-6.24

>  <cluster_rmsd>  (33) 
0.83

>  <cluster>  (33) 
3

$$$$

     RDKit          3D

 43 45  0  0  0  0  0  0  0  0999 V2000
  142.0950   74.6950  218.0230 O   0  0  0  0  0  0  0  0  0  0  0  0
  142.8560   75.7160  218.0390 C   0  0  0  0  0  0  0  0  0  0  0  0
  144.0770   75.5840  217.3200 N   0  0  0  0  0  0  0  0  0  0  0  0
  144.3420   74.3490  216.6540 C   0  0  0  0  0  0  0  0  0  0  0  0
  144.9730   73.3450  217.5390 C   0  0  0  0  0  0  0  0  0  0  0  0
  146.1150   72.9280  217.2140 O   0  0  0  0  0  0  0  0  0  0  0  0
  144.2700   72.9050  218.6910 N   0  0  0  0  0  0  0  0  0  0  0  0
  143.3990   71.7440  218.8020 C   0  0  0  0  0  0  0  0  0  0  0  0
  143.3850   71.5020  220.2870 C   0  0  0  0  0  0  0  0  0  0  0  0
  143.2940   72.9180  220.8330 C   0  0  2  0  0  0  0  0  0  0  0  0
  142.0390   73.4760  220.5560 O   0  0  0  0  0  0  0  0  0  0  0  0
  144.3420   73.6030  219.9640 C   0  0  1  0  0  0  0  0  0  0  0  0
  145.6740   73.4100  220.6490 C   0  0  0  0  0  0  0  0  0  0  0  0
  146.7320   73.3680  219.7590 O   0  0  0  0  0  0  0  0  0  0  0  0
  142.4930   76.9390  218.7520 C   0  0  0  0  0  0  0  0  0  0  0  0
  142.1140   76.8260  220.0670 C   0  0  0  0  0  0  0  0  0  0  0  0
  141.7500   77.9090  220.8400 C   0  0  0  0  0  0  0  0  0  0  0  0
  141.7780   79.1450  220.2410 C   0  0  0  0  0  0  0  0  0  0  0  0
  141.4200   80.2490  220.9840 C   0  0  0  0  0  0  0  0  0  0  0  0
  141.4490   81.4720  220.3860 C   0  0  0  0  0  0  0  0  0  0  0  0
  141.0030   82.8980  221.2980 Cl  0  0  0  0  0  0  0  0  0  0  0  0
  141.8270   81.6370  219.0560 C   0  0  0  0  0  0  0  0  0  0  0  0
  142.1770   80.4950  218.3550 C   0  0  0  0  0  0  0  0  0  0  0  0
  142.1650   79.2470  218.9080 C   0  0  0  0  0  0  0  0  0  0  0  0
  142.5120   78.1540  218.1930 N   0  0  0  0  0  0  0  0  0  0  0  0
  144.7360   76.3900  217.3000 H   0  0  0  0  0  0  0  0  0  0  0  0
  143.3917   73.9402  216.2800 H   0  0  0  0  0  0  0  0  0  0  0  0
  145.0461   74.5583  215.8352 H   0  0  0  0  0  0  0  0  0  0  0  0
  142.3898   71.9642  218.4237 H   0  0  0  0  0  0  0  0  0  0  0  0
  143.7389   70.8778  218.2154 H   0  0  0  0  0  0  0  0  0  0  0  0
  142.5139   70.9007  220.5865 H   0  0  0  0  0  0  0  0  0  0  0  0
  144.2553   70.9384  220.6543 H   0  0  0  0  0  0  0  0  0  0  0  0
  143.4371   72.9987  221.9207 H   0  0  0  0  0  0  0  0  0  0  0  0
  142.0070   73.8230  219.6230 H   0  0  0  0  0  0  0  0  0  0  0  0
  144.1941   74.6825  219.8129 H   0  0  0  0  0  0  0  0  0  0  0  0
  145.8346   74.2447  221.3472 H   0  0  0  0  0  0  0  0  0  0  0  0
  145.6413   72.4425  221.1714 H   0  0  0  0  0  0  0  0  0  0  0  0
  146.5450   74.0210  219.0370 H   0  0  0  0  0  0  0  0  0  0  0  0
  142.1000   75.8260  220.5250 H   0  0  0  0  0  0  0  0  0  0  0  0
  141.4501   77.7881  221.8914 H   0  0  0  0  0  0  0  0  0  0  0  0
  141.1176   80.1446  222.0365 H   0  0  0  0  0  0  0  0  0  0  0  0
  141.8467   82.6300  218.5832 H   0  0  0  0  0  0  0  0  0  0  0  0
  142.4791   80.5986  217.3024 H   0  0  0  0  0  0  0  0  0  0  0  0
  1  2  2  0
  2  3  1  0
  3  4  1  0
  4  5  1  0
  5  6  2  0
  5  7  1  0
  7  8  1  0
  8  9  1  0
  9 10  1  0
 10 11  1  0
 10 12  1  0
 12 13  1  0
 13 14  1  0
  2 15  1  0
 15 16  2  0
 16 17  1  0
 17 18  2  0
 18 19  1  0
 19 20  2  0
 20 21  1  0
 20 22  1  0
 22 23  2  0
 23 24  1  0
 24 25  2  0
 12  7  1  0
 25 15  1  0
 24 18  1  0
  3 26  1  0
  4 27  1  0
  4 28  1  0
  8 29  1  0
  8 30  1  0
  9 31  1  0
  9 32  1  0
 10 33  1  1
 11 34  1  0
 12 35  1  6
 13 36  1  0
 13 37  1  0
 14 38  1  0
 16 39  1  0
 17 40  1  0
 19 41  1  0
 22 42  1  0
 23 43  1  0
M  END
>  <smiles>  (34) 
O=C(NCC(=O)N1CC[C@H](O)[C@H]1CO)c1ccc2cc(Cl)ccc2n1

>  <score_type>  (34) 
oracle

>  <origin>  (34) 
autodockgpu

>  <m_score__min__energy>  (34) 
-7.2300000000000004

>  <m_primary>  (34) 
energy

>  <rmsd>  (34) 
8.964297629992771

>  <m_score__min__rmsd>  (34) 
8.964297629992771

>  <meeko>  (34) 
{"free_energy": -5.35, "intermolecular_energy": -7.44, "internal_energy": -2.69, "cluster_size": 2, "cluster_id": 8, "rank_in_cluster": 2}

>  <energy>  (34) 
-5.71

>  <cluster_rmsd>  (34) 
1.53

>  <cluster>  (34) 
3

$$$$

     RDKit          3D

 43 45  0  0  0  0  0  0  0  0999 V2000
  139.6020   72.9070  220.1670 O   0  0  0  0  0  0  0  0  0  0  0  0
  140.3340   73.0280  221.2020 C   0  0  0  0  0  0  0  0  0  0  0  0
  141.2620   74.1060  221.1760 N   0  0  0  0  0  0  0  0  0  0  0  0
  141.2970   74.9430  220.0190 C   0  0  0  0  0  0  0  0  0  0  0  0
  142.6690   75.1630  219.5110 C   0  0  0  0  0  0  0  0  0  0  0  0
  142.8880   76.2350  218.8900 O   0  0  0  0  0  0  0  0  0  0  0  0
  143.6560   74.1700  219.7430 N   0  0  0  0  0  0  0  0  0  0  0  0
  144.6010   74.1090  220.8500 C   0  0  0  0  0  0  0  0  0  0  0  0
  144.9880   72.6550  220.8530 C   0  0  0  0  0  0  0  0  0  0  0  0
  145.1180   72.3650  219.3660 C   0  0  2  0  0  0  0  0  0  0  0  0
  146.2310   73.0250  218.8280 O   0  0  0  0  0  0  0  0  0  0  0  0
  143.8500   73.0370  218.8540 C   0  0  1  0  0  0  0  0  0  0  0  0
  142.7390   72.0210  218.9690 C   0  0  0  0  0  0  0  0  0  0  0  0
  141.6380   72.3440  218.1960 O   0  0  0  0  0  0  0  0  0  0  0  0
  140.2210   72.1170  222.3390 C   0  0  0  0  0  0  0  0  0  0  0  0
  139.6040   70.9080  222.1320 C   0  0  0  0  0  0  0  0  0  0  0  0
  139.4410   69.9670  223.1290 C   0  0  0  0  0  0  0  0  0  0  0  0
  139.9270   70.2830  224.3750 C   0  0  0  0  0  0  0  0  0  0  0  0
  139.7800   69.3670  225.3940 C   0  0  0  0  0  0  0  0  0  0  0  0
  140.2630   69.6840  226.6270 C   0  0  0  0  0  0  0  0  0  0  0  0
  140.0960   68.5450  227.9460 Cl  0  0  0  0  0  0  0  0  0  0  0  0
  140.8960   70.8960  226.8850 C   0  0  0  0  0  0  0  0  0  0  0  0
  141.0170   71.7810  225.8260 C   0  0  0  0  0  0  0  0  0  0  0  0
  140.5500   71.5110  224.5720 C   0  0  0  0  0  0  0  0  0  0  0  0
  140.6850   72.3980  223.5610 N   0  0  0  0  0  0  0  0  0  0  0  0
  141.8850   74.2510  221.9970 H   0  0  0  0  0  0  0  0  0  0  0  0
  140.7000   74.4702  219.2252 H   0  0  0  0  0  0  0  0  0  0  0  0
  140.8898   75.9233  220.3074 H   0  0  0  0  0  0  0  0  0  0  0  0
  145.4730   74.7541  220.6668 H   0  0  0  0  0  0  0  0  0  0  0  0
  144.1858   74.4588  221.8067 H   0  0  0  0  0  0  0  0  0  0  0  0
  145.9419   72.4954  221.3771 H   0  0  0  0  0  0  0  0  0  0  0  0
  144.2699   72.0038  221.3729 H   0  0  0  0  0  0  0  0  0  0  0  0
  145.2372   71.3002  219.1169 H   0  0  0  0  0  0  0  0  0  0  0  0
  146.0450   73.9970  218.7200 H   0  0  0  0  0  0  0  0  0  0  0  0
  143.8879   73.3781  217.8089 H   0  0  0  0  0  0  0  0  0  0  0  0
  143.1221   71.0423  218.6442 H   0  0  0  0  0  0  0  0  0  0  0  0
  142.4134   72.0022  220.0195 H   0  0  0  0  0  0  0  0  0  0  0  0
  140.8900   72.5580  218.8100 H   0  0  0  0  0  0  0  0  0  0  0  0
  139.2223   70.6788  221.1262 H   0  0  0  0  0  0  0  0  0  0  0  0
  138.9434   69.0055  222.9344 H   0  0  0  0  0  0  0  0  0  0  0  0
  139.2838   68.4017  225.2154 H   0  0  0  0  0  0  0  0  0  0  0  0
  141.2831   71.1405  227.8852 H   0  0  0  0  0  0  0  0  0  0  0  0
  141.5127   72.7467  226.0040 H   0  0  0  0  0  0  0  0  0  0  0  0
  1  2  2  0
  2  3  1  0
  3  4  1  0
  4  5  1  0
  5  6  2  0
  5  7  1  0
  7  8  1  0
  8  9  1  0
  9 10  1  0
 10 11  1  0
 10 12  1  0
 12 13  1  0
 13 14  1  0
  2 15  1  0
 15 16  2  0
 16 17  1  0
 17 18  2  0
 18 19  1  0
 19 20  2  0
 20 21  1  0
 20 22  1  0
 22 23  2  0
 23 24  1  0
 24 25  2  0
 12  7  1  0
 25 15  1  0
 24 18  1  0
  3 26  1  0
  4 27  1  0
  4 28  1  0
  8 29  1  0
  8 30  1  0
  9 31  1  0
  9 32  1  0
 10 33  1  1
 11 34  1  0
 12 35  1  6
 13 36  1  0
 13 37  1  0
 14 38  1  0
 16 39  1  0
 17 40  1  0
 19 41  1  0
 22 42  1  0
 23 43  1  0
M  END
>  <smiles>  (35) 
O=C(NCC(=O)N1CC[C@H](O)[C@H]1CO)c1ccc2cc(Cl)ccc2n1

>  <score_type>  (35) 
oracle

>  <origin>  (35) 
autodockgpu

>  <m_score__min__energy>  (35) 
-7.2300000000000004

>  <m_primary>  (35) 
energy

>  <rmsd>  (35) 
4.114670792350888

>  <m_score__min__rmsd>  (35) 
4.114670792350888

>  <meeko>  (35) 
{"free_energy": -6.1, "intermolecular_energy": -8.18, "internal_energy": -2.11, "cluster_size": 23, "cluster_id": 1, "rank_in_cluster": 18}

>  <energy>  (35) 
-5.7

>  <cluster_rmsd>  (35) 
1.76

>  <cluster>  (35) 
3

$$$$

     RDKit          3D

 43 45  0  0  0  0  0  0  0  0999 V2000
  139.9700   72.2440  220.3640 O   0  0  0  0  0  0  0  0  0  0  0  0
  140.4110   72.6490  221.4870 C   0  0  0  0  0  0  0  0  0  0  0  0
  141.0680   73.9120  221.4700 N   0  0  0  0  0  0  0  0  0  0  0  0
  141.1760   74.6040  220.2260 C   0  0  0  0  0  0  0  0  0  0  0  0
  142.0470   73.9070  219.2550 C   0  0  0  0  0  0  0  0  0  0  0  0
  141.5590   73.6480  218.1250 O   0  0  0  0  0  0  0  0  0  0  0  0
  143.3710   73.5690  219.6390 N   0  0  0  0  0  0  0  0  0  0  0  0
  144.2820   74.3600  220.4530 C   0  0  0  0  0  0  0  0  0  0  0  0
  145.2560   73.3210  220.9380 C   0  0  0  0  0  0  0  0  0  0  0  0
  145.4550   72.4750  219.6900 C   0  0  2  0  0  0  0  0  0  0  0  0
  146.1610   73.1910  218.7140 O   0  0  0  0  0  0  0  0  0  0  0  0
  144.0070   72.3240  219.2410 C   0  0  1  0  0  0  0  0  0  0  0  0
  143.4420   71.1310  219.9760 C   0  0  0  0  0  0  0  0  0  0  0  0
  142.1180   70.8860  219.6590 O   0  0  0  0  0  0  0  0  0  0  0  0
  140.2510   71.8640  222.7100 C   0  0  0  0  0  0  0  0  0  0  0  0
  139.5920   70.6640  222.6180 C   0  0  0  0  0  0  0  0  0  0  0  0
  139.3800   69.8370  223.7030 C   0  0  0  0  0  0  0  0  0  0  0  0
  139.8630   70.2610  224.9170 C   0  0  0  0  0  0  0  0  0  0  0  0
  139.6690   69.4610  226.0220 C   0  0  0  0  0  0  0  0  0  0  0  0
  140.1490   69.8850  227.2240 C   0  0  0  0  0  0  0  0  0  0  0  0
  139.9230   68.8940  228.6500 Cl  0  0  0  0  0  0  0  0  0  0  0  0
  140.8240   71.0940  227.3660 C   0  0  0  0  0  0  0  0  0  0  0  0
  140.9910   71.8590  226.2250 C   0  0  0  0  0  0  0  0  0  0  0  0
  140.5300   71.4790  224.9980 C   0  0  0  0  0  0  0  0  0  0  0  0
  140.7100   72.2530  223.9040 N   0  0  0  0  0  0  0  0  0  0  0  0
  141.4490   74.2900  222.3620 H   0  0  0  0  0  0  0  0  0  0  0  0
  140.1709   74.7011  219.7897 H   0  0  0  0  0  0  0  0  0  0  0  0
  141.6288   75.5852  220.4316 H   0  0  0  0  0  0  0  0  0  0  0  0
  144.7870   75.1309  219.8524 H   0  0  0  0  0  0  0  0  0  0  0  0
  143.7844   74.9123  221.2638 H   0  0  0  0  0  0  0  0  0  0  0  0
  146.2006   73.7795  221.2659 H   0  0  0  0  0  0  0  0  0  0  0  0
  144.9027   72.7518  221.8105 H   0  0  0  0  0  0  0  0  0  0  0  0
  146.0122   71.5409  219.8546 H   0  0  0  0  0  0  0  0  0  0  0  0
  145.8690   74.1420  218.6960 H   0  0  0  0  0  0  0  0  0  0  0  0
  143.8651   72.1545  218.1634 H   0  0  0  0  0  0  0  0  0  0  0  0
  144.0364   70.2430  219.7148 H   0  0  0  0  0  0  0  0  0  0  0  0
  143.4904   71.3510  221.0527 H   0  0  0  0  0  0  0  0  0  0  0  0
  141.7450   71.7130  219.2610 H   0  0  0  0  0  0  0  0  0  0  0  0
  139.2153   70.3463  221.6346 H   0  0  0  0  0  0  0  0  0  0  0  0
  138.8474   68.8801  223.5998 H   0  0  0  0  0  0  0  0  0  0  0  0
  139.1383   68.5014  225.9353 H   0  0  0  0  0  0  0  0  0  0  0  0
  141.2076   71.4266  228.3418 H   0  0  0  0  0  0  0  0  0  0  0  0
  141.5206   72.8193  226.3111 H   0  0  0  0  0  0  0  0  0  0  0  0
  1  2  2  0
  2  3  1  0
  3  4  1  0
  4  5  1  0
  5  6  2  0
  5  7  1  0
  7  8  1  0
  8  9  1  0
  9 10  1  0
 10 11  1  0
 10 12  1  0
 12 13  1  0
 13 14  1  0
  2 15  1  0
 15 16  2  0
 16 17  1  0
 17 18  2  0
 18 19  1  0
 19 20  2  0
 20 21  1  0
 20 22  1  0
 22 23  2  0
 23 24  1  0
 24 25  2  0
 12  7  1  0
 25 15  1  0
 24 18  1  0
  3 26  1  0
  4 27  1  0
  4 28  1  0
  8 29  1  0
  8 30  1  0
  9 31  1  0
  9 32  1  0
 10 33  1  1
 11 34  1  0
 12 35  1  6
 13 36  1  0
 13 37  1  0
 14 38  1  0
 16 39  1  0
 17 40  1  0
 19 41  1  0
 22 42  1  0
 23 43  1  0
M  END
>  <smiles>  (36) 
O=C(NCC(=O)N1CC[C@H](O)[C@H]1CO)c1ccc2cc(Cl)ccc2n1

>  <score_type>  (36) 
oracle

>  <origin>  (36) 
autodockgpu

>  <m_score__min__energy>  (36) 
-7.2300000000000004

>  <m_primary>  (36) 
energy

>  <rmsd>  (36) 
4.137588846347635

>  <m_score__min__rmsd>  (36) 
4.137588846347635

>  <meeko>  (36) 
{"free_energy": -6.34, "intermolecular_energy": -8.43, "internal_energy": -2.62, "cluster_size": 23, "cluster_id": 1, "rank_in_cluster": 13}

>  <energy>  (36) 
-5.58

>  <cluster_rmsd>  (36) 
1.84

>  <cluster>  (36) 
3

$$$$

     RDKit          3D

 43 45  0  0  0  0  0  0  0  0999 V2000
  139.7900   72.5010  220.3010 O   0  0  0  0  0  0  0  0  0  0  0  0
  140.3800   72.7830  221.3940 C   0  0  0  0  0  0  0  0  0  0  0  0
  141.1800   73.9600  221.3730 N   0  0  0  0  0  0  0  0  0  0  0  0
  141.2550   74.7090  220.1600 C   0  0  0  0  0  0  0  0  0  0  0  0
  142.6420   75.0700  219.7920 C   0  0  0  0  0  0  0  0  0  0  0  0
  142.8670   76.2750  219.5110 O   0  0  0  0  0  0  0  0  0  0  0  0
  143.6340   74.0550  219.7730 N   0  0  0  0  0  0  0  0  0  0  0  0
  144.5810   73.7290  220.8300 C   0  0  0  0  0  0  0  0  0  0  0  0
  144.9760   72.3210  220.4760 C   0  0  0  0  0  0  0  0  0  0  0  0
  145.1050   72.4060  218.9630 C   0  0  2  0  0  0  0  0  0  0  0  0
  146.2130   73.1840  218.6030 O   0  0  0  0  0  0  0  0  0  0  0  0
  143.8320   73.1770  218.6330 C   0  0  1  0  0  0  0  0  0  0  0  0
  142.7270   72.1580  218.4950 C   0  0  0  0  0  0  0  0  0  0  0  0
  142.4320   71.5240  219.6890 O   0  0  0  0  0  0  0  0  0  0  0  0
  140.2390   71.9500  222.5860 C   0  0  0  0  0  0  0  0  0  0  0  0
  139.5780   70.7530  222.4560 C   0  0  0  0  0  0  0  0  0  0  0  0
  139.3840   69.8840  223.5110 C   0  0  0  0  0  0  0  0  0  0  0  0
  139.8870   70.2590  224.7330 C   0  0  0  0  0  0  0  0  0  0  0  0
  139.7110   69.4150  225.8080 C   0  0  0  0  0  0  0  0  0  0  0  0
  140.2100   69.7910  227.0180 C   0  0  0  0  0  0  0  0  0  0  0  0
  140.0080   68.7430  228.4060 Cl  0  0  0  0  0  0  0  0  0  0  0  0
  140.8880   70.9930  227.1980 C   0  0  0  0  0  0  0  0  0  0  0  0
  141.0370   71.8040  226.0850 C   0  0  0  0  0  0  0  0  0  0  0  0
  140.5550   71.4730  224.8520 C   0  0  0  0  0  0  0  0  0  0  0  0
  140.7180   72.2900  223.7870 N   0  0  0  0  0  0  0  0  0  0  0  0
  141.6850   74.2370  222.2400 H   0  0  0  0  0  0  0  0  0  0  0  0
  140.8217   74.1066  219.3480 H   0  0  0  0  0  0  0  0  0  0  0  0
  140.6998   75.6458  220.3152 H   0  0  0  0  0  0  0  0  0  0  0  0
  145.4492   74.4042  220.8105 H   0  0  0  0  0  0  0  0  0  0  0  0
  144.1654   73.8306  221.8434 H   0  0  0  0  0  0  0  0  0  0  0  0
  145.9316   72.0431  220.9446 H   0  0  0  0  0  0  0  0  0  0  0  0
  144.2625   71.5579  220.8204 H   0  0  0  0  0  0  0  0  0  0  0  0
  145.2295   71.4358  218.4598 H   0  0  0  0  0  0  0  0  0  0  0  0
  145.9770   74.1500  218.5940 H   0  0  0  0  0  0  0  0  0  0  0  0
  143.8660   73.7653  217.7042 H   0  0  0  0  0  0  0  0  0  0  0  0
  141.8214   72.6678  218.1343 H   0  0  0  0  0  0  0  0  0  0  0  0
  143.0709   71.3894  217.7872 H   0  0  0  0  0  0  0  0  0  0  0  0
  141.4520   71.3770  219.7180 H   0  0  0  0  0  0  0  0  0  0  0  0
  139.1856   70.4743  221.4669 H   0  0  0  0  0  0  0  0  0  0  0  0
  138.8494   68.9318  223.3787 H   0  0  0  0  0  0  0  0  0  0  0  0
  139.1794   68.4591  225.6914 H   0  0  0  0  0  0  0  0  0  0  0  0
  141.2876   71.2859  228.1801 H   0  0  0  0  0  0  0  0  0  0  0  0
  141.5689   72.7599  226.2005 H   0  0  0  0  0  0  0  0  0  0  0  0
  1  2  2  0
  2  3  1  0
  3  4  1  0
  4  5  1  0
  5  6  2  0
  5  7  1  0
  7  8  1  0
  8  9  1  0
  9 10  1  0
 10 11  1  0
 10 12  1  0
 12 13  1  0
 13 14  1  0
  2 15  1  0
 15 16  2  0
 16 17  1  0
 17 18  2  0
 18 19  1  0
 19 20  2  0
 20 21  1  0
 20 22  1  0
 22 23  2  0
 23 24  1  0
 24 25  2  0
 12  7  1  0
 25 15  1  0
 24 18  1  0
  3 26  1  0
  4 27  1  0
  4 28  1  0
  8 29  1  0
  8 30  1  0
  9 31  1  0
  9 32  1  0
 10 33  1  6
 11 34  1  0
 12 35  1  6
 13 36  1  0
 13 37  1  0
 14 38  1  0
 16 39  1  0
 17 40  1  0
 19 41  1  0
 22 42  1  0
 23 43  1  0
M  END
>  <smiles>  (37) 
O=C(NCC(=O)N1CC[C@H](O)[C@H]1CO)c1ccc2cc(Cl)ccc2n1

>  <score_type>  (37) 
oracle

>  <origin>  (37) 
autodockgpu

>  <m_score__min__energy>  (37) 
-7.2300000000000004

>  <m_primary>  (37) 
energy

>  <rmsd>  (37) 
3.937352628844612

>  <m_score__min__rmsd>  (37) 
3.937352628844612

>  <meeko>  (37) 
{"free_energy": -6.22, "intermolecular_energy": -8.31, "internal_energy": -2.01, "cluster_size": 23, "cluster_id": 1, "rank_in_cluster": 16}

>  <energy>  (37) 
-5.42

>  <cluster_rmsd>  (37) 
1.87

>  <cluster>  (37) 
3

$$$$

     RDKit          3D

 43 45  0  0  0  0  0  0  0  0999 V2000
  137.1090   71.0970  221.2170 O   0  0  0  0  0  0  0  0  0  0  0  0
  137.6840   71.6930  222.1840 C   0  0  0  0  0  0  0  0  0  0  0  0
  137.7720   73.1090  222.0680 N   0  0  0  0  0  0  0  0  0  0  0  0
  137.2220   73.7300  220.9050 C   0  0  0  0  0  0  0  0  0  0  0  0
  138.2460   74.3980  220.0730 C   0  0  0  0  0  0  0  0  0  0  0  0
  138.1530   74.2600  218.8260 O   0  0  0  0  0  0  0  0  0  0  0  0
  139.2670   75.1500  220.7110 N   0  0  0  0  0  0  0  0  0  0  0  0
  139.0980   76.2990  221.5890 C   0  0  0  0  0  0  0  0  0  0  0  0
  140.4050   76.3210  222.3340 C   0  0  0  0  0  0  0  0  0  0  0  0
  141.3990   76.0040  221.2280 C   0  0  2  0  0  0  0  0  0  0  0  0
  141.4900   77.0690  220.3230 O   0  0  0  0  0  0  0  0  0  0  0  0
  140.6780   74.8430  220.5520 C   0  0  1  0  0  0  0  0  0  0  0  0
  141.0790   73.5890  221.2910 C   0  0  0  0  0  0  0  0  0  0  0  0
  140.3450   73.3920  222.4470 O   0  0  0  0  0  0  0  0  0  0  0  0
  138.2160   70.9650  223.3340 C   0  0  0  0  0  0  0  0  0  0  0  0
  137.7410   69.6980  223.5660 C   0  0  0  0  0  0  0  0  0  0  0  0
  138.1690   68.9160  224.6190 C   0  0  0  0  0  0  0  0  0  0  0  0
  139.1130   69.4560  225.4580 C   0  0  0  0  0  0  0  0  0  0  0  0
  139.5620   68.7030  226.5200 C   0  0  0  0  0  0  0  0  0  0  0  0
  140.4990   69.2420  227.3500 C   0  0  0  0  0  0  0  0  0  0  0  0
  141.0950   68.3140  228.7100 Cl  0  0  0  0  0  0  0  0  0  0  0  0
  141.0100   70.5220  227.1550 C   0  0  0  0  0  0  0  0  0  0  0  0
  140.5250   71.2360  226.0730 C   0  0  0  0  0  0  0  0  0  0  0  0
  139.5870   70.7410  225.2130 C   0  0  0  0  0  0  0  0  0  0  0  0
  139.1350   71.4670  224.1660 N   0  0  0  0  0  0  0  0  0  0  0  0
  138.2320   73.6460  222.8310 H   0  0  0  0  0  0  0  0  0  0  0  0
  136.7236   72.9599  220.2979 H   0  0  0  0  0  0  0  0  0  0  0  0
  136.5161   74.5023  221.2446 H   0  0  0  0  0  0  0  0  0  0  0  0
  138.9515   77.2242  221.0123 H   0  0  0  0  0  0  0  0  0  0  0  0
  138.2165   76.2302  222.2434 H   0  0  0  0  0  0  0  0  0  0  0  0
  140.5982   77.3102  222.7747 H   0  0  0  0  0  0  0  0  0  0  0  0
  140.4456   75.6227  223.1829 H   0  0  0  0  0  0  0  0  0  0  0  0
  142.4227   75.8040  221.5772 H   0  0  0  0  0  0  0  0  0  0  0  0
  141.4250   76.7420  219.3850 H   0  0  0  0  0  0  0  0  0  0  0  0
  140.9157   74.6978  219.4878 H   0  0  0  0  0  0  0  0  0  0  0  0
  140.9275   72.7255  220.6266 H   0  0  0  0  0  0  0  0  0  0  0  0
  142.1341   73.6984  221.5823 H   0  0  0  0  0  0  0  0  0  0  0  0
  140.1290   72.4270  222.5070 H   0  0  0  0  0  0  0  0  0  0  0  0
  136.9845   69.2875  222.8810 H   0  0  0  0  0  0  0  0  0  0  0  0
  137.7712   67.9031  224.7798 H   0  0  0  0  0  0  0  0  0  0  0  0
  139.1730   67.6890  226.6945 H   0  0  0  0  0  0  0  0  0  0  0  0
  141.7661   70.9475  227.8312 H   0  0  0  0  0  0  0  0  0  0  0  0
  140.9135   72.2501  225.8976 H   0  0  0  0  0  0  0  0  0  0  0  0
  1  2  2  0
  2  3  1  0
  3  4  1  0
  4  5  1  0
  5  6  2  0
  5  7  1  0
  7  8  1  0
  8  9  1  0
  9 10  1  0
 10 11  1  0
 10 12  1  0
 12 13  1  0
 13 14  1  0
  2 15  1  0
 15 16  2  0
 16 17  1  0
 17 18  2  0
 18 19  1  0
 19 20  2  0
 20 21  1  0
 20 22  1  0
 22 23  2  0
 23 24  1  0
 24 25  2  0
 12  7  1  0
 25 15  1  0
 24 18  1  0
  3 26  1  0
  4 27  1  0
  4 28  1  0
  8 29  1  0
  8 30  1  0
  9 31  1  0
  9 32  1  0
 10 33  1  1
 11 34  1  0
 12 35  1  6
 13 36  1  0
 13 37  1  0
 14 38  1  0
 16 39  1  0
 17 40  1  0
 19 41  1  0
 22 42  1  0
 23 43  1  0
M  END
>  <smiles>  (38) 
O=C(NCC(=O)N1CC[C@H](O)[C@H]1CO)c1ccc2cc(Cl)ccc2n1

>  <score_type>  (38) 
oracle

>  <origin>  (38) 
autodockgpu

>  <m_score__min__energy>  (38) 
-7.2300000000000004

>  <m_primary>  (38) 
energy

>  <rmsd>  (38) 
2.7792396993406303

>  <m_score__min__rmsd>  (38) 
2.7792396993406303

>  <meeko>  (38) 
{"free_energy": -5.42, "intermolecular_energy": -7.51, "internal_energy": -2.65, "cluster_size": 7, "cluster_id": 3, "rank_in_cluster": 7}

>  <energy>  (38) 
-6.39

>  <cluster_rmsd>  (38) 
0.0

>  <cluster>  (38) 
4

$$$$

     RDKit          3D

 43 45  0  0  0  0  0  0  0  0999 V2000
  137.4110   70.9820  221.0530 O   0  0  0  0  0  0  0  0  0  0  0  0
  137.8340   71.5850  222.0920 C   0  0  0  0  0  0  0  0  0  0  0  0
  137.7730   73.0060  222.0450 N   0  0  0  0  0  0  0  0  0  0  0  0
  137.2530   73.6240  220.8670 C   0  0  0  0  0  0  0  0  0  0  0  0
  138.2990   74.2890  220.0590 C   0  0  0  0  0  0  0  0  0  0  0  0
  138.2180   74.1790  218.8090 O   0  0  0  0  0  0  0  0  0  0  0  0
  139.3270   75.0070  220.7240 N   0  0  0  0  0  0  0  0  0  0  0  0
  139.1840   76.2180  221.5200 C   0  0  0  0  0  0  0  0  0  0  0  0
  140.4370   76.1970  222.3530 C   0  0  0  0  0  0  0  0  0  0  0  0
  141.4770   75.7440  221.3400 C   0  0  2  0  0  0  0  0  0  0  0  0
  141.7050   76.7420  220.3840 O   0  0  0  0  0  0  0  0  0  0  0  0
  140.7200   74.5950  220.6830 C   0  0  1  0  0  0  0  0  0  0  0  0
  140.9800   73.3650  221.5190 C   0  0  0  0  0  0  0  0  0  0  0  0
  140.2500   73.3550  222.6950 O   0  0  0  0  0  0  0  0  0  0  0  0
  138.3490   70.8590  223.2510 C   0  0  0  0  0  0  0  0  0  0  0  0
  137.9680   69.5490  223.4080 C   0  0  0  0  0  0  0  0  0  0  0  0
  138.3900   68.7640  224.4620 C   0  0  0  0  0  0  0  0  0  0  0  0
  139.2280   69.3470  225.3810 C   0  0  0  0  0  0  0  0  0  0  0  0
  139.6680   68.5930  226.4460 C   0  0  0  0  0  0  0  0  0  0  0  0
  140.5000   69.1740  227.3550 C   0  0  0  0  0  0  0  0  0  0  0  0
  141.0800   68.2470  228.7220 Cl  0  0  0  0  0  0  0  0  0  0  0  0
  140.9140   70.4980  227.2380 C   0  0  0  0  0  0  0  0  0  0  0  0
  140.4420   71.2110  226.1490 C   0  0  0  0  0  0  0  0  0  0  0  0
  139.6080   70.6750  225.2110 C   0  0  0  0  0  0  0  0  0  0  0  0
  139.1660   71.4010  224.1600 N   0  0  0  0  0  0  0  0  0  0  0  0
  138.1060   73.5480  222.8680 H   0  0  0  0  0  0  0  0  0  0  0  0
  136.7694   72.8526  220.2497 H   0  0  0  0  0  0  0  0  0  0  0  0
  136.5393   74.3977  221.1864 H   0  0  0  0  0  0  0  0  0  0  0  0
  139.1437   77.1130  220.8817 H   0  0  0  0  0  0  0  0  0  0  0  0
  138.2584   76.2511  222.1134 H   0  0  0  0  0  0  0  0  0  0  0  0
  140.6718   77.1963  222.7484 H   0  0  0  0  0  0  0  0  0  0  0  0
  140.3703   75.5519  223.2415 H   0  0  0  0  0  0  0  0  0  0  0  0
  142.4581   75.4964  221.7713 H   0  0  0  0  0  0  0  0  0  0  0  0
  142.4900   77.3000  220.6380 H   0  0  0  0  0  0  0  0  0  0  0  0
  141.0161   74.3678  219.6483 H   0  0  0  0  0  0  0  0  0  0  0  0
  140.7109   72.4757  220.9301 H   0  0  0  0  0  0  0  0  0  0  0  0
  142.0462   73.3660  221.7895 H   0  0  0  0  0  0  0  0  0  0  0  0
  140.2800   72.4340  223.0600 H   0  0  0  0  0  0  0  0  0  0  0  0
  137.2956   69.1048  222.6593 H   0  0  0  0  0  0  0  0  0  0  0  0
  138.0690   67.7166  224.5617 H   0  0  0  0  0  0  0  0  0  0  0  0
  139.3546   67.5448  226.5603 H   0  0  0  0  0  0  0  0  0  0  0  0
  141.5862   70.9573  227.9778 H   0  0  0  0  0  0  0  0  0  0  0  0
  140.7541   72.2595  226.0344 H   0  0  0  0  0  0  0  0  0  0  0  0
  1  2  2  0
  2  3  1  0
  3  4  1  0
  4  5  1  0
  5  6  2  0
  5  7  1  0
  7  8  1  0
  8  9  1  0
  9 10  1  0
 10 11  1  0
 10 12  1  0
 12 13  1  0
 13 14  1  0
  2 15  1  0
 15 16  2  0
 16 17  1  0
 17 18  2  0
 18 19  1  0
 19 20  2  0
 20 21  1  0
 20 22  1  0
 22 23  2  0
 23 24  1  0
 24 25  2  0
 12  7  1  0
 25 15  1  0
 24 18  1  0
  3 26  1  0
  4 27  1  0
  4 28  1  0
  8 29  1  0
  8 30  1  0
  9 31  1  0
  9 32  1  0
 10 33  1  1
 11 34  1  0
 12 35  1  6
 13 36  1  0
 13 37  1  0
 14 38  1  0
 16 39  1  0
 17 40  1  0
 19 41  1  0
 22 42  1  0
 23 43  1  0
M  END
>  <smiles>  (39) 
O=C(NCC(=O)N1CC[C@H](O)[C@H]1CO)c1ccc2cc(Cl)ccc2n1

>  <score_type>  (39) 
oracle

>  <origin>  (39) 
autodockgpu

>  <m_score__min__energy>  (39) 
-7.2300000000000004

>  <m_primary>  (39) 
energy

>  <rmsd>  (39) 
2.85212258327305

>  <m_score__min__rmsd>  (39) 
2.85212258327305

>  <meeko>  (39) 
{"free_energy": -5.7, "intermolecular_energy": -7.79, "internal_energy": -2.59, "cluster_size": 7, "cluster_id": 3, "rank_in_cluster": 5}

>  <energy>  (39) 
-6.38

>  <cluster_rmsd>  (39) 
0.13

>  <cluster>  (39) 
4

$$$$

     RDKit          3D

 43 45  0  0  0  0  0  0  0  0999 V2000
  139.3390   73.6930  222.2340 O   0  0  0  0  0  0  0  0  0  0  0  0
  140.2690   72.8360  222.3790 C   0  0  0  0  0  0  0  0  0  0  0  0
  141.2950   72.8710  221.3930 N   0  0  0  0  0  0  0  0  0  0  0  0
  141.1990   73.8400  220.3480 C   0  0  0  0  0  0  0  0  0  0  0  0
  142.1820   73.6150  219.2650 C   0  0  0  0  0  0  0  0  0  0  0  0
  141.7420   73.5740  218.0870 O   0  0  0  0  0  0  0  0  0  0  0  0
  143.5520   73.4580  219.6020 N   0  0  0  0  0  0  0  0  0  0  0  0
  144.4010   74.4080  220.3060 C   0  0  0  0  0  0  0  0  0  0  0  0
  145.5090   73.5250  220.8130 C   0  0  0  0  0  0  0  0  0  0  0  0
  145.7480   72.6100  219.6220 C   0  0  2  0  0  0  0  0  0  0  0  0
  146.3220   73.3210  218.5600 O   0  0  0  0  0  0  0  0  0  0  0  0
  144.3080   72.2640  219.2630 C   0  0  1  0  0  0  0  0  0  0  0  0
  143.9180   71.0780  220.1130 C   0  0  0  0  0  0  0  0  0  0  0  0
  143.5560   71.4370  221.3990 O   0  0  0  0  0  0  0  0  0  0  0  0
  140.2770   71.8830  223.4870 C   0  0  0  0  0  0  0  0  0  0  0  0
  139.7970   70.6190  223.2470 C   0  0  0  0  0  0  0  0  0  0  0  0
  139.7550   69.6350  224.2140 C   0  0  0  0  0  0  0  0  0  0  0  0
  140.2210   69.9650  225.4640 C   0  0  0  0  0  0  0  0  0  0  0  0
  140.1930   69.0070  226.4540 C   0  0  0  0  0  0  0  0  0  0  0  0
  140.6550   69.3380  227.6920 C   0  0  0  0  0  0  0  0  0  0  0  0
  140.6360   68.1470  228.9750 Cl  0  0  0  0  0  0  0  0  0  0  0  0
  141.1510   70.6060  227.9820 C   0  0  0  0  0  0  0  0  0  0  0  0
  141.1560   71.5300  226.9510 C   0  0  0  0  0  0  0  0  0  0  0  0
  140.7040   71.2490  225.6940 C   0  0  0  0  0  0  0  0  0  0  0  0
  140.7240   72.1770  224.7120 N   0  0  0  0  0  0  0  0  0  0  0  0
  142.0800   72.1910  221.4630 H   0  0  0  0  0  0  0  0  0  0  0  0
  140.1871   73.7951  219.9190 H   0  0  0  0  0  0  0  0  0  0  0  0
  141.4120   74.8249  220.7891 H   0  0  0  0  0  0  0  0  0  0  0  0
  144.7863   75.1806  219.6244 H   0  0  0  0  0  0  0  0  0  0  0  0
  143.8799   74.9640  221.0993 H   0  0  0  0  0  0  0  0  0  0  0  0
  146.4084   74.1102  221.0552 H   0  0  0  0  0  0  0  0  0  0  0  0
  145.2627   72.9908  221.7425 H   0  0  0  0  0  0  0  0  0  0  0  0
  146.4155   71.7596  219.8249 H   0  0  0  0  0  0  0  0  0  0  0  0
  145.7960   74.1410  218.3600 H   0  0  0  0  0  0  0  0  0  0  0  0
  144.1380   71.9952  218.2100 H   0  0  0  0  0  0  0  0  0  0  0  0
  143.0667   70.5691  219.6372 H   0  0  0  0  0  0  0  0  0  0  0  0
  144.7965   70.4201  220.1873 H   0  0  0  0  0  0  0  0  0  0  0  0
  144.2650   71.1160  222.0120 H   0  0  0  0  0  0  0  0  0  0  0  0
  139.4293   70.3798  222.2383 H   0  0  0  0  0  0  0  0  0  0  0  0
  139.3654   68.6302  223.9937 H   0  0  0  0  0  0  0  0  0  0  0  0
  139.8063   67.9978  226.2493 H   0  0  0  0  0  0  0  0  0  0  0  0
  141.5223   70.8623  228.9852 H   0  0  0  0  0  0  0  0  0  0  0  0
  141.5429   72.5394  227.1546 H   0  0  0  0  0  0  0  0  0  0  0  0
  1  2  2  0
  2  3  1  0
  3  4  1  0
  4  5  1  0
  5  6  2  0
  5  7  1  0
  7  8  1  0
  8  9  1  0
  9 10  1  0
 10 11  1  0
 10 12  1  0
 12 13  1  0
 13 14  1  0
  2 15  1  0
 15 16  2  0
 16 17  1  0
 17 18  2  0
 18 19  1  0
 19 20  2  0
 20 21  1  0
 20 22  1  0
 22 23  2  0
 23 24  1  0
 24 25  2  0
 12  7  1  0
 25 15  1  0
 24 18  1  0
  3 26  1  0
  4 27  1  0
  4 28  1  0
  8 29  1  0
  8 30  1  0
  9 31  1  0
  9 32  1  0
 10 33  1  1
 11 34  1  0
 12 35  1  6
 13 36  1  0
 13 37  1  0
 14 38  1  0
 16 39  1  0
 17 40  1  0
 19 41  1  0
 22 42  1  0
 23 43  1  0
M  END
>  <smiles>  (40) 
O=C(NCC(=O)N1CC[C@H](O)[C@H]1CO)c1ccc2cc(Cl)ccc2n1

>  <score_type>  (40) 
oracle

>  <origin>  (40) 
autodockgpu

>  <m_score__min__energy>  (40) 
-7.2300000000000004

>  <m_primary>  (40) 
energy

>  <rmsd>  (40) 
4.178731594560799

>  <m_score__min__rmsd>  (40) 
4.178731594560799

>  <meeko>  (40) 
{"free_energy": -7.23, "intermolecular_energy": -9.31, "internal_energy": -1.76, "cluster_size": 23, "cluster_id": 1, "rank_in_cluster": 1}

>  <energy>  (40) 
-6.3

>  <cluster_rmsd>  (40) 
1.48

>  <cluster>  (40) 
4

$$$$

     RDKit          3D

 43 45  0  0  0  0  0  0  0  0999 V2000
  140.0870   72.1230  220.3950 O   0  0  0  0  0  0  0  0  0  0  0  0
  140.4870   72.5620  221.5210 C   0  0  0  0  0  0  0  0  0  0  0  0
  141.1040   73.8440  221.4970 N   0  0  0  0  0  0  0  0  0  0  0  0
  141.2210   74.5170  220.2430 C   0  0  0  0  0  0  0  0  0  0  0  0
  142.1020   73.8060  219.2900 C   0  0  0  0  0  0  0  0  0  0  0  0
  141.5950   73.4470  218.1960 O   0  0  0  0  0  0  0  0  0  0  0  0
  143.4530   73.5650  219.6510 N   0  0  0  0  0  0  0  0  0  0  0  0
  144.3410   74.4550  220.3860 C   0  0  0  0  0  0  0  0  0  0  0  0
  145.3860   73.5030  220.9020 C   0  0  0  0  0  0  0  0  0  0  0  0
  145.5960   72.5930  219.7020 C   0  0  2  0  0  0  0  0  0  0  0  0
  146.2320   73.2840  218.6620 O   0  0  0  0  0  0  0  0  0  0  0  0
  144.1460   72.3350  219.3090 C   0  0  1  0  0  0  0  0  0  0  0  0
  143.6720   71.1610  220.1330 C   0  0  0  0  0  0  0  0  0  0  0  0
  142.3560   70.8230  219.8730 O   0  0  0  0  0  0  0  0  0  0  0  0
  140.3200   71.7940  222.7540 C   0  0  0  0  0  0  0  0  0  0  0  0
  139.6480   70.5990  222.6770 C   0  0  0  0  0  0  0  0  0  0  0  0
  139.4300   69.7880  223.7730 C   0  0  0  0  0  0  0  0  0  0  0  0
  139.9180   70.2230  224.9810 C   0  0  0  0  0  0  0  0  0  0  0  0
  139.7180   69.4390  226.0960 C   0  0  0  0  0  0  0  0  0  0  0  0
  140.2040   69.8730  227.2920 C   0  0  0  0  0  0  0  0  0  0  0  0
  139.9690   68.9030  228.7310 Cl  0  0  0  0  0  0  0  0  0  0  0  0
  140.8910   71.0760  227.4190 C   0  0  0  0  0  0  0  0  0  0  0  0
  141.0650   71.8260  226.2670 C   0  0  0  0  0  0  0  0  0  0  0  0
  140.5980   71.4350  225.0460 C   0  0  0  0  0  0  0  0  0  0  0  0
  140.7850   72.1930  223.9420 N   0  0  0  0  0  0  0  0  0  0  0  0
  141.4500   74.2500  222.3900 H   0  0  0  0  0  0  0  0  0  0  0  0
  140.2194   74.6053  219.7968 H   0  0  0  0  0  0  0  0  0  0  0  0
  141.6699   75.5023  220.4368 H   0  0  0  0  0  0  0  0  0  0  0  0
  144.7840   75.2132  219.7236 H   0  0  0  0  0  0  0  0  0  0  0  0
  143.8364   75.0291  221.1771 H   0  0  0  0  0  0  0  0  0  0  0  0
  146.3123   74.0320  221.1707 H   0  0  0  0  0  0  0  0  0  0  0  0
  145.0910   72.9712  221.8186 H   0  0  0  0  0  0  0  0  0  0  0  0
  146.2093   71.7028  219.9055 H   0  0  0  0  0  0  0  0  0  0  0  0
  145.8060   74.1720  218.5170 H   0  0  0  0  0  0  0  0  0  0  0  0
  143.9823   72.0913  218.2489 H   0  0  0  0  0  0  0  0  0  0  0  0
  144.3093   70.2931  219.9081 H   0  0  0  0  0  0  0  0  0  0  0  0
  143.7377   71.4504  221.1922 H   0  0  0  0  0  0  0  0  0  0  0  0
  141.9370   71.5850  219.3970 H   0  0  0  0  0  0  0  0  0  0  0  0
  139.2662   70.2732  221.6982 H   0  0  0  0  0  0  0  0  0  0  0  0
  138.8888   68.8346  223.6826 H   0  0  0  0  0  0  0  0  0  0  0  0
  139.1778   68.4837  226.0220 H   0  0  0  0  0  0  0  0  0  0  0  0
  141.2787   71.4165  228.3904 H   0  0  0  0  0  0  0  0  0  0  0  0
  141.6050   72.7815  226.3402 H   0  0  0  0  0  0  0  0  0  0  0  0
  1  2  2  0
  2  3  1  0
  3  4  1  0
  4  5  1  0
  5  6  2  0
  5  7  1  0
  7  8  1  0
  8  9  1  0
  9 10  1  0
 10 11  1  0
 10 12  1  0
 12 13  1  0
 13 14  1  0
  2 15  1  0
 15 16  2  0
 16 17  1  0
 17 18  2  0
 18 19  1  0
 19 20  2  0
 20 21  1  0
 20 22  1  0
 22 23  2  0
 23 24  1  0
 24 25  2  0
 12  7  1  0
 25 15  1  0
 24 18  1  0
  3 26  1  0
  4 27  1  0
  4 28  1  0
  8 29  1  0
  8 30  1  0
  9 31  1  0
  9 32  1  0
 10 33  1  1
 11 34  1  0
 12 35  1  6
 13 36  1  0
 13 37  1  0
 14 38  1  0
 16 39  1  0
 17 40  1  0
 19 41  1  0
 22 42  1  0
 23 43  1  0
M  END
>  <smiles>  (41) 
O=C(NCC(=O)N1CC[C@H](O)[C@H]1CO)c1ccc2cc(Cl)ccc2n1

>  <score_type>  (41) 
oracle

>  <origin>  (41) 
autodockgpu

>  <m_score__min__energy>  (41) 
-7.2300000000000004

>  <m_primary>  (41) 
energy

>  <rmsd>  (41) 
4.147723188111184

>  <m_score__min__rmsd>  (41) 
4.147723188111184

>  <meeko>  (41) 
{"free_energy": -6.32, "intermolecular_energy": -8.4, "internal_energy": -2.62, "cluster_size": 23, "cluster_id": 1, "rank_in_cluster": 15}

>  <energy>  (41) 
-6.24

>  <cluster_rmsd>  (41) 
1.48

>  <cluster>  (41) 
4

$$$$

     RDKit          3D

 43 45  0  0  0  0  0  0  0  0999 V2000
  140.0680   72.1410  220.3880 O   0  0  0  0  0  0  0  0  0  0  0  0
  140.4710   72.5730  221.5160 C   0  0  0  0  0  0  0  0  0  0  0  0
  141.1010   73.8490  221.4970 N   0  0  0  0  0  0  0  0  0  0  0  0
  141.2250   74.5250  220.2450 C   0  0  0  0  0  0  0  0  0  0  0  0
  142.1050   73.8130  219.2930 C   0  0  0  0  0  0  0  0  0  0  0  0
  141.6020   73.4650  218.1930 O   0  0  0  0  0  0  0  0  0  0  0  0
  143.4520   73.5580  219.6600 N   0  0  0  0  0  0  0  0  0  0  0  0
  144.3440   74.4370  220.4030 C   0  0  0  0  0  0  0  0  0  0  0  0
  145.3770   73.4740  220.9210 C   0  0  0  0  0  0  0  0  0  0  0  0
  145.5870   72.5670  219.7180 C   0  0  2  0  0  0  0  0  0  0  0  0
  146.2340   73.2560  218.6850 O   0  0  0  0  0  0  0  0  0  0  0  0
  144.1360   72.3230  219.3170 C   0  0  1  0  0  0  0  0  0  0  0  0
  143.6470   71.1510  220.1340 C   0  0  0  0  0  0  0  0  0  0  0  0
  142.3270   70.8320  219.8720 O   0  0  0  0  0  0  0  0  0  0  0  0
  140.2960   71.8020  222.7460 C   0  0  0  0  0  0  0  0  0  0  0  0
  139.6310   70.6040  222.6620 C   0  0  0  0  0  0  0  0  0  0  0  0
  139.4060   69.7910  223.7550 C   0  0  0  0  0  0  0  0  0  0  0  0
  139.8820   70.2260  224.9680 C   0  0  0  0  0  0  0  0  0  0  0  0
  139.6740   69.4390  226.0800 C   0  0  0  0  0  0  0  0  0  0  0  0
  140.1470   69.8740  227.2810 C   0  0  0  0  0  0  0  0  0  0  0  0
  139.9040   68.9010  228.7160 Cl  0  0  0  0  0  0  0  0  0  0  0  0
  140.8280   71.0810  227.4150 C   0  0  0  0  0  0  0  0  0  0  0  0
  141.0090   71.8320  226.2670 C   0  0  0  0  0  0  0  0  0  0  0  0
  140.5550   71.4410  225.0400 C   0  0  0  0  0  0  0  0  0  0  0  0
  140.7490   72.2020  223.9390 N   0  0  0  0  0  0  0  0  0  0  0  0
  141.4500   74.2490  222.3920 H   0  0  0  0  0  0  0  0  0  0  0  0
  140.2252   74.6193  219.7961 H   0  0  0  0  0  0  0  0  0  0  0  0
  141.6782   75.5076  220.4430 H   0  0  0  0  0  0  0  0  0  0  0  0
  144.7976   75.1935  219.7458 H   0  0  0  0  0  0  0  0  0  0  0  0
  143.8403   75.0128  221.1934 H   0  0  0  0  0  0  0  0  0  0  0  0
  146.3061   73.9938  221.1979 H   0  0  0  0  0  0  0  0  0  0  0  0
  145.0714   72.9407  221.8333 H   0  0  0  0  0  0  0  0  0  0  0  0
  146.1924   71.6712  219.9205 H   0  0  0  0  0  0  0  0  0  0  0  0
  145.8050   74.1400  218.5290 H   0  0  0  0  0  0  0  0  0  0  0  0
  143.9759   72.0842  218.2552 H   0  0  0  0  0  0  0  0  0  0  0  0
  144.2729   70.2761  219.9041 H   0  0  0  0  0  0  0  0  0  0  0  0
  143.7166   71.4332  221.1949 H   0  0  0  0  0  0  0  0  0  0  0  0
  141.9170   71.6020  219.4030 H   0  0  0  0  0  0  0  0  0  0  0  0
  139.2606   70.2769  221.6793 H   0  0  0  0  0  0  0  0  0  0  0  0
  138.8687   68.8360  223.6587 H   0  0  0  0  0  0  0  0  0  0  0  0
  139.1383   68.4816  225.9996 H   0  0  0  0  0  0  0  0  0  0  0  0
  141.2054   71.4224  228.3902 H   0  0  0  0  0  0  0  0  0  0  0  0
  141.5442   72.7897  226.3466 H   0  0  0  0  0  0  0  0  0  0  0  0
  1  2  2  0
  2  3  1  0
  3  4  1  0
  4  5  1  0
  5  6  2  0
  5  7  1  0
  7  8  1  0
  8  9  1  0
  9 10  1  0
 10 11  1  0
 10 12  1  0
 12 13  1  0
 13 14  1  0
  2 15  1  0
 15 16  2  0
 16 17  1  0
 17 18  2  0
 18 19  1  0
 19 20  2  0
 20 21  1  0
 20 22  1  0
 22 23  2  0
 23 24  1  0
 24 25  2  0
 12  7  1  0
 25 15  1  0
 24 18  1  0
  3 26  1  0
  4 27  1  0
  4 28  1  0
  8 29  1  0
  8 30  1  0
  9 31  1  0
  9 32  1  0
 10 33  1  1
 11 34  1  0
 12 35  1  6
 13 36  1  0
 13 37  1  0
 14 38  1  0
 16 39  1  0
 17 40  1  0
 19 41  1  0
 22 42  1  0
 23 43  1  0
M  END
>  <smiles>  (42) 
O=C(NCC(=O)N1CC[C@H](O)[C@H]1CO)c1ccc2cc(Cl)ccc2n1

>  <score_type>  (42) 
oracle

>  <origin>  (42) 
autodockgpu

>  <m_score__min__energy>  (42) 
-7.2300000000000004

>  <m_primary>  (42) 
energy

>  <rmsd>  (42) 
4.15333324753087

>  <m_score__min__rmsd>  (42) 
4.15333324753087

>  <meeko>  (42) 
{"free_energy": -6.34, "intermolecular_energy": -8.43, "internal_energy": -2.62, "cluster_size": 23, "cluster_id": 1, "rank_in_cluster": 12}

>  <energy>  (42) 
-6.18

>  <cluster_rmsd>  (42) 
1.5

>  <cluster>  (42) 
4

$$$$

     RDKit          3D

 43 45  0  0  0  0  0  0  0  0999 V2000
  137.4240   71.2030  221.0600 O   0  0  0  0  0  0  0  0  0  0  0  0
  137.7450   71.7810  222.1490 C   0  0  0  0  0  0  0  0  0  0  0  0
  137.5700   73.1930  222.1690 N   0  0  0  0  0  0  0  0  0  0  0  0
  137.0610   73.8300  220.9970 C   0  0  0  0  0  0  0  0  0  0  0  0
  138.1170   74.1420  220.0090 C   0  0  0  0  0  0  0  0  0  0  0  0
  137.9810   73.6660  218.8520 O   0  0  0  0  0  0  0  0  0  0  0  0
  139.2150   74.9480  220.4070 N   0  0  0  0  0  0  0  0  0  0  0  0
  139.1820   76.3480  220.8040 C   0  0  0  0  0  0  0  0  0  0  0  0
  140.4630   76.4850  221.5820 C   0  0  0  0  0  0  0  0  0  0  0  0
  141.4300   75.6750  220.7330 C   0  0  2  0  0  0  0  0  0  0  0  0
  141.6850   76.3220  219.5170 O   0  0  0  0  0  0  0  0  0  0  0  0
  140.5760   74.4410  220.4660 C   0  0  1  0  0  0  0  0  0  0  0  0
  140.7880   73.5020  221.6290 C   0  0  0  0  0  0  0  0  0  0  0  0
  139.9540   73.7780  222.6980 O   0  0  0  0  0  0  0  0  0  0  0  0
  138.2590   71.0360  223.2970 C   0  0  0  0  0  0  0  0  0  0  0  0
  137.7410   69.7870  223.5340 C   0  0  0  0  0  0  0  0  0  0  0  0
  138.1480   68.9920  224.5870 C   0  0  0  0  0  0  0  0  0  0  0  0
  139.1170   69.5000  225.4170 C   0  0  0  0  0  0  0  0  0  0  0  0
  139.5460   68.7340  226.4790 C   0  0  0  0  0  0  0  0  0  0  0  0
  140.5070   69.2410  227.3000 C   0  0  0  0  0  0  0  0  0  0  0  0
  141.0790   68.2950  228.6580 Cl  0  0  0  0  0  0  0  0  0  0  0  0
  141.0630   70.5010  227.0990 C   0  0  0  0  0  0  0  0  0  0  0  0
  140.5950   71.2300  226.0180 C   0  0  0  0  0  0  0  0  0  0  0  0
  139.6340   70.7670  225.1660 C   0  0  0  0  0  0  0  0  0  0  0  0
  139.2010   71.5060  224.1210 N   0  0  0  0  0  0  0  0  0  0  0  0
  137.8170   73.7150  223.0350 H   0  0  0  0  0  0  0  0  0  0  0  0
  136.3250   73.1621  220.5256 H   0  0  0  0  0  0  0  0  0  0  0  0
  136.6074   74.7825  221.3085 H   0  0  0  0  0  0  0  0  0  0  0  0
  139.1746   77.0117  219.9269 H   0  0  0  0  0  0  0  0  0  0  0  0
  138.2845   76.6248  221.3766 H   0  0  0  0  0  0  0  0  0  0  0  0
  140.7774   77.5367  221.6542 H   0  0  0  0  0  0  0  0  0  0  0  0
  140.3901   76.1419  222.6246 H   0  0  0  0  0  0  0  0  0  0  0  0
  142.4092   75.4964  221.2012 H   0  0  0  0  0  0  0  0  0  0  0  0
  142.4740   76.9230  219.5970 H   0  0  0  0  0  0  0  0  0  0  0  0
  140.8164   73.8937  219.5426 H   0  0  0  0  0  0  0  0  0  0  0  0
  140.5965   72.4732  221.2899 H   0  0  0  0  0  0  0  0  0  0  0  0
  141.8243   73.6306  221.9747 H   0  0  0  0  0  0  0  0  0  0  0  0
  139.6930   72.9140  223.1070 H   0  0  0  0  0  0  0  0  0  0  0  0
  136.9666   69.4021  222.8542 H   0  0  0  0  0  0  0  0  0  0  0  0
  137.7148   67.9948  224.7539 H   0  0  0  0  0  0  0  0  0  0  0  0
  139.1217   67.7353  226.6596 H   0  0  0  0  0  0  0  0  0  0  0  0
  141.8392   70.9001  227.7685 H   0  0  0  0  0  0  0  0  0  0  0  0
  141.0178   72.2294  225.8376 H   0  0  0  0  0  0  0  0  0  0  0  0
  1  2  2  0
  2  3  1  0
  3  4  1  0
  4  5  1  0
  5  6  2  0
  5  7  1  0
  7  8  1  0
  8  9  1  0
  9 10  1  0
 10 11  1  0
 10 12  1  0
 12 13  1  0
 13 14  1  0
  2 15  1  0
 15 16  2  0
 16 17  1  0
 17 18  2  0
 18 19  1  0
 19 20  2  0
 20 21  1  0
 20 22  1  0
 22 23  2  0
 23 24  1  0
 24 25  2  0
 12  7  1  0
 25 15  1  0
 24 18  1  0
  3 26  1  0
  4 27  1  0
  4 28  1  0
  8 29  1  0
  8 30  1  0
  9 31  1  0
  9 32  1  0
 10 33  1  1
 11 34  1  0
 12 35  1  6
 13 36  1  0
 13 37  1  0
 14 38  1  0
 16 39  1  0
 17 40  1  0
 19 41  1  0
 22 42  1  0
 23 43  1  0
M  END
>  <smiles>  (43) 
O=C(NCC(=O)N1CC[C@H](O)[C@H]1CO)c1ccc2cc(Cl)ccc2n1

>  <score_type>  (43) 
oracle

>  <origin>  (43) 
autodockgpu

>  <m_score__min__energy>  (43) 
-7.2300000000000004

>  <m_primary>  (43) 
energy

>  <rmsd>  (43) 
2.672548020383574

>  <m_score__min__rmsd>  (43) 
2.672548020383574

>  <meeko>  (43) 
{"free_energy": -5.58, "intermolecular_energy": -7.67, "internal_energy": -2.53, "cluster_size": 7, "cluster_id": 3, "rank_in_cluster": 6}

>  <energy>  (43) 
-5.56

>  <cluster_rmsd>  (43) 
0.0

>  <cluster>  (43) 
5

$$$$

     RDKit          3D

 43 45  0  0  0  0  0  0  0  0999 V2000
  139.7510   72.0300  220.7780 O   0  0  0  0  0  0  0  0  0  0  0  0
  139.5760   72.4240  221.9760 C   0  0  0  0  0  0  0  0  0  0  0  0
  139.1720   73.7810  222.1240 N   0  0  0  0  0  0  0  0  0  0  0  0
  138.9990   74.5690  220.9460 C   0  0  0  0  0  0  0  0  0  0  0  0
  138.7000   75.9870  221.2430 C   0  0  0  0  0  0  0  0  0  0  0  0
  137.4900   76.3310  221.2490 O   0  0  0  0  0  0  0  0  0  0  0  0
  139.7750   76.8780  221.5000 N   0  0  0  0  0  0  0  0  0  0  0  0
  141.1420   76.7730  221.0100 C   0  0  0  0  0  0  0  0  0  0  0  0
  141.6370   78.1870  221.1510 C   0  0  0  0  0  0  0  0  0  0  0  0
  141.0490   78.5890  222.4950 C   0  0  2  0  0  0  0  0  0  0  0  0
  141.6720   77.8910  223.5370 O   0  0  0  0  0  0  0  0  0  0  0  0
  139.6280   78.0620  222.3280 C   0  0  1  0  0  0  0  0  0  0  0  0
  138.8360   79.1490  221.6410 C   0  0  0  0  0  0  0  0  0  0  0  0
  137.4700   78.9610  221.7450 O   0  0  0  0  0  0  0  0  0  0  0  0
  139.7790   71.5370  223.1190 C   0  0  0  0  0  0  0  0  0  0  0  0
  139.4180   70.2200  222.9800 C   0  0  0  0  0  0  0  0  0  0  0  0
  139.5630   69.2890  223.9890 C   0  0  0  0  0  0  0  0  0  0  0  0
  140.0960   69.7300  225.1760 C   0  0  0  0  0  0  0  0  0  0  0  0
  140.2550   68.8280  226.2050 C   0  0  0  0  0  0  0  0  0  0  0  0
  140.7840   69.2690  227.3800 C   0  0  0  0  0  0  0  0  0  0  0  0
  141.0020   68.1520  228.7100 Cl  0  0  0  0  0  0  0  0  0  0  0  0
  141.1660   70.5940  227.5680 C   0  0  0  0  0  0  0  0  0  0  0  0
  140.9850   71.4590  226.5020 C   0  0  0  0  0  0  0  0  0  0  0  0
  140.4590   71.0670  225.3050 C   0  0  0  0  0  0  0  0  0  0  0  0
  140.2960   71.9390  224.2850 N   0  0  0  0  0  0  0  0  0  0  0  0
  139.0150   74.1550  223.0820 H   0  0  0  0  0  0  0  0  0  0  0  0
  139.9241   74.5218  220.3527 H   0  0  0  0  0  0  0  0  0  0  0  0
  138.1397   74.1578  220.3960 H   0  0  0  0  0  0  0  0  0  0  0  0
  141.7344   76.0794  221.6249 H   0  0  0  0  0  0  0  0  0  0  0  0
  141.2159   76.3783  219.9859 H   0  0  0  0  0  0  0  0  0  0  0  0
  142.7362   78.2271  221.1664 H   0  0  0  0  0  0  0  0  0  0  0  0
  141.3441   78.8467  220.3210 H   0  0  0  0  0  0  0  0  0  0  0  0
  141.1459   79.6581  222.7352 H   0  0  0  0  0  0  0  0  0  0  0  0
  142.1890   77.1170  223.1840 H   0  0  0  0  0  0  0  0  0  0  0  0
  139.1083   77.8065  223.2632 H   0  0  0  0  0  0  0  0  0  0  0  0
  139.0941   80.1153  222.0989 H   0  0  0  0  0  0  0  0  0  0  0  0
  139.0944   79.1233  220.5721 H   0  0  0  0  0  0  0  0  0  0  0  0
  137.2890   77.9930  221.6360 H   0  0  0  0  0  0  0  0  0  0  0  0
  138.9934   69.8911  222.0200 H   0  0  0  0  0  0  0  0  0  0  0  0
  139.2647   68.2396  223.8487 H   0  0  0  0  0  0  0  0  0  0  0  0
  139.9613   67.7753  226.0805 H   0  0  0  0  0  0  0  0  0  0  0  0
  141.5929   70.9389  228.5213 H   0  0  0  0  0  0  0  0  0  0  0  0
  141.2790   72.5118  226.6256 H   0  0  0  0  0  0  0  0  0  0  0  0
  1  2  2  0
  2  3  1  0
  3  4  1  0
  4  5  1  0
  5  6  2  0
  5  7  1  0
  7  8  1  0
  8  9  1  0
  9 10  1  0
 10 11  1  0
 10 12  1  0
 12 13  1  0
 13 14  1  0
  2 15  1  0
 15 16  2  0
 16 17  1  0
 17 18  2  0
 18 19  1  0
 19 20  2  0
 20 21  1  0
 20 22  1  0
 22 23  2  0
 23 24  1  0
 24 25  2  0
 12  7  1  0
 25 15  1  0
 24 18  1  0
  3 26  1  0
  4 27  1  0
  4 28  1  0
  8 29  1  0
  8 30  1  0
  9 31  1  0
  9 32  1  0
 10 33  1  1
 11 34  1  0
 12 35  1  1
 13 36  1  0
 13 37  1  0
 14 38  1  0
 16 39  1  0
 17 40  1  0
 19 41  1  0
 22 42  1  0
 23 43  1  0
M  END
>  <smiles>  (44) 
O=C(NCC(=O)N1CC[C@H](O)[C@H]1CO)c1ccc2cc(Cl)ccc2n1

>  <score_type>  (44) 
oracle

>  <origin>  (44) 
autodockgpu

>  <m_score__min__energy>  (44) 
-7.2300000000000004

>  <m_primary>  (44) 
energy

>  <rmsd>  (44) 
3.2174207975986957

>  <m_score__min__rmsd>  (44) 
3.2174207975986957

>  <meeko>  (44) 
{"free_energy": -6.24, "intermolecular_energy": -8.33, "internal_energy": -1.62, "cluster_size": 7, "cluster_id": 2, "rank_in_cluster": 6}

>  <energy>  (44) 
-5.49

>  <cluster_rmsd>  (44) 
0.0

>  <cluster>  (44) 
6

$$$$

     RDKit          3D

 43 45  0  0  0  0  0  0  0  0999 V2000
  141.2760   71.2380  221.7240 O   0  0  0  0  0  0  0  0  0  0  0  0
  140.9290   72.3630  222.2080 C   0  0  0  0  0  0  0  0  0  0  0  0
  140.3060   72.3150  223.4870 N   0  0  0  0  0  0  0  0  0  0  0  0
  140.1250   71.0410  224.1060 C   0  0  0  0  0  0  0  0  0  0  0  0
  140.5270   71.0330  225.5300 C   0  0  0  0  0  0  0  0  0  0  0  0
  140.8840   72.1290  226.0330 O   0  0  0  0  0  0  0  0  0  0  0  0
  140.4920   69.8080  226.2470 N   0  0  0  0  0  0  0  0  0  0  0  0
  141.4300   68.6990  226.1430 C   0  0  0  0  0  0  0  0  0  0  0  0
  141.2050   67.9740  227.4420 C   0  0  0  0  0  0  0  0  0  0  0  0
  139.6920   68.0390  227.5770 C   0  0  2  0  0  0  0  0  0  0  0  0
  139.0740   67.2320  226.6120 O   0  0  0  0  0  0  0  0  0  0  0  0
  139.4580   69.5020  227.2210 C   0  0  1  0  0  0  0  0  0  0  0  0
  139.6190   70.2940  228.4960 C   0  0  0  0  0  0  0  0  0  0  0  0
  139.9090   71.6270  228.2650 O   0  0  0  0  0  0  0  0  0  0  0  0
  141.1580   73.6170  221.4930 C   0  0  0  0  0  0  0  0  0  0  0  0
  141.7260   73.5480  220.2450 C   0  0  0  0  0  0  0  0  0  0  0  0
  141.9900   74.6640  219.4760 C   0  0  0  0  0  0  0  0  0  0  0  0
  141.6580   75.8850  220.0100 C   0  0  0  0  0  0  0  0  0  0  0  0
  141.9080   77.0200  219.2700 C   0  0  0  0  0  0  0  0  0  0  0  0
  141.5770   78.2290  219.8030 C   0  0  0  0  0  0  0  0  0  0  0  0
  141.8790   79.6930  218.8910 Cl  0  0  0  0  0  0  0  0  0  0  0  0
  141.0000   78.3490  221.0630 C   0  0  0  0  0  0  0  0  0  0  0  0
  140.7700   77.1780  221.7650 C   0  0  0  0  0  0  0  0  0  0  0  0
  141.0830   75.9420  221.2750 C   0  0  0  0  0  0  0  0  0  0  0  0
  140.8450   74.8190  221.9890 N   0  0  0  0  0  0  0  0  0  0  0  0
  140.0020   73.2070  223.9290 H   0  0  0  0  0  0  0  0  0  0  0  0
  139.0621   70.7657  224.0393 H   0  0  0  0  0  0  0  0  0  0  0  0
  140.7669   70.3215  223.5767 H   0  0  0  0  0  0  0  0  0  0  0  0
  141.1952   68.0568  225.2813 H   0  0  0  0  0  0  0  0  0  0  0  0
  142.4723   69.0137  225.9863 H   0  0  0  0  0  0  0  0  0  0  0  0
  141.5577   66.9336  227.3862 H   0  0  0  0  0  0  0  0  0  0  0  0
  141.7472   68.4091  228.2945 H   0  0  0  0  0  0  0  0  0  0  0  0
  139.3054   67.7094  228.5526 H   0  0  0  0  0  0  0  0  0  0  0  0
  139.1920   66.2680  226.8310 H   0  0  0  0  0  0  0  0  0  0  0  0
  138.4661   69.7315  226.8046 H   0  0  0  0  0  0  0  0  0  0  0  0
  138.6821   70.2321  229.0691 H   0  0  0  0  0  0  0  0  0  0  0  0
  140.4651   69.8617  229.0503 H   0  0  0  0  0  0  0  0  0  0  0  0
  140.8130   71.6730  227.8620 H   0  0  0  0  0  0  0  0  0  0  0  0
  141.9825   72.5583  219.8391 H   0  0  0  0  0  0  0  0  0  0  0  0
  142.4465   74.5788  218.4788 H   0  0  0  0  0  0  0  0  0  0  0  0
  142.3645   76.9514  218.2716 H   0  0  0  0  0  0  0  0  0  0  0  0
  140.7379   79.3312  221.4833 H   0  0  0  0  0  0  0  0  0  0  0  0
  140.3140   77.2462  222.7637 H   0  0  0  0  0  0  0  0  0  0  0  0
  1  2  2  0
  2  3  1  0
  3  4  1  0
  4  5  1  0
  5  6  2  0
  5  7  1  0
  7  8  1  0
  8  9  1  0
  9 10  1  0
 10 11  1  0
 10 12  1  0
 12 13  1  0
 13 14  1  0
  2 15  1  0
 15 16  2  0
 16 17  1  0
 17 18  2  0
 18 19  1  0
 19 20  2  0
 20 21  1  0
 20 22  1  0
 22 23  2  0
 23 24  1  0
 24 25  2  0
 12  7  1  0
 25 15  1  0
 24 18  1  0
  3 26  1  0
  4 27  1  0
  4 28  1  0
  8 29  1  0
  8 30  1  0
  9 31  1  0
  9 32  1  0
 10 33  1  1
 11 34  1  0
 12 35  1  6
 13 36  1  0
 13 37  1  0
 14 38  1  0
 16 39  1  0
 17 40  1  0
 19 41  1  0
 22 42  1  0
 23 43  1  0
M  END
>  <smiles>  (45) 
O=C(NCC(=O)N1CC[C@H](O)[C@H]1CO)c1ccc2cc(Cl)ccc2n1

>  <score_type>  (45) 
oracle

>  <origin>  (45) 
autodockgpu

>  <m_score__min__energy>  (45) 
-7.2300000000000004

>  <m_primary>  (45) 
energy

>  <rmsd>  (45) 
9.358978741098698

>  <m_score__min__rmsd>  (45) 
9.358978741098698

>  <meeko>  (45) 
{"free_energy": -6.24, "intermolecular_energy": -8.32, "internal_energy": -1.83, "cluster_size": 5, "cluster_id": 4, "rank_in_cluster": 4}

>  <energy>  (45) 
-5.44

>  <cluster_rmsd>  (45) 
0.0

>  <cluster>  (45) 
7

$$$$

     RDKit          3D

 43 45  0  0  0  0  0  0  0  0999 V2000
  139.1920   72.9800  220.7480 O   0  0  0  0  0  0  0  0  0  0  0  0
  140.2050   72.8390  221.5070 C   0  0  0  0  0  0  0  0  0  0  0  0
  141.3440   73.6190  221.1630 N   0  0  0  0  0  0  0  0  0  0  0  0
  141.2610   74.4750  220.0230 C   0  0  0  0  0  0  0  0  0  0  0  0
  142.5880   74.8140  219.4620 C   0  0  0  0  0  0  0  0  0  0  0  0
  142.6430   75.7830  218.6610 O   0  0  0  0  0  0  0  0  0  0  0  0
  143.7150   74.0420  219.8460 N   0  0  0  0  0  0  0  0  0  0  0  0
  144.7560   74.4140  220.7930 C   0  0  0  0  0  0  0  0  0  0  0  0
  145.3320   73.0760  221.1700 C   0  0  0  0  0  0  0  0  0  0  0  0
  145.3620   72.3610  219.8280 C   0  0  2  0  0  0  0  0  0  0  0  0
  146.3230   72.9330  218.9840 O   0  0  0  0  0  0  0  0  0  0  0  0
  143.9740   72.7170  219.3090 C   0  0  1  0  0  0  0  0  0  0  0  0
  143.0230   71.6790  219.8550 C   0  0  0  0  0  0  0  0  0  0  0  0
  143.0720   71.5820  221.2340 O   0  0  0  0  0  0  0  0  0  0  0  0
  140.1900   71.9330  222.6550 C   0  0  0  0  0  0  0  0  0  0  0  0
  139.6360   70.6890  222.4810 C   0  0  0  0  0  0  0  0  0  0  0  0
  139.5670   69.7510  223.4910 C   0  0  0  0  0  0  0  0  0  0  0  0
  140.0830   70.1050  224.7130 C   0  0  0  0  0  0  0  0  0  0  0  0
  140.0300   69.1930  225.7440 C   0  0  0  0  0  0  0  0  0  0  0  0
  140.5430   69.5480  226.9550 C   0  0  0  0  0  0  0  0  0  0  0  0
  140.4940   68.4150  228.2880 Cl  0  0  0  0  0  0  0  0  0  0  0  0
  141.1150   70.7980  227.1780 C   0  0  0  0  0  0  0  0  0  0  0  0
  141.1430   71.6770  226.1080 C   0  0  0  0  0  0  0  0  0  0  0  0
  140.6420   71.3690  224.8760 C   0  0  0  0  0  0  0  0  0  0  0  0
  140.6860   72.2530  223.8540 N   0  0  0  0  0  0  0  0  0  0  0  0
  142.2000   73.5420  221.7510 H   0  0  0  0  0  0  0  0  0  0  0  0
  140.6698   73.9687  219.2457 H   0  0  0  0  0  0  0  0  0  0  0  0
  140.7892   75.4141  220.3479 H   0  0  0  0  0  0  0  0  0  0  0  0
  145.5140   75.0564  220.3211 H   0  0  0  0  0  0  0  0  0  0  0  0
  144.3866   74.9945  221.6512 H   0  0  0  0  0  0  0  0  0  0  0  0
  146.3428   73.1794  221.5914 H   0  0  0  0  0  0  0  0  0  0  0  0
  144.7580   72.5461  221.9444 H   0  0  0  0  0  0  0  0  0  0  0  0
  145.5980   71.2882  219.8864 H   0  0  0  0  0  0  0  0  0  0  0  0
  146.1390   73.9010  218.8460 H   0  0  0  0  0  0  0  0  0  0  0  0
  143.8691   72.7263  218.2141 H   0  0  0  0  0  0  0  0  0  0  0  0
  141.9990   71.9490  219.5575 H   0  0  0  0  0  0  0  0  0  0  0  0
  143.3231   70.7043  219.4428 H   0  0  0  0  0  0  0  0  0  0  0  0
  143.9280   71.1440  221.4750 H   0  0  0  0  0  0  0  0  0  0  0  0
  139.2291   70.4283  221.4928 H   0  0  0  0  0  0  0  0  0  0  0  0
  139.1174   68.7611  223.3239 H   0  0  0  0  0  0  0  0  0  0  0  0
  139.5830   68.1994  225.5927 H   0  0  0  0  0  0  0  0  0  0  0  0
  141.5262   71.0748  228.1600 H   0  0  0  0  0  0  0  0  0  0  0  0
  141.5903   72.6707  226.2581 H   0  0  0  0  0  0  0  0  0  0  0  0
  1  2  2  0
  2  3  1  0
  3  4  1  0
  4  5  1  0
  5  6  2  0
  5  7  1  0
  7  8  1  0
  8  9  1  0
  9 10  1  0
 10 11  1  0
 10 12  1  0
 12 13  1  0
 13 14  1  0
  2 15  1  0
 15 16  2  0
 16 17  1  0
 17 18  2  0
 18 19  1  0
 19 20  2  0
 20 21  1  0
 20 22  1  0
 22 23  2  0
 23 24  1  0
 24 25  2  0
 12  7  1  0
 25 15  1  0
 24 18  1  0
  3 26  1  0
  4 27  1  0
  4 28  1  0
  8 29  1  0
  8 30  1  0
  9 31  1  0
  9 32  1  0
 10 33  1  1
 11 34  1  0
 12 35  1  6
 13 36  1  0
 13 37  1  0
 14 38  1  0
 16 39  1  0
 17 40  1  0
 19 41  1  0
 22 42  1  0
 23 43  1  0
M  END
>  <smiles>  (46) 
O=C(NCC(=O)N1CC[C@H](O)[C@H]1CO)c1ccc2cc(Cl)ccc2n1

>  <score_type>  (46) 
oracle

>  <origin>  (46) 
autodockgpu

>  <m_score__min__energy>  (46) 
-7.2300000000000004

>  <m_primary>  (46) 
energy

>  <rmsd>  (46) 
4.1382496233421575

>  <m_score__min__rmsd>  (46) 
4.1382496233421575

>  <meeko>  (46) 
{"free_energy": -6.74, "intermolecular_energy": -8.83, "internal_energy": -1.68, "cluster_size": 23, "cluster_id": 1, "rank_in_cluster": 6}

>  <energy>  (46) 
-5.37

>  <cluster_rmsd>  (46) 
0.0

>  <cluster>  (46) 
8

$$$$

     RDKit          3D

 43 45  0  0  0  0  0  0  0  0999 V2000
  136.8370   71.5370  221.2850 O   0  0  0  0  0  0  0  0  0  0  0  0
  136.9810   71.9880  222.4670 C   0  0  0  0  0  0  0  0  0  0  0  0
  136.4800   73.3020  222.6880 N   0  0  0  0  0  0  0  0  0  0  0  0
  135.8730   73.9900  221.5940 C   0  0  0  0  0  0  0  0  0  0  0  0
  136.7960   74.9330  220.9260 C   0  0  0  0  0  0  0  0  0  0  0  0
  136.2830   75.9020  220.3080 O   0  0  0  0  0  0  0  0  0  0  0  0
  138.1950   74.7040  221.0110 N   0  0  0  0  0  0  0  0  0  0  0  0
  139.0130   73.9040  220.1100 C   0  0  0  0  0  0  0  0  0  0  0  0
  140.3920   74.4440  220.3750 C   0  0  0  0  0  0  0  0  0  0  0  0
  140.3780   74.6070  221.8860 C   0  0  2  0  0  0  0  0  0  0  0  0
  140.3610   73.3580  222.5200 O   0  0  0  0  0  0  0  0  0  0  0  0
  139.0170   75.2700  222.0660 C   0  0  1  0  0  0  0  0  0  0  0  0
  139.2280   76.7560  221.8940 C   0  0  0  0  0  0  0  0  0  0  0  0
  138.0860   77.4910  222.1560 O   0  0  0  0  0  0  0  0  0  0  0  0
  137.6180   71.2020  223.5220 C   0  0  0  0  0  0  0  0  0  0  0  0
  136.9630   70.0830  223.9710 C   0  0  0  0  0  0  0  0  0  0  0  0
  137.4670   69.2640  224.9620 C   0  0  0  0  0  0  0  0  0  0  0  0
  138.6810   69.6100  225.5040 C   0  0  0  0  0  0  0  0  0  0  0  0
  139.2130   68.8160  226.4960 C   0  0  0  0  0  0  0  0  0  0  0  0
  140.4160   69.1620  227.0310 C   0  0  0  0  0  0  0  0  0  0  0  0
  141.1250   68.1760  228.2920 Cl  0  0  0  0  0  0  0  0  0  0  0  0
  141.1180   70.2870  226.6070 C   0  0  0  0  0  0  0  0  0  0  0  0
  140.5380   71.0510  225.6080 C   0  0  0  0  0  0  0  0  0  0  0  0
  139.3350   70.7470  225.0400 C   0  0  0  0  0  0  0  0  0  0  0  0
  138.7980   71.5160  224.0670 N   0  0  0  0  0  0  0  0  0  0  0  0
  136.5720   73.7190  223.6370 H   0  0  0  0  0  0  0  0  0  0  0  0
  135.5347   73.2475  220.8562 H   0  0  0  0  0  0  0  0  0  0  0  0
  135.0344   74.5771  221.9966 H   0  0  0  0  0  0  0  0  0  0  0  0
  138.9489   72.8338  220.3563 H   0  0  0  0  0  0  0  0  0  0  0  0
  138.7060   73.9709  219.0558 H   0  0  0  0  0  0  0  0  0  0  0  0
  141.1685   73.7330  220.0562 H   0  0  0  0  0  0  0  0  0  0  0  0
  140.6192   75.3717  219.8293 H   0  0  0  0  0  0  0  0  0  0  0  0
  141.2422   75.1512  222.2947 H   0  0  0  0  0  0  0  0  0  0  0  0
  139.5900   73.2900  223.1450 H   0  0  0  0  0  0  0  0  0  0  0  0
  138.5409   75.1077  223.0443 H   0  0  0  0  0  0  0  0  0  0  0  0
  140.0215   77.0809  222.5831 H   0  0  0  0  0  0  0  0  0  0  0  0
  139.5036   76.9332  220.8439 H   0  0  0  0  0  0  0  0  0  0  0  0
  137.4430   77.3210  221.4220 H   0  0  0  0  0  0  0  0  0  0  0  0
  135.9925   69.8267  223.5211 H   0  0  0  0  0  0  0  0  0  0  0  0
  136.9198   68.3727  225.3029 H   0  0  0  0  0  0  0  0  0  0  0  0
  138.6775   67.9220  226.8481 H   0  0  0  0  0  0  0  0  0  0  0  0
  142.0899   70.5570  227.0458 H   0  0  0  0  0  0  0  0  0  0  0  0
  141.0725   71.9455  225.2556 H   0  0  0  0  0  0  0  0  0  0  0  0
  1  2  2  0
  2  3  1  0
  3  4  1  0
  4  5  1  0
  5  6  2  0
  5  7  1  0
  7  8  1  0
  8  9  1  0
  9 10  1  0
 10 11  1  0
 10 12  1  0
 12 13  1  0
 13 14  1  0
  2 15  1  0
 15 16  2  0
 16 17  1  0
 17 18  2  0
 18 19  1  0
 19 20  2  0
 20 21  1  0
 20 22  1  0
 22 23  2  0
 23 24  1  0
 24 25  2  0
 12  7  1  0
 25 15  1  0
 24 18  1  0
  3 26  1  0
  4 27  1  0
  4 28  1  0
  8 29  1  0
  8 30  1  0
  9 31  1  0
  9 32  1  0
 10 33  1  1
 11 34  1  0
 12 35  1  1
 13 36  1  0
 13 37  1  0
 14 38  1  0
 16 39  1  0
 17 40  1  0
 19 41  1  0
 22 42  1  0
 23 43  1  0
M  END
>  <smiles>  (47) 
O=C(NCC(=O)N1CC[C@H](O)[C@H]1CO)c1ccc2cc(Cl)ccc2n1

>  <score_type>  (47) 
oracle

>  <origin>  (47) 
autodockgpu

>  <m_score__min__energy>  (47) 
-7.2300000000000004

>  <m_primary>  (47) 
energy

>  <rmsd>  (47) 
3.137673890246156

>  <m_score__min__rmsd>  (47) 
3.137673890246156

>  <meeko>  (47) 
{"free_energy": -5.21, "intermolecular_energy": -7.3, "internal_energy": -2.83, "cluster_size": 2, "cluster_id": 9, "rank_in_cluster": 1}

>  <energy>  (47) 
-5.35

>  <cluster_rmsd>  (47) 
0.14

>  <cluster>  (47) 
8

$$$$

     RDKit          3D

 43 45  0  0  0  0  0  0  0  0999 V2000
  139.6390   74.0130  221.9950 O   0  0  0  0  0  0  0  0  0  0  0  0
  140.3550   72.9600  221.9960 C   0  0  0  0  0  0  0  0  0  0  0  0
  141.1860   72.7820  220.8550 N   0  0  0  0  0  0  0  0  0  0  0  0
  141.1510   73.7750  219.8280 C   0  0  0  0  0  0  0  0  0  0  0  0
  142.3510   73.7490  218.9630 C   0  0  0  0  0  0  0  0  0  0  0  0
  142.1760   73.9320  217.7310 O   0  0  0  0  0  0  0  0  0  0  0  0
  143.6200   73.5210  219.5560 N   0  0  0  0  0  0  0  0  0  0  0  0
  144.3220   74.3830  220.4970 C   0  0  0  0  0  0  0  0  0  0  0  0
  145.2890   73.4260  221.1400 C   0  0  0  0  0  0  0  0  0  0  0  0
  145.7530   72.6050  219.9470 C   0  0  2  0  0  0  0  0  0  0  0  0
  146.5430   73.3810  219.0890 O   0  0  0  0  0  0  0  0  0  0  0  0
  144.4120   72.3350  219.2750 C   0  0  1  0  0  0  0  0  0  0  0  0
  143.8400   71.0970  219.9220 C   0  0  0  0  0  0  0  0  0  0  0  0
  143.4530   71.3090  221.2340 O   0  0  0  0  0  0  0  0  0  0  0  0
  140.3190   72.0010  223.0990 C   0  0  0  0  0  0  0  0  0  0  0  0
  139.8210   70.7480  222.8420 C   0  0  0  0  0  0  0  0  0  0  0  0
  139.7390   69.7610  223.8030 C   0  0  0  0  0  0  0  0  0  0  0  0
  140.1820   70.0750  225.0640 C   0  0  0  0  0  0  0  0  0  0  0  0
  140.1140   69.1140  226.0490 C   0  0  0  0  0  0  0  0  0  0  0  0
  140.5540   69.4300  227.2980 C   0  0  0  0  0  0  0  0  0  0  0  0
  140.4840   68.2330  228.5740 Cl  0  0  0  0  0  0  0  0  0  0  0  0
  141.0670   70.6870  227.6060 C   0  0  0  0  0  0  0  0  0  0  0  0
  141.1140   71.6160  226.5800 C   0  0  0  0  0  0  0  0  0  0  0  0
  140.6850   71.3490  225.3120 C   0  0  0  0  0  0  0  0  0  0  0  0
  140.7440   72.2810  224.3350 N   0  0  0  0  0  0  0  0  0  0  0  0
  141.7920   71.9380  220.8040 H   0  0  0  0  0  0  0  0  0  0  0  0
  140.2631   73.6020  219.2022 H   0  0  0  0  0  0  0  0  0  0  0  0
  141.1189   74.7585  220.3197 H   0  0  0  0  0  0  0  0  0  0  0  0
  144.8506   75.1953  219.9766 H   0  0  0  0  0  0  0  0  0  0  0  0
  143.6583   74.8896  221.2132 H   0  0  0  0  0  0  0  0  0  0  0  0
  146.1283   73.9598  221.6098 H   0  0  0  0  0  0  0  0  0  0  0  0
  144.8496   72.8257  221.9503 H   0  0  0  0  0  0  0  0  0  0  0  0
  146.3526   71.7201  220.2066 H   0  0  0  0  0  0  0  0  0  0  0  0
  146.0150   74.1350  218.7100 H   0  0  0  0  0  0  0  0  0  0  0  0
  144.4568   72.1585  218.1902 H   0  0  0  0  0  0  0  0  0  0  0  0
  142.9620   70.7720  219.3445 H   0  0  0  0  0  0  0  0  0  0  0  0
  144.6295   70.3311  219.9286 H   0  0  0  0  0  0  0  0  0  0  0  0
  144.2340   71.1190  221.8130 H   0  0  0  0  0  0  0  0  0  0  0  0
  139.4715   70.5203  221.8241 H   0  0  0  0  0  0  0  0  0  0  0  0
  139.3357   68.7648  223.5686 H   0  0  0  0  0  0  0  0  0  0  0  0
  139.7129   68.1132  225.8310 H   0  0  0  0  0  0  0  0  0  0  0  0
  141.4193   70.9314  228.6190 H   0  0  0  0  0  0  0  0  0  0  0  0
  141.5161   72.6165  226.7972 H   0  0  0  0  0  0  0  0  0  0  0  0
  1  2  2  0
  2  3  1  0
  3  4  1  0
  4  5  1  0
  5  6  2  0
  5  7  1  0
  7  8  1  0
  8  9  1  0
  9 10  1  0
 10 11  1  0
 10 12  1  0
 12 13  1  0
 13 14  1  0
  2 15  1  0
 15 16  2  0
 16 17  1  0
 17 18  2  0
 18 19  1  0
 19 20  2  0
 20 21  1  0
 20 22  1  0
 22 23  2  0
 23 24  1  0
 24 25  2  0
 12  7  1  0
 25 15  1  0
 24 18  1  0
  3 26  1  0
  4 27  1  0
  4 28  1  0
  8 29  1  0
  8 30  1  0
  9 31  1  0
  9 32  1  0
 10 33  1  1
 11 34  1  0
 12 35  1  6
 13 36  1  0
 13 37  1  0
 14 38  1  0
 16 39  1  0
 17 40  1  0
 19 41  1  0
 22 42  1  0
 23 43  1  0
M  END
>  <smiles>  (48) 
O=C(NCC(=O)N1CC[C@H](O)[C@H]1CO)c1ccc2cc(Cl)ccc2n1

>  <score_type>  (48) 
oracle

>  <origin>  (48) 
autodockgpu

>  <m_score__min__energy>  (48) 
-7.2300000000000004

>  <m_primary>  (48) 
energy

>  <rmsd>  (48) 
4.244167043005352

>  <m_score__min__rmsd>  (48) 
4.244167043005352

>  <meeko>  (48) 
{"free_energy": -7.17, "intermolecular_energy": -9.25, "internal_energy": -1.76, "cluster_size": 23, "cluster_id": 1, "rank_in_cluster": 2}

>  <energy>  (48) 
-5.21

>  <cluster_rmsd>  (48) 
0.0

>  <cluster>  (48) 
9

$$$$

     RDKit          3D

 43 45  0  0  0  0  0  0  0  0999 V2000
  139.9360   73.7200  219.8000 O   0  0  0  0  0  0  0  0  0  0  0  0
  140.5690   73.6480  220.9020 C   0  0  0  0  0  0  0  0  0  0  0  0
  141.5240   74.6790  221.1310 N   0  0  0  0  0  0  0  0  0  0  0  0
  141.6890   75.6850  220.1310 C   0  0  0  0  0  0  0  0  0  0  0  0
  143.0390   75.6780  219.5260 C   0  0  0  0  0  0  0  0  0  0  0  0
  143.4050   76.7190  218.9240 O   0  0  0  0  0  0  0  0  0  0  0  0
  143.8420   74.5140  219.6520 N   0  0  0  0  0  0  0  0  0  0  0  0
  144.6600   74.1260  220.7920 C   0  0  0  0  0  0  0  0  0  0  0  0
  144.8260   72.6470  220.5730 C   0  0  0  0  0  0  0  0  0  0  0  0
  145.0490   72.5780  219.0700 C   0  0  2  0  0  0  0  0  0  0  0  0
  146.2920   73.1270  218.7290 O   0  0  0  0  0  0  0  0  0  0  0  0
  143.9470   73.5190  218.5970 C   0  0  1  0  0  0  0  0  0  0  0  0
  142.6920   72.6910  218.4620 C   0  0  0  0  0  0  0  0  0  0  0  0
  141.6930   73.3450  217.7630 O   0  0  0  0  0  0  0  0  0  0  0  0
  140.3270   72.5750  221.8640 C   0  0  0  0  0  0  0  0  0  0  0  0
  139.7020   71.4390  221.4120 C   0  0  0  0  0  0  0  0  0  0  0  0
  139.4210   70.3610  222.2270 C   0  0  0  0  0  0  0  0  0  0  0  0
  139.7960   70.4570  223.5450 C   0  0  0  0  0  0  0  0  0  0  0  0
  139.5300   69.3990  224.3870 C   0  0  0  0  0  0  0  0  0  0  0  0
  139.9030   69.4990  225.6930 C   0  0  0  0  0  0  0  0  0  0  0  0
  139.5840   68.1740  226.7930 Cl  0  0  0  0  0  0  0  0  0  0  0  0
  140.5400   70.6290  226.1970 C   0  0  0  0  0  0  0  0  0  0  0  0
  140.7830   71.6630  225.3080 C   0  0  0  0  0  0  0  0  0  0  0  0
  140.4290   71.6130  223.9910 C   0  0  0  0  0  0  0  0  0  0  0  0
  140.6810   72.6420  223.1510 N   0  0  0  0  0  0  0  0  0  0  0  0
  142.0700   74.6680  222.0170 H   0  0  0  0  0  0  0  0  0  0  0  0
  140.9473   75.5155  219.3366 H   0  0  0  0  0  0  0  0  0  0  0  0
  141.5502   76.6614  220.6183 H   0  0  0  0  0  0  0  0  0  0  0  0
  145.6311   74.6426  220.7808 H   0  0  0  0  0  0  0  0  0  0  0  0
  144.2135   74.3817  221.7642 H   0  0  0  0  0  0  0  0  0  0  0  0
  145.6931   72.2552  221.1249 H   0  0  0  0  0  0  0  0  0  0  0  0
  143.9744   72.0463  220.9250 H   0  0  0  0  0  0  0  0  0  0  0  0
  145.0319   71.5611  218.6510 H   0  0  0  0  0  0  0  0  0  0  0  0
  146.2210   74.1120  218.6070 H   0  0  0  0  0  0  0  0  0  0  0  0
  144.1315   74.0107  217.6305 H   0  0  0  0  0  0  0  0  0  0  0  0
  142.9403   71.7596  217.9321 H   0  0  0  0  0  0  0  0  0  0  0  0
  142.3135   72.4940  219.4759 H   0  0  0  0  0  0  0  0  0  0  0  0
  140.9630   73.5490  218.4010 H   0  0  0  0  0  0  0  0  0  0  0  0
  139.4121   71.3856  220.3522 H   0  0  0  0  0  0  0  0  0  0  0  0
  138.9183   69.4634  221.8377 H   0  0  0  0  0  0  0  0  0  0  0  0
  139.0280   68.4946  224.0129 H   0  0  0  0  0  0  0  0  0  0  0  0
  140.8371   70.6979  227.2539 H   0  0  0  0  0  0  0  0  0  0  0  0
  141.2853   72.5676  225.6814 H   0  0  0  0  0  0  0  0  0  0  0  0
  1  2  2  0
  2  3  1  0
  3  4  1  0
  4  5  1  0
  5  6  2  0
  5  7  1  0
  7  8  1  0
  8  9  1  0
  9 10  1  0
 10 11  1  0
 10 12  1  0
 12 13  1  0
 13 14  1  0
  2 15  1  0
 15 16  2  0
 16 17  1  0
 17 18  2  0
 18 19  1  0
 19 20  2  0
 20 21  1  0
 20 22  1  0
 22 23  2  0
 23 24  1  0
 24 25  2  0
 12  7  1  0
 25 15  1  0
 24 18  1  0
  3 26  1  0
  4 27  1  0
  4 28  1  0
  8 29  1  0
  8 30  1  0
  9 31  1  0
  9 32  1  0
 10 33  1  6
 11 34  1  0
 12 35  1  6
 13 36  1  0
 13 37  1  0
 14 38  1  0
 16 39  1  0
 17 40  1  0
 19 41  1  0
 22 42  1  0
 23 43  1  0
M  END
>  <smiles>  (49) 
O=C(NCC(=O)N1CC[C@H](O)[C@H]1CO)c1ccc2cc(Cl)ccc2n1

>  <score_type>  (49) 
oracle

>  <origin>  (49) 
autodockgpu

>  <m_score__min__energy>  (49) 
-7.2300000000000004

>  <m_primary>  (49) 
energy

>  <rmsd>  (49) 
4.276867408877167

>  <m_score__min__rmsd>  (49) 
4.276867408877167

>  <meeko>  (49) 
{"free_energy": -5.97, "intermolecular_energy": -8.06, "internal_energy": -2.22, "cluster_size": 23, "cluster_id": 1, "rank_in_cluster": 21}

>  <energy>  (49) 
-5.06

>  <cluster_rmsd>  (49) 
0.89

>  <cluster>  (49) 
9

$$$$

     RDKit          3D

 43 45  0  0  0  0  0  0  0  0999 V2000
  139.0950   73.2720  221.2420 O   0  0  0  0  0  0  0  0  0  0  0  0
  140.1570   72.7170  221.6710 C   0  0  0  0  0  0  0  0  0  0  0  0
  141.3390   72.9980  220.9310 N   0  0  0  0  0  0  0  0  0  0  0  0
  141.2410   73.8580  219.7950 C   0  0  0  0  0  0  0  0  0  0  0  0
  142.4610   73.8460  218.9580 C   0  0  0  0  0  0  0  0  0  0  0  0
  142.3120   74.0260  217.7220 O   0  0  0  0  0  0  0  0  0  0  0  0
  143.7190   73.6350  219.5800 N   0  0  0  0  0  0  0  0  0  0  0  0
  144.4310   74.5500  220.4610 C   0  0  0  0  0  0  0  0  0  0  0  0
  145.3700   73.6230  221.1850 C   0  0  0  0  0  0  0  0  0  0  0  0
  145.8260   72.7040  220.0630 C   0  0  2  0  0  0  0  0  0  0  0  0
  146.6420   73.3950  219.1580 O   0  0  0  0  0  0  0  0  0  0  0  0
  144.4850   72.4140  219.3990 C   0  0  1  0  0  0  0  0  0  0  0  0
  143.8780   71.2410  220.1310 C   0  0  0  0  0  0  0  0  0  0  0  0
  142.5670   71.0010  219.7600 O   0  0  0  0  0  0  0  0  0  0  0  0
  140.1540   71.8500  222.8480 C   0  0  0  0  0  0  0  0  0  0  0  0
  139.6050   70.5980  222.7190 C   0  0  0  0  0  0  0  0  0  0  0  0
  139.5460   69.6930  223.7600 C   0  0  0  0  0  0  0  0  0  0  0  0
  140.0700   70.0900  224.9660 C   0  0  0  0  0  0  0  0  0  0  0  0
  140.0270   69.2120  226.0270 C   0  0  0  0  0  0  0  0  0  0  0  0
  140.5480   69.6090  227.2210 C   0  0  0  0  0  0  0  0  0  0  0  0
  140.5130   68.5190  228.5910 Cl  0  0  0  0  0  0  0  0  0  0  0  0
  141.1160   70.8670  227.3990 C   0  0  0  0  0  0  0  0  0  0  0  0
  141.1320   71.7110  226.3010 C   0  0  0  0  0  0  0  0  0  0  0  0
  140.6250   71.3600  225.0830 C   0  0  0  0  0  0  0  0  0  0  0  0
  140.6570   72.2110  224.0330 N   0  0  0  0  0  0  0  0  0  0  0  0
  142.2360   72.5690  221.2390 H   0  0  0  0  0  0  0  0  0  0  0  0
  140.3897   73.5313  219.1797 H   0  0  0  0  0  0  0  0  0  0  0  0
  141.1061   74.8840  220.1679 H   0  0  0  0  0  0  0  0  0  0  0  0
  144.9827   75.3090  219.8869 H   0  0  0  0  0  0  0  0  0  0  0  0
  143.7722   75.1237  221.1295 H   0  0  0  0  0  0  0  0  0  0  0  0
  146.2170   74.1721  221.6222 H   0  0  0  0  0  0  0  0  0  0  0  0
  144.9094   73.0957  222.0334 H   0  0  0  0  0  0  0  0  0  0  0  0
  146.4026   71.8279  220.3948 H   0  0  0  0  0  0  0  0  0  0  0  0
  146.5870   74.3760  219.3130 H   0  0  0  0  0  0  0  0  0  0  0  0
  144.5356   72.1545  218.3312 H   0  0  0  0  0  0  0  0  0  0  0  0
  144.4753   70.3432  219.9137 H   0  0  0  0  0  0  0  0  0  0  0  0
  143.8810   71.4814  221.2044 H   0  0  0  0  0  0  0  0  0  0  0  0
  142.3720   71.5560  218.9630 H   0  0  0  0  0  0  0  0  0  0  0  0
  139.1937   70.3028  221.7424 H   0  0  0  0  0  0  0  0  0  0  0  0
  139.0985   68.6967  223.6292 H   0  0  0  0  0  0  0  0  0  0  0  0
  139.5818   68.2127  225.9122 H   0  0  0  0  0  0  0  0  0  0  0  0
  141.5335   71.1771  228.3683 H   0  0  0  0  0  0  0  0  0  0  0  0
  141.5742   72.7116  226.4158 H   0  0  0  0  0  0  0  0  0  0  0  0
  1  2  2  0
  2  3  1  0
  3  4  1  0
  4  5  1  0
  5  6  2  0
  5  7  1  0
  7  8  1  0
  8  9  1  0
  9 10  1  0
 10 11  1  0
 10 12  1  0
 12 13  1  0
 13 14  1  0
  2 15  1  0
 15 16  2  0
 16 17  1  0
 17 18  2  0
 18 19  1  0
 19 20  2  0
 20 21  1  0
 20 22  1  0
 22 23  2  0
 23 24  1  0
 24 25  2  0
 12  7  1  0
 25 15  1  0
 24 18  1  0
  3 26  1  0
  4 27  1  0
  4 28  1  0
  8 29  1  0
  8 30  1  0
  9 31  1  0
  9 32  1  0
 10 33  1  1
 11 34  1  0
 12 35  1  6
 13 36  1  0
 13 37  1  0
 14 38  1  0
 16 39  1  0
 17 40  1  0
 19 41  1  0
 22 42  1  0
 23 43  1  0
M  END
>  <smiles>  (50) 
O=C(NCC(=O)N1CC[C@H](O)[C@H]1CO)c1ccc2cc(Cl)ccc2n1

>  <score_type>  (50) 
oracle

>  <origin>  (50) 
autodockgpu

>  <m_score__min__energy>  (50) 
-7.2300000000000004

>  <m_primary>  (50) 
energy

>  <rmsd>  (50) 
4.289602562016337

>  <m_score__min__rmsd>  (50) 
4.289602562016337

>  <meeko>  (50) 
{"free_energy": -6.51, "intermolecular_energy": -8.6, "internal_energy": -1.82, "cluster_size": 23, "cluster_id": 1, "rank_in_cluster": 10}

>  <energy>  (50) 
-4.76

>  <cluster_rmsd>  (50) 
0.0

>  <cluster>  (50) 
10

$$$$
