
     RDKit          3D

 42 44  0  0  0  0  0  0  0  0999 V2000
  143.0110   80.2280  223.0760 C   0  0  0  0  0  0  0  0  0  0  0  0
  142.2360   79.3350  223.8210 O   0  0  0  0  0  0  0  0  0  0  0  0
  141.0570   78.7990  223.3210 C   0  0  0  0  0  0  0  0  0  0  0  0
  139.9540   79.6300  223.1010 C   0  0  0  0  0  0  0  0  0  0  0  0
  138.7680   79.0870  222.5980 C   0  0  0  0  0  0  0  0  0  0  0  0
  138.7110   77.7160  222.3250 C   0  0  0  0  0  0  0  0  0  0  0  0
  139.8200   76.9270  222.5550 C   0  0  0  0  0  0  0  0  0  0  0  0
  139.8240   75.5200  222.2940 N   0  0  0  0  0  0  0  0  0  0  0  0
  140.8320   75.0320  221.4320 C   0  0  0  0  0  0  0  0  0  0  0  0
  141.6560   75.8870  220.9640 O   0  0  0  0  0  0  0  0  0  0  0  0
  141.0150   73.6340  221.0310 C   0  0  0  0  0  0  0  0  0  0  0  0
  140.9460   72.6650  222.0820 N   0  0  0  0  0  0  0  0  0  0  0  0
  139.7200   72.2840  222.7160 C   0  0  0  0  0  0  0  0  0  0  0  0
  138.6030   72.7870  222.3720 O   0  0  0  0  0  0  0  0  0  0  0  0
  139.7350   71.2800  223.8010 C   0  0  0  0  0  0  0  0  0  0  0  0
  139.1560   70.0570  223.6160 C   0  0  0  0  0  0  0  0  0  0  0  0
  139.1980   69.1440  224.6720 C   0  0  0  0  0  0  0  0  0  0  0  0
  139.7970   69.4430  225.8760 C   0  0  0  0  0  0  0  0  0  0  0  0
  139.8650   68.5890  226.9390 C   0  0  0  0  0  0  0  0  0  0  0  0
  140.4920   68.9610  228.1300 C   0  0  0  0  0  0  0  0  0  0  0  0
  140.5490   68.0880  229.1870 F   0  0  0  0  0  0  0  0  0  0  0  0
  141.0680   70.2290  228.2620 C   0  0  0  0  0  0  0  0  0  0  0  0
  140.9850   71.0760  227.1690 C   0  0  0  0  0  0  0  0  0  0  0  0
  140.3640   70.6910  226.0050 C   0  0  0  0  0  0  0  0  0  0  0  0
  140.3200   71.5620  224.9850 N   0  0  0  0  0  0  0  0  0  0  0  0
  141.0110   77.4460  223.0540 C   0  0  0  0  0  0  0  0  0  0  0  0
  143.5767   80.8798  223.7580 H   0  0  0  0  0  0  0  0  0  0  0  0
  143.7115   79.6648  222.4418 H   0  0  0  0  0  0  0  0  0  0  0  0
  142.3548   80.8422  222.4418 H   0  0  0  0  0  0  0  0  0  0  0  0
  140.0192   80.7055  223.3226 H   0  0  0  0  0  0  0  0  0  0  0  0
  137.8923   79.7284  222.4195 H   0  0  0  0  0  0  0  0  0  0  0  0
  137.7871   77.2691  221.9291 H   0  0  0  0  0  0  0  0  0  0  0  0
  139.1310   74.8670  222.7150 H   0  0  0  0  0  0  0  0  0  0  0  0
  140.2336   73.3897  220.2964 H   0  0  0  0  0  0  0  0  0  0  0  0
  142.0399   73.5707  220.6365 H   0  0  0  0  0  0  0  0  0  0  0  0
  141.8080   72.1690  222.4580 H   0  0  0  0  0  0  0  0  0  0  0  0
  138.6708   69.7986  222.6632 H   0  0  0  0  0  0  0  0  0  0  0  0
  138.7378   68.1539  224.5380 H   0  0  0  0  0  0  0  0  0  0  0  0
  139.4169   67.5879  226.8556 H   0  0  0  0  0  0  0  0  0  0  0  0
  141.5650   70.5398  229.1928 H   0  0  0  0  0  0  0  0  0  0  0  0
  141.4269   72.0812  227.2343 H   0  0  0  0  0  0  0  0  0  0  0  0
  141.8844   76.8007  223.2293 H   0  0  0  0  0  0  0  0  0  0  0  0
  1  2  1  0
  2  3  1  0
  3  4  2  0
  4  5  1  0
  5  6  2  0
  6  7  1  0
  7  8  1  0
  8  9  1  0
  9 10  2  0
  9 11  1  0
 11 12  1  0
 12 13  1  0
 13 14  2  0
 13 15  1  0
 15 16  2  0
 16 17  1  0
 17 18  2  0
 18 19  1  0
 19 20  2  0
 20 21  1  0
 20 22  1  0
 22 23  2  0
 23 24  1  0
 24 25  2  0
  7 26  2  0
 26  3  1  0
 25 15  1  0
 24 18  1  0
  1 27  1  0
  1 28  1  0
  1 29  1  0
  4 30  1  0
  5 31  1  0
  6 32  1  0
  8 33  1  0
 11 34  1  0
 11 35  1  0
 12 36  1  0
 16 37  1  0
 17 38  1  0
 19 39  1  0
 22 40  1  0
 23 41  1  0
 26 42  1  0
M  END
>  <smiles>  (1) 
COc1cccc(NC(=O)CNC(=O)c2ccc3cc(F)ccc3n2)c1

>  <score_type>  (1) 
oracle

>  <origin>  (1) 
autodockgpu

>  <m_score__min__energy>  (1) 
-8.5399999999999991

>  <m_primary>  (1) 
energy

>  <rmsd>  (1) 
4.872476849423007

>  <m_score__min__rmsd>  (1) 
4.872476849423007

>  <meeko>  (1) 
{"free_energy": -7.33, "intermolecular_energy": -8.82, "internal_energy": -1.47, "cluster_size": 36, "cluster_id": 1, "rank_in_cluster": 36}

>  <energy>  (1) 
-8.54

>  <cluster_rmsd>  (1) 
0.0

>  <cluster>  (1) 
1

$$$$

     RDKit          3D

 42 44  0  0  0  0  0  0  0  0999 V2000
  137.5460   80.3760  223.7260 C   0  0  0  0  0  0  0  0  0  0  0  0
  138.8230   80.6870  224.2010 O   0  0  0  0  0  0  0  0  0  0  0  0
  139.9650   80.1320  223.6400 C   0  0  0  0  0  0  0  0  0  0  0  0
  141.0720   80.9440  223.3710 C   0  0  0  0  0  0  0  0  0  0  0  0
  142.2200   80.3830  222.8050 C   0  0  0  0  0  0  0  0  0  0  0  0
  142.2370   79.0130  222.5200 C   0  0  0  0  0  0  0  0  0  0  0  0
  141.1260   78.2440  222.8010 C   0  0  0  0  0  0  0  0  0  0  0  0
  141.0830   76.8380  222.5330 N   0  0  0  0  0  0  0  0  0  0  0  0
  140.1420   76.3980  221.5750 C   0  0  0  0  0  0  0  0  0  0  0  0
  139.4150   77.2920  221.0260 O   0  0  0  0  0  0  0  0  0  0  0  0
  139.9300   75.0090  221.1560 C   0  0  0  0  0  0  0  0  0  0  0  0
  139.8060   74.0480  222.2080 N   0  0  0  0  0  0  0  0  0  0  0  0
  140.4220   72.7550  222.1650 C   0  0  0  0  0  0  0  0  0  0  0  0
  141.1300   72.3840  221.1760 O   0  0  0  0  0  0  0  0  0  0  0  0
  140.2390   71.8160  223.2920 C   0  0  0  0  0  0  0  0  0  0  0  0
  139.6020   70.6240  223.0990 C   0  0  0  0  0  0  0  0  0  0  0  0
  139.4550   69.7720  224.1960 C   0  0  0  0  0  0  0  0  0  0  0  0
  139.9290   70.1010  225.4470 C   0  0  0  0  0  0  0  0  0  0  0  0
  139.8120   69.3060  226.5510 C   0  0  0  0  0  0  0  0  0  0  0  0
  140.3190   69.7050  227.7890 C   0  0  0  0  0  0  0  0  0  0  0  0
  140.1910   68.8920  228.8870 F   0  0  0  0  0  0  0  0  0  0  0  0
  140.9640   70.9390  227.9270 C   0  0  0  0  0  0  0  0  0  0  0  0
  141.0700   71.7260  226.7920 C   0  0  0  0  0  0  0  0  0  0  0  0
  140.5640   71.3150  225.5820 C   0  0  0  0  0  0  0  0  0  0  0  0
  140.7000   72.1280  224.5220 N   0  0  0  0  0  0  0  0  0  0  0  0
  139.9720   78.7810  223.3640 C   0  0  0  0  0  0  0  0  0  0  0  0
  136.8685   80.2110  224.5767 H   0  0  0  0  0  0  0  0  0  0  0  0
  137.1697   81.2087  223.1137 H   0  0  0  0  0  0  0  0  0  0  0  0
  137.5947   79.4635  223.1137 H   0  0  0  0  0  0  0  0  0  0  0  0
  141.0390   82.0186  223.6038 H   0  0  0  0  0  0  0  0  0  0  0  0
  143.0976   81.0092  222.5866 H   0  0  0  0  0  0  0  0  0  0  0  0
  143.1308   78.5517  222.0746 H   0  0  0  0  0  0  0  0  0  0  0  0
  141.7110   76.1550  223.0050 H   0  0  0  0  0  0  0  0  0  0  0  0
  139.0069   74.9750  220.5588 H   0  0  0  0  0  0  0  0  0  0  0  0
  140.8364   74.7254  220.6011 H   0  0  0  0  0  0  0  0  0  0  0  0
  139.2450   74.2380  223.0910 H   0  0  0  0  0  0  0  0  0  0  0  0
  139.2157   70.3427  222.1082 H   0  0  0  0  0  0  0  0  0  0  0  0
  138.9445   68.8076  224.0566 H   0  0  0  0  0  0  0  0  0  0  0  0
  139.3083   68.3320  226.4631 H   0  0  0  0  0  0  0  0  0  0  0  0
  141.3693   71.2698  228.8947 H   0  0  0  0  0  0  0  0  0  0  0  0
  141.5710   72.7029  226.8607 H   0  0  0  0  0  0  0  0  0  0  0  0
  139.0971   78.1505  223.5810 H   0  0  0  0  0  0  0  0  0  0  0  0
  1  2  1  0
  2  3  1  0
  3  4  2  0
  4  5  1  0
  5  6  2  0
  6  7  1  0
  7  8  1  0
  8  9  1  0
  9 10  2  0
  9 11  1  0
 11 12  1  0
 12 13  1  0
 13 14  2  0
 13 15  1  0
 15 16  2  0
 16 17  1  0
 17 18  2  0
 18 19  1  0
 19 20  2  0
 20 21  1  0
 20 22  1  0
 22 23  2  0
 23 24  1  0
 24 25  2  0
  7 26  2  0
 26  3  1  0
 25 15  1  0
 24 18  1  0
  1 27  1  0
  1 28  1  0
  1 29  1  0
  4 30  1  0
  5 31  1  0
  6 32  1  0
  8 33  1  0
 11 34  1  0
 11 35  1  0
 12 36  1  0
 16 37  1  0
 17 38  1  0
 19 39  1  0
 22 40  1  0
 23 41  1  0
 26 42  1  0
M  END
>  <smiles>  (2) 
COc1cccc(NC(=O)CNC(=O)c2ccc3cc(F)ccc3n2)c1

>  <score_type>  (2) 
oracle

>  <origin>  (2) 
autodockgpu

>  <m_score__min__energy>  (2) 
-8.5399999999999991

>  <m_primary>  (2) 
energy

>  <rmsd>  (2) 
4.223573473415598

>  <m_score__min__rmsd>  (2) 
4.223573473415598

>  <meeko>  (2) 
{"free_energy": -8.22, "intermolecular_energy": -9.71, "internal_energy": -0.84, "cluster_size": 36, "cluster_id": 1, "rank_in_cluster": 17}

>  <energy>  (2) 
-8.54

>  <cluster_rmsd>  (2) 
0.13

>  <cluster>  (2) 
1

$$$$

     RDKit          3D

 42 44  0  0  0  0  0  0  0  0999 V2000
  138.1080   80.8340  224.2630 C   0  0  0  0  0  0  0  0  0  0  0  0
  138.1090   80.0730  223.0920 O   0  0  0  0  0  0  0  0  0  0  0  0
  139.0990   79.1340  222.8320 C   0  0  0  0  0  0  0  0  0  0  0  0
  140.4290   79.5450  222.6970 C   0  0  0  0  0  0  0  0  0  0  0  0
  141.4220   78.5980  222.4350 C   0  0  0  0  0  0  0  0  0  0  0  0
  141.0620   77.2510  222.3130 C   0  0  0  0  0  0  0  0  0  0  0  0
  139.7390   76.8840  222.4520 C   0  0  0  0  0  0  0  0  0  0  0  0
  139.3090   75.5230  222.3390 N   0  0  0  0  0  0  0  0  0  0  0  0
  138.8780   75.0930  221.0640 C   0  0  0  0  0  0  0  0  0  0  0  0
  138.9150   75.9520  220.1210 O   0  0  0  0  0  0  0  0  0  0  0  0
  138.3960   73.7490  220.7290 C   0  0  0  0  0  0  0  0  0  0  0  0
  138.5240   72.7620  221.7580 N   0  0  0  0  0  0  0  0  0  0  0  0
  139.7080   72.6030  222.5470 C   0  0  0  0  0  0  0  0  0  0  0  0
  140.7280   73.3450  222.3810 O   0  0  0  0  0  0  0  0  0  0  0  0
  139.7630   71.5530  223.5860 C   0  0  0  0  0  0  0  0  0  0  0  0
  139.2590   70.3090  223.3360 C   0  0  0  0  0  0  0  0  0  0  0  0
  139.3360   69.3530  224.3510 C   0  0  0  0  0  0  0  0  0  0  0  0
  139.8970   69.6300  225.5780 C   0  0  0  0  0  0  0  0  0  0  0  0
  139.9970   68.7340  226.6030 C   0  0  0  0  0  0  0  0  0  0  0  0
  140.5810   69.0860  227.8210 C   0  0  0  0  0  0  0  0  0  0  0  0
  140.6700   68.1700  228.8390 F   0  0  0  0  0  0  0  0  0  0  0  0
  141.0810   70.3770  228.0210 C   0  0  0  0  0  0  0  0  0  0  0  0
  140.9680   71.2680  226.9650 C   0  0  0  0  0  0  0  0  0  0  0  0
  140.3890   70.9000  225.7730 C   0  0  0  0  0  0  0  0  0  0  0  0
  140.3110   71.8140  224.7930 N   0  0  0  0  0  0  0  0  0  0  0  0
  138.7330   77.8090  222.7130 C   0  0  0  0  0  0  0  0  0  0  0  0
  138.1089   80.1642  225.1356 H   0  0  0  0  0  0  0  0  0  0  0  0
  139.0053   81.4698  224.2879 H   0  0  0  0  0  0  0  0  0  0  0  0
  137.2090   81.4674  224.2879 H   0  0  0  0  0  0  0  0  0  0  0  0
  140.6918   80.6085  222.7966 H   0  0  0  0  0  0  0  0  0  0  0  0
  142.4722   78.9067  222.3261 H   0  0  0  0  0  0  0  0  0  0  0  0
  141.8289   76.4896  222.1076 H   0  0  0  0  0  0  0  0  0  0  0  0
  139.3120   74.8630  223.1440 H   0  0  0  0  0  0  0  0  0  0  0  0
  137.3300   73.8287  220.4698 H   0  0  0  0  0  0  0  0  0  0  0  0
  139.0351   73.4018  219.9038 H   0  0  0  0  0  0  0  0  0  0  0  0
  137.7410   72.0830  221.9970 H   0  0  0  0  0  0  0  0  0  0  0  0
  138.8056   70.0669  222.3635 H   0  0  0  0  0  0  0  0  0  0  0  0
  138.9354   68.3456  224.1644 H   0  0  0  0  0  0  0  0  0  0  0  0
  139.6094   67.7137  226.4663 H   0  0  0  0  0  0  0  0  0  0  0  0
  141.5435   70.6723  228.9743 H   0  0  0  0  0  0  0  0  0  0  0  0
  141.3501   72.2927  227.0831 H   0  0  0  0  0  0  0  0  0  0  0  0
  137.6841   77.4954  222.8205 H   0  0  0  0  0  0  0  0  0  0  0  0
  1  2  1  0
  2  3  1  0
  3  4  2  0
  4  5  1  0
  5  6  2  0
  6  7  1  0
  7  8  1  0
  8  9  1  0
  9 10  2  0
  9 11  1  0
 11 12  1  0
 12 13  1  0
 13 14  2  0
 13 15  1  0
 15 16  2  0
 16 17  1  0
 17 18  2  0
 18 19  1  0
 19 20  2  0
 20 21  1  0
 20 22  1  0
 22 23  2  0
 23 24  1  0
 24 25  2  0
  7 26  2  0
 26  3  1  0
 25 15  1  0
 24 18  1  0
  1 27  1  0
  1 28  1  0
  1 29  1  0
  4 30  1  0
  5 31  1  0
  6 32  1  0
  8 33  1  0
 11 34  1  0
 11 35  1  0
 12 36  1  0
 16 37  1  0
 17 38  1  0
 19 39  1  0
 22 40  1  0
 23 41  1  0
 26 42  1  0
M  END
>  <smiles>  (3) 
COc1cccc(NC(=O)CNC(=O)c2ccc3cc(F)ccc3n2)c1

>  <score_type>  (3) 
oracle

>  <origin>  (3) 
autodockgpu

>  <m_score__min__energy>  (3) 
-8.5399999999999991

>  <m_primary>  (3) 
energy

>  <rmsd>  (3) 
4.527928938078515

>  <m_score__min__rmsd>  (3) 
4.527928938078515

>  <meeko>  (3) 
{"free_energy": -7.47, "intermolecular_energy": -8.96, "internal_energy": -1.4, "cluster_size": 36, "cluster_id": 1, "rank_in_cluster": 28}

>  <energy>  (3) 
-8.53

>  <cluster_rmsd>  (3) 
0.19

>  <cluster>  (3) 
1

$$$$

     RDKit          3D

 42 44  0  0  0  0  0  0  0  0999 V2000
  141.7840   80.9270  219.0520 C   0  0  0  0  0  0  0  0  0  0  0  0
  141.8260   81.2660  220.4070 O   0  0  0  0  0  0  0  0  0  0  0  0
  141.6790   80.3110  221.4030 C   0  0  0  0  0  0  0  0  0  0  0  0
  141.6190   80.7070  222.7430 C   0  0  0  0  0  0  0  0  0  0  0  0
  141.4720   79.7430  223.7440 C   0  0  0  0  0  0  0  0  0  0  0  0
  141.3880   78.3940  223.3810 C   0  0  0  0  0  0  0  0  0  0  0  0
  141.4520   78.0410  222.0480 C   0  0  0  0  0  0  0  0  0  0  0  0
  141.3710   76.6790  221.6140 N   0  0  0  0  0  0  0  0  0  0  0  0
  140.0980   76.0660  221.6660 C   0  0  0  0  0  0  0  0  0  0  0  0
  139.1290   76.7810  222.0900 O   0  0  0  0  0  0  0  0  0  0  0  0
  139.7940   74.6870  221.2740 C   0  0  0  0  0  0  0  0  0  0  0  0
  139.7590   73.7270  222.3350 N   0  0  0  0  0  0  0  0  0  0  0  0
  140.0430   72.3360  222.1430 C   0  0  0  0  0  0  0  0  0  0  0  0
  140.3550   71.8680  221.0020 O   0  0  0  0  0  0  0  0  0  0  0  0
  139.9770   71.4070  223.2910 C   0  0  0  0  0  0  0  0  0  0  0  0
  139.5210   70.1310  223.1190 C   0  0  0  0  0  0  0  0  0  0  0  0
  139.4790   69.2930  224.2360 C   0  0  0  0  0  0  0  0  0  0  0  0
  139.8790   69.7160  225.4850 C   0  0  0  0  0  0  0  0  0  0  0  0
  139.8580   68.9390  226.6070 C   0  0  0  0  0  0  0  0  0  0  0  0
  140.2810   69.4350  227.8410 C   0  0  0  0  0  0  0  0  0  0  0  0
  140.2510   68.6380  228.9570 F   0  0  0  0  0  0  0  0  0  0  0  0
  140.7390   70.7520  227.9570 C   0  0  0  0  0  0  0  0  0  0  0  0
  140.7500   71.5200  226.8030 C   0  0  0  0  0  0  0  0  0  0  0  0
  140.3300   71.0110  225.5970 C   0  0  0  0  0  0  0  0  0  0  0  0
  140.3670   71.8100  224.5190 N   0  0  0  0  0  0  0  0  0  0  0  0
  141.5970   78.9840  221.0350 C   0  0  0  0  0  0  0  0  0  0  0  0
  141.6493   79.8401  218.9500 H   0  0  0  0  0  0  0  0  0  0  0  0
  140.9435   81.4475  218.5697 H   0  0  0  0  0  0  0  0  0  0  0  0
  142.7261   81.2266  218.5697 H   0  0  0  0  0  0  0  0  0  0  0  0
  141.6872   81.7725  223.0078 H   0  0  0  0  0  0  0  0  0  0  0  0
  141.4230   80.0402  224.8020 H   0  0  0  0  0  0  0  0  0  0  0  0
  141.2717   77.6195  224.1534 H   0  0  0  0  0  0  0  0  0  0  0  0
  142.1960   76.1500  221.2650 H   0  0  0  0  0  0  0  0  0  0  0  0
  138.8083   74.6853  220.7858 H   0  0  0  0  0  0  0  0  0  0  0  0
  140.6209   74.3754  220.6189 H   0  0  0  0  0  0  0  0  0  0  0  0
  139.5160   73.9920  223.3360 H   0  0  0  0  0  0  0  0  0  0  0  0
  139.1965   69.7739  222.1305 H   0  0  0  0  0  0  0  0  0  0  0  0
  139.1149   68.2621  224.1146 H   0  0  0  0  0  0  0  0  0  0  0  0
  139.5005   67.9011  226.5372 H   0  0  0  0  0  0  0  0  0  0  0  0
  141.0755   71.1600  228.9215 H   0  0  0  0  0  0  0  0  0  0  0  0
  141.1029   72.5606  226.8534 H   0  0  0  0  0  0  0  0  0  0  0  0
  141.6445   78.6820  219.9783 H   0  0  0  0  0  0  0  0  0  0  0  0
  1  2  1  0
  2  3  1  0
  3  4  2  0
  4  5  1  0
  5  6  2  0
  6  7  1  0
  7  8  1  0
  8  9  1  0
  9 10  2  0
  9 11  1  0
 11 12  1  0
 12 13  1  0
 13 14  2  0
 13 15  1  0
 15 16  2  0
 16 17  1  0
 17 18  2  0
 18 19  1  0
 19 20  2  0
 20 21  1  0
 20 22  1  0
 22 23  2  0
 23 24  1  0
 24 25  2  0
  7 26  2  0
 26  3  1  0
 25 15  1  0
 24 18  1  0
  1 27  1  0
  1 28  1  0
  1 29  1  0
  4 30  1  0
  5 31  1  0
  6 32  1  0
  8 33  1  0
 11 34  1  0
 11 35  1  0
 12 36  1  0
 16 37  1  0
 17 38  1  0
 19 39  1  0
 22 40  1  0
 23 41  1  0
 26 42  1  0
M  END
>  <smiles>  (4) 
COc1cccc(NC(=O)CNC(=O)c2ccc3cc(F)ccc3n2)c1

>  <score_type>  (4) 
oracle

>  <origin>  (4) 
autodockgpu

>  <m_score__min__energy>  (4) 
-8.5399999999999991

>  <m_primary>  (4) 
energy

>  <rmsd>  (4) 
4.024270339562359

>  <m_score__min__rmsd>  (4) 
4.024270339562359

>  <meeko>  (4) 
{"free_energy": -8.24, "intermolecular_energy": -9.73, "internal_energy": -1.01, "cluster_size": 36, "cluster_id": 1, "rank_in_cluster": 15}

>  <energy>  (4) 
-8.52

>  <cluster_rmsd>  (4) 
0.11

>  <cluster>  (4) 
1

$$$$

     RDKit          3D

 42 44  0  0  0  0  0  0  0  0999 V2000
  142.1060   80.1820  219.0470 C   0  0  0  0  0  0  0  0  0  0  0  0
  141.9970   80.5950  220.3780 O   0  0  0  0  0  0  0  0  0  0  0  0
  141.8140   79.6860  221.4120 C   0  0  0  0  0  0  0  0  0  0  0  0
  142.0430   80.0820  222.7340 C   0  0  0  0  0  0  0  0  0  0  0  0
  141.8580   79.1650  223.7710 C   0  0  0  0  0  0  0  0  0  0  0  0
  141.4470   77.8630  223.4630 C   0  0  0  0  0  0  0  0  0  0  0  0
  141.2310   77.5100  222.1470 C   0  0  0  0  0  0  0  0  0  0  0  0
  140.8090   76.1950  221.7680 N   0  0  0  0  0  0  0  0  0  0  0  0
  139.4210   75.9930  221.6010 C   0  0  0  0  0  0  0  0  0  0  0  0
  138.6620   77.0010  221.7960 O   0  0  0  0  0  0  0  0  0  0  0  0
  138.7760   74.7320  221.2220 C   0  0  0  0  0  0  0  0  0  0  0  0
  138.8360   73.6810  222.1910 N   0  0  0  0  0  0  0  0  0  0  0  0
  140.0460   72.9890  222.5220 C   0  0  0  0  0  0  0  0  0  0  0  0
  141.1550   73.2780  221.9710 O   0  0  0  0  0  0  0  0  0  0  0  0
  140.0220   71.9080  223.5300 C   0  0  0  0  0  0  0  0  0  0  0  0
  139.4980   70.6870  223.2180 C   0  0  0  0  0  0  0  0  0  0  0  0
  139.4990   69.6990  224.2060 C   0  0  0  0  0  0  0  0  0  0  0  0
  140.0070   69.9250  225.4670 C   0  0  0  0  0  0  0  0  0  0  0  0
  140.0320   68.9970  226.4670 C   0  0  0  0  0  0  0  0  0  0  0  0
  140.5660   69.2960  227.7220 C   0  0  0  0  0  0  0  0  0  0  0  0
  140.5810   68.3490  228.7150 F   0  0  0  0  0  0  0  0  0  0  0  0
  141.0900   70.5670  227.9850 C   0  0  0  0  0  0  0  0  0  0  0  0
  141.0530   71.4900  226.9520 C   0  0  0  0  0  0  0  0  0  0  0  0
  140.5230   71.1750  225.7240 C   0  0  0  0  0  0  0  0  0  0  0  0
  140.5180   72.1180  224.7690 N   0  0  0  0  0  0  0  0  0  0  0  0
  141.4090   78.4060  221.0970 C   0  0  0  0  0  0  0  0  0  0  0  0
  142.3866   79.1189  219.0148 H   0  0  0  0  0  0  0  0  0  0  0  0
  141.1402   80.3219  218.5394 H   0  0  0  0  0  0  0  0  0  0  0  0
  142.8770   80.7803  218.5394 H   0  0  0  0  0  0  0  0  0  0  0  0
  142.3669   81.1096  222.9555 H   0  0  0  0  0  0  0  0  0  0  0  0
  142.0329   79.4620  224.8156 H   0  0  0  0  0  0  0  0  0  0  0  0
  141.2971   77.1257  224.2654 H   0  0  0  0  0  0  0  0  0  0  0  0
  141.4770   75.4120  221.6110 H   0  0  0  0  0  0  0  0  0  0  0  0
  137.7156   74.9437  221.0203 H   0  0  0  0  0  0  0  0  0  0  0  0
  139.3352   74.3633  220.3495 H   0  0  0  0  0  0  0  0  0  0  0  0
  137.9790   73.3480  222.7250 H   0  0  0  0  0  0  0  0  0  0  0  0
  139.0868   70.4865  222.2176 H   0  0  0  0  0  0  0  0  0  0  0  0
  139.0810   68.7093  223.9698 H   0  0  0  0  0  0  0  0  0  0  0  0
  139.6232   67.9929  226.2807 H   0  0  0  0  0  0  0  0  0  0  0  0
  141.5125   70.8219  228.9681 H   0  0  0  0  0  0  0  0  0  0  0  0
  141.4577   72.4991  227.1191 H   0  0  0  0  0  0  0  0  0  0  0  0
  141.2330   78.1042  220.0540 H   0  0  0  0  0  0  0  0  0  0  0  0
  1  2  1  0
  2  3  1  0
  3  4  2  0
  4  5  1  0
  5  6  2  0
  6  7  1  0
  7  8  1  0
  8  9  1  0
  9 10  2  0
  9 11  1  0
 11 12  1  0
 12 13  1  0
 13 14  2  0
 13 15  1  0
 15 16  2  0
 16 17  1  0
 17 18  2  0
 18 19  1  0
 19 20  2  0
 20 21  1  0
 20 22  1  0
 22 23  2  0
 23 24  1  0
 24 25  2  0
  7 26  2  0
 26  3  1  0
 25 15  1  0
 24 18  1  0
  1 27  1  0
  1 28  1  0
  1 29  1  0
  4 30  1  0
  5 31  1  0
  6 32  1  0
  8 33  1  0
 11 34  1  0
 11 35  1  0
 12 36  1  0
 16 37  1  0
 17 38  1  0
 19 39  1  0
 22 40  1  0
 23 41  1  0
 26 42  1  0
M  END
>  <smiles>  (5) 
COc1cccc(NC(=O)CNC(=O)c2ccc3cc(F)ccc3n2)c1

>  <score_type>  (5) 
oracle

>  <origin>  (5) 
autodockgpu

>  <m_score__min__energy>  (5) 
-8.5399999999999991

>  <m_primary>  (5) 
energy

>  <rmsd>  (5) 
4.274035773551676

>  <m_score__min__rmsd>  (5) 
4.274035773551676

>  <meeko>  (5) 
{"free_energy": -7.65, "intermolecular_energy": -9.15, "internal_energy": -1.55, "cluster_size": 36, "cluster_id": 1, "rank_in_cluster": 20}

>  <energy>  (5) 
-8.51

>  <cluster_rmsd>  (5) 
0.25

>  <cluster>  (5) 
1

$$$$

     RDKit          3D

 42 44  0  0  0  0  0  0  0  0999 V2000
  142.1420   80.0280  218.9470 C   0  0  0  0  0  0  0  0  0  0  0  0
  141.7610   80.4930  220.2080 O   0  0  0  0  0  0  0  0  0  0  0  0
  141.6600   79.6430  221.3010 C   0  0  0  0  0  0  0  0  0  0  0  0
  141.9760   80.1130  222.5800 C   0  0  0  0  0  0  0  0  0  0  0  0
  141.8750   79.2540  223.6770 C   0  0  0  0  0  0  0  0  0  0  0  0
  141.4560   77.9350  223.4710 C   0  0  0  0  0  0  0  0  0  0  0  0
  141.1530   77.5070  222.1950 C   0  0  0  0  0  0  0  0  0  0  0  0
  140.7180   76.1710  221.9200 N   0  0  0  0  0  0  0  0  0  0  0  0
  139.3960   76.0120  221.4480 C   0  0  0  0  0  0  0  0  0  0  0  0
  138.7030   77.0750  221.3020 O   0  0  0  0  0  0  0  0  0  0  0  0
  138.7520   74.7390  221.1110 C   0  0  0  0  0  0  0  0  0  0  0  0
  138.8380   73.7110  222.1020 N   0  0  0  0  0  0  0  0  0  0  0  0
  140.0400   72.9770  222.3670 C   0  0  0  0  0  0  0  0  0  0  0  0
  141.1170   73.2060  221.7310 O   0  0  0  0  0  0  0  0  0  0  0  0
  140.0440   71.9230  223.4030 C   0  0  0  0  0  0  0  0  0  0  0  0
  139.5970   70.6660  223.1090 C   0  0  0  0  0  0  0  0  0  0  0  0
  139.6220   69.7070  224.1240 C   0  0  0  0  0  0  0  0  0  0  0  0
  140.0780   69.9930  225.3920 C   0  0  0  0  0  0  0  0  0  0  0  0
  140.1230   69.0940  226.4180 C   0  0  0  0  0  0  0  0  0  0  0  0
  140.6010   69.4560  227.6790 C   0  0  0  0  0  0  0  0  0  0  0  0
  140.6370   68.5370  228.6980 F   0  0  0  0  0  0  0  0  0  0  0  0
  141.0460   70.7590  227.9220 C   0  0  0  0  0  0  0  0  0  0  0  0
  140.9890   71.6520  226.8640 C   0  0  0  0  0  0  0  0  0  0  0  0
  140.5160   71.2760  225.6290 C   0  0  0  0  0  0  0  0  0  0  0  0
  140.4890   72.1920  224.6490 N   0  0  0  0  0  0  0  0  0  0  0  0
  141.2460   78.3440  221.0870 C   0  0  0  0  0  0  0  0  0  0  0  0
  142.8353   79.1818  219.0623 H   0  0  0  0  0  0  0  0  0  0  0  0
  141.2506   79.6988  218.3929 H   0  0  0  0  0  0  0  0  0  0  0  0
  142.6401   80.8372  218.3929 H   0  0  0  0  0  0  0  0  0  0  0  0
  142.3024   81.1539  222.7213 H   0  0  0  0  0  0  0  0  0  0  0  0
  142.1214   79.6095  224.6884 H   0  0  0  0  0  0  0  0  0  0  0  0
  141.3687   77.2432  224.3217 H   0  0  0  0  0  0  0  0  0  0  0  0
  141.3340   75.3410  222.0480 H   0  0  0  0  0  0  0  0  0  0  0  0
  137.6864   74.9396  220.9257 H   0  0  0  0  0  0  0  0  0  0  0  0
  139.2963   74.3538  220.2361 H   0  0  0  0  0  0  0  0  0  0  0  0
  138.0080   73.4270  222.7030 H   0  0  0  0  0  0  0  0  0  0  0  0
  139.2284   70.4167  222.1030 H   0  0  0  0  0  0  0  0  0  0  0  0
  139.2658   68.6899  223.9036 H   0  0  0  0  0  0  0  0  0  0  0  0
  139.7759   68.0641  226.2481 H   0  0  0  0  0  0  0  0  0  0  0  0
  141.4246   71.0618  228.9094 H   0  0  0  0  0  0  0  0  0  0  0  0
  141.3304   72.6866  227.0158 H   0  0  0  0  0  0  0  0  0  0  0  0
  140.9986   77.9834  220.0777 H   0  0  0  0  0  0  0  0  0  0  0  0
  1  2  1  0
  2  3  1  0
  3  4  2  0
  4  5  1  0
  5  6  2  0
  6  7  1  0
  7  8  1  0
  8  9  1  0
  9 10  2  0
  9 11  1  0
 11 12  1  0
 12 13  1  0
 13 14  2  0
 13 15  1  0
 15 16  2  0
 16 17  1  0
 17 18  2  0
 18 19  1  0
 19 20  2  0
 20 21  1  0
 20 22  1  0
 22 23  2  0
 23 24  1  0
 24 25  2  0
  7 26  2  0
 26  3  1  0
 25 15  1  0
 24 18  1  0
  1 27  1  0
  1 28  1  0
  1 29  1  0
  4 30  1  0
  5 31  1  0
  6 32  1  0
  8 33  1  0
 11 34  1  0
 11 35  1  0
 12 36  1  0
 16 37  1  0
 17 38  1  0
 19 39  1  0
 22 40  1  0
 23 41  1  0
 26 42  1  0
M  END
>  <smiles>  (6) 
COc1cccc(NC(=O)CNC(=O)c2ccc3cc(F)ccc3n2)c1

>  <score_type>  (6) 
oracle

>  <origin>  (6) 
autodockgpu

>  <m_score__min__energy>  (6) 
-8.5399999999999991

>  <m_primary>  (6) 
energy

>  <rmsd>  (6) 
4.269223781818439

>  <m_score__min__rmsd>  (6) 
4.269223781818439

>  <meeko>  (6) 
{"free_energy": -7.54, "intermolecular_energy": -9.03, "internal_energy": -1.52, "cluster_size": 36, "cluster_id": 1, "rank_in_cluster": 26}

>  <energy>  (6) 
-8.44

>  <cluster_rmsd>  (6) 
0.6

>  <cluster>  (6) 
1

$$$$

     RDKit          3D

 42 44  0  0  0  0  0  0  0  0999 V2000
  141.0350   71.6240  227.9550 C   0  0  0  0  0  0  0  0  0  0  0  0
  140.9760   70.4610  227.1830 O   0  0  0  0  0  0  0  0  0  0  0  0
  140.3210   70.4300  225.9590 C   0  0  0  0  0  0  0  0  0  0  0  0
  139.5560   69.3120  225.6080 C   0  0  0  0  0  0  0  0  0  0  0  0
  138.8990   69.2840  224.3750 C   0  0  0  0  0  0  0  0  0  0  0  0
  139.0200   70.3800  223.5140 C   0  0  0  0  0  0  0  0  0  0  0  0
  139.7840   71.4650  223.8950 C   0  0  0  0  0  0  0  0  0  0  0  0
  139.9460   72.6160  223.0600 N   0  0  0  0  0  0  0  0  0  0  0  0
  140.6550   72.4340  221.8510 C   0  0  0  0  0  0  0  0  0  0  0  0
  141.0860   71.2570  221.6050 O   0  0  0  0  0  0  0  0  0  0  0  0
  140.9370   73.4730  220.8570 C   0  0  0  0  0  0  0  0  0  0  0  0
  141.0570   74.8070  221.3600 N   0  0  0  0  0  0  0  0  0  0  0  0
  139.9500   75.5480  221.8880 C   0  0  0  0  0  0  0  0  0  0  0  0
  138.7800   75.0530  221.9450 O   0  0  0  0  0  0  0  0  0  0  0  0
  140.1570   76.9260  222.3820 C   0  0  0  0  0  0  0  0  0  0  0  0
  139.0880   77.6950  222.7450 C   0  0  0  0  0  0  0  0  0  0  0  0
  139.3370   78.9890  223.2060 C   0  0  0  0  0  0  0  0  0  0  0  0
  140.6130   79.5010  223.3010 C   0  0  0  0  0  0  0  0  0  0  0  0
  140.9110   80.7570  223.7430 C   0  0  0  0  0  0  0  0  0  0  0  0
  142.2300   81.2070  223.8140 C   0  0  0  0  0  0  0  0  0  0  0  0
  142.5090   82.4750  224.2620 F   0  0  0  0  0  0  0  0  0  0  0  0
  143.2860   80.3740  223.4290 C   0  0  0  0  0  0  0  0  0  0  0  0
  142.9570   79.1040  222.9830 C   0  0  0  0  0  0  0  0  0  0  0  0
  141.6500   78.6800  222.9220 C   0  0  0  0  0  0  0  0  0  0  0  0
  141.4030   77.4370  222.4800 N   0  0  0  0  0  0  0  0  0  0  0  0
  140.4470   71.5150  225.1180 C   0  0  0  0  0  0  0  0  0  0  0  0
  141.0215   71.3569  229.0220 H   0  0  0  0  0  0  0  0  0  0  0  0
  141.9620   72.1699  227.7254 H   0  0  0  0  0  0  0  0  0  0  0  0
  140.1680   72.2609  227.7254 H   0  0  0  0  0  0  0  0  0  0  0  0
  139.4723   68.4601  226.2988 H   0  0  0  0  0  0  0  0  0  0  0  0
  138.2947   68.4117  224.0852 H   0  0  0  0  0  0  0  0  0  0  0  0
  138.5096   70.3773  222.5396 H   0  0  0  0  0  0  0  0  0  0  0  0
  139.5610   73.5510  223.3080 H   0  0  0  0  0  0  0  0  0  0  0  0
  141.8834   73.2146  220.3595 H   0  0  0  0  0  0  0  0  0  0  0  0
  140.0648   73.4864  220.1868 H   0  0  0  0  0  0  0  0  0  0  0  0
  141.9820   75.3320  221.3720 H   0  0  0  0  0  0  0  0  0  0  0  0
  138.0613   77.3062  222.6761 H   0  0  0  0  0  0  0  0  0  0  0  0
  138.4869   79.6206  223.5032 H   0  0  0  0  0  0  0  0  0  0  0  0
  140.0952   81.4283  224.0495 H   0  0  0  0  0  0  0  0  0  0  0  0
  144.3315   80.7124  223.4782 H   0  0  0  0  0  0  0  0  0  0  0  0
  143.7593   78.4194  222.6707 H   0  0  0  0  0  0  0  0  0  0  0  0
  141.0502   72.3895  225.4033 H   0  0  0  0  0  0  0  0  0  0  0  0
  1  2  1  0
  2  3  1  0
  3  4  2  0
  4  5  1  0
  5  6  2  0
  6  7  1  0
  7  8  1  0
  8  9  1  0
  9 10  2  0
  9 11  1  0
 11 12  1  0
 12 13  1  0
 13 14  2  0
 13 15  1  0
 15 16  2  0
 16 17  1  0
 17 18  2  0
 18 19  1  0
 19 20  2  0
 20 21  1  0
 20 22  1  0
 22 23  2  0
 23 24  1  0
 24 25  2  0
  7 26  2  0
 26  3  1  0
 25 15  1  0
 24 18  1  0
  1 27  1  0
  1 28  1  0
  1 29  1  0
  4 30  1  0
  5 31  1  0
  6 32  1  0
  8 33  1  0
 11 34  1  0
 11 35  1  0
 12 36  1  0
 16 37  1  0
 17 38  1  0
 19 39  1  0
 22 40  1  0
 23 41  1  0
 26 42  1  0
M  END
>  <smiles>  (7) 
COc1cccc(NC(=O)CNC(=O)c2ccc3cc(F)ccc3n2)c1

>  <score_type>  (7) 
oracle

>  <origin>  (7) 
autodockgpu

>  <m_score__min__energy>  (7) 
-8.5399999999999991

>  <m_primary>  (7) 
energy

>  <rmsd>  (7) 
10.662292366895485

>  <m_score__min__rmsd>  (7) 
10.662292366895485

>  <meeko>  (7) 
{"free_energy": -7.28, "intermolecular_energy": -8.77, "internal_energy": -1.86, "cluster_size": 13, "cluster_id": 2, "rank_in_cluster": 8}

>  <energy>  (7) 
-8.43

>  <cluster_rmsd>  (7) 
0.15

>  <cluster>  (7) 
1

$$$$

     RDKit          3D

 42 44  0  0  0  0  0  0  0  0999 V2000
  140.9920   71.8290  227.8990 C   0  0  0  0  0  0  0  0  0  0  0  0
  141.1230   70.6550  227.1500 O   0  0  0  0  0  0  0  0  0  0  0  0
  140.4750   70.4890  225.9340 C   0  0  0  0  0  0  0  0  0  0  0  0
  139.8760   69.2630  225.6270 C   0  0  0  0  0  0  0  0  0  0  0  0
  139.2260   69.0990  224.4010 C   0  0  0  0  0  0  0  0  0  0  0  0
  139.1870   70.1720  223.5030 C   0  0  0  0  0  0  0  0  0  0  0  0
  139.7890   71.3660  223.8410 C   0  0  0  0  0  0  0  0  0  0  0  0
  139.7830   72.5000  222.9660 N   0  0  0  0  0  0  0  0  0  0  0  0
  140.6600   72.4580  221.8600 C   0  0  0  0  0  0  0  0  0  0  0  0
  141.3800   71.4110  221.7320 O   0  0  0  0  0  0  0  0  0  0  0  0
  140.8150   73.5070  220.8470 C   0  0  0  0  0  0  0  0  0  0  0  0
  140.9600   74.8410  221.3440 N   0  0  0  0  0  0  0  0  0  0  0  0
  139.8750   75.5930  221.9000 C   0  0  0  0  0  0  0  0  0  0  0  0
  138.7020   75.1080  221.9910 O   0  0  0  0  0  0  0  0  0  0  0  0
  140.1070   76.9700  222.3850 C   0  0  0  0  0  0  0  0  0  0  0  0
  139.0530   77.7600  222.7460 C   0  0  0  0  0  0  0  0  0  0  0  0
  139.3260   79.0530  223.1970 C   0  0  0  0  0  0  0  0  0  0  0  0
  140.6100   79.5430  223.2850 C   0  0  0  0  0  0  0  0  0  0  0  0
  140.9310   80.7970  223.7180 C   0  0  0  0  0  0  0  0  0  0  0  0
  142.2580   81.2240  223.7820 C   0  0  0  0  0  0  0  0  0  0  0  0
  142.5600   82.4900  224.2200 F   0  0  0  0  0  0  0  0  0  0  0  0
  143.2980   80.3710  223.3980 C   0  0  0  0  0  0  0  0  0  0  0  0
  142.9460   79.1040  222.9620 C   0  0  0  0  0  0  0  0  0  0  0  0
  141.6320   78.7010  222.9080 C   0  0  0  0  0  0  0  0  0  0  0  0
  141.3620   77.4600  222.4750 N   0  0  0  0  0  0  0  0  0  0  0  0
  140.4420   71.5530  225.0560 C   0  0  0  0  0  0  0  0  0  0  0  0
  141.0192   71.5848  228.9712 H   0  0  0  0  0  0  0  0  0  0  0  0
  141.8195   72.5123  227.6574 H   0  0  0  0  0  0  0  0  0  0  0  0
  140.0343   72.3131  227.6574 H   0  0  0  0  0  0  0  0  0  0  0  0
  139.9164   68.4323  226.3469 H   0  0  0  0  0  0  0  0  0  0  0  0
  138.7516   68.1401  224.1452 H   0  0  0  0  0  0  0  0  0  0  0  0
  138.6791   70.0636  222.5333 H   0  0  0  0  0  0  0  0  0  0  0  0
  139.1630   73.3230  223.1160 H   0  0  0  0  0  0  0  0  0  0  0  0
  141.7090   73.2705  220.2514 H   0  0  0  0  0  0  0  0  0  0  0  0
  139.8777   73.5048  220.2712 H   0  0  0  0  0  0  0  0  0  0  0  0
  141.8900   75.3580  221.3280 H   0  0  0  0  0  0  0  0  0  0  0  0
  138.0195   77.3886  222.6833 H   0  0  0  0  0  0  0  0  0  0  0  0
  138.4878   79.7016  223.4917 H   0  0  0  0  0  0  0  0  0  0  0  0
  140.1280   81.4844  224.0224 H   0  0  0  0  0  0  0  0  0  0  0  0
  144.3492   80.6921  223.4403 H   0  0  0  0  0  0  0  0  0  0  0  0
  143.7358   78.4040  222.6518 H   0  0  0  0  0  0  0  0  0  0  0  0
  140.9146   72.5141  225.3071 H   0  0  0  0  0  0  0  0  0  0  0  0
  1  2  1  0
  2  3  1  0
  3  4  2  0
  4  5  1  0
  5  6  2  0
  6  7  1  0
  7  8  1  0
  8  9  1  0
  9 10  2  0
  9 11  1  0
 11 12  1  0
 12 13  1  0
 13 14  2  0
 13 15  1  0
 15 16  2  0
 16 17  1  0
 17 18  2  0
 18 19  1  0
 19 20  2  0
 20 21  1  0
 20 22  1  0
 22 23  2  0
 23 24  1  0
 24 25  2  0
  7 26  2  0
 26  3  1  0
 25 15  1  0
 24 18  1  0
  1 27  1  0
  1 28  1  0
  1 29  1  0
  4 30  1  0
  5 31  1  0
  6 32  1  0
  8 33  1  0
 11 34  1  0
 11 35  1  0
 12 36  1  0
 16 37  1  0
 17 38  1  0
 19 39  1  0
 22 40  1  0
 23 41  1  0
 26 42  1  0
M  END
>  <smiles>  (8) 
COc1cccc(NC(=O)CNC(=O)c2ccc3cc(F)ccc3n2)c1

>  <score_type>  (8) 
oracle

>  <origin>  (8) 
autodockgpu

>  <m_score__min__energy>  (8) 
-8.5399999999999991

>  <m_primary>  (8) 
energy

>  <rmsd>  (8) 
10.645562032268069

>  <m_score__min__rmsd>  (8) 
10.645562032268069

>  <meeko>  (8) 
{"free_energy": -7.33, "intermolecular_energy": -8.82, "internal_energy": -1.89, "cluster_size": 13, "cluster_id": 2, "rank_in_cluster": 2}

>  <energy>  (8) 
-8.36

>  <cluster_rmsd>  (8) 
0.27

>  <cluster>  (8) 
1

$$$$

     RDKit          3D

 42 44  0  0  0  0  0  0  0  0999 V2000
  142.7740   80.4210  223.3730 C   0  0  0  0  0  0  0  0  0  0  0  0
  142.4210   79.1220  222.9990 O   0  0  0  0  0  0  0  0  0  0  0  0
  141.0940   78.7230  222.9090 C   0  0  0  0  0  0  0  0  0  0  0  0
  140.0740   79.6740  223.0110 C   0  0  0  0  0  0  0  0  0  0  0  0
  138.7390   79.2690  222.9210 C   0  0  0  0  0  0  0  0  0  0  0  0
  138.4520   77.9130  222.7300 C   0  0  0  0  0  0  0  0  0  0  0  0
  139.4860   77.0040  222.6340 C   0  0  0  0  0  0  0  0  0  0  0  0
  139.2560   75.6040  222.4380 N   0  0  0  0  0  0  0  0  0  0  0  0
  138.7180   75.2140  221.1910 C   0  0  0  0  0  0  0  0  0  0  0  0
  138.4880   76.1410  220.3440 O   0  0  0  0  0  0  0  0  0  0  0  0
  138.4040   73.8400  220.7840 C   0  0  0  0  0  0  0  0  0  0  0  0
  138.5340   72.8400  221.7990 N   0  0  0  0  0  0  0  0  0  0  0  0
  139.7390   72.6330  222.5450 C   0  0  0  0  0  0  0  0  0  0  0  0
  140.7780   73.3400  222.3490 O   0  0  0  0  0  0  0  0  0  0  0  0
  139.7940   71.5720  223.5730 C   0  0  0  0  0  0  0  0  0  0  0  0
  139.3100   70.3240  223.3020 C   0  0  0  0  0  0  0  0  0  0  0  0
  139.3850   69.3570  224.3070 C   0  0  0  0  0  0  0  0  0  0  0  0
  139.9260   69.6280  225.5450 C   0  0  0  0  0  0  0  0  0  0  0  0
  140.0240   68.7220  226.5610 C   0  0  0  0  0  0  0  0  0  0  0  0
  140.5870   69.0670  227.7900 C   0  0  0  0  0  0  0  0  0  0  0  0
  140.6750   68.1410  228.7990 F   0  0  0  0  0  0  0  0  0  0  0  0
  141.0670   70.3630  228.0110 C   0  0  0  0  0  0  0  0  0  0  0  0
  140.9560   71.2640  226.9640 C   0  0  0  0  0  0  0  0  0  0  0  0
  140.3990   70.9030  225.7600 C   0  0  0  0  0  0  0  0  0  0  0  0
  140.3220   71.8260  224.7890 N   0  0  0  0  0  0  0  0  0  0  0  0
  140.8220   77.3840  222.7210 C   0  0  0  0  0  0  0  0  0  0  0  0
  142.7938   80.4940  224.4704 H   0  0  0  0  0  0  0  0  0  0  0  0
  143.7698   80.6604  222.9715 H   0  0  0  0  0  0  0  0  0  0  0  0
  142.0363   81.1314  222.9715 H   0  0  0  0  0  0  0  0  0  0  0  0
  140.3208   80.7354  223.1613 H   0  0  0  0  0  0  0  0  0  0  0  0
  137.9259   80.0058  222.9992 H   0  0  0  0  0  0  0  0  0  0  0  0
  137.4083   77.5734  222.6568 H   0  0  0  0  0  0  0  0  0  0  0  0
  139.4750   74.8910  223.1630 H   0  0  0  0  0  0  0  0  0  0  0  0
  137.3636   73.8241  220.4272 H   0  0  0  0  0  0  0  0  0  0  0  0
  139.1474   73.5811  220.0157 H   0  0  0  0  0  0  0  0  0  0  0  0
  137.7370   72.1870  222.0610 H   0  0  0  0  0  0  0  0  0  0  0  0
  138.8736   70.0872  222.3204 H   0  0  0  0  0  0  0  0  0  0  0  0
  138.9999   68.3469  224.1038 H   0  0  0  0  0  0  0  0  0  0  0  0
  139.6513   67.6985  226.4077 H   0  0  0  0  0  0  0  0  0  0  0  0
  141.5129   70.6537  228.9737 H   0  0  0  0  0  0  0  0  0  0  0  0
  141.3222   72.2924  227.0994 H   0  0  0  0  0  0  0  0  0  0  0  0
  141.6316   76.6434  222.6427 H   0  0  0  0  0  0  0  0  0  0  0  0
  1  2  1  0
  2  3  1  0
  3  4  2  0
  4  5  1  0
  5  6  2  0
  6  7  1  0
  7  8  1  0
  8  9  1  0
  9 10  2  0
  9 11  1  0
 11 12  1  0
 12 13  1  0
 13 14  2  0
 13 15  1  0
 15 16  2  0
 16 17  1  0
 17 18  2  0
 18 19  1  0
 19 20  2  0
 20 21  1  0
 20 22  1  0
 22 23  2  0
 23 24  1  0
 24 25  2  0
  7 26  2  0
 26  3  1  0
 25 15  1  0
 24 18  1  0
  1 27  1  0
  1 28  1  0
  1 29  1  0
  4 30  1  0
  5 31  1  0
  6 32  1  0
  8 33  1  0
 11 34  1  0
 11 35  1  0
 12 36  1  0
 16 37  1  0
 17 38  1  0
 19 39  1  0
 22 40  1  0
 23 41  1  0
 26 42  1  0
M  END
>  <smiles>  (9) 
COc1cccc(NC(=O)CNC(=O)c2ccc3cc(F)ccc3n2)c1

>  <score_type>  (9) 
oracle

>  <origin>  (9) 
autodockgpu

>  <m_score__min__energy>  (9) 
-8.5399999999999991

>  <m_primary>  (9) 
energy

>  <rmsd>  (9) 
4.846560756893886

>  <m_score__min__rmsd>  (9) 
4.846560756893886

>  <meeko>  (9) 
{"free_energy": -7.6, "intermolecular_energy": -9.1, "internal_energy": -1.48, "cluster_size": 36, "cluster_id": 1, "rank_in_cluster": 21}

>  <energy>  (9) 
-8.34

>  <cluster_rmsd>  (9) 
1.5

>  <cluster>  (9) 
1

$$$$

     RDKit          3D

 42 44  0  0  0  0  0  0  0  0999 V2000
  138.4320   67.6410  222.7060 C   0  0  0  0  0  0  0  0  0  0  0  0
  138.4700   68.0600  224.0390 O   0  0  0  0  0  0  0  0  0  0  0  0
  139.2210   69.1570  224.4390 C   0  0  0  0  0  0  0  0  0  0  0  0
  139.9250   69.1150  225.6470 C   0  0  0  0  0  0  0  0  0  0  0  0
  140.6790   70.2210  226.0460 C   0  0  0  0  0  0  0  0  0  0  0  0
  140.7130   71.3540  225.2240 C   0  0  0  0  0  0  0  0  0  0  0  0
  140.0050   71.3580  224.0400 C   0  0  0  0  0  0  0  0  0  0  0  0
  140.0010   72.4850  223.1570 N   0  0  0  0  0  0  0  0  0  0  0  0
  140.5690   72.2960  221.8770 C   0  0  0  0  0  0  0  0  0  0  0  0
  141.0330   71.1350  221.6150 O   0  0  0  0  0  0  0  0  0  0  0  0
  140.6710   73.3120  220.8240 C   0  0  0  0  0  0  0  0  0  0  0  0
  140.7940   74.6660  221.2700 N   0  0  0  0  0  0  0  0  0  0  0  0
  139.7300   75.3790  221.9120 C   0  0  0  0  0  0  0  0  0  0  0  0
  138.5990   74.8390  222.1320 O   0  0  0  0  0  0  0  0  0  0  0  0
  139.9350   76.7800  222.3360 C   0  0  0  0  0  0  0  0  0  0  0  0
  138.8700   77.5530  222.7000 C   0  0  0  0  0  0  0  0  0  0  0  0
  139.1170   78.8700  223.0930 C   0  0  0  0  0  0  0  0  0  0  0  0
  140.3890   79.4000  223.1210 C   0  0  0  0  0  0  0  0  0  0  0  0
  140.6850   80.6780  223.4950 C   0  0  0  0  0  0  0  0  0  0  0  0
  142.0000   81.1470  223.5000 C   0  0  0  0  0  0  0  0  0  0  0  0
  142.2770   82.4360  223.8790 F   0  0  0  0  0  0  0  0  0  0  0  0
  143.0530   80.3090  223.1160 C   0  0  0  0  0  0  0  0  0  0  0  0
  142.7250   79.0160  222.7400 C   0  0  0  0  0  0  0  0  0  0  0  0
  141.4230   78.5740  222.7430 C   0  0  0  0  0  0  0  0  0  0  0  0
  141.1770   77.3100  222.3670 N   0  0  0  0  0  0  0  0  0  0  0  0
  139.2480   70.2680  223.6210 C   0  0  0  0  0  0  0  0  0  0  0  0
  138.3327   66.5461  222.6685 H   0  0  0  0  0  0  0  0  0  0  0  0
  137.5722   68.1047  222.2003 H   0  0  0  0  0  0  0  0  0  0  0  0
  139.3612   67.9425  222.2003 H   0  0  0  0  0  0  0  0  0  0  0  0
  139.8850   68.2158  226.2793 H   0  0  0  0  0  0  0  0  0  0  0  0
  141.2384   70.2022  226.9930 H   0  0  0  0  0  0  0  0  0  0  0  0
  141.3006   72.2354  225.5205 H   0  0  0  0  0  0  0  0  0  0  0  0
  139.5970   73.4070  223.4220 H   0  0  0  0  0  0  0  0  0  0  0  0
  141.5554   73.0768  220.2137 H   0  0  0  0  0  0  0  0  0  0  0  0
  139.7198   73.2658  220.2736 H   0  0  0  0  0  0  0  0  0  0  0  0
  141.6890   75.2280  221.1480 H   0  0  0  0  0  0  0  0  0  0  0  0
  137.8467   77.1498  222.6841 H   0  0  0  0  0  0  0  0  0  0  0  0
  138.2691   79.5049  223.3898 H   0  0  0  0  0  0  0  0  0  0  0  0
  139.8711   81.3527  223.7988 H   0  0  0  0  0  0  0  0  0  0  0  0
  144.0951   80.6611  223.1127 H   0  0  0  0  0  0  0  0  0  0  0  0
  143.5253   78.3270  222.4319 H   0  0  0  0  0  0  0  0  0  0  0  0
  138.6915   70.2912  222.6724 H   0  0  0  0  0  0  0  0  0  0  0  0
  1  2  1  0
  2  3  1  0
  3  4  2  0
  4  5  1  0
  5  6  2  0
  6  7  1  0
  7  8  1  0
  8  9  1  0
  9 10  2  0
  9 11  1  0
 11 12  1  0
 12 13  1  0
 13 14  2  0
 13 15  1  0
 15 16  2  0
 16 17  1  0
 17 18  2  0
 18 19  1  0
 19 20  2  0
 20 21  1  0
 20 22  1  0
 22 23  2  0
 23 24  1  0
 24 25  2  0
  7 26  2  0
 26  3  1  0
 25 15  1  0
 24 18  1  0
  1 27  1  0
  1 28  1  0
  1 29  1  0
  4 30  1  0
  5 31  1  0
  6 32  1  0
  8 33  1  0
 11 34  1  0
 11 35  1  0
 12 36  1  0
 16 37  1  0
 17 38  1  0
 19 39  1  0
 22 40  1  0
 23 41  1  0
 26 42  1  0
M  END
>  <smiles>  (10) 
COc1cccc(NC(=O)CNC(=O)c2ccc3cc(F)ccc3n2)c1

>  <score_type>  (10) 
oracle

>  <origin>  (10) 
autodockgpu

>  <m_score__min__energy>  (10) 
-8.5399999999999991

>  <m_primary>  (10) 
energy

>  <rmsd>  (10) 
10.98077968294052

>  <m_score__min__rmsd>  (10) 
10.98077968294052

>  <meeko>  (10) 
{"free_energy": -7.04, "intermolecular_energy": -8.53, "internal_energy": -1.85, "cluster_size": 13, "cluster_id": 2, "rank_in_cluster": 12}

>  <energy>  (10) 
-8.32

>  <cluster_rmsd>  (10) 
0.33

>  <cluster>  (10) 
1

$$$$

     RDKit          3D

 42 44  0  0  0  0  0  0  0  0999 V2000
  141.8100   80.8570  219.1960 C   0  0  0  0  0  0  0  0  0  0  0  0
  141.7620   81.1890  220.5530 O   0  0  0  0  0  0  0  0  0  0  0  0
  141.6770   80.2170  221.5400 C   0  0  0  0  0  0  0  0  0  0  0  0
  141.7170   80.5900  222.8880 C   0  0  0  0  0  0  0  0  0  0  0  0
  141.6310   79.6090  223.8790 C   0  0  0  0  0  0  0  0  0  0  0  0
  141.5060   78.2680  223.5000 C   0  0  0  0  0  0  0  0  0  0  0  0
  141.4690   77.9390  222.1600 C   0  0  0  0  0  0  0  0  0  0  0  0
  141.3410   76.5860  221.7100 N   0  0  0  0  0  0  0  0  0  0  0  0
  140.0360   76.0450  221.6730 C   0  0  0  0  0  0  0  0  0  0  0  0
  139.0830   76.8110  222.0400 O   0  0  0  0  0  0  0  0  0  0  0  0
  139.6820   74.6870  221.2500 C   0  0  0  0  0  0  0  0  0  0  0  0
  139.5570   73.7170  222.2940 N   0  0  0  0  0  0  0  0  0  0  0  0
  140.4370   72.5950  222.4310 C   0  0  0  0  0  0  0  0  0  0  0  0
  141.3990   72.3960  221.6220 O   0  0  0  0  0  0  0  0  0  0  0  0
  140.2360   71.6330  223.5350 C   0  0  0  0  0  0  0  0  0  0  0  0
  139.5710   70.4610  223.3150 C   0  0  0  0  0  0  0  0  0  0  0  0
  139.4070   69.5860  224.3910 C   0  0  0  0  0  0  0  0  0  0  0  0
  139.8920   69.8730  225.6490 C   0  0  0  0  0  0  0  0  0  0  0  0
  139.7590   69.0550  226.7330 C   0  0  0  0  0  0  0  0  0  0  0  0
  140.2790   69.4110  227.9790 C   0  0  0  0  0  0  0  0  0  0  0  0
  140.1340   68.5740  229.0570 F   0  0  0  0  0  0  0  0  0  0  0  0
  140.9520   70.6260  228.1450 C   0  0  0  0  0  0  0  0  0  0  0  0
  141.0730   71.4380  227.0290 C   0  0  0  0  0  0  0  0  0  0  0  0
  140.5540   71.0680  225.8110 C   0  0  0  0  0  0  0  0  0  0  0  0
  140.7070   71.9040  224.7710 N   0  0  0  0  0  0  0  0  0  0  0  0
  141.5530   78.8990  221.1560 C   0  0  0  0  0  0  0  0  0  0  0  0
  141.9667   79.7735  219.0889 H   0  0  0  0  0  0  0  0  0  0  0  0
  140.8617   81.1396  218.7156 H   0  0  0  0  0  0  0  0  0  0  0  0
  142.6395   81.3967  218.7156 H   0  0  0  0  0  0  0  0  0  0  0  0
  141.8156   81.6497  223.1659 H   0  0  0  0  0  0  0  0  0  0  0  0
  141.6612   79.8871  224.9428 H   0  0  0  0  0  0  0  0  0  0  0  0
  141.4376   77.4807  224.2652 H   0  0  0  0  0  0  0  0  0  0  0  0
  142.1570   76.0130  221.4100 H   0  0  0  0  0  0  0  0  0  0  0  0
  138.7183   74.7394  220.7223 H   0  0  0  0  0  0  0  0  0  0  0  0
  140.5196   74.3435  220.6251 H   0  0  0  0  0  0  0  0  0  0  0  0
  138.7970   73.7720  223.0360 H   0  0  0  0  0  0  0  0  0  0  0  0
  139.1758   70.2131  222.3188 H   0  0  0  0  0  0  0  0  0  0  0  0
  138.8738   68.6375  224.2295 H   0  0  0  0  0  0  0  0  0  0  0  0
  139.2316   68.0960  226.6231 H   0  0  0  0  0  0  0  0  0  0  0  0
  141.3671   70.9238  229.1192 H   0  0  0  0  0  0  0  0  0  0  0  0
  141.5965   72.4012  227.1197 H   0  0  0  0  0  0  0  0  0  0  0  0
  141.5215   78.6160  220.0935 H   0  0  0  0  0  0  0  0  0  0  0  0
  1  2  1  0
  2  3  1  0
  3  4  2  0
  4  5  1  0
  5  6  2  0
  6  7  1  0
  7  8  1  0
  8  9  1  0
  9 10  2  0
  9 11  1  0
 11 12  1  0
 12 13  1  0
 13 14  2  0
 13 15  1  0
 15 16  2  0
 16 17  1  0
 17 18  2  0
 18 19  1  0
 19 20  2  0
 20 21  1  0
 20 22  1  0
 22 23  2  0
 23 24  1  0
 24 25  2  0
  7 26  2  0
 26  3  1  0
 25 15  1  0
 24 18  1  0
  1 27  1  0
  1 28  1  0
  1 29  1  0
  4 30  1  0
  5 31  1  0
  6 32  1  0
  8 33  1  0
 11 34  1  0
 11 35  1  0
 12 36  1  0
 16 37  1  0
 17 38  1  0
 19 39  1  0
 22 40  1  0
 23 41  1  0
 26 42  1  0
M  END
>  <smiles>  (11) 
COc1cccc(NC(=O)CNC(=O)c2ccc3cc(F)ccc3n2)c1

>  <score_type>  (11) 
oracle

>  <origin>  (11) 
autodockgpu

>  <m_score__min__energy>  (11) 
-8.5399999999999991

>  <m_primary>  (11) 
energy

>  <rmsd>  (11) 
4.081948489336104

>  <m_score__min__rmsd>  (11) 
4.081948489336104

>  <meeko>  (11) 
{"free_energy": -8.54, "intermolecular_energy": -10.03, "internal_energy": -0.88, "cluster_size": 36, "cluster_id": 1, "rank_in_cluster": 2}

>  <energy>  (11) 
-8.32

>  <cluster_rmsd>  (11) 
0.29

>  <cluster>  (11) 
1

$$$$

     RDKit          3D

 42 44  0  0  0  0  0  0  0  0999 V2000
  142.8480   80.1620  222.6990 C   0  0  0  0  0  0  0  0  0  0  0  0
  142.3310   78.9520  223.1670 O   0  0  0  0  0  0  0  0  0  0  0  0
  141.0130   78.5820  222.9340 C   0  0  0  0  0  0  0  0  0  0  0  0
  140.0150   79.5610  222.8820 C   0  0  0  0  0  0  0  0  0  0  0  0
  138.6900   79.1850  222.6480 C   0  0  0  0  0  0  0  0  0  0  0  0
  138.3880   77.8300  222.4700 C   0  0  0  0  0  0  0  0  0  0  0  0
  139.4000   76.8930  222.5280 C   0  0  0  0  0  0  0  0  0  0  0  0
  139.1550   75.4940  222.3530 N   0  0  0  0  0  0  0  0  0  0  0  0
  138.8180   75.0620  221.0500 C   0  0  0  0  0  0  0  0  0  0  0  0
  138.7650   75.9560  220.1400 O   0  0  0  0  0  0  0  0  0  0  0  0
  138.5260   73.6810  220.6530 C   0  0  0  0  0  0  0  0  0  0  0  0
  138.6330   72.6950  221.6850 N   0  0  0  0  0  0  0  0  0  0  0  0
  139.7710   72.5850  222.5480 C   0  0  0  0  0  0  0  0  0  0  0  0
  140.7640   73.3740  222.4500 O   0  0  0  0  0  0  0  0  0  0  0  0
  139.8070   71.5330  223.5860 C   0  0  0  0  0  0  0  0  0  0  0  0
  139.3060   70.2900  223.3240 C   0  0  0  0  0  0  0  0  0  0  0  0
  139.3640   69.3320  224.3380 C   0  0  0  0  0  0  0  0  0  0  0  0
  139.9060   69.6050  225.5750 C   0  0  0  0  0  0  0  0  0  0  0  0
  139.9870   68.7070  226.5990 C   0  0  0  0  0  0  0  0  0  0  0  0
  140.5520   69.0550  227.8270 C   0  0  0  0  0  0  0  0  0  0  0  0
  140.6240   68.1360  228.8440 F   0  0  0  0  0  0  0  0  0  0  0  0
  141.0510   70.3450  228.0380 C   0  0  0  0  0  0  0  0  0  0  0  0
  140.9560   71.2380  226.9830 C   0  0  0  0  0  0  0  0  0  0  0  0
  140.3970   70.8750  225.7810 C   0  0  0  0  0  0  0  0  0  0  0  0
  140.3360   71.7900  224.8010 N   0  0  0  0  0  0  0  0  0  0  0  0
  140.7270   77.2440  222.7600 C   0  0  0  0  0  0  0  0  0  0  0  0
  143.1203   80.7993  223.5533 H   0  0  0  0  0  0  0  0  0  0  0  0
  143.7414   79.9670  222.0876 H   0  0  0  0  0  0  0  0  0  0  0  0
  142.0896   80.6728  222.0876 H   0  0  0  0  0  0  0  0  0  0  0  0
  140.2721   80.6210  223.0246 H   0  0  0  0  0  0  0  0  0  0  0  0
  137.8947   79.9437  222.6042 H   0  0  0  0  0  0  0  0  0  0  0  0
  137.3508   77.5137  222.2851 H   0  0  0  0  0  0  0  0  0  0  0  0
  139.2250   74.8080  223.1330 H   0  0  0  0  0  0  0  0  0  0  0  0
  137.4967   73.6527  220.2660 H   0  0  0  0  0  0  0  0  0  0  0  0
  139.2937   73.4175  219.9106 H   0  0  0  0  0  0  0  0  0  0  0  0
  137.8690   71.9800  221.8720 H   0  0  0  0  0  0  0  0  0  0  0  0
  138.8696   70.0506  222.3431 H   0  0  0  0  0  0  0  0  0  0  0  0
  138.9638   68.3261  224.1429 H   0  0  0  0  0  0  0  0  0  0  0  0
  139.5991   67.6879  226.4539 H   0  0  0  0  0  0  0  0  0  0  0  0
  141.4990   70.6373  228.9992 H   0  0  0  0  0  0  0  0  0  0  0  0
  141.3371   72.2620  227.1104 H   0  0  0  0  0  0  0  0  0  0  0  0
  141.5189   76.4817  222.8030 H   0  0  0  0  0  0  0  0  0  0  0  0
  1  2  1  0
  2  3  1  0
  3  4  2  0
  4  5  1  0
  5  6  2  0
  6  7  1  0
  7  8  1  0
  8  9  1  0
  9 10  2  0
  9 11  1  0
 11 12  1  0
 12 13  1  0
 13 14  2  0
 13 15  1  0
 15 16  2  0
 16 17  1  0
 17 18  2  0
 18 19  1  0
 19 20  2  0
 20 21  1  0
 20 22  1  0
 22 23  2  0
 23 24  1  0
 24 25  2  0
  7 26  2  0
 26  3  1  0
 25 15  1  0
 24 18  1  0
  1 27  1  0
  1 28  1  0
  1 29  1  0
  4 30  1  0
  5 31  1  0
  6 32  1  0
  8 33  1  0
 11 34  1  0
 11 35  1  0
 12 36  1  0
 16 37  1  0
 17 38  1  0
 19 39  1  0
 22 40  1  0
 23 41  1  0
 26 42  1  0
M  END
>  <smiles>  (12) 
COc1cccc(NC(=O)CNC(=O)c2ccc3cc(F)ccc3n2)c1

>  <score_type>  (12) 
oracle

>  <origin>  (12) 
autodockgpu

>  <m_score__min__energy>  (12) 
-8.5399999999999991

>  <m_primary>  (12) 
energy

>  <rmsd>  (12) 
4.82072158323188

>  <m_score__min__rmsd>  (12) 
4.82072158323188

>  <meeko>  (12) 
{"free_energy": -7.52, "intermolecular_energy": -9.01, "internal_energy": -1.43, "cluster_size": 36, "cluster_id": 1, "rank_in_cluster": 27}

>  <energy>  (12) 
-8.3

>  <cluster_rmsd>  (12) 
0.41

>  <cluster>  (12) 
1

$$$$

     RDKit          3D

 42 44  0  0  0  0  0  0  0  0999 V2000
  142.7530   80.4150  223.3530 C   0  0  0  0  0  0  0  0  0  0  0  0
  142.4040   79.1170  222.9700 O   0  0  0  0  0  0  0  0  0  0  0  0
  141.0780   78.7130  222.8860 C   0  0  0  0  0  0  0  0  0  0  0  0
  140.0540   79.6610  222.9920 C   0  0  0  0  0  0  0  0  0  0  0  0
  138.7210   79.2500  222.9080 C   0  0  0  0  0  0  0  0  0  0  0  0
  138.4380   77.8930  222.7190 C   0  0  0  0  0  0  0  0  0  0  0  0
  139.4750   76.9870  222.6190 C   0  0  0  0  0  0  0  0  0  0  0  0
  139.2500   75.5870  222.4250 N   0  0  0  0  0  0  0  0  0  0  0  0
  138.7000   75.1940  221.1840 C   0  0  0  0  0  0  0  0  0  0  0  0
  138.4550   76.1210  220.3410 O   0  0  0  0  0  0  0  0  0  0  0  0
  138.3880   73.8200  220.7800 C   0  0  0  0  0  0  0  0  0  0  0  0
  138.5070   72.8240  221.8000 N   0  0  0  0  0  0  0  0  0  0  0  0
  139.7110   72.6070  222.5460 C   0  0  0  0  0  0  0  0  0  0  0  0
  140.7570   73.3020  222.3460 O   0  0  0  0  0  0  0  0  0  0  0  0
  139.7550   71.5510  223.5800 C   0  0  0  0  0  0  0  0  0  0  0  0
  139.2320   70.3150  223.3250 C   0  0  0  0  0  0  0  0  0  0  0  0
  139.2990   69.3530  224.3350 C   0  0  0  0  0  0  0  0  0  0  0  0
  139.8700   69.6160  225.5610 C   0  0  0  0  0  0  0  0  0  0  0  0
  139.9600   68.7130  226.5810 C   0  0  0  0  0  0  0  0  0  0  0  0
  140.5540   69.0510  227.7980 C   0  0  0  0  0  0  0  0  0  0  0  0
  140.6350   68.1280  228.8110 F   0  0  0  0  0  0  0  0  0  0  0  0
  141.0740   70.3330  228.0030 C   0  0  0  0  0  0  0  0  0  0  0  0
  140.9690   71.2310  226.9520 C   0  0  0  0  0  0  0  0  0  0  0  0
  140.3810   70.8780  225.7610 C   0  0  0  0  0  0  0  0  0  0  0  0
  140.3120   71.7980  224.7850 N   0  0  0  0  0  0  0  0  0  0  0  0
  140.8100   77.3730  222.7000 C   0  0  0  0  0  0  0  0  0  0  0  0
  142.7708   80.4811  224.4509 H   0  0  0  0  0  0  0  0  0  0  0  0
  143.7488   80.6596  222.9548 H   0  0  0  0  0  0  0  0  0  0  0  0
  142.0141   81.1260  222.9548 H   0  0  0  0  0  0  0  0  0  0  0  0
  140.2970   80.7235  223.1406 H   0  0  0  0  0  0  0  0  0  0  0  0
  137.9053   79.9835  222.9894 H   0  0  0  0  0  0  0  0  0  0  0  0
  137.3952   77.5498  222.6504 H   0  0  0  0  0  0  0  0  0  0  0  0
  139.4820   74.8740  223.1470 H   0  0  0  0  0  0  0  0  0  0  0  0
  137.3509   73.8042  220.4136 H   0  0  0  0  0  0  0  0  0  0  0  0
  139.1381   73.5569  220.0197 H   0  0  0  0  0  0  0  0  0  0  0  0
  137.7040   72.1800  222.0660 H   0  0  0  0  0  0  0  0  0  0  0  0
  138.7717   70.0844  222.3529 H   0  0  0  0  0  0  0  0  0  0  0  0
  138.8824   68.3527  224.1456 H   0  0  0  0  0  0  0  0  0  0  0  0
  139.5565   67.6993  226.4410 H   0  0  0  0  0  0  0  0  0  0  0  0
  141.5453   70.6162  228.9557 H   0  0  0  0  0  0  0  0  0  0  0  0
  141.3655   72.2497  227.0742 H   0  0  0  0  0  0  0  0  0  0  0  0
  141.6221   76.6356  222.6186 H   0  0  0  0  0  0  0  0  0  0  0  0
  1  2  1  0
  2  3  1  0
  3  4  2  0
  4  5  1  0
  5  6  2  0
  6  7  1  0
  7  8  1  0
  8  9  1  0
  9 10  2  0
  9 11  1  0
 11 12  1  0
 12 13  1  0
 13 14  2  0
 13 15  1  0
 15 16  2  0
 16 17  1  0
 17 18  2  0
 18 19  1  0
 19 20  2  0
 20 21  1  0
 20 22  1  0
 22 23  2  0
 23 24  1  0
 24 25  2  0
  7 26  2  0
 26  3  1  0
 25 15  1  0
 24 18  1  0
  1 27  1  0
  1 28  1  0
  1 29  1  0
  4 30  1  0
  5 31  1  0
  6 32  1  0
  8 33  1  0
 11 34  1  0
 11 35  1  0
 12 36  1  0
 16 37  1  0
 17 38  1  0
 19 39  1  0
 22 40  1  0
 23 41  1  0
 26 42  1  0
M  END
>  <smiles>  (13) 
COc1cccc(NC(=O)CNC(=O)c2ccc3cc(F)ccc3n2)c1

>  <score_type>  (13) 
oracle

>  <origin>  (13) 
autodockgpu

>  <m_score__min__energy>  (13) 
-8.5399999999999991

>  <m_primary>  (13) 
energy

>  <rmsd>  (13) 
4.846667505171079

>  <m_score__min__rmsd>  (13) 
4.846667505171079

>  <meeko>  (13) 
{"free_energy": -7.6, "intermolecular_energy": -9.09, "internal_energy": -1.48, "cluster_size": 36, "cluster_id": 1, "rank_in_cluster": 23}

>  <energy>  (13) 
-8.28

>  <cluster_rmsd>  (13) 
0.31

>  <cluster>  (13) 
1

$$$$

     RDKit          3D

 42 44  0  0  0  0  0  0  0  0999 V2000
  141.8290   80.7600  219.1240 C   0  0  0  0  0  0  0  0  0  0  0  0
  141.6930   81.1350  220.4640 O   0  0  0  0  0  0  0  0  0  0  0  0
  141.6050   80.1940  221.4800 C   0  0  0  0  0  0  0  0  0  0  0  0
  141.6150   80.6100  222.8160 C   0  0  0  0  0  0  0  0  0  0  0  0
  141.5270   79.6590  223.8360 C   0  0  0  0  0  0  0  0  0  0  0  0
  141.4300   78.3050  223.4980 C   0  0  0  0  0  0  0  0  0  0  0  0
  141.4240   77.9330  222.1690 C   0  0  0  0  0  0  0  0  0  0  0  0
  141.3260   76.5650  221.7590 N   0  0  0  0  0  0  0  0  0  0  0  0
  140.0250   76.0310  221.6190 C   0  0  0  0  0  0  0  0  0  0  0  0
  139.0480   76.8160  221.8640 O   0  0  0  0  0  0  0  0  0  0  0  0
  139.6990   74.6590  221.2150 C   0  0  0  0  0  0  0  0  0  0  0  0
  139.5770   73.7060  222.2750 N   0  0  0  0  0  0  0  0  0  0  0  0
  140.3720   72.5170  222.3550 C   0  0  0  0  0  0  0  0  0  0  0  0
  141.2500   72.2390  221.4770 O   0  0  0  0  0  0  0  0  0  0  0  0
  140.1790   71.5780  223.4800 C   0  0  0  0  0  0  0  0  0  0  0  0
  139.5190   70.3980  223.2870 C   0  0  0  0  0  0  0  0  0  0  0  0
  139.3630   69.5460  224.3830 C   0  0  0  0  0  0  0  0  0  0  0  0
  139.8510   69.8620  225.6320 C   0  0  0  0  0  0  0  0  0  0  0  0
  139.7260   69.0660  226.7340 C   0  0  0  0  0  0  0  0  0  0  0  0
  140.2490   69.4510  227.9700 C   0  0  0  0  0  0  0  0  0  0  0  0
  140.1120   68.6370  229.0660 F   0  0  0  0  0  0  0  0  0  0  0  0
  140.9170   70.6730  228.1080 C   0  0  0  0  0  0  0  0  0  0  0  0
  141.0300   71.4610  226.9740 C   0  0  0  0  0  0  0  0  0  0  0  0
  140.5090   71.0630  225.7660 C   0  0  0  0  0  0  0  0  0  0  0  0
  140.6530   71.8770  224.7080 N   0  0  0  0  0  0  0  0  0  0  0  0
  141.5100   78.8620  221.1350 C   0  0  0  0  0  0  0  0  0  0  0  0
  142.2036   79.7272  219.0685 H   0  0  0  0  0  0  0  0  0  0  0  0
  140.8509   80.8227  218.6246 H   0  0  0  0  0  0  0  0  0  0  0  0
  142.5395   81.4351  218.6246 H   0  0  0  0  0  0  0  0  0  0  0  0
  141.6917   81.6794  223.0618 H   0  0  0  0  0  0  0  0  0  0  0  0
  141.5339   79.9709  224.8908 H   0  0  0  0  0  0  0  0  0  0  0  0
  141.3589   77.5415  224.2867 H   0  0  0  0  0  0  0  0  0  0  0  0
  142.1610   75.9750  221.5610 H   0  0  0  0  0  0  0  0  0  0  0  0
  138.7414   74.6857  220.6744 H   0  0  0  0  0  0  0  0  0  0  0  0
  140.5497   74.3187  220.6063 H   0  0  0  0  0  0  0  0  0  0  0  0
  138.8830   73.8250  223.0720 H   0  0  0  0  0  0  0  0  0  0  0  0
  139.1220   70.1265  222.2977 H   0  0  0  0  0  0  0  0  0  0  0  0
  138.8334   68.5919  224.2443 H   0  0  0  0  0  0  0  0  0  0  0  0
  139.2029   68.1023  226.6465 H   0  0  0  0  0  0  0  0  0  0  0  0
  141.3339   70.9937  229.0741 H   0  0  0  0  0  0  0  0  0  0  0  0
  141.5491   72.4284  227.0421 H   0  0  0  0  0  0  0  0  0  0  0  0
  141.5024   78.5450  220.0817 H   0  0  0  0  0  0  0  0  0  0  0  0
  1  2  1  0
  2  3  1  0
  3  4  2  0
  4  5  1  0
  5  6  2  0
  6  7  1  0
  7  8  1  0
  8  9  1  0
  9 10  2  0
  9 11  1  0
 11 12  1  0
 12 13  1  0
 13 14  2  0
 13 15  1  0
 15 16  2  0
 16 17  1  0
 17 18  2  0
 18 19  1  0
 19 20  2  0
 20 21  1  0
 20 22  1  0
 22 23  2  0
 23 24  1  0
 24 25  2  0
  7 26  2  0
 26  3  1  0
 25 15  1  0
 24 18  1  0
  1 27  1  0
  1 28  1  0
  1 29  1  0
  4 30  1  0
  5 31  1  0
  6 32  1  0
  8 33  1  0
 11 34  1  0
 11 35  1  0
 12 36  1  0
 16 37  1  0
 17 38  1  0
 19 39  1  0
 22 40  1  0
 23 41  1  0
 26 42  1  0
M  END
>  <smiles>  (14) 
COc1cccc(NC(=O)CNC(=O)c2ccc3cc(F)ccc3n2)c1

>  <score_type>  (14) 
oracle

>  <origin>  (14) 
autodockgpu

>  <m_score__min__energy>  (14) 
-8.5399999999999991

>  <m_primary>  (14) 
energy

>  <rmsd>  (14) 
4.0841158703418765

>  <m_score__min__rmsd>  (14) 
4.0841158703418765

>  <meeko>  (14) 
{"free_energy": -8.52, "intermolecular_energy": -10.01, "internal_energy": -0.88, "cluster_size": 36, "cluster_id": 1, "rank_in_cluster": 4}

>  <energy>  (14) 
-8.24

>  <cluster_rmsd>  (14) 
0.38

>  <cluster>  (14) 
1

$$$$

     RDKit          3D

 42 44  0  0  0  0  0  0  0  0999 V2000
  142.9300   80.4380  223.1240 C   0  0  0  0  0  0  0  0  0  0  0  0
  142.2930   79.3930  223.8000 O   0  0  0  0  0  0  0  0  0  0  0  0
  141.1140   78.8310  223.3290 C   0  0  0  0  0  0  0  0  0  0  0  0
  139.9870   79.6370  223.1360 C   0  0  0  0  0  0  0  0  0  0  0  0
  138.8030   79.0670  222.6630 C   0  0  0  0  0  0  0  0  0  0  0  0
  138.7690   77.6950  222.3910 C   0  0  0  0  0  0  0  0  0  0  0  0
  139.9010   76.9320  222.5940 C   0  0  0  0  0  0  0  0  0  0  0  0
  139.9300   75.5240  222.3330 N   0  0  0  0  0  0  0  0  0  0  0  0
  140.8640   75.0700  221.3750 C   0  0  0  0  0  0  0  0  0  0  0  0
  141.6050   75.9540  220.8270 O   0  0  0  0  0  0  0  0  0  0  0  0
  141.0570   73.6790  220.9560 C   0  0  0  0  0  0  0  0  0  0  0  0
  141.0110   72.6990  221.9980 N   0  0  0  0  0  0  0  0  0  0  0  0
  139.8020   72.3220  222.6680 C   0  0  0  0  0  0  0  0  0  0  0  0
  138.6810   72.8410  222.3670 O   0  0  0  0  0  0  0  0  0  0  0  0
  139.8420   71.3060  223.7400 C   0  0  0  0  0  0  0  0  0  0  0  0
  139.3510   70.0510  223.5190 C   0  0  0  0  0  0  0  0  0  0  0  0
  139.4120   69.1270  224.5640 C   0  0  0  0  0  0  0  0  0  0  0  0
  139.9470   69.4460  225.7930 C   0  0  0  0  0  0  0  0  0  0  0  0
  140.0300   68.5830  226.8470 C   0  0  0  0  0  0  0  0  0  0  0  0
  140.5870   68.9770  228.0650 C   0  0  0  0  0  0  0  0  0  0  0  0
  140.6620   68.0930  229.1130 F   0  0  0  0  0  0  0  0  0  0  0  0
  141.0750   70.2770  228.2350 C   0  0  0  0  0  0  0  0  0  0  0  0
  140.9790   71.1330  227.1500 C   0  0  0  0  0  0  0  0  0  0  0  0
  140.4270   70.7250  225.9580 C   0  0  0  0  0  0  0  0  0  0  0  0
  140.3640   71.6070  224.9490 N   0  0  0  0  0  0  0  0  0  0  0  0
  141.0920   77.4770  223.0640 C   0  0  0  0  0  0  0  0  0  0  0  0
  143.3580   81.1402  223.8545 H   0  0  0  0  0  0  0  0  0  0  0  0
  143.7335   80.0305  222.4928 H   0  0  0  0  0  0  0  0  0  0  0  0
  142.1997   80.9654  222.4928 H   0  0  0  0  0  0  0  0  0  0  0  0
  140.0331   80.7139  223.3556 H   0  0  0  0  0  0  0  0  0  0  0  0
  137.9090   79.6885  222.5064 H   0  0  0  0  0  0  0  0  0  0  0  0
  137.8459   77.2274  222.0178 H   0  0  0  0  0  0  0  0  0  0  0  0
  139.3070   74.8480  222.8220 H   0  0  0  0  0  0  0  0  0  0  0  0
  140.2693   73.4341  220.2283 H   0  0  0  0  0  0  0  0  0  0  0  0
  142.0772   73.6306  220.5474 H   0  0  0  0  0  0  0  0  0  0  0  0
  141.8800   72.1890  222.3400 H   0  0  0  0  0  0  0  0  0  0  0  0
  138.9196   69.7758  222.5452 H   0  0  0  0  0  0  0  0  0  0  0  0
  139.0205   68.1121  224.4009 H   0  0  0  0  0  0  0  0  0  0  0  0
  139.6505   67.5567  226.7346 H   0  0  0  0  0  0  0  0  0  0  0  0
  141.5155   70.6050  229.1881 H   0  0  0  0  0  0  0  0  0  0  0  0
  141.3530   72.1632  227.2439 H   0  0  0  0  0  0  0  0  0  0  0  0
  141.9834   76.8513  223.2186 H   0  0  0  0  0  0  0  0  0  0  0  0
  1  2  1  0
  2  3  1  0
  3  4  2  0
  4  5  1  0
  5  6  2  0
  6  7  1  0
  7  8  1  0
  8  9  1  0
  9 10  2  0
  9 11  1  0
 11 12  1  0
 12 13  1  0
 13 14  2  0
 13 15  1  0
 15 16  2  0
 16 17  1  0
 17 18  2  0
 18 19  1  0
 19 20  2  0
 20 21  1  0
 20 22  1  0
 22 23  2  0
 23 24  1  0
 24 25  2  0
  7 26  2  0
 26  3  1  0
 25 15  1  0
 24 18  1  0
  1 27  1  0
  1 28  1  0
  1 29  1  0
  4 30  1  0
  5 31  1  0
  6 32  1  0
  8 33  1  0
 11 34  1  0
 11 35  1  0
 12 36  1  0
 16 37  1  0
 17 38  1  0
 19 39  1  0
 22 40  1  0
 23 41  1  0
 26 42  1  0
M  END
>  <smiles>  (15) 
COc1cccc(NC(=O)CNC(=O)c2ccc3cc(F)ccc3n2)c1

>  <score_type>  (15) 
oracle

>  <origin>  (15) 
autodockgpu

>  <m_score__min__energy>  (15) 
-8.5399999999999991

>  <m_primary>  (15) 
energy

>  <rmsd>  (15) 
4.831634509408731

>  <m_score__min__rmsd>  (15) 
4.831634509408731

>  <meeko>  (15) 
{"free_energy": -7.38, "intermolecular_energy": -8.87, "internal_energy": -1.51, "cluster_size": 36, "cluster_id": 1, "rank_in_cluster": 30}

>  <energy>  (15) 
-8.24

>  <cluster_rmsd>  (15) 
0.38

>  <cluster>  (15) 
1

$$$$

     RDKit          3D

 42 44  0  0  0  0  0  0  0  0999 V2000
  142.8890   80.5170  223.1560 C   0  0  0  0  0  0  0  0  0  0  0  0
  142.2350   79.4900  223.8410 O   0  0  0  0  0  0  0  0  0  0  0  0
  141.0780   78.9040  223.3460 C   0  0  0  0  0  0  0  0  0  0  0  0
  139.9470   79.6920  223.1060 C   0  0  0  0  0  0  0  0  0  0  0  0
  138.7840   79.0980  222.6090 C   0  0  0  0  0  0  0  0  0  0  0  0
  138.7760   77.7210  222.3590 C   0  0  0  0  0  0  0  0  0  0  0  0
  139.9110   76.9770  222.6070 C   0  0  0  0  0  0  0  0  0  0  0  0
  139.9660   75.5660  222.3710 N   0  0  0  0  0  0  0  0  0  0  0  0
  140.8160   75.1240  221.3320 C   0  0  0  0  0  0  0  0  0  0  0  0
  141.4660   76.0200  220.6960 O   0  0  0  0  0  0  0  0  0  0  0  0
  141.0170   73.7310  220.9220 C   0  0  0  0  0  0  0  0  0  0  0  0
  140.9680   72.7560  221.9680 N   0  0  0  0  0  0  0  0  0  0  0  0
  139.7630   72.4110  222.6620 C   0  0  0  0  0  0  0  0  0  0  0  0
  138.6490   72.9550  222.3800 O   0  0  0  0  0  0  0  0  0  0  0  0
  139.7990   71.3970  223.7380 C   0  0  0  0  0  0  0  0  0  0  0  0
  139.2740   70.1540  223.5300 C   0  0  0  0  0  0  0  0  0  0  0  0
  139.3330   69.2330  224.5780 C   0  0  0  0  0  0  0  0  0  0  0  0
  139.8980   69.5430  225.7960 C   0  0  0  0  0  0  0  0  0  0  0  0
  139.9810   68.6820  226.8520 C   0  0  0  0  0  0  0  0  0  0  0  0
  140.5700   69.0670  228.0570 C   0  0  0  0  0  0  0  0  0  0  0  0
  140.6430   68.1860  229.1070 F   0  0  0  0  0  0  0  0  0  0  0  0
  141.0920   70.3550  228.2120 C   0  0  0  0  0  0  0  0  0  0  0  0
  140.9950   71.2100  227.1260 C   0  0  0  0  0  0  0  0  0  0  0  0
  140.4120   70.8110  225.9470 C   0  0  0  0  0  0  0  0  0  0  0  0
  140.3510   71.6910  224.9350 N   0  0  0  0  0  0  0  0  0  0  0  0
  141.0810   77.5460  223.1030 C   0  0  0  0  0  0  0  0  0  0  0  0
  143.3338   81.2155  223.8801 H   0  0  0  0  0  0  0  0  0  0  0  0
  143.6817   80.0897  222.5243 H   0  0  0  0  0  0  0  0  0  0  0  0
  142.1665   81.0545  222.5243 H   0  0  0  0  0  0  0  0  0  0  0  0
  139.9733   80.7731  223.3075 H   0  0  0  0  0  0  0  0  0  0  0  0
  137.8867   79.7046  222.4168 H   0  0  0  0  0  0  0  0  0  0  0  0
  137.8703   77.2349  221.9672 H   0  0  0  0  0  0  0  0  0  0  0  0
  139.4200   74.8800  222.9320 H   0  0  0  0  0  0  0  0  0  0  0  0
  140.2350   73.4793  220.1904 H   0  0  0  0  0  0  0  0  0  0  0  0
  142.0403   73.6846  220.5210 H   0  0  0  0  0  0  0  0  0  0  0  0
  141.8310   72.2270  222.2960 H   0  0  0  0  0  0  0  0  0  0  0  0
  138.8181   69.8859  222.5655 H   0  0  0  0  0  0  0  0  0  0  0  0
  138.9147   68.2270  224.4263 H   0  0  0  0  0  0  0  0  0  0  0  0
  139.5755   67.6645  226.7511 H   0  0  0  0  0  0  0  0  0  0  0  0
  141.5592   70.6754  229.1549 H   0  0  0  0  0  0  0  0  0  0  0  0
  141.3938   72.2318  227.2093 H   0  0  0  0  0  0  0  0  0  0  0  0
  141.9754   76.9348  223.2942 H   0  0  0  0  0  0  0  0  0  0  0  0
  1  2  1  0
  2  3  1  0
  3  4  2  0
  4  5  1  0
  5  6  2  0
  6  7  1  0
  7  8  1  0
  8  9  1  0
  9 10  2  0
  9 11  1  0
 11 12  1  0
 12 13  1  0
 13 14  2  0
 13 15  1  0
 15 16  2  0
 16 17  1  0
 17 18  2  0
 18 19  1  0
 19 20  2  0
 20 21  1  0
 20 22  1  0
 22 23  2  0
 23 24  1  0
 24 25  2  0
  7 26  2  0
 26  3  1  0
 25 15  1  0
 24 18  1  0
  1 27  1  0
  1 28  1  0
  1 29  1  0
  4 30  1  0
  5 31  1  0
  6 32  1  0
  8 33  1  0
 11 34  1  0
 11 35  1  0
 12 36  1  0
 16 37  1  0
 17 38  1  0
 19 39  1  0
 22 40  1  0
 23 41  1  0
 26 42  1  0
M  END
>  <smiles>  (16) 
COc1cccc(NC(=O)CNC(=O)c2ccc3cc(F)ccc3n2)c1

>  <score_type>  (16) 
oracle

>  <origin>  (16) 
autodockgpu

>  <m_score__min__energy>  (16) 
-8.5399999999999991

>  <m_primary>  (16) 
energy

>  <rmsd>  (16) 
4.791844279910622

>  <m_score__min__rmsd>  (16) 
4.791844279910622

>  <meeko>  (16) 
{"free_energy": -7.34, "intermolecular_energy": -8.83, "internal_energy": -1.57, "cluster_size": 36, "cluster_id": 1, "rank_in_cluster": 34}

>  <energy>  (16) 
-8.24

>  <cluster_rmsd>  (16) 
0.38

>  <cluster>  (16) 
1

$$$$

     RDKit          3D

 42 44  0  0  0  0  0  0  0  0999 V2000
  141.0010   71.7340  227.9830 C   0  0  0  0  0  0  0  0  0  0  0  0
  141.2910   70.6880  227.1030 O   0  0  0  0  0  0  0  0  0  0  0  0
  140.5600   70.4880  225.9400 C   0  0  0  0  0  0  0  0  0  0  0  0
  139.9530   69.2490  225.7050 C   0  0  0  0  0  0  0  0  0  0  0  0
  139.2180   69.0510  224.5330 C   0  0  0  0  0  0  0  0  0  0  0  0
  139.1040   70.1020  223.6160 C   0  0  0  0  0  0  0  0  0  0  0  0
  139.7170   71.3090  223.8830 C   0  0  0  0  0  0  0  0  0  0  0  0
  139.6360   72.4210  222.9850 N   0  0  0  0  0  0  0  0  0  0  0  0
  140.5840   72.4680  221.9380 C   0  0  0  0  0  0  0  0  0  0  0  0
  141.4280   71.5120  221.8800 O   0  0  0  0  0  0  0  0  0  0  0  0
  140.6820   73.5140  220.9150 C   0  0  0  0  0  0  0  0  0  0  0  0
  140.8490   74.8510  221.3990 N   0  0  0  0  0  0  0  0  0  0  0  0
  139.7890   75.6030  222.0020 C   0  0  0  0  0  0  0  0  0  0  0  0
  138.6230   75.1170  222.1500 O   0  0  0  0  0  0  0  0  0  0  0  0
  140.0410   76.9830  222.4690 C   0  0  0  0  0  0  0  0  0  0  0  0
  138.9990   77.7920  222.8200 C   0  0  0  0  0  0  0  0  0  0  0  0
  139.2910   79.0870  223.2550 C   0  0  0  0  0  0  0  0  0  0  0  0
  140.5830   79.5590  223.3370 C   0  0  0  0  0  0  0  0  0  0  0  0
  140.9220   80.8130  223.7540 C   0  0  0  0  0  0  0  0  0  0  0  0
  142.2560   81.2220  223.8130 C   0  0  0  0  0  0  0  0  0  0  0  0
  142.5760   82.4880  224.2350 F   0  0  0  0  0  0  0  0  0  0  0  0
  143.2830   80.3490  223.4400 C   0  0  0  0  0  0  0  0  0  0  0  0
  142.9110   79.0810  223.0200 C   0  0  0  0  0  0  0  0  0  0  0  0
  141.5920   78.6980  222.9700 C   0  0  0  0  0  0  0  0  0  0  0  0
  141.3030   77.4550  222.5530 N   0  0  0  0  0  0  0  0  0  0  0  0
  140.4540   71.5300  225.0430 C   0  0  0  0  0  0  0  0  0  0  0  0
  141.0994   71.3791  229.0195 H   0  0  0  0  0  0  0  0  0  0  0  0
  141.7032   72.5631  227.8111 H   0  0  0  0  0  0  0  0  0  0  0  0
  139.9722   72.0832  227.8111 H   0  0  0  0  0  0  0  0  0  0  0  0
  140.0539   68.4356  226.4387 H   0  0  0  0  0  0  0  0  0  0  0  0
  138.7358   68.0826  224.3341 H   0  0  0  0  0  0  0  0  0  0  0  0
  138.5292   69.9667  222.6880 H   0  0  0  0  0  0  0  0  0  0  0  0
  138.9150   73.1670  223.0760 H   0  0  0  0  0  0  0  0  0  0  0  0
  141.5440   73.2780  220.2738 H   0  0  0  0  0  0  0  0  0  0  0  0
  139.7154   73.5070  220.3899 H   0  0  0  0  0  0  0  0  0  0  0  0
  141.7760   75.3680  221.3370 H   0  0  0  0  0  0  0  0  0  0  0  0
  137.9602   77.4348  222.7621 H   0  0  0  0  0  0  0  0  0  0  0  0
  138.4626   79.7516  223.5414 H   0  0  0  0  0  0  0  0  0  0  0  0
  140.1290   81.5157  224.0495 H   0  0  0  0  0  0  0  0  0  0  0  0
  144.3390   80.6547  223.4781 H   0  0  0  0  0  0  0  0  0  0  0  0
  143.6899   78.3647  222.7197 H   0  0  0  0  0  0  0  0  0  0  0  0
  140.9343   72.5004  225.2371 H   0  0  0  0  0  0  0  0  0  0  0  0
  1  2  1  0
  2  3  1  0
  3  4  2  0
  4  5  1  0
  5  6  2  0
  6  7  1  0
  7  8  1  0
  8  9  1  0
  9 10  2  0
  9 11  1  0
 11 12  1  0
 12 13  1  0
 13 14  2  0
 13 15  1  0
 15 16  2  0
 16 17  1  0
 17 18  2  0
 18 19  1  0
 19 20  2  0
 20 21  1  0
 20 22  1  0
 22 23  2  0
 23 24  1  0
 24 25  2  0
  7 26  2  0
 26  3  1  0
 25 15  1  0
 24 18  1  0
  1 27  1  0
  1 28  1  0
  1 29  1  0
  4 30  1  0
  5 31  1  0
  6 32  1  0
  8 33  1  0
 11 34  1  0
 11 35  1  0
 12 36  1  0
 16 37  1  0
 17 38  1  0
 19 39  1  0
 22 40  1  0
 23 41  1  0
 26 42  1  0
M  END
>  <smiles>  (17) 
COc1cccc(NC(=O)CNC(=O)c2ccc3cc(F)ccc3n2)c1

>  <score_type>  (17) 
oracle

>  <origin>  (17) 
autodockgpu

>  <m_score__min__energy>  (17) 
-8.5399999999999991

>  <m_primary>  (17) 
energy

>  <rmsd>  (17) 
10.689988499131786

>  <m_score__min__rmsd>  (17) 
10.689988499131786

>  <meeko>  (17) 
{"free_energy": -7.31, "intermolecular_energy": -8.8, "internal_energy": -1.88, "cluster_size": 13, "cluster_id": 2, "rank_in_cluster": 5}

>  <energy>  (17) 
-8.22

>  <cluster_rmsd>  (17) 
1.52

>  <cluster>  (17) 
1

$$$$

     RDKit          3D

 42 44  0  0  0  0  0  0  0  0999 V2000
  141.8130   80.9630  219.0780 C   0  0  0  0  0  0  0  0  0  0  0  0
  141.7530   81.3170  220.4280 O   0  0  0  0  0  0  0  0  0  0  0  0
  141.6560   80.3620  221.4300 C   0  0  0  0  0  0  0  0  0  0  0  0
  141.6520   80.7590  222.7720 C   0  0  0  0  0  0  0  0  0  0  0  0
  141.5550   79.7940  223.7780 C   0  0  0  0  0  0  0  0  0  0  0  0
  141.4640   78.4440  223.4190 C   0  0  0  0  0  0  0  0  0  0  0  0
  141.4720   78.0910  222.0850 C   0  0  0  0  0  0  0  0  0  0  0  0
  141.3800   76.7280  221.6560 N   0  0  0  0  0  0  0  0  0  0  0  0
  140.0970   76.1370  221.6720 C   0  0  0  0  0  0  0  0  0  0  0  0
  139.1280   76.8700  222.0640 O   0  0  0  0  0  0  0  0  0  0  0  0
  139.7810   74.7610  221.2790 C   0  0  0  0  0  0  0  0  0  0  0  0
  139.7520   73.7970  222.3360 N   0  0  0  0  0  0  0  0  0  0  0  0
  140.0390   72.4080  222.1370 C   0  0  0  0  0  0  0  0  0  0  0  0
  140.3470   71.9450  220.9930 O   0  0  0  0  0  0  0  0  0  0  0  0
  139.9800   71.4740  223.2820 C   0  0  0  0  0  0  0  0  0  0  0  0
  139.5540   70.1890  223.1010 C   0  0  0  0  0  0  0  0  0  0  0  0
  139.5170   69.3470  224.2150 C   0  0  0  0  0  0  0  0  0  0  0  0
  139.8920   69.7750  225.4700 C   0  0  0  0  0  0  0  0  0  0  0  0
  139.8740   68.9950  226.5900 C   0  0  0  0  0  0  0  0  0  0  0  0
  140.2710   69.4970  227.8300 C   0  0  0  0  0  0  0  0  0  0  0  0
  140.2460   68.6950  228.9440 F   0  0  0  0  0  0  0  0  0  0  0  0
  140.6990   70.8230  227.9550 C   0  0  0  0  0  0  0  0  0  0  0  0
  140.7070   71.5940  226.8030 C   0  0  0  0  0  0  0  0  0  0  0  0
  140.3130   71.0800  225.5910 C   0  0  0  0  0  0  0  0  0  0  0  0
  140.3450   71.8820  224.5160 N   0  0  0  0  0  0  0  0  0  0  0  0
  141.5670   79.0340  221.0660 C   0  0  0  0  0  0  0  0  0  0  0  0
  141.9962   79.8819  218.9902 H   0  0  0  0  0  0  0  0  0  0  0  0
  140.8595   81.2141  218.5904 H   0  0  0  0  0  0  0  0  0  0  0  0
  142.6305   81.5142  218.5904 H   0  0  0  0  0  0  0  0  0  0  0  0
  141.7248   81.8250  223.0335 H   0  0  0  0  0  0  0  0  0  0  0  0
  141.5502   80.0910  224.8371 H   0  0  0  0  0  0  0  0  0  0  0  0
  141.3866   77.6690  224.1958 H   0  0  0  0  0  0  0  0  0  0  0  0
  142.2070   76.1830  221.3340 H   0  0  0  0  0  0  0  0  0  0  0  0
  138.7900   74.7667  220.8016 H   0  0  0  0  0  0  0  0  0  0  0  0
  140.5995   74.4474  220.6144 H   0  0  0  0  0  0  0  0  0  0  0  0
  139.5120   74.0570  223.3390 H   0  0  0  0  0  0  0  0  0  0  0  0
  139.2492   69.8279  222.1077 H   0  0  0  0  0  0  0  0  0  0  0  0
  139.1775   68.3087  224.0862 H   0  0  0  0  0  0  0  0  0  0  0  0
  139.5398   67.9498  226.5136 H   0  0  0  0  0  0  0  0  0  0  0  0
  141.0152   71.2355  228.9245 H   0  0  0  0  0  0  0  0  0  0  0  0
  141.0365   72.6419  226.8604 H   0  0  0  0  0  0  0  0  0  0  0  0
  141.5710   78.7316  220.0084 H   0  0  0  0  0  0  0  0  0  0  0  0
  1  2  1  0
  2  3  1  0
  3  4  2  0
  4  5  1  0
  5  6  2  0
  6  7  1  0
  7  8  1  0
  8  9  1  0
  9 10  2  0
  9 11  1  0
 11 12  1  0
 12 13  1  0
 13 14  2  0
 13 15  1  0
 15 16  2  0
 16 17  1  0
 17 18  2  0
 18 19  1  0
 19 20  2  0
 20 21  1  0
 20 22  1  0
 22 23  2  0
 23 24  1  0
 24 25  2  0
  7 26  2  0
 26  3  1  0
 25 15  1  0
 24 18  1  0
  1 27  1  0
  1 28  1  0
  1 29  1  0
  4 30  1  0
  5 31  1  0
  6 32  1  0
  8 33  1  0
 11 34  1  0
 11 35  1  0
 12 36  1  0
 16 37  1  0
 17 38  1  0
 19 39  1  0
 22 40  1  0
 23 41  1  0
 26 42  1  0
M  END
>  <smiles>  (18) 
COc1cccc(NC(=O)CNC(=O)c2ccc3cc(F)ccc3n2)c1

>  <score_type>  (18) 
oracle

>  <origin>  (18) 
autodockgpu

>  <m_score__min__energy>  (18) 
-8.5399999999999991

>  <m_primary>  (18) 
energy

>  <rmsd>  (18) 
4.009645108472095

>  <m_score__min__rmsd>  (18) 
4.009645108472095

>  <meeko>  (18) 
{"free_energy": -8.24, "intermolecular_energy": -9.73, "internal_energy": -1.02, "cluster_size": 36, "cluster_id": 1, "rank_in_cluster": 14}

>  <energy>  (18) 
-8.17

>  <cluster_rmsd>  (18) 
0.48

>  <cluster>  (18) 
1

$$$$

     RDKit          3D

 42 44  0  0  0  0  0  0  0  0999 V2000
  140.8940   71.5230  227.7950 C   0  0  0  0  0  0  0  0  0  0  0  0
  141.0740   70.5360  226.8220 O   0  0  0  0  0  0  0  0  0  0  0  0
  140.2790   70.4770  225.6860 C   0  0  0  0  0  0  0  0  0  0  0  0
  139.4730   69.3560  225.4580 C   0  0  0  0  0  0  0  0  0  0  0  0
  138.6750   69.3000  224.3130 C   0  0  0  0  0  0  0  0  0  0  0  0
  138.6980   70.3730  223.4140 C   0  0  0  0  0  0  0  0  0  0  0  0
  139.5050   71.4620  223.6730 C   0  0  0  0  0  0  0  0  0  0  0  0
  139.5720   72.5890  222.7930 N   0  0  0  0  0  0  0  0  0  0  0  0
  140.6270   72.6060  221.8530 C   0  0  0  0  0  0  0  0  0  0  0  0
  141.4280   71.6110  221.8660 O   0  0  0  0  0  0  0  0  0  0  0  0
  140.8820   73.6600  220.8670 C   0  0  0  0  0  0  0  0  0  0  0  0
  141.0250   74.9850  221.3880 N   0  0  0  0  0  0  0  0  0  0  0  0
  139.9190   75.7630  221.8630 C   0  0  0  0  0  0  0  0  0  0  0  0
  138.7300   75.3120  221.8540 O   0  0  0  0  0  0  0  0  0  0  0  0
  140.1500   77.1290  222.3800 C   0  0  0  0  0  0  0  0  0  0  0  0
  139.1020   77.8840  222.8220 C   0  0  0  0  0  0  0  0  0  0  0  0
  139.3740   79.1680  223.3000 C   0  0  0  0  0  0  0  0  0  0  0  0
  140.6510   79.6820  223.3360 C   0  0  0  0  0  0  0  0  0  0  0  0
  140.9710   80.9280  223.7930 C   0  0  0  0  0  0  0  0  0  0  0  0
  142.2910   81.3810  223.8000 C   0  0  0  0  0  0  0  0  0  0  0  0
  142.5910   82.6380  224.2630 F   0  0  0  0  0  0  0  0  0  0  0  0
  143.3250   80.5620  223.3340 C   0  0  0  0  0  0  0  0  0  0  0  0
  142.9740   79.3020  222.8760 C   0  0  0  0  0  0  0  0  0  0  0  0
  141.6680   78.8750  222.8780 C   0  0  0  0  0  0  0  0  0  0  0  0
  141.3980   77.6420  222.4190 N   0  0  0  0  0  0  0  0  0  0  0  0
  140.3090   71.5400  224.8060 C   0  0  0  0  0  0  0  0  0  0  0  0
  140.9763   71.0716  228.7948 H   0  0  0  0  0  0  0  0  0  0  0  0
  141.6656   72.2982  227.6780 H   0  0  0  0  0  0  0  0  0  0  0  0
  139.8984   71.9760  227.6780 H   0  0  0  0  0  0  0  0  0  0  0  0
  139.4679   68.5233  226.1767 H   0  0  0  0  0  0  0  0  0  0  0  0
  138.0372   68.4248  224.1203 H   0  0  0  0  0  0  0  0  0  0  0  0
  138.0766   70.3481  222.5067 H   0  0  0  0  0  0  0  0  0  0  0  0
  138.8810   73.3670  222.8220 H   0  0  0  0  0  0  0  0  0  0  0  0
  141.8105   73.4056  220.3349 H   0  0  0  0  0  0  0  0  0  0  0  0
  139.9889   73.6884  220.2255 H   0  0  0  0  0  0  0  0  0  0  0  0
  141.9670   75.4750  221.4530 H   0  0  0  0  0  0  0  0  0  0  0  0
  138.0741   77.4929  222.8023 H   0  0  0  0  0  0  0  0  0  0  0  0
  138.5404   79.7892  223.6596 H   0  0  0  0  0  0  0  0  0  0  0  0
  140.1726   81.5880  224.1630 H   0  0  0  0  0  0  0  0  0  0  0  0
  144.3708   80.9032  223.3312 H   0  0  0  0  0  0  0  0  0  0  0  0
  143.7590   78.6282  222.5023 H   0  0  0  0  0  0  0  0  0  0  0  0
  140.9456   72.4172  224.9936 H   0  0  0  0  0  0  0  0  0  0  0  0
  1  2  1  0
  2  3  1  0
  3  4  2  0
  4  5  1  0
  5  6  2  0
  6  7  1  0
  7  8  1  0
  8  9  1  0
  9 10  2  0
  9 11  1  0
 11 12  1  0
 12 13  1  0
 13 14  2  0
 13 15  1  0
 15 16  2  0
 16 17  1  0
 17 18  2  0
 18 19  1  0
 19 20  2  0
 20 21  1  0
 20 22  1  0
 22 23  2  0
 23 24  1  0
 24 25  2  0
  7 26  2  0
 26  3  1  0
 25 15  1  0
 24 18  1  0
  1 27  1  0
  1 28  1  0
  1 29  1  0
  4 30  1  0
  5 31  1  0
  6 32  1  0
  8 33  1  0
 11 34  1  0
 11 35  1  0
 12 36  1  0
 16 37  1  0
 17 38  1  0
 19 39  1  0
 22 40  1  0
 23 41  1  0
 26 42  1  0
M  END
>  <smiles>  (19) 
COc1cccc(NC(=O)CNC(=O)c2ccc3cc(F)ccc3n2)c1

>  <score_type>  (19) 
oracle

>  <origin>  (19) 
autodockgpu

>  <m_score__min__energy>  (19) 
-8.5399999999999991

>  <m_primary>  (19) 
energy

>  <rmsd>  (19) 
10.684892034514938

>  <m_score__min__rmsd>  (19) 
10.684892034514938

>  <meeko>  (19) 
{"free_energy": -7.29, "intermolecular_energy": -8.78, "internal_energy": -1.9, "cluster_size": 13, "cluster_id": 2, "rank_in_cluster": 7}

>  <energy>  (19) 
-8.02

>  <cluster_rmsd>  (19) 
0.94

>  <cluster>  (19) 
1

$$$$

     RDKit          3D

 42 44  0  0  0  0  0  0  0  0999 V2000
  142.1300   80.3430  219.0580 C   0  0  0  0  0  0  0  0  0  0  0  0
  141.8380   80.8610  220.3230 O   0  0  0  0  0  0  0  0  0  0  0  0
  141.7110   80.0400  221.4360 C   0  0  0  0  0  0  0  0  0  0  0  0
  141.7420   80.5980  222.7180 C   0  0  0  0  0  0  0  0  0  0  0  0
  141.6140   79.7700  223.8360 C   0  0  0  0  0  0  0  0  0  0  0  0
  141.4570   78.3920  223.6460 C   0  0  0  0  0  0  0  0  0  0  0  0
  141.4310   77.8780  222.3660 C   0  0  0  0  0  0  0  0  0  0  0  0
  141.2720   76.4790  222.1070 N   0  0  0  0  0  0  0  0  0  0  0  0
  140.0470   76.0700  221.5350 C   0  0  0  0  0  0  0  0  0  0  0  0
  139.1880   76.9830  221.2920 O   0  0  0  0  0  0  0  0  0  0  0  0
  139.6760   74.6930  221.1940 C   0  0  0  0  0  0  0  0  0  0  0  0
  139.6180   73.7700  222.2860 N   0  0  0  0  0  0  0  0  0  0  0  0
  140.0810   72.4180  222.1950 C   0  0  0  0  0  0  0  0  0  0  0  0
  140.5840   71.9530  221.1220 O   0  0  0  0  0  0  0  0  0  0  0  0
  139.9790   71.5250  223.3680 C   0  0  0  0  0  0  0  0  0  0  0  0
  139.3660   70.3090  223.2580 C   0  0  0  0  0  0  0  0  0  0  0  0
  139.2960   69.5040  224.3970 C   0  0  0  0  0  0  0  0  0  0  0  0
  139.8210   69.8990  225.6080 C   0  0  0  0  0  0  0  0  0  0  0  0
  139.7790   69.1510  226.7490 C   0  0  0  0  0  0  0  0  0  0  0  0
  140.3340   69.6170  227.9420 C   0  0  0  0  0  0  0  0  0  0  0  0
  140.2810   68.8500  229.0790 F   0  0  0  0  0  0  0  0  0  0  0  0
  140.9500   70.8720  227.9950 C   0  0  0  0  0  0  0  0  0  0  0  0
  140.9790   71.6100  226.8230 C   0  0  0  0  0  0  0  0  0  0  0  0
  140.4270   71.1330  225.6580 C   0  0  0  0  0  0  0  0  0  0  0  0
  140.4900   71.9020  224.5600 N   0  0  0  0  0  0  0  0  0  0  0  0
  141.5560   78.6840  221.2380 C   0  0  0  0  0  0  0  0  0  0  0  0
  142.6675   79.3895  219.1674 H   0  0  0  0  0  0  0  0  0  0  0  0
  141.1938   80.1749  218.5056 H   0  0  0  0  0  0  0  0  0  0  0  0
  142.7585   81.0570  218.5056 H   0  0  0  0  0  0  0  0  0  0  0  0
  141.8666   81.6835  222.8455 H   0  0  0  0  0  0  0  0  0  0  0  0
  141.6363   80.1946  224.8505 H   0  0  0  0  0  0  0  0  0  0  0  0
  141.3549   77.7225  224.5128 H   0  0  0  0  0  0  0  0  0  0  0  0
  142.0150   75.7800  222.3160 H   0  0  0  0  0  0  0  0  0  0  0  0
  138.6826   74.7191  220.7224 H   0  0  0  0  0  0  0  0  0  0  0  0
  140.4771   74.3243  220.5364 H   0  0  0  0  0  0  0  0  0  0  0  0
  139.2240   74.0360  223.2370 H   0  0  0  0  0  0  0  0  0  0  0  0
  138.9402   69.9740  222.3007 H   0  0  0  0  0  0  0  0  0  0  0  0
  138.8055   68.5221  224.3249 H   0  0  0  0  0  0  0  0  0  0  0  0
  139.2985   68.1617  226.7279 H   0  0  0  0  0  0  0  0  0  0  0  0
  141.3919   71.2559  228.9263 H   0  0  0  0  0  0  0  0  0  0  0  0
  141.4552   72.6016  226.8247 H   0  0  0  0  0  0  0  0  0  0  0  0
  141.5320   78.2549  220.2254 H   0  0  0  0  0  0  0  0  0  0  0  0
  1  2  1  0
  2  3  1  0
  3  4  2  0
  4  5  1  0
  5  6  2  0
  6  7  1  0
  7  8  1  0
  8  9  1  0
  9 10  2  0
  9 11  1  0
 11 12  1  0
 12 13  1  0
 13 14  2  0
 13 15  1  0
 15 16  2  0
 16 17  1  0
 17 18  2  0
 18 19  1  0
 19 20  2  0
 20 21  1  0
 20 22  1  0
 22 23  2  0
 23 24  1  0
 24 25  2  0
  7 26  2  0
 26  3  1  0
 25 15  1  0
 24 18  1  0
  1 27  1  0
  1 28  1  0
  1 29  1  0
  4 30  1  0
  5 31  1  0
  6 32  1  0
  8 33  1  0
 11 34  1  0
 11 35  1  0
 12 36  1  0
 16 37  1  0
 17 38  1  0
 19 39  1  0
 22 40  1  0
 23 41  1  0
 26 42  1  0
M  END
>  <smiles>  (20) 
COc1cccc(NC(=O)CNC(=O)c2ccc3cc(F)ccc3n2)c1

>  <score_type>  (20) 
oracle

>  <origin>  (20) 
autodockgpu

>  <m_score__min__energy>  (20) 
-8.5399999999999991

>  <m_primary>  (20) 
energy

>  <rmsd>  (20) 
4.1812878987354445

>  <m_score__min__rmsd>  (20) 
4.1812878987354445

>  <meeko>  (20) 
{"free_energy": -8.24, "intermolecular_energy": -9.73, "internal_energy": -0.9, "cluster_size": 36, "cluster_id": 1, "rank_in_cluster": 16}

>  <energy>  (20) 
-7.65

>  <cluster_rmsd>  (20) 
0.61

>  <cluster>  (20) 
1

$$$$

     RDKit          3D

 42 44  0  0  0  0  0  0  0  0999 V2000
  141.0540   71.7650  227.8870 C   0  0  0  0  0  0  0  0  0  0  0  0
  141.1050   70.5780  227.1510 O   0  0  0  0  0  0  0  0  0  0  0  0
  140.4640   70.4490  225.9260 C   0  0  0  0  0  0  0  0  0  0  0  0
  139.8320   69.2460  225.5950 C   0  0  0  0  0  0  0  0  0  0  0  0
  139.1890   69.1200  224.3610 C   0  0  0  0  0  0  0  0  0  0  0  0
  139.1920   70.2070  223.4790 C   0  0  0  0  0  0  0  0  0  0  0  0
  139.8260   71.3770  223.8410 C   0  0  0  0  0  0  0  0  0  0  0  0
  139.8630   72.5230  222.9830 N   0  0  0  0  0  0  0  0  0  0  0  0
  140.7260   72.4580  221.8660 C   0  0  0  0  0  0  0  0  0  0  0  0
  141.3950   71.3810  221.7140 O   0  0  0  0  0  0  0  0  0  0  0  0
  140.9190   73.5140  220.8670 C   0  0  0  0  0  0  0  0  0  0  0  0
  141.0520   74.8440  221.3790 N   0  0  0  0  0  0  0  0  0  0  0  0
  139.9520   75.5940  221.9090 C   0  0  0  0  0  0  0  0  0  0  0  0
  138.7770   75.1110  221.9610 O   0  0  0  0  0  0  0  0  0  0  0  0
  140.1730   76.9660  222.4110 C   0  0  0  0  0  0  0  0  0  0  0  0
  139.1140   77.7360  222.8000 C   0  0  0  0  0  0  0  0  0  0  0  0
  139.3760   79.0250  223.2670 C   0  0  0  0  0  0  0  0  0  0  0  0
  140.6550   79.5310  223.3440 C   0  0  0  0  0  0  0  0  0  0  0  0
  140.9660   80.7830  223.7920 C   0  0  0  0  0  0  0  0  0  0  0  0
  142.2880   81.2280  223.8430 C   0  0  0  0  0  0  0  0  0  0  0  0
  142.5790   82.4900  224.2960 F   0  0  0  0  0  0  0  0  0  0  0  0
  143.3330   80.3940  223.4310 C   0  0  0  0  0  0  0  0  0  0  0  0
  142.9910   79.1290  222.9800 C   0  0  0  0  0  0  0  0  0  0  0  0
  141.6820   78.7100  222.9390 C   0  0  0  0  0  0  0  0  0  0  0  0
  141.4220   77.4720  222.4900 N   0  0  0  0  0  0  0  0  0  0  0  0
  140.4730   71.5260  225.0640 C   0  0  0  0  0  0  0  0  0  0  0  0
  141.0641   71.5308  228.9617 H   0  0  0  0  0  0  0  0  0  0  0  0
  141.9262   72.3878  227.6393 H   0  0  0  0  0  0  0  0  0  0  0  0
  140.1316   72.3107  227.6393 H   0  0  0  0  0  0  0  0  0  0  0  0
  139.8411   68.4037  226.3024 H   0  0  0  0  0  0  0  0  0  0  0  0
  138.6876   68.1802  224.0865 H   0  0  0  0  0  0  0  0  0  0  0  0
  138.6915   70.1284  222.5026 H   0  0  0  0  0  0  0  0  0  0  0  0
  139.2840   73.3710  223.1510 H   0  0  0  0  0  0  0  0  0  0  0  0
  141.8318   73.2785  220.3001 H   0  0  0  0  0  0  0  0  0  0  0  0
  140.0017   73.5198  220.2599 H   0  0  0  0  0  0  0  0  0  0  0  0
  141.9830   75.3580  221.3950 H   0  0  0  0  0  0  0  0  0  0  0  0
  138.0848   77.3515  222.7468 H   0  0  0  0  0  0  0  0  0  0  0  0
  138.5337   79.6575  223.5839 H   0  0  0  0  0  0  0  0  0  0  0  0
  140.1584   81.4543  224.1193 H   0  0  0  0  0  0  0  0  0  0  0  0
  144.3806   80.7278  223.4636 H   0  0  0  0  0  0  0  0  0  0  0  0
  143.7850   78.4443  222.6471 H   0  0  0  0  0  0  0  0  0  0  0  0
  140.9732   72.4679  225.3335 H   0  0  0  0  0  0  0  0  0  0  0  0
  1  2  1  0
  2  3  1  0
  3  4  2  0
  4  5  1  0
  5  6  2  0
  6  7  1  0
  7  8  1  0
  8  9  1  0
  9 10  2  0
  9 11  1  0
 11 12  1  0
 12 13  1  0
 13 14  2  0
 13 15  1  0
 15 16  2  0
 16 17  1  0
 17 18  2  0
 18 19  1  0
 19 20  2  0
 20 21  1  0
 20 22  1  0
 22 23  2  0
 23 24  1  0
 24 25  2  0
  7 26  2  0
 26  3  1  0
 25 15  1  0
 24 18  1  0
  1 27  1  0
  1 28  1  0
  1 29  1  0
  4 30  1  0
  5 31  1  0
  6 32  1  0
  8 33  1  0
 11 34  1  0
 11 35  1  0
 12 36  1  0
 16 37  1  0
 17 38  1  0
 19 39  1  0
 22 40  1  0
 23 41  1  0
 26 42  1  0
M  END
>  <smiles>  (21) 
COc1cccc(NC(=O)CNC(=O)c2ccc3cc(F)ccc3n2)c1

>  <score_type>  (21) 
oracle

>  <origin>  (21) 
autodockgpu

>  <m_score__min__energy>  (21) 
-8.5399999999999991

>  <m_primary>  (21) 
energy

>  <rmsd>  (21) 
10.653748909196558

>  <m_score__min__rmsd>  (21) 
10.653748909196558

>  <meeko>  (21) 
{"free_energy": -7.32, "intermolecular_energy": -8.81, "internal_energy": -1.89, "cluster_size": 13, "cluster_id": 2, "rank_in_cluster": 3}

>  <energy>  (21) 
-7.6

>  <cluster_rmsd>  (21) 
1.71

>  <cluster>  (21) 
1

$$$$

     RDKit          3D

 42 44  0  0  0  0  0  0  0  0999 V2000
  141.5130   81.2080  219.3350 C   0  0  0  0  0  0  0  0  0  0  0  0
  141.3600   81.4530  220.7020 O   0  0  0  0  0  0  0  0  0  0  0  0
  141.4400   80.4330  221.6410 C   0  0  0  0  0  0  0  0  0  0  0  0
  141.5800   80.7460  222.9970 C   0  0  0  0  0  0  0  0  0  0  0  0
  141.6610   79.7170  223.9390 C   0  0  0  0  0  0  0  0  0  0  0  0
  141.6010   78.3890  223.5020 C   0  0  0  0  0  0  0  0  0  0  0  0
  141.4620   78.1200  222.1550 C   0  0  0  0  0  0  0  0  0  0  0  0
  141.3930   76.7830  221.6470 N   0  0  0  0  0  0  0  0  0  0  0  0
  140.1490   76.1220  221.7530 C   0  0  0  0  0  0  0  0  0  0  0  0
  139.1920   76.7750  222.2890 O   0  0  0  0  0  0  0  0  0  0  0  0
  139.8610   74.7570  221.3020 C   0  0  0  0  0  0  0  0  0  0  0  0
  139.6950   73.7780  222.3320 N   0  0  0  0  0  0  0  0  0  0  0  0
  140.4960   72.5940  222.4240 C   0  0  0  0  0  0  0  0  0  0  0  0
  141.4200   72.3440  221.5870 O   0  0  0  0  0  0  0  0  0  0  0  0
  140.2550   71.6270  223.5160 C   0  0  0  0  0  0  0  0  0  0  0  0
  139.5540   70.4790  223.2780 C   0  0  0  0  0  0  0  0  0  0  0  0
  139.3540   69.5990  224.3440 C   0  0  0  0  0  0  0  0  0  0  0  0
  139.8380   69.8560  225.6080 C   0  0  0  0  0  0  0  0  0  0  0  0
  139.6710   69.0310  226.6820 C   0  0  0  0  0  0  0  0  0  0  0  0
  140.1920   69.3560  227.9350 C   0  0  0  0  0  0  0  0  0  0  0  0
  140.0120   68.5130  229.0030 F   0  0  0  0  0  0  0  0  0  0  0  0
  140.9030   70.5470  228.1200 C   0  0  0  0  0  0  0  0  0  0  0  0
  141.0580   71.3670  227.0140 C   0  0  0  0  0  0  0  0  0  0  0  0
  140.5380   71.0270  225.7880 C   0  0  0  0  0  0  0  0  0  0  0  0
  140.7250   71.8690  224.7590 N   0  0  0  0  0  0  0  0  0  0  0  0
  141.3790   79.1280  221.1990 C   0  0  0  0  0  0  0  0  0  0  0  0
  142.0906   80.2831  219.1907 H   0  0  0  0  0  0  0  0  0  0  0  0
  140.5226   81.0983  218.8691 H   0  0  0  0  0  0  0  0  0  0  0  0
  142.0462   82.0498  218.8691 H   0  0  0  0  0  0  0  0  0  0  0  0
  141.6261   81.7965  223.3202 H   0  0  0  0  0  0  0  0  0  0  0  0
  141.7704   79.9477  225.0090 H   0  0  0  0  0  0  0  0  0  0  0  0
  141.6642   77.5644  224.2273 H   0  0  0  0  0  0  0  0  0  0  0  0
  142.2080   76.3050  221.2080 H   0  0  0  0  0  0  0  0  0  0  0  0
  138.9327   74.7861  220.7126 H   0  0  0  0  0  0  0  0  0  0  0  0
  140.7466   74.4401  220.7316 H   0  0  0  0  0  0  0  0  0  0  0  0
  138.9600   73.8720  223.0950 H   0  0  0  0  0  0  0  0  0  0  0  0
  139.1587   70.2543  222.2764 H   0  0  0  0  0  0  0  0  0  0  0  0
  138.7915   68.6701  224.1685 H   0  0  0  0  0  0  0  0  0  0  0  0
  139.1143   68.0905  226.5575 H   0  0  0  0  0  0  0  0  0  0  0  0
  141.3205   70.8202  229.1004 H   0  0  0  0  0  0  0  0  0  0  0  0
  141.6103   72.3124  227.1196 H   0  0  0  0  0  0  0  0  0  0  0  0
  141.2688   78.8925  220.1302 H   0  0  0  0  0  0  0  0  0  0  0  0
  1  2  1  0
  2  3  1  0
  3  4  2  0
  4  5  1  0
  5  6  2  0
  6  7  1  0
  7  8  1  0
  8  9  1  0
  9 10  2  0
  9 11  1  0
 11 12  1  0
 12 13  1  0
 13 14  2  0
 13 15  1  0
 15 16  2  0
 16 17  1  0
 17 18  2  0
 18 19  1  0
 19 20  2  0
 20 21  1  0
 20 22  1  0
 22 23  2  0
 23 24  1  0
 24 25  2  0
  7 26  2  0
 26  3  1  0
 25 15  1  0
 24 18  1  0
  1 27  1  0
  1 28  1  0
  1 29  1  0
  4 30  1  0
  5 31  1  0
  6 32  1  0
  8 33  1  0
 11 34  1  0
 11 35  1  0
 12 36  1  0
 16 37  1  0
 17 38  1  0
 19 39  1  0
 22 40  1  0
 23 41  1  0
 26 42  1  0
M  END
>  <smiles>  (22) 
COc1cccc(NC(=O)CNC(=O)c2ccc3cc(F)ccc3n2)c1

>  <score_type>  (22) 
oracle

>  <origin>  (22) 
autodockgpu

>  <m_score__min__energy>  (22) 
-8.5399999999999991

>  <m_primary>  (22) 
energy

>  <rmsd>  (22) 
3.969711073662755

>  <m_score__min__rmsd>  (22) 
3.969711073662755

>  <meeko>  (22) 
{"free_energy": -8.51, "intermolecular_energy": -10.0, "internal_energy": -0.88, "cluster_size": 36, "cluster_id": 1, "rank_in_cluster": 5}

>  <energy>  (22) 
-7.6

>  <cluster_rmsd>  (22) 
1.69

>  <cluster>  (22) 
1

$$$$

     RDKit          3D

 42 44  0  0  0  0  0  0  0  0999 V2000
  142.1760   80.3290  218.9400 C   0  0  0  0  0  0  0  0  0  0  0  0
  142.0380   80.8610  220.2240 O   0  0  0  0  0  0  0  0  0  0  0  0
  141.8430   80.0490  221.3340 C   0  0  0  0  0  0  0  0  0  0  0  0
  142.4540   80.3730  222.5490 C   0  0  0  0  0  0  0  0  0  0  0  0
  142.2550   79.5540  223.6630 C   0  0  0  0  0  0  0  0  0  0  0  0
  141.4440   78.4200  223.5380 C   0  0  0  0  0  0  0  0  0  0  0  0
  140.8580   78.1330  222.3220 C   0  0  0  0  0  0  0  0  0  0  0  0
  140.0170   76.9900  222.1310 N   0  0  0  0  0  0  0  0  0  0  0  0
  140.5740   75.8970  221.4290 C   0  0  0  0  0  0  0  0  0  0  0  0
  141.7810   76.0210  221.0310 O   0  0  0  0  0  0  0  0  0  0  0  0
  139.8910   74.6370  221.1210 C   0  0  0  0  0  0  0  0  0  0  0  0
  139.7550   73.7150  222.2070 N   0  0  0  0  0  0  0  0  0  0  0  0
  140.4090   72.4410  222.2400 C   0  0  0  0  0  0  0  0  0  0  0  0
  141.1650   72.0520  221.2940 O   0  0  0  0  0  0  0  0  0  0  0  0
  140.2100   71.5420  223.3970 C   0  0  0  0  0  0  0  0  0  0  0  0
  139.5720   70.3460  223.2390 C   0  0  0  0  0  0  0  0  0  0  0  0
  139.4100   69.5340  224.3630 C   0  0  0  0  0  0  0  0  0  0  0  0
  139.8700   69.9050  225.6070 C   0  0  0  0  0  0  0  0  0  0  0  0
  139.7380   69.1500  226.7370 C   0  0  0  0  0  0  0  0  0  0  0  0
  140.2320   69.5910  227.9660 C   0  0  0  0  0  0  0  0  0  0  0  0
  140.0890   68.8170  229.0900 F   0  0  0  0  0  0  0  0  0  0  0  0
  140.8790   70.8270  228.0680 C   0  0  0  0  0  0  0  0  0  0  0  0
  141.0000   71.5730  226.9070 C   0  0  0  0  0  0  0  0  0  0  0  0
  140.5070   71.1210  225.7060 C   0  0  0  0  0  0  0  0  0  0  0  0
  140.6580   71.8960  224.6210 N   0  0  0  0  0  0  0  0  0  0  0  0
  141.0410   78.9350  221.1990 C   0  0  0  0  0  0  0  0  0  0  0  0
  142.4516   79.2665  219.0110 H   0  0  0  0  0  0  0  0  0  0  0  0
  141.2232   80.4253  218.3989 H   0  0  0  0  0  0  0  0  0  0  0  0
  142.9619   80.8763  218.3989 H   0  0  0  0  0  0  0  0  0  0  0  0
  143.0882   81.2683  222.6274 H   0  0  0  0  0  0  0  0  0  0  0  0
  142.7292   79.7969  224.6254 H   0  0  0  0  0  0  0  0  0  0  0  0
  141.2749   77.7621  224.4032 H   0  0  0  0  0  0  0  0  0  0  0  0
  139.0410   76.9420  222.4900 H   0  0  0  0  0  0  0  0  0  0  0  0
  138.8816   74.8813  220.7586 H   0  0  0  0  0  0  0  0  0  0  0  0
  140.5253   74.1297  220.3792 H   0  0  0  0  0  0  0  0  0  0  0  0
  139.1550   73.9230  223.0600 H   0  0  0  0  0  0  0  0  0  0  0  0
  139.1962   70.0309  222.2544 H   0  0  0  0  0  0  0  0  0  0  0  0
  138.8984   68.5666  224.2515 H   0  0  0  0  0  0  0  0  0  0  0  0
  139.2324   68.1749  226.6778 H   0  0  0  0  0  0  0  0  0  0  0  0
  141.2743   71.1906  229.0279 H   0  0  0  0  0  0  0  0  0  0  0  0
  141.5027   72.5506  226.9471 H   0  0  0  0  0  0  0  0  0  0  0  0
  140.5634   78.6893  220.2390 H   0  0  0  0  0  0  0  0  0  0  0  0
  1  2  1  0
  2  3  1  0
  3  4  2  0
  4  5  1  0
  5  6  2  0
  6  7  1  0
  7  8  1  0
  8  9  1  0
  9 10  2  0
  9 11  1  0
 11 12  1  0
 12 13  1  0
 13 14  2  0
 13 15  1  0
 15 16  2  0
 16 17  1  0
 17 18  2  0
 18 19  1  0
 19 20  2  0
 20 21  1  0
 20 22  1  0
 22 23  2  0
 23 24  1  0
 24 25  2  0
  7 26  2  0
 26  3  1  0
 25 15  1  0
 24 18  1  0
  1 27  1  0
  1 28  1  0
  1 29  1  0
  4 30  1  0
  5 31  1  0
  6 32  1  0
  8 33  1  0
 11 34  1  0
 11 35  1  0
 12 36  1  0
 16 37  1  0
 17 38  1  0
 19 39  1  0
 22 40  1  0
 23 41  1  0
 26 42  1  0
M  END
>  <smiles>  (23) 
COc1cccc(NC(=O)CNC(=O)c2ccc3cc(F)ccc3n2)c1

>  <score_type>  (23) 
oracle

>  <origin>  (23) 
autodockgpu

>  <m_score__min__energy>  (23) 
-8.5399999999999991

>  <m_primary>  (23) 
energy

>  <rmsd>  (23) 
4.213153134985972

>  <m_score__min__rmsd>  (23) 
4.213153134985972

>  <meeko>  (23) 
{"free_energy": -8.02, "intermolecular_energy": -9.51, "internal_energy": -0.87, "cluster_size": 36, "cluster_id": 1, "rank_in_cluster": 19}

>  <energy>  (23) 
-7.6

>  <cluster_rmsd>  (23) 
1.71

>  <cluster>  (23) 
1

$$$$

     RDKit          3D

 42 44  0  0  0  0  0  0  0  0999 V2000
  141.0050   71.7490  227.9420 C   0  0  0  0  0  0  0  0  0  0  0  0
  141.2030   70.6280  227.1300 O   0  0  0  0  0  0  0  0  0  0  0  0
  140.5350   70.4750  225.9220 C   0  0  0  0  0  0  0  0  0  0  0  0
  139.9310   69.2510  225.6130 C   0  0  0  0  0  0  0  0  0  0  0  0
  139.2610   69.1000  224.3960 C   0  0  0  0  0  0  0  0  0  0  0  0
  139.2080   70.1810  223.5100 C   0  0  0  0  0  0  0  0  0  0  0  0
  139.8150   71.3730  223.8500 C   0  0  0  0  0  0  0  0  0  0  0  0
  139.7950   72.5140  222.9870 N   0  0  0  0  0  0  0  0  0  0  0  0
  140.6280   72.4690  221.8460 C   0  0  0  0  0  0  0  0  0  0  0  0
  141.3240   71.4110  221.6810 O   0  0  0  0  0  0  0  0  0  0  0  0
  140.7620   73.5250  220.8390 C   0  0  0  0  0  0  0  0  0  0  0  0
  140.9120   74.8560  221.3420 N   0  0  0  0  0  0  0  0  0  0  0  0
  139.8340   75.6010  221.9200 C   0  0  0  0  0  0  0  0  0  0  0  0
  138.6640   75.1120  222.0270 O   0  0  0  0  0  0  0  0  0  0  0  0
  140.0700   76.9760  222.4100 C   0  0  0  0  0  0  0  0  0  0  0  0
  139.0180   77.7680  222.7730 C   0  0  0  0  0  0  0  0  0  0  0  0
  139.2950   79.0590  223.2290 C   0  0  0  0  0  0  0  0  0  0  0  0
  140.5810   79.5440  223.3200 C   0  0  0  0  0  0  0  0  0  0  0  0
  140.9060   80.7950  223.7590 C   0  0  0  0  0  0  0  0  0  0  0  0
  142.2350   81.2180  223.8260 C   0  0  0  0  0  0  0  0  0  0  0  0
  142.5400   82.4800  224.2690 F   0  0  0  0  0  0  0  0  0  0  0  0
  143.2720   80.3620  223.4410 C   0  0  0  0  0  0  0  0  0  0  0  0
  142.9150   79.0970  223.0000 C   0  0  0  0  0  0  0  0  0  0  0  0
  141.6010   78.7000  222.9420 C   0  0  0  0  0  0  0  0  0  0  0  0
  141.3260   77.4610  222.5040 N   0  0  0  0  0  0  0  0  0  0  0  0
  140.4890   71.5470  225.0560 C   0  0  0  0  0  0  0  0  0  0  0  0
  141.0578   71.4499  228.9992 H   0  0  0  0  0  0  0  0  0  0  0  0
  141.7852   72.4957  227.7328 H   0  0  0  0  0  0  0  0  0  0  0  0
  140.0163   72.1833  227.7328 H   0  0  0  0  0  0  0  0  0  0  0  0
  139.9833   68.4130  226.3237 H   0  0  0  0  0  0  0  0  0  0  0  0
  138.7818   68.1440  224.1383 H   0  0  0  0  0  0  0  0  0  0  0  0
  138.6853   70.0817  222.5473 H   0  0  0  0  0  0  0  0  0  0  0  0
  139.1960   73.3460  223.1680 H   0  0  0  0  0  0  0  0  0  0  0  0
  141.6460   73.2953  220.2260 H   0  0  0  0  0  0  0  0  0  0  0  0
  139.8143   73.5241  220.2805 H   0  0  0  0  0  0  0  0  0  0  0  0
  141.8400   75.3760  221.3140 H   0  0  0  0  0  0  0  0  0  0  0  0
  137.9834   77.4001  222.7082 H   0  0  0  0  0  0  0  0  0  0  0  0
  138.4588   79.7095  223.5251 H   0  0  0  0  0  0  0  0  0  0  0  0
  140.1050   81.4835  224.0661 H   0  0  0  0  0  0  0  0  0  0  0  0
  144.3245   80.6785  223.4861 H   0  0  0  0  0  0  0  0  0  0  0  0
  143.7024   78.3946  222.6892 H   0  0  0  0  0  0  0  0  0  0  0  0
  140.9673   72.5048  225.3086 H   0  0  0  0  0  0  0  0  0  0  0  0
  1  2  1  0
  2  3  1  0
  3  4  2  0
  4  5  1  0
  5  6  2  0
  6  7  1  0
  7  8  1  0
  8  9  1  0
  9 10  2  0
  9 11  1  0
 11 12  1  0
 12 13  1  0
 13 14  2  0
 13 15  1  0
 15 16  2  0
 16 17  1  0
 17 18  2  0
 18 19  1  0
 19 20  2  0
 20 21  1  0
 20 22  1  0
 22 23  2  0
 23 24  1  0
 24 25  2  0
  7 26  2  0
 26  3  1  0
 25 15  1  0
 24 18  1  0
  1 27  1  0
  1 28  1  0
  1 29  1  0
  4 30  1  0
  5 31  1  0
  6 32  1  0
  8 33  1  0
 11 34  1  0
 11 35  1  0
 12 36  1  0
 16 37  1  0
 17 38  1  0
 19 39  1  0
 22 40  1  0
 23 41  1  0
 26 42  1  0
M  END
>  <smiles>  (24) 
COc1cccc(NC(=O)CNC(=O)c2ccc3cc(F)ccc3n2)c1

>  <score_type>  (24) 
oracle

>  <origin>  (24) 
autodockgpu

>  <m_score__min__energy>  (24) 
-8.5399999999999991

>  <m_primary>  (24) 
energy

>  <rmsd>  (24) 
10.660769735068966

>  <m_score__min__rmsd>  (24) 
10.660769735068966

>  <meeko>  (24) 
{"free_energy": -7.3, "intermolecular_energy": -8.79, "internal_energy": -1.88, "cluster_size": 13, "cluster_id": 2, "rank_in_cluster": 6}

>  <energy>  (24) 
-7.6

>  <cluster_rmsd>  (24) 
1.67

>  <cluster>  (24) 
1

$$$$

     RDKit          3D

 42 44  0  0  0  0  0  0  0  0999 V2000
  141.0460   71.8660  227.8010 C   0  0  0  0  0  0  0  0  0  0  0  0
  140.8140   70.6200  227.2110 O   0  0  0  0  0  0  0  0  0  0  0  0
  140.2010   70.5020  225.9720 C   0  0  0  0  0  0  0  0  0  0  0  0
  139.5360   69.3180  225.6350 C   0  0  0  0  0  0  0  0  0  0  0  0
  138.9200   69.2020  224.3860 C   0  0  0  0  0  0  0  0  0  0  0  0
  138.9820   70.2790  223.4950 C   0  0  0  0  0  0  0  0  0  0  0  0
  139.6470   71.4310  223.8620 C   0  0  0  0  0  0  0  0  0  0  0  0
  139.7440   72.5660  222.9960 N   0  0  0  0  0  0  0  0  0  0  0  0
  140.7030   72.5000  221.9600 C   0  0  0  0  0  0  0  0  0  0  0  0
  141.3970   71.4310  221.8830 O   0  0  0  0  0  0  0  0  0  0  0  0
  140.9690   73.5460  220.9680 C   0  0  0  0  0  0  0  0  0  0  0  0
  141.0890   74.8780  221.4780 N   0  0  0  0  0  0  0  0  0  0  0  0
  139.9690   75.6470  221.9330 C   0  0  0  0  0  0  0  0  0  0  0  0
  138.7860   75.1810  221.9140 O   0  0  0  0  0  0  0  0  0  0  0  0
  140.1780   77.0200  222.4390 C   0  0  0  0  0  0  0  0  0  0  0  0
  139.1130   77.7740  222.8420 C   0  0  0  0  0  0  0  0  0  0  0  0
  139.3630   79.0650  223.3120 C   0  0  0  0  0  0  0  0  0  0  0  0
  140.6370   79.5870  223.3780 C   0  0  0  0  0  0  0  0  0  0  0  0
  140.9360   80.8400  223.8280 C   0  0  0  0  0  0  0  0  0  0  0  0
  142.2530   81.3020  223.8680 C   0  0  0  0  0  0  0  0  0  0  0  0
  142.5330   82.5660  224.3250 F   0  0  0  0  0  0  0  0  0  0  0  0
  143.3050   80.4830  223.4430 C   0  0  0  0  0  0  0  0  0  0  0  0
  142.9740   79.2160  222.9900 C   0  0  0  0  0  0  0  0  0  0  0  0
  141.6700   78.7800  222.9590 C   0  0  0  0  0  0  0  0  0  0  0  0
  141.4210   77.5410  222.5080 N   0  0  0  0  0  0  0  0  0  0  0  0
  140.2680   71.5690  225.1010 C   0  0  0  0  0  0  0  0  0  0  0  0
  141.0267   71.7625  228.8959 H   0  0  0  0  0  0  0  0  0  0  0  0
  142.0299   72.2435  227.4856 H   0  0  0  0  0  0  0  0  0  0  0  0
  140.2639   72.5724  227.4856 H   0  0  0  0  0  0  0  0  0  0  0  0
  139.4982   68.4826  226.3496 H   0  0  0  0  0  0  0  0  0  0  0  0
  138.3938   68.2771  224.1073 H   0  0  0  0  0  0  0  0  0  0  0  0
  138.5032   70.2078  222.5072 H   0  0  0  0  0  0  0  0  0  0  0  0
  139.1410   73.4080  223.1010 H   0  0  0  0  0  0  0  0  0  0  0  0
  141.9107   73.2947  220.4581 H   0  0  0  0  0  0  0  0  0  0  0  0
  140.0894   73.5592  220.3076 H   0  0  0  0  0  0  0  0  0  0  0  0
  142.0250   75.3790  221.5500 H   0  0  0  0  0  0  0  0  0  0  0  0
  138.0885   77.3761  222.7977 H   0  0  0  0  0  0  0  0  0  0  0  0
  138.5159   79.6853  223.6401 H   0  0  0  0  0  0  0  0  0  0  0  0
  140.1231   81.4994  224.1661 H   0  0  0  0  0  0  0  0  0  0  0  0
  144.3486   80.8297  223.4674 H   0  0  0  0  0  0  0  0  0  0  0  0
  143.7734   78.5428  222.6470 H   0  0  0  0  0  0  0  0  0  0  0  0
  140.7931   72.4959  225.3750 H   0  0  0  0  0  0  0  0  0  0  0  0
  1  2  1  0
  2  3  1  0
  3  4  2  0
  4  5  1  0
  5  6  2  0
  6  7  1  0
  7  8  1  0
  8  9  1  0
  9 10  2  0
  9 11  1  0
 11 12  1  0
 12 13  1  0
 13 14  2  0
 13 15  1  0
 15 16  2  0
 16 17  1  0
 17 18  2  0
 18 19  1  0
 19 20  2  0
 20 21  1  0
 20 22  1  0
 22 23  2  0
 23 24  1  0
 24 25  2  0
  7 26  2  0
 26  3  1  0
 25 15  1  0
 24 18  1  0
  1 27  1  0
  1 28  1  0
  1 29  1  0
  4 30  1  0
  5 31  1  0
  6 32  1  0
  8 33  1  0
 11 34  1  0
 11 35  1  0
 12 36  1  0
 16 37  1  0
 17 38  1  0
 19 39  1  0
 22 40  1  0
 23 41  1  0
 26 42  1  0
M  END
>  <smiles>  (25) 
COc1cccc(NC(=O)CNC(=O)c2ccc3cc(F)ccc3n2)c1

>  <score_type>  (25) 
oracle

>  <origin>  (25) 
autodockgpu

>  <m_score__min__energy>  (25) 
-8.5399999999999991

>  <m_primary>  (25) 
energy

>  <rmsd>  (25) 
10.629762887562283

>  <m_score__min__rmsd>  (25) 
10.629762887562283

>  <meeko>  (25) 
{"free_energy": -7.32, "intermolecular_energy": -8.81, "internal_energy": -1.91, "cluster_size": 13, "cluster_id": 2, "rank_in_cluster": 4}

>  <energy>  (25) 
-7.59

>  <cluster_rmsd>  (25) 
1.73

>  <cluster>  (25) 
1

$$$$

     RDKit          3D

 42 44  0  0  0  0  0  0  0  0999 V2000
  143.0200   80.4070  222.9730 C   0  0  0  0  0  0  0  0  0  0  0  0
  142.2120   79.6180  223.7970 O   0  0  0  0  0  0  0  0  0  0  0  0
  141.0620   79.0040  223.3200 C   0  0  0  0  0  0  0  0  0  0  0  0
  139.9080   79.7640  223.0990 C   0  0  0  0  0  0  0  0  0  0  0  0
  138.7520   79.1430  222.6200 C   0  0  0  0  0  0  0  0  0  0  0  0
  138.7740   77.7660  222.3700 C   0  0  0  0  0  0  0  0  0  0  0  0
  139.9310   77.0500  222.5990 C   0  0  0  0  0  0  0  0  0  0  0  0
  140.0160   75.6400  222.3620 N   0  0  0  0  0  0  0  0  0  0  0  0
  140.8890   75.2170  221.3340 C   0  0  0  0  0  0  0  0  0  0  0  0
  141.5300   76.1270  220.7080 O   0  0  0  0  0  0  0  0  0  0  0  0
  141.1230   73.8290  220.9250 C   0  0  0  0  0  0  0  0  0  0  0  0
  141.0770   72.8510  221.9680 N   0  0  0  0  0  0  0  0  0  0  0  0
  139.8700   72.4860  222.6480 C   0  0  0  0  0  0  0  0  0  0  0  0
  138.7500   73.0130  222.3530 O   0  0  0  0  0  0  0  0  0  0  0  0
  139.9090   71.4700  223.7210 C   0  0  0  0  0  0  0  0  0  0  0  0
  139.4320   70.2110  223.4960 C   0  0  0  0  0  0  0  0  0  0  0  0
  139.4920   69.2890  224.5440 C   0  0  0  0  0  0  0  0  0  0  0  0
  140.0110   69.6140  225.7780 C   0  0  0  0  0  0  0  0  0  0  0  0
  140.0930   68.7530  226.8330 C   0  0  0  0  0  0  0  0  0  0  0  0
  140.6340   69.1530  228.0560 C   0  0  0  0  0  0  0  0  0  0  0  0
  140.7070   68.2720  229.1050 F   0  0  0  0  0  0  0  0  0  0  0  0
  141.1090   70.4580  228.2290 C   0  0  0  0  0  0  0  0  0  0  0  0
  141.0140   71.3130  227.1420 C   0  0  0  0  0  0  0  0  0  0  0  0
  140.4780   70.8980  225.9460 C   0  0  0  0  0  0  0  0  0  0  0  0
  140.4160   71.7790  224.9340 N   0  0  0  0  0  0  0  0  0  0  0  0
  141.0940   77.6470  223.0770 C   0  0  0  0  0  0  0  0  0  0  0  0
  143.6693   81.0410  223.5947 H   0  0  0  0  0  0  0  0  0  0  0  0
  143.6407   79.7578  222.3380 H   0  0  0  0  0  0  0  0  0  0  0  0
  142.3858   81.0430  222.3380 H   0  0  0  0  0  0  0  0  0  0  0  0
  139.9111   80.8452  223.3015 H   0  0  0  0  0  0  0  0  0  0  0  0
  137.8375   79.7278  222.4418 H   0  0  0  0  0  0  0  0  0  0  0  0
  137.8742   77.2577  221.9932 H   0  0  0  0  0  0  0  0  0  0  0  0
  139.4760   74.9420  222.9140 H   0  0  0  0  0  0  0  0  0  0  0  0
  140.3573   73.5638  220.1812 H   0  0  0  0  0  0  0  0  0  0  0  0
  142.1531   73.8033  220.5400 H   0  0  0  0  0  0  0  0  0  0  0  0
  141.9440   72.3340  222.3050 H   0  0  0  0  0  0  0  0  0  0  0  0
  139.0128   69.9306  222.5184 H   0  0  0  0  0  0  0  0  0  0  0  0
  139.1123   68.2700  224.3783 H   0  0  0  0  0  0  0  0  0  0  0  0
  139.7254   67.7227  226.7175 H   0  0  0  0  0  0  0  0  0  0  0  0
  141.5388   70.7906  229.1854 H   0  0  0  0  0  0  0  0  0  0  0  0
  141.3758   72.3473  227.2386 H   0  0  0  0  0  0  0  0  0  0  0  0
  142.0057   77.0576  223.2545 H   0  0  0  0  0  0  0  0  0  0  0  0
  1  2  1  0
  2  3  1  0
  3  4  2  0
  4  5  1  0
  5  6  2  0
  6  7  1  0
  7  8  1  0
  8  9  1  0
  9 10  2  0
  9 11  1  0
 11 12  1  0
 12 13  1  0
 13 14  2  0
 13 15  1  0
 15 16  2  0
 16 17  1  0
 17 18  2  0
 18 19  1  0
 19 20  2  0
 20 21  1  0
 20 22  1  0
 22 23  2  0
 23 24  1  0
 24 25  2  0
  7 26  2  0
 26  3  1  0
 25 15  1  0
 24 18  1  0
  1 27  1  0
  1 28  1  0
  1 29  1  0
  4 30  1  0
  5 31  1  0
  6 32  1  0
  8 33  1  0
 11 34  1  0
 11 35  1  0
 12 36  1  0
 16 37  1  0
 17 38  1  0
 19 39  1  0
 22 40  1  0
 23 41  1  0
 26 42  1  0
M  END
>  <smiles>  (26) 
COc1cccc(NC(=O)CNC(=O)c2ccc3cc(F)ccc3n2)c1

>  <score_type>  (26) 
oracle

>  <origin>  (26) 
autodockgpu

>  <m_score__min__energy>  (26) 
-8.5399999999999991

>  <m_primary>  (26) 
energy

>  <rmsd>  (26) 
4.774841430605835

>  <m_score__min__rmsd>  (26) 
4.774841430605835

>  <meeko>  (26) 
{"free_energy": -7.36, "intermolecular_energy": -8.85, "internal_energy": -1.56, "cluster_size": 36, "cluster_id": 1, "rank_in_cluster": 33}

>  <energy>  (26) 
-7.54

>  <cluster_rmsd>  (26) 
0.67

>  <cluster>  (26) 
1

$$$$

     RDKit          3D

 42 44  0  0  0  0  0  0  0  0999 V2000
  137.5070   80.5670  223.6940 C   0  0  0  0  0  0  0  0  0  0  0  0
  138.7570   80.5020  224.3150 O   0  0  0  0  0  0  0  0  0  0  0  0
  139.8770   80.0150  223.6530 C   0  0  0  0  0  0  0  0  0  0  0  0
  140.9110   80.8890  223.3010 C   0  0  0  0  0  0  0  0  0  0  0  0
  142.0350   80.3950  222.6340 C   0  0  0  0  0  0  0  0  0  0  0  0
  142.1020   79.0300  222.3320 C   0  0  0  0  0  0  0  0  0  0  0  0
  141.0620   78.2000  222.6950 C   0  0  0  0  0  0  0  0  0  0  0  0
  141.0720   76.7960  222.4150 N   0  0  0  0  0  0  0  0  0  0  0  0
  140.0380   76.3010  221.5900 C   0  0  0  0  0  0  0  0  0  0  0  0
  139.1850   77.1490  221.1610 O   0  0  0  0  0  0  0  0  0  0  0  0
  139.8580   74.9040  221.1830 C   0  0  0  0  0  0  0  0  0  0  0  0
  139.7120   73.9550  222.2450 N   0  0  0  0  0  0  0  0  0  0  0  0
  140.3680   72.6820  222.2540 C   0  0  0  0  0  0  0  0  0  0  0  0
  141.1360   72.3180  221.3070 O   0  0  0  0  0  0  0  0  0  0  0  0
  140.1580   71.7550  223.3860 C   0  0  0  0  0  0  0  0  0  0  0  0
  139.4560   70.5970  223.2070 C   0  0  0  0  0  0  0  0  0  0  0  0
  139.2860   69.7560  224.3090 C   0  0  0  0  0  0  0  0  0  0  0  0
  139.8010   70.0600  225.5500 C   0  0  0  0  0  0  0  0  0  0  0  0
  139.6640   69.2750  226.6580 C   0  0  0  0  0  0  0  0  0  0  0  0
  140.2140   69.6470  227.8850 C   0  0  0  0  0  0  0  0  0  0  0  0
  140.0650   68.8430  228.9870 F   0  0  0  0  0  0  0  0  0  0  0  0
  140.9250   70.8460  228.0080 C   0  0  0  0  0  0  0  0  0  0  0  0
  141.0500   71.6260  226.8690 C   0  0  0  0  0  0  0  0  0  0  0  0
  140.5000   71.2400  225.6700 C   0  0  0  0  0  0  0  0  0  0  0  0
  140.6580   72.0430  224.6070 N   0  0  0  0  0  0  0  0  0  0  0  0
  139.9320   78.6680  223.3600 C   0  0  0  0  0  0  0  0  0  0  0  0
  136.7187   80.6080  224.4601 H   0  0  0  0  0  0  0  0  0  0  0  0
  137.4558   81.4690  223.0665 H   0  0  0  0  0  0  0  0  0  0  0  0
  137.3625   79.6752  223.0665 H   0  0  0  0  0  0  0  0  0  0  0  0
  140.8396   81.9586  223.5478 H   0  0  0  0  0  0  0  0  0  0  0  0
  142.8561   81.0697  222.3501 H   0  0  0  0  0  0  0  0  0  0  0  0
  142.9789   78.6216  221.8083 H   0  0  0  0  0  0  0  0  0  0  0  0
  141.8030   76.1530  222.7850 H   0  0  0  0  0  0  0  0  0  0  0  0
  138.9555   74.8495  220.5565 H   0  0  0  0  0  0  0  0  0  0  0  0
  140.7854   74.6251  220.6613 H   0  0  0  0  0  0  0  0  0  0  0  0
  139.1010   74.1410  223.0950 H   0  0  0  0  0  0  0  0  0  0  0  0
  139.0371   70.3347  222.2243 H   0  0  0  0  0  0  0  0  0  0  0  0
  138.7223   68.8200  224.1818 H   0  0  0  0  0  0  0  0  0  0  0  0
  139.1081   68.3289  226.5820 H   0  0  0  0  0  0  0  0  0  0  0  0
  141.3656   71.1561  228.9670 H   0  0  0  0  0  0  0  0  0  0  0  0
  141.6021   72.5757  226.9260 H   0  0  0  0  0  0  0  0  0  0  0  0
  139.1135   77.9891  223.6413 H   0  0  0  0  0  0  0  0  0  0  0  0
  1  2  1  0
  2  3  1  0
  3  4  2  0
  4  5  1  0
  5  6  2  0
  6  7  1  0
  7  8  1  0
  8  9  1  0
  9 10  2  0
  9 11  1  0
 11 12  1  0
 12 13  1  0
 13 14  2  0
 13 15  1  0
 15 16  2  0
 16 17  1  0
 17 18  2  0
 18 19  1  0
 19 20  2  0
 20 21  1  0
 20 22  1  0
 22 23  2  0
 23 24  1  0
 24 25  2  0
  7 26  2  0
 26  3  1  0
 25 15  1  0
 24 18  1  0
  1 27  1  0
  1 28  1  0
  1 29  1  0
  4 30  1  0
  5 31  1  0
  6 32  1  0
  8 33  1  0
 11 34  1  0
 11 35  1  0
 12 36  1  0
 16 37  1  0
 17 38  1  0
 19 39  1  0
 22 40  1  0
 23 41  1  0
 26 42  1  0
M  END
>  <smiles>  (27) 
COc1cccc(NC(=O)CNC(=O)c2ccc3cc(F)ccc3n2)c1

>  <score_type>  (27) 
oracle

>  <origin>  (27) 
autodockgpu

>  <m_score__min__energy>  (27) 
-8.5399999999999991

>  <m_primary>  (27) 
energy

>  <rmsd>  (27) 
4.195027965820942

>  <m_score__min__rmsd>  (27) 
4.195027965820942

>  <meeko>  (27) 
{"free_energy": -8.34, "intermolecular_energy": -9.84, "internal_energy": -0.79, "cluster_size": 36, "cluster_id": 1, "rank_in_cluster": 9}

>  <energy>  (27) 
-7.52

>  <cluster_rmsd>  (27) 
1.7

>  <cluster>  (27) 
1

$$$$

     RDKit          3D

 42 44  0  0  0  0  0  0  0  0999 V2000
  141.5100   81.5880  219.3820 C   0  0  0  0  0  0  0  0  0  0  0  0
  140.9900   81.6290  220.6790 O   0  0  0  0  0  0  0  0  0  0  0  0
  141.2150   80.6050  221.5890 C   0  0  0  0  0  0  0  0  0  0  0  0
  141.4340   80.9080  222.9370 C   0  0  0  0  0  0  0  0  0  0  0  0
  141.6600   79.8740  223.8490 C   0  0  0  0  0  0  0  0  0  0  0  0
  141.6620   78.5510  223.3920 C   0  0  0  0  0  0  0  0  0  0  0  0
  141.4420   78.2920  222.0550 C   0  0  0  0  0  0  0  0  0  0  0  0
  141.4300   76.9610  221.5270 N   0  0  0  0  0  0  0  0  0  0  0  0
  140.2690   76.1900  221.7600 C   0  0  0  0  0  0  0  0  0  0  0  0
  139.3280   76.7480  222.4180 O   0  0  0  0  0  0  0  0  0  0  0  0
  140.0500   74.8110  221.3140 C   0  0  0  0  0  0  0  0  0  0  0  0
  139.8720   73.8380  222.3480 N   0  0  0  0  0  0  0  0  0  0  0  0
  140.5180   72.5600  222.3410 C   0  0  0  0  0  0  0  0  0  0  0  0
  141.3060   72.2130  221.4040 O   0  0  0  0  0  0  0  0  0  0  0  0
  140.2740   71.6070  223.4440 C   0  0  0  0  0  0  0  0  0  0  0  0
  139.6160   70.4340  223.2090 C   0  0  0  0  0  0  0  0  0  0  0  0
  139.4110   69.5680  224.2850 C   0  0  0  0  0  0  0  0  0  0  0  0
  139.8490   69.8640  225.5570 C   0  0  0  0  0  0  0  0  0  0  0  0
  139.6750   69.0550  226.6430 C   0  0  0  0  0  0  0  0  0  0  0  0
  140.1490   69.4200  227.9040 C   0  0  0  0  0  0  0  0  0  0  0  0
  139.9630   68.5920  228.9820 F   0  0  0  0  0  0  0  0  0  0  0  0
  140.8180   70.6350  228.0860 C   0  0  0  0  0  0  0  0  0  0  0  0
  140.9820   71.4380  226.9680 C   0  0  0  0  0  0  0  0  0  0  0  0
  140.5080   71.0600  225.7340 C   0  0  0  0  0  0  0  0  0  0  0  0
  140.7000   71.8860  224.6950 N   0  0  0  0  0  0  0  0  0  0  0  0
  141.2140   79.3050  221.1270 C   0  0  0  0  0  0  0  0  0  0  0  0
  142.6056   81.5016  219.4288 H   0  0  0  0  0  0  0  0  0  0  0  0
  141.0962   80.7197  218.8483 H   0  0  0  0  0  0  0  0  0  0  0  0
  141.2374   82.5104  218.8483 H   0  0  0  0  0  0  0  0  0  0  0  0
  141.4283   81.9541  223.2769 H   0  0  0  0  0  0  0  0  0  0  0  0
  141.8341   80.0967  224.9121 H   0  0  0  0  0  0  0  0  0  0  0  0
  141.8379   77.7230  224.0945 H   0  0  0  0  0  0  0  0  0  0  0  0
  142.2260   76.5630  220.9860 H   0  0  0  0  0  0  0  0  0  0  0  0
  139.1489   74.8004  220.6832 H   0  0  0  0  0  0  0  0  0  0  0  0
  140.9712   74.5196  220.7881 H   0  0  0  0  0  0  0  0  0  0  0  0
  139.2420   74.0080  223.1880 H   0  0  0  0  0  0  0  0  0  0  0  0
  139.2576   70.1785  222.2009 H   0  0  0  0  0  0  0  0  0  0  0  0
  138.8827   68.6189  224.1113 H   0  0  0  0  0  0  0  0  0  0  0  0
  139.1504   68.0958  226.5216 H   0  0  0  0  0  0  0  0  0  0  0  0
  141.1971   70.9397  229.0726 H   0  0  0  0  0  0  0  0  0  0  0  0
  141.5039   72.4008  227.0706 H   0  0  0  0  0  0  0  0  0  0  0  0
  141.0396   79.0771  220.0651 H   0  0  0  0  0  0  0  0  0  0  0  0
  1  2  1  0
  2  3  1  0
  3  4  2  0
  4  5  1  0
  5  6  2  0
  6  7  1  0
  7  8  1  0
  8  9  1  0
  9 10  2  0
  9 11  1  0
 11 12  1  0
 12 13  1  0
 13 14  2  0
 13 15  1  0
 15 16  2  0
 16 17  1  0
 17 18  2  0
 18 19  1  0
 19 20  2  0
 20 21  1  0
 20 22  1  0
 22 23  2  0
 23 24  1  0
 24 25  2  0
  7 26  2  0
 26  3  1  0
 25 15  1  0
 24 18  1  0
  1 27  1  0
  1 28  1  0
  1 29  1  0
  4 30  1  0
  5 31  1  0
  6 32  1  0
  8 33  1  0
 11 34  1  0
 11 35  1  0
 12 36  1  0
 16 37  1  0
 17 38  1  0
 19 39  1  0
 22 40  1  0
 23 41  1  0
 26 42  1  0
M  END
>  <smiles>  (28) 
COc1cccc(NC(=O)CNC(=O)c2ccc3cc(F)ccc3n2)c1

>  <score_type>  (28) 
oracle

>  <origin>  (28) 
autodockgpu

>  <m_score__min__energy>  (28) 
-8.5399999999999991

>  <m_primary>  (28) 
energy

>  <rmsd>  (28) 
3.862862036634971

>  <m_score__min__rmsd>  (28) 
3.862862036634971

>  <meeko>  (28) 
{"free_energy": -8.3, "intermolecular_energy": -9.79, "internal_energy": -0.92, "cluster_size": 36, "cluster_id": 1, "rank_in_cluster": 12}

>  <energy>  (28) 
-7.47

>  <cluster_rmsd>  (28) 
1.82

>  <cluster>  (28) 
1

$$$$

     RDKit          3D

 42 44  0  0  0  0  0  0  0  0999 V2000
  142.8210   80.4050  223.2190 C   0  0  0  0  0  0  0  0  0  0  0  0
  142.4540   79.0910  222.9150 O   0  0  0  0  0  0  0  0  0  0  0  0
  141.1230   78.7000  222.8540 C   0  0  0  0  0  0  0  0  0  0  0  0
  140.1110   79.6600  222.9570 C   0  0  0  0  0  0  0  0  0  0  0  0
  138.7730   79.2630  222.8950 C   0  0  0  0  0  0  0  0  0  0  0  0
  138.4730   77.9060  222.7300 C   0  0  0  0  0  0  0  0  0  0  0  0
  139.4990   76.9880  222.6320 C   0  0  0  0  0  0  0  0  0  0  0  0
  139.2560   75.5880  222.4610 N   0  0  0  0  0  0  0  0  0  0  0  0
  138.6760   75.1840  221.2380 C   0  0  0  0  0  0  0  0  0  0  0  0
  138.4230   76.1020  220.3870 O   0  0  0  0  0  0  0  0  0  0  0  0
  138.3420   73.8070  220.8590 C   0  0  0  0  0  0  0  0  0  0  0  0
  138.5090   72.8180  221.8800 N   0  0  0  0  0  0  0  0  0  0  0  0
  139.7400   72.6210  222.5860 C   0  0  0  0  0  0  0  0  0  0  0  0
  140.7700   73.3280  222.3470 O   0  0  0  0  0  0  0  0  0  0  0  0
  139.8330   71.5710  223.6220 C   0  0  0  0  0  0  0  0  0  0  0  0
  139.4320   70.2950  223.3480 C   0  0  0  0  0  0  0  0  0  0  0  0
  139.5400   69.3400  224.3620 C   0  0  0  0  0  0  0  0  0  0  0  0
  140.0330   69.6500  225.6100 C   0  0  0  0  0  0  0  0  0  0  0  0
  140.1590   68.7570  226.6350 C   0  0  0  0  0  0  0  0  0  0  0  0
  140.6690   69.1430  227.8750 C   0  0  0  0  0  0  0  0  0  0  0  0
  140.7880   68.2290  228.8930 F   0  0  0  0  0  0  0  0  0  0  0  0
  141.0650   70.4660  228.0990 C   0  0  0  0  0  0  0  0  0  0  0  0
  140.9270   71.3520  227.0430 C   0  0  0  0  0  0  0  0  0  0  0  0
  140.4220   70.9520  225.8290 C   0  0  0  0  0  0  0  0  0  0  0  0
  140.3150   71.8630  224.8490 N   0  0  0  0  0  0  0  0  0  0  0  0
  140.8390   77.3600  222.6910 C   0  0  0  0  0  0  0  0  0  0  0  0
  142.8566   80.5324  224.3110 H   0  0  0  0  0  0  0  0  0  0  0  0
  143.8127   80.6167  222.7926 H   0  0  0  0  0  0  0  0  0  0  0  0
  142.0826   81.0999  222.7926 H   0  0  0  0  0  0  0  0  0  0  0  0
  140.3673   80.7219  223.0861 H   0  0  0  0  0  0  0  0  0  0  0  0
  137.9664   80.0067  222.9748 H   0  0  0  0  0  0  0  0  0  0  0  0
  137.4259   77.5731  222.6787 H   0  0  0  0  0  0  0  0  0  0  0  0
  139.4960   74.8820  223.1880 H   0  0  0  0  0  0  0  0  0  0  0  0
  137.2883   73.7907  220.5436 H   0  0  0  0  0  0  0  0  0  0  0  0
  139.0534   73.5368  220.0647 H   0  0  0  0  0  0  0  0  0  0  0  0
  137.7240   72.1650  222.1760 H   0  0  0  0  0  0  0  0  0  0  0  0
  139.0354   70.0267  222.3577 H   0  0  0  0  0  0  0  0  0  0  0  0
  139.2210   68.3074  224.1570 H   0  0  0  0  0  0  0  0  0  0  0  0
  139.8522   67.7121  226.4801 H   0  0  0  0  0  0  0  0  0  0  0  0
  141.4680   70.7884  229.0704 H   0  0  0  0  0  0  0  0  0  0  0  0
  141.2289   72.4009  227.1795 H   0  0  0  0  0  0  0  0  0  0  0  0
  141.6422   76.6127  222.6106 H   0  0  0  0  0  0  0  0  0  0  0  0
  1  2  1  0
  2  3  1  0
  3  4  2  0
  4  5  1  0
  5  6  2  0
  6  7  1  0
  7  8  1  0
  8  9  1  0
  9 10  2  0
  9 11  1  0
 11 12  1  0
 12 13  1  0
 13 14  2  0
 13 15  1  0
 15 16  2  0
 16 17  1  0
 17 18  2  0
 18 19  1  0
 19 20  2  0
 20 21  1  0
 20 22  1  0
 22 23  2  0
 23 24  1  0
 24 25  2  0
  7 26  2  0
 26  3  1  0
 25 15  1  0
 24 18  1  0
  1 27  1  0
  1 28  1  0
  1 29  1  0
  4 30  1  0
  5 31  1  0
  6 32  1  0
  8 33  1  0
 11 34  1  0
 11 35  1  0
 12 36  1  0
 16 37  1  0
 17 38  1  0
 19 39  1  0
 22 40  1  0
 23 41  1  0
 26 42  1  0
M  END
>  <smiles>  (29) 
COc1cccc(NC(=O)CNC(=O)c2ccc3cc(F)ccc3n2)c1

>  <score_type>  (29) 
oracle

>  <origin>  (29) 
autodockgpu

>  <m_score__min__energy>  (29) 
-8.5399999999999991

>  <m_primary>  (29) 
energy

>  <rmsd>  (29) 
4.847315681520744

>  <m_score__min__rmsd>  (29) 
4.847315681520744

>  <meeko>  (29) 
{"free_energy": -7.6, "intermolecular_energy": -9.09, "internal_energy": -1.47, "cluster_size": 36, "cluster_id": 1, "rank_in_cluster": 22}

>  <energy>  (29) 
-7.44

>  <cluster_rmsd>  (29) 
1.81

>  <cluster>  (29) 
1

$$$$

     RDKit          3D

 42 44  0  0  0  0  0  0  0  0999 V2000
  143.0060   80.3980  223.0750 C   0  0  0  0  0  0  0  0  0  0  0  0
  142.2750   79.4690  223.8210 O   0  0  0  0  0  0  0  0  0  0  0  0
  141.1030   78.9040  223.3360 C   0  0  0  0  0  0  0  0  0  0  0  0
  139.9760   79.7080  223.1320 C   0  0  0  0  0  0  0  0  0  0  0  0
  138.7980   79.1350  222.6450 C   0  0  0  0  0  0  0  0  0  0  0  0
  138.7720   77.7630  222.3700 C   0  0  0  0  0  0  0  0  0  0  0  0
  139.9030   77.0030  222.5840 C   0  0  0  0  0  0  0  0  0  0  0  0
  139.9390   75.5960  222.3210 N   0  0  0  0  0  0  0  0  0  0  0  0
  140.8540   75.1520  221.3400 C   0  0  0  0  0  0  0  0  0  0  0  0
  141.5740   76.0430  220.7760 O   0  0  0  0  0  0  0  0  0  0  0  0
  141.0500   73.7620  220.9160 C   0  0  0  0  0  0  0  0  0  0  0  0
  141.0260   72.7800  221.9550 N   0  0  0  0  0  0  0  0  0  0  0  0
  139.8290   72.3960  222.6440 C   0  0  0  0  0  0  0  0  0  0  0  0
  138.7010   72.9110  222.3610 O   0  0  0  0  0  0  0  0  0  0  0  0
  139.8900   71.3770  223.7130 C   0  0  0  0  0  0  0  0  0  0  0  0
  139.4600   70.1030  223.4750 C   0  0  0  0  0  0  0  0  0  0  0  0
  139.5390   69.1780  224.5190 C   0  0  0  0  0  0  0  0  0  0  0  0
  140.0330   69.5140  225.7600 C   0  0  0  0  0  0  0  0  0  0  0  0
  140.1320   68.6510  226.8120 C   0  0  0  0  0  0  0  0  0  0  0  0
  140.6450   69.0620  228.0430 C   0  0  0  0  0  0  0  0  0  0  0  0
  140.7350   68.1780  229.0890 F   0  0  0  0  0  0  0  0  0  0  0  0
  141.0720   70.3820  228.2280 C   0  0  0  0  0  0  0  0  0  0  0  0
  140.9610   71.2380  227.1450 C   0  0  0  0  0  0  0  0  0  0  0  0
  140.4530   70.8130  225.9400 C   0  0  0  0  0  0  0  0  0  0  0  0
  140.3730   71.6960  224.9330 N   0  0  0  0  0  0  0  0  0  0  0  0
  141.0880   77.5510  223.0680 C   0  0  0  0  0  0  0  0  0  0  0  0
  143.5400   81.0767  223.7564 H   0  0  0  0  0  0  0  0  0  0  0  0
  143.7324   79.8688  222.4408 H   0  0  0  0  0  0  0  0  0  0  0  0
  142.3208   80.9796  222.4408 H   0  0  0  0  0  0  0  0  0  0  0  0
  140.0170   80.7847  223.3536 H   0  0  0  0  0  0  0  0  0  0  0  0
  137.9036   79.7538  222.4801 H   0  0  0  0  0  0  0  0  0  0  0  0
  137.8547   77.2933  221.9853 H   0  0  0  0  0  0  0  0  0  0  0  0
  139.3340   74.9140  222.8230 H   0  0  0  0  0  0  0  0  0  0  0  0
  140.2533   73.5133  220.1995 H   0  0  0  0  0  0  0  0  0  0  0  0
  142.0647   73.7214  220.4933 H   0  0  0  0  0  0  0  0  0  0  0  0
  141.9020   72.2730  222.2820 H   0  0  0  0  0  0  0  0  0  0  0  0
  139.0633   69.8137  222.4907 H   0  0  0  0  0  0  0  0  0  0  0  0
  139.1955   68.1478  224.3442 H   0  0  0  0  0  0  0  0  0  0  0  0
  139.8006   67.6096  226.6873 H   0  0  0  0  0  0  0  0  0  0  0  0
  141.4779   70.7245  229.1913 H   0  0  0  0  0  0  0  0  0  0  0  0
  141.2871   72.2832  227.2513 H   0  0  0  0  0  0  0  0  0  0  0  0
  141.9796   76.9277  223.2307 H   0  0  0  0  0  0  0  0  0  0  0  0
  1  2  1  0
  2  3  1  0
  3  4  2  0
  4  5  1  0
  5  6  2  0
  6  7  1  0
  7  8  1  0
  8  9  1  0
  9 10  2  0
  9 11  1  0
 11 12  1  0
 12 13  1  0
 13 14  2  0
 13 15  1  0
 15 16  2  0
 16 17  1  0
 17 18  2  0
 18 19  1  0
 19 20  2  0
 20 21  1  0
 20 22  1  0
 22 23  2  0
 23 24  1  0
 24 25  2  0
  7 26  2  0
 26  3  1  0
 25 15  1  0
 24 18  1  0
  1 27  1  0
  1 28  1  0
  1 29  1  0
  4 30  1  0
  5 31  1  0
  6 32  1  0
  8 33  1  0
 11 34  1  0
 11 35  1  0
 12 36  1  0
 16 37  1  0
 17 38  1  0
 19 39  1  0
 22 40  1  0
 23 41  1  0
 26 42  1  0
M  END
>  <smiles>  (30) 
COc1cccc(NC(=O)CNC(=O)c2ccc3cc(F)ccc3n2)c1

>  <score_type>  (30) 
oracle

>  <origin>  (30) 
autodockgpu

>  <m_score__min__energy>  (30) 
-8.5399999999999991

>  <m_primary>  (30) 
energy

>  <rmsd>  (30) 
4.811070100199563

>  <m_score__min__rmsd>  (30) 
4.811070100199563

>  <meeko>  (30) 
{"free_energy": -7.38, "intermolecular_energy": -8.87, "internal_energy": -1.53, "cluster_size": 36, "cluster_id": 1, "rank_in_cluster": 31}

>  <energy>  (30) 
-7.38

>  <cluster_rmsd>  (30) 
1.9

>  <cluster>  (30) 
1

$$$$

     RDKit          3D

 42 44  0  0  0  0  0  0  0  0999 V2000
  141.8460   80.8220  219.1070 C   0  0  0  0  0  0  0  0  0  0  0  0
  141.7420   81.1880  220.4520 O   0  0  0  0  0  0  0  0  0  0  0  0
  141.6480   80.2400  221.4610 C   0  0  0  0  0  0  0  0  0  0  0  0
  141.6600   80.6460  222.8000 C   0  0  0  0  0  0  0  0  0  0  0  0
  141.5650   79.6880  223.8130 C   0  0  0  0  0  0  0  0  0  0  0  0
  141.4590   78.3370  223.4650 C   0  0  0  0  0  0  0  0  0  0  0  0
  141.4500   77.9750  222.1330 C   0  0  0  0  0  0  0  0  0  0  0  0
  141.3430   76.6110  221.7140 N   0  0  0  0  0  0  0  0  0  0  0  0
  140.0410   76.0730  221.6140 C   0  0  0  0  0  0  0  0  0  0  0  0
  139.0700   76.8510  221.9020 O   0  0  0  0  0  0  0  0  0  0  0  0
  139.7060   74.7040  221.2090 C   0  0  0  0  0  0  0  0  0  0  0  0
  139.5400   73.7580  222.2700 N   0  0  0  0  0  0  0  0  0  0  0  0
  140.3500   72.5840  222.4070 C   0  0  0  0  0  0  0  0  0  0  0  0
  141.2820   72.3140  221.5840 O   0  0  0  0  0  0  0  0  0  0  0  0
  140.1090   71.6520  223.5290 C   0  0  0  0  0  0  0  0  0  0  0  0
  139.3350   70.5420  223.3480 C   0  0  0  0  0  0  0  0  0  0  0  0
  139.1380   69.6940  224.4400 C   0  0  0  0  0  0  0  0  0  0  0  0
  139.6970   69.9450  225.6730 C   0  0  0  0  0  0  0  0  0  0  0  0
  139.5370   69.1500  226.7710 C   0  0  0  0  0  0  0  0  0  0  0  0
  140.1370   69.4680  227.9910 C   0  0  0  0  0  0  0  0  0  0  0  0
  139.9630   68.6550  229.0830 F   0  0  0  0  0  0  0  0  0  0  0  0
  140.9210   70.6200  228.1170 C   0  0  0  0  0  0  0  0  0  0  0  0
  141.0680   71.4100  226.9880 C   0  0  0  0  0  0  0  0  0  0  0  0
  140.4690   71.0780  225.7960 C   0  0  0  0  0  0  0  0  0  0  0  0
  140.6530   71.8890  224.7420 N   0  0  0  0  0  0  0  0  0  0  0  0
  141.5440   78.9110  221.1070 C   0  0  0  0  0  0  0  0  0  0  0  0
  142.1460   79.7661  219.0365 H   0  0  0  0  0  0  0  0  0  0  0  0
  140.8730   80.9605  218.6130 H   0  0  0  0  0  0  0  0  0  0  0  0
  142.6009   81.4514  218.6130 H   0  0  0  0  0  0  0  0  0  0  0  0
  141.7437   81.7130  223.0538 H   0  0  0  0  0  0  0  0  0  0  0  0
  141.5735   79.9921  224.8701 H   0  0  0  0  0  0  0  0  0  0  0  0
  141.3833   77.5681  224.2480 H   0  0  0  0  0  0  0  0  0  0  0  0
  142.1730   76.0270  221.4800 H   0  0  0  0  0  0  0  0  0  0  0  0
  138.7643   74.7419  220.6417 H   0  0  0  0  0  0  0  0  0  0  0  0
  140.5687   74.3478  220.6268 H   0  0  0  0  0  0  0  0  0  0  0  0
  138.7990   73.8720  223.0240 H   0  0  0  0  0  0  0  0  0  0  0  0
  138.8800   70.3221  222.3710 H   0  0  0  0  0  0  0  0  0  0  0  0
  138.5158   68.7961  224.3108 H   0  0  0  0  0  0  0  0  0  0  0  0
  138.9231   68.2406  226.6931 H   0  0  0  0  0  0  0  0  0  0  0  0
  141.3998   70.8870  229.0707 H   0  0  0  0  0  0  0  0  0  0  0  0
  141.6779   72.3236  227.0470 H   0  0  0  0  0  0  0  0  0  0  0  0
  141.5357   78.6017  220.0514 H   0  0  0  0  0  0  0  0  0  0  0  0
  1  2  1  0
  2  3  1  0
  3  4  2  0
  4  5  1  0
  5  6  2  0
  6  7  1  0
  7  8  1  0
  8  9  1  0
  9 10  2  0
  9 11  1  0
 11 12  1  0
 12 13  1  0
 13 14  2  0
 13 15  1  0
 15 16  2  0
 16 17  1  0
 17 18  2  0
 18 19  1  0
 19 20  2  0
 20 21  1  0
 20 22  1  0
 22 23  2  0
 23 24  1  0
 24 25  2  0
  7 26  2  0
 26  3  1  0
 25 15  1  0
 24 18  1  0
  1 27  1  0
  1 28  1  0
  1 29  1  0
  4 30  1  0
  5 31  1  0
  6 32  1  0
  8 33  1  0
 11 34  1  0
 11 35  1  0
 12 36  1  0
 16 37  1  0
 17 38  1  0
 19 39  1  0
 22 40  1  0
 23 41  1  0
 26 42  1  0
M  END
>  <smiles>  (31) 
COc1cccc(NC(=O)CNC(=O)c2ccc3cc(F)ccc3n2)c1

>  <score_type>  (31) 
oracle

>  <origin>  (31) 
autodockgpu

>  <m_score__min__energy>  (31) 
-8.5399999999999991

>  <m_primary>  (31) 
energy

>  <rmsd>  (31) 
4.065028016699802

>  <m_score__min__rmsd>  (31) 
4.065028016699802

>  <meeko>  (31) 
{"free_energy": -8.54, "intermolecular_energy": -10.03, "internal_energy": -0.87, "cluster_size": 36, "cluster_id": 1, "rank_in_cluster": 1}

>  <energy>  (31) 
-7.38

>  <cluster_rmsd>  (31) 
1.89

>  <cluster>  (31) 
1

$$$$

     RDKit          3D

 42 44  0  0  0  0  0  0  0  0999 V2000
  141.8290   80.8800  219.1740 C   0  0  0  0  0  0  0  0  0  0  0  0
  141.6140   81.1980  220.5180 O   0  0  0  0  0  0  0  0  0  0  0  0
  141.5900   80.2220  221.5050 C   0  0  0  0  0  0  0  0  0  0  0  0
  141.6700   80.5920  222.8510 C   0  0  0  0  0  0  0  0  0  0  0  0
  141.6470   79.6070  223.8420 C   0  0  0  0  0  0  0  0  0  0  0  0
  141.5430   78.2630  223.4630 C   0  0  0  0  0  0  0  0  0  0  0  0
  141.4650   77.9370  222.1240 C   0  0  0  0  0  0  0  0  0  0  0  0
  141.3560   76.5830  221.6740 N   0  0  0  0  0  0  0  0  0  0  0  0
  140.0560   76.0340  221.6040 C   0  0  0  0  0  0  0  0  0  0  0  0
  139.0890   76.7950  221.9450 O   0  0  0  0  0  0  0  0  0  0  0  0
  139.7200   74.6730  221.1760 C   0  0  0  0  0  0  0  0  0  0  0  0
  139.5720   73.7050  222.2190 N   0  0  0  0  0  0  0  0  0  0  0  0
  140.4880   72.6210  222.4180 C   0  0  0  0  0  0  0  0  0  0  0  0
  141.5040   72.4580  221.6700 O   0  0  0  0  0  0  0  0  0  0  0  0
  140.2600   71.6590  223.5160 C   0  0  0  0  0  0  0  0  0  0  0  0
  139.5040   70.5410  223.3060 C   0  0  0  0  0  0  0  0  0  0  0  0
  139.3190   69.6630  224.3770 C   0  0  0  0  0  0  0  0  0  0  0  0
  139.8710   69.8940  225.6180 C   0  0  0  0  0  0  0  0  0  0  0  0
  139.7210   69.0700  226.6960 C   0  0  0  0  0  0  0  0  0  0  0  0
  140.3120   69.3680  227.9240 C   0  0  0  0  0  0  0  0  0  0  0  0
  140.1490   68.5260  228.9960 F   0  0  0  0  0  0  0  0  0  0  0  0
  141.0770   70.5290  228.0800 C   0  0  0  0  0  0  0  0  0  0  0  0
  141.2140   71.3480  226.9710 C   0  0  0  0  0  0  0  0  0  0  0  0
  140.6230   71.0360  225.7690 C   0  0  0  0  0  0  0  0  0  0  0  0
  140.7960   71.8750  224.7360 N   0  0  0  0  0  0  0  0  0  0  0  0
  141.4870   78.9010  221.1200 C   0  0  0  0  0  0  0  0  0  0  0  0
  142.4439   79.9705  219.1062 H   0  0  0  0  0  0  0  0  0  0  0  0
  140.8621   80.7066  218.6790 H   0  0  0  0  0  0  0  0  0  0  0  0
  142.3502   81.7127  218.6790 H   0  0  0  0  0  0  0  0  0  0  0  0
  141.7507   81.6534  223.1285 H   0  0  0  0  0  0  0  0  0  0  0  0
  141.7097   79.8835  224.9048 H   0  0  0  0  0  0  0  0  0  0  0  0
  141.5236   77.4722  224.2273 H   0  0  0  0  0  0  0  0  0  0  0  0
  142.1830   76.0130  221.3970 H   0  0  0  0  0  0  0  0  0  0  0  0
  138.7704   74.7192  220.6228 H   0  0  0  0  0  0  0  0  0  0  0  0
  140.5757   74.3320  220.5748 H   0  0  0  0  0  0  0  0  0  0  0  0
  138.7670   73.7340  222.9140 H   0  0  0  0  0  0  0  0  0  0  0  0
  139.0542   70.3379  222.3229 H   0  0  0  0  0  0  0  0  0  0  0  0
  138.7129   68.7578  224.2244 H   0  0  0  0  0  0  0  0  0  0  0  0
  139.1222   68.1529  226.5943 H   0  0  0  0  0  0  0  0  0  0  0  0
  141.5491   70.7805  229.0412 H   0  0  0  0  0  0  0  0  0  0  0  0
  141.8093   72.2693  227.0538 H   0  0  0  0  0  0  0  0  0  0  0  0
  141.4246   78.6199  220.0584 H   0  0  0  0  0  0  0  0  0  0  0  0
  1  2  1  0
  2  3  1  0
  3  4  2  0
  4  5  1  0
  5  6  2  0
  6  7  1  0
  7  8  1  0
  8  9  1  0
  9 10  2  0
  9 11  1  0
 11 12  1  0
 12 13  1  0
 13 14  2  0
 13 15  1  0
 15 16  2  0
 16 17  1  0
 17 18  2  0
 18 19  1  0
 19 20  2  0
 20 21  1  0
 20 22  1  0
 22 23  2  0
 23 24  1  0
 24 25  2  0
  7 26  2  0
 26  3  1  0
 25 15  1  0
 24 18  1  0
  1 27  1  0
  1 28  1  0
  1 29  1  0
  4 30  1  0
  5 31  1  0
  6 32  1  0
  8 33  1  0
 11 34  1  0
 11 35  1  0
 12 36  1  0
 16 37  1  0
 17 38  1  0
 19 39  1  0
 22 40  1  0
 23 41  1  0
 26 42  1  0
M  END
>  <smiles>  (32) 
COc1cccc(NC(=O)CNC(=O)c2ccc3cc(F)ccc3n2)c1

>  <score_type>  (32) 
oracle

>  <origin>  (32) 
autodockgpu

>  <m_score__min__energy>  (32) 
-8.5399999999999991

>  <m_primary>  (32) 
energy

>  <rmsd>  (32) 
4.065403885878347

>  <m_score__min__rmsd>  (32) 
4.065403885878347

>  <meeko>  (32) 
{"free_energy": -8.43, "intermolecular_energy": -9.92, "internal_energy": -0.87, "cluster_size": 36, "cluster_id": 1, "rank_in_cluster": 7}

>  <energy>  (32) 
-7.37

>  <cluster_rmsd>  (32) 
1.87

>  <cluster>  (32) 
1

$$$$

     RDKit          3D

 42 44  0  0  0  0  0  0  0  0999 V2000
  142.0610   80.5380  219.0390 C   0  0  0  0  0  0  0  0  0  0  0  0
  141.7790   81.0000  220.3280 O   0  0  0  0  0  0  0  0  0  0  0  0
  141.6660   80.1330  221.4060 C   0  0  0  0  0  0  0  0  0  0  0  0
  141.6500   80.6420  222.7090 C   0  0  0  0  0  0  0  0  0  0  0  0
  141.5370   79.7660  223.7920 C   0  0  0  0  0  0  0  0  0  0  0  0
  141.4400   78.3920  223.5480 C   0  0  0  0  0  0  0  0  0  0  0  0
  141.4590   77.9270  222.2490 C   0  0  0  0  0  0  0  0  0  0  0  0
  141.3620   76.5340  221.9350 N   0  0  0  0  0  0  0  0  0  0  0  0
  140.0920   76.0520  221.5470 C   0  0  0  0  0  0  0  0  0  0  0  0
  139.1390   76.9010  221.5060 O   0  0  0  0  0  0  0  0  0  0  0  0
  139.7720   74.6670  221.1880 C   0  0  0  0  0  0  0  0  0  0  0  0
  139.6990   73.7380  222.2750 N   0  0  0  0  0  0  0  0  0  0  0  0
  140.2730   72.4270  222.2240 C   0  0  0  0  0  0  0  0  0  0  0  0
  140.8950   72.0070  221.1970 O   0  0  0  0  0  0  0  0  0  0  0  0
  140.1470   71.5240  223.3880 C   0  0  0  0  0  0  0  0  0  0  0  0
  139.5640   70.2970  223.2480 C   0  0  0  0  0  0  0  0  0  0  0  0
  139.4700   69.4820  224.3780 C   0  0  0  0  0  0  0  0  0  0  0  0
  139.9410   69.8800  225.6100 C   0  0  0  0  0  0  0  0  0  0  0  0
  139.8740   69.1240  226.7450 C   0  0  0  0  0  0  0  0  0  0  0  0
  140.3750   69.5930  227.9600 C   0  0  0  0  0  0  0  0  0  0  0  0
  140.2970   68.8170  229.0890 F   0  0  0  0  0  0  0  0  0  0  0  0
  140.9620   70.8600  228.0430 C   0  0  0  0  0  0  0  0  0  0  0  0
  141.0190   71.6070  226.8780 C   0  0  0  0  0  0  0  0  0  0  0  0
  140.5190   71.1260  225.6900 C   0  0  0  0  0  0  0  0  0  0  0  0
  140.6060   71.9030  224.6000 N   0  0  0  0  0  0  0  0  0  0  0  0
  141.5710   78.7800  221.1540 C   0  0  0  0  0  0  0  0  0  0  0  0
  142.6332   79.6007  219.1025 H   0  0  0  0  0  0  0  0  0  0  0  0
  141.1193   80.3570  218.5002 H   0  0  0  0  0  0  0  0  0  0  0  0
  142.6525   81.2929  218.5002 H   0  0  0  0  0  0  0  0  0  0  0  0
  141.7259   81.7259  222.8802 H   0  0  0  0  0  0  0  0  0  0  0  0
  141.5245   80.1516  224.8221 H   0  0  0  0  0  0  0  0  0  0  0  0
  141.3491   77.6863  224.3869 H   0  0  0  0  0  0  0  0  0  0  0  0
  142.1790   75.8890  221.9750 H   0  0  0  0  0  0  0  0  0  0  0  0
  138.7964   74.6678  220.6798 H   0  0  0  0  0  0  0  0  0  0  0  0
  140.6066   74.3231  220.5593 H   0  0  0  0  0  0  0  0  0  0  0  0
  139.2090   73.9690  223.1900 H   0  0  0  0  0  0  0  0  0  0  0  0
  139.1797   69.9606  222.2737 H   0  0  0  0  0  0  0  0  0  0  0  0
  139.0048   68.4899  224.2813 H   0  0  0  0  0  0  0  0  0  0  0  0
  139.4158   68.1250  226.7007 H   0  0  0  0  0  0  0  0  0  0  0  0
  141.3611   71.2464  228.9924 H   0  0  0  0  0  0  0  0  0  0  0  0
  141.4745   72.6079  226.9033 H   0  0  0  0  0  0  0  0  0  0  0  0
  141.5833   78.3893  220.1258 H   0  0  0  0  0  0  0  0  0  0  0  0
  1  2  1  0
  2  3  1  0
  3  4  2  0
  4  5  1  0
  5  6  2  0
  6  7  1  0
  7  8  1  0
  8  9  1  0
  9 10  2  0
  9 11  1  0
 11 12  1  0
 12 13  1  0
 13 14  2  0
 13 15  1  0
 15 16  2  0
 16 17  1  0
 17 18  2  0
 18 19  1  0
 19 20  2  0
 20 21  1  0
 20 22  1  0
 22 23  2  0
 23 24  1  0
 24 25  2  0
  7 26  2  0
 26  3  1  0
 25 15  1  0
 24 18  1  0
  1 27  1  0
  1 28  1  0
  1 29  1  0
  4 30  1  0
  5 31  1  0
  6 32  1  0
  8 33  1  0
 11 34  1  0
 11 35  1  0
 12 36  1  0
 16 37  1  0
 17 38  1  0
 19 39  1  0
 22 40  1  0
 23 41  1  0
 26 42  1  0
M  END
>  <smiles>  (33) 
COc1cccc(NC(=O)CNC(=O)c2ccc3cc(F)ccc3n2)c1

>  <score_type>  (33) 
oracle

>  <origin>  (33) 
autodockgpu

>  <m_score__min__energy>  (33) 
-8.5399999999999991

>  <m_primary>  (33) 
energy

>  <rmsd>  (33) 
4.135379921164586

>  <m_score__min__rmsd>  (33) 
4.135379921164586

>  <meeko>  (33) 
{"free_energy": -8.32, "intermolecular_energy": -9.81, "internal_energy": -0.91, "cluster_size": 36, "cluster_id": 1, "rank_in_cluster": 11}

>  <energy>  (33) 
-7.36

>  <cluster_rmsd>  (33) 
1.87

>  <cluster>  (33) 
1

$$$$

     RDKit          3D

 42 44  0  0  0  0  0  0  0  0999 V2000
  138.4590   67.7600  222.6760 C   0  0  0  0  0  0  0  0  0  0  0  0
  138.5830   68.1210  224.0200 O   0  0  0  0  0  0  0  0  0  0  0  0
  139.2840   69.2540  224.4110 C   0  0  0  0  0  0  0  0  0  0  0  0
  139.9810   69.2570  225.6230 C   0  0  0  0  0  0  0  0  0  0  0  0
  140.6850   70.3990  226.0130 C   0  0  0  0  0  0  0  0  0  0  0  0
  140.6770   71.5220  225.1770 C   0  0  0  0  0  0  0  0  0  0  0  0
  139.9770   71.4810  223.9880 C   0  0  0  0  0  0  0  0  0  0  0  0
  139.9310   72.5950  223.0910 N   0  0  0  0  0  0  0  0  0  0  0  0
  140.8150   72.5650  221.9890 C   0  0  0  0  0  0  0  0  0  0  0  0
  141.5760   71.5450  221.8850 O   0  0  0  0  0  0  0  0  0  0  0  0
  140.9350   73.5990  220.9560 C   0  0  0  0  0  0  0  0  0  0  0  0
  141.0620   74.9440  221.4270 N   0  0  0  0  0  0  0  0  0  0  0  0
  139.9700   75.6870  221.9800 C   0  0  0  0  0  0  0  0  0  0  0  0
  138.8070   75.1840  222.0930 O   0  0  0  0  0  0  0  0  0  0  0  0
  140.1830   77.0770  222.4380 C   0  0  0  0  0  0  0  0  0  0  0  0
  139.1170   77.8640  222.7680 C   0  0  0  0  0  0  0  0  0  0  0  0
  139.3720   79.1700  223.1950 C   0  0  0  0  0  0  0  0  0  0  0  0
  140.6510   79.6730  223.2880 C   0  0  0  0  0  0  0  0  0  0  0  0
  140.9550   80.9390  223.6980 C   0  0  0  0  0  0  0  0  0  0  0  0
  142.2780   81.3810  223.7690 C   0  0  0  0  0  0  0  0  0  0  0  0
  142.5620   82.6580  224.1830 F   0  0  0  0  0  0  0  0  0  0  0  0
  143.3300   80.5290  223.4170 C   0  0  0  0  0  0  0  0  0  0  0  0
  142.9940   79.2490  223.0050 C   0  0  0  0  0  0  0  0  0  0  0  0
  141.6850   78.8330  222.9420 C   0  0  0  0  0  0  0  0  0  0  0  0
  141.4320   77.5810  222.5330 N   0  0  0  0  0  0  0  0  0  0  0  0
  139.2690   70.3550  223.5790 C   0  0  0  0  0  0  0  0  0  0  0  0
  138.1024   66.7217  222.6066 H   0  0  0  0  0  0  0  0  0  0  0  0
  137.7391   68.4288  222.1816 H   0  0  0  0  0  0  0  0  0  0  0  0
  139.4379   67.8453  222.1816 H   0  0  0  0  0  0  0  0  0  0  0  0
  139.9751   68.3647  226.2663 H   0  0  0  0  0  0  0  0  0  0  0  0
  141.2379   70.4156  226.9638 H   0  0  0  0  0  0  0  0  0  0  0  0
  141.2249   72.4311  225.4658 H   0  0  0  0  0  0  0  0  0  0  0  0
  139.2800   73.3970  223.2210 H   0  0  0  0  0  0  0  0  0  0  0  0
  141.8244   73.3688  220.3510 H   0  0  0  0  0  0  0  0  0  0  0  0
  139.9892   73.5691  220.3951 H   0  0  0  0  0  0  0  0  0  0  0  0
  141.9830   75.4760  221.3920 H   0  0  0  0  0  0  0  0  0  0  0  0
  138.0880   77.4813  222.6998 H   0  0  0  0  0  0  0  0  0  0  0  0
  138.5244   79.8169  223.4655 H   0  0  0  0  0  0  0  0  0  0  0  0
  140.1418   81.6248  223.9781 H   0  0  0  0  0  0  0  0  0  0  0  0
  144.3778   80.8603  223.4651 H   0  0  0  0  0  0  0  0  0  0  0  0
  143.7939   78.5491  222.7216 H   0  0  0  0  0  0  0  0  0  0  0  0
  138.7175   70.3429  222.6273 H   0  0  0  0  0  0  0  0  0  0  0  0
  1  2  1  0
  2  3  1  0
  3  4  2  0
  4  5  1  0
  5  6  2  0
  6  7  1  0
  7  8  1  0
  8  9  1  0
  9 10  2  0
  9 11  1  0
 11 12  1  0
 12 13  1  0
 13 14  2  0
 13 15  1  0
 15 16  2  0
 16 17  1  0
 17 18  2  0
 18 19  1  0
 19 20  2  0
 20 21  1  0
 20 22  1  0
 22 23  2  0
 23 24  1  0
 24 25  2  0
  7 26  2  0
 26  3  1  0
 25 15  1  0
 24 18  1  0
  1 27  1  0
  1 28  1  0
  1 29  1  0
  4 30  1  0
  5 31  1  0
  6 32  1  0
  8 33  1  0
 11 34  1  0
 11 35  1  0
 12 36  1  0
 16 37  1  0
 17 38  1  0
 19 39  1  0
 22 40  1  0
 23 41  1  0
 26 42  1  0
M  END
>  <smiles>  (34) 
COc1cccc(NC(=O)CNC(=O)c2ccc3cc(F)ccc3n2)c1

>  <score_type>  (34) 
oracle

>  <origin>  (34) 
autodockgpu

>  <m_score__min__energy>  (34) 
-8.5399999999999991

>  <m_primary>  (34) 
energy

>  <rmsd>  (34) 
10.98583304444491

>  <m_score__min__rmsd>  (34) 
10.98583304444491

>  <meeko>  (34) 
{"free_energy": -7.22, "intermolecular_energy": -8.71, "internal_energy": -1.9, "cluster_size": 13, "cluster_id": 2, "rank_in_cluster": 10}

>  <energy>  (34) 
-7.34

>  <cluster_rmsd>  (34) 
1.89

>  <cluster>  (34) 
1

$$$$

     RDKit          3D

 42 44  0  0  0  0  0  0  0  0999 V2000
  141.7340   81.0210  219.1730 C   0  0  0  0  0  0  0  0  0  0  0  0
  141.5340   81.3410  220.5190 O   0  0  0  0  0  0  0  0  0  0  0  0
  141.5020   80.3630  221.5050 C   0  0  0  0  0  0  0  0  0  0  0  0
  141.5260   80.7350  222.8530 C   0  0  0  0  0  0  0  0  0  0  0  0
  141.4960   79.7480  223.8420 C   0  0  0  0  0  0  0  0  0  0  0  0
  141.4410   78.4030  223.4600 C   0  0  0  0  0  0  0  0  0  0  0  0
  141.4190   78.0760  222.1200 C   0  0  0  0  0  0  0  0  0  0  0  0
  141.3620   76.7190  221.6660 N   0  0  0  0  0  0  0  0  0  0  0  0
  140.1000   76.0860  221.7000 C   0  0  0  0  0  0  0  0  0  0  0  0
  139.1160   76.7790  222.1280 O   0  0  0  0  0  0  0  0  0  0  0  0
  139.8200   74.7070  221.2870 C   0  0  0  0  0  0  0  0  0  0  0  0
  139.7230   73.7440  222.3410 N   0  0  0  0  0  0  0  0  0  0  0  0
  140.2490   72.4150  222.2390 C   0  0  0  0  0  0  0  0  0  0  0  0
  140.8480   72.0110  221.1920 O   0  0  0  0  0  0  0  0  0  0  0  0
  140.1010   71.4770  223.3720 C   0  0  0  0  0  0  0  0  0  0  0  0
  139.5410   70.2470  223.1790 C   0  0  0  0  0  0  0  0  0  0  0  0
  139.4240   69.3980  224.2810 C   0  0  0  0  0  0  0  0  0  0  0  0
  139.8520   69.7660  225.5380 C   0  0  0  0  0  0  0  0  0  0  0  0
  139.7610   68.9760  226.6480 C   0  0  0  0  0  0  0  0  0  0  0  0
  140.2190   69.4160  227.8910 C   0  0  0  0  0  0  0  0  0  0  0  0
  140.1180   68.6060  228.9940 F   0  0  0  0  0  0  0  0  0  0  0  0
  140.7850   70.6880  228.0290 C   0  0  0  0  0  0  0  0  0  0  0  0
  140.8660   71.4690  226.8880 C   0  0  0  0  0  0  0  0  0  0  0  0
  140.4100   71.0170  225.6720 C   0  0  0  0  0  0  0  0  0  0  0  0
  140.5180   71.8270  224.6070 N   0  0  0  0  0  0  0  0  0  0  0  0
  141.4490   79.0410  221.1170 C   0  0  0  0  0  0  0  0  0  0  0  0
  142.3157   80.0903  219.0999 H   0  0  0  0  0  0  0  0  0  0  0  0
  140.7602   80.8845  218.6800 H   0  0  0  0  0  0  0  0  0  0  0  0
  142.2835   81.8365  218.6800 H   0  0  0  0  0  0  0  0  0  0  0  0
  141.5682   81.7979  223.1331 H   0  0  0  0  0  0  0  0  0  0  0  0
  141.5154   80.0248  224.9064 H   0  0  0  0  0  0  0  0  0  0  0  0
  141.4154   77.6114  224.2234 H   0  0  0  0  0  0  0  0  0  0  0  0
  142.1980   76.2070  221.3160 H   0  0  0  0  0  0  0  0  0  0  0  0
  138.8647   74.7064  220.7416 H   0  0  0  0  0  0  0  0  0  0  0  0
  140.6844   74.3975  220.6812 H   0  0  0  0  0  0  0  0  0  0  0  0
  139.2500   73.9590  223.2690 H   0  0  0  0  0  0  0  0  0  0  0  0
  139.1920   69.9339  222.1839 H   0  0  0  0  0  0  0  0  0  0  0  0
  138.9757   68.4033  224.1414 H   0  0  0  0  0  0  0  0  0  0  0  0
  139.3180   67.9729  226.5609 H   0  0  0  0  0  0  0  0  0  0  0  0
  141.1497   71.0518  229.0009 H   0  0  0  0  0  0  0  0  0  0  0  0
  141.3057   72.4750  226.9562 H   0  0  0  0  0  0  0  0  0  0  0  0
  141.4311   78.7591  220.0539 H   0  0  0  0  0  0  0  0  0  0  0  0
  1  2  1  0
  2  3  1  0
  3  4  2  0
  4  5  1  0
  5  6  2  0
  6  7  1  0
  7  8  1  0
  8  9  1  0
  9 10  2  0
  9 11  1  0
 11 12  1  0
 12 13  1  0
 13 14  2  0
 13 15  1  0
 15 16  2  0
 16 17  1  0
 17 18  2  0
 18 19  1  0
 19 20  2  0
 20 21  1  0
 20 22  1  0
 22 23  2  0
 23 24  1  0
 24 25  2  0
  7 26  2  0
 26  3  1  0
 25 15  1  0
 24 18  1  0
  1 27  1  0
  1 28  1  0
  1 29  1  0
  4 30  1  0
  5 31  1  0
  6 32  1  0
  8 33  1  0
 11 34  1  0
 11 35  1  0
 12 36  1  0
 16 37  1  0
 17 38  1  0
 19 39  1  0
 22 40  1  0
 23 41  1  0
 26 42  1  0
M  END
>  <smiles>  (35) 
COc1cccc(NC(=O)CNC(=O)c2ccc3cc(F)ccc3n2)c1

>  <score_type>  (35) 
oracle

>  <origin>  (35) 
autodockgpu

>  <m_score__min__energy>  (35) 
-8.5399999999999991

>  <m_primary>  (35) 
energy

>  <rmsd>  (35) 
4.007806015120225

>  <m_score__min__rmsd>  (35) 
4.007806015120225

>  <meeko>  (35) 
{"free_energy": -8.36, "intermolecular_energy": -9.85, "internal_energy": -0.93, "cluster_size": 36, "cluster_id": 1, "rank_in_cluster": 8}

>  <energy>  (35) 
-7.33

>  <cluster_rmsd>  (35) 
1.73

>  <cluster>  (35) 
1

$$$$

     RDKit          3D

 42 44  0  0  0  0  0  0  0  0999 V2000
  141.7920   81.1770  219.2680 C   0  0  0  0  0  0  0  0  0  0  0  0
  141.5090   81.4340  220.6130 O   0  0  0  0  0  0  0  0  0  0  0  0
  141.5290   80.4280  221.5690 C   0  0  0  0  0  0  0  0  0  0  0  0
  141.6330   80.7580  222.9240 C   0  0  0  0  0  0  0  0  0  0  0  0
  141.6530   79.7430  223.8840 C   0  0  0  0  0  0  0  0  0  0  0  0
  141.5680   78.4100  223.4650 C   0  0  0  0  0  0  0  0  0  0  0  0
  141.4660   78.1230  222.1190 C   0  0  0  0  0  0  0  0  0  0  0  0
  141.3740   76.7810  221.6300 N   0  0  0  0  0  0  0  0  0  0  0  0
  140.1120   76.1520  221.7210 C   0  0  0  0  0  0  0  0  0  0  0  0
  139.1610   76.8350  222.2280 O   0  0  0  0  0  0  0  0  0  0  0  0
  139.8000   74.7870  221.2850 C   0  0  0  0  0  0  0  0  0  0  0  0
  139.6450   73.8160  222.3240 N   0  0  0  0  0  0  0  0  0  0  0  0
  140.4540   72.6380  222.4230 C   0  0  0  0  0  0  0  0  0  0  0  0
  141.3750   72.3860  221.5820 O   0  0  0  0  0  0  0  0  0  0  0  0
  140.2250   71.6790  223.5240 C   0  0  0  0  0  0  0  0  0  0  0  0
  139.5210   70.5300  223.3020 C   0  0  0  0  0  0  0  0  0  0  0  0
  139.3320   69.6580  224.3760 C   0  0  0  0  0  0  0  0  0  0  0  0
  139.8300   69.9240  225.6330 C   0  0  0  0  0  0  0  0  0  0  0  0
  139.6750   69.1070  226.7150 C   0  0  0  0  0  0  0  0  0  0  0  0
  140.2100   69.4410  227.9600 C   0  0  0  0  0  0  0  0  0  0  0  0
  140.0420   68.6060  229.0360 F   0  0  0  0  0  0  0  0  0  0  0  0
  140.9230   70.6330  228.1280 C   0  0  0  0  0  0  0  0  0  0  0  0
  141.0670   71.4450  227.0140 C   0  0  0  0  0  0  0  0  0  0  0  0
  140.5320   71.0960  225.7970 C   0  0  0  0  0  0  0  0  0  0  0  0
  140.7090   71.9300  224.7600 N   0  0  0  0  0  0  0  0  0  0  0  0
  141.4440   79.1180  221.1460 C   0  0  0  0  0  0  0  0  0  0  0  0
  142.6047   80.4390  219.1988 H   0  0  0  0  0  0  0  0  0  0  0  0
  140.8932   80.7800  218.7735 H   0  0  0  0  0  0  0  0  0  0  0  0
  142.1008   82.1098  218.7735 H   0  0  0  0  0  0  0  0  0  0  0  0
  141.6987   81.8118  223.2326 H   0  0  0  0  0  0  0  0  0  0  0  0
  141.7344   79.9878  224.9533 H   0  0  0  0  0  0  0  0  0  0  0  0
  141.5824   77.5958  224.2045 H   0  0  0  0  0  0  0  0  0  0  0  0
  142.1850   76.2770  221.2140 H   0  0  0  0  0  0  0  0  0  0  0  0
  138.8600   74.8226  220.7149 H   0  0  0  0  0  0  0  0  0  0  0  0
  140.6703   74.4571  220.6988 H   0  0  0  0  0  0  0  0  0  0  0  0
  138.9140   73.9130  223.0900 H   0  0  0  0  0  0  0  0  0  0  0  0
  139.1148   70.2983  222.3064 H   0  0  0  0  0  0  0  0  0  0  0  0
  138.7671   68.7283  224.2134 H   0  0  0  0  0  0  0  0  0  0  0  0
  139.1168   68.1657  226.6036 H   0  0  0  0  0  0  0  0  0  0  0  0
  141.3507   70.9136  229.1018 H   0  0  0  0  0  0  0  0  0  0  0  0
  141.6221   72.3902  227.1060 H   0  0  0  0  0  0  0  0  0  0  0  0
  141.3618   78.8685  220.0778 H   0  0  0  0  0  0  0  0  0  0  0  0
  1  2  1  0
  2  3  1  0
  3  4  2  0
  4  5  1  0
  5  6  2  0
  6  7  1  0
  7  8  1  0
  8  9  1  0
  9 10  2  0
  9 11  1  0
 11 12  1  0
 12 13  1  0
 13 14  2  0
 13 15  1  0
 15 16  2  0
 16 17  1  0
 17 18  2  0
 18 19  1  0
 19 20  2  0
 20 21  1  0
 20 22  1  0
 22 23  2  0
 23 24  1  0
 24 25  2  0
  7 26  2  0
 26  3  1  0
 25 15  1  0
 24 18  1  0
  1 27  1  0
  1 28  1  0
  1 29  1  0
  4 30  1  0
  5 31  1  0
  6 32  1  0
  8 33  1  0
 11 34  1  0
 11 35  1  0
 12 36  1  0
 16 37  1  0
 17 38  1  0
 19 39  1  0
 22 40  1  0
 23 41  1  0
 26 42  1  0
M  END
>  <smiles>  (36) 
COc1cccc(NC(=O)CNC(=O)c2ccc3cc(F)ccc3n2)c1

>  <score_type>  (36) 
oracle

>  <origin>  (36) 
autodockgpu

>  <m_score__min__energy>  (36) 
-8.5399999999999991

>  <m_primary>  (36) 
energy

>  <rmsd>  (36) 
3.995510943525004

>  <m_score__min__rmsd>  (36) 
3.995510943525004

>  <meeko>  (36) 
{"free_energy": -8.53, "intermolecular_energy": -10.02, "internal_energy": -0.87, "cluster_size": 36, "cluster_id": 1, "rank_in_cluster": 3}

>  <energy>  (36) 
-7.33

>  <cluster_rmsd>  (36) 
1.91

>  <cluster>  (36) 
1

$$$$

     RDKit          3D

 42 44  0  0  0  0  0  0  0  0999 V2000
  141.7690   80.8020  219.0790 C   0  0  0  0  0  0  0  0  0  0  0  0
  141.6790   81.1770  220.4230 O   0  0  0  0  0  0  0  0  0  0  0  0
  141.6070   80.2340  221.4400 C   0  0  0  0  0  0  0  0  0  0  0  0
  141.6540   80.6480  222.7750 C   0  0  0  0  0  0  0  0  0  0  0  0
  141.5830   79.6970  223.7960 C   0  0  0  0  0  0  0  0  0  0  0  0
  141.4660   78.3440  223.4590 C   0  0  0  0  0  0  0  0  0  0  0  0
  141.4230   77.9740  222.1300 C   0  0  0  0  0  0  0  0  0  0  0  0
  141.3020   76.6070  221.7210 N   0  0  0  0  0  0  0  0  0  0  0  0
  139.9960   76.0710  221.6600 C   0  0  0  0  0  0  0  0  0  0  0  0
  139.0350   76.8520  221.9690 O   0  0  0  0  0  0  0  0  0  0  0  0
  139.6490   74.7010  221.2710 C   0  0  0  0  0  0  0  0  0  0  0  0
  139.6200   73.7370  222.3290 N   0  0  0  0  0  0  0  0  0  0  0  0
  140.1040   72.3970  222.1810 C   0  0  0  0  0  0  0  0  0  0  0  0
  140.6000   71.9810  221.0870 O   0  0  0  0  0  0  0  0  0  0  0  0
  140.0310   71.4590  223.3220 C   0  0  0  0  0  0  0  0  0  0  0  0
  139.5800   70.1840  223.1380 C   0  0  0  0  0  0  0  0  0  0  0  0
  139.5300   69.3380  224.2480 C   0  0  0  0  0  0  0  0  0  0  0  0
  139.9180   69.7520  225.5030 C   0  0  0  0  0  0  0  0  0  0  0  0
  139.8900   68.9670  226.6190 C   0  0  0  0  0  0  0  0  0  0  0  0
  140.3010   69.4560  227.8600 C   0  0  0  0  0  0  0  0  0  0  0  0
  140.2640   68.6500  228.9710 F   0  0  0  0  0  0  0  0  0  0  0  0
  140.7540   70.7730  227.9890 C   0  0  0  0  0  0  0  0  0  0  0  0
  140.7740   71.5490  226.8410 C   0  0  0  0  0  0  0  0  0  0  0  0
  140.3650   71.0480  225.6280 C   0  0  0  0  0  0  0  0  0  0  0  0
  140.4090   71.8550  224.5560 N   0  0  0  0  0  0  0  0  0  0  0  0
  141.4920   78.9040  221.0960 C   0  0  0  0  0  0  0  0  0  0  0  0
  142.0252   79.7343  219.0126 H   0  0  0  0  0  0  0  0  0  0  0  0
  140.8029   80.9787  218.5835 H   0  0  0  0  0  0  0  0  0  0  0  0
  142.5496   81.3979  218.5835 H   0  0  0  0  0  0  0  0  0  0  0  0
  141.7464   81.7164  223.0198 H   0  0  0  0  0  0  0  0  0  0  0  0
  141.6186   80.0077  224.8506 H   0  0  0  0  0  0  0  0  0  0  0  0
  141.4087   77.5800  224.2483 H   0  0  0  0  0  0  0  0  0  0  0  0
  142.1240   76.0210  221.4680 H   0  0  0  0  0  0  0  0  0  0  0  0
  138.6507   74.7247  220.8096 H   0  0  0  0  0  0  0  0  0  0  0  0
  140.4504   74.3731  220.5926 H   0  0  0  0  0  0  0  0  0  0  0  0
  139.2330   73.9610  223.2940 H   0  0  0  0  0  0  0  0  0  0  0  0
  139.2650   69.8330  222.1442 H   0  0  0  0  0  0  0  0  0  0  0  0
  139.1690   68.3074  224.1157 H   0  0  0  0  0  0  0  0  0  0  0  0
  139.5366   67.9284  226.5389 H   0  0  0  0  0  0  0  0  0  0  0  0
  141.0802   71.1753  228.9594 H   0  0  0  0  0  0  0  0  0  0  0  0
  141.1252   72.5897  226.9018 H   0  0  0  0  0  0  0  0  0  0  0  0
  141.4561   78.5888  220.0427 H   0  0  0  0  0  0  0  0  0  0  0  0
  1  2  1  0
  2  3  1  0
  3  4  2  0
  4  5  1  0
  5  6  2  0
  6  7  1  0
  7  8  1  0
  8  9  1  0
  9 10  2  0
  9 11  1  0
 11 12  1  0
 12 13  1  0
 13 14  2  0
 13 15  1  0
 15 16  2  0
 16 17  1  0
 17 18  2  0
 18 19  1  0
 19 20  2  0
 20 21  1  0
 20 22  1  0
 22 23  2  0
 23 24  1  0
 24 25  2  0
  7 26  2  0
 26  3  1  0
 25 15  1  0
 24 18  1  0
  1 27  1  0
  1 28  1  0
  1 29  1  0
  4 30  1  0
  5 31  1  0
  6 32  1  0
  8 33  1  0
 11 34  1  0
 11 35  1  0
 12 36  1  0
 16 37  1  0
 17 38  1  0
 19 39  1  0
 22 40  1  0
 23 41  1  0
 26 42  1  0
M  END
>  <smiles>  (37) 
COc1cccc(NC(=O)CNC(=O)c2ccc3cc(F)ccc3n2)c1

>  <score_type>  (37) 
oracle

>  <origin>  (37) 
autodockgpu

>  <m_score__min__energy>  (37) 
-8.5399999999999991

>  <m_primary>  (37) 
energy

>  <rmsd>  (37) 
4.05244838760952

>  <m_score__min__rmsd>  (37) 
4.05244838760952

>  <meeko>  (37) 
{"free_energy": -8.28, "intermolecular_energy": -9.77, "internal_energy": -0.96, "cluster_size": 36, "cluster_id": 1, "rank_in_cluster": 13}

>  <energy>  (37) 
-7.33

>  <cluster_rmsd>  (37) 
0.0

>  <cluster>  (37) 
2

$$$$

     RDKit          3D

 42 44  0  0  0  0  0  0  0  0999 V2000
  140.9550   71.7070  227.9340 C   0  0  0  0  0  0  0  0  0  0  0  0
  141.2340   70.6930  227.0130 O   0  0  0  0  0  0  0  0  0  0  0  0
  140.4480   70.4950  225.8850 C   0  0  0  0  0  0  0  0  0  0  0  0
  139.7710   69.2830  225.7140 C   0  0  0  0  0  0  0  0  0  0  0  0
  138.9830   69.0870  224.5770 C   0  0  0  0  0  0  0  0  0  0  0  0
  138.8870   70.1130  223.6300 C   0  0  0  0  0  0  0  0  0  0  0  0
  139.5690   71.2950  223.8340 C   0  0  0  0  0  0  0  0  0  0  0  0
  139.5100   72.3810  222.9040 N   0  0  0  0  0  0  0  0  0  0  0  0
  140.5720   72.4880  221.9780 C   0  0  0  0  0  0  0  0  0  0  0  0
  141.4900   71.6040  222.0470 O   0  0  0  0  0  0  0  0  0  0  0  0
  140.7100   73.5210  220.9470 C   0  0  0  0  0  0  0  0  0  0  0  0
  140.8750   74.8620  221.4200 N   0  0  0  0  0  0  0  0  0  0  0  0
  139.8150   75.6180  222.0150 C   0  0  0  0  0  0  0  0  0  0  0  0
  138.6490   75.1330  222.1660 O   0  0  0  0  0  0  0  0  0  0  0  0
  140.0660   77.0020  222.4720 C   0  0  0  0  0  0  0  0  0  0  0  0
  139.0230   77.8110  222.8230 C   0  0  0  0  0  0  0  0  0  0  0  0
  139.3140   79.1090  223.2480 C   0  0  0  0  0  0  0  0  0  0  0  0
  140.6050   79.5850  223.3200 C   0  0  0  0  0  0  0  0  0  0  0  0
  140.9430   80.8430  223.7270 C   0  0  0  0  0  0  0  0  0  0  0  0
  142.2760   81.2560  223.7760 C   0  0  0  0  0  0  0  0  0  0  0  0
  142.5950   82.5260  224.1880 F   0  0  0  0  0  0  0  0  0  0  0  0
  143.3030   80.3830  223.4040 C   0  0  0  0  0  0  0  0  0  0  0  0
  142.9330   79.1120  222.9950 C   0  0  0  0  0  0  0  0  0  0  0  0
  141.6150   78.7240  222.9540 C   0  0  0  0  0  0  0  0  0  0  0  0
  141.3270   77.4780  222.5460 N   0  0  0  0  0  0  0  0  0  0  0  0
  140.3610   71.5130  224.9580 C   0  0  0  0  0  0  0  0  0  0  0  0
  141.0631   71.3142  228.9558 H   0  0  0  0  0  0  0  0  0  0  0  0
  141.6572   72.5406  227.7855 H   0  0  0  0  0  0  0  0  0  0  0  0
  139.9252   72.0641  227.7855 H   0  0  0  0  0  0  0  0  0  0  0  0
  139.8585   68.4889  226.4702 H   0  0  0  0  0  0  0  0  0  0  0  0
  138.4453   68.1390  224.4281 H   0  0  0  0  0  0  0  0  0  0  0  0
  138.2715   69.9779  222.7284 H   0  0  0  0  0  0  0  0  0  0  0  0
  138.7270   73.0670  222.8880 H   0  0  0  0  0  0  0  0  0  0  0  0
  141.5884   73.2698  220.3344 H   0  0  0  0  0  0  0  0  0  0  0  0
  139.7592   73.5167  220.3939 H   0  0  0  0  0  0  0  0  0  0  0  0
  141.8020   75.3790  221.3550 H   0  0  0  0  0  0  0  0  0  0  0  0
  137.9848   77.4509  222.7724 H   0  0  0  0  0  0  0  0  0  0  0  0
  138.4854   79.7732  223.5347 H   0  0  0  0  0  0  0  0  0  0  0  0
  140.1497   81.5455  224.0223 H   0  0  0  0  0  0  0  0  0  0  0  0
  144.3583   80.6918  223.4347 H   0  0  0  0  0  0  0  0  0  0  0  0
  143.7128   78.3962  222.6959 H   0  0  0  0  0  0  0  0  0  0  0  0
  140.8978   72.4623  225.1017 H   0  0  0  0  0  0  0  0  0  0  0  0
  1  2  1  0
  2  3  1  0
  3  4  2  0
  4  5  1  0
  5  6  2  0
  6  7  1  0
  7  8  1  0
  8  9  1  0
  9 10  2  0
  9 11  1  0
 11 12  1  0
 12 13  1  0
 13 14  2  0
 13 15  1  0
 15 16  2  0
 16 17  1  0
 17 18  2  0
 18 19  1  0
 19 20  2  0
 20 21  1  0
 20 22  1  0
 22 23  2  0
 23 24  1  0
 24 25  2  0
  7 26  2  0
 26  3  1  0
 25 15  1  0
 24 18  1  0
  1 27  1  0
  1 28  1  0
  1 29  1  0
  4 30  1  0
  5 31  1  0
  6 32  1  0
  8 33  1  0
 11 34  1  0
 11 35  1  0
 12 36  1  0
 16 37  1  0
 17 38  1  0
 19 39  1  0
 22 40  1  0
 23 41  1  0
 26 42  1  0
M  END
>  <smiles>  (38) 
COc1cccc(NC(=O)CNC(=O)c2ccc3cc(F)ccc3n2)c1

>  <score_type>  (38) 
oracle

>  <origin>  (38) 
autodockgpu

>  <m_score__min__energy>  (38) 
-8.5399999999999991

>  <m_primary>  (38) 
energy

>  <rmsd>  (38) 
10.697277896437551

>  <m_score__min__rmsd>  (38) 
10.697277896437551

>  <meeko>  (38) 
{"free_energy": -7.2, "intermolecular_energy": -8.69, "internal_energy": -1.88, "cluster_size": 13, "cluster_id": 2, "rank_in_cluster": 11}

>  <energy>  (38) 
-7.33

>  <cluster_rmsd>  (38) 
0.12

>  <cluster>  (38) 
2

$$$$

     RDKit          3D

 42 44  0  0  0  0  0  0  0  0999 V2000
  143.0230   80.3720  222.9310 C   0  0  0  0  0  0  0  0  0  0  0  0
  142.2310   79.5830  223.7700 O   0  0  0  0  0  0  0  0  0  0  0  0
  141.0660   78.9790  223.3180 C   0  0  0  0  0  0  0  0  0  0  0  0
  139.9110   79.7460  223.1350 C   0  0  0  0  0  0  0  0  0  0  0  0
  138.7400   79.1340  222.6810 C   0  0  0  0  0  0  0  0  0  0  0  0
  138.7480   77.7600  222.4180 C   0  0  0  0  0  0  0  0  0  0  0  0
  139.9070   77.0360  222.6100 C   0  0  0  0  0  0  0  0  0  0  0  0
  139.9800   75.6290  222.3570 N   0  0  0  0  0  0  0  0  0  0  0  0
  140.8540   75.2080  221.3300 C   0  0  0  0  0  0  0  0  0  0  0  0
  141.5080   76.1180  220.7180 O   0  0  0  0  0  0  0  0  0  0  0  0
  141.0770   73.8220  220.9060 C   0  0  0  0  0  0  0  0  0  0  0  0
  141.0520   72.8370  221.9440 N   0  0  0  0  0  0  0  0  0  0  0  0
  139.8560   72.4570  222.6350 C   0  0  0  0  0  0  0  0  0  0  0  0
  138.7290   72.9770  222.3580 O   0  0  0  0  0  0  0  0  0  0  0  0
  139.9170   71.4360  223.7020 C   0  0  0  0  0  0  0  0  0  0  0  0
  139.4840   70.1630  223.4630 C   0  0  0  0  0  0  0  0  0  0  0  0
  139.5630   69.2360  224.5040 C   0  0  0  0  0  0  0  0  0  0  0  0
  140.0580   69.5690  225.7460 C   0  0  0  0  0  0  0  0  0  0  0  0
  140.1570   68.7030  226.7970 C   0  0  0  0  0  0  0  0  0  0  0  0
  140.6710   69.1120  228.0280 C   0  0  0  0  0  0  0  0  0  0  0  0
  140.7610   68.2250  229.0720 F   0  0  0  0  0  0  0  0  0  0  0  0
  141.1000   70.4300  228.2160 C   0  0  0  0  0  0  0  0  0  0  0  0
  140.9890   71.2890  227.1340 C   0  0  0  0  0  0  0  0  0  0  0  0
  140.4800   70.8660  225.9290 C   0  0  0  0  0  0  0  0  0  0  0  0
  140.4000   71.7520  224.9230 N   0  0  0  0  0  0  0  0  0  0  0  0
  141.0860   77.6240  223.0610 C   0  0  0  0  0  0  0  0  0  0  0  0
  143.6718   81.0183  223.5404 H   0  0  0  0  0  0  0  0  0  0  0  0
  143.6441   79.7230  222.2962 H   0  0  0  0  0  0  0  0  0  0  0  0
  142.3764   80.9956  222.2962 H   0  0  0  0  0  0  0  0  0  0  0  0
  139.9244   80.8252  223.3473 H   0  0  0  0  0  0  0  0  0  0  0  0
  137.8240   79.7246  222.5323 H   0  0  0  0  0  0  0  0  0  0  0  0
  137.8359   77.2598  222.0603 H   0  0  0  0  0  0  0  0  0  0  0  0
  139.4300   74.9300  222.8980 H   0  0  0  0  0  0  0  0  0  0  0  0
  140.2948   73.5629  220.1772 H   0  0  0  0  0  0  0  0  0  0  0  0
  142.0982   73.7972  220.4979 H   0  0  0  0  0  0  0  0  0  0  0  0
  141.9270   72.3260  222.2670 H   0  0  0  0  0  0  0  0  0  0  0  0
  139.0846   69.8764  222.4790 H   0  0  0  0  0  0  0  0  0  0  0  0
  139.2189   68.2063  224.3269 H   0  0  0  0  0  0  0  0  0  0  0  0
  139.8249   67.6620  226.6707 H   0  0  0  0  0  0  0  0  0  0  0  0
  141.5074   70.7696  229.1797 H   0  0  0  0  0  0  0  0  0  0  0  0
  141.3158   72.3338  227.2419 H   0  0  0  0  0  0  0  0  0  0  0  0
  141.9999   77.0295  223.2070 H   0  0  0  0  0  0  0  0  0  0  0  0
  1  2  1  0
  2  3  1  0
  3  4  2  0
  4  5  1  0
  5  6  2  0
  6  7  1  0
  7  8  1  0
  8  9  1  0
  9 10  2  0
  9 11  1  0
 11 12  1  0
 12 13  1  0
 13 14  2  0
 13 15  1  0
 15 16  2  0
 16 17  1  0
 17 18  2  0
 18 19  1  0
 19 20  2  0
 20 21  1  0
 20 22  1  0
 22 23  2  0
 23 24  1  0
 24 25  2  0
  7 26  2  0
 26  3  1  0
 25 15  1  0
 24 18  1  0
  1 27  1  0
  1 28  1  0
  1 29  1  0
  4 30  1  0
  5 31  1  0
  6 32  1  0
  8 33  1  0
 11 34  1  0
 11 35  1  0
 12 36  1  0
 16 37  1  0
 17 38  1  0
 19 39  1  0
 22 40  1  0
 23 41  1  0
 26 42  1  0
M  END
>  <smiles>  (39) 
COc1cccc(NC(=O)CNC(=O)c2ccc3cc(F)ccc3n2)c1

>  <score_type>  (39) 
oracle

>  <origin>  (39) 
autodockgpu

>  <m_score__min__energy>  (39) 
-8.5399999999999991

>  <m_primary>  (39) 
energy

>  <rmsd>  (39) 
4.784039163551927

>  <m_score__min__rmsd>  (39) 
4.784039163551927

>  <meeko>  (39) 
{"free_energy": -7.37, "intermolecular_energy": -8.86, "internal_energy": -1.54, "cluster_size": 36, "cluster_id": 1, "rank_in_cluster": 32}

>  <energy>  (39) 
-7.32

>  <cluster_rmsd>  (39) 
0.16

>  <cluster>  (39) 
2

$$$$

     RDKit          3D

 42 44  0  0  0  0  0  0  0  0999 V2000
  140.6900   82.6980  220.9650 C   0  0  0  0  0  0  0  0  0  0  0  0
  141.4200   81.5310  220.7280 O   0  0  0  0  0  0  0  0  0  0  0  0
  141.4680   80.4980  221.6550 C   0  0  0  0  0  0  0  0  0  0  0  0
  141.5770   80.7930  223.0180 C   0  0  0  0  0  0  0  0  0  0  0  0
  141.6250   79.7520  223.9490 C   0  0  0  0  0  0  0  0  0  0  0  0
  141.5630   78.4300  223.4940 C   0  0  0  0  0  0  0  0  0  0  0  0
  141.4560   78.1780  222.1410 C   0  0  0  0  0  0  0  0  0  0  0  0
  141.3870   76.8490  221.6140 N   0  0  0  0  0  0  0  0  0  0  0  0
  140.1540   76.1720  221.7450 C   0  0  0  0  0  0  0  0  0  0  0  0
  139.2050   76.8060  222.3170 O   0  0  0  0  0  0  0  0  0  0  0  0
  139.8680   74.8110  221.2820 C   0  0  0  0  0  0  0  0  0  0  0  0
  139.6870   73.8260  222.3030 N   0  0  0  0  0  0  0  0  0  0  0  0
  140.4670   72.6260  222.3820 C   0  0  0  0  0  0  0  0  0  0  0  0
  141.3840   72.3670  221.5390 O   0  0  0  0  0  0  0  0  0  0  0  0
  140.2120   71.6540  223.4660 C   0  0  0  0  0  0  0  0  0  0  0  0
  139.5210   70.5040  223.2110 C   0  0  0  0  0  0  0  0  0  0  0  0
  139.3060   69.6180  224.2690 C   0  0  0  0  0  0  0  0  0  0  0  0
  139.7670   69.8720  225.5420 C   0  0  0  0  0  0  0  0  0  0  0  0
  139.5850   69.0420  226.6100 C   0  0  0  0  0  0  0  0  0  0  0  0
  140.0820   69.3650  227.8730 C   0  0  0  0  0  0  0  0  0  0  0  0
  139.8880   68.5160  228.9340 F   0  0  0  0  0  0  0  0  0  0  0  0
  140.7840   70.5580  228.0760 C   0  0  0  0  0  0  0  0  0  0  0  0
  140.9550   71.3830  226.9760 C   0  0  0  0  0  0  0  0  0  0  0  0
  140.4570   71.0460  225.7390 C   0  0  0  0  0  0  0  0  0  0  0  0
  140.6590   71.8930  224.7170 N   0  0  0  0  0  0  0  0  0  0  0  0
  141.4060   79.1990  221.1960 C   0  0  0  0  0  0  0  0  0  0  0  0
  140.5917   82.8552  222.0493 H   0  0  0  0  0  0  0  0  0  0  0  0
  141.2132   83.5553  220.5162 H   0  0  0  0  0  0  0  0  0  0  0  0
  139.6903   82.6026  220.5162 H   0  0  0  0  0  0  0  0  0  0  0  0
  141.6247   81.8389  223.3552 H   0  0  0  0  0  0  0  0  0  0  0  0
  141.7103   79.9685  225.0241 H   0  0  0  0  0  0  0  0  0  0  0  0
  141.5993   77.5962  224.2106 H   0  0  0  0  0  0  0  0  0  0  0  0
  142.1940   76.3870  221.1460 H   0  0  0  0  0  0  0  0  0  0  0  0
  138.9470   74.8464  220.6816 H   0  0  0  0  0  0  0  0  0  0  0  0
  140.7598   74.4954  220.7206 H   0  0  0  0  0  0  0  0  0  0  0  0
  138.9560   73.9260  223.0690 H   0  0  0  0  0  0  0  0  0  0  0  0
  139.1446   70.2820  222.2015 H   0  0  0  0  0  0  0  0  0  0  0  0
  138.7507   68.6875  224.0797 H   0  0  0  0  0  0  0  0  0  0  0  0
  139.0353   68.0992  226.4722 H   0  0  0  0  0  0  0  0  0  0  0  0
  141.1824   70.8290  229.0648 H   0  0  0  0  0  0  0  0  0  0  0  0
  141.5020   72.3299  227.0948 H   0  0  0  0  0  0  0  0  0  0  0  0
  141.3202   78.9776  220.1219 H   0  0  0  0  0  0  0  0  0  0  0  0
  1  2  1  0
  2  3  1  0
  3  4  2  0
  4  5  1  0
  5  6  2  0
  6  7  1  0
  7  8  1  0
  8  9  1  0
  9 10  2  0
  9 11  1  0
 11 12  1  0
 12 13  1  0
 13 14  2  0
 13 15  1  0
 15 16  2  0
 16 17  1  0
 17 18  2  0
 18 19  1  0
 19 20  2  0
 20 21  1  0
 20 22  1  0
 22 23  2  0
 23 24  1  0
 24 25  2  0
  7 26  2  0
 26  3  1  0
 25 15  1  0
 24 18  1  0
  1 27  1  0
  1 28  1  0
  1 29  1  0
  4 30  1  0
  5 31  1  0
  6 32  1  0
  8 33  1  0
 11 34  1  0
 11 35  1  0
 12 36  1  0
 16 37  1  0
 17 38  1  0
 19 39  1  0
 22 40  1  0
 23 41  1  0
 26 42  1  0
M  END
>  <smiles>  (40) 
COc1cccc(NC(=O)CNC(=O)c2ccc3cc(F)ccc3n2)c1

>  <score_type>  (40) 
oracle

>  <origin>  (40) 
autodockgpu

>  <m_score__min__energy>  (40) 
-8.5399999999999991

>  <m_primary>  (40) 
energy

>  <rmsd>  (40) 
3.8013952121549583

>  <m_score__min__rmsd>  (40) 
3.8013952121549583

>  <meeko>  (40) 
{"free_energy": -8.44, "intermolecular_energy": -9.93, "internal_energy": -0.88, "cluster_size": 36, "cluster_id": 1, "rank_in_cluster": 6}

>  <energy>  (40) 
-7.32

>  <cluster_rmsd>  (40) 
0.18

>  <cluster>  (40) 
2

$$$$

     RDKit          3D

 42 44  0  0  0  0  0  0  0  0999 V2000
  142.0310   80.3350  219.0480 C   0  0  0  0  0  0  0  0  0  0  0  0
  141.8360   80.8590  220.3290 O   0  0  0  0  0  0  0  0  0  0  0  0
  141.7070   80.0380  221.4410 C   0  0  0  0  0  0  0  0  0  0  0  0
  141.7270   80.5960  222.7240 C   0  0  0  0  0  0  0  0  0  0  0  0
  141.5980   79.7670  223.8410 C   0  0  0  0  0  0  0  0  0  0  0  0
  141.4500   78.3880  223.6510 C   0  0  0  0  0  0  0  0  0  0  0  0
  141.4350   77.8740  222.3710 C   0  0  0  0  0  0  0  0  0  0  0  0
  141.2860   76.4740  222.1120 N   0  0  0  0  0  0  0  0  0  0  0  0
  140.0920   76.0650  221.4760 C   0  0  0  0  0  0  0  0  0  0  0  0
  139.2500   76.9790  221.1830 O   0  0  0  0  0  0  0  0  0  0  0  0
  139.7360   74.6870  221.1240 C   0  0  0  0  0  0  0  0  0  0  0  0
  139.6190   73.7700  222.2160 N   0  0  0  0  0  0  0  0  0  0  0  0
  140.2400   72.4790  222.2250 C   0  0  0  0  0  0  0  0  0  0  0  0
  140.9470   72.0700  221.2500 O   0  0  0  0  0  0  0  0  0  0  0  0
  140.0640   71.5870  223.3900 C   0  0  0  0  0  0  0  0  0  0  0  0
  139.3480   70.4310  223.2710 C   0  0  0  0  0  0  0  0  0  0  0  0
  139.2110   69.6230  224.4020 C   0  0  0  0  0  0  0  0  0  0  0  0
  139.7720   69.9590  225.6150 C   0  0  0  0  0  0  0  0  0  0  0  0
  139.6690   69.2070  226.7490 C   0  0  0  0  0  0  0  0  0  0  0  0
  140.2660   69.6110  227.9440 C   0  0  0  0  0  0  0  0  0  0  0  0
  140.1500   68.8400  229.0740 F   0  0  0  0  0  0  0  0  0  0  0  0
  140.9900   70.8070  228.0070 C   0  0  0  0  0  0  0  0  0  0  0  0
  141.0790   71.5520  226.8420 C   0  0  0  0  0  0  0  0  0  0  0  0
  140.4840   71.1360  225.6750 C   0  0  0  0  0  0  0  0  0  0  0  0
  140.6100   71.9070  224.5840 N   0  0  0  0  0  0  0  0  0  0  0  0
  141.5620   78.6800  221.2430 C   0  0  0  0  0  0  0  0  0  0  0  0
  142.4137   79.3067  219.1268 H   0  0  0  0  0  0  0  0  0  0  0  0
  141.0747   80.3297  218.5045 H   0  0  0  0  0  0  0  0  0  0  0  0
  142.7582   80.9562  218.5045 H   0  0  0  0  0  0  0  0  0  0  0  0
  141.8437   81.6822  222.8525 H   0  0  0  0  0  0  0  0  0  0  0  0
  141.6125   80.1918  224.8555 H   0  0  0  0  0  0  0  0  0  0  0  0
  141.3463   77.7182  224.5174 H   0  0  0  0  0  0  0  0  0  0  0  0
  142.0140   75.7740  222.3640 H   0  0  0  0  0  0  0  0  0  0  0  0
  138.7685   74.7126  220.6012 H   0  0  0  0  0  0  0  0  0  0  0  0
  140.5696   74.3131  220.5113 H   0  0  0  0  0  0  0  0  0  0  0  0
  139.0590   73.9950  223.0920 H   0  0  0  0  0  0  0  0  0  0  0  0
  138.8920   70.1440  222.3120 H   0  0  0  0  0  0  0  0  0  0  0  0
  138.6367   68.6882  224.3219 H   0  0  0  0  0  0  0  0  0  0  0  0
  139.1041   68.2635  226.7207 H   0  0  0  0  0  0  0  0  0  0  0  0
  141.4673   71.1409  228.9401 H   0  0  0  0  0  0  0  0  0  0  0  0
  141.6391   72.4987  226.8514 H   0  0  0  0  0  0  0  0  0  0  0  0
  141.5473   78.2500  220.2306 H   0  0  0  0  0  0  0  0  0  0  0  0
  1  2  1  0
  2  3  1  0
  3  4  2  0
  4  5  1  0
  5  6  2  0
  6  7  1  0
  7  8  1  0
  8  9  1  0
  9 10  2  0
  9 11  1  0
 11 12  1  0
 12 13  1  0
 13 14  2  0
 13 15  1  0
 15 16  2  0
 16 17  1  0
 17 18  2  0
 18 19  1  0
 19 20  2  0
 20 21  1  0
 20 22  1  0
 22 23  2  0
 23 24  1  0
 24 25  2  0
  7 26  2  0
 26  3  1  0
 25 15  1  0
 24 18  1  0
  1 27  1  0
  1 28  1  0
  1 29  1  0
  4 30  1  0
  5 31  1  0
  6 32  1  0
  8 33  1  0
 11 34  1  0
 11 35  1  0
 12 36  1  0
 16 37  1  0
 17 38  1  0
 19 39  1  0
 22 40  1  0
 23 41  1  0
 26 42  1  0
M  END
>  <smiles>  (41) 
COc1cccc(NC(=O)CNC(=O)c2ccc3cc(F)ccc3n2)c1

>  <score_type>  (41) 
oracle

>  <origin>  (41) 
autodockgpu

>  <m_score__min__energy>  (41) 
-8.5399999999999991

>  <m_primary>  (41) 
energy

>  <rmsd>  (41) 
4.167536997758373

>  <m_score__min__rmsd>  (41) 
4.167536997758373

>  <meeko>  (41) 
{"free_energy": -8.32, "intermolecular_energy": -9.81, "internal_energy": -0.84, "cluster_size": 36, "cluster_id": 1, "rank_in_cluster": 10}

>  <energy>  (41) 
-7.31

>  <cluster_rmsd>  (41) 
0.1

>  <cluster>  (41) 
2

$$$$

     RDKit          3D

 42 44  0  0  0  0  0  0  0  0999 V2000
  140.8560   71.6270  227.9650 C   0  0  0  0  0  0  0  0  0  0  0  0
  140.7910   70.4620  227.1960 O   0  0  0  0  0  0  0  0  0  0  0  0
  140.1690   70.4390  225.9550 C   0  0  0  0  0  0  0  0  0  0  0  0
  139.3960   69.3340  225.5850 C   0  0  0  0  0  0  0  0  0  0  0  0
  138.7720   69.3140  224.3350 C   0  0  0  0  0  0  0  0  0  0  0  0
  138.9350   70.4070  223.4760 C   0  0  0  0  0  0  0  0  0  0  0  0
  139.7060   71.4800  223.8760 C   0  0  0  0  0  0  0  0  0  0  0  0
  139.9090   72.6260  223.0440 N   0  0  0  0  0  0  0  0  0  0  0  0
  140.6820   72.4400  221.8760 C   0  0  0  0  0  0  0  0  0  0  0  0
  141.1280   71.2630  221.6600 O   0  0  0  0  0  0  0  0  0  0  0  0
  141.0140   73.4750  220.8920 C   0  0  0  0  0  0  0  0  0  0  0  0
  141.1170   74.8090  221.3960 N   0  0  0  0  0  0  0  0  0  0  0  0
  139.9900   75.5590  221.8650 C   0  0  0  0  0  0  0  0  0  0  0  0
  138.8150   75.0720  221.8660 O   0  0  0  0  0  0  0  0  0  0  0  0
  140.1810   76.9380  222.3640 C   0  0  0  0  0  0  0  0  0  0  0  0
  139.1060   77.6810  222.7620 C   0  0  0  0  0  0  0  0  0  0  0  0
  139.3400   78.9770  223.2260 C   0  0  0  0  0  0  0  0  0  0  0  0
  140.6070   79.5150  223.2900 C   0  0  0  0  0  0  0  0  0  0  0  0
  140.8900   80.7750  223.7340 C   0  0  0  0  0  0  0  0  0  0  0  0
  142.2010   81.2520  223.7730 C   0  0  0  0  0  0  0  0  0  0  0  0
  142.4640   82.5220  224.2230 F   0  0  0  0  0  0  0  0  0  0  0  0
  143.2630   80.4450  223.3530 C   0  0  0  0  0  0  0  0  0  0  0  0
  142.9490   79.1710  222.9070 C   0  0  0  0  0  0  0  0  0  0  0  0
  141.6510   78.7190  222.8770 C   0  0  0  0  0  0  0  0  0  0  0  0
  141.4180   77.4750  222.4320 N   0  0  0  0  0  0  0  0  0  0  0  0
  140.3360   71.5220  225.1170 C   0  0  0  0  0  0  0  0  0  0  0  0
  140.8413   71.3629  229.0327 H   0  0  0  0  0  0  0  0  0  0  0  0
  141.7857   72.1676  227.7338 H   0  0  0  0  0  0  0  0  0  0  0  0
  139.9922   72.2676  227.7338 H   0  0  0  0  0  0  0  0  0  0  0  0
  139.2798   68.4849  226.2745 H   0  0  0  0  0  0  0  0  0  0  0  0
  138.1612   68.4514  224.0303 H   0  0  0  0  0  0  0  0  0  0  0  0
  138.4516   70.4110  222.4879 H   0  0  0  0  0  0  0  0  0  0  0  0
  139.5090   73.5620  223.2660 H   0  0  0  0  0  0  0  0  0  0  0  0
  141.9809   73.2108  220.4389 H   0  0  0  0  0  0  0  0  0  0  0  0
  140.1736   73.4901  220.1825 H   0  0  0  0  0  0  0  0  0  0  0  0
  142.0440   75.3280  221.4520 H   0  0  0  0  0  0  0  0  0  0  0  0
  138.0864   77.2705  222.7182 H   0  0  0  0  0  0  0  0  0  0  0  0
  138.4852   79.5883  223.5510 H   0  0  0  0  0  0  0  0  0  0  0  0
  140.0688   81.4266  224.0673 H   0  0  0  0  0  0  0  0  0  0  0  0
  144.3020   80.8056  223.3756 H   0  0  0  0  0  0  0  0  0  0  0  0
  143.7573   78.5058  222.5691 H   0  0  0  0  0  0  0  0  0  0  0  0
  140.9447   72.3873  225.4182 H   0  0  0  0  0  0  0  0  0  0  0  0
  1  2  1  0
  2  3  1  0
  3  4  2  0
  4  5  1  0
  5  6  2  0
  6  7  1  0
  7  8  1  0
  8  9  1  0
  9 10  2  0
  9 11  1  0
 11 12  1  0
 12 13  1  0
 13 14  2  0
 13 15  1  0
 15 16  2  0
 16 17  1  0
 17 18  2  0
 18 19  1  0
 19 20  2  0
 20 21  1  0
 20 22  1  0
 22 23  2  0
 23 24  1  0
 24 25  2  0
  7 26  2  0
 26  3  1  0
 25 15  1  0
 24 18  1  0
  1 27  1  0
  1 28  1  0
  1 29  1  0
  4 30  1  0
  5 31  1  0
  6 32  1  0
  8 33  1  0
 11 34  1  0
 11 35  1  0
 12 36  1  0
 16 37  1  0
 17 38  1  0
 19 39  1  0
 22 40  1  0
 23 41  1  0
 26 42  1  0
M  END
>  <smiles>  (42) 
COc1cccc(NC(=O)CNC(=O)c2ccc3cc(F)ccc3n2)c1

>  <score_type>  (42) 
oracle

>  <origin>  (42) 
autodockgpu

>  <m_score__min__energy>  (42) 
-8.5399999999999991

>  <m_primary>  (42) 
energy

>  <rmsd>  (42) 
10.65827883115842

>  <m_score__min__rmsd>  (42) 
10.65827883115842

>  <meeko>  (42) 
{"free_energy": -7.24, "intermolecular_energy": -8.73, "internal_energy": -1.88, "cluster_size": 13, "cluster_id": 2, "rank_in_cluster": 9}

>  <energy>  (42) 
-7.3

>  <cluster_rmsd>  (42) 
0.14

>  <cluster>  (42) 
2

$$$$

     RDKit          3D

 42 44  0  0  0  0  0  0  0  0999 V2000
  141.3330   71.6550  228.3470 C   0  0  0  0  0  0  0  0  0  0  0  0
  141.3330   70.2580  228.3690 O   0  0  0  0  0  0  0  0  0  0  0  0
  140.7650   69.5120  227.3450 C   0  0  0  0  0  0  0  0  0  0  0  0
  140.5210   68.1470  227.5320 C   0  0  0  0  0  0  0  0  0  0  0  0
  139.9500   67.3990  226.4990 C   0  0  0  0  0  0  0  0  0  0  0  0
  139.6330   68.0350  225.2930 C   0  0  0  0  0  0  0  0  0  0  0  0
  139.8890   69.3830  225.1460 C   0  0  0  0  0  0  0  0  0  0  0  0
  139.5870   70.0900  223.9380 N   0  0  0  0  0  0  0  0  0  0  0  0
  138.2760   70.6030  223.8090 C   0  0  0  0  0  0  0  0  0  0  0  0
  137.4760   70.3960  224.7810 O   0  0  0  0  0  0  0  0  0  0  0  0
  137.7570   71.3510  222.6590 C   0  0  0  0  0  0  0  0  0  0  0  0
  138.3950   72.6010  222.3850 N   0  0  0  0  0  0  0  0  0  0  0  0
  139.7170   72.7040  221.8420 C   0  0  0  0  0  0  0  0  0  0  0  0
  140.4090   71.6730  221.5630 O   0  0  0  0  0  0  0  0  0  0  0  0
  140.3090   74.0360  221.5940 C   0  0  0  0  0  0  0  0  0  0  0  0
  141.3650   74.1730  220.7390 C   0  0  0  0  0  0  0  0  0  0  0  0
  141.8860   75.4530  220.5400 C   0  0  0  0  0  0  0  0  0  0  0  0
  141.3700   76.5620  221.1740 C   0  0  0  0  0  0  0  0  0  0  0  0
  141.8420   77.8330  221.0140 C   0  0  0  0  0  0  0  0  0  0  0  0
  141.2670   78.9100  221.6900 C   0  0  0  0  0  0  0  0  0  0  0  0
  141.7560   80.1810  221.5160 F   0  0  0  0  0  0  0  0  0  0  0  0
  140.1850   78.7100  222.5540 C   0  0  0  0  0  0  0  0  0  0  0  0
  139.7250   77.4110  222.6980 C   0  0  0  0  0  0  0  0  0  0  0  0
  140.3060   76.3630  222.0230 C   0  0  0  0  0  0  0  0  0  0  0  0
  139.8100   75.1300  222.2100 N   0  0  0  0  0  0  0  0  0  0  0  0
  140.4570   70.1480  226.1610 C   0  0  0  0  0  0  0  0  0  0  0  0
  142.3701   72.0216  228.3412 H   0  0  0  0  0  0  0  0  0  0  0  0
  140.8144   72.0075  227.4432 H   0  0  0  0  0  0  0  0  0  0  0  0
  140.8144   72.0358  229.2393 H   0  0  0  0  0  0  0  0  0  0  0  0
  140.7773   67.6653  228.4871 H   0  0  0  0  0  0  0  0  0  0  0  0
  139.7523   66.3251  226.6317 H   0  0  0  0  0  0  0  0  0  0  0  0
  139.1827   67.4639  224.4677 H   0  0  0  0  0  0  0  0  0  0  0  0
  140.2870   70.2380  223.1820 H   0  0  0  0  0  0  0  0  0  0  0  0
  137.8649   70.7155  221.7676 H   0  0  0  0  0  0  0  0  0  0  0  0
  136.7155   71.5986  222.9117 H   0  0  0  0  0  0  0  0  0  0  0  0
  137.9220   73.5360  222.5700 H   0  0  0  0  0  0  0  0  0  0  0  0
  141.7924   73.3009  220.2225 H   0  0  0  0  0  0  0  0  0  0  0  0
  142.7367   75.5802  219.8543 H   0  0  0  0  0  0  0  0  0  0  0  0
  142.6921   78.0116  220.3391 H   0  0  0  0  0  0  0  0  0  0  0  0
  139.7199   79.5472  223.0952 H   0  0  0  0  0  0  0  0  0  0  0  0
  138.8752   77.2133  223.3679 H   0  0  0  0  0  0  0  0  0  0  0  0
  140.6531   71.2216  226.0233 H   0  0  0  0  0  0  0  0  0  0  0  0
  1  2  1  0
  2  3  1  0
  3  4  2  0
  4  5  1  0
  5  6  2  0
  6  7  1  0
  7  8  1  0
  8  9  1  0
  9 10  2  0
  9 11  1  0
 11 12  1  0
 12 13  1  0
 13 14  2  0
 13 15  1  0
 15 16  2  0
 16 17  1  0
 17 18  2  0
 18 19  1  0
 19 20  2  0
 20 21  1  0
 20 22  1  0
 22 23  2  0
 23 24  1  0
 24 25  2  0
  7 26  2  0
 26  3  1  0
 25 15  1  0
 24 18  1  0
  1 27  1  0
  1 28  1  0
  1 29  1  0
  4 30  1  0
  5 31  1  0
  6 32  1  0
  8 33  1  0
 11 34  1  0
 11 35  1  0
 12 36  1  0
 16 37  1  0
 17 38  1  0
 19 39  1  0
 22 40  1  0
 23 41  1  0
 26 42  1  0
M  END
>  <smiles>  (43) 
COc1cccc(NC(=O)CNC(=O)c2ccc3cc(F)ccc3n2)c1

>  <score_type>  (43) 
oracle

>  <origin>  (43) 
autodockgpu

>  <m_score__min__energy>  (43) 
-8.5399999999999991

>  <m_primary>  (43) 
energy

>  <rmsd>  (43) 
11.11541837052154

>  <m_score__min__rmsd>  (43) 
11.11541837052154

>  <meeko>  (43) 
{"free_energy": -6.75, "intermolecular_energy": -8.24, "internal_energy": -1.86, "cluster_size": 1, "cluster_id": 3, "rank_in_cluster": 1}

>  <energy>  (43) 
-7.29

>  <cluster_rmsd>  (43) 
0.26

>  <cluster>  (43) 
2

$$$$

     RDKit          3D

 42 44  0  0  0  0  0  0  0  0999 V2000
  142.3120   80.1710  221.9120 C   0  0  0  0  0  0  0  0  0  0  0  0
  141.7750   79.4410  222.9750 O   0  0  0  0  0  0  0  0  0  0  0  0
  140.5150   78.8630  222.9010 C   0  0  0  0  0  0  0  0  0  0  0  0
  139.3750   79.6650  223.0190 C   0  0  0  0  0  0  0  0  0  0  0  0
  138.1080   79.0800  222.9450 C   0  0  0  0  0  0  0  0  0  0  0  0
  138.0070   77.6970  222.7540 C   0  0  0  0  0  0  0  0  0  0  0  0
  139.1550   76.9390  222.6420 C   0  0  0  0  0  0  0  0  0  0  0  0
  139.1180   75.5210  222.4450 N   0  0  0  0  0  0  0  0  0  0  0  0
  138.4360   75.0530  221.2990 C   0  0  0  0  0  0  0  0  0  0  0  0
  137.9160   75.9340  220.5350 O   0  0  0  0  0  0  0  0  0  0  0  0
  138.2750   73.6490  220.9100 C   0  0  0  0  0  0  0  0  0  0  0  0
  138.4580   72.6850  221.9520 N   0  0  0  0  0  0  0  0  0  0  0  0
  139.7050   72.4920  222.6300 C   0  0  0  0  0  0  0  0  0  0  0  0
  140.7360   73.1810  222.3460 O   0  0  0  0  0  0  0  0  0  0  0  0
  139.8140   71.4680  223.6910 C   0  0  0  0  0  0  0  0  0  0  0  0
  139.4260   70.1810  223.4490 C   0  0  0  0  0  0  0  0  0  0  0  0
  139.5490   69.2520  224.4850 C   0  0  0  0  0  0  0  0  0  0  0  0
  140.0430   69.5970  225.7240 C   0  0  0  0  0  0  0  0  0  0  0  0
  140.1830   68.7310  226.7690 C   0  0  0  0  0  0  0  0  0  0  0  0
  140.6940   69.1520  227.9980 C   0  0  0  0  0  0  0  0  0  0  0  0
  140.8270   68.2640  229.0360 F   0  0  0  0  0  0  0  0  0  0  0  0
  141.0760   70.4840  228.1880 C   0  0  0  0  0  0  0  0  0  0  0  0
  140.9230   71.3440  227.1120 C   0  0  0  0  0  0  0  0  0  0  0  0
  140.4180   70.9090  225.9090 C   0  0  0  0  0  0  0  0  0  0  0  0
  140.2970   71.7950  224.9090 N   0  0  0  0  0  0  0  0  0  0  0  0
  140.4270   77.4990  222.7130 C   0  0  0  0  0  0  0  0  0  0  0  0
  142.9206   80.9983  222.3058 H   0  0  0  0  0  0  0  0  0  0  0  0
  142.9426   79.5125  221.2966 H   0  0  0  0  0  0  0  0  0  0  0  0
  141.4956   80.5770  221.2966 H   0  0  0  0  0  0  0  0  0  0  0  0
  139.4753   80.7501  223.1692 H   0  0  0  0  0  0  0  0  0  0  0  0
  137.2025   79.6979  223.0356 H   0  0  0  0  0  0  0  0  0  0  0  0
  137.0190   77.2173  222.6935 H   0  0  0  0  0  0  0  0  0  0  0  0
  139.5720   74.8500  223.0980 H   0  0  0  0  0  0  0  0  0  0  0  0
  137.2574   73.5247  220.5112 H   0  0  0  0  0  0  0  0  0  0  0  0
  139.0721   73.4503  220.1784 H   0  0  0  0  0  0  0  0  0  0  0  0
  137.6740   72.0490  222.2850 H   0  0  0  0  0  0  0  0  0  0  0  0
  139.0283   69.8847  222.4671 H   0  0  0  0  0  0  0  0  0  0  0  0
  139.2414   68.2112  224.3057 H   0  0  0  0  0  0  0  0  0  0  0  0
  139.8871   67.6794  226.6404 H   0  0  0  0  0  0  0  0  0  0  0  0
  141.4802   70.8337  229.1494 H   0  0  0  0  0  0  0  0  0  0  0  0
  141.2123   72.3995  227.2228 H   0  0  0  0  0  0  0  0  0  0  0  0
  141.3296   76.8767  222.6225 H   0  0  0  0  0  0  0  0  0  0  0  0
  1  2  1  0
  2  3  1  0
  3  4  2  0
  4  5  1  0
  5  6  2  0
  6  7  1  0
  7  8  1  0
  8  9  1  0
  9 10  2  0
  9 11  1  0
 11 12  1  0
 12 13  1  0
 13 14  2  0
 13 15  1  0
 15 16  2  0
 16 17  1  0
 17 18  2  0
 18 19  1  0
 19 20  2  0
 20 21  1  0
 20 22  1  0
 22 23  2  0
 23 24  1  0
 24 25  2  0
  7 26  2  0
 26  3  1  0
 25 15  1  0
 24 18  1  0
  1 27  1  0
  1 28  1  0
  1 29  1  0
  4 30  1  0
  5 31  1  0
  6 32  1  0
  8 33  1  0
 11 34  1  0
 11 35  1  0
 12 36  1  0
 16 37  1  0
 17 38  1  0
 19 39  1  0
 22 40  1  0
 23 41  1  0
 26 42  1  0
M  END
>  <smiles>  (44) 
COc1cccc(NC(=O)CNC(=O)c2ccc3cc(F)ccc3n2)c1

>  <score_type>  (44) 
oracle

>  <origin>  (44) 
autodockgpu

>  <m_score__min__energy>  (44) 
-8.5399999999999991

>  <m_primary>  (44) 
energy

>  <rmsd>  (44) 
4.737518192385437

>  <m_score__min__rmsd>  (44) 
4.737518192385437

>  <meeko>  (44) 
{"free_energy": -7.33, "intermolecular_energy": -8.82, "internal_energy": -1.48, "cluster_size": 36, "cluster_id": 1, "rank_in_cluster": 35}

>  <energy>  (44) 
-7.28

>  <cluster_rmsd>  (44) 
0.28

>  <cluster>  (44) 
2

$$$$

     RDKit          3D

 42 44  0  0  0  0  0  0  0  0999 V2000
  142.7020   80.3680  223.4510 C   0  0  0  0  0  0  0  0  0  0  0  0
  142.3430   79.1400  222.8900 O   0  0  0  0  0  0  0  0  0  0  0  0
  141.0200   78.7240  222.8290 C   0  0  0  0  0  0  0  0  0  0  0  0
  139.9900   79.6620  222.9560 C   0  0  0  0  0  0  0  0  0  0  0  0
  138.6590   79.2400  222.8940 C   0  0  0  0  0  0  0  0  0  0  0  0
  138.3850   77.8810  222.7060 C   0  0  0  0  0  0  0  0  0  0  0  0
  139.4280   76.9850  222.5850 C   0  0  0  0  0  0  0  0  0  0  0  0
  139.2120   75.5840  222.3900 N   0  0  0  0  0  0  0  0  0  0  0  0
  138.7230   75.1820  221.1260 C   0  0  0  0  0  0  0  0  0  0  0  0
  138.5210   76.1030  220.2650 O   0  0  0  0  0  0  0  0  0  0  0  0
  138.4300   73.8040  220.7180 C   0  0  0  0  0  0  0  0  0  0  0  0
  138.5560   72.8080  221.7370 N   0  0  0  0  0  0  0  0  0  0  0  0
  139.7450   72.6290  222.5150 C   0  0  0  0  0  0  0  0  0  0  0  0
  140.7720   73.3610  222.3470 O   0  0  0  0  0  0  0  0  0  0  0  0
  139.7980   71.5700  223.5450 C   0  0  0  0  0  0  0  0  0  0  0  0
  139.3160   70.3210  223.2730 C   0  0  0  0  0  0  0  0  0  0  0  0
  139.3890   69.3560  224.2800 C   0  0  0  0  0  0  0  0  0  0  0  0
  139.9250   69.6290  225.5200 C   0  0  0  0  0  0  0  0  0  0  0  0
  140.0200   68.7240  226.5370 C   0  0  0  0  0  0  0  0  0  0  0  0
  140.5780   69.0720  227.7680 C   0  0  0  0  0  0  0  0  0  0  0  0
  140.6640   68.1470  228.7790 F   0  0  0  0  0  0  0  0  0  0  0  0
  141.0560   70.3680  227.9890 C   0  0  0  0  0  0  0  0  0  0  0  0
  140.9480   71.2670  226.9400 C   0  0  0  0  0  0  0  0  0  0  0  0
  140.3960   70.9040  225.7350 C   0  0  0  0  0  0  0  0  0  0  0  0
  140.3210   71.8260  224.7630 N   0  0  0  0  0  0  0  0  0  0  0  0
  140.7610   77.3820  222.6430 C   0  0  0  0  0  0  0  0  0  0  0  0
  142.6794   80.2906  224.5480 H   0  0  0  0  0  0  0  0  0  0  0  0
  143.7167   80.6382  223.1234 H   0  0  0  0  0  0  0  0  0  0  0  0
  141.9926   81.1422  223.1234 H   0  0  0  0  0  0  0  0  0  0  0  0
  140.2264   80.7261  223.1039 H   0  0  0  0  0  0  0  0  0  0  0  0
  137.8385   79.9661  222.9916 H   0  0  0  0  0  0  0  0  0  0  0  0
  137.3443   77.5285  222.6549 H   0  0  0  0  0  0  0  0  0  0  0  0
  139.4060   74.8760  223.1280 H   0  0  0  0  0  0  0  0  0  0  0  0
  137.3951   73.7760  220.3461 H   0  0  0  0  0  0  0  0  0  0  0  0
  139.1873   73.5514  219.9612 H   0  0  0  0  0  0  0  0  0  0  0  0
  137.7680   72.1350  221.9770 H   0  0  0  0  0  0  0  0  0  0  0  0
  138.8833   70.0825  222.2902 H   0  0  0  0  0  0  0  0  0  0  0  0
  139.0062   68.3450  224.0768 H   0  0  0  0  0  0  0  0  0  0  0  0
  139.6494   67.6998  226.3835 H   0  0  0  0  0  0  0  0  0  0  0  0
  141.4981   70.6605  228.9529 H   0  0  0  0  0  0  0  0  0  0  0  0
  141.3129   72.2959  227.0751 H   0  0  0  0  0  0  0  0  0  0  0  0
  141.5780   76.6521  222.5441 H   0  0  0  0  0  0  0  0  0  0  0  0
  1  2  1  0
  2  3  1  0
  3  4  2  0
  4  5  1  0
  5  6  2  0
  6  7  1  0
  7  8  1  0
  8  9  1  0
  9 10  2  0
  9 11  1  0
 11 12  1  0
 12 13  1  0
 13 14  2  0
 13 15  1  0
 15 16  2  0
 16 17  1  0
 17 18  2  0
 18 19  1  0
 19 20  2  0
 20 21  1  0
 20 22  1  0
 22 23  2  0
 23 24  1  0
 24 25  2  0
  7 26  2  0
 26  3  1  0
 25 15  1  0
 24 18  1  0
  1 27  1  0
  1 28  1  0
  1 29  1  0
  4 30  1  0
  5 31  1  0
  6 32  1  0
  8 33  1  0
 11 34  1  0
 11 35  1  0
 12 36  1  0
 16 37  1  0
 17 38  1  0
 19 39  1  0
 22 40  1  0
 23 41  1  0
 26 42  1  0
M  END
>  <smiles>  (45) 
COc1cccc(NC(=O)CNC(=O)c2ccc3cc(F)ccc3n2)c1

>  <score_type>  (45) 
oracle

>  <origin>  (45) 
autodockgpu

>  <m_score__min__energy>  (45) 
-8.5399999999999991

>  <m_primary>  (45) 
energy

>  <rmsd>  (45) 
4.853336637693553

>  <m_score__min__rmsd>  (45) 
4.853336637693553

>  <meeko>  (45) 
{"free_energy": -7.59, "intermolecular_energy": -9.08, "internal_energy": -1.48, "cluster_size": 36, "cluster_id": 1, "rank_in_cluster": 25}

>  <energy>  (45) 
-7.24

>  <cluster_rmsd>  (45) 
0.3

>  <cluster>  (45) 
2

$$$$

     RDKit          3D

 42 44  0  0  0  0  0  0  0  0999 V2000
  142.8880   80.4100  223.1720 C   0  0  0  0  0  0  0  0  0  0  0  0
  142.5160   79.0870  222.9160 O   0  0  0  0  0  0  0  0  0  0  0  0
  141.1840   78.7020  222.8510 C   0  0  0  0  0  0  0  0  0  0  0  0
  140.1760   79.6660  222.9570 C   0  0  0  0  0  0  0  0  0  0  0  0
  138.8360   79.2750  222.8910 C   0  0  0  0  0  0  0  0  0  0  0  0
  138.5300   77.9200  222.7200 C   0  0  0  0  0  0  0  0  0  0  0  0
  139.5520   76.9980  222.6200 C   0  0  0  0  0  0  0  0  0  0  0  0
  139.3040   75.6000  222.4430 N   0  0  0  0  0  0  0  0  0  0  0  0
  138.7210   75.2040  221.2180 C   0  0  0  0  0  0  0  0  0  0  0  0
  138.4710   76.1260  220.3710 O   0  0  0  0  0  0  0  0  0  0  0  0
  138.3820   73.8300  220.8330 C   0  0  0  0  0  0  0  0  0  0  0  0
  138.5140   72.8410  221.8590 N   0  0  0  0  0  0  0  0  0  0  0  0
  139.7310   72.6180  222.5800 C   0  0  0  0  0  0  0  0  0  0  0  0
  140.7800   73.3010  222.3510 O   0  0  0  0  0  0  0  0  0  0  0  0
  139.7870   71.5690  223.6210 C   0  0  0  0  0  0  0  0  0  0  0  0
  139.3010   70.3190  223.3660 C   0  0  0  0  0  0  0  0  0  0  0  0
  139.3780   69.3650  224.3830 C   0  0  0  0  0  0  0  0  0  0  0  0
  139.9230   69.6500  225.6160 C   0  0  0  0  0  0  0  0  0  0  0  0
  140.0220   68.7560  226.6420 C   0  0  0  0  0  0  0  0  0  0  0  0
  140.5890   69.1160  227.8660 C   0  0  0  0  0  0  0  0  0  0  0  0
  140.6780   68.2020  228.8860 F   0  0  0  0  0  0  0  0  0  0  0  0
  141.0710   70.4130  228.0700 C   0  0  0  0  0  0  0  0  0  0  0  0
  140.9590   71.3010  227.0120 C   0  0  0  0  0  0  0  0  0  0  0  0
  140.3970   70.9260  225.8140 C   0  0  0  0  0  0  0  0  0  0  0  0
  140.3190   71.8380  224.8320 N   0  0  0  0  0  0  0  0  0  0  0  0
  140.8940   77.3640  222.6820 C   0  0  0  0  0  0  0  0  0  0  0  0
  142.9342   80.5742  224.2587 H   0  0  0  0  0  0  0  0  0  0  0  0
  143.8759   80.6053  222.7294 H   0  0  0  0  0  0  0  0  0  0  0  0
  142.1467   81.0915  222.7294 H   0  0  0  0  0  0  0  0  0  0  0  0
  140.4367   80.7262  223.0916 H   0  0  0  0  0  0  0  0  0  0  0  0
  138.0326   80.0220  222.9723 H   0  0  0  0  0  0  0  0  0  0  0  0
  137.4814   77.5920  222.6657 H   0  0  0  0  0  0  0  0  0  0  0  0
  139.5410   74.8900  223.1660 H   0  0  0  0  0  0  0  0  0  0  0  0
  137.3361   73.8241  220.4922 H   0  0  0  0  0  0  0  0  0  0  0  0
  139.1095   73.5512  220.0565 H   0  0  0  0  0  0  0  0  0  0  0  0
  137.7100   72.2070  222.1470 H   0  0  0  0  0  0  0  0  0  0  0  0
  138.8618   70.0706  222.3885 H   0  0  0  0  0  0  0  0  0  0  0  0
  138.9909   68.3529  224.1935 H   0  0  0  0  0  0  0  0  0  0  0  0
  139.6476   67.7312  226.5020 H   0  0  0  0  0  0  0  0  0  0  0  0
  141.5192   70.7149  229.0281 H   0  0  0  0  0  0  0  0  0  0  0  0
  141.3283   72.3301  227.1332 H   0  0  0  0  0  0  0  0  0  0  0  0
  141.6939   76.6134  222.5992 H   0  0  0  0  0  0  0  0  0  0  0  0
  1  2  1  0
  2  3  1  0
  3  4  2  0
  4  5  1  0
  5  6  2  0
  6  7  1  0
  7  8  1  0
  8  9  1  0
  9 10  2  0
  9 11  1  0
 11 12  1  0
 12 13  1  0
 13 14  2  0
 13 15  1  0
 15 16  2  0
 16 17  1  0
 17 18  2  0
 18 19  1  0
 19 20  2  0
 20 21  1  0
 20 22  1  0
 22 23  2  0
 23 24  1  0
 24 25  2  0
  7 26  2  0
 26  3  1  0
 25 15  1  0
 24 18  1  0
  1 27  1  0
  1 28  1  0
  1 29  1  0
  4 30  1  0
  5 31  1  0
  6 32  1  0
  8 33  1  0
 11 34  1  0
 11 35  1  0
 12 36  1  0
 16 37  1  0
 17 38  1  0
 19 39  1  0
 22 40  1  0
 23 41  1  0
 26 42  1  0
M  END
>  <smiles>  (46) 
COc1cccc(NC(=O)CNC(=O)c2ccc3cc(F)ccc3n2)c1

>  <score_type>  (46) 
oracle

>  <origin>  (46) 
autodockgpu

>  <m_score__min__energy>  (46) 
-8.5399999999999991

>  <m_primary>  (46) 
energy

>  <rmsd>  (46) 
4.838054390265819

>  <m_score__min__rmsd>  (46) 
4.838054390265819

>  <meeko>  (46) 
{"free_energy": -7.6, "intermolecular_energy": -9.09, "internal_energy": -1.48, "cluster_size": 36, "cluster_id": 1, "rank_in_cluster": 24}

>  <energy>  (46) 
-7.22

>  <cluster_rmsd>  (46) 
1.36

>  <cluster>  (46) 
2

$$$$

     RDKit          3D

 42 44  0  0  0  0  0  0  0  0999 V2000
  141.0530   71.9580  227.8260 C   0  0  0  0  0  0  0  0  0  0  0  0
  141.1310   70.7410  227.1420 O   0  0  0  0  0  0  0  0  0  0  0  0
  140.4530   70.5290  225.9500 C   0  0  0  0  0  0  0  0  0  0  0  0
  139.8690   69.2830  225.6940 C   0  0  0  0  0  0  0  0  0  0  0  0
  139.1880   69.0730  224.4920 C   0  0  0  0  0  0  0  0  0  0  0  0
  139.1030   70.1190  223.5660 C   0  0  0  0  0  0  0  0  0  0  0  0
  139.6910   71.3340  223.8540 C   0  0  0  0  0  0  0  0  0  0  0  0
  139.6390   72.4420  222.9490 N   0  0  0  0  0  0  0  0  0  0  0  0
  140.6400   72.5030  221.9550 C   0  0  0  0  0  0  0  0  0  0  0  0
  141.5040   71.5630  221.9450 O   0  0  0  0  0  0  0  0  0  0  0  0
  140.7740   73.5480  220.9340 C   0  0  0  0  0  0  0  0  0  0  0  0
  140.9270   74.8840  221.4220 N   0  0  0  0  0  0  0  0  0  0  0  0
  139.8480   75.6420  221.9820 C   0  0  0  0  0  0  0  0  0  0  0  0
  138.6750   75.1600  222.0860 O   0  0  0  0  0  0  0  0  0  0  0  0
  140.0870   77.0210  222.4560 C   0  0  0  0  0  0  0  0  0  0  0  0
  139.0390   77.8100  222.8370 C   0  0  0  0  0  0  0  0  0  0  0  0
  139.3180   79.1060  223.2770 C   0  0  0  0  0  0  0  0  0  0  0  0
  140.6040   79.5990  223.3360 C   0  0  0  0  0  0  0  0  0  0  0  0
  140.9310   80.8550  223.7570 C   0  0  0  0  0  0  0  0  0  0  0  0
  142.2580   81.2860  223.7910 C   0  0  0  0  0  0  0  0  0  0  0  0
  142.5660   82.5530  224.2180 F   0  0  0  0  0  0  0  0  0  0  0  0
  143.2920   80.4330  223.3890 C   0  0  0  0  0  0  0  0  0  0  0  0
  142.9320   79.1630  222.9650 C   0  0  0  0  0  0  0  0  0  0  0  0
  141.6190   78.7580  222.9400 C   0  0  0  0  0  0  0  0  0  0  0  0
  141.3420   77.5150  222.5180 N   0  0  0  0  0  0  0  0  0  0  0  0
  140.3750   71.5660  225.0440 C   0  0  0  0  0  0  0  0  0  0  0  0
  141.0650   71.7708  228.9099 H   0  0  0  0  0  0  0  0  0  0  0  0
  141.9126   72.5877  227.5531 H   0  0  0  0  0  0  0  0  0  0  0  0
  140.1200   72.4728  227.5531 H   0  0  0  0  0  0  0  0  0  0  0  0
  139.9457   68.4736  226.4349 H   0  0  0  0  0  0  0  0  0  0  0  0
  138.7250   68.0987  224.2765 H   0  0  0  0  0  0  0  0  0  0  0  0
  138.5708   69.9736  222.6144 H   0  0  0  0  0  0  0  0  0  0  0  0
  138.9010   73.1740  222.9980 H   0  0  0  0  0  0  0  0  0  0  0  0
  141.6565   73.3098  220.3221 H   0  0  0  0  0  0  0  0  0  0  0  0
  139.8257   73.5421  220.3766 H   0  0  0  0  0  0  0  0  0  0  0  0
  141.8570   75.3980  221.3950 H   0  0  0  0  0  0  0  0  0  0  0  0
  138.0054   77.4356  222.7984 H   0  0  0  0  0  0  0  0  0  0  0  0
  138.4847   79.7541  223.5863 H   0  0  0  0  0  0  0  0  0  0  0  0
  140.1329   81.5415  224.0759 H   0  0  0  0  0  0  0  0  0  0  0  0
  144.3434   80.7557  223.4086 H   0  0  0  0  0  0  0  0  0  0  0  0
  143.7161   78.4629  222.6409 H   0  0  0  0  0  0  0  0  0  0  0  0
  140.8370   72.5419  225.2543 H   0  0  0  0  0  0  0  0  0  0  0  0
  1  2  1  0
  2  3  1  0
  3  4  2  0
  4  5  1  0
  5  6  2  0
  6  7  1  0
  7  8  1  0
  8  9  1  0
  9 10  2  0
  9 11  1  0
 11 12  1  0
 12 13  1  0
 13 14  2  0
 13 15  1  0
 15 16  2  0
 16 17  1  0
 17 18  2  0
 18 19  1  0
 19 20  2  0
 20 21  1  0
 20 22  1  0
 22 23  2  0
 23 24  1  0
 24 25  2  0
  7 26  2  0
 26  3  1  0
 25 15  1  0
 24 18  1  0
  1 27  1  0
  1 28  1  0
  1 29  1  0
  4 30  1  0
  5 31  1  0
  6 32  1  0
  8 33  1  0
 11 34  1  0
 11 35  1  0
 12 36  1  0
 16 37  1  0
 17 38  1  0
 19 39  1  0
 22 40  1  0
 23 41  1  0
 26 42  1  0
M  END
>  <smiles>  (47) 
COc1cccc(NC(=O)CNC(=O)c2ccc3cc(F)ccc3n2)c1

>  <score_type>  (47) 
oracle

>  <origin>  (47) 
autodockgpu

>  <m_score__min__energy>  (47) 
-8.5399999999999991

>  <m_primary>  (47) 
energy

>  <rmsd>  (47) 
10.637106415951168

>  <m_score__min__rmsd>  (47) 
10.637106415951168

>  <meeko>  (47) 
{"free_energy": -7.33, "intermolecular_energy": -8.82, "internal_energy": -1.88, "cluster_size": 13, "cluster_id": 2, "rank_in_cluster": 1}

>  <energy>  (47) 
-7.2

>  <cluster_rmsd>  (47) 
0.12

>  <cluster>  (47) 
2

$$$$

     RDKit          3D

 42 44  0  0  0  0  0  0  0  0999 V2000
  138.1010   80.8590  224.2260 C   0  0  0  0  0  0  0  0  0  0  0  0
  138.0230   79.9710  223.1490 O   0  0  0  0  0  0  0  0  0  0  0  0
  139.0470   79.0770  222.8650 C   0  0  0  0  0  0  0  0  0  0  0  0
  140.3550   79.5460  222.7040 C   0  0  0  0  0  0  0  0  0  0  0  0
  141.3820   78.6430  222.4170 C   0  0  0  0  0  0  0  0  0  0  0  0
  141.0780   77.2820  222.2970 C   0  0  0  0  0  0  0  0  0  0  0  0
  139.7750   76.8580  222.4620 C   0  0  0  0  0  0  0  0  0  0  0  0
  139.4010   75.4800  222.3530 N   0  0  0  0  0  0  0  0  0  0  0  0
  138.8470   75.0640  221.1210 C   0  0  0  0  0  0  0  0  0  0  0  0
  138.7320   75.9510  220.2100 O   0  0  0  0  0  0  0  0  0  0  0  0
  138.3950   73.7070  220.7980 C   0  0  0  0  0  0  0  0  0  0  0  0
  138.5090   72.7420  221.8480 N   0  0  0  0  0  0  0  0  0  0  0  0
  139.7180   72.5240  222.5850 C   0  0  0  0  0  0  0  0  0  0  0  0
  140.7750   73.1910  222.3480 O   0  0  0  0  0  0  0  0  0  0  0  0
  139.7550   71.5000  223.6500 C   0  0  0  0  0  0  0  0  0  0  0  0
  139.2230   70.2610  223.4340 C   0  0  0  0  0  0  0  0  0  0  0  0
  139.2830   69.3300  224.4740 C   0  0  0  0  0  0  0  0  0  0  0  0
  139.8560   69.6270  225.6910 C   0  0  0  0  0  0  0  0  0  0  0  0
  139.9410   68.7560  226.7380 C   0  0  0  0  0  0  0  0  0  0  0  0
  140.5380   69.1260  227.9440 C   0  0  0  0  0  0  0  0  0  0  0  0
  140.6130   68.2350  228.9850 F   0  0  0  0  0  0  0  0  0  0  0  0
  141.0670   70.4110  228.1080 C   0  0  0  0  0  0  0  0  0  0  0  0
  140.9690   71.2760  227.0300 C   0  0  0  0  0  0  0  0  0  0  0  0
  140.3770   70.8910  225.8510 C   0  0  0  0  0  0  0  0  0  0  0  0
  140.3140   71.7800  224.8470 N   0  0  0  0  0  0  0  0  0  0  0  0
  138.7360   77.7380  222.7490 C   0  0  0  0  0  0  0  0  0  0  0  0
  138.0515   80.2960  225.1697 H   0  0  0  0  0  0  0  0  0  0  0  0
  139.0511   81.4112  224.1778 H   0  0  0  0  0  0  0  0  0  0  0  0
  137.2617   81.5684  224.1778 H   0  0  0  0  0  0  0  0  0  0  0  0
  140.5738   80.6195  222.8027 H   0  0  0  0  0  0  0  0  0  0  0  0
  142.4154   78.9969  222.2872 H   0  0  0  0  0  0  0  0  0  0  0  0
  141.8725   76.5550  222.0726 H   0  0  0  0  0  0  0  0  0  0  0  0
  139.5300   74.7980  223.1290 H   0  0  0  0  0  0  0  0  0  0  0  0
  137.3356   73.7652  220.5078 H   0  0  0  0  0  0  0  0  0  0  0  0
  139.0620   73.3547  219.9974 H   0  0  0  0  0  0  0  0  0  0  0  0
  137.6960   72.1230  222.1440 H   0  0  0  0  0  0  0  0  0  0  0  0
  138.7608   70.0035  222.4696 H   0  0  0  0  0  0  0  0  0  0  0  0
  138.8590   68.3274  224.3159 H   0  0  0  0  0  0  0  0  0  0  0  0
  139.5305   67.7413  226.6292 H   0  0  0  0  0  0  0  0  0  0  0  0
  141.5400   70.7209  229.0515 H   0  0  0  0  0  0  0  0  0  0  0  0
  141.3745   72.2946  227.1200 H   0  0  0  0  0  0  0  0  0  0  0  0
  137.7043   77.3791  222.8786 H   0  0  0  0  0  0  0  0  0  0  0  0
  1  2  1  0
  2  3  1  0
  3  4  2  0
  4  5  1  0
  5  6  2  0
  6  7  1  0
  7  8  1  0
  8  9  1  0
  9 10  2  0
  9 11  1  0
 11 12  1  0
 12 13  1  0
 13 14  2  0
 13 15  1  0
 15 16  2  0
 16 17  1  0
 17 18  2  0
 18 19  1  0
 19 20  2  0
 20 21  1  0
 20 22  1  0
 22 23  2  0
 23 24  1  0
 24 25  2  0
  7 26  2  0
 26  3  1  0
 25 15  1  0
 24 18  1  0
  1 27  1  0
  1 28  1  0
  1 29  1  0
  4 30  1  0
  5 31  1  0
  6 32  1  0
  8 33  1  0
 11 34  1  0
 11 35  1  0
 12 36  1  0
 16 37  1  0
 17 38  1  0
 19 39  1  0
 22 40  1  0
 23 41  1  0
 26 42  1  0
M  END
>  <smiles>  (48) 
COc1cccc(NC(=O)CNC(=O)c2ccc3cc(F)ccc3n2)c1

>  <score_type>  (48) 
oracle

>  <origin>  (48) 
autodockgpu

>  <m_score__min__energy>  (48) 
-8.5399999999999991

>  <m_primary>  (48) 
energy

>  <rmsd>  (48) 
4.53614561365444

>  <m_score__min__rmsd>  (48) 
4.53614561365444

>  <meeko>  (48) 
{"free_energy": -7.44, "intermolecular_energy": -8.94, "internal_energy": -1.47, "cluster_size": 36, "cluster_id": 1, "rank_in_cluster": 29}

>  <energy>  (48) 
-7.04

>  <cluster_rmsd>  (48) 
1.43

>  <cluster>  (48) 
2

$$$$

     RDKit          3D

 42 44  0  0  0  0  0  0  0  0999 V2000
  142.1000   80.5480  218.9520 C   0  0  0  0  0  0  0  0  0  0  0  0
  141.8010   81.0160  220.2350 O   0  0  0  0  0  0  0  0  0  0  0  0
  141.6900   80.1550  221.3180 C   0  0  0  0  0  0  0  0  0  0  0  0
  141.7370   80.6660  222.6200 C   0  0  0  0  0  0  0  0  0  0  0  0
  141.6250   79.7960  223.7080 C   0  0  0  0  0  0  0  0  0  0  0  0
  141.4660   78.4260  223.4700 C   0  0  0  0  0  0  0  0  0  0  0  0
  141.4230   77.9600  222.1720 C   0  0  0  0  0  0  0  0  0  0  0  0
  141.2620   76.5710  221.8640 N   0  0  0  0  0  0  0  0  0  0  0  0
  139.9470   76.1230  221.6040 C   0  0  0  0  0  0  0  0  0  0  0  0
  139.0170   76.9960  221.6600 O   0  0  0  0  0  0  0  0  0  0  0  0
  139.5590   74.7480  221.2740 C   0  0  0  0  0  0  0  0  0  0  0  0
  139.6260   73.8030  222.3460 N   0  0  0  0  0  0  0  0  0  0  0  0
  139.8160   72.3980  222.1410 C   0  0  0  0  0  0  0  0  0  0  0  0
  139.9440   71.9030  220.9760 O   0  0  0  0  0  0  0  0  0  0  0  0
  139.8660   71.4860  223.3030 C   0  0  0  0  0  0  0  0  0  0  0  0
  139.4490   70.1920  223.1820 C   0  0  0  0  0  0  0  0  0  0  0  0
  139.5170   69.3710  224.3100 C   0  0  0  0  0  0  0  0  0  0  0  0
  139.9870   69.8280  225.5210 C   0  0  0  0  0  0  0  0  0  0  0  0
  140.0750   69.0690  226.6530 C   0  0  0  0  0  0  0  0  0  0  0  0
  140.5640   69.6010  227.8470 C   0  0  0  0  0  0  0  0  0  0  0  0
  140.6430   68.8210  228.9740 F   0  0  0  0  0  0  0  0  0  0  0  0
  140.9780   70.9360  227.9120 C   0  0  0  0  0  0  0  0  0  0  0  0
  140.8800   71.6840  226.7500 C   0  0  0  0  0  0  0  0  0  0  0  0
  140.3950   71.1410  225.5840 C   0  0  0  0  0  0  0  0  0  0  0  0
  140.3260   71.9230  224.4950 N   0  0  0  0  0  0  0  0  0  0  0  0
  141.5330   78.8070  221.0730 C   0  0  0  0  0  0  0  0  0  0  0  0
  142.6909   79.6232  219.0275 H   0  0  0  0  0  0  0  0  0  0  0  0
  141.1654   80.3427  218.4095 H   0  0  0  0  0  0  0  0  0  0  0  0
  142.6791   81.3098  218.4095 H   0  0  0  0  0  0  0  0  0  0  0  0
  141.8614   81.7463  222.7861 H   0  0  0  0  0  0  0  0  0  0  0  0
  141.6613   80.1826  224.7372 H   0  0  0  0  0  0  0  0  0  0  0  0
  141.3758   77.7249  224.3128 H   0  0  0  0  0  0  0  0  0  0  0  0
  142.0620   75.9070  221.8220 H   0  0  0  0  0  0  0  0  0  0  0  0
  138.5217   74.7695  220.9087 H   0  0  0  0  0  0  0  0  0  0  0  0
  140.2916   74.4038  220.5291 H   0  0  0  0  0  0  0  0  0  0  0  0
  139.5370   74.0900  223.3660 H   0  0  0  0  0  0  0  0  0  0  0  0
  139.0703   69.8068  222.2238 H   0  0  0  0  0  0  0  0  0  0  0  0
  139.1844   68.3257  224.2283 H   0  0  0  0  0  0  0  0  0  0  0  0
  139.7540   68.0173  226.6231 H   0  0  0  0  0  0  0  0  0  0  0  0
  141.3643   71.3725  228.8449 H   0  0  0  0  0  0  0  0  0  0  0  0
  141.1977   72.7371  226.7607 H   0  0  0  0  0  0  0  0  0  0  0  0
  141.4960   78.4152  220.0458 H   0  0  0  0  0  0  0  0  0  0  0  0
  1  2  1  0
  2  3  1  0
  3  4  2  0
  4  5  1  0
  5  6  2  0
  6  7  1  0
  7  8  1  0
  8  9  1  0
  9 10  2  0
  9 11  1  0
 11 12  1  0
 12 13  1  0
 13 14  2  0
 13 15  1  0
 15 16  2  0
 16 17  1  0
 17 18  2  0
 18 19  1  0
 19 20  2  0
 20 21  1  0
 20 22  1  0
 22 23  2  0
 23 24  1  0
 24 25  2  0
  7 26  2  0
 26  3  1  0
 25 15  1  0
 24 18  1  0
  1 27  1  0
  1 28  1  0
  1 29  1  0
  4 30  1  0
  5 31  1  0
  6 32  1  0
  8 33  1  0
 11 34  1  0
 11 35  1  0
 12 36  1  0
 16 37  1  0
 17 38  1  0
 19 39  1  0
 22 40  1  0
 23 41  1  0
 26 42  1  0
M  END
>  <smiles>  (49) 
COc1cccc(NC(=O)CNC(=O)c2ccc3cc(F)ccc3n2)c1

>  <score_type>  (49) 
oracle

>  <origin>  (49) 
autodockgpu

>  <m_score__min__energy>  (49) 
-8.5399999999999991

>  <m_primary>  (49) 
energy

>  <rmsd>  (49) 
4.120517817105992

>  <m_score__min__rmsd>  (49) 
4.120517817105992

>  <meeko>  (49) 
{"free_energy": -8.17, "intermolecular_energy": -9.66, "internal_energy": -1.04, "cluster_size": 36, "cluster_id": 1, "rank_in_cluster": 18}

>  <energy>  (49) 
-6.94

>  <cluster_rmsd>  (49) 
0.68

>  <cluster>  (49) 
2

$$$$

     RDKit          3D

 42 44  0  0  0  0  0  0  0  0999 V2000
  141.0970   69.1480  227.3410 C   0  0  0  0  0  0  0  0  0  0  0  0
  140.6770   70.3610  226.7890 O   0  0  0  0  0  0  0  0  0  0  0  0
  139.9250   70.4110  225.6230 C   0  0  0  0  0  0  0  0  0  0  0  0
  139.0170   69.3860  225.3370 C   0  0  0  0  0  0  0  0  0  0  0  0
  138.2620   69.4400  224.1620 C   0  0  0  0  0  0  0  0  0  0  0  0
  138.4330   70.5230  223.2930 C   0  0  0  0  0  0  0  0  0  0  0  0
  139.3390   71.5150  223.6090 C   0  0  0  0  0  0  0  0  0  0  0  0
  139.5570   72.6480  222.7620 N   0  0  0  0  0  0  0  0  0  0  0  0
  140.6020   72.5470  221.8160 C   0  0  0  0  0  0  0  0  0  0  0  0
  141.2590   71.4520  221.7940 O   0  0  0  0  0  0  0  0  0  0  0  0
  140.9970   73.5860  220.8590 C   0  0  0  0  0  0  0  0  0  0  0  0
  141.1200   74.9100  221.3860 N   0  0  0  0  0  0  0  0  0  0  0  0
  139.9970   75.6900  221.8150 C   0  0  0  0  0  0  0  0  0  0  0  0
  138.8090   75.2410  221.7570 O   0  0  0  0  0  0  0  0  0  0  0  0
  140.2090   77.0550  222.3410 C   0  0  0  0  0  0  0  0  0  0  0  0
  139.1460   77.8110  222.7430 C   0  0  0  0  0  0  0  0  0  0  0  0
  139.4000   79.0940  223.2330 C   0  0  0  0  0  0  0  0  0  0  0  0
  140.6760   79.6070  223.3180 C   0  0  0  0  0  0  0  0  0  0  0  0
  140.9790   80.8530  223.7870 C   0  0  0  0  0  0  0  0  0  0  0  0
  142.2980   81.3050  223.8460 C   0  0  0  0  0  0  0  0  0  0  0  0
  142.5810   82.5610  224.3210 F   0  0  0  0  0  0  0  0  0  0  0  0
  143.3480   80.4850  223.4190 C   0  0  0  0  0  0  0  0  0  0  0  0
  143.0140   79.2260  222.9470 C   0  0  0  0  0  0  0  0  0  0  0  0
  141.7080   78.7990  222.8980 C   0  0  0  0  0  0  0  0  0  0  0  0
  141.4560   77.5680  222.4290 N   0  0  0  0  0  0  0  0  0  0  0  0
  140.1010   71.4830  224.7730 C   0  0  0  0  0  0  0  0  0  0  0  0
  141.0732   69.2169  228.4386 H   0  0  0  0  0  0  0  0  0  0  0  0
  140.4255   68.3423  227.0095 H   0  0  0  0  0  0  0  0  0  0  0  0
  142.1229   68.9300  227.0095 H   0  0  0  0  0  0  0  0  0  0  0  0
  138.8979   68.5424  226.0328 H   0  0  0  0  0  0  0  0  0  0  0  0
  137.5433   68.6420  223.9238 H   0  0  0  0  0  0  0  0  0  0  0  0
  137.8486   70.5835  222.3631 H   0  0  0  0  0  0  0  0  0  0  0  0
  138.9800   73.5130  222.8180 H   0  0  0  0  0  0  0  0  0  0  0  0
  141.9712   73.3006  220.4354 H   0  0  0  0  0  0  0  0  0  0  0  0
  140.1823   73.6349  220.1215 H   0  0  0  0  0  0  0  0  0  0  0  0
  142.0590   75.3980  221.4900 H   0  0  0  0  0  0  0  0  0  0  0  0
  138.1192   77.4211  222.6828 H   0  0  0  0  0  0  0  0  0  0  0  0
  138.5538   79.7152  223.5618 H   0  0  0  0  0  0  0  0  0  0  0  0
  140.1672   81.5138  224.1251 H   0  0  0  0  0  0  0  0  0  0  0  0
  144.3934   80.8251  223.4564 H   0  0  0  0  0  0  0  0  0  0  0  0
  143.8126   78.5521  222.6033 H   0  0  0  0  0  0  0  0  0  0  0  0
  140.8179   72.2838  225.0068 H   0  0  0  0  0  0  0  0  0  0  0  0
  1  2  1  0
  2  3  1  0
  3  4  2  0
  4  5  1  0
  5  6  2  0
  6  7  1  0
  7  8  1  0
  8  9  1  0
  9 10  2  0
  9 11  1  0
 11 12  1  0
 12 13  1  0
 13 14  2  0
 13 15  1  0
 15 16  2  0
 16 17  1  0
 17 18  2  0
 18 19  1  0
 19 20  2  0
 20 21  1  0
 20 22  1  0
 22 23  2  0
 23 24  1  0
 24 25  2  0
  7 26  2  0
 26  3  1  0
 25 15  1  0
 24 18  1  0
  1 27  1  0
  1 28  1  0
  1 29  1  0
  4 30  1  0
  5 31  1  0
  6 32  1  0
  8 33  1  0
 11 34  1  0
 11 35  1  0
 12 36  1  0
 16 37  1  0
 17 38  1  0
 19 39  1  0
 22 40  1  0
 23 41  1  0
 26 42  1  0
M  END
>  <smiles>  (50) 
COc1cccc(NC(=O)CNC(=O)c2ccc3cc(F)ccc3n2)c1

>  <score_type>  (50) 
oracle

>  <origin>  (50) 
autodockgpu

>  <m_score__min__energy>  (50) 
-8.5399999999999991

>  <m_primary>  (50) 
energy

>  <rmsd>  (50) 
11.035702324991085

>  <m_score__min__rmsd>  (50) 
11.035702324991085

>  <meeko>  (50) 
{"free_energy": -6.94, "intermolecular_energy": -8.43, "internal_energy": -1.92, "cluster_size": 13, "cluster_id": 2, "rank_in_cluster": 13}

>  <energy>  (50) 
-6.75

>  <cluster_rmsd>  (50) 
0.0

>  <cluster>  (50) 
3

$$$$
