
     RDKit          3D

 48 51  0  0  0  0  0  0  0  0999 V2000
  141.2410   72.3730  221.7910 O   0  0  0  0  0  0  0  0  0  0  0  0
  140.2440   72.4590  222.5630 C   0  0  0  0  0  0  0  0  0  0  0  0
  139.2050   73.4160  222.3540 N   0  0  0  0  0  0  0  0  0  0  0  0
  139.3270   74.2990  221.2140 C   0  0  0  0  0  0  0  0  0  0  0  0
  140.2740   75.4080  221.5450 C   0  0  0  0  0  0  0  0  0  0  0  0
  141.4550   75.1580  221.9230 O   0  0  0  0  0  0  0  0  0  0  0  0
  139.8910   76.7740  221.4490 N   0  0  0  0  0  0  0  0  0  0  0  0
  139.0110   77.4040  222.4160 C   0  0  0  0  0  0  0  0  0  0  0  0
  138.5700   78.7180  221.8700 C   0  0  0  0  0  0  0  0  0  0  0  0
  139.0720   78.7200  220.4460 C   0  0  0  0  0  0  0  0  0  0  0  0
  140.2220   77.7840  220.4920 C   0  0  1  0  0  0  0  0  0  0  0  0
  141.5720   78.3980  220.6410 C   0  0  0  0  0  0  0  0  0  0  0  0
  141.8110   79.0980  221.8620 N   0  0  0  0  0  0  0  0  0  0  0  0
  142.0950   80.4310  221.9080 C   0  0  0  0  0  0  0  0  0  0  0  0
  142.2670   80.7850  223.2250 C   0  0  0  0  0  0  0  0  0  0  0  0
  142.0790   79.6340  223.9490 C   0  0  0  0  0  0  0  0  0  0  0  0
  141.8090   78.6390  223.1200 N   0  0  0  0  0  0  0  0  0  0  0  0
  140.1460   71.5550  223.7070 C   0  0  0  0  0  0  0  0  0  0  0  0
  139.5590   70.3140  223.5690 C   0  0  0  0  0  0  0  0  0  0  0  0
  139.4470   69.4350  224.6290 C   0  0  0  0  0  0  0  0  0  0  0  0
  139.9460   69.8200  225.8680 C   0  0  0  0  0  0  0  0  0  0  0  0
  139.8770   69.0040  226.9790 C   0  0  0  0  0  0  0  0  0  0  0  0
  140.3870   69.4330  228.1880 C   0  0  0  0  0  0  0  0  0  0  0  0
  140.9680   70.6810  228.2890 C   0  0  0  0  0  0  0  0  0  0  0  0
  141.0500   71.5170  227.1910 C   0  0  0  0  0  0  0  0  0  0  0  0
  140.5320   71.0640  225.9940 C   0  0  0  0  0  0  0  0  0  0  0  0
  140.6130   71.8820  224.9260 N   0  0  0  0  0  0  0  0  0  0  0  0
  138.4180   73.4280  223.0290 H   0  0  0  0  0  0  0  0  0  0  0  0
  139.7102   73.7341  220.3514 H   0  0  0  0  0  0  0  0  0  0  0  0
  138.3408   74.7189  220.9668 H   0  0  0  0  0  0  0  0  0  0  0  0
  138.1347   76.7630  222.5927 H   0  0  0  0  0  0  0  0  0  0  0  0
  139.5419   77.5511  223.3681 H   0  0  0  0  0  0  0  0  0  0  0  0
  137.4736   78.8024  221.8964 H   0  0  0  0  0  0  0  0  0  0  0  0
  138.9585   79.5661  222.4529 H   0  0  0  0  0  0  0  0  0  0  0  0
  138.2970   78.3592  219.7538 H   0  0  0  0  0  0  0  0  0  0  0  0
  139.3455   79.7228  220.0859 H   0  0  0  0  0  0  0  0  0  0  0  0
  140.3578   77.3310  219.4989 H   0  0  0  0  0  0  0  0  0  0  0  0
  142.3179   77.5933  220.5631 H   0  0  0  0  0  0  0  0  0  0  0  0
  141.6418   79.1558  219.8468 H   0  0  0  0  0  0  0  0  0  0  0  0
  142.1728   81.1052  221.0423 H   0  0  0  0  0  0  0  0  0  0  0  0
  142.5060   81.7843  223.6177 H   0  0  0  0  0  0  0  0  0  0  0  0
  142.1427   79.5520  225.0441 H   0  0  0  0  0  0  0  0  0  0  0  0
  139.1683   70.0154  222.5850 H   0  0  0  0  0  0  0  0  0  0  0  0
  138.9730   68.4514  224.4953 H   0  0  0  0  0  0  0  0  0  0  0  0
  139.4144   68.0091  226.9009 H   0  0  0  0  0  0  0  0  0  0  0  0
  140.3303   68.7799  229.0713 H   0  0  0  0  0  0  0  0  0  0  0  0
  141.3713   71.0149  229.2564 H   0  0  0  0  0  0  0  0  0  0  0  0
  141.5133   72.5117  227.2685 H   0  0  0  0  0  0  0  0  0  0  0  0
  1  2  2  0
  2  3  1  0
  3  4  1  0
  4  5  1  0
  5  6  2  0
  5  7  1  0
  7  8  1  0
  8  9  1  0
  9 10  1  0
 10 11  1  0
 11 12  1  0
 12 13  1  0
 13 14  1  0
 14 15  2  0
 15 16  1  0
 16 17  2  0
  2 18  1  0
 18 19  2  0
 19 20  1  0
 20 21  2  0
 21 22  1  0
 22 23  2  0
 23 24  1  0
 24 25  2  0
 25 26  1  0
 26 27  2  0
 11  7  1  0
 17 13  1  0
 27 18  1  0
 26 21  1  0
  3 28  1  0
  4 29  1  0
  4 30  1  0
  8 31  1  0
  8 32  1  0
  9 33  1  0
  9 34  1  0
 10 35  1  0
 10 36  1  0
 11 37  1  6
 12 38  1  0
 12 39  1  0
 14 40  1  0
 15 41  1  0
 16 42  1  0
 19 43  1  0
 20 44  1  0
 22 45  1  0
 23 46  1  0
 24 47  1  0
 25 48  1  0
M  END
>  <smiles>  (1) 
O=C(NCC(=O)N1CCC[C@H]1Cn1cccn1)c1ccc2ccccc2n1

>  <score_type>  (1) 
oracle

>  <origin>  (1) 
autodockgpu

>  <m_score__min__energy>  (1) 
-8.4000000000000004

>  <m_primary>  (1) 
energy

>  <rmsd>  (1) 
2.609825454677218

>  <m_score__min__rmsd>  (1) 
2.609825454677218

>  <meeko>  (1) 
{"free_energy": -8.06, "intermolecular_energy": -9.85, "internal_energy": -1.37, "cluster_size": 26, "cluster_id": 1, "rank_in_cluster": 15}

>  <energy>  (1) 
-8.4

>  <cluster_rmsd>  (1) 
0.0

>  <cluster>  (1) 
1

$$$$

     RDKit          3D

 48 51  0  0  0  0  0  0  0  0999 V2000
  138.8250   75.2610  221.9170 O   0  0  0  0  0  0  0  0  0  0  0  0
  139.9850   75.7550  222.0110 C   0  0  0  0  0  0  0  0  0  0  0  0
  141.1600   74.9840  221.7570 N   0  0  0  0  0  0  0  0  0  0  0  0
  140.9830   73.5980  221.3820 C   0  0  0  0  0  0  0  0  0  0  0  0
  141.5000   73.3900  219.9940 C   0  0  0  0  0  0  0  0  0  0  0  0
  140.7130   73.4020  219.0040 O   0  0  0  0  0  0  0  0  0  0  0  0
  142.8800   73.1750  219.7330 N   0  0  0  0  0  0  0  0  0  0  0  0
  143.3440   72.3840  218.6070 C   0  0  0  0  0  0  0  0  0  0  0  0
  144.7950   72.1010  218.7910 C   0  0  0  0  0  0  0  0  0  0  0  0
  145.0980   72.5910  220.1870 C   0  0  0  0  0  0  0  0  0  0  0  0
  144.0540   73.6190  220.4180 C   0  0  1  0  0  0  0  0  0  0  0  0
  144.4510   75.0350  220.1710 C   0  0  0  0  0  0  0  0  0  0  0  0
  143.4710   75.8590  219.5410 N   0  0  0  0  0  0  0  0  0  0  0  0
  143.3410   75.9510  218.1860 C   0  0  0  0  0  0  0  0  0  0  0  0
  142.3110   76.8210  217.9150 C   0  0  0  0  0  0  0  0  0  0  0  0
  141.8410   77.2360  219.1360 C   0  0  0  0  0  0  0  0  0  0  0  0
  142.5440   76.6530  220.0930 N   0  0  0  0  0  0  0  0  0  0  0  0
  140.1350   77.1580  222.3910 C   0  0  0  0  0  0  0  0  0  0  0  0
  139.0240   77.9490  222.5960 C   0  0  0  0  0  0  0  0  0  0  0  0
  139.1280   79.2800  222.9550 C   0  0  0  0  0  0  0  0  0  0  0  0
  140.3950   79.8280  223.1120 C   0  0  0  0  0  0  0  0  0  0  0  0
  140.5910   81.1470  223.4700 C   0  0  0  0  0  0  0  0  0  0  0  0
  141.8710   81.6450  223.6140 C   0  0  0  0  0  0  0  0  0  0  0  0
  142.9600   80.8230  223.4000 C   0  0  0  0  0  0  0  0  0  0  0  0
  142.7900   79.4990  223.0420 C   0  0  0  0  0  0  0  0  0  0  0  0
  141.5000   79.0260  222.9050 C   0  0  0  0  0  0  0  0  0  0  0  0
  141.3390   77.7350  222.5550 N   0  0  0  0  0  0  0  0  0  0  0  0
  142.0770   75.4570  221.8540 H   0  0  0  0  0  0  0  0  0  0  0  0
  141.5380   72.9548  222.0808 H   0  0  0  0  0  0  0  0  0  0  0  0
  139.9142   73.3406  221.4189 H   0  0  0  0  0  0  0  0  0  0  0  0
  142.7845   71.4379  218.5631 H   0  0  0  0  0  0  0  0  0  0  0  0
  143.1847   72.9359  217.6689 H   0  0  0  0  0  0  0  0  0  0  0  0
  144.9955   71.0229  218.7046 H   0  0  0  0  0  0  0  0  0  0  0  0
  145.4183   72.5921  218.0292 H   0  0  0  0  0  0  0  0  0  0  0  0
  145.0159   71.7737  220.9187 H   0  0  0  0  0  0  0  0  0  0  0  0
  146.1205   72.9819  220.2951 H   0  0  0  0  0  0  0  0  0  0  0  0
  143.8531   73.6918  221.4970 H   0  0  0  0  0  0  0  0  0  0  0  0
  144.6988   75.4892  221.1417 H   0  0  0  0  0  0  0  0  0  0  0  0
  145.2952   74.9877  219.4673 H   0  0  0  0  0  0  0  0  0  0  0  0
  143.9530   75.4219  217.4407 H   0  0  0  0  0  0  0  0  0  0  0  0
  141.9403   77.1222  216.9241 H   0  0  0  0  0  0  0  0  0  0  0  0
  141.0117   77.9412  219.2937 H   0  0  0  0  0  0  0  0  0  0  0  0
  138.0245   77.5073  222.4700 H   0  0  0  0  0  0  0  0  0  0  0  0
  138.2275   79.8917  223.1129 H   0  0  0  0  0  0  0  0  0  0  0  0
  139.7249   81.8032  223.6411 H   0  0  0  0  0  0  0  0  0  0  0  0
  142.0232   82.6964  223.8992 H   0  0  0  0  0  0  0  0  0  0  0  0
  143.9763   81.2275  223.5160 H   0  0  0  0  0  0  0  0  0  0  0  0
  143.6557   78.8422  222.8715 H   0  0  0  0  0  0  0  0  0  0  0  0
  1  2  2  0
  2  3  1  0
  3  4  1  0
  4  5  1  0
  5  6  2  0
  5  7  1  0
  7  8  1  0
  8  9  1  0
  9 10  1  0
 10 11  1  0
 11 12  1  0
 12 13  1  0
 13 14  1  0
 14 15  2  0
 15 16  1  0
 16 17  2  0
  2 18  1  0
 18 19  2  0
 19 20  1  0
 20 21  2  0
 21 22  1  0
 22 23  2  0
 23 24  1  0
 24 25  2  0
 25 26  1  0
 26 27  2  0
 11  7  1  0
 17 13  1  0
 27 18  1  0
 26 21  1  0
  3 28  1  0
  4 29  1  0
  4 30  1  0
  8 31  1  0
  8 32  1  0
  9 33  1  0
  9 34  1  0
 10 35  1  0
 10 36  1  0
 11 37  1  1
 12 38  1  0
 12 39  1  0
 14 40  1  0
 15 41  1  0
 16 42  1  0
 19 43  1  0
 20 44  1  0
 22 45  1  0
 23 46  1  0
 24 47  1  0
 25 48  1  0
M  END
>  <smiles>  (2) 
O=C(NCC(=O)N1CCC[C@H]1Cn1cccn1)c1ccc2ccccc2n1

>  <score_type>  (2) 
oracle

>  <origin>  (2) 
autodockgpu

>  <m_score__min__energy>  (2) 
-8.4000000000000004

>  <m_primary>  (2) 
energy

>  <rmsd>  (2) 
7.505505665354316

>  <m_score__min__rmsd>  (2) 
7.505505665354316

>  <meeko>  (2) 
{"free_energy": -6.15, "intermolecular_energy": -7.94, "internal_energy": -3.11, "cluster_size": 7, "cluster_id": 4, "rank_in_cluster": 7}

>  <energy>  (2) 
-8.31

>  <cluster_rmsd>  (2) 
1.87

>  <cluster>  (2) 
1

$$$$

     RDKit          3D

 48 51  0  0  0  0  0  0  0  0999 V2000
  138.7710   75.4320  221.8710 O   0  0  0  0  0  0  0  0  0  0  0  0
  139.9430   75.9040  221.8530 C   0  0  0  0  0  0  0  0  0  0  0  0
  141.0520   75.1600  221.3510 N   0  0  0  0  0  0  0  0  0  0  0  0
  140.7940   73.8260  220.8520 C   0  0  0  0  0  0  0  0  0  0  0  0
  141.9420   72.9340  221.2040 C   0  0  0  0  0  0  0  0  0  0  0  0
  141.7680   71.9130  221.9300 O   0  0  0  0  0  0  0  0  0  0  0  0
  143.2610   73.1930  220.7420 N   0  0  0  0  0  0  0  0  0  0  0  0
  144.2450   72.1400  220.5690 C   0  0  0  0  0  0  0  0  0  0  0  0
  145.5820   72.7660  220.3770 C   0  0  0  0  0  0  0  0  0  0  0  0
  145.3540   74.2320  220.6590 C   0  0  0  0  0  0  0  0  0  0  0  0
  143.9110   74.4110  220.3670 C   0  0  1  0  0  0  0  0  0  0  0  0
  143.5670   74.9370  219.0150 C   0  0  0  0  0  0  0  0  0  0  0  0
  143.0580   76.2700  218.9720 N   0  0  0  0  0  0  0  0  0  0  0  0
  143.0400   77.0190  217.8330 C   0  0  0  0  0  0  0  0  0  0  0  0
  142.4890   78.2420  218.1350 C   0  0  0  0  0  0  0  0  0  0  0  0
  142.1850   78.1940  219.4730 C   0  0  0  0  0  0  0  0  0  0  0  0
  142.5320   77.0120  219.9560 N   0  0  0  0  0  0  0  0  0  0  0  0
  140.1760   77.2540  222.3620 C   0  0  0  0  0  0  0  0  0  0  0  0
  139.1150   78.0590  222.7210 C   0  0  0  0  0  0  0  0  0  0  0  0
  139.2990   79.3410  223.2050 C   0  0  0  0  0  0  0  0  0  0  0  0
  140.5960   79.8240  223.3300 C   0  0  0  0  0  0  0  0  0  0  0  0
  140.8700   81.0910  223.8050 C   0  0  0  0  0  0  0  0  0  0  0  0
  142.1770   81.5250  223.9120 C   0  0  0  0  0  0  0  0  0  0  0  0
  143.2140   80.6910  223.5430 C   0  0  0  0  0  0  0  0  0  0  0  0
  142.9660   79.4180  223.0650 C   0  0  0  0  0  0  0  0  0  0  0  0
  141.6500   79.0090  222.9690 C   0  0  0  0  0  0  0  0  0  0  0  0
  141.4120   77.7680  222.5020 N   0  0  0  0  0  0  0  0  0  0  0  0
  141.9850   75.6130  221.3670 H   0  0  0  0  0  0  0  0  0  0  0  0
  139.8723   73.4354  221.3080 H   0  0  0  0  0  0  0  0  0  0  0  0
  140.6755   73.8588  219.7589 H   0  0  0  0  0  0  0  0  0  0  0  0
  144.2613   71.4978  221.4619 H   0  0  0  0  0  0  0  0  0  0  0  0
  143.9883   71.5261  219.6931 H   0  0  0  0  0  0  0  0  0  0  0  0
  146.3143   72.3435  221.0807 H   0  0  0  0  0  0  0  0  0  0  0  0
  145.9863   72.5907  219.3691 H   0  0  0  0  0  0  0  0  0  0  0  0
  145.5769   74.4713  221.7093 H   0  0  0  0  0  0  0  0  0  0  0  0
  146.0007   74.8924  220.0626 H   0  0  0  0  0  0  0  0  0  0  0  0
  143.5232   75.2452  220.9702 H   0  0  0  0  0  0  0  0  0  0  0  0
  144.4783   74.9049  218.3997 H   0  0  0  0  0  0  0  0  0  0  0  0
  142.7518   74.2967  218.6468 H   0  0  0  0  0  0  0  0  0  0  0  0
  143.4030   76.7004  216.8447 H   0  0  0  0  0  0  0  0  0  0  0  0
  142.3256   79.0845  217.4470 H   0  0  0  0  0  0  0  0  0  0  0  0
  141.7258   79.0090  220.0517 H   0  0  0  0  0  0  0  0  0  0  0  0
  138.0914   77.6692  222.6191 H   0  0  0  0  0  0  0  0  0  0  0  0
  138.4375   79.9650  223.4850 H   0  0  0  0  0  0  0  0  0  0  0  0
  140.0452   81.7568  224.0991 H   0  0  0  0  0  0  0  0  0  0  0  0
  142.3918   82.5350  224.2912 H   0  0  0  0  0  0  0  0  0  0  0  0
  144.2519   81.0447  223.6307 H   0  0  0  0  0  0  0  0  0  0  0  0
  143.7903   78.7518  222.7704 H   0  0  0  0  0  0  0  0  0  0  0  0
  1  2  2  0
  2  3  1  0
  3  4  1  0
  4  5  1  0
  5  6  2  0
  5  7  1  0
  7  8  1  0
  8  9  1  0
  9 10  1  0
 10 11  1  0
 11 12  1  0
 12 13  1  0
 13 14  1  0
 14 15  2  0
 15 16  1  0
 16 17  2  0
  2 18  1  0
 18 19  2  0
 19 20  1  0
 20 21  2  0
 21 22  1  0
 22 23  2  0
 23 24  1  0
 24 25  2  0
 25 26  1  0
 26 27  2  0
 11  7  1  0
 17 13  1  0
 27 18  1  0
 26 21  1  0
  3 28  1  0
  4 29  1  0
  4 30  1  0
  8 31  1  0
  8 32  1  0
  9 33  1  0
  9 34  1  0
 10 35  1  0
 10 36  1  0
 11 37  1  1
 12 38  1  0
 12 39  1  0
 14 40  1  0
 15 41  1  0
 16 42  1  0
 19 43  1  0
 20 44  1  0
 22 45  1  0
 23 46  1  0
 24 47  1  0
 25 48  1  0
M  END
>  <smiles>  (3) 
O=C(NCC(=O)N1CCC[C@H]1Cn1cccn1)c1ccc2ccccc2n1

>  <score_type>  (3) 
oracle

>  <origin>  (3) 
autodockgpu

>  <m_score__min__energy>  (3) 
-8.4000000000000004

>  <m_primary>  (3) 
energy

>  <rmsd>  (3) 
7.485735617126425

>  <m_score__min__rmsd>  (3) 
7.485735617126425

>  <meeko>  (3) 
{"free_energy": -7.04, "intermolecular_energy": -8.83, "internal_energy": -2.78, "cluster_size": 7, "cluster_id": 4, "rank_in_cluster": 2}

>  <energy>  (3) 
-8.24

>  <cluster_rmsd>  (3) 
1.93

>  <cluster>  (3) 
1

$$$$

     RDKit          3D

 48 51  0  0  0  0  0  0  0  0999 V2000
  140.9940   71.4870  221.3520 O   0  0  0  0  0  0  0  0  0  0  0  0
  140.4550   72.0940  222.3200 C   0  0  0  0  0  0  0  0  0  0  0  0
  140.0290   73.4530  222.2210 N   0  0  0  0  0  0  0  0  0  0  0  0
  140.2340   74.1280  220.9570 C   0  0  0  0  0  0  0  0  0  0  0  0
  140.7400   75.5120  221.2110 C   0  0  0  0  0  0  0  0  0  0  0  0
  140.6050   76.0510  222.3470 O   0  0  0  0  0  0  0  0  0  0  0  0
  141.3880   76.2700  220.1980 N   0  0  0  0  0  0  0  0  0  0  0  0
  141.0410   77.6530  219.9210 C   0  0  0  0  0  0  0  0  0  0  0  0
  141.6700   78.0500  218.6300 C   0  0  0  0  0  0  0  0  0  0  0  0
  142.2230   76.7620  218.0710 C   0  0  0  0  0  0  0  0  0  0  0  0
  142.4300   75.9290  219.2810 C   0  0  1  0  0  0  0  0  0  0  0  0
  143.8100   75.9130  219.8470 C   0  0  0  0  0  0  0  0  0  0  0  0
  144.2910   74.6430  220.2870 N   0  0  0  0  0  0  0  0  0  0  0  0
  143.5180   73.5200  220.2920 C   0  0  0  0  0  0  0  0  0  0  0  0
  144.2800   72.4790  220.7690 C   0  0  0  0  0  0  0  0  0  0  0  0
  145.5140   73.0160  221.0430 C   0  0  0  0  0  0  0  0  0  0  0  0
  145.5020   74.3060  220.7510 N   0  0  0  0  0  0  0  0  0  0  0  0
  140.2600   71.3890  223.5860 C   0  0  0  0  0  0  0  0  0  0  0  0
  139.6050   70.1750  223.6160 C   0  0  0  0  0  0  0  0  0  0  0  0
  139.4010   69.4810  224.7940 C   0  0  0  0  0  0  0  0  0  0  0  0
  139.8750   70.0310  225.9790 C   0  0  0  0  0  0  0  0  0  0  0  0
  139.7160   69.4060  227.1990 C   0  0  0  0  0  0  0  0  0  0  0  0
  140.2040   69.9940  228.3490 C   0  0  0  0  0  0  0  0  0  0  0  0
  140.8550   71.2100  228.2810 C   0  0  0  0  0  0  0  0  0  0  0  0
  141.0270   71.8560  227.0710 C   0  0  0  0  0  0  0  0  0  0  0  0
  140.5290   71.2470  225.9370 C   0  0  0  0  0  0  0  0  0  0  0  0
  140.6990   71.8800  224.7590 N   0  0  0  0  0  0  0  0  0  0  0  0
  139.5950   73.8850  223.0570 H   0  0  0  0  0  0  0  0  0  0  0  0
  140.9706   73.5717  220.3588 H   0  0  0  0  0  0  0  0  0  0  0  0
  139.2819   74.1791  220.4084 H   0  0  0  0  0  0  0  0  0  0  0  0
  139.9481   77.7535  219.8474 H   0  0  0  0  0  0  0  0  0  0  0  0
  141.4040   78.3018  220.7318 H   0  0  0  0  0  0  0  0  0  0  0  0
  140.9216   78.4807  217.9485 H   0  0  0  0  0  0  0  0  0  0  0  0
  142.4463   78.8183  218.7603 H   0  0  0  0  0  0  0  0  0  0  0  0
  141.5049   76.2893  217.3847 H   0  0  0  0  0  0  0  0  0  0  0  0
  143.1419   76.9058  217.4837 H   0  0  0  0  0  0  0  0  0  0  0  0
  142.3538   74.8670  219.0047 H   0  0  0  0  0  0  0  0  0  0  0  0
  144.4964   76.2824  219.0709 H   0  0  0  0  0  0  0  0  0  0  0  0
  143.7685   76.5428  220.7479 H   0  0  0  0  0  0  0  0  0  0  0  0
  142.4679   73.4574  219.9706 H   0  0  0  0  0  0  0  0  0  0  0  0
  143.9661   71.4333  220.9032 H   0  0  0  0  0  0  0  0  0  0  0  0
  146.3759   72.4611  221.4421 H   0  0  0  0  0  0  0  0  0  0  0  0
  139.2337   69.7462  222.6735 H   0  0  0  0  0  0  0  0  0  0  0  0
  138.8751   68.5148  224.7935 H   0  0  0  0  0  0  0  0  0  0  0  0
  139.1991   68.4367  227.2555 H   0  0  0  0  0  0  0  0  0  0  0  0
  140.0741   69.4936  229.3199 H   0  0  0  0  0  0  0  0  0  0  0  0
  141.2418   71.6707  229.2019 H   0  0  0  0  0  0  0  0  0  0  0  0
  141.5445   72.8250  227.0138 H   0  0  0  0  0  0  0  0  0  0  0  0
  1  2  2  0
  2  3  1  0
  3  4  1  0
  4  5  1  0
  5  6  2  0
  5  7  1  0
  7  8  1  0
  8  9  1  0
  9 10  1  0
 10 11  1  0
 11 12  1  0
 12 13  1  0
 13 14  1  0
 14 15  2  0
 15 16  1  0
 16 17  2  0
  2 18  1  0
 18 19  2  0
 19 20  1  0
 20 21  2  0
 21 22  1  0
 22 23  2  0
 23 24  1  0
 24 25  2  0
 25 26  1  0
 26 27  2  0
 11  7  1  0
 17 13  1  0
 27 18  1  0
 26 21  1  0
  3 28  1  0
  4 29  1  0
  4 30  1  0
  8 31  1  0
  8 32  1  0
  9 33  1  0
  9 34  1  0
 10 35  1  0
 10 36  1  0
 11 37  1  6
 12 38  1  0
 12 39  1  0
 14 40  1  0
 15 41  1  0
 16 42  1  0
 19 43  1  0
 20 44  1  0
 22 45  1  0
 23 46  1  0
 24 47  1  0
 25 48  1  0
M  END
>  <smiles>  (4) 
O=C(NCC(=O)N1CCC[C@H]1Cn1cccn1)c1ccc2ccccc2n1

>  <score_type>  (4) 
oracle

>  <origin>  (4) 
autodockgpu

>  <m_score__min__energy>  (4) 
-8.4000000000000004

>  <m_primary>  (4) 
energy

>  <rmsd>  (4) 
3.5546610084256787

>  <m_score__min__rmsd>  (4) 
3.5546610084256787

>  <meeko>  (4) 
{"free_energy": -7.9, "intermolecular_energy": -9.69, "internal_energy": -1.84, "cluster_size": 12, "cluster_id": 3, "rank_in_cluster": 6}

>  <energy>  (4) 
-8.22

>  <cluster_rmsd>  (4) 
1.95

>  <cluster>  (4) 
1

$$$$

     RDKit          3D

 48 51  0  0  0  0  0  0  0  0999 V2000
  140.0700   71.3500  221.2490 O   0  0  0  0  0  0  0  0  0  0  0  0
  139.9030   71.9800  222.3320 C   0  0  0  0  0  0  0  0  0  0  0  0
  139.6470   73.3850  222.3600 N   0  0  0  0  0  0  0  0  0  0  0  0
  139.5810   74.0790  221.0910 C   0  0  0  0  0  0  0  0  0  0  0  0
  140.6720   75.1000  221.0290 C   0  0  0  0  0  0  0  0  0  0  0  0
  140.7090   76.0570  221.8550 O   0  0  0  0  0  0  0  0  0  0  0  0
  141.7000   75.0400  220.0490 N   0  0  0  0  0  0  0  0  0  0  0  0
  142.6510   76.1190  219.8530 C   0  0  0  0  0  0  0  0  0  0  0  0
  143.3810   75.8810  218.5770 C   0  0  0  0  0  0  0  0  0  0  0  0
  142.6560   74.7210  217.9400 C   0  0  0  0  0  0  0  0  0  0  0  0
  142.0440   74.0280  219.1000 C   0  0  1  0  0  0  0  0  0  0  0  0
  142.7920   72.8580  219.6440 C   0  0  0  0  0  0  0  0  0  0  0  0
  144.1260   73.1160  220.0810 N   0  0  0  0  0  0  0  0  0  0  0  0
  145.1840   72.3260  219.7370 C   0  0  0  0  0  0  0  0  0  0  0  0
  146.3150   72.8510  220.3170 C   0  0  0  0  0  0  0  0  0  0  0  0
  145.8980   73.9620  221.0070 C   0  0  0  0  0  0  0  0  0  0  0  0
  144.5920   74.1040  220.8560 N   0  0  0  0  0  0  0  0  0  0  0  0
  139.9740   71.2550  223.5990 C   0  0  0  0  0  0  0  0  0  0  0  0
  139.5640   69.9400  223.6760 C   0  0  0  0  0  0  0  0  0  0  0  0
  139.6160   69.2240  224.8570 C   0  0  0  0  0  0  0  0  0  0  0  0
  140.0980   69.8570  225.9960 C   0  0  0  0  0  0  0  0  0  0  0  0
  140.1850   69.2170  227.2160 C   0  0  0  0  0  0  0  0  0  0  0  0
  140.6710   69.8890  228.3200 C   0  0  0  0  0  0  0  0  0  0  0  0
  141.0720   71.2060  228.2050 C   0  0  0  0  0  0  0  0  0  0  0  0
  140.9960   71.8690  226.9950 C   0  0  0  0  0  0  0  0  0  0  0  0
  140.5060   71.1730  225.9070 C   0  0  0  0  0  0  0  0  0  0  0  0
  140.4320   71.8230  224.7290 N   0  0  0  0  0  0  0  0  0  0  0  0
  139.5200   73.8340  223.2850 H   0  0  0  0  0  0  0  0  0  0  0  0
  139.7061   73.3572  220.2704 H   0  0  0  0  0  0  0  0  0  0  0  0
  138.6047   74.5763  220.9932 H   0  0  0  0  0  0  0  0  0  0  0  0
  142.1169   77.0792  219.8011 H   0  0  0  0  0  0  0  0  0  0  0  0
  143.3611   76.1520  220.6924 H   0  0  0  0  0  0  0  0  0  0  0  0
  143.3357   76.7702  217.9311 H   0  0  0  0  0  0  0  0  0  0  0  0
  144.4486   75.6705  218.7379 H   0  0  0  0  0  0  0  0  0  0  0  0
  141.8850   75.0741  217.2394 H   0  0  0  0  0  0  0  0  0  0  0  0
  143.3169   74.0710  217.3478 H   0  0  0  0  0  0  0  0  0  0  0  0
  141.1370   73.5018  218.7678 H   0  0  0  0  0  0  0  0  0  0  0  0
  142.2265   72.4667  220.5025 H   0  0  0  0  0  0  0  0  0  0  0  0
  142.8860   72.1509  218.8066 H   0  0  0  0  0  0  0  0  0  0  0  0
  145.1400   71.4262  219.1059 H   0  0  0  0  0  0  0  0  0  0  0  0
  147.3411   72.4614  220.2433 H   0  0  0  0  0  0  0  0  0  0  0  0
  146.5476   74.6288  221.5930 H   0  0  0  0  0  0  0  0  0  0  0  0
  139.1840   69.4462  222.7695 H   0  0  0  0  0  0  0  0  0  0  0  0
  139.2832   68.1762  224.8944 H   0  0  0  0  0  0  0  0  0  0  0  0
  139.8661   68.1683  227.3090 H   0  0  0  0  0  0  0  0  0  0  0  0
  140.7389   69.3759  229.2906 H   0  0  0  0  0  0  0  0  0  0  0  0
  141.4574   71.7345  229.0894 H   0  0  0  0  0  0  0  0  0  0  0  0
  141.3154   72.9174  226.9011 H   0  0  0  0  0  0  0  0  0  0  0  0
  1  2  2  0
  2  3  1  0
  3  4  1  0
  4  5  1  0
  5  6  2  0
  5  7  1  0
  7  8  1  0
  8  9  1  0
  9 10  1  0
 10 11  1  0
 11 12  1  0
 12 13  1  0
 13 14  1  0
 14 15  2  0
 15 16  1  0
 16 17  2  0
  2 18  1  0
 18 19  2  0
 19 20  1  0
 20 21  2  0
 21 22  1  0
 22 23  2  0
 23 24  1  0
 24 25  2  0
 25 26  1  0
 26 27  2  0
 11  7  1  0
 17 13  1  0
 27 18  1  0
 26 21  1  0
  3 28  1  0
  4 29  1  0
  4 30  1  0
  8 31  1  0
  8 32  1  0
  9 33  1  0
  9 34  1  0
 10 35  1  0
 10 36  1  0
 11 37  1  6
 12 38  1  0
 12 39  1  0
 14 40  1  0
 15 41  1  0
 16 42  1  0
 19 43  1  0
 20 44  1  0
 22 45  1  0
 23 46  1  0
 24 47  1  0
 25 48  1  0
M  END
>  <smiles>  (5) 
O=C(NCC(=O)N1CCC[C@H]1Cn1cccn1)c1ccc2ccccc2n1

>  <score_type>  (5) 
oracle

>  <origin>  (5) 
autodockgpu

>  <m_score__min__energy>  (5) 
-8.4000000000000004

>  <m_primary>  (5) 
energy

>  <rmsd>  (5) 
3.92705918422906

>  <m_score__min__rmsd>  (5) 
3.92705918422906

>  <meeko>  (5) 
{"free_energy": -7.54, "intermolecular_energy": -9.33, "internal_energy": -1.72, "cluster_size": 12, "cluster_id": 3, "rank_in_cluster": 10}

>  <energy>  (5) 
-8.21

>  <cluster_rmsd>  (5) 
1.35

>  <cluster>  (5) 
1

$$$$

     RDKit          3D

 48 51  0  0  0  0  0  0  0  0999 V2000
  141.0320   74.5460  221.2680 O   0  0  0  0  0  0  0  0  0  0  0  0
  140.0260   74.9490  221.9180 C   0  0  0  0  0  0  0  0  0  0  0  0
  138.9440   74.0810  222.2570 N   0  0  0  0  0  0  0  0  0  0  0  0
  139.0340   72.7010  221.8300 C   0  0  0  0  0  0  0  0  0  0  0  0
  139.6540   71.8850  222.9190 C   0  0  0  0  0  0  0  0  0  0  0  0
  140.7190   72.2670  223.4860 O   0  0  0  0  0  0  0  0  0  0  0  0
  139.0800   70.6620  223.3590 N   0  0  0  0  0  0  0  0  0  0  0  0
  138.7200   69.5970  222.4390 C   0  0  0  0  0  0  0  0  0  0  0  0
  137.8780   68.6070  223.1650 C   0  0  0  0  0  0  0  0  0  0  0  0
  137.5940   69.2600  224.4960 C   0  0  0  0  0  0  0  0  0  0  0  0
  138.7350   70.1930  224.6650 C   0  0  1  0  0  0  0  0  0  0  0  0
  139.8730   69.7060  225.4980 C   0  0  0  0  0  0  0  0  0  0  0  0
  140.4220   70.6480  226.4190 N   0  0  0  0  0  0  0  0  0  0  0  0
  140.2660   70.5400  227.7700 C   0  0  0  0  0  0  0  0  0  0  0  0
  140.9140   71.5990  228.3610 C   0  0  0  0  0  0  0  0  0  0  0  0
  141.4520   72.3290  227.3300 C   0  0  0  0  0  0  0  0  0  0  0  0
  141.1490   71.7480  226.1810 N   0  0  0  0  0  0  0  0  0  0  0  0
  139.9600   76.3480  222.3370 C   0  0  0  0  0  0  0  0  0  0  0  0
  138.7410   76.9710  222.5040 C   0  0  0  0  0  0  0  0  0  0  0  0
  138.6400   78.2920  222.8970 C   0  0  0  0  0  0  0  0  0  0  0  0
  139.8100   79.0060  223.1300 C   0  0  0  0  0  0  0  0  0  0  0  0
  139.8020   80.3280  223.5270 C   0  0  0  0  0  0  0  0  0  0  0  0
  140.9910   80.9950  223.7450 C   0  0  0  0  0  0  0  0  0  0  0  0
  142.1930   80.3390  223.5680 C   0  0  0  0  0  0  0  0  0  0  0  0
  142.2280   79.0150  223.1720 C   0  0  0  0  0  0  0  0  0  0  0  0
  141.0250   78.3720  222.9600 C   0  0  0  0  0  0  0  0  0  0  0  0
  141.0630   77.0820  222.5730 N   0  0  0  0  0  0  0  0  0  0  0  0
  138.1520   74.4830  222.7910 H   0  0  0  0  0  0  0  0  0  0  0  0
  138.0263   72.3175  221.6121 H   0  0  0  0  0  0  0  0  0  0  0  0
  139.6534   72.6360  220.9233 H   0  0  0  0  0  0  0  0  0  0  0  0
  138.1550   70.0139  221.5923 H   0  0  0  0  0  0  0  0  0  0  0  0
  139.6280   69.1087  222.0554 H   0  0  0  0  0  0  0  0  0  0  0  0
  136.9431   68.4157  222.6179 H   0  0  0  0  0  0  0  0  0  0  0  0
  138.3765   67.6325  223.2740 H   0  0  0  0  0  0  0  0  0  0  0  0
  136.6388   69.8050  224.4724 H   0  0  0  0  0  0  0  0  0  0  0  0
  137.5012   68.5376  225.3203 H   0  0  0  0  0  0  0  0  0  0  0  0
  138.4190   71.0369  225.2959 H   0  0  0  0  0  0  0  0  0  0  0  0
  139.5209   68.8378  226.0743 H   0  0  0  0  0  0  0  0  0  0  0  0
  140.6827   69.4774  224.7894 H   0  0  0  0  0  0  0  0  0  0  0  0
  139.7173   69.7442  228.2951 H   0  0  0  0  0  0  0  0  0  0  0  0
  140.9864   71.8163  229.4369 H   0  0  0  0  0  0  0  0  0  0  0  0
  142.0416   73.2509  227.4419 H   0  0  0  0  0  0  0  0  0  0  0  0
  137.8202   76.3985  222.3185 H   0  0  0  0  0  0  0  0  0  0  0  0
  137.6562   78.7678  223.0226 H   0  0  0  0  0  0  0  0  0  0  0  0
  138.8453   80.8517  223.6701 H   0  0  0  0  0  0  0  0  0  0  0  0
  140.9807   82.0490  224.0597 H   0  0  0  0  0  0  0  0  0  0  0  0
  143.1358   80.8774  223.7445 H   0  0  0  0  0  0  0  0  0  0  0  0
  143.1844   78.4903  223.0303 H   0  0  0  0  0  0  0  0  0  0  0  0
  1  2  2  0
  2  3  1  0
  3  4  1  0
  4  5  1  0
  5  6  2  0
  5  7  1  0
  7  8  1  0
  8  9  1  0
  9 10  1  0
 10 11  1  0
 11 12  1  0
 12 13  1  0
 13 14  1  0
 14 15  2  0
 15 16  1  0
 16 17  2  0
  2 18  1  0
 18 19  2  0
 19 20  1  0
 20 21  2  0
 21 22  1  0
 22 23  2  0
 23 24  1  0
 24 25  2  0
 25 26  1  0
 26 27  2  0
 11  7  1  0
 17 13  1  0
 27 18  1  0
 26 21  1  0
  3 28  1  0
  4 29  1  0
  4 30  1  0
  8 31  1  0
  8 32  1  0
  9 33  1  0
  9 34  1  0
 10 35  1  0
 10 36  1  0
 11 37  1  1
 12 38  1  0
 12 39  1  0
 14 40  1  0
 15 41  1  0
 16 42  1  0
 19 43  1  0
 20 44  1  0
 22 45  1  0
 23 46  1  0
 24 47  1  0
 25 48  1  0
M  END
>  <smiles>  (6) 
O=C(NCC(=O)N1CCC[C@H]1Cn1cccn1)c1ccc2ccccc2n1

>  <score_type>  (6) 
oracle

>  <origin>  (6) 
autodockgpu

>  <m_score__min__energy>  (6) 
-8.4000000000000004

>  <m_primary>  (6) 
energy

>  <rmsd>  (6) 
8.639582686844964

>  <m_score__min__rmsd>  (6) 
8.639582686844964

>  <meeko>  (6) 
{"free_energy": -8.28, "intermolecular_energy": -10.07, "internal_energy": -1.2, "cluster_size": 3, "cluster_id": 2, "rank_in_cluster": 1}

>  <energy>  (6) 
-8.21

>  <cluster_rmsd>  (6) 
1.93

>  <cluster>  (6) 
1

$$$$

     RDKit          3D

 48 51  0  0  0  0  0  0  0  0999 V2000
  141.1020   71.5400  221.4250 O   0  0  0  0  0  0  0  0  0  0  0  0
  140.5090   72.1170  222.3800 C   0  0  0  0  0  0  0  0  0  0  0  0
  140.0650   73.4710  222.2880 N   0  0  0  0  0  0  0  0  0  0  0  0
  140.3150   74.1760  221.0490 C   0  0  0  0  0  0  0  0  0  0  0  0
  140.7430   75.5760  221.3530 C   0  0  0  0  0  0  0  0  0  0  0  0
  140.5370   76.0820  222.4940 O   0  0  0  0  0  0  0  0  0  0  0  0
  141.3940   76.3880  220.3840 N   0  0  0  0  0  0  0  0  0  0  0  0
  141.2100   77.8270  220.3260 C   0  0  0  0  0  0  0  0  0  0  0  0
  141.7690   78.3250  219.0390 C   0  0  0  0  0  0  0  0  0  0  0  0
  142.0950   77.0720  218.2620 C   0  0  0  0  0  0  0  0  0  0  0  0
  142.2960   76.0580  219.3260 C   0  0  1  0  0  0  0  0  0  0  0  0
  143.7070   75.7970  219.7360 C   0  0  0  0  0  0  0  0  0  0  0  0
  144.0050   74.4610  220.1370 N   0  0  0  0  0  0  0  0  0  0  0  0
  145.1810   74.1120  220.7320 C   0  0  0  0  0  0  0  0  0  0  0  0
  145.1460   72.7610  220.9890 C   0  0  0  0  0  0  0  0  0  0  0  0
  143.9260   72.3270  220.5320 C   0  0  0  0  0  0  0  0  0  0  0  0
  143.2600   73.3520  220.0270 N   0  0  0  0  0  0  0  0  0  0  0  0
  140.2690   71.3830  223.6210 C   0  0  0  0  0  0  0  0  0  0  0  0
  139.6030   70.1750  223.6000 C   0  0  0  0  0  0  0  0  0  0  0  0
  139.3570   69.4550  224.7530 C   0  0  0  0  0  0  0  0  0  0  0  0
  139.8000   69.9700  225.9660 C   0  0  0  0  0  0  0  0  0  0  0  0
  139.5980   69.3160  227.1650 C   0  0  0  0  0  0  0  0  0  0  0  0
  140.0570   69.8700  228.3430 C   0  0  0  0  0  0  0  0  0  0  0  0
  140.7200   71.0800  228.3250 C   0  0  0  0  0  0  0  0  0  0  0  0
  140.9350   71.7550  227.1380 C   0  0  0  0  0  0  0  0  0  0  0  0
  140.4660   71.1790  225.9740 C   0  0  0  0  0  0  0  0  0  0  0  0
  140.6770   71.8400  224.8190 N   0  0  0  0  0  0  0  0  0  0  0  0
  139.5860   73.8780  223.1130 H   0  0  0  0  0  0  0  0  0  0  0  0
  141.1100   73.6626  220.4884 H   0  0  0  0  0  0  0  0  0  0  0  0
  139.3960   74.1953  220.4448 H   0  0  0  0  0  0  0  0  0  0  0  0
  140.1378   78.0662  220.3818 H   0  0  0  0  0  0  0  0  0  0  0  0
  141.7260   78.3066  221.1709 H   0  0  0  0  0  0  0  0  0  0  0  0
  141.0270   78.9341  218.5020 H   0  0  0  0  0  0  0  0  0  0  0  0
  142.6488   78.9690  219.1850 H   0  0  0  0  0  0  0  0  0  0  0  0
  141.2627   76.7901  217.6003 H   0  0  0  0  0  0  0  0  0  0  0  0
  142.9689   77.1868  217.6039 H   0  0  0  0  0  0  0  0  0  0  0  0
  142.0554   75.0624  218.9250 H   0  0  0  0  0  0  0  0  0  0  0  0
  144.3565   76.0453  218.8836 H   0  0  0  0  0  0  0  0  0  0  0  0
  143.8765   76.4188  220.6274 H   0  0  0  0  0  0  0  0  0  0  0  0
  146.0131   74.7924  220.9659 H   0  0  0  0  0  0  0  0  0  0  0  0
  145.9321   72.1543  221.4623 H   0  0  0  0  0  0  0  0  0  0  0  0
  143.5604   71.2906  220.5786 H   0  0  0  0  0  0  0  0  0  0  0  0
  139.2575   69.7730  222.6361 H   0  0  0  0  0  0  0  0  0  0  0  0
  138.8220   68.4947  224.7122 H   0  0  0  0  0  0  0  0  0  0  0  0
  139.0700   68.3511  227.1816 H   0  0  0  0  0  0  0  0  0  0  0  0
  139.8942   69.3466  229.2967 H   0  0  0  0  0  0  0  0  0  0  0  0
  141.0826   71.5136  229.2686 H   0  0  0  0  0  0  0  0  0  0  0  0
  141.4627   72.7200  227.1213 H   0  0  0  0  0  0  0  0  0  0  0  0
  1  2  2  0
  2  3  1  0
  3  4  1  0
  4  5  1  0
  5  6  2  0
  5  7  1  0
  7  8  1  0
  8  9  1  0
  9 10  1  0
 10 11  1  0
 11 12  1  0
 12 13  1  0
 13 14  1  0
 14 15  2  0
 15 16  1  0
 16 17  2  0
  2 18  1  0
 18 19  2  0
 19 20  1  0
 20 21  2  0
 21 22  1  0
 22 23  2  0
 23 24  1  0
 24 25  2  0
 25 26  1  0
 26 27  2  0
 11  7  1  0
 17 13  1  0
 27 18  1  0
 26 21  1  0
  3 28  1  0
  4 29  1  0
  4 30  1  0
  8 31  1  0
  8 32  1  0
  9 33  1  0
  9 34  1  0
 10 35  1  0
 10 36  1  0
 11 37  1  6
 12 38  1  0
 12 39  1  0
 14 40  1  0
 15 41  1  0
 16 42  1  0
 19 43  1  0
 20 44  1  0
 22 45  1  0
 23 46  1  0
 24 47  1  0
 25 48  1  0
M  END
>  <smiles>  (7) 
O=C(NCC(=O)N1CCC[C@H]1Cn1cccn1)c1ccc2ccccc2n1

>  <score_type>  (7) 
oracle

>  <origin>  (7) 
autodockgpu

>  <m_score__min__energy>  (7) 
-8.4000000000000004

>  <m_primary>  (7) 
energy

>  <rmsd>  (7) 
3.65084769035529

>  <m_score__min__rmsd>  (7) 
3.65084769035529

>  <meeko>  (7) 
{"free_energy": -7.9, "intermolecular_energy": -9.69, "internal_energy": -1.84, "cluster_size": 12, "cluster_id": 3, "rank_in_cluster": 4}

>  <energy>  (7) 
-8.2

>  <cluster_rmsd>  (7) 
1.9

>  <cluster>  (7) 
1

$$$$

     RDKit          3D

 48 51  0  0  0  0  0  0  0  0999 V2000
  137.5730   69.5810  222.1080 O   0  0  0  0  0  0  0  0  0  0  0  0
  138.0150   70.5250  222.8220 C   0  0  0  0  0  0  0  0  0  0  0  0
  137.8890   71.8930  222.4320 N   0  0  0  0  0  0  0  0  0  0  0  0
  137.2290   72.1730  221.1750 C   0  0  0  0  0  0  0  0  0  0  0  0
  138.2310   72.6890  220.1930 C   0  0  0  0  0  0  0  0  0  0  0  0
  137.9890   73.7230  219.5050 O   0  0  0  0  0  0  0  0  0  0  0  0
  139.4850   72.0480  219.9950 N   0  0  0  0  0  0  0  0  0  0  0  0
  140.0680   71.8730  218.6770 C   0  0  0  0  0  0  0  0  0  0  0  0
  141.2030   70.9140  218.7840 C   0  0  0  0  0  0  0  0  0  0  0  0
  141.1120   70.3820  220.1940 C   0  0  0  0  0  0  0  0  0  0  0  0
  140.4070   71.4660  220.9200 C   0  0  1  0  0  0  0  0  0  0  0  0
  141.2640   72.4290  221.6710 C   0  0  0  0  0  0  0  0  0  0  0  0
  140.7550   73.7560  221.7940 N   0  0  0  0  0  0  0  0  0  0  0  0
  141.4050   74.8480  221.2970 C   0  0  0  0  0  0  0  0  0  0  0  0
  140.6500   75.9610  221.5820 C   0  0  0  0  0  0  0  0  0  0  0  0
  139.5450   75.5000  222.2560 C   0  0  0  0  0  0  0  0  0  0  0  0
  139.6250   74.1850  222.3730 N   0  0  0  0  0  0  0  0  0  0  0  0
  138.6770   70.2150  224.0880 C   0  0  0  0  0  0  0  0  0  0  0  0
  138.5870   68.9500  224.6310 C   0  0  0  0  0  0  0  0  0  0  0  0
  139.1990   68.6220  225.8260 C   0  0  0  0  0  0  0  0  0  0  0  0
  139.9260   69.6020  226.4920 C   0  0  0  0  0  0  0  0  0  0  0  0
  140.5690   69.3600  227.6890 C   0  0  0  0  0  0  0  0  0  0  0  0
  141.2790   70.3670  228.3120 C   0  0  0  0  0  0  0  0  0  0  0  0
  141.3470   71.6200  227.7370 C   0  0  0  0  0  0  0  0  0  0  0  0
  140.7120   71.8880  226.5390 C   0  0  0  0  0  0  0  0  0  0  0  0
  140.0090   70.8630  225.9370 C   0  0  0  0  0  0  0  0  0  0  0  0
  139.3910   71.1280  224.7700 N   0  0  0  0  0  0  0  0  0  0  0  0
  138.2750   72.6140  223.0700 H   0  0  0  0  0  0  0  0  0  0  0  0
  136.7747   71.2501  220.7853 H   0  0  0  0  0  0  0  0  0  0  0  0
  136.4449   72.9284  221.3317 H   0  0  0  0  0  0  0  0  0  0  0  0
  139.3101   71.4749  217.9862 H   0  0  0  0  0  0  0  0  0  0  0  0
  140.4268   72.8393  218.2930 H   0  0  0  0  0  0  0  0  0  0  0  0
  141.0949   70.0994  218.0527 H   0  0  0  0  0  0  0  0  0  0  0  0
  142.1737   71.3877  218.5759 H   0  0  0  0  0  0  0  0  0  0  0  0
  140.5353   69.4458  220.2260 H   0  0  0  0  0  0  0  0  0  0  0  0
  142.0933   70.1394  220.6278 H   0  0  0  0  0  0  0  0  0  0  0  0
  139.8620   71.0333  221.7719 H   0  0  0  0  0  0  0  0  0  0  0  0
  141.4099   72.0293  222.6854 H   0  0  0  0  0  0  0  0  0  0  0  0
  142.1905   72.5203  221.0851 H   0  0  0  0  0  0  0  0  0  0  0  0
  142.3658   74.8393  220.7615 H   0  0  0  0  0  0  0  0  0  0  0  0
  140.8825   77.0047  221.3238 H   0  0  0  0  0  0  0  0  0  0  0  0
  138.7243   76.1252  222.6376 H   0  0  0  0  0  0  0  0  0  0  0  0
  138.0112   68.1797  224.0971 H   0  0  0  0  0  0  0  0  0  0  0  0
  139.1127   67.6071  226.2413 H   0  0  0  0  0  0  0  0  0  0  0  0
  140.5157   68.3618  228.1481 H   0  0  0  0  0  0  0  0  0  0  0  0
  141.7902   70.1708  229.2660 H   0  0  0  0  0  0  0  0  0  0  0  0
  141.9148   72.4169  228.2396 H   0  0  0  0  0  0  0  0  0  0  0  0
  140.7649   72.8861  226.0796 H   0  0  0  0  0  0  0  0  0  0  0  0
  1  2  2  0
  2  3  1  0
  3  4  1  0
  4  5  1  0
  5  6  2  0
  5  7  1  0
  7  8  1  0
  8  9  1  0
  9 10  1  0
 10 11  1  0
 11 12  1  0
 12 13  1  0
 13 14  1  0
 14 15  2  0
 15 16  1  0
 16 17  2  0
  2 18  1  0
 18 19  2  0
 19 20  1  0
 20 21  2  0
 21 22  1  0
 22 23  2  0
 23 24  1  0
 24 25  2  0
 25 26  1  0
 26 27  2  0
 11  7  1  0
 17 13  1  0
 27 18  1  0
 26 21  1  0
  3 28  1  0
  4 29  1  0
  4 30  1  0
  8 31  1  0
  8 32  1  0
  9 33  1  0
  9 34  1  0
 10 35  1  0
 10 36  1  0
 11 37  1  1
 12 38  1  0
 12 39  1  0
 14 40  1  0
 15 41  1  0
 16 42  1  0
 19 43  1  0
 20 44  1  0
 22 45  1  0
 23 46  1  0
 24 47  1  0
 25 48  1  0
M  END
>  <smiles>  (8) 
O=C(NCC(=O)N1CCC[C@H]1Cn1cccn1)c1ccc2ccccc2n1

>  <score_type>  (8) 
oracle

>  <origin>  (8) 
autodockgpu

>  <m_score__min__energy>  (8) 
-8.4000000000000004

>  <m_primary>  (8) 
energy

>  <rmsd>  (8) 
3.81304481354828

>  <m_score__min__rmsd>  (8) 
3.81304481354828

>  <meeko>  (8) 
{"free_energy": -6.02, "intermolecular_energy": -7.81, "internal_energy": -3.05, "cluster_size": 2, "cluster_id": 5, "rank_in_cluster": 2}

>  <energy>  (8) 
-8.19

>  <cluster_rmsd>  (8) 
1.92

>  <cluster>  (8) 
1

$$$$

     RDKit          3D

 48 51  0  0  0  0  0  0  0  0999 V2000
  140.3330   71.7890  221.0820 O   0  0  0  0  0  0  0  0  0  0  0  0
  140.0650   72.3060  222.2040 C   0  0  0  0  0  0  0  0  0  0  0  0
  139.7590   73.6930  222.3450 N   0  0  0  0  0  0  0  0  0  0  0  0
  139.7620   74.5050  221.1470 C   0  0  0  0  0  0  0  0  0  0  0  0
  139.4850   75.9290  221.5130 C   0  0  0  0  0  0  0  0  0  0  0  0
  138.9840   76.2210  222.6370 O   0  0  0  0  0  0  0  0  0  0  0  0
  139.7690   77.0000  220.6230 N   0  0  0  0  0  0  0  0  0  0  0  0
  138.8430   78.0970  220.4060 C   0  0  0  0  0  0  0  0  0  0  0  0
  139.2930   78.8690  219.2140 C   0  0  0  0  0  0  0  0  0  0  0  0
  140.4080   78.0370  218.6270 C   0  0  0  0  0  0  0  0  0  0  0  0
  140.9030   77.2660  219.7930 C   0  0  1  0  0  0  0  0  0  0  0  0
  142.1010   77.8150  220.4920 C   0  0  0  0  0  0  0  0  0  0  0  0
  141.8490   78.5200  221.7070 N   0  0  0  0  0  0  0  0  0  0  0  0
  142.0010   79.8700  221.8240 C   0  0  0  0  0  0  0  0  0  0  0  0
  141.6780   80.2260  223.1130 C   0  0  0  0  0  0  0  0  0  0  0  0
  141.3340   79.0580  223.7470 C   0  0  0  0  0  0  0  0  0  0  0  0
  141.4420   78.0520  222.8940 N   0  0  0  0  0  0  0  0  0  0  0  0
  140.0690   71.4630  223.3980 C   0  0  0  0  0  0  0  0  0  0  0  0
  139.5910   70.1700  223.3420 C   0  0  0  0  0  0  0  0  0  0  0  0
  139.5780   69.3460  224.4510 C   0  0  0  0  0  0  0  0  0  0  0  0
  140.0630   69.8440  225.6550 C   0  0  0  0  0  0  0  0  0  0  0  0
  140.0870   69.0890  226.8110 C   0  0  0  0  0  0  0  0  0  0  0  0
  140.5790   69.6290  227.9820 C   0  0  0  0  0  0  0  0  0  0  0  0
  141.0490   70.9270  228.0000 C   0  0  0  0  0  0  0  0  0  0  0  0
  141.0360   71.7030  226.8560 C   0  0  0  0  0  0  0  0  0  0  0  0
  140.5390   71.1390  225.6980 C   0  0  0  0  0  0  0  0  0  0  0  0
  140.5270   71.8990  224.5860 N   0  0  0  0  0  0  0  0  0  0  0  0
  139.5490   74.0460  223.2970 H   0  0  0  0  0  0  0  0  0  0  0  0
  140.7453   74.4358  220.6589 H   0  0  0  0  0  0  0  0  0  0  0  0
  138.9854   74.1448  220.4562 H   0  0  0  0  0  0  0  0  0  0  0  0
  137.8323   77.6998  220.2306 H   0  0  0  0  0  0  0  0  0  0  0  0
  138.8200   78.7504  221.2906 H   0  0  0  0  0  0  0  0  0  0  0  0
  138.4713   78.9839  218.4917 H   0  0  0  0  0  0  0  0  0  0  0  0
  139.6207   79.8867  219.4727 H   0  0  0  0  0  0  0  0  0  0  0  0
  140.0287   77.3660  217.8422 H   0  0  0  0  0  0  0  0  0  0  0  0
  141.1905   78.6415  218.1450 H   0  0  0  0  0  0  0  0  0  0  0  0
  141.3390   76.3201  219.4391 H   0  0  0  0  0  0  0  0  0  0  0  0
  142.7702   76.9733  220.7240 H   0  0  0  0  0  0  0  0  0  0  0  0
  142.5318   78.5566  219.8032 H   0  0  0  0  0  0  0  0  0  0  0  0
  142.3254   80.5550  221.0268 H   0  0  0  0  0  0  0  0  0  0  0  0
  141.6924   81.2371  223.5460 H   0  0  0  0  0  0  0  0  0  0  0  0
  141.0186   78.9719  224.7973 H   0  0  0  0  0  0  0  0  0  0  0  0
  139.2088   69.7835  222.3857 H   0  0  0  0  0  0  0  0  0  0  0  0
  139.1922   68.3181  224.3828 H   0  0  0  0  0  0  0  0  0  0  0  0
  139.7131   68.0546  226.7985 H   0  0  0  0  0  0  0  0  0  0  0  0
  140.5966   69.0250  228.9012 H   0  0  0  0  0  0  0  0  0  0  0  0
  141.4392   71.3496  228.9376 H   0  0  0  0  0  0  0  0  0  0  0  0
  141.4099   72.7374  226.8680 H   0  0  0  0  0  0  0  0  0  0  0  0
  1  2  2  0
  2  3  1  0
  3  4  1  0
  4  5  1  0
  5  6  2  0
  5  7  1  0
  7  8  1  0
  8  9  1  0
  9 10  1  0
 10 11  1  0
 11 12  1  0
 12 13  1  0
 13 14  1  0
 14 15  2  0
 15 16  1  0
 16 17  2  0
  2 18  1  0
 18 19  2  0
 19 20  1  0
 20 21  2  0
 21 22  1  0
 22 23  2  0
 23 24  1  0
 24 25  2  0
 25 26  1  0
 26 27  2  0
 11  7  1  0
 17 13  1  0
 27 18  1  0
 26 21  1  0
  3 28  1  0
  4 29  1  0
  4 30  1  0
  8 31  1  0
  8 32  1  0
  9 33  1  0
  9 34  1  0
 10 35  1  0
 10 36  1  0
 11 37  1  6
 12 38  1  0
 12 39  1  0
 14 40  1  0
 15 41  1  0
 16 42  1  0
 19 43  1  0
 20 44  1  0
 22 45  1  0
 23 46  1  0
 24 47  1  0
 25 48  1  0
M  END
>  <smiles>  (9) 
O=C(NCC(=O)N1CCC[C@H]1Cn1cccn1)c1ccc2ccccc2n1

>  <score_type>  (9) 
oracle

>  <origin>  (9) 
autodockgpu

>  <m_score__min__energy>  (9) 
-8.4000000000000004

>  <m_primary>  (9) 
energy

>  <rmsd>  (9) 
2.1064759695934305

>  <m_score__min__rmsd>  (9) 
2.1064759695934305

>  <meeko>  (9) 
{"free_energy": -7.09, "intermolecular_energy": -8.88, "internal_energy": -2.01, "cluster_size": 26, "cluster_id": 1, "rank_in_cluster": 26}

>  <energy>  (9) 
-8.18

>  <cluster_rmsd>  (9) 
1.91

>  <cluster>  (9) 
1

$$$$

     RDKit          3D

 48 51  0  0  0  0  0  0  0  0999 V2000
  141.3520   71.9270  221.6230 O   0  0  0  0  0  0  0  0  0  0  0  0
  140.4140   72.2330  222.4130 C   0  0  0  0  0  0  0  0  0  0  0  0
  139.5220   73.3160  222.1470 N   0  0  0  0  0  0  0  0  0  0  0  0
  139.7250   74.0660  220.9260 C   0  0  0  0  0  0  0  0  0  0  0  0
  140.7370   75.1400  221.1670 C   0  0  0  0  0  0  0  0  0  0  0  0
  141.1040   75.4320  222.3420 O   0  0  0  0  0  0  0  0  0  0  0  0
  141.3240   75.8700  220.0970 N   0  0  0  0  0  0  0  0  0  0  0  0
  140.8630   77.1920  219.7120 C   0  0  0  0  0  0  0  0  0  0  0  0
  141.4630   77.5390  218.3940 C   0  0  0  0  0  0  0  0  0  0  0  0
  142.1280   76.2630  217.9370 C   0  0  0  0  0  0  0  0  0  0  0  0
  142.3980   75.5490  219.2090 C   0  0  1  0  0  0  0  0  0  0  0  0
  143.7710   75.6950  219.7740 C   0  0  0  0  0  0  0  0  0  0  0  0
  144.3640   74.5050  220.2930 N   0  0  0  0  0  0  0  0  0  0  0  0
  143.7310   73.2980  220.2850 C   0  0  0  0  0  0  0  0  0  0  0  0
  144.5740   72.3700  220.8510 C   0  0  0  0  0  0  0  0  0  0  0  0
  145.7120   73.0580  221.1910 C   0  0  0  0  0  0  0  0  0  0  0  0
  145.5690   74.3290  220.8520 N   0  0  0  0  0  0  0  0  0  0  0  0
  140.2310   71.4590  223.6390 C   0  0  0  0  0  0  0  0  0  0  0  0
  139.5510   70.2590  223.6130 C   0  0  0  0  0  0  0  0  0  0  0  0
  139.3580   69.5020  224.7530 C   0  0  0  0  0  0  0  0  0  0  0  0
  139.8690   69.9710  225.9570 C   0  0  0  0  0  0  0  0  0  0  0  0
  139.7230   69.2790  227.1420 C   0  0  0  0  0  0  0  0  0  0  0  0
  140.2490   69.7870  228.3130 C   0  0  0  0  0  0  0  0  0  0  0  0
  140.9250   70.9920  228.3010 C   0  0  0  0  0  0  0  0  0  0  0  0
  141.0850   71.7040  227.1270 C   0  0  0  0  0  0  0  0  0  0  0  0
  140.5490   71.1730  225.9710 C   0  0  0  0  0  0  0  0  0  0  0  0
  140.7060   71.8710  224.8290 N   0  0  0  0  0  0  0  0  0  0  0  0
  138.7760   73.5080  222.8410 H   0  0  0  0  0  0  0  0  0  0  0  0
  140.0867   73.3911  220.1363 H   0  0  0  0  0  0  0  0  0  0  0  0
  138.7741   74.5203  220.6107 H   0  0  0  0  0  0  0  0  0  0  0  0
  139.7659   77.1931  219.6316 H   0  0  0  0  0  0  0  0  0  0  0  0
  141.1654   77.9307  220.4689 H   0  0  0  0  0  0  0  0  0  0  0  0
  140.6845   77.8491  217.6814 H   0  0  0  0  0  0  0  0  0  0  0  0
  142.1699   78.3790  218.4630 H   0  0  0  0  0  0  0  0  0  0  0  0
  141.4573   75.6779  217.2906 H   0  0  0  0  0  0  0  0  0  0  0  0
  143.0346   76.4384  217.3392 H   0  0  0  0  0  0  0  0  0  0  0  0
  142.4151   74.4660  219.0173 H   0  0  0  0  0  0  0  0  0  0  0  0
  144.4247   76.0761  218.9756 H   0  0  0  0  0  0  0  0  0  0  0  0
  143.6673   76.3737  220.6334 H   0  0  0  0  0  0  0  0  0  0  0  0
  142.7220   73.1004  219.8941 H   0  0  0  0  0  0  0  0  0  0  0  0
  144.3769   71.2982  221.0003 H   0  0  0  0  0  0  0  0  0  0  0  0
  146.6015   72.6220  221.6693 H   0  0  0  0  0  0  0  0  0  0  0  0
  139.1503   69.8936  222.6560 H   0  0  0  0  0  0  0  0  0  0  0  0
  138.8115   68.5484  224.7082 H   0  0  0  0  0  0  0  0  0  0  0  0
  139.1856   68.3193  227.1536 H   0  0  0  0  0  0  0  0  0  0  0  0
  140.1299   69.2325  229.2555 H   0  0  0  0  0  0  0  0  0  0  0  0
  141.3414   71.3900  229.2381 H   0  0  0  0  0  0  0  0  0  0  0  0
  141.6226   72.6636  227.1143 H   0  0  0  0  0  0  0  0  0  0  0  0
  1  2  2  0
  2  3  1  0
  3  4  1  0
  4  5  1  0
  5  6  2  0
  5  7  1  0
  7  8  1  0
  8  9  1  0
  9 10  1  0
 10 11  1  0
 11 12  1  0
 12 13  1  0
 13 14  1  0
 14 15  2  0
 15 16  1  0
 16 17  2  0
  2 18  1  0
 18 19  2  0
 19 20  1  0
 20 21  2  0
 21 22  1  0
 22 23  2  0
 23 24  1  0
 24 25  2  0
 25 26  1  0
 26 27  2  0
 11  7  1  0
 17 13  1  0
 27 18  1  0
 26 21  1  0
  3 28  1  0
  4 29  1  0
  4 30  1  0
  8 31  1  0
  8 32  1  0
  9 33  1  0
  9 34  1  0
 10 35  1  0
 10 36  1  0
 11 37  1  6
 12 38  1  0
 12 39  1  0
 14 40  1  0
 15 41  1  0
 16 42  1  0
 19 43  1  0
 20 44  1  0
 22 45  1  0
 23 46  1  0
 24 47  1  0
 25 48  1  0
M  END
>  <smiles>  (10) 
O=C(NCC(=O)N1CCC[C@H]1Cn1cccn1)c1ccc2ccccc2n1

>  <score_type>  (10) 
oracle

>  <origin>  (10) 
autodockgpu

>  <m_score__min__energy>  (10) 
-8.4000000000000004

>  <m_primary>  (10) 
energy

>  <rmsd>  (10) 
3.5292129510874135

>  <m_score__min__rmsd>  (10) 
3.5292129510874135

>  <meeko>  (10) 
{"free_energy": -7.92, "intermolecular_energy": -9.71, "internal_energy": -1.6, "cluster_size": 12, "cluster_id": 3, "rank_in_cluster": 3}

>  <energy>  (10) 
-8.17

>  <cluster_rmsd>  (10) 
1.88

>  <cluster>  (10) 
1

$$$$

     RDKit          3D

 48 51  0  0  0  0  0  0  0  0999 V2000
  138.9020   75.1410  222.0790 O   0  0  0  0  0  0  0  0  0  0  0  0
  140.0530   75.6620  222.0630 C   0  0  0  0  0  0  0  0  0  0  0  0
  141.2180   74.9160  221.7070 N   0  0  0  0  0  0  0  0  0  0  0  0
  141.0400   73.5230  221.3580 C   0  0  0  0  0  0  0  0  0  0  0  0
  141.7590   73.2370  220.0780 C   0  0  0  0  0  0  0  0  0  0  0  0
  141.1180   73.0510  219.0040 O   0  0  0  0  0  0  0  0  0  0  0  0
  143.1780   73.1640  220.0160 N   0  0  0  0  0  0  0  0  0  0  0  0
  143.8710   72.1920  219.1890 C   0  0  0  0  0  0  0  0  0  0  0  0
  145.3080   72.1760  219.5800 C   0  0  0  0  0  0  0  0  0  0  0  0
  145.3700   73.0360  220.8190 C   0  0  0  0  0  0  0  0  0  0  0  0
  144.1940   73.9280  220.6700 C   0  0  1  0  0  0  0  0  0  0  0  0
  144.4560   75.2800  220.0960 C   0  0  0  0  0  0  0  0  0  0  0  0
  143.3340   75.9410  219.5130 N   0  0  0  0  0  0  0  0  0  0  0  0
  142.9790   75.7830  218.2060 C   0  0  0  0  0  0  0  0  0  0  0  0
  141.8620   76.5510  217.9710 C   0  0  0  0  0  0  0  0  0  0  0  0
  141.5710   77.1610  219.1660 C   0  0  0  0  0  0  0  0  0  0  0  0
  142.4580   76.7870  220.0730 N   0  0  0  0  0  0  0  0  0  0  0  0
  140.2050   77.0710  222.4200 C   0  0  0  0  0  0  0  0  0  0  0  0
  139.0960   77.8740  222.5840 C   0  0  0  0  0  0  0  0  0  0  0  0
  139.2010   79.2100  222.9200 C   0  0  0  0  0  0  0  0  0  0  0  0
  140.4690   79.7520  223.0970 C   0  0  0  0  0  0  0  0  0  0  0  0
  140.6660   81.0760  223.4330 C   0  0  0  0  0  0  0  0  0  0  0  0
  141.9460   81.5680  223.5980 C   0  0  0  0  0  0  0  0  0  0  0  0
  143.0330   80.7340  223.4260 C   0  0  0  0  0  0  0  0  0  0  0  0
  142.8620   79.4050  223.0890 C   0  0  0  0  0  0  0  0  0  0  0  0
  141.5720   78.9390  222.9310 C   0  0  0  0  0  0  0  0  0  0  0  0
  141.4100   77.6430  222.6020 N   0  0  0  0  0  0  0  0  0  0  0  0
  142.1290   75.4110  221.7170 H   0  0  0  0  0  0  0  0  0  0  0  0
  141.4487   72.8888  222.1584 H   0  0  0  0  0  0  0  0  0  0  0  0
  139.9682   73.3089  221.2338 H   0  0  0  0  0  0  0  0  0  0  0  0
  143.4335   71.1946  219.3435 H   0  0  0  0  0  0  0  0  0  0  0  0
  143.7728   72.4629  218.1274 H   0  0  0  0  0  0  0  0  0  0  0  0
  145.6398   71.1508  219.8009 H   0  0  0  0  0  0  0  0  0  0  0  0
  145.9644   72.5469  218.7791 H   0  0  0  0  0  0  0  0  0  0  0  0
  145.2880   72.4236  221.7291 H   0  0  0  0  0  0  0  0  0  0  0  0
  146.3185   73.5845  220.9171 H   0  0  0  0  0  0  0  0  0  0  0  0
  143.8476   74.2366  221.6674 H   0  0  0  0  0  0  0  0  0  0  0  0
  144.8408   75.9197  220.9039 H   0  0  0  0  0  0  0  0  0  0  0  0
  145.1662   75.1192  219.2716 H   0  0  0  0  0  0  0  0  0  0  0  0
  143.4956   75.1516  217.4682 H   0  0  0  0  0  0  0  0  0  0  0  0
  141.3153   76.6548  217.0221 H   0  0  0  0  0  0  0  0  0  0  0  0
  140.7328   77.8515  219.3414 H   0  0  0  0  0  0  0  0  0  0  0  0
  138.0964   77.4371  222.4429 H   0  0  0  0  0  0  0  0  0  0  0  0
  138.3016   79.8309  223.0447 H   0  0  0  0  0  0  0  0  0  0  0  0
  139.8009   81.7415  223.5698 H   0  0  0  0  0  0  0  0  0  0  0  0
  142.0994   82.6237  223.8663 H   0  0  0  0  0  0  0  0  0  0  0  0
  144.0493   81.1333  223.5591 H   0  0  0  0  0  0  0  0  0  0  0  0
  143.7266   78.7391  222.9509 H   0  0  0  0  0  0  0  0  0  0  0  0
  1  2  2  0
  2  3  1  0
  3  4  1  0
  4  5  1  0
  5  6  2  0
  5  7  1  0
  7  8  1  0
  8  9  1  0
  9 10  1  0
 10 11  1  0
 11 12  1  0
 12 13  1  0
 13 14  1  0
 14 15  2  0
 15 16  1  0
 16 17  2  0
  2 18  1  0
 18 19  2  0
 19 20  1  0
 20 21  2  0
 21 22  1  0
 22 23  2  0
 23 24  1  0
 24 25  2  0
 25 26  1  0
 26 27  2  0
 11  7  1  0
 17 13  1  0
 27 18  1  0
 26 21  1  0
  3 28  1  0
  4 29  1  0
  4 30  1  0
  8 31  1  0
  8 32  1  0
  9 33  1  0
  9 34  1  0
 10 35  1  0
 10 36  1  0
 11 37  1  1
 12 38  1  0
 12 39  1  0
 14 40  1  0
 15 41  1  0
 16 42  1  0
 19 43  1  0
 20 44  1  0
 22 45  1  0
 23 46  1  0
 24 47  1  0
 25 48  1  0
M  END
>  <smiles>  (11) 
O=C(NCC(=O)N1CCC[C@H]1Cn1cccn1)c1ccc2ccccc2n1

>  <score_type>  (11) 
oracle

>  <origin>  (11) 
autodockgpu

>  <m_score__min__energy>  (11) 
-8.4000000000000004

>  <m_primary>  (11) 
energy

>  <rmsd>  (11) 
7.53462588270908

>  <m_score__min__rmsd>  (11) 
7.53462588270908

>  <meeko>  (11) 
{"free_energy": -6.26, "intermolecular_energy": -8.05, "internal_energy": -3.13, "cluster_size": 7, "cluster_id": 4, "rank_in_cluster": 6}

>  <energy>  (11) 
-8.16

>  <cluster_rmsd>  (11) 
1.95

>  <cluster>  (11) 
1

$$$$

     RDKit          3D

 48 51  0  0  0  0  0  0  0  0999 V2000
  141.3610   72.2490  221.7610 O   0  0  0  0  0  0  0  0  0  0  0  0
  140.3870   72.4090  222.5490 C   0  0  0  0  0  0  0  0  0  0  0  0
  139.4160   73.4380  222.3550 N   0  0  0  0  0  0  0  0  0  0  0  0
  139.5810   74.3070  221.2100 C   0  0  0  0  0  0  0  0  0  0  0  0
  139.1990   75.7030  221.5880 C   0  0  0  0  0  0  0  0  0  0  0  0
  138.1980   75.9200  222.3300 O   0  0  0  0  0  0  0  0  0  0  0  0
  139.9380   76.8300  221.1360 N   0  0  0  0  0  0  0  0  0  0  0  0
  139.7990   77.3620  219.7930 C   0  0  0  0  0  0  0  0  0  0  0  0
  140.9100   78.3230  219.5460 C   0  0  0  0  0  0  0  0  0  0  0  0
  141.8190   78.1600  220.7400 C   0  0  0  0  0  0  0  0  0  0  0  0
  140.9060   77.6520  221.7930 C   0  0  1  0  0  0  0  0  0  0  0  0
  140.3570   78.6650  222.7410 C   0  0  0  0  0  0  0  0  0  0  0  0
  141.2610   79.6890  223.1540 N   0  0  0  0  0  0  0  0  0  0  0  0
  142.5620   79.4410  223.4820 C   0  0  0  0  0  0  0  0  0  0  0  0
  143.1490   80.6340  223.8320 C   0  0  0  0  0  0  0  0  0  0  0  0
  142.1680   81.5850  223.7020 C   0  0  0  0  0  0  0  0  0  0  0  0
  141.0500   81.0040  223.2980 N   0  0  0  0  0  0  0  0  0  0  0  0
  140.2430   71.5170  223.6990 C   0  0  0  0  0  0  0  0  0  0  0  0
  139.6410   70.2840  223.5560 C   0  0  0  0  0  0  0  0  0  0  0  0
  139.4870   69.4160  224.6200 C   0  0  0  0  0  0  0  0  0  0  0  0
  139.9580   69.8060  225.8680 C   0  0  0  0  0  0  0  0  0  0  0  0
  139.8470   69.0010  226.9840 C   0  0  0  0  0  0  0  0  0  0  0  0
  140.3300   69.4340  228.2030 C   0  0  0  0  0  0  0  0  0  0  0  0
  140.9270   70.6740  228.3080 C   0  0  0  0  0  0  0  0  0  0  0  0
  141.0520   71.4980  227.2060 C   0  0  0  0  0  0  0  0  0  0  0  0
  140.5600   71.0420  225.9990 C   0  0  0  0  0  0  0  0  0  0  0  0
  140.6820   71.8480  224.9270 N   0  0  0  0  0  0  0  0  0  0  0  0
  138.6440   73.5080  223.0430 H   0  0  0  0  0  0  0  0  0  0  0  0
  140.6314   74.2893  220.8839 H   0  0  0  0  0  0  0  0  0  0  0  0
  138.9375   73.9592  220.3884 H   0  0  0  0  0  0  0  0  0  0  0  0
  139.8493   76.5414  219.0622 H   0  0  0  0  0  0  0  0  0  0  0  0
  138.8301   77.8724  219.6890 H   0  0  0  0  0  0  0  0  0  0  0  0
  141.4410   78.0735  218.6155 H   0  0  0  0  0  0  0  0  0  0  0  0
  140.5524   79.3566  219.4290 H   0  0  0  0  0  0  0  0  0  0  0  0
  142.6205   77.4365  220.5299 H   0  0  0  0  0  0  0  0  0  0  0  0
  142.3298   79.0919  221.0242 H   0  0  0  0  0  0  0  0  0  0  0  0
  141.4836   77.0515  222.5112 H   0  0  0  0  0  0  0  0  0  0  0  0
  139.4979   79.1504  222.2547 H   0  0  0  0  0  0  0  0  0  0  0  0
  140.1013   78.1085  223.6548 H   0  0  0  0  0  0  0  0  0  0  0  0
  143.0553   78.4579  223.4687 H   0  0  0  0  0  0  0  0  0  0  0  0
  144.1898   80.7933  224.1504 H   0  0  0  0  0  0  0  0  0  0  0  0
  142.2916   82.6596  223.9019 H   0  0  0  0  0  0  0  0  0  0  0  0
  139.2723   69.9826  222.5644 H   0  0  0  0  0  0  0  0  0  0  0  0
  139.0024   68.4381  224.4823 H   0  0  0  0  0  0  0  0  0  0  0  0
  139.3725   68.0120  226.9019 H   0  0  0  0  0  0  0  0  0  0  0  0
  140.2390   68.7906  229.0905 H   0  0  0  0  0  0  0  0  0  0  0  0
  141.3088   71.0111  229.2830 H   0  0  0  0  0  0  0  0  0  0  0  0
  141.5284   72.4861  227.2876 H   0  0  0  0  0  0  0  0  0  0  0  0
  1  2  2  0
  2  3  1  0
  3  4  1  0
  4  5  1  0
  5  6  2  0
  5  7  1  0
  7  8  1  0
  8  9  1  0
  9 10  1  0
 10 11  1  0
 11 12  1  0
 12 13  1  0
 13 14  1  0
 14 15  2  0
 15 16  1  0
 16 17  2  0
  2 18  1  0
 18 19  2  0
 19 20  1  0
 20 21  2  0
 21 22  1  0
 22 23  2  0
 23 24  1  0
 24 25  2  0
 25 26  1  0
 26 27  2  0
 11  7  1  0
 17 13  1  0
 27 18  1  0
 26 21  1  0
  3 28  1  0
  4 29  1  0
  4 30  1  0
  8 31  1  0
  8 32  1  0
  9 33  1  0
  9 34  1  0
 10 35  1  0
 10 36  1  0
 11 37  1  1
 12 38  1  0
 12 39  1  0
 14 40  1  0
 15 41  1  0
 16 42  1  0
 19 43  1  0
 20 44  1  0
 22 45  1  0
 23 46  1  0
 24 47  1  0
 25 48  1  0
M  END
>  <smiles>  (12) 
O=C(NCC(=O)N1CCC[C@H]1Cn1cccn1)c1ccc2ccccc2n1

>  <score_type>  (12) 
oracle

>  <origin>  (12) 
autodockgpu

>  <m_score__min__energy>  (12) 
-8.4000000000000004

>  <m_primary>  (12) 
energy

>  <rmsd>  (12) 
2.17510938008612

>  <m_score__min__rmsd>  (12) 
2.17510938008612

>  <meeko>  (12) 
{"free_energy": -8.21, "intermolecular_energy": -10.0, "internal_energy": -1.31, "cluster_size": 26, "cluster_id": 1, "rank_in_cluster": 5}

>  <energy>  (12) 
-8.15

>  <cluster_rmsd>  (12) 
0.91

>  <cluster>  (12) 
1

$$$$

     RDKit          3D

 48 51  0  0  0  0  0  0  0  0999 V2000
  141.5670   72.0480  221.8470 O   0  0  0  0  0  0  0  0  0  0  0  0
  140.5680   72.2510  222.5940 C   0  0  0  0  0  0  0  0  0  0  0  0
  139.6910   73.3610  222.4020 N   0  0  0  0  0  0  0  0  0  0  0  0
  139.9820   74.2630  221.3090 C   0  0  0  0  0  0  0  0  0  0  0  0
  139.3930   75.6060  221.6040 C   0  0  0  0  0  0  0  0  0  0  0  0
  138.3690   75.7150  222.3390 O   0  0  0  0  0  0  0  0  0  0  0  0
  139.9520   76.8020  221.0780 N   0  0  0  0  0  0  0  0  0  0  0  0
  139.6100   77.3060  219.7600 C   0  0  0  0  0  0  0  0  0  0  0  0
  140.5780   78.3780  219.3960 C   0  0  0  0  0  0  0  0  0  0  0  0
  141.6250   78.3230  220.4820 C   0  0  0  0  0  0  0  0  0  0  0  0
  140.8930   77.7280  221.6270 C   0  0  1  0  0  0  0  0  0  0  0  0
  140.3460   78.6840  222.6330 C   0  0  0  0  0  0  0  0  0  0  0  0
  141.2630   79.6570  223.1350 N   0  0  0  0  0  0  0  0  0  0  0  0
  142.5840   79.3900  223.3460 C   0  0  0  0  0  0  0  0  0  0  0  0
  143.1790   80.5320  223.8270 C   0  0  0  0  0  0  0  0  0  0  0  0
  142.1810   81.4730  223.8930 C   0  0  0  0  0  0  0  0  0  0  0  0
  141.0460   80.9340  223.4780 N   0  0  0  0  0  0  0  0  0  0  0  0
  140.2960   71.3240  223.6910 C   0  0  0  0  0  0  0  0  0  0  0  0
  139.5680   70.1740  223.4700 C   0  0  0  0  0  0  0  0  0  0  0  0
  139.2910   69.2760  224.4840 C   0  0  0  0  0  0  0  0  0  0  0  0
  139.7660   69.5490  225.7610 C   0  0  0  0  0  0  0  0  0  0  0  0
  139.5370   68.7070  226.8310 C   0  0  0  0  0  0  0  0  0  0  0  0
  140.0290   69.0230  228.0810 C   0  0  0  0  0  0  0  0  0  0  0  0
  140.7550   70.1830  228.2650 C   0  0  0  0  0  0  0  0  0  0  0  0
  140.9990   71.0420  227.2100 C   0  0  0  0  0  0  0  0  0  0  0  0
  140.4940   70.7030  225.9700 C   0  0  0  0  0  0  0  0  0  0  0  0
  140.7330   71.5440  224.9450 N   0  0  0  0  0  0  0  0  0  0  0  0
  138.8920   73.4630  223.0550 H   0  0  0  0  0  0  0  0  0  0  0  0
  141.0716   74.3578  221.1913 H   0  0  0  0  0  0  0  0  0  0  0  0
  139.5472   73.8668  220.3795 H   0  0  0  0  0  0  0  0  0  0  0  0
  139.6670   76.4898  219.0247 H   0  0  0  0  0  0  0  0  0  0  0  0
  138.5866   77.7094  219.7655 H   0  0  0  0  0  0  0  0  0  0  0  0
  141.0272   78.1790  218.4118 H   0  0  0  0  0  0  0  0  0  0  0  0
  140.1010   79.3665  219.3231 H   0  0  0  0  0  0  0  0  0  0  0  0
  142.4718   77.6881  220.1821 H   0  0  0  0  0  0  0  0  0  0  0  0
  142.0607   79.3065  220.7120 H   0  0  0  0  0  0  0  0  0  0  0  0
  141.6074   77.1979  222.2741 H   0  0  0  0  0  0  0  0  0  0  0  0
  139.5076   79.2212  222.1657 H   0  0  0  0  0  0  0  0  0  0  0  0
  140.0600   78.0707  223.5002 H   0  0  0  0  0  0  0  0  0  0  0  0
  143.0857   78.4283  223.1631 H   0  0  0  0  0  0  0  0  0  0  0  0
  144.2358   80.6646  224.1021 H   0  0  0  0  0  0  0  0  0  0  0  0
  142.3054   82.5106  224.2365 H   0  0  0  0  0  0  0  0  0  0  0  0
  139.1963   69.9647  222.4561 H   0  0  0  0  0  0  0  0  0  0  0  0
  138.7073   68.3653  224.2843 H   0  0  0  0  0  0  0  0  0  0  0  0
  138.9605   67.7813  226.6866 H   0  0  0  0  0  0  0  0  0  0  0  0
  139.8427   68.3504  228.9312 H   0  0  0  0  0  0  0  0  0  0  0  0
  141.1444   70.4267  229.2645 H   0  0  0  0  0  0  0  0  0  0  0  0
  141.5773   71.9667  227.3535 H   0  0  0  0  0  0  0  0  0  0  0  0
  1  2  2  0
  2  3  1  0
  3  4  1  0
  4  5  1  0
  5  6  2  0
  5  7  1  0
  7  8  1  0
  8  9  1  0
  9 10  1  0
 10 11  1  0
 11 12  1  0
 12 13  1  0
 13 14  1  0
 14 15  2  0
 15 16  1  0
 16 17  2  0
  2 18  1  0
 18 19  2  0
 19 20  1  0
 20 21  2  0
 21 22  1  0
 22 23  2  0
 23 24  1  0
 24 25  2  0
 25 26  1  0
 26 27  2  0
 11  7  1  0
 17 13  1  0
 27 18  1  0
 26 21  1  0
  3 28  1  0
  4 29  1  0
  4 30  1  0
  8 31  1  0
  8 32  1  0
  9 33  1  0
  9 34  1  0
 10 35  1  0
 10 36  1  0
 11 37  1  1
 12 38  1  0
 12 39  1  0
 14 40  1  0
 15 41  1  0
 16 42  1  0
 19 43  1  0
 20 44  1  0
 22 45  1  0
 23 46  1  0
 24 47  1  0
 25 48  1  0
M  END
>  <smiles>  (13) 
O=C(NCC(=O)N1CCC[C@H]1Cn1cccn1)c1ccc2ccccc2n1

>  <score_type>  (13) 
oracle

>  <origin>  (13) 
autodockgpu

>  <m_score__min__energy>  (13) 
-8.4000000000000004

>  <m_primary>  (13) 
energy

>  <rmsd>  (13) 
2.1626792338758074

>  <m_score__min__rmsd>  (13) 
2.1626792338758074

>  <meeko>  (13) 
{"free_energy": -8.04, "intermolecular_energy": -9.83, "internal_energy": -1.41, "cluster_size": 26, "cluster_id": 1, "rank_in_cluster": 17}

>  <energy>  (13) 
-8.12

>  <cluster_rmsd>  (13) 
1.8

>  <cluster>  (13) 
1

$$$$

     RDKit          3D

 48 51  0  0  0  0  0  0  0  0999 V2000
  141.3670   71.8240  221.5950 O   0  0  0  0  0  0  0  0  0  0  0  0
  140.4380   72.1610  222.3820 C   0  0  0  0  0  0  0  0  0  0  0  0
  139.5500   73.2400  222.0880 N   0  0  0  0  0  0  0  0  0  0  0  0
  139.7460   73.9490  220.8420 C   0  0  0  0  0  0  0  0  0  0  0  0
  140.9510   74.8270  220.9560 C   0  0  0  0  0  0  0  0  0  0  0  0
  141.1660   75.4950  222.0080 O   0  0  0  0  0  0  0  0  0  0  0  0
  141.8940   74.9460  219.8990 N   0  0  0  0  0  0  0  0  0  0  0  0
  142.7990   76.0770  219.7880 C   0  0  0  0  0  0  0  0  0  0  0  0
  143.4240   76.0530  218.4370 C   0  0  0  0  0  0  0  0  0  0  0  0
  142.6750   74.9720  217.6960 C   0  0  0  0  0  0  0  0  0  0  0  0
  142.1810   74.0960  218.7860 C   0  0  1  0  0  0  0  0  0  0  0  0
  143.0000   72.8870  219.0890 C   0  0  0  0  0  0  0  0  0  0  0  0
  144.2890   73.1300  219.6520 N   0  0  0  0  0  0  0  0  0  0  0  0
  144.4750   73.4580  220.9630 C   0  0  0  0  0  0  0  0  0  0  0  0
  145.8240   73.6210  221.1750 C   0  0  0  0  0  0  0  0  0  0  0  0
  146.4240   73.3820  219.9630 C   0  0  0  0  0  0  0  0  0  0  0  0
  145.4940   73.0910  219.0670 N   0  0  0  0  0  0  0  0  0  0  0  0
  140.2610   71.4280  223.6350 C   0  0  0  0  0  0  0  0  0  0  0  0
  139.6180   70.2090  223.6460 C   0  0  0  0  0  0  0  0  0  0  0  0
  139.4320   69.4890  224.8110 C   0  0  0  0  0  0  0  0  0  0  0  0
  139.9120   70.0190  226.0030 C   0  0  0  0  0  0  0  0  0  0  0  0
  139.7710   69.3670  227.2110 C   0  0  0  0  0  0  0  0  0  0  0  0
  140.2650   69.9350  228.3690 C   0  0  0  0  0  0  0  0  0  0  0  0
  140.9040   71.1580  228.3190 C   0  0  0  0  0  0  0  0  0  0  0  0
  141.0600   71.8310  227.1210 C   0  0  0  0  0  0  0  0  0  0  0  0
  140.5560   71.2400  225.9790 C   0  0  0  0  0  0  0  0  0  0  0  0
  140.7080   71.8990  224.8130 N   0  0  0  0  0  0  0  0  0  0  0  0
  138.8110   73.4590  222.7820 H   0  0  0  0  0  0  0  0  0  0  0  0
  139.8947   73.2252  220.0271 H   0  0  0  0  0  0  0  0  0  0  0  0
  138.8608   74.5652  220.6260 H   0  0  0  0  0  0  0  0  0  0  0  0
  142.2390   77.0144  219.9208 H   0  0  0  0  0  0  0  0  0  0  0  0
  143.5766   76.0142  220.5635 H   0  0  0  0  0  0  0  0  0  0  0  0
  143.3033   77.0243  217.9350 H   0  0  0  0  0  0  0  0  0  0  0  0
  144.5061   75.8600  218.4790 H   0  0  0  0  0  0  0  0  0  0  0  0
  141.8388   75.3951  217.1200 H   0  0  0  0  0  0  0  0  0  0  0  0
  143.2985   74.4394  216.9628 H   0  0  0  0  0  0  0  0  0  0  0  0
  141.2622   73.5909  218.4533 H   0  0  0  0  0  0  0  0  0  0  0  0
  142.4340   72.2663  219.7992 H   0  0  0  0  0  0  0  0  0  0  0  0
  143.1863   72.4039  218.1185 H   0  0  0  0  0  0  0  0  0  0  0  0
  143.6839   73.5722  221.7188 H   0  0  0  0  0  0  0  0  0  0  0  0
  146.3199   73.8877  222.1200 H   0  0  0  0  0  0  0  0  0  0  0  0
  147.5057   73.4255  219.7677 H   0  0  0  0  0  0  0  0  0  0  0  0
  139.2412   69.7964  222.6984 H   0  0  0  0  0  0  0  0  0  0  0  0
  138.9155   68.5179  224.7953 H   0  0  0  0  0  0  0  0  0  0  0  0
  139.2636   68.3919  227.2518 H   0  0  0  0  0  0  0  0  0  0  0  0
  140.1494   69.4134  229.3305 H   0  0  0  0  0  0  0  0  0  0  0  0
  141.2947   71.6035  229.2457 H   0  0  0  0  0  0  0  0  0  0  0  0
  141.5689   72.8053  227.0790 H   0  0  0  0  0  0  0  0  0  0  0  0
  1  2  2  0
  2  3  1  0
  3  4  1  0
  4  5  1  0
  5  6  2  0
  5  7  1  0
  7  8  1  0
  8  9  1  0
  9 10  1  0
 10 11  1  0
 11 12  1  0
 12 13  1  0
 13 14  1  0
 14 15  2  0
 15 16  1  0
 16 17  2  0
  2 18  1  0
 18 19  2  0
 19 20  1  0
 20 21  2  0
 21 22  1  0
 22 23  2  0
 23 24  1  0
 24 25  2  0
 25 26  1  0
 26 27  2  0
 11  7  1  0
 17 13  1  0
 27 18  1  0
 26 21  1  0
  3 28  1  0
  4 29  1  0
  4 30  1  0
  8 31  1  0
  8 32  1  0
  9 33  1  0
  9 34  1  0
 10 35  1  0
 10 36  1  0
 11 37  1  6
 12 38  1  0
 12 39  1  0
 14 40  1  0
 15 41  1  0
 16 42  1  0
 19 43  1  0
 20 44  1  0
 22 45  1  0
 23 46  1  0
 24 47  1  0
 25 48  1  0
M  END
>  <smiles>  (14) 
O=C(NCC(=O)N1CCC[C@H]1Cn1cccn1)c1ccc2ccccc2n1

>  <score_type>  (14) 
oracle

>  <origin>  (14) 
autodockgpu

>  <m_score__min__energy>  (14) 
-8.4000000000000004

>  <m_primary>  (14) 
energy

>  <rmsd>  (14) 
3.799630038765294

>  <m_score__min__rmsd>  (14) 
3.799630038765294

>  <meeko>  (14) 
{"free_energy": -7.98, "intermolecular_energy": -9.77, "internal_energy": -1.76, "cluster_size": 12, "cluster_id": 3, "rank_in_cluster": 2}

>  <energy>  (14) 
-8.07

>  <cluster_rmsd>  (14) 
1.89

>  <cluster>  (14) 
1

$$$$

     RDKit          3D

 48 51  0  0  0  0  0  0  0  0999 V2000
  140.8190   71.7600  222.0310 O   0  0  0  0  0  0  0  0  0  0  0  0
  139.8430   71.7640  222.8340 C   0  0  0  0  0  0  0  0  0  0  0  0
  138.7570   72.6820  222.7020 N   0  0  0  0  0  0  0  0  0  0  0  0
  138.8050   73.6230  221.6040 C   0  0  0  0  0  0  0  0  0  0  0  0
  139.7930   74.7010  221.9170 C   0  0  0  0  0  0  0  0  0  0  0  0
  141.0320   74.4510  221.9550 O   0  0  0  0  0  0  0  0  0  0  0  0
  139.3860   76.0370  222.1800 N   0  0  0  0  0  0  0  0  0  0  0  0
  138.0710   76.3600  222.7040 C   0  0  0  0  0  0  0  0  0  0  0  0
  137.8560   77.8280  222.5750 C   0  0  0  0  0  0  0  0  0  0  0  0
  139.0290   78.3090  221.7560 C   0  0  0  0  0  0  0  0  0  0  0  0
  140.0680   77.2840  222.0210 C   0  0  1  0  0  0  0  0  0  0  0  0
  141.0700   77.6120  223.0760 C   0  0  0  0  0  0  0  0  0  0  0  0
  141.3970   78.9930  223.2210 N   0  0  0  0  0  0  0  0  0  0  0  0
  142.5770   79.5240  222.7910 C   0  0  0  0  0  0  0  0  0  0  0  0
  142.5710   80.8690  223.0790 C   0  0  0  0  0  0  0  0  0  0  0  0
  141.3650   81.1140  223.6870 C   0  0  0  0  0  0  0  0  0  0  0  0
  140.6780   79.9860  223.7630 N   0  0  0  0  0  0  0  0  0  0  0  0
  139.8200   70.8030  223.9350 C   0  0  0  0  0  0  0  0  0  0  0  0
  139.2000   69.5810  223.7820 C   0  0  0  0  0  0  0  0  0  0  0  0
  139.1580   68.6490  224.8020 C   0  0  0  0  0  0  0  0  0  0  0  0
  139.7610   68.9620  226.0140 C   0  0  0  0  0  0  0  0  0  0  0  0
  139.7660   68.0900  227.0840 C   0  0  0  0  0  0  0  0  0  0  0  0
  140.3790   68.4480  228.2690 C   0  0  0  0  0  0  0  0  0  0  0  0
  140.9890   69.6810  228.3850 C   0  0  0  0  0  0  0  0  0  0  0  0
  140.9980   70.5720  227.3280 C   0  0  0  0  0  0  0  0  0  0  0  0
  140.3780   70.1890  226.1550 C   0  0  0  0  0  0  0  0  0  0  0  0
  140.3880   71.0600  225.1270 N   0  0  0  0  0  0  0  0  0  0  0  0
  137.9920   72.6270  223.3990 H   0  0  0  0  0  0  0  0  0  0  0  0
  139.1107   73.1003  220.6857 H   0  0  0  0  0  0  0  0  0  0  0  0
  137.8097   74.0679  221.4574 H   0  0  0  0  0  0  0  0  0  0  0  0
  137.3014   75.8210  222.1320 H   0  0  0  0  0  0  0  0  0  0  0  0
  138.0036   76.0616  223.7606 H   0  0  0  0  0  0  0  0  0  0  0  0
  136.9081   78.0386  222.0582 H   0  0  0  0  0  0  0  0  0  0  0  0
  137.7929   78.3298  223.5518 H   0  0  0  0  0  0  0  0  0  0  0  0
  138.7749   78.3462  220.6864 H   0  0  0  0  0  0  0  0  0  0  0  0
  139.3503   79.3278  222.0181 H   0  0  0  0  0  0  0  0  0  0  0  0
  140.7491   77.2315  221.1588 H   0  0  0  0  0  0  0  0  0  0  0  0
  140.6733   77.2573  224.0387 H   0  0  0  0  0  0  0  0  0  0  0  0
  142.0019   77.1181  222.7634 H   0  0  0  0  0  0  0  0  0  0  0  0
  143.3920   78.9726  222.2993 H   0  0  0  0  0  0  0  0  0  0  0  0
  143.3675   81.5972  222.8662 H   0  0  0  0  0  0  0  0  0  0  0  0
  141.0237   82.0935  224.0532 H   0  0  0  0  0  0  0  0  0  0  0  0
  138.7246   69.3406  222.8196 H   0  0  0  0  0  0  0  0  0  0  0  0
  138.6578   67.6801  224.6572 H   0  0  0  0  0  0  0  0  0  0  0  0
  139.2805   67.1072  226.9928 H   0  0  0  0  0  0  0  0  0  0  0  0
  140.3811   67.7509  229.1199 H   0  0  0  0  0  0  0  0  0  0  0  0
  141.4749   69.9585  229.3321 H   0  0  0  0  0  0  0  0  0  0  0  0
  141.4836   71.5548  227.4185 H   0  0  0  0  0  0  0  0  0  0  0  0
  1  2  2  0
  2  3  1  0
  3  4  1  0
  4  5  1  0
  5  6  2  0
  5  7  1  0
  7  8  1  0
  8  9  1  0
  9 10  1  0
 10 11  1  0
 11 12  1  0
 12 13  1  0
 13 14  1  0
 14 15  2  0
 15 16  1  0
 16 17  2  0
  2 18  1  0
 18 19  2  0
 19 20  1  0
 20 21  2  0
 21 22  1  0
 22 23  2  0
 23 24  1  0
 24 25  2  0
 25 26  1  0
 26 27  2  0
 11  7  1  0
 17 13  1  0
 27 18  1  0
 26 21  1  0
  3 28  1  0
  4 29  1  0
  4 30  1  0
  8 31  1  0
  8 32  1  0
  9 33  1  0
  9 34  1  0
 10 35  1  0
 10 36  1  0
 11 37  1  6
 12 38  1  0
 12 39  1  0
 14 40  1  0
 15 41  1  0
 16 42  1  0
 19 43  1  0
 20 44  1  0
 22 45  1  0
 23 46  1  0
 24 47  1  0
 25 48  1  0
M  END
>  <smiles>  (15) 
O=C(NCC(=O)N1CCC[C@H]1Cn1cccn1)c1ccc2ccccc2n1

>  <score_type>  (15) 
oracle

>  <origin>  (15) 
autodockgpu

>  <m_score__min__energy>  (15) 
-8.4000000000000004

>  <m_primary>  (15) 
energy

>  <rmsd>  (15) 
2.615363351853371

>  <m_score__min__rmsd>  (15) 
2.615363351853371

>  <meeko>  (15) 
{"free_energy": -8.4, "intermolecular_energy": -10.19, "internal_energy": -1.16, "cluster_size": 26, "cluster_id": 1, "rank_in_cluster": 1}

>  <energy>  (15) 
-8.06

>  <cluster_rmsd>  (15) 
1.11

>  <cluster>  (15) 
1

$$$$

     RDKit          3D

 48 51  0  0  0  0  0  0  0  0999 V2000
  140.5130   71.3930  221.2750 O   0  0  0  0  0  0  0  0  0  0  0  0
  140.1680   72.0130  222.3210 C   0  0  0  0  0  0  0  0  0  0  0  0
  139.8300   73.4000  222.3040 N   0  0  0  0  0  0  0  0  0  0  0  0
  139.8920   74.0890  221.0330 C   0  0  0  0  0  0  0  0  0  0  0  0
  140.4630   75.4560  221.2370 C   0  0  0  0  0  0  0  0  0  0  0  0
  140.3670   76.0350  222.3580 O   0  0  0  0  0  0  0  0  0  0  0  0
  141.1290   76.1530  220.1940 N   0  0  0  0  0  0  0  0  0  0  0  0
  140.9110   75.8470  218.7910 C   0  0  0  0  0  0  0  0  0  0  0  0
  141.9650   76.5260  217.9880 C   0  0  0  0  0  0  0  0  0  0  0  0
  142.9290   77.0690  219.0150 C   0  0  0  0  0  0  0  0  0  0  0  0
  142.0840   77.2170  220.2250 C   0  0  1  0  0  0  0  0  0  0  0  0
  141.5280   78.5770  220.4840 C   0  0  0  0  0  0  0  0  0  0  0  0
  141.5000   78.9930  221.8490 N   0  0  0  0  0  0  0  0  0  0  0  0
  142.5590   79.5970  222.4610 C   0  0  0  0  0  0  0  0  0  0  0  0
  142.2030   79.8660  223.7620 C   0  0  0  0  0  0  0  0  0  0  0  0
  140.9160   79.4080  223.8990 C   0  0  0  0  0  0  0  0  0  0  0  0
  140.5140   78.8900  222.7500 N   0  0  0  0  0  0  0  0  0  0  0  0
  140.1140   71.2930  223.5920 C   0  0  0  0  0  0  0  0  0  0  0  0
  139.5730   70.0260  223.6550 C   0  0  0  0  0  0  0  0  0  0  0  0
  139.5030   69.3170  224.8390 C   0  0  0  0  0  0  0  0  0  0  0  0
  139.9970   69.9070  225.9970 C   0  0  0  0  0  0  0  0  0  0  0  0
  139.9680   69.2700  227.2210 C   0  0  0  0  0  0  0  0  0  0  0  0
  140.4700   69.8990  228.3430 C   0  0  0  0  0  0  0  0  0  0  0  0
  141.0040   71.1690  228.2420 C   0  0  0  0  0  0  0  0  0  0  0  0
  141.0450   71.8270  227.0270 C   0  0  0  0  0  0  0  0  0  0  0  0
  140.5360   71.1760  225.9210 C   0  0  0  0  0  0  0  0  0  0  0  0
  140.5770   71.8210  224.7400 N   0  0  0  0  0  0  0  0  0  0  0  0
  139.5560   73.8410  223.2010 H   0  0  0  0  0  0  0  0  0  0  0  0
  140.5320   73.5235  220.3397 H   0  0  0  0  0  0  0  0  0  0  0  0
  138.8799   74.1726  220.6104 H   0  0  0  0  0  0  0  0  0  0  0  0
  140.9693   74.7596  218.6354 H   0  0  0  0  0  0  0  0  0  0  0  0
  139.9162   76.1984  218.4796 H   0  0  0  0  0  0  0  0  0  0  0  0
  142.4686   75.8099  217.3220 H   0  0  0  0  0  0  0  0  0  0  0  0
  141.5551   77.3146  217.3399 H   0  0  0  0  0  0  0  0  0  0  0  0
  143.7542   76.3639  219.1936 H   0  0  0  0  0  0  0  0  0  0  0  0
  143.4073   78.0095  218.7041 H   0  0  0  0  0  0  0  0  0  0  0  0
  142.7181   77.1257  221.1192 H   0  0  0  0  0  0  0  0  0  0  0  0
  142.1372   79.3017  219.9239 H   0  0  0  0  0  0  0  0  0  0  0  0
  140.4758   78.5321  220.1665 H   0  0  0  0  0  0  0  0  0  0  0  0
  143.5283   79.8285  221.9953 H   0  0  0  0  0  0  0  0  0  0  0  0
  142.8215   80.3483  224.5332 H   0  0  0  0  0  0  0  0  0  0  0  0
  140.3145   79.4630  224.8183 H   0  0  0  0  0  0  0  0  0  0  0  0
  139.1852   69.5656  222.7343 H   0  0  0  0  0  0  0  0  0  0  0  0
  139.0660   68.3079  224.8648 H   0  0  0  0  0  0  0  0  0  0  0  0
  139.5438   68.2584  227.3029 H   0  0  0  0  0  0  0  0  0  0  0  0
  140.4447   69.3888  229.3172 H   0  0  0  0  0  0  0  0  0  0  0  0
  141.4019   71.6633  229.1405 H   0  0  0  0  0  0  0  0  0  0  0  0
  141.4701   72.8381  226.9439 H   0  0  0  0  0  0  0  0  0  0  0  0
  1  2  2  0
  2  3  1  0
  3  4  1  0
  4  5  1  0
  5  6  2  0
  5  7  1  0
  7  8  1  0
  8  9  1  0
  9 10  1  0
 10 11  1  0
 11 12  1  0
 12 13  1  0
 13 14  1  0
 14 15  2  0
 15 16  1  0
 16 17  2  0
  2 18  1  0
 18 19  2  0
 19 20  1  0
 20 21  2  0
 21 22  1  0
 22 23  2  0
 23 24  1  0
 24 25  2  0
 25 26  1  0
 26 27  2  0
 11  7  1  0
 17 13  1  0
 27 18  1  0
 26 21  1  0
  3 28  1  0
  4 29  1  0
  4 30  1  0
  8 31  1  0
  8 32  1  0
  9 33  1  0
  9 34  1  0
 10 35  1  0
 10 36  1  0
 11 37  1  1
 12 38  1  0
 12 39  1  0
 14 40  1  0
 15 41  1  0
 16 42  1  0
 19 43  1  0
 20 44  1  0
 22 45  1  0
 23 46  1  0
 24 47  1  0
 25 48  1  0
M  END
>  <smiles>  (16) 
O=C(NCC(=O)N1CCC[C@H]1Cn1cccn1)c1ccc2ccccc2n1

>  <score_type>  (16) 
oracle

>  <origin>  (16) 
autodockgpu

>  <m_score__min__energy>  (16) 
-8.4000000000000004

>  <m_primary>  (16) 
energy

>  <rmsd>  (16) 
1.9090983142060325

>  <m_score__min__rmsd>  (16) 
1.9090983142060325

>  <meeko>  (16) 
{"free_energy": -8.07, "intermolecular_energy": -9.86, "internal_energy": -1.61, "cluster_size": 26, "cluster_id": 1, "rank_in_cluster": 14}

>  <energy>  (16) 
-8.06

>  <cluster_rmsd>  (16) 
1.32

>  <cluster>  (16) 
1

$$$$

     RDKit          3D

 48 51  0  0  0  0  0  0  0  0999 V2000
  140.6380   71.3770  221.3020 O   0  0  0  0  0  0  0  0  0  0  0  0
  140.2380   71.9880  222.3330 C   0  0  0  0  0  0  0  0  0  0  0  0
  139.8710   73.3680  222.3020 N   0  0  0  0  0  0  0  0  0  0  0  0
  139.9720   74.0590  221.0350 C   0  0  0  0  0  0  0  0  0  0  0  0
  140.5780   75.4090  221.2540 C   0  0  0  0  0  0  0  0  0  0  0  0
  140.5720   75.9420  222.4010 O   0  0  0  0  0  0  0  0  0  0  0  0
  141.1810   76.1400  220.1940 N   0  0  0  0  0  0  0  0  0  0  0  0
  140.9530   75.8140  218.7970 C   0  0  0  0  0  0  0  0  0  0  0  0
  141.9490   76.5510  217.9700 C   0  0  0  0  0  0  0  0  0  0  0  0
  142.8990   77.1560  218.9760 C   0  0  0  0  0  0  0  0  0  0  0  0
  142.0700   77.2590  220.2020 C   0  0  1  0  0  0  0  0  0  0  0  0
  141.4400   78.5840  220.4670 C   0  0  0  0  0  0  0  0  0  0  0  0
  141.7980   79.2140  221.6970 N   0  0  0  0  0  0  0  0  0  0  0  0
  141.5230   78.6670  222.9160 C   0  0  0  0  0  0  0  0  0  0  0  0
  141.9990   79.5200  223.8840 C   0  0  0  0  0  0  0  0  0  0  0  0
  142.5580   80.5760  223.2080 C   0  0  0  0  0  0  0  0  0  0  0  0
  142.4290   80.3770  221.9060 N   0  0  0  0  0  0  0  0  0  0  0  0
  140.1450   71.2660  223.6010 C   0  0  0  0  0  0  0  0  0  0  0  0
  139.5690   70.0140  223.6510 C   0  0  0  0  0  0  0  0  0  0  0  0
  139.4630   69.3030  224.8320 C   0  0  0  0  0  0  0  0  0  0  0  0
  139.9560   69.8760  225.9990 C   0  0  0  0  0  0  0  0  0  0  0  0
  139.8930   69.2360  227.2200 C   0  0  0  0  0  0  0  0  0  0  0  0
  140.3960   69.8480  228.3510 C   0  0  0  0  0  0  0  0  0  0  0  0
  140.9650   71.1020  228.2620 C   0  0  0  0  0  0  0  0  0  0  0  0
  141.0420   71.7640  227.0510 C   0  0  0  0  0  0  0  0  0  0  0  0
  140.5310   71.1300  225.9360 C   0  0  0  0  0  0  0  0  0  0  0  0
  140.6060   71.7780  224.7570 N   0  0  0  0  0  0  0  0  0  0  0  0
  139.5510   73.8020  223.1880 H   0  0  0  0  0  0  0  0  0  0  0  0
  140.6067   73.4783  220.3495 H   0  0  0  0  0  0  0  0  0  0  0  0
  138.9695   74.1723  220.5966 H   0  0  0  0  0  0  0  0  0  0  0  0
  141.0729   74.7312  218.6445 H   0  0  0  0  0  0  0  0  0  0  0  0
  139.9329   76.1034  218.5045 H   0  0  0  0  0  0  0  0  0  0  0  0
  142.4814   75.8629  217.2969 H   0  0  0  0  0  0  0  0  0  0  0  0
  141.4801   77.3104  217.3270 H   0  0  0  0  0  0  0  0  0  0  0  0
  143.7683   76.5025  219.1409 H   0  0  0  0  0  0  0  0  0  0  0  0
  143.3140   78.1219  218.6523 H   0  0  0  0  0  0  0  0  0  0  0  0
  142.7251   77.2100  221.0843 H   0  0  0  0  0  0  0  0  0  0  0  0
  141.7233   79.2609  219.6476 H   0  0  0  0  0  0  0  0  0  0  0  0
  140.3597   78.3891  220.5379 H   0  0  0  0  0  0  0  0  0  0  0  0
  141.0099   77.7104  223.0937 H   0  0  0  0  0  0  0  0  0  0  0  0
  141.9433   79.3843  224.9742 H   0  0  0  0  0  0  0  0  0  0  0  0
  143.0372   81.4493  223.6746 H   0  0  0  0  0  0  0  0  0  0  0  0
  139.1822   69.5675  222.7231 H   0  0  0  0  0  0  0  0  0  0  0  0
  138.9988   68.3059  224.8480 H   0  0  0  0  0  0  0  0  0  0  0  0
  139.4410   68.2358  227.2925 H   0  0  0  0  0  0  0  0  0  0  0  0
  140.3431   69.3358  229.3231 H   0  0  0  0  0  0  0  0  0  0  0  0
  141.3632   71.5819  229.1682 H   0  0  0  0  0  0  0  0  0  0  0  0
  141.4957   72.7634  226.9780 H   0  0  0  0  0  0  0  0  0  0  0  0
  1  2  2  0
  2  3  1  0
  3  4  1  0
  4  5  1  0
  5  6  2  0
  5  7  1  0
  7  8  1  0
  8  9  1  0
  9 10  1  0
 10 11  1  0
 11 12  1  0
 12 13  1  0
 13 14  1  0
 14 15  2  0
 15 16  1  0
 16 17  2  0
  2 18  1  0
 18 19  2  0
 19 20  1  0
 20 21  2  0
 21 22  1  0
 22 23  2  0
 23 24  1  0
 24 25  2  0
 25 26  1  0
 26 27  2  0
 11  7  1  0
 17 13  1  0
 27 18  1  0
 26 21  1  0
  3 28  1  0
  4 29  1  0
  4 30  1  0
  8 31  1  0
  8 32  1  0
  9 33  1  0
  9 34  1  0
 10 35  1  0
 10 36  1  0
 11 37  1  1
 12 38  1  0
 12 39  1  0
 14 40  1  0
 15 41  1  0
 16 42  1  0
 19 43  1  0
 20 44  1  0
 22 45  1  0
 23 46  1  0
 24 47  1  0
 25 48  1  0
M  END
>  <smiles>  (17) 
O=C(NCC(=O)N1CCC[C@H]1Cn1cccn1)c1ccc2ccccc2n1

>  <score_type>  (17) 
oracle

>  <origin>  (17) 
autodockgpu

>  <m_score__min__energy>  (17) 
-8.4000000000000004

>  <m_primary>  (17) 
energy

>  <rmsd>  (17) 
1.7519486116862322

>  <m_score__min__rmsd>  (17) 
1.7519486116862322

>  <meeko>  (17) 
{"free_energy": -8.19, "intermolecular_energy": -9.98, "internal_energy": -1.56, "cluster_size": 26, "cluster_id": 1, "rank_in_cluster": 8}

>  <energy>  (17) 
-8.04

>  <cluster_rmsd>  (17) 
1.3

>  <cluster>  (17) 
1

$$$$

     RDKit          3D

 48 51  0  0  0  0  0  0  0  0999 V2000
  141.3520   72.4530  221.8830 O   0  0  0  0  0  0  0  0  0  0  0  0
  140.3110   72.4980  222.5980 C   0  0  0  0  0  0  0  0  0  0  0  0
  139.2480   73.4140  222.3330 N   0  0  0  0  0  0  0  0  0  0  0  0
  139.3970   74.3040  221.2020 C   0  0  0  0  0  0  0  0  0  0  0  0
  138.9570   75.6790  221.5910 C   0  0  0  0  0  0  0  0  0  0  0  0
  137.8620   75.8600  222.1980 O   0  0  0  0  0  0  0  0  0  0  0  0
  139.7430   76.8280  221.3010 N   0  0  0  0  0  0  0  0  0  0  0  0
  139.2620   77.9040  220.4520 C   0  0  0  0  0  0  0  0  0  0  0  0
  140.4120   78.7840  220.1050 C   0  0  0  0  0  0  0  0  0  0  0  0
  141.6220   78.0440  220.6240 C   0  0  0  0  0  0  0  0  0  0  0  0
  141.0610   77.2010  221.7090 C   0  0  1  0  0  0  0  0  0  0  0  0
  141.1820   77.7370  223.0950 C   0  0  0  0  0  0  0  0  0  0  0  0
  141.3450   79.1500  223.2080 N   0  0  0  0  0  0  0  0  0  0  0  0
  142.5570   79.7420  223.4110 C   0  0  0  0  0  0  0  0  0  0  0  0
  142.3640   81.1020  223.4700 C   0  0  0  0  0  0  0  0  0  0  0  0
  141.0160   81.2950  223.2970 C   0  0  0  0  0  0  0  0  0  0  0  0
  140.4250   80.1220  223.1430 N   0  0  0  0  0  0  0  0  0  0  0  0
  140.1850   71.5880  223.7350 C   0  0  0  0  0  0  0  0  0  0  0  0
  139.5550   70.3700  223.5880 C   0  0  0  0  0  0  0  0  0  0  0  0
  139.4170   69.4850  224.6410 C   0  0  0  0  0  0  0  0  0  0  0  0
  139.9320   69.8430  225.8810 C   0  0  0  0  0  0  0  0  0  0  0  0
  139.8390   69.0200  226.9850 C   0  0  0  0  0  0  0  0  0  0  0  0
  140.3660   69.4210  228.1970 C   0  0  0  0  0  0  0  0  0  0  0  0
  140.9900   70.6480  228.3060 C   0  0  0  0  0  0  0  0  0  0  0  0
  141.0970   71.4900  227.2150 C   0  0  0  0  0  0  0  0  0  0  0  0
  140.5610   71.0650  226.0160 C   0  0  0  0  0  0  0  0  0  0  0  0
  140.6660   71.8890  224.9550 N   0  0  0  0  0  0  0  0  0  0  0  0
  138.4250   73.3930  222.9630 H   0  0  0  0  0  0  0  0  0  0  0  0
  140.4521   74.3302  220.8921 H   0  0  0  0  0  0  0  0  0  0  0  0
  138.7793   73.9431  220.3664 H   0  0  0  0  0  0  0  0  0  0  0  0
  138.8256   77.4847  219.5335 H   0  0  0  0  0  0  0  0  0  0  0  0
  138.4905   78.4837  220.9799 H   0  0  0  0  0  0  0  0  0  0  0  0
  140.4795   78.9249  219.0162 H   0  0  0  0  0  0  0  0  0  0  0  0
  140.3168   79.7894  220.5410 H   0  0  0  0  0  0  0  0  0  0  0  0
  142.0738   77.4240  219.8357 H   0  0  0  0  0  0  0  0  0  0  0  0
  142.4240   78.7138  220.9676 H   0  0  0  0  0  0  0  0  0  0  0  0
  141.6850   76.3027  221.8262 H   0  0  0  0  0  0  0  0  0  0  0  0
  140.2705   77.4586  223.6441 H   0  0  0  0  0  0  0  0  0  0  0  0
  142.1050   77.2989  223.5025 H   0  0  0  0  0  0  0  0  0  0  0  0
  143.5211   79.2218  223.5102 H   0  0  0  0  0  0  0  0  0  0  0  0
  143.1310   81.8753  223.6240 H   0  0  0  0  0  0  0  0  0  0  0  0
  140.5080   82.2706  223.2879 H   0  0  0  0  0  0  0  0  0  0  0  0
  139.1501   70.0944  222.6031 H   0  0  0  0  0  0  0  0  0  0  0  0
  138.9107   68.5186  224.5004 H   0  0  0  0  0  0  0  0  0  0  0  0
  139.3436   68.0416  226.8993 H   0  0  0  0  0  0  0  0  0  0  0  0
  140.2887   68.7632  229.0752 H   0  0  0  0  0  0  0  0  0  0  0  0
  141.4078   70.9598  229.2746 H   0  0  0  0  0  0  0  0  0  0  0  0
  141.5936   72.4679  227.2996 H   0  0  0  0  0  0  0  0  0  0  0  0
  1  2  2  0
  2  3  1  0
  3  4  1  0
  4  5  1  0
  5  6  2  0
  5  7  1  0
  7  8  1  0
  8  9  1  0
  9 10  1  0
 10 11  1  0
 11 12  1  0
 12 13  1  0
 13 14  1  0
 14 15  2  0
 15 16  1  0
 16 17  2  0
  2 18  1  0
 18 19  2  0
 19 20  1  0
 20 21  2  0
 21 22  1  0
 22 23  2  0
 23 24  1  0
 24 25  2  0
 25 26  1  0
 26 27  2  0
 11  7  1  0
 17 13  1  0
 27 18  1  0
 26 21  1  0
  3 28  1  0
  4 29  1  0
  4 30  1  0
  8 31  1  0
  8 32  1  0
  9 33  1  0
  9 34  1  0
 10 35  1  0
 10 36  1  0
 11 37  1  1
 12 38  1  0
 12 39  1  0
 14 40  1  0
 15 41  1  0
 16 42  1  0
 19 43  1  0
 20 44  1  0
 22 45  1  0
 23 46  1  0
 24 47  1  0
 25 48  1  0
M  END
>  <smiles>  (18) 
O=C(NCC(=O)N1CCC[C@H]1Cn1cccn1)c1ccc2ccccc2n1

>  <score_type>  (18) 
oracle

>  <origin>  (18) 
autodockgpu

>  <m_score__min__energy>  (18) 
-8.4000000000000004

>  <m_primary>  (18) 
energy

>  <rmsd>  (18) 
2.2092030379823964

>  <m_score__min__rmsd>  (18) 
2.2092030379823964

>  <meeko>  (18) 
{"free_energy": -7.97, "intermolecular_energy": -9.76, "internal_energy": -1.46, "cluster_size": 26, "cluster_id": 1, "rank_in_cluster": 20}

>  <energy>  (18) 
-8.01

>  <cluster_rmsd>  (18) 
1.9

>  <cluster>  (18) 
1

$$$$

     RDKit          3D

 48 51  0  0  0  0  0  0  0  0999 V2000
  141.0480   71.5690  221.3950 O   0  0  0  0  0  0  0  0  0  0  0  0
  140.4710   72.1490  222.3580 C   0  0  0  0  0  0  0  0  0  0  0  0
  140.0090   73.4970  222.2640 N   0  0  0  0  0  0  0  0  0  0  0  0
  140.2230   74.1930  221.0130 C   0  0  0  0  0  0  0  0  0  0  0  0
  141.0980   75.3820  221.2500 C   0  0  0  0  0  0  0  0  0  0  0  0
  141.0610   76.0020  222.3520 O   0  0  0  0  0  0  0  0  0  0  0  0
  141.9990   75.8590  220.2590 N   0  0  0  0  0  0  0  0  0  0  0  0
  142.1140   77.2680  219.9270 C   0  0  0  0  0  0  0  0  0  0  0  0
  142.8970   77.3950  218.6670 C   0  0  0  0  0  0  0  0  0  0  0  0
  143.0500   75.9770  218.1740 C   0  0  0  0  0  0  0  0  0  0  0  0
  142.9280   75.1730  219.4150 C   0  0  1  0  0  0  0  0  0  0  0  0
  144.2040   74.7560  220.0630 C   0  0  0  0  0  0  0  0  0  0  0  0
  144.5930   73.3970  219.8630 N   0  0  0  0  0  0  0  0  0  0  0  0
  143.7960   72.3420  220.1990 C   0  0  0  0  0  0  0  0  0  0  0  0
  144.4630   71.1840  219.8770 C   0  0  0  0  0  0  0  0  0  0  0  0
  145.6650   71.5810  219.3460 C   0  0  0  0  0  0  0  0  0  0  0  0
  145.7250   72.9030  219.3460 N   0  0  0  0  0  0  0  0  0  0  0  0
  140.2670   71.4240  223.6100 C   0  0  0  0  0  0  0  0  0  0  0  0
  139.6080   70.2120  223.6170 C   0  0  0  0  0  0  0  0  0  0  0  0
  139.3960   69.5000  224.7820 C   0  0  0  0  0  0  0  0  0  0  0  0
  139.8670   70.0290  225.9790 C   0  0  0  0  0  0  0  0  0  0  0  0
  139.7000   69.3840  227.1880 C   0  0  0  0  0  0  0  0  0  0  0  0
  140.1860   69.9500  228.3490 C   0  0  0  0  0  0  0  0  0  0  0  0
  140.8410   71.1640  228.3040 C   0  0  0  0  0  0  0  0  0  0  0  0
  141.0220   71.8300  227.1060 C   0  0  0  0  0  0  0  0  0  0  0  0
  140.5260   71.2420  225.9590 C   0  0  0  0  0  0  0  0  0  0  0  0
  140.7030   71.8930  224.7940 N   0  0  0  0  0  0  0  0  0  0  0  0
  139.5440   73.9070  223.0950 H   0  0  0  0  0  0  0  0  0  0  0  0
  140.7097   73.5164  220.2951 H   0  0  0  0  0  0  0  0  0  0  0  0
  139.2559   74.5235  220.6061 H   0  0  0  0  0  0  0  0  0  0  0  0
  141.1118   77.6988  219.7859 H   0  0  0  0  0  0  0  0  0  0  0  0
  142.6210   77.8065  220.7412 H   0  0  0  0  0  0  0  0  0  0  0  0
  142.3537   78.0061  217.9313 H   0  0  0  0  0  0  0  0  0  0  0  0
  143.8664   77.8904  218.8246 H   0  0  0  0  0  0  0  0  0  0  0  0
  142.2556   75.7203  217.4577 H   0  0  0  0  0  0  0  0  0  0  0  0
  143.9959   75.8053  217.6394 H   0  0  0  0  0  0  0  0  0  0  0  0
  142.5396   74.1755  219.1617 H   0  0  0  0  0  0  0  0  0  0  0  0
  145.0065   75.3971  219.6693 H   0  0  0  0  0  0  0  0  0  0  0  0
  144.0346   74.8596  221.1449 H   0  0  0  0  0  0  0  0  0  0  0  0
  142.7944   72.4067  220.6491 H   0  0  0  0  0  0  0  0  0  0  0  0
  144.1071   70.1525  220.0161 H   0  0  0  0  0  0  0  0  0  0  0  0
  146.4532   70.9072  218.9788 H   0  0  0  0  0  0  0  0  0  0  0  0
  139.2400   69.7998  222.6659 H   0  0  0  0  0  0  0  0  0  0  0  0
  138.8664   68.5361  224.7632 H   0  0  0  0  0  0  0  0  0  0  0  0
  139.1782   68.4164  227.2261 H   0  0  0  0  0  0  0  0  0  0  0  0
  140.0513   69.4333  229.3107 H   0  0  0  0  0  0  0  0  0  0  0  0
  141.2245   71.6080  229.2345 H   0  0  0  0  0  0  0  0  0  0  0  0
  141.5444   72.7973  227.0676 H   0  0  0  0  0  0  0  0  0  0  0  0
  1  2  2  0
  2  3  1  0
  3  4  1  0
  4  5  1  0
  5  6  2  0
  5  7  1  0
  7  8  1  0
  8  9  1  0
  9 10  1  0
 10 11  1  0
 11 12  1  0
 12 13  1  0
 13 14  1  0
 14 15  2  0
 15 16  1  0
 16 17  2  0
  2 18  1  0
 18 19  2  0
 19 20  1  0
 20 21  2  0
 21 22  1  0
 22 23  2  0
 23 24  1  0
 24 25  2  0
 25 26  1  0
 26 27  2  0
 11  7  1  0
 17 13  1  0
 27 18  1  0
 26 21  1  0
  3 28  1  0
  4 29  1  0
  4 30  1  0
  8 31  1  0
  8 32  1  0
  9 33  1  0
  9 34  1  0
 10 35  1  0
 10 36  1  0
 11 37  1  6
 12 38  1  0
 12 39  1  0
 14 40  1  0
 15 41  1  0
 16 42  1  0
 19 43  1  0
 20 44  1  0
 22 45  1  0
 23 46  1  0
 24 47  1  0
 25 48  1  0
M  END
>  <smiles>  (19) 
O=C(NCC(=O)N1CCC[C@H]1Cn1cccn1)c1ccc2ccccc2n1

>  <score_type>  (19) 
oracle

>  <origin>  (19) 
autodockgpu

>  <m_score__min__energy>  (19) 
-8.4000000000000004

>  <m_primary>  (19) 
energy

>  <rmsd>  (19) 
4.085607545339467

>  <m_score__min__rmsd>  (19) 
4.085607545339467

>  <meeko>  (19) 
{"free_energy": -8.07, "intermolecular_energy": -9.86, "internal_energy": -1.63, "cluster_size": 12, "cluster_id": 3, "rank_in_cluster": 1}

>  <energy>  (19) 
-7.99

>  <cluster_rmsd>  (19) 
1.68

>  <cluster>  (19) 
1

$$$$

     RDKit          3D

 48 51  0  0  0  0  0  0  0  0999 V2000
  140.6970   71.3250  221.2930 O   0  0  0  0  0  0  0  0  0  0  0  0
  140.2760   71.9470  222.3100 C   0  0  0  0  0  0  0  0  0  0  0  0
  139.9180   73.3280  222.2590 N   0  0  0  0  0  0  0  0  0  0  0  0
  140.0510   74.0080  220.9890 C   0  0  0  0  0  0  0  0  0  0  0  0
  140.5760   75.3900  221.2190 C   0  0  0  0  0  0  0  0  0  0  0  0
  140.4900   75.9330  222.3580 O   0  0  0  0  0  0  0  0  0  0  0  0
  141.1890   76.1410  220.1790 N   0  0  0  0  0  0  0  0  0  0  0  0
  140.9540   75.8580  218.7740 C   0  0  0  0  0  0  0  0  0  0  0  0
  141.9600   76.6030  217.9660 C   0  0  0  0  0  0  0  0  0  0  0  0
  142.9200   77.1640  218.9870 C   0  0  0  0  0  0  0  0  0  0  0  0
  142.0950   77.2460  220.2170 C   0  0  1  0  0  0  0  0  0  0  0  0
  141.4850   78.5730  220.5200 C   0  0  0  0  0  0  0  0  0  0  0  0
  141.8490   79.1590  221.7690 N   0  0  0  0  0  0  0  0  0  0  0  0
  141.4650   78.6400  222.9700 C   0  0  0  0  0  0  0  0  0  0  0  0
  141.9820   79.4370  223.9650 C   0  0  0  0  0  0  0  0  0  0  0  0
  142.6750   80.4330  223.3220 C   0  0  0  0  0  0  0  0  0  0  0  0
  142.5850   80.2510  222.0150 N   0  0  0  0  0  0  0  0  0  0  0  0
  140.1520   71.2360  223.5810 C   0  0  0  0  0  0  0  0  0  0  0  0
  139.5410   70.0000  223.6340 C   0  0  0  0  0  0  0  0  0  0  0  0
  139.4050   69.3010  224.8180 C   0  0  0  0  0  0  0  0  0  0  0  0
  139.9010   69.8680  225.9860 C   0  0  0  0  0  0  0  0  0  0  0  0
  139.8090   69.2380  227.2110 C   0  0  0  0  0  0  0  0  0  0  0  0
  140.3170   69.8430  228.3430 C   0  0  0  0  0  0  0  0  0  0  0  0
  140.9220   71.0810  228.2510 C   0  0  0  0  0  0  0  0  0  0  0  0
  141.0280   71.7320  227.0370 C   0  0  0  0  0  0  0  0  0  0  0  0
  140.5110   71.1050  225.9200 C   0  0  0  0  0  0  0  0  0  0  0  0
  140.6150   71.7430  224.7380 N   0  0  0  0  0  0  0  0  0  0  0  0
  139.5810   73.7720  223.1340 H   0  0  0  0  0  0  0  0  0  0  0  0
  140.7495   73.4521  220.3462 H   0  0  0  0  0  0  0  0  0  0  0  0
  139.0686   74.0648  220.4975 H   0  0  0  0  0  0  0  0  0  0  0  0
  141.0572   74.7783  218.5908 H   0  0  0  0  0  0  0  0  0  0  0  0
  139.9379   76.1710  218.4917 H   0  0  0  0  0  0  0  0  0  0  0  0
  142.4808   75.9263  217.2726 H   0  0  0  0  0  0  0  0  0  0  0  0
  141.5020   77.3873  217.3455 H   0  0  0  0  0  0  0  0  0  0  0  0
  143.7789   76.4923  219.1320 H   0  0  0  0  0  0  0  0  0  0  0  0
  143.3495   78.1321  218.6897 H   0  0  0  0  0  0  0  0  0  0  0  0
  142.7506   77.1633  221.0964 H   0  0  0  0  0  0  0  0  0  0  0  0
  141.7819   79.2698  219.7223 H   0  0  0  0  0  0  0  0  0  0  0  0
  140.4014   78.3938  220.5815 H   0  0  0  0  0  0  0  0  0  0  0  0
  140.8491   77.7406  223.1176 H   0  0  0  0  0  0  0  0  0  0  0  0
  141.8646   79.3040  225.0506 H   0  0  0  0  0  0  0  0  0  0  0  0
  143.2186   81.2521  223.8155 H   0  0  0  0  0  0  0  0  0  0  0  0
  139.1504   69.5578  222.7056 H   0  0  0  0  0  0  0  0  0  0  0  0
  138.9145   68.3166  224.8359 H   0  0  0  0  0  0  0  0  0  0  0  0
  139.3294   68.2508  227.2852 H   0  0  0  0  0  0  0  0  0  0  0  0
  140.2399   69.3393  229.3178 H   0  0  0  0  0  0  0  0  0  0  0  0
  141.3254   71.5558  229.1576 H   0  0  0  0  0  0  0  0  0  0  0  0
  141.5089   72.7185  226.9623 H   0  0  0  0  0  0  0  0  0  0  0  0
  1  2  2  0
  2  3  1  0
  3  4  1  0
  4  5  1  0
  5  6  2  0
  5  7  1  0
  7  8  1  0
  8  9  1  0
  9 10  1  0
 10 11  1  0
 11 12  1  0
 12 13  1  0
 13 14  1  0
 14 15  2  0
 15 16  1  0
 16 17  2  0
  2 18  1  0
 18 19  2  0
 19 20  1  0
 20 21  2  0
 21 22  1  0
 22 23  2  0
 23 24  1  0
 24 25  2  0
 25 26  1  0
 26 27  2  0
 11  7  1  0
 17 13  1  0
 27 18  1  0
 26 21  1  0
  3 28  1  0
  4 29  1  0
  4 30  1  0
  8 31  1  0
  8 32  1  0
  9 33  1  0
  9 34  1  0
 10 35  1  0
 10 36  1  0
 11 37  1  1
 12 38  1  0
 12 39  1  0
 14 40  1  0
 15 41  1  0
 16 42  1  0
 19 43  1  0
 20 44  1  0
 22 45  1  0
 23 46  1  0
 24 47  1  0
 25 48  1  0
M  END
>  <smiles>  (20) 
O=C(NCC(=O)N1CCC[C@H]1Cn1cccn1)c1ccc2ccccc2n1

>  <score_type>  (20) 
oracle

>  <origin>  (20) 
autodockgpu

>  <m_score__min__energy>  (20) 
-8.4000000000000004

>  <m_primary>  (20) 
energy

>  <rmsd>  (20) 
1.7829370024477433

>  <m_score__min__rmsd>  (20) 
1.7829370024477433

>  <meeko>  (20) 
{"free_energy": -8.21, "intermolecular_energy": -10.0, "internal_energy": -1.58, "cluster_size": 26, "cluster_id": 1, "rank_in_cluster": 6}

>  <energy>  (20) 
-7.97

>  <cluster_rmsd>  (20) 
1.21

>  <cluster>  (20) 
1

$$$$

     RDKit          3D

 48 51  0  0  0  0  0  0  0  0999 V2000
  139.0750   74.9630  222.3420 O   0  0  0  0  0  0  0  0  0  0  0  0
  140.0510   75.6490  221.9270 C   0  0  0  0  0  0  0  0  0  0  0  0
  141.0140   75.1220  221.0140 N   0  0  0  0  0  0  0  0  0  0  0  0
  140.8380   73.7560  220.5680 C   0  0  0  0  0  0  0  0  0  0  0  0
  142.0000   72.9330  221.0230 C   0  0  0  0  0  0  0  0  0  0  0  0
  141.8250   71.9210  221.7620 O   0  0  0  0  0  0  0  0  0  0  0  0
  143.3340   73.2480  220.6490 N   0  0  0  0  0  0  0  0  0  0  0  0
  144.3610   72.2330  220.5020 C   0  0  0  0  0  0  0  0  0  0  0  0
  145.6860   72.9070  220.4080 C   0  0  0  0  0  0  0  0  0  0  0  0
  145.3930   74.3550  220.7210 C   0  0  0  0  0  0  0  0  0  0  0  0
  143.9630   74.4970  220.3500 C   0  0  1  0  0  0  0  0  0  0  0  0
  143.6820   75.0560  218.9960 C   0  0  0  0  0  0  0  0  0  0  0  0
  143.1210   76.3680  218.9650 N   0  0  0  0  0  0  0  0  0  0  0  0
  143.0570   77.1190  217.8280 C   0  0  0  0  0  0  0  0  0  0  0  0
  142.4630   78.3190  218.1410 C   0  0  0  0  0  0  0  0  0  0  0  0
  142.1800   78.2550  219.4830 C   0  0  0  0  0  0  0  0  0  0  0  0
  142.5790   77.0860  219.9570 N   0  0  0  0  0  0  0  0  0  0  0  0
  140.2060   77.0260  222.3920 C   0  0  0  0  0  0  0  0  0  0  0  0
  139.0990   77.7790  222.7280 C   0  0  0  0  0  0  0  0  0  0  0  0
  139.2080   79.0840  223.1700 C   0  0  0  0  0  0  0  0  0  0  0  0
  140.4750   79.6450  223.2760 C   0  0  0  0  0  0  0  0  0  0  0  0
  140.6750   80.9410  223.7100 C   0  0  0  0  0  0  0  0  0  0  0  0
  141.9530   81.4540  223.7990 C   0  0  0  0  0  0  0  0  0  0  0  0
  143.0370   80.6710  223.4540 C   0  0  0  0  0  0  0  0  0  0  0  0
  142.8640   79.3710  223.0180 C   0  0  0  0  0  0  0  0  0  0  0  0
  141.5750   78.8820  222.9380 C   0  0  0  0  0  0  0  0  0  0  0  0
  141.4090   77.6150  222.5120 N   0  0  0  0  0  0  0  0  0  0  0  0
  141.7880   75.7440  220.7170 H   0  0  0  0  0  0  0  0  0  0  0  0
  139.9096   73.3475  220.9935 H   0  0  0  0  0  0  0  0  0  0  0  0
  140.7777   73.7323  219.4699 H   0  0  0  0  0  0  0  0  0  0  0  0
  144.3472   71.5630  221.3743 H   0  0  0  0  0  0  0  0  0  0  0  0
  144.1759   71.6402  219.5941 H   0  0  0  0  0  0  0  0  0  0  0  0
  146.3903   72.4852  221.1402 H   0  0  0  0  0  0  0  0  0  0  0  0
  146.1536   72.7774  219.4208 H   0  0  0  0  0  0  0  0  0  0  0  0
  145.5467   74.5670  221.7894 H   0  0  0  0  0  0  0  0  0  0  0  0
  146.0504   75.0549  220.1844 H   0  0  0  0  0  0  0  0  0  0  0  0
  143.5114   75.2975  220.9544 H   0  0  0  0  0  0  0  0  0  0  0  0
  144.6303   75.0822  218.4393 H   0  0  0  0  0  0  0  0  0  0  0  0
  142.9195   74.3969  218.5554 H   0  0  0  0  0  0  0  0  0  0  0  0
  143.4178   76.8171  216.8337 H   0  0  0  0  0  0  0  0  0  0  0  0
  142.2573   79.1564  217.4580 H   0  0  0  0  0  0  0  0  0  0  0  0
  141.6978   79.0498  220.0710 H   0  0  0  0  0  0  0  0  0  0  0  0
  138.1000   77.3268  222.6414 H   0  0  0  0  0  0  0  0  0  0  0  0
  138.3118   79.6656  223.4320 H   0  0  0  0  0  0  0  0  0  0  0  0
  139.8129   81.5661  223.9856 H   0  0  0  0  0  0  0  0  0  0  0  0
  142.1083   82.4866  224.1447 H   0  0  0  0  0  0  0  0  0  0  0  0
  144.0523   81.0879  223.5272 H   0  0  0  0  0  0  0  0  0  0  0  0
  143.7261   78.7454  222.7433 H   0  0  0  0  0  0  0  0  0  0  0  0
  1  2  2  0
  2  3  1  0
  3  4  1  0
  4  5  1  0
  5  6  2  0
  5  7  1  0
  7  8  1  0
  8  9  1  0
  9 10  1  0
 10 11  1  0
 11 12  1  0
 12 13  1  0
 13 14  1  0
 14 15  2  0
 15 16  1  0
 16 17  2  0
  2 18  1  0
 18 19  2  0
 19 20  1  0
 20 21  2  0
 21 22  1  0
 22 23  2  0
 23 24  1  0
 24 25  2  0
 25 26  1  0
 26 27  2  0
 11  7  1  0
 17 13  1  0
 27 18  1  0
 26 21  1  0
  3 28  1  0
  4 29  1  0
  4 30  1  0
  8 31  1  0
  8 32  1  0
  9 33  1  0
  9 34  1  0
 10 35  1  0
 10 36  1  0
 11 37  1  1
 12 38  1  0
 12 39  1  0
 14 40  1  0
 15 41  1  0
 16 42  1  0
 19 43  1  0
 20 44  1  0
 22 45  1  0
 23 46  1  0
 24 47  1  0
 25 48  1  0
M  END
>  <smiles>  (21) 
O=C(NCC(=O)N1CCC[C@H]1Cn1cccn1)c1ccc2ccccc2n1

>  <score_type>  (21) 
oracle

>  <origin>  (21) 
autodockgpu

>  <m_score__min__energy>  (21) 
-8.4000000000000004

>  <m_primary>  (21) 
energy

>  <rmsd>  (21) 
7.412582954724014

>  <m_score__min__rmsd>  (21) 
7.412582954724014

>  <meeko>  (21) 
{"free_energy": -6.97, "intermolecular_energy": -8.76, "internal_energy": -2.76, "cluster_size": 7, "cluster_id": 4, "rank_in_cluster": 4}

>  <energy>  (21) 
-7.95

>  <cluster_rmsd>  (21) 
1.88

>  <cluster>  (21) 
1

$$$$

     RDKit          3D

 48 51  0  0  0  0  0  0  0  0999 V2000
  140.5470   71.2730  221.2730 O   0  0  0  0  0  0  0  0  0  0  0  0
  140.2050   71.8980  222.3170 C   0  0  0  0  0  0  0  0  0  0  0  0
  139.8810   73.2880  222.2960 N   0  0  0  0  0  0  0  0  0  0  0  0
  139.9530   73.9740  221.0230 C   0  0  0  0  0  0  0  0  0  0  0  0
  140.3550   75.3960  221.2490 C   0  0  0  0  0  0  0  0  0  0  0  0
  140.0690   75.9840  222.3320 O   0  0  0  0  0  0  0  0  0  0  0  0
  141.0670   76.1390  220.2680 N   0  0  0  0  0  0  0  0  0  0  0  0
  140.9140   75.8930  218.8450 C   0  0  0  0  0  0  0  0  0  0  0  0
  142.0020   76.6070  218.1210 C   0  0  0  0  0  0  0  0  0  0  0  0
  142.9160   77.1050  219.2140 C   0  0  0  0  0  0  0  0  0  0  0  0
  142.0160   77.2010  220.3890 C   0  0  1  0  0  0  0  0  0  0  0  0
  141.4460   78.5480  220.6810 C   0  0  0  0  0  0  0  0  0  0  0  0
  141.7960   79.1160  221.9420 N   0  0  0  0  0  0  0  0  0  0  0  0
  141.3690   78.6010  223.1300 C   0  0  0  0  0  0  0  0  0  0  0  0
  141.8830   79.3780  224.1420 C   0  0  0  0  0  0  0  0  0  0  0  0
  142.6190   80.3580  223.5230 C   0  0  0  0  0  0  0  0  0  0  0  0
  142.5560   80.1860  222.2120 N   0  0  0  0  0  0  0  0  0  0  0  0
  140.1400   71.1810  223.5890 C   0  0  0  0  0  0  0  0  0  0  0  0
  139.5880   69.9190  223.6530 C   0  0  0  0  0  0  0  0  0  0  0  0
  139.5080   69.2130  224.8380 C   0  0  0  0  0  0  0  0  0  0  0  0
  140.0030   69.8020  225.9960 C   0  0  0  0  0  0  0  0  0  0  0  0
  139.9650   69.1680  227.2220 C   0  0  0  0  0  0  0  0  0  0  0  0
  140.4690   69.7950  228.3440 C   0  0  0  0  0  0  0  0  0  0  0  0
  141.0150   71.0590  228.2420 C   0  0  0  0  0  0  0  0  0  0  0  0
  141.0660   71.7150  227.0260 C   0  0  0  0  0  0  0  0  0  0  0  0
  140.5540   71.0660  225.9200 C   0  0  0  0  0  0  0  0  0  0  0  0
  140.6050   71.7080  224.7370 N   0  0  0  0  0  0  0  0  0  0  0  0
  139.6090   73.7340  223.1920 H   0  0  0  0  0  0  0  0  0  0  0  0
  140.6969   73.4796  220.3810 H   0  0  0  0  0  0  0  0  0  0  0  0
  138.9691   73.9432  220.5321 H   0  0  0  0  0  0  0  0  0  0  0  0
  140.9825   74.8133  218.6459 H   0  0  0  0  0  0  0  0  0  0  0  0
  139.9334   76.2562  218.5036 H   0  0  0  0  0  0  0  0  0  0  0  0
  142.5375   75.9209  217.4483 H   0  0  0  0  0  0  0  0  0  0  0  0
  141.6204   77.4227  217.4893 H   0  0  0  0  0  0  0  0  0  0  0  0
  143.7333   76.3927  219.4000 H   0  0  0  0  0  0  0  0  0  0  0  0
  143.4061   78.0581  218.9663 H   0  0  0  0  0  0  0  0  0  0  0  0
  142.6081   77.0724  221.3071 H   0  0  0  0  0  0  0  0  0  0  0  0
  141.7898   79.2364  219.8949 H   0  0  0  0  0  0  0  0  0  0  0  0
  140.3554   78.4078  220.7117 H   0  0  0  0  0  0  0  0  0  0  0  0
  140.7255   77.7179  223.2571 H   0  0  0  0  0  0  0  0  0  0  0  0
  141.7350   79.2423  225.2235 H   0  0  0  0  0  0  0  0  0  0  0  0
  143.1729   81.1587  224.0350 H   0  0  0  0  0  0  0  0  0  0  0  0
  139.1993   69.4601  222.7320 H   0  0  0  0  0  0  0  0  0  0  0  0
  139.0627   68.2075  224.8646 H   0  0  0  0  0  0  0  0  0  0  0  0
  139.5318   68.1603  227.3050 H   0  0  0  0  0  0  0  0  0  0  0  0
  140.4355   69.2875  229.3193 H   0  0  0  0  0  0  0  0  0  0  0  0
  141.4151   71.5510  229.1408 H   0  0  0  0  0  0  0  0  0  0  0  0
  141.5007   72.7220  226.9423 H   0  0  0  0  0  0  0  0  0  0  0  0
  1  2  2  0
  2  3  1  0
  3  4  1  0
  4  5  1  0
  5  6  2  0
  5  7  1  0
  7  8  1  0
  8  9  1  0
  9 10  1  0
 10 11  1  0
 11 12  1  0
 12 13  1  0
 13 14  1  0
 14 15  2  0
 15 16  1  0
 16 17  2  0
  2 18  1  0
 18 19  2  0
 19 20  1  0
 20 21  2  0
 21 22  1  0
 22 23  2  0
 23 24  1  0
 24 25  2  0
 25 26  1  0
 26 27  2  0
 11  7  1  0
 17 13  1  0
 27 18  1  0
 26 21  1  0
  3 28  1  0
  4 29  1  0
  4 30  1  0
  8 31  1  0
  8 32  1  0
  9 33  1  0
  9 34  1  0
 10 35  1  0
 10 36  1  0
 11 37  1  1
 12 38  1  0
 12 39  1  0
 14 40  1  0
 15 41  1  0
 16 42  1  0
 19 43  1  0
 20 44  1  0
 22 45  1  0
 23 46  1  0
 24 47  1  0
 25 48  1  0
M  END
>  <smiles>  (22) 
O=C(NCC(=O)N1CCC[C@H]1Cn1cccn1)c1ccc2ccccc2n1

>  <score_type>  (22) 
oracle

>  <origin>  (22) 
autodockgpu

>  <m_score__min__energy>  (22) 
-8.4000000000000004

>  <m_primary>  (22) 
energy

>  <rmsd>  (22) 
1.7971072440366536

>  <m_score__min__rmsd>  (22) 
1.7971072440366536

>  <meeko>  (22) 
{"free_energy": -8.17, "intermolecular_energy": -9.96, "internal_energy": -1.62, "cluster_size": 26, "cluster_id": 1, "rank_in_cluster": 10}

>  <energy>  (22) 
-7.94

>  <cluster_rmsd>  (22) 
1.83

>  <cluster>  (22) 
1

$$$$

     RDKit          3D

 48 51  0  0  0  0  0  0  0  0999 V2000
  140.3750   74.1650  220.1290 O   0  0  0  0  0  0  0  0  0  0  0  0
  140.1360   74.8510  221.1630 C   0  0  0  0  0  0  0  0  0  0  0  0
  139.3430   74.3490  222.2400 N   0  0  0  0  0  0  0  0  0  0  0  0
  138.8130   73.0090  222.1120 C   0  0  0  0  0  0  0  0  0  0  0  0
  139.6520   72.0660  222.9150 C   0  0  0  0  0  0  0  0  0  0  0  0
  140.8090   72.3990  223.3020 O   0  0  0  0  0  0  0  0  0  0  0  0
  139.1880   70.7710  223.2730 N   0  0  0  0  0  0  0  0  0  0  0  0
  138.9190   69.7410  222.2860 C   0  0  0  0  0  0  0  0  0  0  0  0
  138.1700   68.6350  222.9460 C   0  0  0  0  0  0  0  0  0  0  0  0
  137.8360   69.1730  224.3160 C   0  0  0  0  0  0  0  0  0  0  0  0
  138.8920   70.1900  224.5460 C   0  0  1  0  0  0  0  0  0  0  0  0
  140.0720   69.7520  225.3470 C   0  0  0  0  0  0  0  0  0  0  0  0
  140.5270   70.6670  226.3420 N   0  0  0  0  0  0  0  0  0  0  0  0
  140.2840   70.4950  227.6730 C   0  0  0  0  0  0  0  0  0  0  0  0
  140.8570   71.5460  228.3510 C   0  0  0  0  0  0  0  0  0  0  0  0
  141.4400   72.3350  227.3910 C   0  0  0  0  0  0  0  0  0  0  0  0
  141.2340   71.7970  226.2010 N   0  0  0  0  0  0  0  0  0  0  0  0
  140.6840   76.2030  221.2670 C   0  0  0  0  0  0  0  0  0  0  0  0
  141.0630   76.8910  220.1340 C   0  0  0  0  0  0  0  0  0  0  0  0
  141.5860   78.1690  220.1940 C   0  0  0  0  0  0  0  0  0  0  0  0
  141.7300   78.7700  221.4390 C   0  0  0  0  0  0  0  0  0  0  0  0
  142.2420   80.0430  221.5900 C   0  0  0  0  0  0  0  0  0  0  0  0
  142.3650   80.5970  222.8490 C   0  0  0  0  0  0  0  0  0  0  0  0
  141.9740   79.8780  223.9610 C   0  0  0  0  0  0  0  0  0  0  0  0
  141.4580   78.6020  223.8360 C   0  0  0  0  0  0  0  0  0  0  0  0
  141.3460   78.0710  222.5660 C   0  0  0  0  0  0  0  0  0  0  0  0
  140.8430   76.8270  222.4480 N   0  0  0  0  0  0  0  0  0  0  0  0
  139.1900   74.9700  223.0560 H   0  0  0  0  0  0  0  0  0  0  0  0
  137.7777   72.9865  222.4829 H   0  0  0  0  0  0  0  0  0  0  0  0
  138.8284   72.7064  221.0546 H   0  0  0  0  0  0  0  0  0  0  0  0
  138.3157   70.1605  221.4675 H   0  0  0  0  0  0  0  0  0  0  0  0
  139.8646   69.3604  221.8724 H   0  0  0  0  0  0  0  0  0  0  0  0
  137.2529   68.3980  222.3867 H   0  0  0  0  0  0  0  0  0  0  0  0
  138.7527   67.7031  222.9921 H   0  0  0  0  0  0  0  0  0  0  0  0
  136.8366   69.6324  224.3268 H   0  0  0  0  0  0  0  0  0  0  0  0
  137.8106   68.3936  225.0918 H   0  0  0  0  0  0  0  0  0  0  0  0
  138.5067   70.9607  225.2298 H   0  0  0  0  0  0  0  0  0  0  0  0
  139.8059   68.8113  225.8513 H   0  0  0  0  0  0  0  0  0  0  0  0
  140.9000   69.6592  224.6287 H   0  0  0  0  0  0  0  0  0  0  0  0
  139.7270   69.6613  228.1255 H   0  0  0  0  0  0  0  0  0  0  0  0
  140.8495   71.7183  229.4374 H   0  0  0  0  0  0  0  0  0  0  0  0
  141.9915   73.2675  227.5816 H   0  0  0  0  0  0  0  0  0  0  0  0
  140.9456   76.4083  219.1526 H   0  0  0  0  0  0  0  0  0  0  0  0
  141.8818   78.6989  219.2765 H   0  0  0  0  0  0  0  0  0  0  0  0
  142.5529   80.6177  220.7051 H   0  0  0  0  0  0  0  0  0  0  0  0
  142.7745   81.6112  222.9659 H   0  0  0  0  0  0  0  0  0  0  0  0
  142.0746   80.3270  224.9602 H   0  0  0  0  0  0  0  0  0  0  0  0
  141.1462   78.0272  224.7205 H   0  0  0  0  0  0  0  0  0  0  0  0
  1  2  2  0
  2  3  1  0
  3  4  1  0
  4  5  1  0
  5  6  2  0
  5  7  1  0
  7  8  1  0
  8  9  1  0
  9 10  1  0
 10 11  1  0
 11 12  1  0
 12 13  1  0
 13 14  1  0
 14 15  2  0
 15 16  1  0
 16 17  2  0
  2 18  1  0
 18 19  2  0
 19 20  1  0
 20 21  2  0
 21 22  1  0
 22 23  2  0
 23 24  1  0
 24 25  2  0
 25 26  1  0
 26 27  2  0
 11  7  1  0
 17 13  1  0
 27 18  1  0
 26 21  1  0
  3 28  1  0
  4 29  1  0
  4 30  1  0
  8 31  1  0
  8 32  1  0
  9 33  1  0
  9 34  1  0
 10 35  1  0
 10 36  1  0
 11 37  1  1
 12 38  1  0
 12 39  1  0
 14 40  1  0
 15 41  1  0
 16 42  1  0
 19 43  1  0
 20 44  1  0
 22 45  1  0
 23 46  1  0
 24 47  1  0
 25 48  1  0
M  END
>  <smiles>  (23) 
O=C(NCC(=O)N1CCC[C@H]1Cn1cccn1)c1ccc2ccccc2n1

>  <score_type>  (23) 
oracle

>  <origin>  (23) 
autodockgpu

>  <m_score__min__energy>  (23) 
-8.4000000000000004

>  <m_primary>  (23) 
energy

>  <rmsd>  (23) 
8.683997997097446

>  <m_score__min__rmsd>  (23) 
8.683997997097446

>  <meeko>  (23) 
{"free_energy": -7.87, "intermolecular_energy": -9.66, "internal_energy": -1.51, "cluster_size": 3, "cluster_id": 2, "rank_in_cluster": 2}

>  <energy>  (23) 
-7.89

>  <cluster_rmsd>  (23) 
1.38

>  <cluster>  (23) 
1

$$$$

     RDKit          3D

 48 51  0  0  0  0  0  0  0  0999 V2000
  140.6880   71.2600  221.2850 O   0  0  0  0  0  0  0  0  0  0  0  0
  140.2780   71.8840  222.3050 C   0  0  0  0  0  0  0  0  0  0  0  0
  139.9190   73.2650  222.2550 N   0  0  0  0  0  0  0  0  0  0  0  0
  140.0400   73.9430  220.9820 C   0  0  0  0  0  0  0  0  0  0  0  0
  140.4390   75.3660  221.2140 C   0  0  0  0  0  0  0  0  0  0  0  0
  140.1880   75.9360  222.3150 O   0  0  0  0  0  0  0  0  0  0  0  0
  141.1090   76.1280  220.2190 N   0  0  0  0  0  0  0  0  0  0  0  0
  140.9260   75.8840  218.7990 C   0  0  0  0  0  0  0  0  0  0  0  0
  141.9800   76.6250  218.0510 C   0  0  0  0  0  0  0  0  0  0  0  0
  142.9090   77.1410  219.1240 C   0  0  0  0  0  0  0  0  0  0  0  0
  142.0360   77.2110  220.3210 C   0  0  1  0  0  0  0  0  0  0  0  0
  141.4430   78.5440  220.6320 C   0  0  0  0  0  0  0  0  0  0  0  0
  141.7860   79.1010  221.9000 N   0  0  0  0  0  0  0  0  0  0  0  0
  141.3490   78.5780  223.0820 C   0  0  0  0  0  0  0  0  0  0  0  0
  141.8570   79.3450  224.1030 C   0  0  0  0  0  0  0  0  0  0  0  0
  142.6000   80.3280  223.4970 C   0  0  0  0  0  0  0  0  0  0  0  0
  142.5460   80.1670  222.1850 N   0  0  0  0  0  0  0  0  0  0  0  0
  140.1650   71.1760  223.5790 C   0  0  0  0  0  0  0  0  0  0  0  0
  139.5700   69.9330  223.6370 C   0  0  0  0  0  0  0  0  0  0  0  0
  139.4450   69.2350  224.8230 C   0  0  0  0  0  0  0  0  0  0  0  0
  139.9380   69.8120  225.9880 C   0  0  0  0  0  0  0  0  0  0  0  0
  139.8560   69.1850  227.2150 C   0  0  0  0  0  0  0  0  0  0  0  0
  140.3610   69.7990  228.3430 C   0  0  0  0  0  0  0  0  0  0  0  0
  140.9500   71.0440  228.2470 C   0  0  0  0  0  0  0  0  0  0  0  0
  141.0450   71.6930  227.0300 C   0  0  0  0  0  0  0  0  0  0  0  0
  140.5320   71.0560  225.9170 C   0  0  0  0  0  0  0  0  0  0  0  0
  140.6260   71.6920  224.7330 N   0  0  0  0  0  0  0  0  0  0  0  0
  139.5910   73.7100  223.1320 H   0  0  0  0  0  0  0  0  0  0  0  0
  140.8050   73.4422  220.3705 H   0  0  0  0  0  0  0  0  0  0  0  0
  139.0744   73.9128  220.4559 H   0  0  0  0  0  0  0  0  0  0  0  0
  141.0133   74.8069  218.5936 H   0  0  0  0  0  0  0  0  0  0  0  0
  139.9294   76.2266  218.4836 H   0  0  0  0  0  0  0  0  0  0  0  0
  142.5146   75.9532  217.3633 H   0  0  0  0  0  0  0  0  0  0  0  0
  141.5648   77.4335  217.4314 H   0  0  0  0  0  0  0  0  0  0  0  0
  143.7474   76.4478  219.2869 H   0  0  0  0  0  0  0  0  0  0  0  0
  143.3700   78.1065  218.8685 H   0  0  0  0  0  0  0  0  0  0  0  0
  142.6527   77.0915  221.2240 H   0  0  0  0  0  0  0  0  0  0  0  0
  141.7730   79.2487  219.8545 H   0  0  0  0  0  0  0  0  0  0  0  0
  140.3550   78.3845  220.6628 H   0  0  0  0  0  0  0  0  0  0  0  0
  140.7024   77.6957  223.1977 H   0  0  0  0  0  0  0  0  0  0  0  0
  141.7007   79.2012  225.1823 H   0  0  0  0  0  0  0  0  0  0  0  0
  143.1523   81.1230  224.0194 H   0  0  0  0  0  0  0  0  0  0  0  0
  139.1831   69.4835  222.7106 H   0  0  0  0  0  0  0  0  0  0  0  0
  138.9661   68.2449  224.8449 H   0  0  0  0  0  0  0  0  0  0  0  0
  139.3868   68.1932  227.2939 H   0  0  0  0  0  0  0  0  0  0  0  0
  140.2942   69.2962  229.3191 H   0  0  0  0  0  0  0  0  0  0  0  0
  141.3493   71.5263  229.1514 H   0  0  0  0  0  0  0  0  0  0  0  0
  141.5141   72.6848  226.9506 H   0  0  0  0  0  0  0  0  0  0  0  0
  1  2  2  0
  2  3  1  0
  3  4  1  0
  4  5  1  0
  5  6  2  0
  5  7  1  0
  7  8  1  0
  8  9  1  0
  9 10  1  0
 10 11  1  0
 11 12  1  0
 12 13  1  0
 13 14  1  0
 14 15  2  0
 15 16  1  0
 16 17  2  0
  2 18  1  0
 18 19  2  0
 19 20  1  0
 20 21  2  0
 21 22  1  0
 22 23  2  0
 23 24  1  0
 24 25  2  0
 25 26  1  0
 26 27  2  0
 11  7  1  0
 17 13  1  0
 27 18  1  0
 26 21  1  0
  3 28  1  0
  4 29  1  0
  4 30  1  0
  8 31  1  0
  8 32  1  0
  9 33  1  0
  9 34  1  0
 10 35  1  0
 10 36  1  0
 11 37  1  1
 12 38  1  0
 12 39  1  0
 14 40  1  0
 15 41  1  0
 16 42  1  0
 19 43  1  0
 20 44  1  0
 22 45  1  0
 23 46  1  0
 24 47  1  0
 25 48  1  0
M  END
>  <smiles>  (24) 
O=C(NCC(=O)N1CCC[C@H]1Cn1cccn1)c1ccc2ccccc2n1

>  <score_type>  (24) 
oracle

>  <origin>  (24) 
autodockgpu

>  <m_score__min__energy>  (24) 
-8.4000000000000004

>  <m_primary>  (24) 
energy

>  <rmsd>  (24) 
1.7971781132015037

>  <m_score__min__rmsd>  (24) 
1.7971781132015037

>  <meeko>  (24) 
{"free_energy": -8.2, "intermolecular_energy": -9.99, "internal_energy": -1.61, "cluster_size": 26, "cluster_id": 1, "rank_in_cluster": 7}

>  <energy>  (24) 
-7.82

>  <cluster_rmsd>  (24) 
1.53

>  <cluster>  (24) 
1

$$$$

     RDKit          3D

 48 51  0  0  0  0  0  0  0  0999 V2000
  139.9850   71.2440  221.2480 O   0  0  0  0  0  0  0  0  0  0  0  0
  139.8590   71.9230  222.3070 C   0  0  0  0  0  0  0  0  0  0  0  0
  139.6260   73.3310  222.2800 N   0  0  0  0  0  0  0  0  0  0  0  0
  139.5350   73.9710  220.9850 C   0  0  0  0  0  0  0  0  0  0  0  0
  139.8770   75.4210  221.1230 C   0  0  0  0  0  0  0  0  0  0  0  0
  139.3300   76.1310  222.0150 O   0  0  0  0  0  0  0  0  0  0  0  0
  140.8200   76.0520  220.2680 N   0  0  0  0  0  0  0  0  0  0  0  0
  140.8590   75.8060  218.8370 C   0  0  0  0  0  0  0  0  0  0  0  0
  142.1280   76.3670  218.2940 C   0  0  0  0  0  0  0  0  0  0  0  0
  142.9170   76.7630  219.5180 C   0  0  0  0  0  0  0  0  0  0  0  0
  141.8660   76.9890  220.5400 C   0  0  1  0  0  0  0  0  0  0  0  0
  141.4320   78.4010  220.7450 C   0  0  0  0  0  0  0  0  0  0  0  0
  141.7000   78.9580  222.0310 N   0  0  0  0  0  0  0  0  0  0  0  0
  142.3980   80.1170  222.2050 C   0  0  0  0  0  0  0  0  0  0  0  0
  142.4750   80.3700  223.5550 C   0  0  0  0  0  0  0  0  0  0  0  0
  141.8080   79.3380  224.1660 C   0  0  0  0  0  0  0  0  0  0  0  0
  141.3540   78.5060  223.2440 N   0  0  0  0  0  0  0  0  0  0  0  0
  139.9550   71.2520  223.6020 C   0  0  0  0  0  0  0  0  0  0  0  0
  139.5490   69.9420  223.7420 C   0  0  0  0  0  0  0  0  0  0  0  0
  139.6240   69.2770  224.9510 C   0  0  0  0  0  0  0  0  0  0  0  0
  140.1260   69.9580  226.0540 C   0  0  0  0  0  0  0  0  0  0  0  0
  140.2370   69.3700  227.2980 C   0  0  0  0  0  0  0  0  0  0  0  0
  140.7420   70.0890  228.3630 C   0  0  0  0  0  0  0  0  0  0  0  0
  141.1390   71.4000  228.1850 C   0  0  0  0  0  0  0  0  0  0  0  0
  141.0390   72.0110  226.9490 C   0  0  0  0  0  0  0  0  0  0  0  0
  140.5300   71.2690  225.9010 C   0  0  0  0  0  0  0  0  0  0  0  0
  140.4330   71.8690  224.6980 N   0  0  0  0  0  0  0  0  0  0  0  0
  139.5330   73.8220  223.1890 H   0  0  0  0  0  0  0  0  0  0  0  0
  140.2392   73.4924  220.2886 H   0  0  0  0  0  0  0  0  0  0  0  0
  138.5110   73.8701  220.5961 H   0  0  0  0  0  0  0  0  0  0  0  0
  140.8203   74.7235  218.6457 H   0  0  0  0  0  0  0  0  0  0  0  0
  139.9969   76.2844  218.3493 H   0  0  0  0  0  0  0  0  0  0  0  0
  142.6702   75.6089  217.7098 H   0  0  0  0  0  0  0  0  0  0  0  0
  141.9550   77.2144  217.6143 H   0  0  0  0  0  0  0  0  0  0  0  0
  143.5993   75.9568  219.8254 H   0  0  0  0  0  0  0  0  0  0  0  0
  143.5554   77.6436  219.3536 H   0  0  0  0  0  0  0  0  0  0  0  0
  142.2882   76.8014  221.5383 H   0  0  0  0  0  0  0  0  0  0  0  0
  141.9443   79.0225  219.9958 H   0  0  0  0  0  0  0  0  0  0  0  0
  140.3362   78.3910  220.6490 H   0  0  0  0  0  0  0  0  0  0  0  0
  142.8247   80.7404  221.4055 H   0  0  0  0  0  0  0  0  0  0  0  0
  142.9689   81.2229  224.0435 H   0  0  0  0  0  0  0  0  0  0  0  0
  141.6724   79.2213  225.2514 H   0  0  0  0  0  0  0  0  0  0  0  0
  139.1532   69.4098  222.8644 H   0  0  0  0  0  0  0  0  0  0  0  0
  139.2936   68.2315  225.0387 H   0  0  0  0  0  0  0  0  0  0  0  0
  139.9222   68.3258  227.4412 H   0  0  0  0  0  0  0  0  0  0  0  0
  140.8282   69.6178  229.3532 H   0  0  0  0  0  0  0  0  0  0  0  0
  141.5404   71.9658  229.0387 H   0  0  0  0  0  0  0  0  0  0  0  0
  141.3547   73.0548  226.8047 H   0  0  0  0  0  0  0  0  0  0  0  0
  1  2  2  0
  2  3  1  0
  3  4  1  0
  4  5  1  0
  5  6  2  0
  5  7  1  0
  7  8  1  0
  8  9  1  0
  9 10  1  0
 10 11  1  0
 11 12  1  0
 12 13  1  0
 13 14  1  0
 14 15  2  0
 15 16  1  0
 16 17  2  0
  2 18  1  0
 18 19  2  0
 19 20  1  0
 20 21  2  0
 21 22  1  0
 22 23  2  0
 23 24  1  0
 24 25  2  0
 25 26  1  0
 26 27  2  0
 11  7  1  0
 17 13  1  0
 27 18  1  0
 26 21  1  0
  3 28  1  0
  4 29  1  0
  4 30  1  0
  8 31  1  0
  8 32  1  0
  9 33  1  0
  9 34  1  0
 10 35  1  0
 10 36  1  0
 11 37  1  1
 12 38  1  0
 12 39  1  0
 14 40  1  0
 15 41  1  0
 16 42  1  0
 19 43  1  0
 20 44  1  0
 22 45  1  0
 23 46  1  0
 24 47  1  0
 25 48  1  0
M  END
>  <smiles>  (25) 
O=C(NCC(=O)N1CCC[C@H]1Cn1cccn1)c1ccc2ccccc2n1

>  <score_type>  (25) 
oracle

>  <origin>  (25) 
autodockgpu

>  <m_score__min__energy>  (25) 
-8.4000000000000004

>  <m_primary>  (25) 
energy

>  <rmsd>  (25) 
1.9553309077056356

>  <m_score__min__rmsd>  (25) 
1.9553309077056356

>  <meeko>  (25) 
{"free_energy": -7.94, "intermolecular_energy": -9.73, "internal_energy": -1.51, "cluster_size": 26, "cluster_id": 1, "rank_in_cluster": 22}

>  <energy>  (25) 
-7.58

>  <cluster_rmsd>  (25) 
1.11

>  <cluster>  (25) 
1

$$$$

     RDKit          3D

 48 51  0  0  0  0  0  0  0  0999 V2000
  137.1790   69.8100  222.4310 O   0  0  0  0  0  0  0  0  0  0  0  0
  137.7940   70.6920  223.0950 C   0  0  0  0  0  0  0  0  0  0  0  0
  137.7750   72.0710  222.7230 N   0  0  0  0  0  0  0  0  0  0  0  0
  137.0190   72.4370  221.5450 C   0  0  0  0  0  0  0  0  0  0  0  0
  137.7680   73.4800  220.7790 C   0  0  0  0  0  0  0  0  0  0  0  0
  138.1640   73.2550  219.5990 O   0  0  0  0  0  0  0  0  0  0  0  0
  138.0610   74.7540  221.3380 N   0  0  0  0  0  0  0  0  0  0  0  0
  137.2430   75.3540  222.3760 C   0  0  0  0  0  0  0  0  0  0  0  0
  137.6300   76.7850  222.5170 C   0  0  0  0  0  0  0  0  0  0  0  0
  138.5690   77.0360  221.3620 C   0  0  0  0  0  0  0  0  0  0  0  0
  139.1120   75.6860  221.0690 C   0  0  1  0  0  0  0  0  0  0  0  0
  140.4370   75.3590  221.6700 C   0  0  0  0  0  0  0  0  0  0  0  0
  140.7550   73.9710  221.7660 N   0  0  0  0  0  0  0  0  0  0  0  0
  141.5830   73.3390  220.8850 C   0  0  0  0  0  0  0  0  0  0  0  0
  141.6780   72.0190  221.2610 C   0  0  0  0  0  0  0  0  0  0  0  0
  140.8900   71.8910  222.3770 C   0  0  0  0  0  0  0  0  0  0  0  0
  140.3470   73.0640  222.6630 N   0  0  0  0  0  0  0  0  0  0  0  0
  138.5510   70.2960  224.2810 C   0  0  0  0  0  0  0  0  0  0  0  0
  138.5610   68.9810  224.6960 C   0  0  0  0  0  0  0  0  0  0  0  0
  139.2640   68.5710  225.8130 C   0  0  0  0  0  0  0  0  0  0  0  0
  139.9790   69.5200  226.5330 C   0  0  0  0  0  0  0  0  0  0  0  0
  140.7090   69.1980  227.6600 C   0  0  0  0  0  0  0  0  0  0  0  0
  141.4030   70.1780  228.3420 C   0  0  0  0  0  0  0  0  0  0  0  0
  141.3690   71.4840  227.8970 C   0  0  0  0  0  0  0  0  0  0  0  0
  140.6470   71.8330  226.7710 C   0  0  0  0  0  0  0  0  0  0  0  0
  139.9620   70.8340  226.1080 C   0  0  0  0  0  0  0  0  0  0  0  0
  139.2580   71.1770  225.0120 N   0  0  0  0  0  0  0  0  0  0  0  0
  138.3030   72.7380  223.3160 H   0  0  0  0  0  0  0  0  0  0  0  0
  136.8741   71.5495  220.9114 H   0  0  0  0  0  0  0  0  0  0  0  0
  136.0388   72.8351  221.8462 H   0  0  0  0  0  0  0  0  0  0  0  0
  136.1809   75.2828  222.0986 H   0  0  0  0  0  0  0  0  0  0  0  0
  137.3981   74.8268  223.3289 H   0  0  0  0  0  0  0  0  0  0  0  0
  136.7459   77.4358  222.4483 H   0  0  0  0  0  0  0  0  0  0  0  0
  138.0960   76.9992  223.4901 H   0  0  0  0  0  0  0  0  0  0  0  0
  138.0278   77.4407  220.4941 H   0  0  0  0  0  0  0  0  0  0  0  0
  139.3502   77.7751  221.5931 H   0  0  0  0  0  0  0  0  0  0  0  0
  139.3975   75.6341  220.0080 H   0  0  0  0  0  0  0  0  0  0  0  0
  141.2128   75.8404  221.0565 H   0  0  0  0  0  0  0  0  0  0  0  0
  140.3911   75.7251  222.7063 H   0  0  0  0  0  0  0  0  0  0  0  0
  142.0866   73.8036  220.0244 H   0  0  0  0  0  0  0  0  0  0  0  0
  142.2645   71.2293  220.7687 H   0  0  0  0  0  0  0  0  0  0  0  0
  140.7342   70.9613  222.9440 H   0  0  0  0  0  0  0  0  0  0  0  0
  137.9922   68.2358  224.1206 H   0  0  0  0  0  0  0  0  0  0  0  0
  139.2576   67.5163  226.1252 H   0  0  0  0  0  0  0  0  0  0  0  0
  140.7378   68.1575  228.0157 H   0  0  0  0  0  0  0  0  0  0  0  0
  141.9828   69.9177  229.2398 H   0  0  0  0  0  0  0  0  0  0  0  0
  141.9245   72.2584  228.4463 H   0  0  0  0  0  0  0  0  0  0  0  0
  140.6191   72.8733  226.4145 H   0  0  0  0  0  0  0  0  0  0  0  0
  1  2  2  0
  2  3  1  0
  3  4  1  0
  4  5  1  0
  5  6  2  0
  5  7  1  0
  7  8  1  0
  8  9  1  0
  9 10  1  0
 10 11  1  0
 11 12  1  0
 12 13  1  0
 13 14  1  0
 14 15  2  0
 15 16  1  0
 16 17  2  0
  2 18  1  0
 18 19  2  0
 19 20  1  0
 20 21  2  0
 21 22  1  0
 22 23  2  0
 23 24  1  0
 24 25  2  0
 25 26  1  0
 26 27  2  0
 11  7  1  0
 17 13  1  0
 27 18  1  0
 26 21  1  0
  3 28  1  0
  4 29  1  0
  4 30  1  0
  8 31  1  0
  8 32  1  0
  9 33  1  0
  9 34  1  0
 10 35  1  0
 10 36  1  0
 11 37  1  6
 12 38  1  0
 12 39  1  0
 14 40  1  0
 15 41  1  0
 16 42  1  0
 19 43  1  0
 20 44  1  0
 22 45  1  0
 23 46  1  0
 24 47  1  0
 25 48  1  0
M  END
>  <smiles>  (26) 
O=C(NCC(=O)N1CCC[C@H]1Cn1cccn1)c1ccc2ccccc2n1

>  <score_type>  (26) 
oracle

>  <origin>  (26) 
autodockgpu

>  <m_score__min__energy>  (26) 
-8.4000000000000004

>  <m_primary>  (26) 
energy

>  <rmsd>  (26) 
3.9424989137446276

>  <m_score__min__rmsd>  (26) 
3.9424989137446276

>  <meeko>  (26) 
{"free_energy": -6.41, "intermolecular_energy": -8.2, "internal_energy": -3.01, "cluster_size": 2, "cluster_id": 5, "rank_in_cluster": 1}

>  <energy>  (26) 
-7.09

>  <cluster_rmsd>  (26) 
1.65

>  <cluster>  (26) 
1

$$$$

     RDKit          3D

 48 51  0  0  0  0  0  0  0  0999 V2000
  140.7350   71.3470  221.2810 O   0  0  0  0  0  0  0  0  0  0  0  0
  140.2920   71.9610  222.2930 C   0  0  0  0  0  0  0  0  0  0  0  0
  139.8980   73.3320  222.2350 N   0  0  0  0  0  0  0  0  0  0  0  0
  140.0200   74.0110  220.9630 C   0  0  0  0  0  0  0  0  0  0  0  0
  140.4930   75.4120  221.1920 C   0  0  0  0  0  0  0  0  0  0  0  0
  140.3220   75.9770  222.3110 O   0  0  0  0  0  0  0  0  0  0  0  0
  141.1480   76.1570  220.1740 N   0  0  0  0  0  0  0  0  0  0  0  0
  140.9350   75.8970  218.7610 C   0  0  0  0  0  0  0  0  0  0  0  0
  141.9780   76.6220  217.9830 C   0  0  0  0  0  0  0  0  0  0  0  0
  142.9320   77.1450  219.0300 C   0  0  0  0  0  0  0  0  0  0  0  0
  142.0840   77.2360  220.2440 C   0  0  1  0  0  0  0  0  0  0  0  0
  141.5050   78.5760  220.5510 C   0  0  0  0  0  0  0  0  0  0  0  0
  141.8230   79.1170  221.8320 N   0  0  0  0  0  0  0  0  0  0  0  0
  141.3590   78.5830  222.9980 C   0  0  0  0  0  0  0  0  0  0  0  0
  141.8500   79.3360  224.0380 C   0  0  0  0  0  0  0  0  0  0  0  0
  142.6100   80.3220  223.4590 C   0  0  0  0  0  0  0  0  0  0  0  0
  142.5820   80.1760  222.1440 N   0  0  0  0  0  0  0  0  0  0  0  0
  140.1790   71.2520  223.5660 C   0  0  0  0  0  0  0  0  0  0  0  0
  139.5740   70.0140  223.6240 C   0  0  0  0  0  0  0  0  0  0  0  0
  139.4470   69.3150  224.8100 C   0  0  0  0  0  0  0  0  0  0  0  0
  139.9500   69.8860  225.9740 C   0  0  0  0  0  0  0  0  0  0  0  0
  139.8670   69.2580  227.2000 C   0  0  0  0  0  0  0  0  0  0  0  0
  140.3810   69.8660  228.3280 C   0  0  0  0  0  0  0  0  0  0  0  0
  140.9800   71.1060  228.2310 C   0  0  0  0  0  0  0  0  0  0  0  0
  141.0760   71.7560  227.0150 C   0  0  0  0  0  0  0  0  0  0  0  0
  140.5540   71.1260  225.9030 C   0  0  0  0  0  0  0  0  0  0  0  0
  140.6480   71.7620  224.7190 N   0  0  0  0  0  0  0  0  0  0  0  0
  139.5440   73.7700  223.1060 H   0  0  0  0  0  0  0  0  0  0  0  0
  140.7446   73.4777  220.3301 H   0  0  0  0  0  0  0  0  0  0  0  0
  139.0414   74.0305  220.4611 H   0  0  0  0  0  0  0  0  0  0  0  0
  141.0116   74.8169  218.5671 H   0  0  0  0  0  0  0  0  0  0  0  0
  139.9344   76.2422  218.4616 H   0  0  0  0  0  0  0  0  0  0  0  0
  142.4942   75.9385  217.2928 H   0  0  0  0  0  0  0  0  0  0  0  0
  141.5551   77.4257  217.3623 H   0  0  0  0  0  0  0  0  0  0  0  0
  143.7690   76.4482  219.1846 H   0  0  0  0  0  0  0  0  0  0  0  0
  143.3940   78.1040  218.7529 H   0  0  0  0  0  0  0  0  0  0  0  0
  142.7189   77.1248  221.1354 H   0  0  0  0  0  0  0  0  0  0  0  0
  141.8670   79.2815  219.7886 H   0  0  0  0  0  0  0  0  0  0  0  0
  140.4142   78.4341  220.5520 H   0  0  0  0  0  0  0  0  0  0  0  0
  140.7056   77.7029  223.0902 H   0  0  0  0  0  0  0  0  0  0  0  0
  141.6710   79.1807  225.1122 H   0  0  0  0  0  0  0  0  0  0  0  0
  143.1553   81.1082  224.0017 H   0  0  0  0  0  0  0  0  0  0  0  0
  139.1804   69.5691  222.6982 H   0  0  0  0  0  0  0  0  0  0  0  0
  138.9591   68.3294  224.8324 H   0  0  0  0  0  0  0  0  0  0  0  0
  139.3899   68.2700  227.2788 H   0  0  0  0  0  0  0  0  0  0  0  0
  140.3132   69.3625  229.3037 H   0  0  0  0  0  0  0  0  0  0  0  0
  141.3868   71.5837  229.1345 H   0  0  0  0  0  0  0  0  0  0  0  0
  141.5532   72.7439  226.9358 H   0  0  0  0  0  0  0  0  0  0  0  0
  1  2  2  0
  2  3  1  0
  3  4  1  0
  4  5  1  0
  5  6  2  0
  5  7  1  0
  7  8  1  0
  8  9  1  0
  9 10  1  0
 10 11  1  0
 11 12  1  0
 12 13  1  0
 13 14  1  0
 14 15  2  0
 15 16  1  0
 16 17  2  0
  2 18  1  0
 18 19  2  0
 19 20  1  0
 20 21  2  0
 21 22  1  0
 22 23  2  0
 23 24  1  0
 24 25  2  0
 25 26  1  0
 26 27  2  0
 11  7  1  0
 17 13  1  0
 27 18  1  0
 26 21  1  0
  3 28  1  0
  4 29  1  0
  4 30  1  0
  8 31  1  0
  8 32  1  0
  9 33  1  0
  9 34  1  0
 10 35  1  0
 10 36  1  0
 11 37  1  1
 12 38  1  0
 12 39  1  0
 14 40  1  0
 15 41  1  0
 16 42  1  0
 19 43  1  0
 20 44  1  0
 22 45  1  0
 23 46  1  0
 24 47  1  0
 25 48  1  0
M  END
>  <smiles>  (27) 
O=C(NCC(=O)N1CCC[C@H]1Cn1cccn1)c1ccc2ccccc2n1

>  <score_type>  (27) 
oracle

>  <origin>  (27) 
autodockgpu

>  <m_score__min__energy>  (27) 
-8.4000000000000004

>  <m_primary>  (27) 
energy

>  <rmsd>  (27) 
1.802652823051668

>  <m_score__min__rmsd>  (27) 
1.802652823051668

>  <meeko>  (27) 
{"free_energy": -8.24, "intermolecular_energy": -10.03, "internal_energy": -1.56, "cluster_size": 26, "cluster_id": 1, "rank_in_cluster": 3}

>  <energy>  (27) 
-8.28

>  <cluster_rmsd>  (27) 
0.0

>  <cluster>  (27) 
2

$$$$

     RDKit          3D

 48 51  0  0  0  0  0  0  0  0999 V2000
  141.3270   71.4190  221.4720 O   0  0  0  0  0  0  0  0  0  0  0  0
  140.7000   72.0180  222.3910 C   0  0  0  0  0  0  0  0  0  0  0  0
  140.3420   73.3970  222.2910 N   0  0  0  0  0  0  0  0  0  0  0  0
  140.7230   74.1020  221.0860 C   0  0  0  0  0  0  0  0  0  0  0  0
  140.7310   75.5730  221.3550 C   0  0  0  0  0  0  0  0  0  0  0  0
  140.1380   76.0490  222.3650 O   0  0  0  0  0  0  0  0  0  0  0  0
  141.4000   76.4880  220.4960 N   0  0  0  0  0  0  0  0  0  0  0  0
  141.2800   77.9270  220.6480 C   0  0  0  0  0  0  0  0  0  0  0  0
  141.8370   78.5810  219.4320 C   0  0  0  0  0  0  0  0  0  0  0  0
  142.0930   77.4400  218.4760 C   0  0  0  0  0  0  0  0  0  0  0  0
  142.2680   76.2760  219.3800 C   0  0  1  0  0  0  0  0  0  0  0  0
  143.6720   75.9010  219.7140 C   0  0  0  0  0  0  0  0  0  0  0  0
  143.9100   74.5140  219.9510 N   0  0  0  0  0  0  0  0  0  0  0  0
  143.4200   73.5300  219.1420 C   0  0  0  0  0  0  0  0  0  0  0  0
  143.8310   72.3190  219.6480 C   0  0  0  0  0  0  0  0  0  0  0  0
  144.5700   72.6120  220.7670 C   0  0  0  0  0  0  0  0  0  0  0  0
  144.6050   73.9250  220.9330 N   0  0  0  0  0  0  0  0  0  0  0  0
  140.3260   71.2820  223.5980 C   0  0  0  0  0  0  0  0  0  0  0  0
  139.5980   70.1150  223.5070 C   0  0  0  0  0  0  0  0  0  0  0  0
  139.2260   69.3940  224.6270 C   0  0  0  0  0  0  0  0  0  0  0  0
  139.6040   69.8690  225.8770 C   0  0  0  0  0  0  0  0  0  0  0  0
  139.2760   69.2120  227.0470 C   0  0  0  0  0  0  0  0  0  0  0  0
  139.6750   69.7240  228.2660 C   0  0  0  0  0  0  0  0  0  0  0  0
  140.4030   70.8960  228.3170 C   0  0  0  0  0  0  0  0  0  0  0  0
  140.7450   71.5720  227.1610 C   0  0  0  0  0  0  0  0  0  0  0  0
  140.3340   71.0380  225.9560 C   0  0  0  0  0  0  0  0  0  0  0  0
  140.6670   71.7010  224.8310 N   0  0  0  0  0  0  0  0  0  0  0  0
  139.8270   73.8200  223.0850 H   0  0  0  0  0  0  0  0  0  0  0  0
  141.7276   73.7801  220.7741 H   0  0  0  0  0  0  0  0  0  0  0  0
  140.0031   73.8780  220.2850 H   0  0  0  0  0  0  0  0  0  0  0  0
  140.2208   78.2004  220.7636 H   0  0  0  0  0  0  0  0  0  0  0  0
  141.8328   78.2582  221.5395 H   0  0  0  0  0  0  0  0  0  0  0  0
  141.1131   79.2911  219.0057 H   0  0  0  0  0  0  0  0  0  0  0  0
  142.7471   79.1603  219.6469 H   0  0  0  0  0  0  0  0  0  0  0  0
  141.2372   77.2907  217.8012 H   0  0  0  0  0  0  0  0  0  0  0  0
  142.9590   77.6118  217.8198 H   0  0  0  0  0  0  0  0  0  0  0  0
  141.9764   75.3588  218.8474 H   0  0  0  0  0  0  0  0  0  0  0  0
  144.3122   76.2139  218.8760 H   0  0  0  0  0  0  0  0  0  0  0  0
  143.8956   76.4068  220.6649 H   0  0  0  0  0  0  0  0  0  0  0  0
  142.8042   73.6794  218.2428 H   0  0  0  0  0  0  0  0  0  0  0  0
  143.6125   71.3211  219.2400 H   0  0  0  0  0  0  0  0  0  0  0  0
  145.0558   71.8734  221.4216 H   0  0  0  0  0  0  0  0  0  0  0  0
  139.3040   69.7460  222.5133 H   0  0  0  0  0  0  0  0  0  0  0  0
  138.6441   68.4655  224.5305 H   0  0  0  0  0  0  0  0  0  0  0  0
  138.6954   68.2785  227.0077 H   0  0  0  0  0  0  0  0  0  0  0  0
  139.4129   69.1982  229.1960 H   0  0  0  0  0  0  0  0  0  0  0  0
  140.7155   71.2977  229.2922 H   0  0  0  0  0  0  0  0  0  0  0  0
  141.3259   72.5053  227.1998 H   0  0  0  0  0  0  0  0  0  0  0  0
  1  2  2  0
  2  3  1  0
  3  4  1  0
  4  5  1  0
  5  6  2  0
  5  7  1  0
  7  8  1  0
  8  9  1  0
  9 10  1  0
 10 11  1  0
 11 12  1  0
 12 13  1  0
 13 14  1  0
 14 15  2  0
 15 16  1  0
 16 17  2  0
  2 18  1  0
 18 19  2  0
 19 20  1  0
 20 21  2  0
 21 22  1  0
 22 23  2  0
 23 24  1  0
 24 25  2  0
 25 26  1  0
 26 27  2  0
 11  7  1  0
 17 13  1  0
 27 18  1  0
 26 21  1  0
  3 28  1  0
  4 29  1  0
  4 30  1  0
  8 31  1  0
  8 32  1  0
  9 33  1  0
  9 34  1  0
 10 35  1  0
 10 36  1  0
 11 37  1  6
 12 38  1  0
 12 39  1  0
 14 40  1  0
 15 41  1  0
 16 42  1  0
 19 43  1  0
 20 44  1  0
 22 45  1  0
 23 46  1  0
 24 47  1  0
 25 48  1  0
M  END
>  <smiles>  (28) 
O=C(NCC(=O)N1CCC[C@H]1Cn1cccn1)c1ccc2ccccc2n1

>  <score_type>  (28) 
oracle

>  <origin>  (28) 
autodockgpu

>  <m_score__min__energy>  (28) 
-8.4000000000000004

>  <m_primary>  (28) 
energy

>  <rmsd>  (28) 
3.7448492859144964

>  <m_score__min__rmsd>  (28) 
3.7448492859144964

>  <meeko>  (28) 
{"free_energy": -7.38, "intermolecular_energy": -9.17, "internal_energy": -2.05, "cluster_size": 12, "cluster_id": 3, "rank_in_cluster": 12}

>  <energy>  (28) 
-7.87

>  <cluster_rmsd>  (28) 
1.04

>  <cluster>  (28) 
2

$$$$

     RDKit          3D

 48 51  0  0  0  0  0  0  0  0999 V2000
  140.3110   70.9740  221.3870 O   0  0  0  0  0  0  0  0  0  0  0  0
  140.1030   71.5460  222.4950 C   0  0  0  0  0  0  0  0  0  0  0  0
  139.9610   72.9630  222.6010 N   0  0  0  0  0  0  0  0  0  0  0  0
  140.0620   73.7400  221.3840 C   0  0  0  0  0  0  0  0  0  0  0  0
  139.9070   75.1910  221.7090 C   0  0  0  0  0  0  0  0  0  0  0  0
  139.2310   75.5610  222.7120 O   0  0  0  0  0  0  0  0  0  0  0  0
  140.5060   76.2050  220.9130 N   0  0  0  0  0  0  0  0  0  0  0  0
  140.3960   76.2230  219.4650 C   0  0  0  0  0  0  0  0  0  0  0  0
  141.3710   77.2130  218.9270 C   0  0  0  0  0  0  0  0  0  0  0  0
  142.1990   77.6130  220.1250 C   0  0  0  0  0  0  0  0  0  0  0  0
  141.2900   77.3470  221.2670 C   0  0  1  0  0  0  0  0  0  0  0  0
  140.5290   78.5160  221.7950 C   0  0  0  0  0  0  0  0  0  0  0  0
  141.2970   79.5100  222.4710 N   0  0  0  0  0  0  0  0  0  0  0  0
  142.4930   79.2420  223.0680 C   0  0  0  0  0  0  0  0  0  0  0  0
  142.9650   80.4100  223.6210 C   0  0  0  0  0  0  0  0  0  0  0  0
  142.0230   81.3660  223.3350 C   0  0  0  0  0  0  0  0  0  0  0  0
  141.0360   80.8120  222.6500 N   0  0  0  0  0  0  0  0  0  0  0  0
  140.0050   70.7380  223.7090 C   0  0  0  0  0  0  0  0  0  0  0  0
  139.4150   69.4920  223.6730 C   0  0  0  0  0  0  0  0  0  0  0  0
  139.3040   68.7010  224.8020 C   0  0  0  0  0  0  0  0  0  0  0  0
  139.8050   69.1860  226.0040 C   0  0  0  0  0  0  0  0  0  0  0  0
  139.7370   68.4630  227.1780 C   0  0  0  0  0  0  0  0  0  0  0  0
  140.2490   68.9880  228.3480 C   0  0  0  0  0  0  0  0  0  0  0  0
  140.8320   70.2390  228.3450 C   0  0  0  0  0  0  0  0  0  0  0  0
  140.9140   70.9830  227.1830 C   0  0  0  0  0  0  0  0  0  0  0  0
  140.3930   70.4350  226.0270 C   0  0  0  0  0  0  0  0  0  0  0  0
  140.4740   71.1630  224.8970 N   0  0  0  0  0  0  0  0  0  0  0  0
  139.7920   73.3610  223.5430 H   0  0  0  0  0  0  0  0  0  0  0  0
  141.0450   73.5704  220.9204 H   0  0  0  0  0  0  0  0  0  0  0  0
  139.2707   73.4328  220.6844 H   0  0  0  0  0  0  0  0  0  0  0  0
  140.6223   75.2241  219.0636 H   0  0  0  0  0  0  0  0  0  0  0  0
  139.3741   76.5026  219.1690 H   0  0  0  0  0  0  0  0  0  0  0  0
  142.0033   76.7551  218.1520 H   0  0  0  0  0  0  0  0  0  0  0  0
  140.8766   78.0735  218.4525 H   0  0  0  0  0  0  0  0  0  0  0  0
  143.1112   77.0024  220.1960 H   0  0  0  0  0  0  0  0  0  0  0  0
  142.5453   78.6562  220.0822 H   0  0  0  0  0  0  0  0  0  0  0  0
  141.8911   77.1255  222.1612 H   0  0  0  0  0  0  0  0  0  0  0  0
  140.0249   79.0004  220.9458 H   0  0  0  0  0  0  0  0  0  0  0  0
  139.8440   78.1059  222.5517 H   0  0  0  0  0  0  0  0  0  0  0  0
  142.9932   78.2629  223.1017 H   0  0  0  0  0  0  0  0  0  0  0  0
  143.9036   80.5489  224.1775 H   0  0  0  0  0  0  0  0  0  0  0  0
  142.0795   82.4246  223.6286 H   0  0  0  0  0  0  0  0  0  0  0  0
  139.0207   69.1159  222.7174 H   0  0  0  0  0  0  0  0  0  0  0  0
  138.8297   67.7099  224.7497 H   0  0  0  0  0  0  0  0  0  0  0  0
  139.2735   67.4654  227.1814 H   0  0  0  0  0  0  0  0  0  0  0  0
  140.1922   68.4095  229.2819 H   0  0  0  0  0  0  0  0  0  0  0  0
  141.2374   70.6501  229.2813 H   0  0  0  0  0  0  0  0  0  0  0  0
  141.3793   71.9797  227.1789 H   0  0  0  0  0  0  0  0  0  0  0  0
  1  2  2  0
  2  3  1  0
  3  4  1  0
  4  5  1  0
  5  6  2  0
  5  7  1  0
  7  8  1  0
  8  9  1  0
  9 10  1  0
 10 11  1  0
 11 12  1  0
 12 13  1  0
 13 14  1  0
 14 15  2  0
 15 16  1  0
 16 17  2  0
  2 18  1  0
 18 19  2  0
 19 20  1  0
 20 21  2  0
 21 22  1  0
 22 23  2  0
 23 24  1  0
 24 25  2  0
 25 26  1  0
 26 27  2  0
 11  7  1  0
 17 13  1  0
 27 18  1  0
 26 21  1  0
  3 28  1  0
  4 29  1  0
  4 30  1  0
  8 31  1  0
  8 32  1  0
  9 33  1  0
  9 34  1  0
 10 35  1  0
 10 36  1  0
 11 37  1  1
 12 38  1  0
 12 39  1  0
 14 40  1  0
 15 41  1  0
 16 42  1  0
 19 43  1  0
 20 44  1  0
 22 45  1  0
 23 46  1  0
 24 47  1  0
 25 48  1  0
M  END
>  <smiles>  (29) 
O=C(NCC(=O)N1CCC[C@H]1Cn1cccn1)c1ccc2ccccc2n1

>  <score_type>  (29) 
oracle

>  <origin>  (29) 
autodockgpu

>  <m_score__min__energy>  (29) 
-8.4000000000000004

>  <m_primary>  (29) 
energy

>  <rmsd>  (29) 
1.8116812138667249

>  <m_score__min__rmsd>  (29) 
1.8116812138667249

>  <meeko>  (29) 
{"free_energy": -7.89, "intermolecular_energy": -9.68, "internal_energy": -1.59, "cluster_size": 26, "cluster_id": 1, "rank_in_cluster": 23}

>  <energy>  (29) 
-7.76

>  <cluster_rmsd>  (29) 
1.04

>  <cluster>  (29) 
2

$$$$

     RDKit          3D

 48 51  0  0  0  0  0  0  0  0999 V2000
  140.5010   71.4240  221.2630 O   0  0  0  0  0  0  0  0  0  0  0  0
  140.1670   72.0280  222.3210 C   0  0  0  0  0  0  0  0  0  0  0  0
  139.8330   73.4160  222.3290 N   0  0  0  0  0  0  0  0  0  0  0  0
  139.8860   74.1250  221.0680 C   0  0  0  0  0  0  0  0  0  0  0  0
  140.5670   75.4410  221.2680 C   0  0  0  0  0  0  0  0  0  0  0  0
  140.5830   75.9940  222.4060 O   0  0  0  0  0  0  0  0  0  0  0  0
  141.2170   76.1180  220.2010 N   0  0  0  0  0  0  0  0  0  0  0  0
  141.0030   75.7630  218.8090 C   0  0  0  0  0  0  0  0  0  0  0  0
  142.0420   76.4370  217.9820 C   0  0  0  0  0  0  0  0  0  0  0  0
  142.9960   77.0320  218.9890 C   0  0  0  0  0  0  0  0  0  0  0  0
  142.1500   77.2020  220.1960 C   0  0  1  0  0  0  0  0  0  0  0  0
  141.5680   78.5580  220.4120 C   0  0  0  0  0  0  0  0  0  0  0  0
  141.8820   79.1830  221.6560 N   0  0  0  0  0  0  0  0  0  0  0  0
  141.4670   78.6910  222.8580 C   0  0  0  0  0  0  0  0  0  0  0  0
  141.9390   79.5230  223.8460 C   0  0  0  0  0  0  0  0  0  0  0  0
  142.6370   80.5120  223.1990 C   0  0  0  0  0  0  0  0  0  0  0  0
  142.5930   80.2940  221.8950 N   0  0  0  0  0  0  0  0  0  0  0  0
  140.1210   71.2890  223.5820 C   0  0  0  0  0  0  0  0  0  0  0  0
  139.5920   70.0160  223.6260 C   0  0  0  0  0  0  0  0  0  0  0  0
  139.5300   69.2890  224.8000 C   0  0  0  0  0  0  0  0  0  0  0  0
  140.0200   69.8660  225.9650 C   0  0  0  0  0  0  0  0  0  0  0  0
  139.9990   69.2110  227.1800 C   0  0  0  0  0  0  0  0  0  0  0  0
  140.4970   69.8270  228.3100 C   0  0  0  0  0  0  0  0  0  0  0  0
  141.0190   71.1030  228.2280 C   0  0  0  0  0  0  0  0  0  0  0  0
  141.0520   71.7800  227.0230 C   0  0  0  0  0  0  0  0  0  0  0  0
  140.5470   71.1410  225.9090 C   0  0  0  0  0  0  0  0  0  0  0  0
  140.5810   71.8040  224.7360 N   0  0  0  0  0  0  0  0  0  0  0  0
  139.5680   73.8440  223.2350 H   0  0  0  0  0  0  0  0  0  0  0  0
  140.4482   73.5283  220.3345 H   0  0  0  0  0  0  0  0  0  0  0  0
  138.8642   74.2921  220.6965 H   0  0  0  0  0  0  0  0  0  0  0  0
  141.0829   74.6726  218.6881 H   0  0  0  0  0  0  0  0  0  0  0  0
  140.0009   76.0844  218.4889 H   0  0  0  0  0  0  0  0  0  0  0  0
  142.5590   75.7101  217.3383 H   0  0  0  0  0  0  0  0  0  0  0  0
  141.6153   77.1958  217.3095 H   0  0  0  0  0  0  0  0  0  0  0  0
  143.8355   76.3498  219.1883 H   0  0  0  0  0  0  0  0  0  0  0  0
  143.4544   77.9716  218.6470 H   0  0  0  0  0  0  0  0  0  0  0  0
  142.7863   77.1525  221.0919 H   0  0  0  0  0  0  0  0  0  0  0  0
  141.9309   79.2123  219.6057 H   0  0  0  0  0  0  0  0  0  0  0  0
  140.4774   78.4147  220.4192 H   0  0  0  0  0  0  0  0  0  0  0  0
  140.8603   77.7862  223.0108 H   0  0  0  0  0  0  0  0  0  0  0  0
  141.7883   79.4177  224.9305 H   0  0  0  0  0  0  0  0  0  0  0  0
  143.1515   81.3527  223.6874 H   0  0  0  0  0  0  0  0  0  0  0  0
  139.2078   69.5657  222.6988 H   0  0  0  0  0  0  0  0  0  0  0  0
  139.1020   68.2757  224.8116 H   0  0  0  0  0  0  0  0  0  0  0  0
  139.5839   68.1946  227.2476 H   0  0  0  0  0  0  0  0  0  0  0  0
  140.4782   69.3016  229.2762 H   0  0  0  0  0  0  0  0  0  0  0  0
  141.4137   71.5871  229.1334 H   0  0  0  0  0  0  0  0  0  0  0  0
  141.4678   72.7961  226.9544 H   0  0  0  0  0  0  0  0  0  0  0  0
  1  2  2  0
  2  3  1  0
  3  4  1  0
  4  5  1  0
  5  6  2  0
  5  7  1  0
  7  8  1  0
  8  9  1  0
  9 10  1  0
 10 11  1  0
 11 12  1  0
 12 13  1  0
 13 14  1  0
 14 15  2  0
 15 16  1  0
 16 17  2  0
  2 18  1  0
 18 19  2  0
 19 20  1  0
 20 21  2  0
 21 22  1  0
 22 23  2  0
 23 24  1  0
 24 25  2  0
 25 26  1  0
 26 27  2  0
 11  7  1  0
 17 13  1  0
 27 18  1  0
 26 21  1  0
  3 28  1  0
  4 29  1  0
  4 30  1  0
  8 31  1  0
  8 32  1  0
  9 33  1  0
  9 34  1  0
 10 35  1  0
 10 36  1  0
 11 37  1  1
 12 38  1  0
 12 39  1  0
 14 40  1  0
 15 41  1  0
 16 42  1  0
 19 43  1  0
 20 44  1  0
 22 45  1  0
 23 46  1  0
 24 47  1  0
 25 48  1  0
M  END
>  <smiles>  (30) 
O=C(NCC(=O)N1CCC[C@H]1Cn1cccn1)c1ccc2ccccc2n1

>  <score_type>  (30) 
oracle

>  <origin>  (30) 
autodockgpu

>  <m_score__min__energy>  (30) 
-8.4000000000000004

>  <m_primary>  (30) 
energy

>  <rmsd>  (30) 
1.7583972830767298

>  <m_score__min__rmsd>  (30) 
1.7583972830767298

>  <meeko>  (30) 
{"free_energy": -8.16, "intermolecular_energy": -9.95, "internal_energy": -1.55, "cluster_size": 26, "cluster_id": 1, "rank_in_cluster": 11}

>  <energy>  (30) 
-8.07

>  <cluster_rmsd>  (30) 
0.0

>  <cluster>  (30) 
3

$$$$

     RDKit          3D

 48 51  0  0  0  0  0  0  0  0999 V2000
  138.7120   75.5050  221.7510 O   0  0  0  0  0  0  0  0  0  0  0  0
  139.9000   75.9280  221.8300 C   0  0  0  0  0  0  0  0  0  0  0  0
  141.0160   75.1340  221.4230 N   0  0  0  0  0  0  0  0  0  0  0  0
  140.7430   73.8100  220.9070 C   0  0  0  0  0  0  0  0  0  0  0  0
  141.8870   72.9050  221.2350 C   0  0  0  0  0  0  0  0  0  0  0  0
  141.7180   71.8900  221.9710 O   0  0  0  0  0  0  0  0  0  0  0  0
  143.1980   73.1440  220.7390 N   0  0  0  0  0  0  0  0  0  0  0  0
  144.1590   72.0750  220.5340 C   0  0  0  0  0  0  0  0  0  0  0  0
  145.5010   72.6800  220.3090 C   0  0  0  0  0  0  0  0  0  0  0  0
  145.3050   74.1470  220.6040 C   0  0  0  0  0  0  0  0  0  0  0  0
  143.8580   74.3520  220.3530 C   0  0  1  0  0  0  0  0  0  0  0  0
  143.4870   74.8910  219.0120 C   0  0  0  0  0  0  0  0  0  0  0  0
  143.0200   76.2400  218.9870 N   0  0  0  0  0  0  0  0  0  0  0  0
  143.0960   77.0290  217.8770 C   0  0  0  0  0  0  0  0  0  0  0  0
  142.5630   78.2570  218.1890 C   0  0  0  0  0  0  0  0  0  0  0  0
  142.1740   78.1720  219.5030 C   0  0  0  0  0  0  0  0  0  0  0  0
  142.4540   76.9630  219.9620 N   0  0  0  0  0  0  0  0  0  0  0  0
  140.1480   77.2690  222.3540 C   0  0  0  0  0  0  0  0  0  0  0  0
  139.0960   78.0790  222.7280 C   0  0  0  0  0  0  0  0  0  0  0  0
  139.2930   79.3530  223.2260 C   0  0  0  0  0  0  0  0  0  0  0  0
  140.5950   79.8230  223.3510 C   0  0  0  0  0  0  0  0  0  0  0  0
  140.8820   81.0820  223.8400 C   0  0  0  0  0  0  0  0  0  0  0  0
  142.1930   81.5030  223.9460 C   0  0  0  0  0  0  0  0  0  0  0  0
  143.2200   80.6650  223.5620 C   0  0  0  0  0  0  0  0  0  0  0  0
  142.9590   79.4000  223.0700 C   0  0  0  0  0  0  0  0  0  0  0  0
  141.6400   79.0030  222.9750 C   0  0  0  0  0  0  0  0  0  0  0  0
  141.3890   77.7700  222.4940 N   0  0  0  0  0  0  0  0  0  0  0  0
  141.9620   75.5480  221.5170 H   0  0  0  0  0  0  0  0  0  0  0  0
  139.8226   73.4196  221.3658 H   0  0  0  0  0  0  0  0  0  0  0  0
  140.6143   73.8597  219.8157 H   0  0  0  0  0  0  0  0  0  0  0  0
  144.1885   71.4276  221.4228 H   0  0  0  0  0  0  0  0  0  0  0  0
  143.8683   71.4701  219.6625 H   0  0  0  0  0  0  0  0  0  0  0  0
  146.2449   72.2418  220.9907 H   0  0  0  0  0  0  0  0  0  0  0  0
  145.8753   72.5034  219.2898 H   0  0  0  0  0  0  0  0  0  0  0  0
  145.5607   74.3770  221.6489 H   0  0  0  0  0  0  0  0  0  0  0  0
  145.9458   74.7996  219.9928 H   0  0  0  0  0  0  0  0  0  0  0  0
  143.5008   75.1888  220.9711 H   0  0  0  0  0  0  0  0  0  0  0  0
  144.3762   74.8307  218.3673 H   0  0  0  0  0  0  0  0  0  0  0  0
  142.6404   74.2777  218.6697 H   0  0  0  0  0  0  0  0  0  0  0  0
  143.5114   76.7340  216.9021 H   0  0  0  0  0  0  0  0  0  0  0  0
  142.4678   79.1277  217.5236 H   0  0  0  0  0  0  0  0  0  0  0  0
  141.7042   78.9806  220.0822 H   0  0  0  0  0  0  0  0  0  0  0  0
  138.0686   77.6992  222.6267 H   0  0  0  0  0  0  0  0  0  0  0  0
  138.4382   79.9812  223.5170 H   0  0  0  0  0  0  0  0  0  0  0  0
  140.0644   81.7513  224.1459 H   0  0  0  0  0  0  0  0  0  0  0  0
  142.4186   82.5063  224.3365 H   0  0  0  0  0  0  0  0  0  0  0  0
  144.2613   81.0087  223.6487 H   0  0  0  0  0  0  0  0  0  0  0  0
  143.7764   78.7306  222.7638 H   0  0  0  0  0  0  0  0  0  0  0  0
  1  2  2  0
  2  3  1  0
  3  4  1  0
  4  5  1  0
  5  6  2  0
  5  7  1  0
  7  8  1  0
  8  9  1  0
  9 10  1  0
 10 11  1  0
 11 12  1  0
 12 13  1  0
 13 14  1  0
 14 15  2  0
 15 16  1  0
 16 17  2  0
  2 18  1  0
 18 19  2  0
 19 20  1  0
 20 21  2  0
 21 22  1  0
 22 23  2  0
 23 24  1  0
 24 25  2  0
 25 26  1  0
 26 27  2  0
 11  7  1  0
 17 13  1  0
 27 18  1  0
 26 21  1  0
  3 28  1  0
  4 29  1  0
  4 30  1  0
  8 31  1  0
  8 32  1  0
  9 33  1  0
  9 34  1  0
 10 35  1  0
 10 36  1  0
 11 37  1  1
 12 38  1  0
 12 39  1  0
 14 40  1  0
 15 41  1  0
 16 42  1  0
 19 43  1  0
 20 44  1  0
 22 45  1  0
 23 46  1  0
 24 47  1  0
 25 48  1  0
M  END
>  <smiles>  (31) 
O=C(NCC(=O)N1CCC[C@H]1Cn1cccn1)c1ccc2ccccc2n1

>  <score_type>  (31) 
oracle

>  <origin>  (31) 
autodockgpu

>  <m_score__min__energy>  (31) 
-8.4000000000000004

>  <m_primary>  (31) 
energy

>  <rmsd>  (31) 
7.470839978770663

>  <m_score__min__rmsd>  (31) 
7.470839978770663

>  <meeko>  (31) 
{"free_energy": -7.07, "intermolecular_energy": -8.86, "internal_energy": -2.78, "cluster_size": 7, "cluster_id": 4, "rank_in_cluster": 1}

>  <energy>  (31) 
-7.98

>  <cluster_rmsd>  (31) 
0.98

>  <cluster>  (31) 
3

$$$$

     RDKit          3D

 48 51  0  0  0  0  0  0  0  0999 V2000
  141.2400   72.0970  221.7200 O   0  0  0  0  0  0  0  0  0  0  0  0
  140.2950   72.3040  222.5340 C   0  0  0  0  0  0  0  0  0  0  0  0
  139.3260   73.3310  222.3240 N   0  0  0  0  0  0  0  0  0  0  0  0
  139.4560   74.1420  221.1330 C   0  0  0  0  0  0  0  0  0  0  0  0
  140.2480   75.3700  221.4540 C   0  0  0  0  0  0  0  0  0  0  0  0
  141.4790   75.2900  221.7340 O   0  0  0  0  0  0  0  0  0  0  0  0
  139.6570   76.6630  221.4580 N   0  0  0  0  0  0  0  0  0  0  0  0
  138.2400   76.8710  221.2150 C   0  0  0  0  0  0  0  0  0  0  0  0
  138.0070   78.3230  220.9840 C   0  0  0  0  0  0  0  0  0  0  0  0
  139.3920   78.9170  220.8960 C   0  0  0  0  0  0  0  0  0  0  0  0
  140.2190   77.9600  221.6710 C   0  0  1  0  0  0  0  0  0  0  0  0
  140.4940   78.3200  223.0920 C   0  0  0  0  0  0  0  0  0  0  0  0
  141.3850   79.4150  223.3000 N   0  0  0  0  0  0  0  0  0  0  0  0
  142.7110   79.3600  222.9860 C   0  0  0  0  0  0  0  0  0  0  0  0
  143.2760   80.5720  223.3070 C   0  0  0  0  0  0  0  0  0  0  0  0
  142.2560   81.3370  223.8150 C   0  0  0  0  0  0  0  0  0  0  0  0
  141.1360   80.6310  223.8040 N   0  0  0  0  0  0  0  0  0  0  0  0
  140.1860   71.4690  223.7290 C   0  0  0  0  0  0  0  0  0  0  0  0
  139.5660   70.2390  223.6680 C   0  0  0  0  0  0  0  0  0  0  0  0
  139.4430   69.4240  224.7770 C   0  0  0  0  0  0  0  0  0  0  0  0
  139.9640   69.8680  225.9870 C   0  0  0  0  0  0  0  0  0  0  0  0
  139.8870   69.1180  227.1440 C   0  0  0  0  0  0  0  0  0  0  0  0
  140.4190   69.6030  228.3220 C   0  0  0  0  0  0  0  0  0  0  0  0
  141.0320   70.8400  228.3460 C   0  0  0  0  0  0  0  0  0  0  0  0
  141.1240   71.6090  227.2010 C   0  0  0  0  0  0  0  0  0  0  0  0
  140.5830   71.1010  226.0360 C   0  0  0  0  0  0  0  0  0  0  0  0
  140.6730   71.8540  224.9230 N   0  0  0  0  0  0  0  0  0  0  0  0
  138.5780   73.4410  223.0340 H   0  0  0  0  0  0  0  0  0  0  0  0
  139.9723   73.5660  220.3509 H   0  0  0  0  0  0  0  0  0  0  0  0
  138.4574   74.4314  220.7739 H   0  0  0  0  0  0  0  0  0  0  0  0
  137.9281   76.2997  220.3282 H   0  0  0  0  0  0  0  0  0  0  0  0
  137.6555   76.5294  222.0820 H   0  0  0  0  0  0  0  0  0  0  0  0
  137.4543   78.4841  220.0467 H   0  0  0  0  0  0  0  0  0  0  0  0
  137.4039   78.7825  221.7809 H   0  0  0  0  0  0  0  0  0  0  0  0
  139.7308   78.9755  219.8511 H   0  0  0  0  0  0  0  0  0  0  0  0
  139.4463   79.9458  221.2814 H   0  0  0  0  0  0  0  0  0  0  0  0
  141.2513   77.9880  221.2921 H   0  0  0  0  0  0  0  0  0  0  0  0
  139.5344   78.5724  223.5667 H   0  0  0  0  0  0  0  0  0  0  0  0
  140.9957   77.4433  223.5276 H   0  0  0  0  0  0  0  0  0  0  0  0
  143.2368   78.4969  222.5518 H   0  0  0  0  0  0  0  0  0  0  0  0
  144.3282   80.8674  223.1824 H   0  0  0  0  0  0  0  0  0  0  0  0
  142.3535   82.3721  224.1742 H   0  0  0  0  0  0  0  0  0  0  0  0
  139.1565   69.8958  222.7065 H   0  0  0  0  0  0  0  0  0  0  0  0
  138.9442   68.4463  224.7041 H   0  0  0  0  0  0  0  0  0  0  0  0
  139.4005   68.1316  227.1269 H   0  0  0  0  0  0  0  0  0  0  0  0
  140.3545   69.0036  229.2421 H   0  0  0  0  0  0  0  0  0  0  0  0
  141.4529   71.2187  229.2891 H   0  0  0  0  0  0  0  0  0  0  0  0
  141.6126   72.5944  227.2171 H   0  0  0  0  0  0  0  0  0  0  0  0
  1  2  2  0
  2  3  1  0
  3  4  1  0
  4  5  1  0
  5  6  2  0
  5  7  1  0
  7  8  1  0
  8  9  1  0
  9 10  1  0
 10 11  1  0
 11 12  1  0
 12 13  1  0
 13 14  1  0
 14 15  2  0
 15 16  1  0
 16 17  2  0
  2 18  1  0
 18 19  2  0
 19 20  1  0
 20 21  2  0
 21 22  1  0
 22 23  2  0
 23 24  1  0
 24 25  2  0
 25 26  1  0
 26 27  2  0
 11  7  1  0
 17 13  1  0
 27 18  1  0
 26 21  1  0
  3 28  1  0
  4 29  1  0
  4 30  1  0
  8 31  1  0
  8 32  1  0
  9 33  1  0
  9 34  1  0
 10 35  1  0
 10 36  1  0
 11 37  1  6
 12 38  1  0
 12 39  1  0
 14 40  1  0
 15 41  1  0
 16 42  1  0
 19 43  1  0
 20 44  1  0
 22 45  1  0
 23 46  1  0
 24 47  1  0
 25 48  1  0
M  END
>  <smiles>  (32) 
O=C(NCC(=O)N1CCC[C@H]1Cn1cccn1)c1ccc2ccccc2n1

>  <score_type>  (32) 
oracle

>  <origin>  (32) 
autodockgpu

>  <m_score__min__energy>  (32) 
-8.4000000000000004

>  <m_primary>  (32) 
energy

>  <rmsd>  (32) 
2.3639863000511796

>  <m_score__min__rmsd>  (32) 
2.3639863000511796

>  <meeko>  (32) 
{"free_energy": -8.15, "intermolecular_energy": -9.94, "internal_energy": -1.18, "cluster_size": 26, "cluster_id": 1, "rank_in_cluster": 12}

>  <energy>  (32) 
-7.92

>  <cluster_rmsd>  (32) 
0.89

>  <cluster>  (32) 
3

$$$$

     RDKit          3D

 48 51  0  0  0  0  0  0  0  0999 V2000
  140.8490   71.4560  221.3130 O   0  0  0  0  0  0  0  0  0  0  0  0
  140.3810   72.0710  222.3130 C   0  0  0  0  0  0  0  0  0  0  0  0
  139.9950   73.4440  222.2460 N   0  0  0  0  0  0  0  0  0  0  0  0
  140.1560   74.1240  220.9790 C   0  0  0  0  0  0  0  0  0  0  0  0
  140.6830   75.5030  221.2190 C   0  0  0  0  0  0  0  0  0  0  0  0
  140.5920   76.0390  222.3610 O   0  0  0  0  0  0  0  0  0  0  0  0
  141.3010   76.2590  220.1860 N   0  0  0  0  0  0  0  0  0  0  0  0
  140.9330   77.6350  219.9040 C   0  0  0  0  0  0  0  0  0  0  0  0
  141.5310   78.0270  218.5980 C   0  0  0  0  0  0  0  0  0  0  0  0
  142.0880   76.7410  218.0380 C   0  0  0  0  0  0  0  0  0  0  0  0
  142.3290   75.9220  219.2510 C   0  0  1  0  0  0  0  0  0  0  0  0
  143.7200   75.9260  219.7890 C   0  0  0  0  0  0  0  0  0  0  0  0
  144.2230   74.6660  220.2340 N   0  0  0  0  0  0  0  0  0  0  0  0
  143.4500   73.5460  220.3110 C   0  0  0  0  0  0  0  0  0  0  0  0
  144.2360   72.5150  220.7710 C   0  0  0  0  0  0  0  0  0  0  0  0
  145.4840   73.0550  220.9610 C   0  0  0  0  0  0  0  0  0  0  0  0
  145.4580   74.3370  220.6360 N   0  0  0  0  0  0  0  0  0  0  0  0
  140.2290   71.3610  223.5820 C   0  0  0  0  0  0  0  0  0  0  0  0
  139.5970   70.1360  223.6250 C   0  0  0  0  0  0  0  0  0  0  0  0
  139.4340   69.4370  224.8070 C   0  0  0  0  0  0  0  0  0  0  0  0
  139.9260   69.9940  225.9810 C   0  0  0  0  0  0  0  0  0  0  0  0
  139.8080   69.3650  227.2040 C   0  0  0  0  0  0  0  0  0  0  0  0
  140.3130   69.9600  228.3430 C   0  0  0  0  0  0  0  0  0  0  0  0
  140.9390   71.1870  228.2610 C   0  0  0  0  0  0  0  0  0  0  0  0
  141.0710   71.8380  227.0480 C   0  0  0  0  0  0  0  0  0  0  0  0
  140.5570   71.2210  225.9250 C   0  0  0  0  0  0  0  0  0  0  0  0
  140.6870   71.8590  224.7450 N   0  0  0  0  0  0  0  0  0  0  0  0
  139.6190   73.8830  223.1070 H   0  0  0  0  0  0  0  0  0  0  0  0
  140.8641   73.5648  220.3497 H   0  0  0  0  0  0  0  0  0  0  0  0
  139.1834   74.1859  220.4689 H   0  0  0  0  0  0  0  0  0  0  0  0
  139.8378   77.7227  219.8516 H   0  0  0  0  0  0  0  0  0  0  0  0
  141.3048   78.2951  220.7015 H   0  0  0  0  0  0  0  0  0  0  0  0
  140.7641   78.4431  217.9282 H   0  0  0  0  0  0  0  0  0  0  0  0
  142.3011   78.8049  218.7066 H   0  0  0  0  0  0  0  0  0  0  0  0
  141.3619   76.2538  217.3705 H   0  0  0  0  0  0  0  0  0  0  0  0
  142.9927   76.8902  217.4304 H   0  0  0  0  0  0  0  0  0  0  0  0
  142.2599   74.8567  218.9857 H   0  0  0  0  0  0  0  0  0  0  0  0
  144.3868   76.2930  218.9949 H   0  0  0  0  0  0  0  0  0  0  0  0
  143.6900   76.5657  220.6833 H   0  0  0  0  0  0  0  0  0  0  0  0
  142.3834   73.4783  220.0507 H   0  0  0  0  0  0  0  0  0  0  0  0
  143.9285   71.4741  220.9495 H   0  0  0  0  0  0  0  0  0  0  0  0
  146.3659   72.5081  221.3258 H   0  0  0  0  0  0  0  0  0  0  0  0
  139.2109   69.7019  222.6909 H   0  0  0  0  0  0  0  0  0  0  0  0
  138.9260   68.4614  224.8176 H   0  0  0  0  0  0  0  0  0  0  0  0
  139.3100   68.3865  227.2714 H   0  0  0  0  0  0  0  0  0  0  0  0
  140.2163   69.4559  229.3159 H   0  0  0  0  0  0  0  0  0  0  0  0
  141.3386   71.6539  229.1733 H   0  0  0  0  0  0  0  0  0  0  0  0
  141.5696   72.8162  226.9801 H   0  0  0  0  0  0  0  0  0  0  0  0
  1  2  2  0
  2  3  1  0
  3  4  1  0
  4  5  1  0
  5  6  2  0
  5  7  1  0
  7  8  1  0
  8  9  1  0
  9 10  1  0
 10 11  1  0
 11 12  1  0
 12 13  1  0
 13 14  1  0
 14 15  2  0
 15 16  1  0
 16 17  2  0
  2 18  1  0
 18 19  2  0
 19 20  1  0
 20 21  2  0
 21 22  1  0
 22 23  2  0
 23 24  1  0
 24 25  2  0
 25 26  1  0
 26 27  2  0
 11  7  1  0
 17 13  1  0
 27 18  1  0
 26 21  1  0
  3 28  1  0
  4 29  1  0
  4 30  1  0
  8 31  1  0
  8 32  1  0
  9 33  1  0
  9 34  1  0
 10 35  1  0
 10 36  1  0
 11 37  1  6
 12 38  1  0
 12 39  1  0
 14 40  1  0
 15 41  1  0
 16 42  1  0
 19 43  1  0
 20 44  1  0
 22 45  1  0
 23 46  1  0
 24 47  1  0
 25 48  1  0
M  END
>  <smiles>  (33) 
O=C(NCC(=O)N1CCC[C@H]1Cn1cccn1)c1ccc2ccccc2n1

>  <score_type>  (33) 
oracle

>  <origin>  (33) 
autodockgpu

>  <m_score__min__energy>  (33) 
-8.4000000000000004

>  <m_primary>  (33) 
energy

>  <rmsd>  (33) 
3.509369268459772

>  <m_score__min__rmsd>  (33) 
3.509369268459772

>  <meeko>  (33) 
{"free_energy": -7.88, "intermolecular_energy": -9.67, "internal_energy": -1.85, "cluster_size": 12, "cluster_id": 3, "rank_in_cluster": 8}

>  <energy>  (33) 
-7.9

>  <cluster_rmsd>  (33) 
0.93

>  <cluster>  (33) 
3

$$$$

     RDKit          3D

 48 51  0  0  0  0  0  0  0  0999 V2000
  141.0190   71.6620  221.4290 O   0  0  0  0  0  0  0  0  0  0  0  0
  140.3430   72.1540  222.3760 C   0  0  0  0  0  0  0  0  0  0  0  0
  139.6980   73.4230  222.2660 N   0  0  0  0  0  0  0  0  0  0  0  0
  139.8420   74.1430  221.0190 C   0  0  0  0  0  0  0  0  0  0  0  0
  140.5500   75.4360  221.2720 C   0  0  0  0  0  0  0  0  0  0  0  0
  140.6100   75.9220  222.4380 O   0  0  0  0  0  0  0  0  0  0  0  0
  141.1790   76.1630  220.2250 N   0  0  0  0  0  0  0  0  0  0  0  0
  140.9120   75.8940  218.8230 C   0  0  0  0  0  0  0  0  0  0  0  0
  141.9360   76.5970  218.0020 C   0  0  0  0  0  0  0  0  0  0  0  0
  142.9340   77.1150  219.0090 C   0  0  0  0  0  0  0  0  0  0  0  0
  142.1320   77.2280  220.2520 C   0  0  1  0  0  0  0  0  0  0  0  0
  141.5830   78.5790  220.5660 C   0  0  0  0  0  0  0  0  0  0  0  0
  141.8030   79.0500  221.8950 N   0  0  0  0  0  0  0  0  0  0  0  0
  142.5190   80.1770  222.1720 C   0  0  0  0  0  0  0  0  0  0  0  0
  142.5370   80.3470  223.5370 C   0  0  0  0  0  0  0  0  0  0  0  0
  141.8180   79.2970  224.0530 C   0  0  0  0  0  0  0  0  0  0  0  0
  141.3890   78.5350  223.0610 N   0  0  0  0  0  0  0  0  0  0  0  0
  140.2120   71.4060  223.6250 C   0  0  0  0  0  0  0  0  0  0  0  0
  139.5880   70.1770  223.6420 C   0  0  0  0  0  0  0  0  0  0  0  0
  139.4450   69.4430  224.8040 C   0  0  0  0  0  0  0  0  0  0  0  0
  139.9510   69.9690  225.9880 C   0  0  0  0  0  0  0  0  0  0  0  0
  139.8530   69.3030  227.1930 C   0  0  0  0  0  0  0  0  0  0  0  0
  140.3710   69.8680  228.3420 C   0  0  0  0  0  0  0  0  0  0  0  0
  140.9890   71.1010  228.2870 C   0  0  0  0  0  0  0  0  0  0  0  0
  141.1010   71.7870  227.0920 C   0  0  0  0  0  0  0  0  0  0  0  0
  140.5740   71.2000  225.9590 C   0  0  0  0  0  0  0  0  0  0  0  0
  140.6840   71.8730  224.7960 N   0  0  0  0  0  0  0  0  0  0  0  0
  139.1590   73.7630  223.0850 H   0  0  0  0  0  0  0  0  0  0  0  0
  140.4259   73.5371  220.3105 H   0  0  0  0  0  0  0  0  0  0  0  0
  138.8478   74.3450  220.5939 H   0  0  0  0  0  0  0  0  0  0  0  0
  140.9665   74.8113  218.6363 H   0  0  0  0  0  0  0  0  0  0  0  0
  139.9062   76.2509  218.5564 H   0  0  0  0  0  0  0  0  0  0  0  0
  142.4174   75.9003  217.3000 H   0  0  0  0  0  0  0  0  0  0  0  0
  141.5023   77.4014  217.3897 H   0  0  0  0  0  0  0  0  0  0  0  0
  143.7664   76.4078  219.1393 H   0  0  0  0  0  0  0  0  0  0  0  0
  143.3987   78.0652  218.7070 H   0  0  0  0  0  0  0  0  0  0  0  0
  142.7966   77.1144  221.1211 H   0  0  0  0  0  0  0  0  0  0  0  0
  142.0435   79.2988  219.8733 H   0  0  0  0  0  0  0  0  0  0  0  0
  140.4919   78.4877  220.4604 H   0  0  0  0  0  0  0  0  0  0  0  0
  142.9986   80.8354  221.4328 H   0  0  0  0  0  0  0  0  0  0  0  0
  143.0261   81.1564  224.0988 H   0  0  0  0  0  0  0  0  0  0  0  0
  141.6289   79.1182  225.1218 H   0  0  0  0  0  0  0  0  0  0  0  0
  139.1915   69.7678  222.7011 H   0  0  0  0  0  0  0  0  0  0  0  0
  138.9423   68.4647  224.7929 H   0  0  0  0  0  0  0  0  0  0  0  0
  139.3613   68.3201  227.2383 H   0  0  0  0  0  0  0  0  0  0  0  0
  140.2910   69.3353  229.3011 H   0  0  0  0  0  0  0  0  0  0  0  0
  141.3981   71.5440  229.2070 H   0  0  0  0  0  0  0  0  0  0  0  0
  141.5942   72.7691  227.0454 H   0  0  0  0  0  0  0  0  0  0  0  0
  1  2  2  0
  2  3  1  0
  3  4  1  0
  4  5  1  0
  5  6  2  0
  5  7  1  0
  7  8  1  0
  8  9  1  0
  9 10  1  0
 10 11  1  0
 11 12  1  0
 12 13  1  0
 13 14  1  0
 14 15  2  0
 15 16  1  0
 16 17  2  0
  2 18  1  0
 18 19  2  0
 19 20  1  0
 20 21  2  0
 21 22  1  0
 22 23  2  0
 23 24  1  0
 24 25  2  0
 25 26  1  0
 26 27  2  0
 11  7  1  0
 17 13  1  0
 27 18  1  0
 26 21  1  0
  3 28  1  0
  4 29  1  0
  4 30  1  0
  8 31  1  0
  8 32  1  0
  9 33  1  0
  9 34  1  0
 10 35  1  0
 10 36  1  0
 11 37  1  1
 12 38  1  0
 12 39  1  0
 14 40  1  0
 15 41  1  0
 16 42  1  0
 19 43  1  0
 20 44  1  0
 22 45  1  0
 23 46  1  0
 24 47  1  0
 25 48  1  0
M  END
>  <smiles>  (34) 
O=C(NCC(=O)N1CCC[C@H]1Cn1cccn1)c1ccc2ccccc2n1

>  <score_type>  (34) 
oracle

>  <origin>  (34) 
autodockgpu

>  <m_score__min__energy>  (34) 
-8.4000000000000004

>  <m_primary>  (34) 
energy

>  <rmsd>  (34) 
1.9721861449185156

>  <m_score__min__rmsd>  (34) 
1.9721861449185156

>  <meeko>  (34) 
{"free_energy": -8.31, "intermolecular_energy": -10.1, "internal_energy": -1.37, "cluster_size": 26, "cluster_id": 1, "rank_in_cluster": 2}

>  <energy>  (34) 
-7.9

>  <cluster_rmsd>  (34) 
1.03

>  <cluster>  (34) 
3

$$$$

     RDKit          3D

 48 51  0  0  0  0  0  0  0  0999 V2000
  141.2660   72.0690  221.6430 O   0  0  0  0  0  0  0  0  0  0  0  0
  140.3850   72.3580  222.5010 C   0  0  0  0  0  0  0  0  0  0  0  0
  139.5190   73.4830  222.3490 N   0  0  0  0  0  0  0  0  0  0  0  0
  139.6810   74.2980  221.1640 C   0  0  0  0  0  0  0  0  0  0  0  0
  139.0710   75.6430  221.4010 C   0  0  0  0  0  0  0  0  0  0  0  0
  137.8820   75.7480  221.8210 O   0  0  0  0  0  0  0  0  0  0  0  0
  139.7930   76.8450  221.1670 N   0  0  0  0  0  0  0  0  0  0  0  0
  139.2860   77.9010  220.3090 C   0  0  0  0  0  0  0  0  0  0  0  0
  140.3920   78.8600  220.0340 C   0  0  0  0  0  0  0  0  0  0  0  0
  141.6200   78.1910  220.6040 C   0  0  0  0  0  0  0  0  0  0  0  0
  141.0620   77.2950  221.6470 C   0  0  1  0  0  0  0  0  0  0  0  0
  141.0770   77.8140  223.0450 C   0  0  0  0  0  0  0  0  0  0  0  0
  141.6000   79.1310  223.2180 N   0  0  0  0  0  0  0  0  0  0  0  0
  140.8100   80.2130  223.4750 C   0  0  0  0  0  0  0  0  0  0  0  0
  141.6220   81.3170  223.5860 C   0  0  0  0  0  0  0  0  0  0  0  0
  142.9020   80.8600  223.3910 C   0  0  0  0  0  0  0  0  0  0  0  0
  142.8700   79.5560  223.1720 N   0  0  0  0  0  0  0  0  0  0  0  0
  140.2420   71.5180  223.6890 C   0  0  0  0  0  0  0  0  0  0  0  0
  139.6420   70.2790  223.6010 C   0  0  0  0  0  0  0  0  0  0  0  0
  139.4890   69.4590  224.7030 C   0  0  0  0  0  0  0  0  0  0  0  0
  139.9570   69.9060  225.9330 C   0  0  0  0  0  0  0  0  0  0  0  0
  139.8470   69.1520  227.0840 C   0  0  0  0  0  0  0  0  0  0  0  0
  140.3280   69.6390  228.2830 C   0  0  0  0  0  0  0  0  0  0  0  0
  140.9230   70.8840  228.3320 C   0  0  0  0  0  0  0  0  0  0  0  0
  141.0470   71.6580  227.1940 C   0  0  0  0  0  0  0  0  0  0  0  0
  140.5570   71.1470  226.0090 C   0  0  0  0  0  0  0  0  0  0  0  0
  140.6780   71.9050  224.9010 N   0  0  0  0  0  0  0  0  0  0  0  0
  138.8190   73.6570  223.0940 H   0  0  0  0  0  0  0  0  0  0  0  0
  140.7520   74.4144  220.9419 H   0  0  0  0  0  0  0  0  0  0  0  0
  139.1823   73.8125  220.3122 H   0  0  0  0  0  0  0  0  0  0  0  0
  138.9255   77.4696  219.3635 H   0  0  0  0  0  0  0  0  0  0  0  0
  138.4520   78.4202  220.8038 H   0  0  0  0  0  0  0  0  0  0  0  0
  140.5049   79.0240  218.9522 H   0  0  0  0  0  0  0  0  0  0  0  0
  140.2092   79.8494  220.4786 H   0  0  0  0  0  0  0  0  0  0  0  0
  142.1504   77.6151  219.8313 H   0  0  0  0  0  0  0  0  0  0  0  0
  142.3581   78.9054  220.9976 H   0  0  0  0  0  0  0  0  0  0  0  0
  141.7373   76.4375  221.7833 H   0  0  0  0  0  0  0  0  0  0  0  0
  140.0414   77.8117  223.4160 H   0  0  0  0  0  0  0  0  0  0  0  0
  141.7556   77.1501  223.6006 H   0  0  0  0  0  0  0  0  0  0  0  0
  139.7147   80.2038  223.5758 H   0  0  0  0  0  0  0  0  0  0  0  0
  141.3106   82.3523  223.7890 H   0  0  0  0  0  0  0  0  0  0  0  0
  143.8102   81.4802  223.4134 H   0  0  0  0  0  0  0  0  0  0  0  0
  139.2740   69.9330  222.6238 H   0  0  0  0  0  0  0  0  0  0  0  0
  139.0075   68.4745  224.6087 H   0  0  0  0  0  0  0  0  0  0  0  0
  139.3744   68.1595  227.0458 H   0  0  0  0  0  0  0  0  0  0  0  0
  140.2373   69.0358  229.1984 H   0  0  0  0  0  0  0  0  0  0  0  0
  141.3039   71.2653  229.2909 H   0  0  0  0  0  0  0  0  0  0  0  0
  141.5211   72.6499  227.2312 H   0  0  0  0  0  0  0  0  0  0  0  0
  1  2  2  0
  2  3  1  0
  3  4  1  0
  4  5  1  0
  5  6  2  0
  5  7  1  0
  7  8  1  0
  8  9  1  0
  9 10  1  0
 10 11  1  0
 11 12  1  0
 12 13  1  0
 13 14  1  0
 14 15  2  0
 15 16  1  0
 16 17  2  0
  2 18  1  0
 18 19  2  0
 19 20  1  0
 20 21  2  0
 21 22  1  0
 22 23  2  0
 23 24  1  0
 24 25  2  0
 25 26  1  0
 26 27  2  0
 11  7  1  0
 17 13  1  0
 27 18  1  0
 26 21  1  0
  3 28  1  0
  4 29  1  0
  4 30  1  0
  8 31  1  0
  8 32  1  0
  9 33  1  0
  9 34  1  0
 10 35  1  0
 10 36  1  0
 11 37  1  1
 12 38  1  0
 12 39  1  0
 14 40  1  0
 15 41  1  0
 16 42  1  0
 19 43  1  0
 20 44  1  0
 22 45  1  0
 23 46  1  0
 24 47  1  0
 25 48  1  0
M  END
>  <smiles>  (35) 
O=C(NCC(=O)N1CCC[C@H]1Cn1cccn1)c1ccc2ccccc2n1

>  <score_type>  (35) 
oracle

>  <origin>  (35) 
autodockgpu

>  <m_score__min__energy>  (35) 
-8.4000000000000004

>  <m_primary>  (35) 
energy

>  <rmsd>  (35) 
2.198158930859507

>  <m_score__min__rmsd>  (35) 
2.198158930859507

>  <meeko>  (35) 
{"free_energy": -8.06, "intermolecular_energy": -9.85, "internal_energy": -1.42, "cluster_size": 26, "cluster_id": 1, "rank_in_cluster": 16}

>  <energy>  (35) 
-7.9

>  <cluster_rmsd>  (35) 
0.84

>  <cluster>  (35) 
3

$$$$

     RDKit          3D

 48 51  0  0  0  0  0  0  0  0999 V2000
  140.3310   71.0310  221.2700 O   0  0  0  0  0  0  0  0  0  0  0  0
  140.0530   71.6680  222.3250 C   0  0  0  0  0  0  0  0  0  0  0  0
  139.8020   73.0740  222.3180 N   0  0  0  0  0  0  0  0  0  0  0  0
  139.8750   73.7610  221.0470 C   0  0  0  0  0  0  0  0  0  0  0  0
  140.2950   75.1780  221.2730 C   0  0  0  0  0  0  0  0  0  0  0  0
  139.9920   75.7790  222.3440 O   0  0  0  0  0  0  0  0  0  0  0  0
  141.0440   75.9010  220.3050 N   0  0  0  0  0  0  0  0  0  0  0  0
  140.9050   75.6650  218.8790 C   0  0  0  0  0  0  0  0  0  0  0  0
  142.0250   76.3470  218.1740 C   0  0  0  0  0  0  0  0  0  0  0  0
  142.9380   76.8130  219.2820 C   0  0  0  0  0  0  0  0  0  0  0  0
  142.0250   76.9330  220.4440 C   0  0  1  0  0  0  0  0  0  0  0  0
  141.4920   78.2960  220.7320 C   0  0  0  0  0  0  0  0  0  0  0  0
  141.7290   78.7960  222.0480 N   0  0  0  0  0  0  0  0  0  0  0  0
  142.4110   79.9520  222.2890 C   0  0  0  0  0  0  0  0  0  0  0  0
  142.4590   80.1440  223.6500 C   0  0  0  0  0  0  0  0  0  0  0  0
  141.7930   79.0770  224.2000 C   0  0  0  0  0  0  0  0  0  0  0  0
  141.3660   78.2840  223.2310 N   0  0  0  0  0  0  0  0  0  0  0  0
  139.9850   70.9500  223.5970 C   0  0  0  0  0  0  0  0  0  0  0  0
  139.4840   69.6660  223.6480 C   0  0  0  0  0  0  0  0  0  0  0  0
  139.4030   68.9580  224.8320 C   0  0  0  0  0  0  0  0  0  0  0  0
  139.8440   69.5660  226.0020 C   0  0  0  0  0  0  0  0  0  0  0  0
  139.8010   68.9320  227.2270 C   0  0  0  0  0  0  0  0  0  0  0  0
  140.2500   69.5790  228.3600 C   0  0  0  0  0  0  0  0  0  0  0  0
  140.7450   70.8650  228.2700 C   0  0  0  0  0  0  0  0  0  0  0  0
  140.7990   71.5220  227.0560 C   0  0  0  0  0  0  0  0  0  0  0  0
  140.3440   70.8520  225.9380 C   0  0  0  0  0  0  0  0  0  0  0  0
  140.3970   71.4960  224.7550 N   0  0  0  0  0  0  0  0  0  0  0  0
  139.5800   73.5290  223.2230 H   0  0  0  0  0  0  0  0  0  0  0  0
  140.6095   73.2591  220.4000 H   0  0  0  0  0  0  0  0  0  0  0  0
  138.8880   73.7428  220.5618 H   0  0  0  0  0  0  0  0  0  0  0  0
  140.9428   74.5844  218.6767 H   0  0  0  0  0  0  0  0  0  0  0  0
  139.9415   76.0600  218.5246 H   0  0  0  0  0  0  0  0  0  0  0  0
  142.5488   75.6467  217.5067 H   0  0  0  0  0  0  0  0  0  0  0  0
  141.6782   77.1763  217.5399 H   0  0  0  0  0  0  0  0  0  0  0  0
  143.7302   76.0752  219.4771 H   0  0  0  0  0  0  0  0  0  0  0  0
  143.4607   77.7514  219.0449 H   0  0  0  0  0  0  0  0  0  0  0  0
  142.6000   76.7829  221.3697 H   0  0  0  0  0  0  0  0  0  0  0  0
  141.9526   78.9951  220.0185 H   0  0  0  0  0  0  0  0  0  0  0  0
  140.3991   78.2125  220.6391 H   0  0  0  0  0  0  0  0  0  0  0  0
  142.8468   80.6154  221.5275 H   0  0  0  0  0  0  0  0  0  0  0  0
  142.9328   80.9793  224.1865 H   0  0  0  0  0  0  0  0  0  0  0  0
  141.6388   78.9082  225.2760 H   0  0  0  0  0  0  0  0  0  0  0  0
  139.1384   69.1911  222.7179 H   0  0  0  0  0  0  0  0  0  0  0  0
  138.9983   67.9353  224.8484 H   0  0  0  0  0  0  0  0  0  0  0  0
  139.4075   67.9074  227.3005 H   0  0  0  0  0  0  0  0  0  0  0  0
  140.2137   69.0705  229.3347 H   0  0  0  0  0  0  0  0  0  0  0  0
  141.1014   71.3735  229.1780 H   0  0  0  0  0  0  0  0  0  0  0  0
  141.1921   72.5467  226.9825 H   0  0  0  0  0  0  0  0  0  0  0  0
  1  2  2  0
  2  3  1  0
  3  4  1  0
  4  5  1  0
  5  6  2  0
  5  7  1  0
  7  8  1  0
  8  9  1  0
  9 10  1  0
 10 11  1  0
 11 12  1  0
 12 13  1  0
 13 14  1  0
 14 15  2  0
 15 16  1  0
 16 17  2  0
  2 18  1  0
 18 19  2  0
 19 20  1  0
 20 21  2  0
 21 22  1  0
 22 23  2  0
 23 24  1  0
 24 25  2  0
 25 26  1  0
 26 27  2  0
 11  7  1  0
 17 13  1  0
 27 18  1  0
 26 21  1  0
  3 28  1  0
  4 29  1  0
  4 30  1  0
  8 31  1  0
  8 32  1  0
  9 33  1  0
  9 34  1  0
 10 35  1  0
 10 36  1  0
 11 37  1  1
 12 38  1  0
 12 39  1  0
 14 40  1  0
 15 41  1  0
 16 42  1  0
 19 43  1  0
 20 44  1  0
 22 45  1  0
 23 46  1  0
 24 47  1  0
 25 48  1  0
M  END
>  <smiles>  (36) 
O=C(NCC(=O)N1CCC[C@H]1Cn1cccn1)c1ccc2ccccc2n1

>  <score_type>  (36) 
oracle

>  <origin>  (36) 
autodockgpu

>  <m_score__min__energy>  (36) 
-8.4000000000000004

>  <m_primary>  (36) 
energy

>  <rmsd>  (36) 
1.9101742214163688

>  <m_score__min__rmsd>  (36) 
1.9101742214163688

>  <meeko>  (36) 
{"free_energy": -8.12, "intermolecular_energy": -9.91, "internal_energy": -1.62, "cluster_size": 26, "cluster_id": 1, "rank_in_cluster": 13}

>  <energy>  (36) 
-7.89

>  <cluster_rmsd>  (36) 
0.92

>  <cluster>  (36) 
3

$$$$

     RDKit          3D

 48 51  0  0  0  0  0  0  0  0999 V2000
  140.4150   71.3520  221.2590 O   0  0  0  0  0  0  0  0  0  0  0  0
  140.1230   71.9700  222.3210 C   0  0  0  0  0  0  0  0  0  0  0  0
  139.8110   73.3640  222.3260 N   0  0  0  0  0  0  0  0  0  0  0  0
  139.8370   74.0610  221.0580 C   0  0  0  0  0  0  0  0  0  0  0  0
  140.3990   75.4320  221.2580 C   0  0  0  0  0  0  0  0  0  0  0  0
  140.2560   76.0350  222.3610 O   0  0  0  0  0  0  0  0  0  0  0  0
  141.1100   76.1070  220.2290 N   0  0  0  0  0  0  0  0  0  0  0  0
  140.9500   75.7730  218.8250 C   0  0  0  0  0  0  0  0  0  0  0  0
  142.0380   76.4340  218.0530 C   0  0  0  0  0  0  0  0  0  0  0  0
  142.9600   76.9960  219.1090 C   0  0  0  0  0  0  0  0  0  0  0  0
  142.0650   77.1700  220.2790 C   0  0  1  0  0  0  0  0  0  0  0  0
  141.5030   78.5360  220.4870 C   0  0  0  0  0  0  0  0  0  0  0  0
  141.8310   79.1660  221.7250 N   0  0  0  0  0  0  0  0  0  0  0  0
  141.4370   78.6740  222.9340 C   0  0  0  0  0  0  0  0  0  0  0  0
  141.9170   79.5120  223.9130 C   0  0  0  0  0  0  0  0  0  0  0  0
  142.5990   80.5040  223.2540 C   0  0  0  0  0  0  0  0  0  0  0  0
  142.5370   80.2820  221.9510 N   0  0  0  0  0  0  0  0  0  0  0  0
  140.1040   71.2430  223.5890 C   0  0  0  0  0  0  0  0  0  0  0  0
  139.5990   69.9600  223.6510 C   0  0  0  0  0  0  0  0  0  0  0  0
  139.5640   69.2430  224.8320 C   0  0  0  0  0  0  0  0  0  0  0  0
  140.0550   69.8410  225.9870 C   0  0  0  0  0  0  0  0  0  0  0  0
  140.0590   69.1970  227.2080 C   0  0  0  0  0  0  0  0  0  0  0  0
  140.5570   69.8340  228.3270 C   0  0  0  0  0  0  0  0  0  0  0  0
  141.0540   71.1180  228.2270 C   0  0  0  0  0  0  0  0  0  0  0  0
  141.0620   71.7850  227.0160 C   0  0  0  0  0  0  0  0  0  0  0  0
  140.5580   71.1250  225.9120 C   0  0  0  0  0  0  0  0  0  0  0  0
  140.5660   71.7780  224.7340 N   0  0  0  0  0  0  0  0  0  0  0  0
  139.5810   73.8030  223.2370 H   0  0  0  0  0  0  0  0  0  0  0  0
  140.4666   73.5062  220.3468 H   0  0  0  0  0  0  0  0  0  0  0  0
  138.8149   74.1369  220.6587 H   0  0  0  0  0  0  0  0  0  0  0  0
  141.0122   74.6826  218.6940 H   0  0  0  0  0  0  0  0  0  0  0  0
  139.9699   76.1195  218.4654 H   0  0  0  0  0  0  0  0  0  0  0  0
  142.5671   75.7039  217.4229 H   0  0  0  0  0  0  0  0  0  0  0  0
  141.6574   77.2101  217.3726 H   0  0  0  0  0  0  0  0  0  0  0  0
  143.7750   76.2930  219.3363 H   0  0  0  0  0  0  0  0  0  0  0  0
  143.4537   77.9291  218.7997 H   0  0  0  0  0  0  0  0  0  0  0  0
  142.6598   77.0958  221.2014 H   0  0  0  0  0  0  0  0  0  0  0  0
  141.8718   79.1789  219.6742 H   0  0  0  0  0  0  0  0  0  0  0  0
  140.4105   78.4083  220.4997 H   0  0  0  0  0  0  0  0  0  0  0  0
  140.8393   77.7652  223.0978 H   0  0  0  0  0  0  0  0  0  0  0  0
  141.7822   79.4086  224.9998 H   0  0  0  0  0  0  0  0  0  0  0  0
  143.1151   81.3492  223.7328 H   0  0  0  0  0  0  0  0  0  0  0  0
  139.2126   69.4940  222.7325 H   0  0  0  0  0  0  0  0  0  0  0  0
  139.1566   68.2215  224.8575 H   0  0  0  0  0  0  0  0  0  0  0  0
  139.6643   68.1735  227.2896 H   0  0  0  0  0  0  0  0  0  0  0  0
  140.5578   69.3182  229.2986 H   0  0  0  0  0  0  0  0  0  0  0  0
  141.4493   71.6176  229.1237 H   0  0  0  0  0  0  0  0  0  0  0  0
  141.4570   72.8084  226.9342 H   0  0  0  0  0  0  0  0  0  0  0  0
  1  2  2  0
  2  3  1  0
  3  4  1  0
  4  5  1  0
  5  6  2  0
  5  7  1  0
  7  8  1  0
  8  9  1  0
  9 10  1  0
 10 11  1  0
 11 12  1  0
 12 13  1  0
 13 14  1  0
 14 15  2  0
 15 16  1  0
 16 17  2  0
  2 18  1  0
 18 19  2  0
 19 20  1  0
 20 21  2  0
 21 22  1  0
 22 23  2  0
 23 24  1  0
 24 25  2  0
 25 26  1  0
 26 27  2  0
 11  7  1  0
 17 13  1  0
 27 18  1  0
 26 21  1  0
  3 28  1  0
  4 29  1  0
  4 30  1  0
  8 31  1  0
  8 32  1  0
  9 33  1  0
  9 34  1  0
 10 35  1  0
 10 36  1  0
 11 37  1  1
 12 38  1  0
 12 39  1  0
 14 40  1  0
 15 41  1  0
 16 42  1  0
 19 43  1  0
 20 44  1  0
 22 45  1  0
 23 46  1  0
 24 47  1  0
 25 48  1  0
M  END
>  <smiles>  (37) 
O=C(NCC(=O)N1CCC[C@H]1Cn1cccn1)c1ccc2ccccc2n1

>  <score_type>  (37) 
oracle

>  <origin>  (37) 
autodockgpu

>  <m_score__min__energy>  (37) 
-8.4000000000000004

>  <m_primary>  (37) 
energy

>  <rmsd>  (37) 
1.7477715442899557

>  <m_score__min__rmsd>  (37) 
1.7477715442899557

>  <meeko>  (37) 
{"free_energy": -8.18, "intermolecular_energy": -9.97, "internal_energy": -1.6, "cluster_size": 26, "cluster_id": 1, "rank_in_cluster": 9}

>  <energy>  (37) 
-7.88

>  <cluster_rmsd>  (37) 
0.86

>  <cluster>  (37) 
3

$$$$

     RDKit          3D

 48 51  0  0  0  0  0  0  0  0999 V2000
  141.0470   72.7570  222.0770 O   0  0  0  0  0  0  0  0  0  0  0  0
  139.9700   72.5230  222.6940 C   0  0  0  0  0  0  0  0  0  0  0  0
  138.7400   73.1550  222.3410 N   0  0  0  0  0  0  0  0  0  0  0  0
  138.7600   74.0890  221.2350 C   0  0  0  0  0  0  0  0  0  0  0  0
  139.7070   75.2040  221.5450 C   0  0  0  0  0  0  0  0  0  0  0  0
  139.6440   75.8170  222.6490 O   0  0  0  0  0  0  0  0  0  0  0  0
  140.7070   75.6160  220.6220 N   0  0  0  0  0  0  0  0  0  0  0  0
  140.7720   75.1020  219.2660 C   0  0  0  0  0  0  0  0  0  0  0  0
  142.0840   75.4870  218.6750 C   0  0  0  0  0  0  0  0  0  0  0  0
  142.8600   76.0690  219.8320 C   0  0  0  0  0  0  0  0  0  0  0  0
  141.7950   76.5350  220.7530 C   0  0  1  0  0  0  0  0  0  0  0  0
  141.4340   77.9800  220.6730 C   0  0  0  0  0  0  0  0  0  0  0  0
  141.7090   78.7590  221.8360 N   0  0  0  0  0  0  0  0  0  0  0  0
  141.3970   78.3430  223.0970 C   0  0  0  0  0  0  0  0  0  0  0  0
  141.7950   79.3200  223.9790 C   0  0  0  0  0  0  0  0  0  0  0  0
  142.3450   80.3150  223.2110 C   0  0  0  0  0  0  0  0  0  0  0  0
  142.2850   79.9640  221.9370 N   0  0  0  0  0  0  0  0  0  0  0  0
  139.9760   71.5750  223.8080 C   0  0  0  0  0  0  0  0  0  0  0  0
  139.4710   70.3030  223.6450 C   0  0  0  0  0  0  0  0  0  0  0  0
  139.4600   69.3820  224.6760 C   0  0  0  0  0  0  0  0  0  0  0  0
  139.9770   69.7590  225.9100 C   0  0  0  0  0  0  0  0  0  0  0  0
  140.0060   68.9030  226.9920 C   0  0  0  0  0  0  0  0  0  0  0  0
  140.5300   69.3250  228.1980 C   0  0  0  0  0  0  0  0  0  0  0  0
  141.0270   70.6070  228.3230 C   0  0  0  0  0  0  0  0  0  0  0  0
  141.0100   71.4830  227.2540 C   0  0  0  0  0  0  0  0  0  0  0  0
  140.4800   71.0360  226.0600 C   0  0  0  0  0  0  0  0  0  0  0  0
  140.4650   71.8930  225.0210 N   0  0  0  0  0  0  0  0  0  0  0  0
  137.8960   72.9130  222.8930 H   0  0  0  0  0  0  0  0  0  0  0  0
  139.0893   73.5705  220.3225 H   0  0  0  0  0  0  0  0  0  0  0  0
  137.7502   74.4965  221.0793 H   0  0  0  0  0  0  0  0  0  0  0  0
  140.6791   74.0060  219.2801 H   0  0  0  0  0  0  0  0  0  0  0  0
  139.9514   75.5211  218.6652 H   0  0  0  0  0  0  0  0  0  0  0  0
  142.5994   74.6063  218.2642 H   0  0  0  0  0  0  0  0  0  0  0  0
  141.9767   76.1975  217.8421 H   0  0  0  0  0  0  0  0  0  0  0  0
  143.4884   75.3034  220.3106 H   0  0  0  0  0  0  0  0  0  0  0  0
  143.5501   76.8703  219.5294 H   0  0  0  0  0  0  0  0  0  0  0  0
  142.1780   76.5188  221.7840 H   0  0  0  0  0  0  0  0  0  0  0  0
  141.9920   78.4202  219.8335 H   0  0  0  0  0  0  0  0  0  0  0  0
  140.3412   78.0061  220.5504 H   0  0  0  0  0  0  0  0  0  0  0  0
  140.9118   77.3921  223.3621 H   0  0  0  0  0  0  0  0  0  0  0  0
  141.6934   79.3066  225.0742 H   0  0  0  0  0  0  0  0  0  0  0  0
  142.7686   81.2552  223.5938 H   0  0  0  0  0  0  0  0  0  0  0  0
  139.0645   70.0119  222.6652 H   0  0  0  0  0  0  0  0  0  0  0  0
  139.0509   68.3724  224.5231 H   0  0  0  0  0  0  0  0  0  0  0  0
  139.6105   67.8813  226.8936 H   0  0  0  0  0  0  0  0  0  0  0  0
  140.5514   68.6401  229.0585 H   0  0  0  0  0  0  0  0  0  0  0  0
  141.4424   70.9359  229.2870 H   0  0  0  0  0  0  0  0  0  0  0  0
  141.4064   72.5045  227.3515 H   0  0  0  0  0  0  0  0  0  0  0  0
  1  2  2  0
  2  3  1  0
  3  4  1  0
  4  5  1  0
  5  6  2  0
  5  7  1  0
  7  8  1  0
  8  9  1  0
  9 10  1  0
 10 11  1  0
 11 12  1  0
 12 13  1  0
 13 14  1  0
 14 15  2  0
 15 16  1  0
 16 17  2  0
  2 18  1  0
 18 19  2  0
 19 20  1  0
 20 21  2  0
 21 22  1  0
 22 23  2  0
 23 24  1  0
 24 25  2  0
 25 26  1  0
 26 27  2  0
 11  7  1  0
 17 13  1  0
 27 18  1  0
 26 21  1  0
  3 28  1  0
  4 29  1  0
  4 30  1  0
  8 31  1  0
  8 32  1  0
  9 33  1  0
  9 34  1  0
 10 35  1  0
 10 36  1  0
 11 37  1  1
 12 38  1  0
 12 39  1  0
 14 40  1  0
 15 41  1  0
 16 42  1  0
 19 43  1  0
 20 44  1  0
 22 45  1  0
 23 46  1  0
 24 47  1  0
 25 48  1  0
M  END
>  <smiles>  (38) 
O=C(NCC(=O)N1CCC[C@H]1Cn1cccn1)c1ccc2ccccc2n1

>  <score_type>  (38) 
oracle

>  <origin>  (38) 
autodockgpu

>  <m_score__min__energy>  (38) 
-8.4000000000000004

>  <m_primary>  (38) 
energy

>  <rmsd>  (38) 
1.7868713659039326

>  <m_score__min__rmsd>  (38) 
1.7868713659039326

>  <meeko>  (38) 
{"free_energy": -7.99, "intermolecular_energy": -9.78, "internal_energy": -1.37, "cluster_size": 26, "cluster_id": 1, "rank_in_cluster": 19}

>  <energy>  (38) 
-7.72

>  <cluster_rmsd>  (38) 
0.93

>  <cluster>  (38) 
3

$$$$

     RDKit          3D

 48 51  0  0  0  0  0  0  0  0999 V2000
  141.1730   71.3890  221.4090 O   0  0  0  0  0  0  0  0  0  0  0  0
  140.6240   72.0030  222.3680 C   0  0  0  0  0  0  0  0  0  0  0  0
  140.2690   73.3830  222.2800 N   0  0  0  0  0  0  0  0  0  0  0  0
  140.5590   74.0720  221.0410 C   0  0  0  0  0  0  0  0  0  0  0  0
  140.7130   75.5350  221.3110 C   0  0  0  0  0  0  0  0  0  0  0  0
  140.2370   76.0510  222.3640 O   0  0  0  0  0  0  0  0  0  0  0  0
  141.3930   76.3960  220.4080 N   0  0  0  0  0  0  0  0  0  0  0  0
  141.2250   77.8390  220.4340 C   0  0  0  0  0  0  0  0  0  0  0  0
  141.8170   78.4080  219.1920 C   0  0  0  0  0  0  0  0  0  0  0  0
  142.1490   77.2010  218.3480 C   0  0  0  0  0  0  0  0  0  0  0  0
  142.3160   76.1220  219.3520 C   0  0  1  0  0  0  0  0  0  0  0  0
  143.7130   75.8210  219.7760 C   0  0  0  0  0  0  0  0  0  0  0  0
  143.9900   74.4580  220.0970 N   0  0  0  0  0  0  0  0  0  0  0  0
  145.1030   74.0710  220.7840 C   0  0  0  0  0  0  0  0  0  0  0  0
  145.0640   72.7040  220.9260 C   0  0  0  0  0  0  0  0  0  0  0  0
  143.9060   72.2980  220.3090 C   0  0  0  0  0  0  0  0  0  0  0  0
  143.2800   73.3560  219.8200 N   0  0  0  0  0  0  0  0  0  0  0  0
  140.3420   71.2830  223.6090 C   0  0  0  0  0  0  0  0  0  0  0  0
  139.6620   70.0840  223.5820 C   0  0  0  0  0  0  0  0  0  0  0  0
  139.3770   69.3770  224.7350 C   0  0  0  0  0  0  0  0  0  0  0  0
  139.7930   69.8990  225.9540 C   0  0  0  0  0  0  0  0  0  0  0  0
  139.5520   69.2600  227.1530 C   0  0  0  0  0  0  0  0  0  0  0  0
  139.9850   69.8200  228.3380 C   0  0  0  0  0  0  0  0  0  0  0  0
  140.6630   71.0220  228.3260 C   0  0  0  0  0  0  0  0  0  0  0  0
  140.9180   71.6820  227.1390 C   0  0  0  0  0  0  0  0  0  0  0  0
  140.4730   71.1010  225.9680 C   0  0  0  0  0  0  0  0  0  0  0  0
  140.7230   71.7470  224.8130 N   0  0  0  0  0  0  0  0  0  0  0  0
  139.8220   73.8200  223.1080 H   0  0  0  0  0  0  0  0  0  0  0  0
  141.4918   73.6778  220.6114 H   0  0  0  0  0  0  0  0  0  0  0  0
  139.7341   73.9141  220.3307 H   0  0  0  0  0  0  0  0  0  0  0  0
  140.1543   78.0867  220.4815 H   0  0  0  0  0  0  0  0  0  0  0  0
  141.7274   78.2602  221.3173 H   0  0  0  0  0  0  0  0  0  0  0  0
  141.0926   79.0560  218.6768 H   0  0  0  0  0  0  0  0  0  0  0  0
  142.6990   79.0330  219.3957 H   0  0  0  0  0  0  0  0  0  0  0  0
  141.3296   76.9688  217.6518 H   0  0  0  0  0  0  0  0  0  0  0  0
  143.0391   77.3462  217.7182 H   0  0  0  0  0  0  0  0  0  0  0  0
  142.0752   75.1556  218.8851 H   0  0  0  0  0  0  0  0  0  0  0  0
  144.3845   76.1168  218.9565 H   0  0  0  0  0  0  0  0  0  0  0  0
  143.8669   76.3824  220.7093 H   0  0  0  0  0  0  0  0  0  0  0  0
  145.8942   74.7368  221.1592 H   0  0  0  0  0  0  0  0  0  0  0  0
  145.8064   72.0674  221.4295 H   0  0  0  0  0  0  0  0  0  0  0  0
  143.5548   71.2583  220.2334 H   0  0  0  0  0  0  0  0  0  0  0  0
  139.3363   69.6775  222.6131 H   0  0  0  0  0  0  0  0  0  0  0  0
  138.8329   68.4221  224.6888 H   0  0  0  0  0  0  0  0  0  0  0  0
  139.0130   68.3012  227.1645 H   0  0  0  0  0  0  0  0  0  0  0  0
  139.7897   69.3082  229.2919 H   0  0  0  0  0  0  0  0  0  0  0  0
  141.0053   71.4609  229.2748 H   0  0  0  0  0  0  0  0  0  0  0  0
  141.4584   72.6400  227.1273 H   0  0  0  0  0  0  0  0  0  0  0  0
  1  2  2  0
  2  3  1  0
  3  4  1  0
  4  5  1  0
  5  6  2  0
  5  7  1  0
  7  8  1  0
  8  9  1  0
  9 10  1  0
 10 11  1  0
 11 12  1  0
 12 13  1  0
 13 14  1  0
 14 15  2  0
 15 16  1  0
 16 17  2  0
  2 18  1  0
 18 19  2  0
 19 20  1  0
 20 21  2  0
 21 22  1  0
 22 23  2  0
 23 24  1  0
 24 25  2  0
 25 26  1  0
 26 27  2  0
 11  7  1  0
 17 13  1  0
 27 18  1  0
 26 21  1  0
  3 28  1  0
  4 29  1  0
  4 30  1  0
  8 31  1  0
  8 32  1  0
  9 33  1  0
  9 34  1  0
 10 35  1  0
 10 36  1  0
 11 37  1  6
 12 38  1  0
 12 39  1  0
 14 40  1  0
 15 41  1  0
 16 42  1  0
 19 43  1  0
 20 44  1  0
 22 45  1  0
 23 46  1  0
 24 47  1  0
 25 48  1  0
M  END
>  <smiles>  (39) 
O=C(NCC(=O)N1CCC[C@H]1Cn1cccn1)c1ccc2ccccc2n1

>  <score_type>  (39) 
oracle

>  <origin>  (39) 
autodockgpu

>  <m_score__min__energy>  (39) 
-8.4000000000000004

>  <m_primary>  (39) 
energy

>  <rmsd>  (39) 
3.676348660716957

>  <m_score__min__rmsd>  (39) 
3.676348660716957

>  <meeko>  (39) 
{"free_energy": -7.72, "intermolecular_energy": -9.51, "internal_energy": -1.94, "cluster_size": 12, "cluster_id": 3, "rank_in_cluster": 9}

>  <energy>  (39) 
-7.54

>  <cluster_rmsd>  (39) 
1.08

>  <cluster>  (39) 
3

$$$$

     RDKit          3D

 48 51  0  0  0  0  0  0  0  0999 V2000
  140.6840   71.3100  221.2680 O   0  0  0  0  0  0  0  0  0  0  0  0
  140.2610   71.9330  222.2830 C   0  0  0  0  0  0  0  0  0  0  0  0
  139.8600   73.3010  222.2200 N   0  0  0  0  0  0  0  0  0  0  0  0
  139.9510   73.9680  220.9390 C   0  0  0  0  0  0  0  0  0  0  0  0
  141.0930   74.9340  220.9620 C   0  0  0  0  0  0  0  0  0  0  0  0
  141.2130   75.7690  221.9050 O   0  0  0  0  0  0  0  0  0  0  0  0
  142.0790   74.9540  219.9390 N   0  0  0  0  0  0  0  0  0  0  0  0
  142.9720   76.0820  219.7420 C   0  0  0  0  0  0  0  0  0  0  0  0
  143.6550   75.9220  218.4290 C   0  0  0  0  0  0  0  0  0  0  0  0
  142.9550   74.7520  217.7810 C   0  0  0  0  0  0  0  0  0  0  0  0
  142.4250   73.9920  218.9400 C   0  0  1  0  0  0  0  0  0  0  0  0
  143.2480   72.8400  219.4090 C   0  0  0  0  0  0  0  0  0  0  0  0
  144.5620   73.1540  219.8660 N   0  0  0  0  0  0  0  0  0  0  0  0
  144.8310   73.5150  221.1540 C   0  0  0  0  0  0  0  0  0  0  0  0
  146.1830   73.7450  221.2590 C   0  0  0  0  0  0  0  0  0  0  0  0
  146.7000   73.5120  220.0080 C   0  0  0  0  0  0  0  0  0  0  0  0
  145.7200   73.1610  219.1920 N   0  0  0  0  0  0  0  0  0  0  0  0
  140.1790   71.2360  223.5660 C   0  0  0  0  0  0  0  0  0  0  0  0
  139.6150   69.9800  223.6440 C   0  0  0  0  0  0  0  0  0  0  0  0
  139.5190   69.2920  224.8390 C   0  0  0  0  0  0  0  0  0  0  0  0
  140.0090   69.8940  225.9920 C   0  0  0  0  0  0  0  0  0  0  0  0
  139.9550   69.2790  227.2270 C   0  0  0  0  0  0  0  0  0  0  0  0
  140.4560   69.9180  228.3430 C   0  0  0  0  0  0  0  0  0  0  0  0
  141.0130   71.1760  228.2270 C   0  0  0  0  0  0  0  0  0  0  0  0
  141.0800   71.8130  227.0020 C   0  0  0  0  0  0  0  0  0  0  0  0
  140.5720   71.1520  225.9020 C   0  0  0  0  0  0  0  0  0  0  0  0
  140.6380   71.7760  224.7100 N   0  0  0  0  0  0  0  0  0  0  0  0
  139.5240   73.7460  223.0940 H   0  0  0  0  0  0  0  0  0  0  0  0
  140.1171   73.2221  220.1478 H   0  0  0  0  0  0  0  0  0  0  0  0
  139.0149   74.5103  220.7397 H   0  0  0  0  0  0  0  0  0  0  0  0
  142.3940   77.0179  219.7477 H   0  0  0  0  0  0  0  0  0  0  0  0
  143.7162   76.1185  220.5512 H   0  0  0  0  0  0  0  0  0  0  0  0
  143.5419   76.8299  217.8184 H   0  0  0  0  0  0  0  0  0  0  0  0
  144.7369   75.7555  218.5370 H   0  0  0  0  0  0  0  0  0  0  0  0
  142.1395   75.0932  217.1264 H   0  0  0  0  0  0  0  0  0  0  0  0
  143.6179   74.1537  217.1386 H   0  0  0  0  0  0  0  0  0  0  0  0
  141.5282   73.4369  218.6277 H   0  0  0  0  0  0  0  0  0  0  0  0
  142.7098   72.3577  220.2383 H   0  0  0  0  0  0  0  0  0  0  0  0
  143.3870   72.1971  218.5273 H   0  0  0  0  0  0  0  0  0  0  0  0
  144.0951   73.6062  221.9665 H   0  0  0  0  0  0  0  0  0  0  0  0
  146.7360   74.0521  222.1589 H   0  0  0  0  0  0  0  0  0  0  0  0
  147.7602   73.6028  219.7292 H   0  0  0  0  0  0  0  0  0  0  0  0
  139.2295   69.5111  222.7267 H   0  0  0  0  0  0  0  0  0  0  0  0
  139.0651   68.2907  224.8767 H   0  0  0  0  0  0  0  0  0  0  0  0
  139.5114   68.2769  227.3217 H   0  0  0  0  0  0  0  0  0  0  0  0
  140.4115   69.4249  229.3253 H   0  0  0  0  0  0  0  0  0  0  0  0
  141.4090   71.6784  229.1219 H   0  0  0  0  0  0  0  0  0  0  0  0
  141.5241   72.8149  226.9069 H   0  0  0  0  0  0  0  0  0  0  0  0
  1  2  2  0
  2  3  1  0
  3  4  1  0
  4  5  1  0
  5  6  2  0
  5  7  1  0
  7  8  1  0
  8  9  1  0
  9 10  1  0
 10 11  1  0
 11 12  1  0
 12 13  1  0
 13 14  1  0
 14 15  2  0
 15 16  1  0
 16 17  2  0
  2 18  1  0
 18 19  2  0
 19 20  1  0
 20 21  2  0
 21 22  1  0
 22 23  2  0
 23 24  1  0
 24 25  2  0
 25 26  1  0
 26 27  2  0
 11  7  1  0
 17 13  1  0
 27 18  1  0
 26 21  1  0
  3 28  1  0
  4 29  1  0
  4 30  1  0
  8 31  1  0
  8 32  1  0
  9 33  1  0
  9 34  1  0
 10 35  1  0
 10 36  1  0
 11 37  1  6
 12 38  1  0
 12 39  1  0
 14 40  1  0
 15 41  1  0
 16 42  1  0
 19 43  1  0
 20 44  1  0
 22 45  1  0
 23 46  1  0
 24 47  1  0
 25 48  1  0
M  END
>  <smiles>  (40) 
O=C(NCC(=O)N1CCC[C@H]1Cn1cccn1)c1ccc2ccccc2n1

>  <score_type>  (40) 
oracle

>  <origin>  (40) 
autodockgpu

>  <m_score__min__energy>  (40) 
-8.4000000000000004

>  <m_primary>  (40) 
energy

>  <rmsd>  (40) 
3.85895667998657

>  <m_score__min__rmsd>  (40) 
3.85895667998657

>  <meeko>  (40) 
{"free_energy": -7.9, "intermolecular_energy": -9.69, "internal_energy": -1.8, "cluster_size": 12, "cluster_id": 3, "rank_in_cluster": 5}

>  <energy>  (40) 
-7.5

>  <cluster_rmsd>  (40) 
0.84

>  <cluster>  (40) 
3

$$$$

     RDKit          3D

 48 51  0  0  0  0  0  0  0  0999 V2000
  140.3970   70.9460  221.3940 O   0  0  0  0  0  0  0  0  0  0  0  0
  140.1800   71.5520  222.4820 C   0  0  0  0  0  0  0  0  0  0  0  0
  140.0550   72.9730  222.5450 N   0  0  0  0  0  0  0  0  0  0  0  0
  140.1860   73.7140  221.3090 C   0  0  0  0  0  0  0  0  0  0  0  0
  140.1050   75.1790  221.5970 C   0  0  0  0  0  0  0  0  0  0  0  0
  139.5770   75.5980  222.6680 O   0  0  0  0  0  0  0  0  0  0  0  0
  140.6110   76.1500  220.6910 N   0  0  0  0  0  0  0  0  0  0  0  0
  140.3690   76.0800  219.2610 C   0  0  0  0  0  0  0  0  0  0  0  0
  141.2730   77.0470  218.5790 C   0  0  0  0  0  0  0  0  0  0  0  0
  142.1990   77.5290  219.6700 C   0  0  0  0  0  0  0  0  0  0  0  0
  141.4030   77.3210  220.9040 C   0  0  1  0  0  0  0  0  0  0  0  0
  140.6720   78.5100  221.4300 C   0  0  0  0  0  0  0  0  0  0  0  0
  141.4240   79.3900  222.2650 N   0  0  0  0  0  0  0  0  0  0  0  0
  141.8280   79.0510  223.5230 C   0  0  0  0  0  0  0  0  0  0  0  0
  142.5260   80.1140  224.0470 C   0  0  0  0  0  0  0  0  0  0  0  0
  142.5230   81.0800  223.0710 C   0  0  0  0  0  0  0  0  0  0  0  0
  141.8620   80.6310  222.0170 N   0  0  0  0  0  0  0  0  0  0  0  0
  140.0520   70.7810  223.7170 C   0  0  0  0  0  0  0  0  0  0  0  0
  139.3770   69.5780  223.7220 C   0  0  0  0  0  0  0  0  0  0  0  0
  139.2360   68.8230  224.8710 C   0  0  0  0  0  0  0  0  0  0  0  0
  139.7940   69.2990  226.0520 C   0  0  0  0  0  0  0  0  0  0  0  0
  139.7010   68.6090  227.2440 C   0  0  0  0  0  0  0  0  0  0  0  0
  140.2720   69.1240  228.3900 C   0  0  0  0  0  0  0  0  0  0  0  0
  140.9400   70.3310  228.3470 C   0  0  0  0  0  0  0  0  0  0  0  0
  141.0480   71.0410  227.1660 C   0  0  0  0  0  0  0  0  0  0  0  0
  140.4670   70.5040  226.0340 C   0  0  0  0  0  0  0  0  0  0  0  0
  140.5740   71.1990  224.8840 N   0  0  0  0  0  0  0  0  0  0  0  0
  139.8770   73.4010  223.4730 H   0  0  0  0  0  0  0  0  0  0  0  0
  141.1564   73.4844  220.8446 H   0  0  0  0  0  0  0  0  0  0  0  0
  139.3752   73.4292  220.6223 H   0  0  0  0  0  0  0  0  0  0  0  0
  140.5750   75.0617  218.8996 H   0  0  0  0  0  0  0  0  0  0  0  0
  139.3197   76.3291  219.0445 H   0  0  0  0  0  0  0  0  0  0  0  0
  141.8404   76.5509  217.7778 H   0  0  0  0  0  0  0  0  0  0  0  0
  140.7223   77.8711  218.1020 H   0  0  0  0  0  0  0  0  0  0  0  0
  143.1249   76.9355  219.6927 H   0  0  0  0  0  0  0  0  0  0  0  0
  142.5209   78.5720  219.5341 H   0  0  0  0  0  0  0  0  0  0  0  0
  142.0867   77.1616  221.7508 H   0  0  0  0  0  0  0  0  0  0  0  0
  140.3109   79.0908  220.5685 H   0  0  0  0  0  0  0  0  0  0  0  0
  139.8728   78.1068  222.0692 H   0  0  0  0  0  0  0  0  0  0  0  0
  141.6302   78.0949  224.0297 H   0  0  0  0  0  0  0  0  0  0  0  0
  142.9906   80.1773  225.0421 H   0  0  0  0  0  0  0  0  0  0  0  0
  142.9953   82.0701  223.1528 H   0  0  0  0  0  0  0  0  0  0  0  0
  138.9379   69.2086  222.7835 H   0  0  0  0  0  0  0  0  0  0  0  0
  138.6939   67.8660  224.8515 H   0  0  0  0  0  0  0  0  0  0  0  0
  139.1704   67.6461  227.2805 H   0  0  0  0  0  0  0  0  0  0  0  0
  140.1947   68.5721  229.3384 H   0  0  0  0  0  0  0  0  0  0  0  0
  141.3927   70.7335  229.2652 H   0  0  0  0  0  0  0  0  0  0  0  0
  141.5798   72.0032  227.1289 H   0  0  0  0  0  0  0  0  0  0  0  0
  1  2  2  0
  2  3  1  0
  3  4  1  0
  4  5  1  0
  5  6  2  0
  5  7  1  0
  7  8  1  0
  8  9  1  0
  9 10  1  0
 10 11  1  0
 11 12  1  0
 12 13  1  0
 13 14  1  0
 14 15  2  0
 15 16  1  0
 16 17  2  0
  2 18  1  0
 18 19  2  0
 19 20  1  0
 20 21  2  0
 21 22  1  0
 22 23  2  0
 23 24  1  0
 24 25  2  0
 25 26  1  0
 26 27  2  0
 11  7  1  0
 17 13  1  0
 27 18  1  0
 26 21  1  0
  3 28  1  0
  4 29  1  0
  4 30  1  0
  8 31  1  0
  8 32  1  0
  9 33  1  0
  9 34  1  0
 10 35  1  0
 10 36  1  0
 11 37  1  1
 12 38  1  0
 12 39  1  0
 14 40  1  0
 15 41  1  0
 16 42  1  0
 19 43  1  0
 20 44  1  0
 22 45  1  0
 23 46  1  0
 24 47  1  0
 25 48  1  0
M  END
>  <smiles>  (41) 
O=C(NCC(=O)N1CCC[C@H]1Cn1cccn1)c1ccc2ccccc2n1

>  <score_type>  (41) 
oracle

>  <origin>  (41) 
autodockgpu

>  <m_score__min__energy>  (41) 
-8.4000000000000004

>  <m_primary>  (41) 
energy

>  <rmsd>  (41) 
1.6875220573120207

>  <m_score__min__rmsd>  (41) 
1.6875220573120207

>  <meeko>  (41) 
{"free_energy": -7.82, "intermolecular_energy": -9.61, "internal_energy": -1.67, "cluster_size": 26, "cluster_id": 1, "rank_in_cluster": 24}

>  <energy>  (41) 
-7.38

>  <cluster_rmsd>  (41) 
0.87

>  <cluster>  (41) 
3

$$$$

     RDKit          3D

 48 51  0  0  0  0  0  0  0  0999 V2000
  140.6570   71.3850  221.2920 O   0  0  0  0  0  0  0  0  0  0  0  0
  140.2490   72.0030  222.3160 C   0  0  0  0  0  0  0  0  0  0  0  0
  139.8890   73.3840  222.2750 N   0  0  0  0  0  0  0  0  0  0  0  0
  140.0040   74.0690  221.0060 C   0  0  0  0  0  0  0  0  0  0  0  0
  140.6180   75.4150  221.2230 C   0  0  0  0  0  0  0  0  0  0  0  0
  140.6160   75.9490  222.3700 O   0  0  0  0  0  0  0  0  0  0  0  0
  141.2230   76.1420  220.1620 N   0  0  0  0  0  0  0  0  0  0  0  0
  140.9890   75.8200  218.7660 C   0  0  0  0  0  0  0  0  0  0  0  0
  141.9880   76.5500  217.9360 C   0  0  0  0  0  0  0  0  0  0  0  0
  142.9460   77.1440  218.9400 C   0  0  0  0  0  0  0  0  0  0  0  0
  142.1230   77.2540  220.1690 C   0  0  1  0  0  0  0  0  0  0  0  0
  141.5050   78.5840  220.4380 C   0  0  0  0  0  0  0  0  0  0  0  0
  141.8450   79.1930  221.6830 N   0  0  0  0  0  0  0  0  0  0  0  0
  141.4590   78.6820  222.8870 C   0  0  0  0  0  0  0  0  0  0  0  0
  141.9500   79.5020  223.8760 C   0  0  0  0  0  0  0  0  0  0  0  0
  142.6310   80.5020  223.2270 C   0  0  0  0  0  0  0  0  0  0  0  0
  142.5580   80.3020  221.9210 N   0  0  0  0  0  0  0  0  0  0  0  0
  140.1420   71.2870  223.5870 C   0  0  0  0  0  0  0  0  0  0  0  0
  139.5520   70.0420  223.6390 C   0  0  0  0  0  0  0  0  0  0  0  0
  139.4330   69.3370  224.8220 C   0  0  0  0  0  0  0  0  0  0  0  0
  139.9260   69.9100  225.9890 C   0  0  0  0  0  0  0  0  0  0  0  0
  139.8490   69.2760  227.2130 C   0  0  0  0  0  0  0  0  0  0  0  0
  140.3540   69.8860  228.3440 C   0  0  0  0  0  0  0  0  0  0  0  0
  140.9390   71.1340  228.2520 C   0  0  0  0  0  0  0  0  0  0  0  0
  141.0280   71.7890  227.0390 C   0  0  0  0  0  0  0  0  0  0  0  0
  140.5150   71.1570  225.9230 C   0  0  0  0  0  0  0  0  0  0  0  0
  140.6040   71.7990  224.7420 N   0  0  0  0  0  0  0  0  0  0  0  0
  139.5630   73.8240  223.1560 H   0  0  0  0  0  0  0  0  0  0  0  0
  140.6393   73.4807  220.3275 H   0  0  0  0  0  0  0  0  0  0  0  0
  139.0054   74.1878  220.5604 H   0  0  0  0  0  0  0  0  0  0  0  0
  141.1000   74.7365  218.6119 H   0  0  0  0  0  0  0  0  0  0  0  0
  139.9704   76.1184  218.4771 H   0  0  0  0  0  0  0  0  0  0  0  0
  142.5119   75.8587  217.2595 H   0  0  0  0  0  0  0  0  0  0  0  0
  141.5236   77.3144  217.2957 H   0  0  0  0  0  0  0  0  0  0  0  0
  143.8093   76.4817  219.1013 H   0  0  0  0  0  0  0  0  0  0  0  0
  143.3687   78.1065  218.6161 H   0  0  0  0  0  0  0  0  0  0  0  0
  142.7812   77.1994  221.0486 H   0  0  0  0  0  0  0  0  0  0  0  0
  141.8146   79.2675  219.6337 H   0  0  0  0  0  0  0  0  0  0  0  0
  140.4210   78.4028  220.4835 H   0  0  0  0  0  0  0  0  0  0  0  0
  140.8595   77.7726  223.0404 H   0  0  0  0  0  0  0  0  0  0  0  0
  141.8233   79.3816  224.9620 H   0  0  0  0  0  0  0  0  0  0  0  0
  143.1544   81.3372  223.7154 H   0  0  0  0  0  0  0  0  0  0  0  0
  139.1643   69.5963  222.7111 H   0  0  0  0  0  0  0  0  0  0  0  0
  138.9588   68.3446  224.8398 H   0  0  0  0  0  0  0  0  0  0  0  0
  139.3839   68.2819  227.2874 H   0  0  0  0  0  0  0  0  0  0  0  0
  140.2905   69.3785  229.3178 H   0  0  0  0  0  0  0  0  0  0  0  0
  141.3397   71.6131  229.1575 H   0  0  0  0  0  0  0  0  0  0  0  0
  141.4930   72.7831  226.9641 H   0  0  0  0  0  0  0  0  0  0  0  0
  1  2  2  0
  2  3  1  0
  3  4  1  0
  4  5  1  0
  5  6  2  0
  5  7  1  0
  7  8  1  0
  8  9  1  0
  9 10  1  0
 10 11  1  0
 11 12  1  0
 12 13  1  0
 13 14  1  0
 14 15  2  0
 15 16  1  0
 16 17  2  0
  2 18  1  0
 18 19  2  0
 19 20  1  0
 20 21  2  0
 21 22  1  0
 22 23  2  0
 23 24  1  0
 24 25  2  0
 25 26  1  0
 26 27  2  0
 11  7  1  0
 17 13  1  0
 27 18  1  0
 26 21  1  0
  3 28  1  0
  4 29  1  0
  4 30  1  0
  8 31  1  0
  8 32  1  0
  9 33  1  0
  9 34  1  0
 10 35  1  0
 10 36  1  0
 11 37  1  1
 12 38  1  0
 12 39  1  0
 14 40  1  0
 15 41  1  0
 16 42  1  0
 19 43  1  0
 20 44  1  0
 22 45  1  0
 23 46  1  0
 24 47  1  0
 25 48  1  0
M  END
>  <smiles>  (42) 
O=C(NCC(=O)N1CCC[C@H]1Cn1cccn1)c1ccc2ccccc2n1

>  <score_type>  (42) 
oracle

>  <origin>  (42) 
autodockgpu

>  <m_score__min__energy>  (42) 
-8.4000000000000004

>  <m_primary>  (42) 
energy

>  <rmsd>  (42) 
1.772846860085021

>  <m_score__min__rmsd>  (42) 
1.772846860085021

>  <meeko>  (42) 
{"free_energy": -8.22, "intermolecular_energy": -10.01, "internal_energy": -1.56, "cluster_size": 26, "cluster_id": 1, "rank_in_cluster": 4}

>  <energy>  (42) 
-7.07

>  <cluster_rmsd>  (42) 
0.0

>  <cluster>  (42) 
4

$$$$

     RDKit          3D

 48 51  0  0  0  0  0  0  0  0999 V2000
  140.3300   71.3580  221.2600 O   0  0  0  0  0  0  0  0  0  0  0  0
  140.0640   71.9760  222.3290 C   0  0  0  0  0  0  0  0  0  0  0  0
  139.7660   73.3720  222.3430 N   0  0  0  0  0  0  0  0  0  0  0  0
  139.7760   74.0720  221.0770 C   0  0  0  0  0  0  0  0  0  0  0  0
  140.4230   75.4090  221.2540 C   0  0  0  0  0  0  0  0  0  0  0  0
  140.3470   76.0220  222.3580 O   0  0  0  0  0  0  0  0  0  0  0  0
  141.1420   76.0380  220.2020 N   0  0  0  0  0  0  0  0  0  0  0  0
  140.9460   75.6860  218.8070 C   0  0  0  0  0  0  0  0  0  0  0  0
  142.0460   76.2920  218.0060 C   0  0  0  0  0  0  0  0  0  0  0  0
  143.0060   76.8350  219.0360 C   0  0  0  0  0  0  0  0  0  0  0  0
  142.1380   77.0640  220.2180 C   0  0  1  0  0  0  0  0  0  0  0  0
  141.6320   78.4540  220.4100 C   0  0  0  0  0  0  0  0  0  0  0  0
  141.5330   78.9030  221.7610 N   0  0  0  0  0  0  0  0  0  0  0  0
  142.5760   79.4740  222.4300 C   0  0  0  0  0  0  0  0  0  0  0  0
  142.1490   79.7900  223.6980 C   0  0  0  0  0  0  0  0  0  0  0  0
  140.8360   79.3930  223.7580 C   0  0  0  0  0  0  0  0  0  0  0  0
  140.4860   78.8670  222.5960 N   0  0  0  0  0  0  0  0  0  0  0  0
  140.0610   71.2450  223.5950 C   0  0  0  0  0  0  0  0  0  0  0  0
  139.5830   69.9530  223.6550 C   0  0  0  0  0  0  0  0  0  0  0  0
  139.5640   69.2330  224.8340 C   0  0  0  0  0  0  0  0  0  0  0  0
  140.0440   69.8380  225.9900 C   0  0  0  0  0  0  0  0  0  0  0  0
  140.0620   69.1920  227.2090 C   0  0  0  0  0  0  0  0  0  0  0  0
  140.5480   69.8360  228.3300 C   0  0  0  0  0  0  0  0  0  0  0  0
  141.0190   71.1300  228.2320 C   0  0  0  0  0  0  0  0  0  0  0  0
  141.0120   71.7990  227.0220 C   0  0  0  0  0  0  0  0  0  0  0  0
  140.5200   71.1320  225.9180 C   0  0  0  0  0  0  0  0  0  0  0  0
  140.5140   71.7870  224.7410 N   0  0  0  0  0  0  0  0  0  0  0  0
  139.5580   73.8120  223.2590 H   0  0  0  0  0  0  0  0  0  0  0  0
  140.3414   73.4856  220.3378 H   0  0  0  0  0  0  0  0  0  0  0  0
  138.7431   74.2074  220.7237 H   0  0  0  0  0  0  0  0  0  0  0  0
  140.9647   74.5919  218.6945 H   0  0  0  0  0  0  0  0  0  0  0  0
  139.9738   76.0631  218.4568 H   0  0  0  0  0  0  0  0  0  0  0  0
  142.5360   75.5317  217.3800 H   0  0  0  0  0  0  0  0  0  0  0  0
  141.6840   77.0709  217.3189 H   0  0  0  0  0  0  0  0  0  0  0  0
  143.7968   76.1047  219.2624 H   0  0  0  0  0  0  0  0  0  0  0  0
  143.5301   77.7427  218.7023 H   0  0  0  0  0  0  0  0  0  0  0  0
  142.7450   76.9831  221.1318 H   0  0  0  0  0  0  0  0  0  0  0  0
  142.3114   79.1359  219.8777 H   0  0  0  0  0  0  0  0  0  0  0  0
  140.6025   78.4509  220.0225 H   0  0  0  0  0  0  0  0  0  0  0  0
  143.5834   79.6508  222.0252 H   0  0  0  0  0  0  0  0  0  0  0  0
  142.7372   80.2628  224.4983 H   0  0  0  0  0  0  0  0  0  0  0  0
  140.1789   79.4961  224.6341 H   0  0  0  0  0  0  0  0  0  0  0  0
  139.2052   69.4811  222.7360 H   0  0  0  0  0  0  0  0  0  0  0  0
  139.1775   68.2034  224.8575 H   0  0  0  0  0  0  0  0  0  0  0  0
  139.6880   68.1606  227.2883 H   0  0  0  0  0  0  0  0  0  0  0  0
  140.5598   69.3181  229.3004 H   0  0  0  0  0  0  0  0  0  0  0  0
  141.4053   71.6359  229.1291 H   0  0  0  0  0  0  0  0  0  0  0  0
  141.3866   72.8301  226.9416 H   0  0  0  0  0  0  0  0  0  0  0  0
  1  2  2  0
  2  3  1  0
  3  4  1  0
  4  5  1  0
  5  6  2  0
  5  7  1  0
  7  8  1  0
  8  9  1  0
  9 10  1  0
 10 11  1  0
 11 12  1  0
 12 13  1  0
 13 14  1  0
 14 15  2  0
 15 16  1  0
 16 17  2  0
  2 18  1  0
 18 19  2  0
 19 20  1  0
 20 21  2  0
 21 22  1  0
 22 23  2  0
 23 24  1  0
 24 25  2  0
 25 26  1  0
 26 27  2  0
 11  7  1  0
 17 13  1  0
 27 18  1  0
 26 21  1  0
  3 28  1  0
  4 29  1  0
  4 30  1  0
  8 31  1  0
  8 32  1  0
  9 33  1  0
  9 34  1  0
 10 35  1  0
 10 36  1  0
 11 37  1  1
 12 38  1  0
 12 39  1  0
 14 40  1  0
 15 41  1  0
 16 42  1  0
 19 43  1  0
 20 44  1  0
 22 45  1  0
 23 46  1  0
 24 47  1  0
 25 48  1  0
M  END
>  <smiles>  (43) 
O=C(NCC(=O)N1CCC[C@H]1Cn1cccn1)c1ccc2ccccc2n1

>  <score_type>  (43) 
oracle

>  <origin>  (43) 
autodockgpu

>  <m_score__min__energy>  (43) 
-8.4000000000000004

>  <m_primary>  (43) 
energy

>  <rmsd>  (43) 
1.8761575906198895

>  <m_score__min__rmsd>  (43) 
1.8761575906198895

>  <meeko>  (43) 
{"free_energy": -8.01, "intermolecular_energy": -9.8, "internal_energy": -1.63, "cluster_size": 26, "cluster_id": 1, "rank_in_cluster": 18}

>  <energy>  (43) 
-7.04

>  <cluster_rmsd>  (43) 
0.08

>  <cluster>  (43) 
4

$$$$

     RDKit          3D

 48 51  0  0  0  0  0  0  0  0999 V2000
  140.5190   73.9260  220.4130 O   0  0  0  0  0  0  0  0  0  0  0  0
  140.1490   74.7070  221.3340 C   0  0  0  0  0  0  0  0  0  0  0  0
  139.2120   74.3080  222.3350 N   0  0  0  0  0  0  0  0  0  0  0  0
  138.6900   72.9600  222.2650 C   0  0  0  0  0  0  0  0  0  0  0  0
  139.6370   72.0250  222.9480 C   0  0  0  0  0  0  0  0  0  0  0  0
  140.7810   72.4190  223.3160 O   0  0  0  0  0  0  0  0  0  0  0  0
  139.2940   70.6710  223.2110 N   0  0  0  0  0  0  0  0  0  0  0  0
  139.1730   69.6810  222.1560 C   0  0  0  0  0  0  0  0  0  0  0  0
  138.5140   68.4680  222.7160 C   0  0  0  0  0  0  0  0  0  0  0  0
  138.0690   68.8870  224.0960 C   0  0  0  0  0  0  0  0  0  0  0  0
  139.0050   69.9880  224.4330 C   0  0  1  0  0  0  0  0  0  0  0  0
  140.1880   69.6220  225.2650 C   0  0  0  0  0  0  0  0  0  0  0  0
  140.5770   70.5750  226.2530 N   0  0  0  0  0  0  0  0  0  0  0  0
  140.2060   70.4770  227.5620 C   0  0  0  0  0  0  0  0  0  0  0  0
  140.7460   71.5460  228.2390 C   0  0  0  0  0  0  0  0  0  0  0  0
  141.4390   72.2700  227.3010 C   0  0  0  0  0  0  0  0  0  0  0  0
  141.3270   71.6770  226.1240 N   0  0  0  0  0  0  0  0  0  0  0  0
  140.6920   76.0630  221.3830 C   0  0  0  0  0  0  0  0  0  0  0  0
  141.3170   76.6060  220.2800 C   0  0  0  0  0  0  0  0  0  0  0  0
  141.8430   77.8840  220.2900 C   0  0  0  0  0  0  0  0  0  0  0  0
  141.7330   78.6380  221.4520 C   0  0  0  0  0  0  0  0  0  0  0  0
  142.2290   79.9220  221.5500 C   0  0  0  0  0  0  0  0  0  0  0  0
  142.0950   80.6310  222.7270 C   0  0  0  0  0  0  0  0  0  0  0  0
  141.4640   80.0550  223.8110 C   0  0  0  0  0  0  0  0  0  0  0  0
  140.9580   78.7710  223.7390 C   0  0  0  0  0  0  0  0  0  0  0  0
  141.1050   78.0840  222.5500 C   0  0  0  0  0  0  0  0  0  0  0  0
  140.6110   76.8320  222.4840 N   0  0  0  0  0  0  0  0  0  0  0  0
  138.9550   75.0030  223.0600 H   0  0  0  0  0  0  0  0  0  0  0  0
  137.7104   72.9193  222.7637 H   0  0  0  0  0  0  0  0  0  0  0  0
  138.5766   72.6639  221.2117 H   0  0  0  0  0  0  0  0  0  0  0  0
  138.5647   70.0873  221.3345 H   0  0  0  0  0  0  0  0  0  0  0  0
  140.1690   69.4221  221.7675 H   0  0  0  0  0  0  0  0  0  0  0  0
  137.6506   68.1748  222.1007 H   0  0  0  0  0  0  0  0  0  0  0  0
  139.1862   67.5976  222.7381 H   0  0  0  0  0  0  0  0  0  0  0  0
  137.0284   69.2434  224.0839 H   0  0  0  0  0  0  0  0  0  0  0  0
  138.0902   68.0637  224.8252 H   0  0  0  0  0  0  0  0  0  0  0  0
  138.5143   70.6741  225.1390 H   0  0  0  0  0  0  0  0  0  0  0  0
  139.9578   68.6779  225.7804 H   0  0  0  0  0  0  0  0  0  0  0  0
  141.0343   69.5582  224.5652 H   0  0  0  0  0  0  0  0  0  0  0  0
  139.5839   69.6823  227.9997 H   0  0  0  0  0  0  0  0  0  0  0  0
  140.6436   71.7735  229.3103 H   0  0  0  0  0  0  0  0  0  0  0  0
  141.9987   73.1964  227.4971 H   0  0  0  0  0  0  0  0  0  0  0  0
  141.3994   76.0031  219.3637 H   0  0  0  0  0  0  0  0  0  0  0  0
  142.3378   78.2952  219.3978 H   0  0  0  0  0  0  0  0  0  0  0  0
  142.7329   80.3822  220.6873 H   0  0  0  0  0  0  0  0  0  0  0  0
  142.4910   81.6546  222.8009 H   0  0  0  0  0  0  0  0  0  0  0  0
  141.3624   80.6261  224.7456 H   0  0  0  0  0  0  0  0  0  0  0  0
  140.4540   78.3107  224.6016 H   0  0  0  0  0  0  0  0  0  0  0  0
  1  2  2  0
  2  3  1  0
  3  4  1  0
  4  5  1  0
  5  6  2  0
  5  7  1  0
  7  8  1  0
  8  9  1  0
  9 10  1  0
 10 11  1  0
 11 12  1  0
 12 13  1  0
 13 14  1  0
 14 15  2  0
 15 16  1  0
 16 17  2  0
  2 18  1  0
 18 19  2  0
 19 20  1  0
 20 21  2  0
 21 22  1  0
 22 23  2  0
 23 24  1  0
 24 25  2  0
 25 26  1  0
 26 27  2  0
 11  7  1  0
 17 13  1  0
 27 18  1  0
 26 21  1  0
  3 28  1  0
  4 29  1  0
  4 30  1  0
  8 31  1  0
  8 32  1  0
  9 33  1  0
  9 34  1  0
 10 35  1  0
 10 36  1  0
 11 37  1  1
 12 38  1  0
 12 39  1  0
 14 40  1  0
 15 41  1  0
 16 42  1  0
 19 43  1  0
 20 44  1  0
 22 45  1  0
 23 46  1  0
 24 47  1  0
 25 48  1  0
M  END
>  <smiles>  (44) 
O=C(NCC(=O)N1CCC[C@H]1Cn1cccn1)c1ccc2ccccc2n1

>  <score_type>  (44) 
oracle

>  <origin>  (44) 
autodockgpu

>  <m_score__min__energy>  (44) 
-8.4000000000000004

>  <m_primary>  (44) 
energy

>  <rmsd>  (44) 
8.660776506785071

>  <m_score__min__rmsd>  (44) 
8.660776506785071

>  <meeko>  (44) 
{"free_energy": -7.76, "intermolecular_energy": -9.55, "internal_energy": -1.57, "cluster_size": 3, "cluster_id": 2, "rank_in_cluster": 3}

>  <energy>  (44) 
-6.97

>  <cluster_rmsd>  (44) 
0.55

>  <cluster>  (44) 
4

$$$$

     RDKit          3D

 48 51  0  0  0  0  0  0  0  0999 V2000
  139.1600   71.0140  221.5030 O   0  0  0  0  0  0  0  0  0  0  0  0
  139.4210   71.5710  222.6070 C   0  0  0  0  0  0  0  0  0  0  0  0
  139.5690   72.9870  222.7250 N   0  0  0  0  0  0  0  0  0  0  0  0
  139.4070   73.7790  221.5250 C   0  0  0  0  0  0  0  0  0  0  0  0
  140.4210   74.8790  221.5160 C   0  0  0  0  0  0  0  0  0  0  0  0
  141.6570   74.6170  221.5690 O   0  0  0  0  0  0  0  0  0  0  0  0
  140.0420   76.2470  221.4490 N   0  0  0  0  0  0  0  0  0  0  0  0
  139.0840   76.8350  222.3680 C   0  0  0  0  0  0  0  0  0  0  0  0
  138.6840   78.1710  221.8460 C   0  0  0  0  0  0  0  0  0  0  0  0
  139.2990   78.2350  220.4690 C   0  0  0  0  0  0  0  0  0  0  0  0
  140.4450   77.2980  220.5670 C   0  0  1  0  0  0  0  0  0  0  0  0
  141.7770   77.9060  220.8510 C   0  0  0  0  0  0  0  0  0  0  0  0
  141.7990   78.9300  221.8450 N   0  0  0  0  0  0  0  0  0  0  0  0
  141.7930   78.6630  223.1820 C   0  0  0  0  0  0  0  0  0  0  0  0
  141.8210   79.8610  223.8560 C   0  0  0  0  0  0  0  0  0  0  0  0
  141.8430   80.8340  222.8870 C   0  0  0  0  0  0  0  0  0  0  0  0
  141.8290   80.2610  221.6950 N   0  0  0  0  0  0  0  0  0  0  0  0
  139.5800   70.7470  223.8040 C   0  0  0  0  0  0  0  0  0  0  0  0
  139.1680   69.4310  223.8050 C   0  0  0  0  0  0  0  0  0  0  0  0
  139.3010   68.6230  224.9190 C   0  0  0  0  0  0  0  0  0  0  0  0
  139.8690   69.1630  226.0670 C   0  0  0  0  0  0  0  0  0  0  0  0
  140.0400   68.4280  227.2230 C   0  0  0  0  0  0  0  0  0  0  0  0
  140.6090   69.0100  228.3380 C   0  0  0  0  0  0  0  0  0  0  0  0
  141.0090   70.3310  228.2990 C   0  0  0  0  0  0  0  0  0  0  0  0
  140.8490   71.0880  227.1540 C   0  0  0  0  0  0  0  0  0  0  0  0
  140.2770   70.4820  226.0530 C   0  0  0  0  0  0  0  0  0  0  0  0
  140.1220   71.2240  224.9390 N   0  0  0  0  0  0  0  0  0  0  0  0
  139.7830   73.3730  223.6630 H   0  0  0  0  0  0  0  0  0  0  0  0
  139.5506   73.1400  220.6412 H   0  0  0  0  0  0  0  0  0  0  0  0
  138.3956   74.2109  221.5031 H   0  0  0  0  0  0  0  0  0  0  0  0
  138.1985   76.1869  222.4452 H   0  0  0  0  0  0  0  0  0  0  0  0
  139.5358   76.9409  223.3653 H   0  0  0  0  0  0  0  0  0  0  0  0
  137.5887   78.2541  221.7875 H   0  0  0  0  0  0  0  0  0  0  0  0
  139.0212   78.9929  222.4946 H   0  0  0  0  0  0  0  0  0  0  0  0
  138.5836   77.9046  219.7015 H   0  0  0  0  0  0  0  0  0  0  0  0
  139.5969   79.2525  220.1760 H   0  0  0  0  0  0  0  0  0  0  0  0
  140.6620   76.8884  219.5694 H   0  0  0  0  0  0  0  0  0  0  0  0
  142.4504   77.1015  221.1818 H   0  0  0  0  0  0  0  0  0  0  0  0
  142.0850   78.3950  219.9151 H   0  0  0  0  0  0  0  0  0  0  0  0
  141.7698   77.6637  223.6412 H   0  0  0  0  0  0  0  0  0  0  0  0
  141.8250   80.0095  224.9459 H   0  0  0  0  0  0  0  0  0  0  0  0
  141.8683   81.9179  223.0728 H   0  0  0  0  0  0  0  0  0  0  0  0
  138.7201   69.0115  222.8921 H   0  0  0  0  0  0  0  0  0  0  0  0
  138.9647   67.5759  224.8973 H   0  0  0  0  0  0  0  0  0  0  0  0
  139.7219   67.3755  227.2558 H   0  0  0  0  0  0  0  0  0  0  0  0
  140.7437   68.4214  229.2575 H   0  0  0  0  0  0  0  0  0  0  0  0
  141.4614   70.7872  229.1919 H   0  0  0  0  0  0  0  0  0  0  0  0
  141.1674   72.1404  227.1207 H   0  0  0  0  0  0  0  0  0  0  0  0
  1  2  2  0
  2  3  1  0
  3  4  1  0
  4  5  1  0
  5  6  2  0
  5  7  1  0
  7  8  1  0
  8  9  1  0
  9 10  1  0
 10 11  1  0
 11 12  1  0
 12 13  1  0
 13 14  1  0
 14 15  2  0
 15 16  1  0
 16 17  2  0
  2 18  1  0
 18 19  2  0
 19 20  1  0
 20 21  2  0
 21 22  1  0
 22 23  2  0
 23 24  1  0
 24 25  2  0
 25 26  1  0
 26 27  2  0
 11  7  1  0
 17 13  1  0
 27 18  1  0
 26 21  1  0
  3 28  1  0
  4 29  1  0
  4 30  1  0
  8 31  1  0
  8 32  1  0
  9 33  1  0
  9 34  1  0
 10 35  1  0
 10 36  1  0
 11 37  1  6
 12 38  1  0
 12 39  1  0
 14 40  1  0
 15 41  1  0
 16 42  1  0
 19 43  1  0
 20 44  1  0
 22 45  1  0
 23 46  1  0
 24 47  1  0
 25 48  1  0
M  END
>  <smiles>  (45) 
O=C(NCC(=O)N1CCC[C@H]1Cn1cccn1)c1ccc2ccccc2n1

>  <score_type>  (45) 
oracle

>  <origin>  (45) 
autodockgpu

>  <m_score__min__energy>  (45) 
-8.4000000000000004

>  <m_primary>  (45) 
energy

>  <rmsd>  (45) 
2.2361465404292256

>  <m_score__min__rmsd>  (45) 
2.2361465404292256

>  <meeko>  (45) 
{"free_energy": -7.58, "intermolecular_energy": -9.37, "internal_energy": -1.61, "cluster_size": 26, "cluster_id": 1, "rank_in_cluster": 25}

>  <energy>  (45) 
-6.97

>  <cluster_rmsd>  (45) 
0.33

>  <cluster>  (45) 
4

$$$$

     RDKit          3D

 48 51  0  0  0  0  0  0  0  0999 V2000
  141.3250   71.5030  221.4560 O   0  0  0  0  0  0  0  0  0  0  0  0
  140.6970   72.0810  222.3880 C   0  0  0  0  0  0  0  0  0  0  0  0
  140.2600   73.4360  222.2800 N   0  0  0  0  0  0  0  0  0  0  0  0
  140.5580   74.1410  221.0520 C   0  0  0  0  0  0  0  0  0  0  0  0
  140.7550   75.5930  221.3500 C   0  0  0  0  0  0  0  0  0  0  0  0
  140.3240   76.0960  222.4270 O   0  0  0  0  0  0  0  0  0  0  0  0
  141.4270   76.4590  220.4450 N   0  0  0  0  0  0  0  0  0  0  0  0
  141.3100   77.9050  220.5190 C   0  0  0  0  0  0  0  0  0  0  0  0
  141.8710   78.4910  219.2710 C   0  0  0  0  0  0  0  0  0  0  0  0
  142.1270   77.3010  218.3780 C   0  0  0  0  0  0  0  0  0  0  0  0
  142.2970   76.1860  219.3430 C   0  0  1  0  0  0  0  0  0  0  0  0
  143.7000   75.8270  219.7000 C   0  0  0  0  0  0  0  0  0  0  0  0
  144.0060   74.4330  219.7070 N   0  0  0  0  0  0  0  0  0  0  0  0
  144.5440   73.7990  220.7880 C   0  0  0  0  0  0  0  0  0  0  0  0
  144.7120   72.4730  220.4650 C   0  0  0  0  0  0  0  0  0  0  0  0
  144.2630   72.3440  219.1740 C   0  0  0  0  0  0  0  0  0  0  0  0
  143.8470   73.5210  218.7390 N   0  0  0  0  0  0  0  0  0  0  0  0
  140.4080   71.3470  223.6190 C   0  0  0  0  0  0  0  0  0  0  0  0
  139.7360   70.1430  223.5720 C   0  0  0  0  0  0  0  0  0  0  0  0
  139.4450   69.4220  224.7150 C   0  0  0  0  0  0  0  0  0  0  0  0
  139.8450   69.9340  225.9430 C   0  0  0  0  0  0  0  0  0  0  0  0
  139.5970   69.2800  227.1330 C   0  0  0  0  0  0  0  0  0  0  0  0
  140.0150   69.8300  228.3280 C   0  0  0  0  0  0  0  0  0  0  0  0
  140.6850   71.0370  228.3360 C   0  0  0  0  0  0  0  0  0  0  0  0
  140.9470   71.7110  227.1580 C   0  0  0  0  0  0  0  0  0  0  0  0
  140.5180   71.1400  225.9770 C   0  0  0  0  0  0  0  0  0  0  0  0
  140.7740   71.8000  224.8310 N   0  0  0  0  0  0  0  0  0  0  0  0
  139.7500   73.8440  223.0860 H   0  0  0  0  0  0  0  0  0  0  0  0
  141.4755   73.7298  220.6058 H   0  0  0  0  0  0  0  0  0  0  0  0
  139.7230   74.0201  220.3462 H   0  0  0  0  0  0  0  0  0  0  0  0
  140.2512   78.1866  220.6173 H   0  0  0  0  0  0  0  0  0  0  0  0
  141.8616   78.2826  221.3926 H   0  0  0  0  0  0  0  0  0  0  0  0
  141.1495   79.1786  218.8055 H   0  0  0  0  0  0  0  0  0  0  0  0
  142.7821   79.0787  219.4570 H   0  0  0  0  0  0  0  0  0  0  0  0
  141.2728   77.1179  217.7096 H   0  0  0  0  0  0  0  0  0  0  0  0
  142.9952   77.4360  217.7162 H   0  0  0  0  0  0  0  0  0  0  0  0
  142.0040   75.2426  218.8592 H   0  0  0  0  0  0  0  0  0  0  0  0
  144.3674   76.3145  218.9741 H   0  0  0  0  0  0  0  0  0  0  0  0
  143.8386   76.1666  220.7371 H   0  0  0  0  0  0  0  0  0  0  0  0
  144.7991   74.2668  221.7504 H   0  0  0  0  0  0  0  0  0  0  0  0
  145.1214   71.6798  221.1079 H   0  0  0  0  0  0  0  0  0  0  0  0
  144.2513   71.4096  218.5937 H   0  0  0  0  0  0  0  0  0  0  0  0
  139.4223   69.7448  222.5957 H   0  0  0  0  0  0  0  0  0  0  0  0
  138.9084   68.4637  224.6536 H   0  0  0  0  0  0  0  0  0  0  0  0
  139.0646   68.3175  227.1290 H   0  0  0  0  0  0  0  0  0  0  0  0
  139.8142   69.3064  229.2743 H   0  0  0  0  0  0  0  0  0  0  0  0
  141.0148   71.4682  229.2927 H   0  0  0  0  0  0  0  0  0  0  0  0
  141.4809   72.6727  227.1617 H   0  0  0  0  0  0  0  0  0  0  0  0
  1  2  2  0
  2  3  1  0
  3  4  1  0
  4  5  1  0
  5  6  2  0
  5  7  1  0
  7  8  1  0
  8  9  1  0
  9 10  1  0
 10 11  1  0
 11 12  1  0
 12 13  1  0
 13 14  1  0
 14 15  2  0
 15 16  1  0
 16 17  2  0
  2 18  1  0
 18 19  2  0
 19 20  1  0
 20 21  2  0
 21 22  1  0
 22 23  2  0
 23 24  1  0
 24 25  2  0
 25 26  1  0
 26 27  2  0
 11  7  1  0
 17 13  1  0
 27 18  1  0
 26 21  1  0
  3 28  1  0
  4 29  1  0
  4 30  1  0
  8 31  1  0
  8 32  1  0
  9 33  1  0
  9 34  1  0
 10 35  1  0
 10 36  1  0
 11 37  1  6
 12 38  1  0
 12 39  1  0
 14 40  1  0
 15 41  1  0
 16 42  1  0
 19 43  1  0
 20 44  1  0
 22 45  1  0
 23 46  1  0
 24 47  1  0
 25 48  1  0
M  END
>  <smiles>  (46) 
O=C(NCC(=O)N1CCC[C@H]1Cn1cccn1)c1ccc2ccccc2n1

>  <score_type>  (46) 
oracle

>  <origin>  (46) 
autodockgpu

>  <m_score__min__energy>  (46) 
-8.4000000000000004

>  <m_primary>  (46) 
energy

>  <rmsd>  (46) 
3.7013311511552174

>  <m_score__min__rmsd>  (46) 
3.7013311511552174

>  <meeko>  (46) 
{"free_energy": -7.5, "intermolecular_energy": -9.29, "internal_energy": -1.91, "cluster_size": 12, "cluster_id": 3, "rank_in_cluster": 11}

>  <energy>  (46) 
-6.89

>  <cluster_rmsd>  (46) 
0.67

>  <cluster>  (46) 
4

$$$$

     RDKit          3D

 48 51  0  0  0  0  0  0  0  0999 V2000
  139.2410   74.5780  222.3730 O   0  0  0  0  0  0  0  0  0  0  0  0
  140.0480   75.3820  221.8270 C   0  0  0  0  0  0  0  0  0  0  0  0
  140.9100   74.9830  220.7610 N   0  0  0  0  0  0  0  0  0  0  0  0
  140.8320   73.6090  220.3140 C   0  0  0  0  0  0  0  0  0  0  0  0
  142.0020   72.8460  220.8470 C   0  0  0  0  0  0  0  0  0  0  0  0
  141.8320   71.8310  221.5820 O   0  0  0  0  0  0  0  0  0  0  0  0
  143.3400   73.2250  220.5540 N   0  0  0  0  0  0  0  0  0  0  0  0
  144.4150   72.2560  220.4370 C   0  0  0  0  0  0  0  0  0  0  0  0
  145.7140   72.9850  220.4330 C   0  0  0  0  0  0  0  0  0  0  0  0
  145.3440   74.4110  220.7660 C   0  0  0  0  0  0  0  0  0  0  0  0
  143.9320   74.5060  220.3220 C   0  0  1  0  0  0  0  0  0  0  0  0
  143.7000   75.0900  218.9690 C   0  0  0  0  0  0  0  0  0  0  0  0
  143.1150   76.3920  218.9410 N   0  0  0  0  0  0  0  0  0  0  0  0
  143.0250   77.1390  217.8040 C   0  0  0  0  0  0  0  0  0  0  0  0
  142.4140   78.3290  218.1220 C   0  0  0  0  0  0  0  0  0  0  0  0
  142.1480   78.2640  219.4670 C   0  0  0  0  0  0  0  0  0  0  0  0
  142.5730   77.1030  219.9390 N   0  0  0  0  0  0  0  0  0  0  0  0
  140.1080   76.7650  222.2970 C   0  0  0  0  0  0  0  0  0  0  0  0
  138.9490   77.4580  222.5750 C   0  0  0  0  0  0  0  0  0  0  0  0
  138.9670   78.7670  223.0200 C   0  0  0  0  0  0  0  0  0  0  0  0
  140.1960   79.3930  223.1890 C   0  0  0  0  0  0  0  0  0  0  0  0
  140.3060   80.6970  223.6300 C   0  0  0  0  0  0  0  0  0  0  0  0
  141.5500   81.2750  223.7830 C   0  0  0  0  0  0  0  0  0  0  0  0
  142.6890   80.5500  223.4950 C   0  0  0  0  0  0  0  0  0  0  0  0
  142.6060   79.2430  223.0530 C   0  0  0  0  0  0  0  0  0  0  0  0
  141.3500   78.6880  222.9090 C   0  0  0  0  0  0  0  0  0  0  0  0
  141.2720   77.4150  222.4760 N   0  0  0  0  0  0  0  0  0  0  0  0
  141.5470   75.6980  220.3620 H   0  0  0  0  0  0  0  0  0  0  0  0
  139.8998   73.1557  220.6821 H   0  0  0  0  0  0  0  0  0  0  0  0
  140.8441   73.5792  219.2145 H   0  0  0  0  0  0  0  0  0  0  0  0
  144.3824   71.5617  221.2896 H   0  0  0  0  0  0  0  0  0  0  0  0
  144.3035   71.6819  219.5053 H   0  0  0  0  0  0  0  0  0  0  0  0
  146.3948   72.5719  221.1919 H   0  0  0  0  0  0  0  0  0  0  0  0
  146.2393   72.9015  219.4702 H   0  0  0  0  0  0  0  0  0  0  0  0
  145.4316   74.5995  221.8462 H   0  0  0  0  0  0  0  0  0  0  0  0
  145.9992   75.1511  220.2834 H   0  0  0  0  0  0  0  0  0  0  0  0
  143.4171   75.2711  220.9216 H   0  0  0  0  0  0  0  0  0  0  0  0
  144.6713   75.1464  218.4558 H   0  0  0  0  0  0  0  0  0  0  0  0
  142.9707   74.4268  218.4809 H   0  0  0  0  0  0  0  0  0  0  0  0
  143.3794   76.8415  216.8061 H   0  0  0  0  0  0  0  0  0  0  0  0
  142.1856   79.1610  217.4397 H   0  0  0  0  0  0  0  0  0  0  0  0
  141.6591   79.0520  220.0587 H   0  0  0  0  0  0  0  0  0  0  0  0
  137.9807   76.9543  222.4386 H   0  0  0  0  0  0  0  0  0  0  0  0
  138.0296   79.3008  223.2354 H   0  0  0  0  0  0  0  0  0  0  0  0
  139.3998   81.2766  223.8600 H   0  0  0  0  0  0  0  0  0  0  0  0
  141.6339   82.3139  224.1346 H   0  0  0  0  0  0  0  0  0  0  0  0
  143.6763   81.0190  223.6190 H   0  0  0  0  0  0  0  0  0  0  0  0
  143.5121   78.6632  222.8232 H   0  0  0  0  0  0  0  0  0  0  0  0
  1  2  2  0
  2  3  1  0
  3  4  1  0
  4  5  1  0
  5  6  2  0
  5  7  1  0
  7  8  1  0
  8  9  1  0
  9 10  1  0
 10 11  1  0
 11 12  1  0
 12 13  1  0
 13 14  1  0
 14 15  2  0
 15 16  1  0
 16 17  2  0
  2 18  1  0
 18 19  2  0
 19 20  1  0
 20 21  2  0
 21 22  1  0
 22 23  2  0
 23 24  1  0
 24 25  2  0
 25 26  1  0
 26 27  2  0
 11  7  1  0
 17 13  1  0
 27 18  1  0
 26 21  1  0
  3 28  1  0
  4 29  1  0
  4 30  1  0
  8 31  1  0
  8 32  1  0
  9 33  1  0
  9 34  1  0
 10 35  1  0
 10 36  1  0
 11 37  1  1
 12 38  1  0
 12 39  1  0
 14 40  1  0
 15 41  1  0
 16 42  1  0
 19 43  1  0
 20 44  1  0
 22 45  1  0
 23 46  1  0
 24 47  1  0
 25 48  1  0
M  END
>  <smiles>  (47) 
O=C(NCC(=O)N1CCC[C@H]1Cn1cccn1)c1ccc2ccccc2n1

>  <score_type>  (47) 
oracle

>  <origin>  (47) 
autodockgpu

>  <m_score__min__energy>  (47) 
-8.4000000000000004

>  <m_primary>  (47) 
energy

>  <rmsd>  (47) 
7.285297357531525

>  <m_score__min__rmsd>  (47) 
7.285297357531525

>  <meeko>  (47) 
{"free_energy": -6.97, "intermolecular_energy": -8.76, "internal_energy": -2.77, "cluster_size": 7, "cluster_id": 4, "rank_in_cluster": 3}

>  <energy>  (47) 
-6.26

>  <cluster_rmsd>  (47) 
0.94

>  <cluster>  (47) 
4

$$$$

     RDKit          3D

 48 51  0  0  0  0  0  0  0  0999 V2000
  140.7370   71.5210  221.2880 O   0  0  0  0  0  0  0  0  0  0  0  0
  140.3120   72.1110  222.3220 C   0  0  0  0  0  0  0  0  0  0  0  0
  139.9180   73.4830  222.3040 N   0  0  0  0  0  0  0  0  0  0  0  0
  140.0190   74.1930  221.0470 C   0  0  0  0  0  0  0  0  0  0  0  0
  140.7120   75.4990  221.2700 C   0  0  0  0  0  0  0  0  0  0  0  0
  140.6640   76.0720  222.3970 O   0  0  0  0  0  0  0  0  0  0  0  0
  141.4470   76.1440  220.2380 N   0  0  0  0  0  0  0  0  0  0  0  0
  141.1890   77.5170  219.8420 C   0  0  0  0  0  0  0  0  0  0  0  0
  141.8980   77.7810  218.5580 C   0  0  0  0  0  0  0  0  0  0  0  0
  142.4050   76.4270  218.1240 C   0  0  0  0  0  0  0  0  0  0  0  0
  142.5100   75.6800  219.4020 C   0  0  1  0  0  0  0  0  0  0  0  0
  143.8600   75.6370  220.0360 C   0  0  0  0  0  0  0  0  0  0  0  0
  144.3530   74.3400  220.3700 N   0  0  0  0  0  0  0  0  0  0  0  0
  145.6690   74.0930  220.6270 C   0  0  0  0  0  0  0  0  0  0  0  0
  145.8040   72.7540  220.9140 C   0  0  0  0  0  0  0  0  0  0  0  0
  144.5410   72.2240  220.8210 C   0  0  0  0  0  0  0  0  0  0  0  0
  143.6890   73.1830  220.4960 N   0  0  0  0  0  0  0  0  0  0  0  0
  140.2190   71.3700  223.5790 C   0  0  0  0  0  0  0  0  0  0  0  0
  139.6500   70.1140  223.6100 C   0  0  0  0  0  0  0  0  0  0  0  0
  139.5440   69.3870  224.7800 C   0  0  0  0  0  0  0  0  0  0  0  0
  140.0290   69.9460  225.9560 C   0  0  0  0  0  0  0  0  0  0  0  0
  139.9650   69.2890  227.1680 C   0  0  0  0  0  0  0  0  0  0  0  0
  140.4610   69.8870  228.3100 C   0  0  0  0  0  0  0  0  0  0  0  0
  141.0240   71.1460  228.2400 C   0  0  0  0  0  0  0  0  0  0  0  0
  141.1010   71.8250  227.0390 C   0  0  0  0  0  0  0  0  0  0  0  0
  140.5970   71.2040  225.9130 C   0  0  0  0  0  0  0  0  0  0  0  0
  140.6730   71.8690  224.7430 N   0  0  0  0  0  0  0  0  0  0  0  0
  139.5790   73.8990  223.1910 H   0  0  0  0  0  0  0  0  0  0  0  0
  140.5946   73.5896  220.3297 H   0  0  0  0  0  0  0  0  0  0  0  0
  139.0113   74.3751  220.6452 H   0  0  0  0  0  0  0  0  0  0  0  0
  140.1077   77.6669  219.7062 H   0  0  0  0  0  0  0  0  0  0  0  0
  141.5487   78.2070  220.6195 H   0  0  0  0  0  0  0  0  0  0  0  0
  141.2067   78.1960  217.8098 H   0  0  0  0  0  0  0  0  0  0  0  0
  142.7086   78.5161  218.6700 H   0  0  0  0  0  0  0  0  0  0  0  0
  141.6945   75.9403  217.4396 H   0  0  0  0  0  0  0  0  0  0  0  0
  143.3564   76.4780  217.5742 H   0  0  0  0  0  0  0  0  0  0  0  0
  142.3882   74.6052  219.2023 H   0  0  0  0  0  0  0  0  0  0  0  0
  144.5742   76.0993  219.3387 H   0  0  0  0  0  0  0  0  0  0  0  0
  143.7557   76.1701  220.9925 H   0  0  0  0  0  0  0  0  0  0  0  0
  146.4811   74.8347  220.6082 H   0  0  0  0  0  0  0  0  0  0  0  0
  146.7316   72.2191  221.1658 H   0  0  0  0  0  0  0  0  0  0  0  0
  144.2787   71.1692  220.9899 H   0  0  0  0  0  0  0  0  0  0  0  0
  139.2690   69.6779  222.6748 H   0  0  0  0  0  0  0  0  0  0  0  0
  139.0855   68.3871  224.7806 H   0  0  0  0  0  0  0  0  0  0  0  0
  139.5175   68.2858  227.2247 H   0  0  0  0  0  0  0  0  0  0  0  0
  140.4076   69.3608  229.2745 H   0  0  0  0  0  0  0  0  0  0  0  0
  141.4170   71.6153  229.1539 H   0  0  0  0  0  0  0  0  0  0  0  0
  141.5493   72.8279  226.9816 H   0  0  0  0  0  0  0  0  0  0  0  0
  1  2  2  0
  2  3  1  0
  3  4  1  0
  4  5  1  0
  5  6  2  0
  5  7  1  0
  7  8  1  0
  8  9  1  0
  9 10  1  0
 10 11  1  0
 11 12  1  0
 12 13  1  0
 13 14  1  0
 14 15  2  0
 15 16  1  0
 16 17  2  0
  2 18  1  0
 18 19  2  0
 19 20  1  0
 20 21  2  0
 21 22  1  0
 22 23  2  0
 23 24  1  0
 24 25  2  0
 25 26  1  0
 26 27  2  0
 11  7  1  0
 17 13  1  0
 27 18  1  0
 26 21  1  0
  3 28  1  0
  4 29  1  0
  4 30  1  0
  8 31  1  0
  8 32  1  0
  9 33  1  0
  9 34  1  0
 10 35  1  0
 10 36  1  0
 11 37  1  6
 12 38  1  0
 12 39  1  0
 14 40  1  0
 15 41  1  0
 16 42  1  0
 19 43  1  0
 20 44  1  0
 22 45  1  0
 23 46  1  0
 24 47  1  0
 25 48  1  0
M  END
>  <smiles>  (48) 
O=C(NCC(=O)N1CCC[C@H]1Cn1cccn1)c1ccc2ccccc2n1

>  <score_type>  (48) 
oracle

>  <origin>  (48) 
autodockgpu

>  <m_score__min__energy>  (48) 
-8.4000000000000004

>  <m_primary>  (48) 
energy

>  <rmsd>  (48) 
3.691041326839392

>  <m_score__min__rmsd>  (48) 
3.691041326839392

>  <meeko>  (48) 
{"free_energy": -7.89, "intermolecular_energy": -9.68, "internal_energy": -1.7, "cluster_size": 12, "cluster_id": 3, "rank_in_cluster": 7}

>  <energy>  (48) 
-6.15

>  <cluster_rmsd>  (48) 
1.03

>  <cluster>  (48) 
4

$$$$

     RDKit          3D

 48 51  0  0  0  0  0  0  0  0999 V2000
  140.8490   71.2530  221.3110 O   0  0  0  0  0  0  0  0  0  0  0  0
  140.4150   71.9040  222.3030 C   0  0  0  0  0  0  0  0  0  0  0  0
  140.1230   73.2990  222.2240 N   0  0  0  0  0  0  0  0  0  0  0  0
  140.3410   73.9590  220.9550 C   0  0  0  0  0  0  0  0  0  0  0  0
  140.4130   75.4370  221.1700 C   0  0  0  0  0  0  0  0  0  0  0  0
  140.0140   75.9520  222.2540 O   0  0  0  0  0  0  0  0  0  0  0  0
  140.9260   76.3150  220.1770 N   0  0  0  0  0  0  0  0  0  0  0  0
  140.6100   76.1650  218.7680 C   0  0  0  0  0  0  0  0  0  0  0  0
  141.5300   77.0300  217.9800 C   0  0  0  0  0  0  0  0  0  0  0  0
  142.5350   77.5280  218.9910 C   0  0  0  0  0  0  0  0  0  0  0  0
  141.7910   77.4490  220.2720 C   0  0  1  0  0  0  0  0  0  0  0  0
  141.1540   78.7110  220.7470 C   0  0  0  0  0  0  0  0  0  0  0  0
  141.6090   79.2080  222.0050 N   0  0  0  0  0  0  0  0  0  0  0  0
  141.2110   78.6790  223.1980 C   0  0  0  0  0  0  0  0  0  0  0  0
  141.8310   79.3810  224.2040 C   0  0  0  0  0  0  0  0  0  0  0  0
  142.6000   80.3310  223.5780 C   0  0  0  0  0  0  0  0  0  0  0  0
  142.4550   80.2130  222.2680 N   0  0  0  0  0  0  0  0  0  0  0  0
  140.2030   71.2140  223.5740 C   0  0  0  0  0  0  0  0  0  0  0  0
  139.5470   70.0010  223.6100 C   0  0  0  0  0  0  0  0  0  0  0  0
  139.3280   69.3210  224.7930 C   0  0  0  0  0  0  0  0  0  0  0  0
  139.7870   69.8850  225.9770 C   0  0  0  0  0  0  0  0  0  0  0  0
  139.6120   69.2740  227.2030 C   0  0  0  0  0  0  0  0  0  0  0  0
  140.0870   69.8740  228.3520 C   0  0  0  0  0  0  0  0  0  0  0  0
  140.7390   71.0890  228.2780 C   0  0  0  0  0  0  0  0  0  0  0  0
  140.9280   71.7200  227.0630 C   0  0  0  0  0  0  0  0  0  0  0  0
  140.4430   71.0990  225.9290 C   0  0  0  0  0  0  0  0  0  0  0  0
  140.6280   71.7180  224.7470 N   0  0  0  0  0  0  0  0  0  0  0  0
  139.7690   73.7670  223.0790 H   0  0  0  0  0  0  0  0  0  0  0  0
  141.2852   73.6057  220.5150 H   0  0  0  0  0  0  0  0  0  0  0  0
  139.5101   73.7269  220.2725 H   0  0  0  0  0  0  0  0  0  0  0  0
  140.7415   75.1147  218.4686 H   0  0  0  0  0  0  0  0  0  0  0  0
  139.5666   76.4603  218.5835 H   0  0  0  0  0  0  0  0  0  0  0  0
  142.0281   76.4498  217.1893 H   0  0  0  0  0  0  0  0  0  0  0  0
  141.0023   77.8516  217.4735 H   0  0  0  0  0  0  0  0  0  0  0  0
  143.4265   76.8840  219.0118 H   0  0  0  0  0  0  0  0  0  0  0  0
  142.9072   78.5390  218.7688 H   0  0  0  0  0  0  0  0  0  0  0  0
  142.5059   77.3060  221.0957 H   0  0  0  0  0  0  0  0  0  0  0  0
  141.3415   79.4876  219.9909 H   0  0  0  0  0  0  0  0  0  0  0  0
  140.0906   78.4696  220.8913 H   0  0  0  0  0  0  0  0  0  0  0  0
  140.5153   77.8375  223.3315 H   0  0  0  0  0  0  0  0  0  0  0  0
  141.7317   79.2159  225.2870 H   0  0  0  0  0  0  0  0  0  0  0  0
  143.2354   81.0722  224.0849 H   0  0  0  0  0  0  0  0  0  0  0  0
  139.1871   69.5615  222.6680 H   0  0  0  0  0  0  0  0  0  0  0  0
  138.8021   68.3549  224.7972 H   0  0  0  0  0  0  0  0  0  0  0  0
  139.0925   68.3063  227.2642 H   0  0  0  0  0  0  0  0  0  0  0  0
  139.9461   69.3841  229.3267 H   0  0  0  0  0  0  0  0  0  0  0  0
  141.1130   71.5610  229.1985 H   0  0  0  0  0  0  0  0  0  0  0  0
  141.4487   72.6870  227.0012 H   0  0  0  0  0  0  0  0  0  0  0  0
  1  2  2  0
  2  3  1  0
  3  4  1  0
  4  5  1  0
  5  6  2  0
  5  7  1  0
  7  8  1  0
  8  9  1  0
  9 10  1  0
 10 11  1  0
 11 12  1  0
 12 13  1  0
 13 14  1  0
 14 15  2  0
 15 16  1  0
 16 17  2  0
  2 18  1  0
 18 19  2  0
 19 20  1  0
 20 21  2  0
 21 22  1  0
 22 23  2  0
 23 24  1  0
 24 25  2  0
 25 26  1  0
 26 27  2  0
 11  7  1  0
 17 13  1  0
 27 18  1  0
 26 21  1  0
  3 28  1  0
  4 29  1  0
  4 30  1  0
  8 31  1  0
  8 32  1  0
  9 33  1  0
  9 34  1  0
 10 35  1  0
 10 36  1  0
 11 37  1  1
 12 38  1  0
 12 39  1  0
 14 40  1  0
 15 41  1  0
 16 42  1  0
 19 43  1  0
 20 44  1  0
 22 45  1  0
 23 46  1  0
 24 47  1  0
 25 48  1  0
M  END
>  <smiles>  (49) 
O=C(NCC(=O)N1CCC[C@H]1Cn1cccn1)c1ccc2ccccc2n1

>  <score_type>  (49) 
oracle

>  <origin>  (49) 
autodockgpu

>  <m_score__min__energy>  (49) 
-8.4000000000000004

>  <m_primary>  (49) 
energy

>  <rmsd>  (49) 
1.8014101725516696

>  <m_score__min__rmsd>  (49) 
1.8014101725516696

>  <meeko>  (49) 
{"free_energy": -7.95, "intermolecular_energy": -9.74, "internal_energy": -1.71, "cluster_size": 26, "cluster_id": 1, "rank_in_cluster": 21}

>  <energy>  (49) 
-6.41

>  <cluster_rmsd>  (49) 
0.0

>  <cluster>  (49) 
5

$$$$

     RDKit          3D

 48 51  0  0  0  0  0  0  0  0999 V2000
  139.5000   74.4820  222.3740 O   0  0  0  0  0  0  0  0  0  0  0  0
  140.1260   75.3500  221.7020 C   0  0  0  0  0  0  0  0  0  0  0  0
  140.7910   75.0280  220.4800 N   0  0  0  0  0  0  0  0  0  0  0  0
  140.7260   73.6570  220.0230 C   0  0  0  0  0  0  0  0  0  0  0  0
  141.8530   72.8800  220.6260 C   0  0  0  0  0  0  0  0  0  0  0  0
  141.6260   71.8620  221.3420 O   0  0  0  0  0  0  0  0  0  0  0  0
  143.2110   73.2480  220.4210 N   0  0  0  0  0  0  0  0  0  0  0  0
  144.2840   72.2700  220.3810 C   0  0  0  0  0  0  0  0  0  0  0  0
  145.5850   72.9910  220.4610 C   0  0  0  0  0  0  0  0  0  0  0  0
  145.2050   74.4200  220.7630 C   0  0  0  0  0  0  0  0  0  0  0  0
  143.8260   74.5230  220.2240 C   0  0  1  0  0  0  0  0  0  0  0  0
  143.6900   75.1030  218.8570 C   0  0  0  0  0  0  0  0  0  0  0  0
  143.0910   76.3960  218.7820 N   0  0  0  0  0  0  0  0  0  0  0  0
  142.9610   77.0860  217.6120 C   0  0  0  0  0  0  0  0  0  0  0  0
  142.3460   78.2840  217.8890 C   0  0  0  0  0  0  0  0  0  0  0  0
  142.1180   78.2830  219.2430 C   0  0  0  0  0  0  0  0  0  0  0  0
  142.5680   77.1510  219.7580 N   0  0  0  0  0  0  0  0  0  0  0  0
  140.1760   76.7290  222.1850 C   0  0  0  0  0  0  0  0  0  0  0  0
  139.0200   77.3790  222.5640 C   0  0  0  0  0  0  0  0  0  0  0  0
  139.0290   78.6820  223.0240 C   0  0  0  0  0  0  0  0  0  0  0  0
  140.2460   79.3490  223.1050 C   0  0  0  0  0  0  0  0  0  0  0  0
  140.3470   80.6510  223.5540 C   0  0  0  0  0  0  0  0  0  0  0  0
  141.5790   81.2700  223.6150 C   0  0  0  0  0  0  0  0  0  0  0  0
  142.7150   80.5880  223.2280 C   0  0  0  0  0  0  0  0  0  0  0  0
  142.6410   79.2840  222.7750 C   0  0  0  0  0  0  0  0  0  0  0  0
  141.3970   78.6880  222.7230 C   0  0  0  0  0  0  0  0  0  0  0  0
  141.3280   77.4170  222.2810 N   0  0  0  0  0  0  0  0  0  0  0  0
  141.2840   75.7930  219.9830 H   0  0  0  0  0  0  0  0  0  0  0  0
  139.7678   73.2125  220.3301 H   0  0  0  0  0  0  0  0  0  0  0  0
  140.8059   73.6304  218.9262 H   0  0  0  0  0  0  0  0  0  0  0  0
  144.1892   71.5803  221.2327 H   0  0  0  0  0  0  0  0  0  0  0  0
  144.2311   71.6910  219.4472 H   0  0  0  0  0  0  0  0  0  0  0  0
  146.2108   72.5765  221.2651 H   0  0  0  0  0  0  0  0  0  0  0  0
  146.1720   72.9002  219.5352 H   0  0  0  0  0  0  0  0  0  0  0  0
  145.2210   74.6124  221.8459 H   0  0  0  0  0  0  0  0  0  0  0  0
  145.8969   75.1534  220.3233 H   0  0  0  0  0  0  0  0  0  0  0  0
  143.2769   75.2943  220.7840 H   0  0  0  0  0  0  0  0  0  0  0  0
  144.6968   75.1728  218.4195 H   0  0  0  0  0  0  0  0  0  0  0  0
  143.0093   74.4294  218.3158 H   0  0  0  0  0  0  0  0  0  0  0  0
  143.2908   76.7434  216.6201 H   0  0  0  0  0  0  0  0  0  0  0  0
  142.0895   79.0792  217.1736 H   0  0  0  0  0  0  0  0  0  0  0  0
  141.6376   79.0945  219.8092 H   0  0  0  0  0  0  0  0  0  0  0  0
  138.0613   76.8436  222.4980 H   0  0  0  0  0  0  0  0  0  0  0  0
  138.0940   79.1804  223.3195 H   0  0  0  0  0  0  0  0  0  0  0  0
  139.4432   81.1961  223.8638 H   0  0  0  0  0  0  0  0  0  0  0  0
  141.6557   82.3075  223.9723 H   0  0  0  0  0  0  0  0  0  0  0  0
  143.6928   81.0891  223.2808 H   0  0  0  0  0  0  0  0  0  0  0  0
  143.5448   78.7386  222.4658 H   0  0  0  0  0  0  0  0  0  0  0  0
  1  2  2  0
  2  3  1  0
  3  4  1  0
  4  5  1  0
  5  6  2  0
  5  7  1  0
  7  8  1  0
  8  9  1  0
  9 10  1  0
 10 11  1  0
 11 12  1  0
 12 13  1  0
 13 14  1  0
 14 15  2  0
 15 16  1  0
 16 17  2  0
  2 18  1  0
 18 19  2  0
 19 20  1  0
 20 21  2  0
 21 22  1  0
 22 23  2  0
 23 24  1  0
 24 25  2  0
 25 26  1  0
 26 27  2  0
 11  7  1  0
 17 13  1  0
 27 18  1  0
 26 21  1  0
  3 28  1  0
  4 29  1  0
  4 30  1  0
  8 31  1  0
  8 32  1  0
  9 33  1  0
  9 34  1  0
 10 35  1  0
 10 36  1  0
 11 37  1  1
 12 38  1  0
 12 39  1  0
 14 40  1  0
 15 41  1  0
 16 42  1  0
 19 43  1  0
 20 44  1  0
 22 45  1  0
 23 46  1  0
 24 47  1  0
 25 48  1  0
M  END
>  <smiles>  (50) 
O=C(NCC(=O)N1CCC[C@H]1Cn1cccn1)c1ccc2ccccc2n1

>  <score_type>  (50) 
oracle

>  <origin>  (50) 
autodockgpu

>  <m_score__min__energy>  (50) 
-8.4000000000000004

>  <m_primary>  (50) 
energy

>  <rmsd>  (50) 
7.283787248629471

>  <m_score__min__rmsd>  (50) 
7.283787248629471

>  <meeko>  (50) 
{"free_energy": -6.89, "intermolecular_energy": -8.68, "internal_energy": -2.79, "cluster_size": 7, "cluster_id": 4, "rank_in_cluster": 5}

>  <energy>  (50) 
-6.02

>  <cluster_rmsd>  (50) 
1.97

>  <cluster>  (50) 
5

$$$$
