
     RDKit          3D

 52 55  0  0  0  0  0  0  0  0999 V2000
  138.4620   71.6310  221.2480 O   0  0  0  0  0  0  0  0  0  0  0  0
  139.0170   72.0560  222.3060 C   0  0  0  0  0  0  0  0  0  0  0  0
  139.3690   73.4200  222.4520 N   0  0  0  0  0  0  0  0  0  0  0  0
  139.1220   74.3860  221.4290 C   0  0  0  0  0  0  0  0  0  0  0  0
  140.0370   75.5680  221.6070 C   0  0  0  0  0  0  0  0  0  0  0  0
  141.2670   75.3020  221.6060 O   0  0  0  0  0  0  0  0  0  0  0  0
  139.5230   76.8890  221.7610 N   0  0  0  0  0  0  0  0  0  0  0  0
  138.1300   77.0990  221.5430 C   0  0  0  0  0  0  0  0  0  0  0  0
  137.5680   78.3760  222.0150 C   0  0  0  0  0  0  0  0  0  0  0  0
  138.5500   79.3880  222.5010 C   0  0  0  0  0  0  0  0  0  0  0  0
  139.7880   78.8440  223.1020 C   0  0  0  0  0  0  0  0  0  0  0  0
  140.4750   77.9170  222.1330 C   0  0  2  0  0  0  0  0  0  0  0  0
  141.1260   78.5860  221.0070 C   0  0  0  0  0  0  0  0  0  0  0  0
  141.6170   77.8870  219.8990 C   0  0  0  0  0  0  0  0  0  0  0  0
  142.2270   78.5250  218.8410 C   0  0  0  0  0  0  0  0  0  0  0  0
  142.3810   79.8940  218.8240 C   0  0  0  0  0  0  0  0  0  0  0  0
  142.9870   80.5840  217.7830 O   0  0  0  0  0  0  0  0  0  0  0  0
  141.9050   80.6050  219.9040 C   0  0  0  0  0  0  0  0  0  0  0  0
  141.2960   79.9590  220.9590 C   0  0  0  0  0  0  0  0  0  0  0  0
  139.3010   71.1110  223.4050 C   0  0  0  0  0  0  0  0  0  0  0  0
  138.9600   69.7810  223.2590 C   0  0  0  0  0  0  0  0  0  0  0  0
  139.2410   68.9230  224.3090 C   0  0  0  0  0  0  0  0  0  0  0  0
  139.8420   69.3870  225.4590 C   0  0  0  0  0  0  0  0  0  0  0  0
  140.1470   68.5820  226.5360 C   0  0  0  0  0  0  0  0  0  0  0  0
  140.7530   69.1180  227.6650 C   0  0  0  0  0  0  0  0  0  0  0  0
  141.1530   68.1100  229.0550 Cl  0  0  0  0  0  0  0  0  0  0  0  0
  141.0760   70.4610  227.7590 C   0  0  0  0  0  0  0  0  0  0  0  0
  140.7640   71.2590  226.6680 C   0  0  0  0  0  0  0  0  0  0  0  0
  140.1650   70.7230  225.5580 C   0  0  0  0  0  0  0  0  0  0  0  0
  139.8890   71.5500  224.5350 N   0  0  0  0  0  0  0  0  0  0  0  0
  139.8310   73.6930  223.3720 H   0  0  0  0  0  0  0  0  0  0  0  0
  139.3037   73.9293  220.4449 H   0  0  0  0  0  0  0  0  0  0  0  0
  138.0774   74.7241  221.4956 H   0  0  0  0  0  0  0  0  0  0  0  0
  137.9498   77.0365  220.4597 H   0  0  0  0  0  0  0  0  0  0  0  0
  137.6258   76.3250  222.1402 H   0  0  0  0  0  0  0  0  0  0  0  0
  137.0082   78.8249  221.1812 H   0  0  0  0  0  0  0  0  0  0  0  0
  136.9510   78.1209  222.8892 H   0  0  0  0  0  0  0  0  0  0  0  0
  138.8377   80.0175  221.6460 H   0  0  0  0  0  0  0  0  0  0  0  0
  138.0411   79.9363  223.3075 H   0  0  0  0  0  0  0  0  0  0  0  0
  140.4650   79.6740  223.3525 H   0  0  0  0  0  0  0  0  0  0  0  0
  139.5280   78.2827  224.0116 H   0  0  0  0  0  0  0  0  0  0  0  0
  141.3376   77.4473  222.6283 H   0  0  0  0  0  0  0  0  0  0  0  0
  141.5127   76.7923  219.8716 H   0  0  0  0  0  0  0  0  0  0  0  0
  142.5982   77.9299  217.9936 H   0  0  0  0  0  0  0  0  0  0  0  0
  143.6460   80.1050  217.1520 H   0  0  0  0  0  0  0  0  0  0  0  0
  142.0120   81.6996  219.9248 H   0  0  0  0  0  0  0  0  0  0  0  0
  140.9281   80.5627  221.8017 H   0  0  0  0  0  0  0  0  0  0  0  0
  138.4809   69.4150  222.3389 H   0  0  0  0  0  0  0  0  0  0  0  0
  138.9812   67.8575  224.2240 H   0  0  0  0  0  0  0  0  0  0  0  0
  139.9089   67.5086  226.5009 H   0  0  0  0  0  0  0  0  0  0  0  0
  141.5575   70.8759  228.6568 H   0  0  0  0  0  0  0  0  0  0  0  0
  140.9998   72.3331  226.6941 H   0  0  0  0  0  0  0  0  0  0  0  0
  1  2  2  0
  2  3  1  0
  3  4  1  0
  4  5  1  0
  5  6  2  0
  5  7  1  0
  7  8  1  0
  8  9  1  0
  9 10  1  0
 10 11  1  0
 11 12  1  0
 12 13  1  0
 13 14  2  0
 14 15  1  0
 15 16  2  0
 16 17  1  0
 16 18  1  0
 18 19  2  0
  2 20  1  0
 20 21  2  0
 21 22  1  0
 22 23  2  0
 23 24  1  0
 24 25  2  0
 25 26  1  0
 25 27  1  0
 27 28  2  0
 28 29  1  0
 29 30  2  0
 12  7  1  0
 19 13  1  0
 30 20  1  0
 29 23  1  0
  3 31  1  0
  4 32  1  0
  4 33  1  0
  8 34  1  0
  8 35  1  0
  9 36  1  0
  9 37  1  0
 10 38  1  0
 10 39  1  0
 11 40  1  0
 11 41  1  0
 12 42  1  1
 14 43  1  0
 15 44  1  0
 17 45  1  0
 18 46  1  0
 19 47  1  0
 21 48  1  0
 22 49  1  0
 24 50  1  0
 27 51  1  0
 28 52  1  0
M  END
>  <smiles>  (1) 
O=C(NCC(=O)N1CCCCC1c1ccc(O)cc1)c1ccc2cc(Cl)ccc2n1

>  <score_type>  (1) 
oracle

>  <origin>  (1) 
autodockgpu

>  <m_score__min__energy>  (1) 
-9.3000000000000007

>  <m_primary>  (1) 
energy

>  <rmsd>  (1) 
2.865836955068413

>  <m_score__min__rmsd>  (1) 
2.865836955068413

>  <meeko>  (1) 
{"free_energy": -8.38, "intermolecular_energy": -10.17, "internal_energy": -1.61, "cluster_size": 19, "cluster_id": 1, "rank_in_cluster": 15}

>  <energy>  (1) 
-9.3

>  <cluster_rmsd>  (1) 
0.0

>  <cluster>  (1) 
1

$$$$

     RDKit          3D

 52 55  0  0  0  0  0  0  0  0999 V2000
  136.1940   77.9770  223.0190 O   0  0  0  0  0  0  0  0  0  0  0  0
  136.3210   76.7540  223.3310 C   0  0  0  0  0  0  0  0  0  0  0  0
  137.4350   75.9970  222.8910 N   0  0  0  0  0  0  0  0  0  0  0  0
  138.4670   76.5600  222.0790 C   0  0  0  0  0  0  0  0  0  0  0  0
  139.5730   75.5580  221.8870 C   0  0  0  0  0  0  0  0  0  0  0  0
  139.3440   74.4080  222.3450 O   0  0  0  0  0  0  0  0  0  0  0  0
  140.7870   75.9080  221.2250 N   0  0  0  0  0  0  0  0  0  0  0  0
  141.8290   74.9360  221.1700 C   0  0  0  0  0  0  0  0  0  0  0  0
  142.9260   75.1900  220.2230 C   0  0  0  0  0  0  0  0  0  0  0  0
  142.9260   76.5250  219.5570 C   0  0  0  0  0  0  0  0  0  0  0  0
  141.5950   77.1380  219.3480 C   0  0  0  0  0  0  0  0  0  0  0  0
  140.8560   77.2390  220.6570 C   0  0  2  0  0  0  0  0  0  0  0  0
  141.3630   78.2680  221.5640 C   0  0  0  0  0  0  0  0  0  0  0  0
  141.8210   79.5100  221.1120 C   0  0  0  0  0  0  0  0  0  0  0  0
  142.2950   80.4750  221.9740 C   0  0  0  0  0  0  0  0  0  0  0  0
  142.3370   80.2610  223.3340 C   0  0  0  0  0  0  0  0  0  0  0  0
  142.8040   81.2000  224.2440 O   0  0  0  0  0  0  0  0  0  0  0  0
  141.8910   79.0450  223.8050 C   0  0  0  0  0  0  0  0  0  0  0  0
  141.4190   78.0840  222.9360 C   0  0  0  0  0  0  0  0  0  0  0  0
  135.2900   76.1090  224.1690 C   0  0  0  0  0  0  0  0  0  0  0  0
  134.3140   76.8860  224.7590 C   0  0  0  0  0  0  0  0  0  0  0  0
  133.3630   76.2480  225.5370 C   0  0  0  0  0  0  0  0  0  0  0  0
  133.3950   74.8810  225.7130 C   0  0  0  0  0  0  0  0  0  0  0  0
  132.4770   74.1900  226.4750 C   0  0  0  0  0  0  0  0  0  0  0  0
  132.5700   72.8110  226.6080 C   0  0  0  0  0  0  0  0  0  0  0  0
  131.4080   71.9050  227.5770 Cl  0  0  0  0  0  0  0  0  0  0  0  0
  133.5700   72.0780  225.9920 C   0  0  0  0  0  0  0  0  0  0  0  0
  134.4870   72.7860  225.2290 C   0  0  0  0  0  0  0  0  0  0  0  0
  134.3890   74.1470  225.1030 C   0  0  0  0  0  0  0  0  0  0  0  0
  135.3080   74.7730  224.3490 N   0  0  0  0  0  0  0  0  0  0  0  0
  137.4650   74.9790  223.1970 H   0  0  0  0  0  0  0  0  0  0  0  0
  138.0503   76.8353  221.0989 H   0  0  0  0  0  0  0  0  0  0  0  0
  138.8712   77.4541  222.5762 H   0  0  0  0  0  0  0  0  0  0  0  0
  142.2684   74.8624  222.1757 H   0  0  0  0  0  0  0  0  0  0  0  0
  141.3451   74.0165  220.8088 H   0  0  0  0  0  0  0  0  0  0  0  0
  143.8736   75.0891  220.7724 H   0  0  0  0  0  0  0  0  0  0  0  0
  142.7914   74.4574  219.4135 H   0  0  0  0  0  0  0  0  0  0  0  0
  143.5209   77.2119  220.1769 H   0  0  0  0  0  0  0  0  0  0  0  0
  143.3407   76.3586  218.5518 H   0  0  0  0  0  0  0  0  0  0  0  0
  141.7216   78.1450  218.9238 H   0  0  0  0  0  0  0  0  0  0  0  0
  141.0152   76.5088  218.6567 H   0  0  0  0  0  0  0  0  0  0  0  0
  139.8350   77.6038  220.4715 H   0  0  0  0  0  0  0  0  0  0  0  0
  141.8022   79.7234  220.0331 H   0  0  0  0  0  0  0  0  0  0  0  0
  142.6467   81.4350  221.5680 H   0  0  0  0  0  0  0  0  0  0  0  0
  143.7700   81.5560  224.1790 H   0  0  0  0  0  0  0  0  0  0  0  0
  141.9118   78.8389  224.8853 H   0  0  0  0  0  0  0  0  0  0  0  0
  141.0708   77.1268  223.3514 H   0  0  0  0  0  0  0  0  0  0  0  0
  134.2923   77.9764  224.6158 H   0  0  0  0  0  0  0  0  0  0  0  0
  132.5717   76.8394  226.0209 H   0  0  0  0  0  0  0  0  0  0  0  0
  131.6659   74.7345  226.9807 H   0  0  0  0  0  0  0  0  0  0  0  0
  133.6344   70.9855  226.1024 H   0  0  0  0  0  0  0  0  0  0  0  0
  135.3012   72.2494  224.7199 H   0  0  0  0  0  0  0  0  0  0  0  0
  1  2  2  0
  2  3  1  0
  3  4  1  0
  4  5  1  0
  5  6  2  0
  5  7  1  0
  7  8  1  0
  8  9  1  0
  9 10  1  0
 10 11  1  0
 11 12  1  0
 12 13  1  0
 13 14  2  0
 14 15  1  0
 15 16  2  0
 16 17  1  0
 16 18  1  0
 18 19  2  0
  2 20  1  0
 20 21  2  0
 21 22  1  0
 22 23  2  0
 23 24  1  0
 24 25  2  0
 25 26  1  0
 25 27  1  0
 27 28  2  0
 28 29  1  0
 29 30  2  0
 12  7  1  0
 19 13  1  0
 30 20  1  0
 29 23  1  0
  3 31  1  0
  4 32  1  0
  4 33  1  0
  8 34  1  0
  8 35  1  0
  9 36  1  0
  9 37  1  0
 10 38  1  0
 10 39  1  0
 11 40  1  0
 11 41  1  0
 12 42  1  6
 14 43  1  0
 15 44  1  0
 17 45  1  0
 18 46  1  0
 19 47  1  0
 21 48  1  0
 22 49  1  0
 24 50  1  0
 27 51  1  0
 28 52  1  0
M  END
>  <smiles>  (2) 
O=C(NCC(=O)N1CCCCC1c1ccc(O)cc1)c1ccc2cc(Cl)ccc2n1

>  <score_type>  (2) 
oracle

>  <origin>  (2) 
autodockgpu

>  <m_score__min__energy>  (2) 
-9.3000000000000007

>  <m_primary>  (2) 
energy

>  <rmsd>  (2) 
6.116562762160194

>  <m_score__min__rmsd>  (2) 
6.116562762160194

>  <meeko>  (2) 
{"free_energy": -7.3, "intermolecular_energy": -9.09, "internal_energy": -2.21, "cluster_size": 3, "cluster_id": 6, "rank_in_cluster": 3}

>  <energy>  (2) 
-9.27

>  <cluster_rmsd>  (2) 
0.96

>  <cluster>  (2) 
1

$$$$

     RDKit          3D

 52 55  0  0  0  0  0  0  0  0999 V2000
  140.4810   72.3220  220.9210 O   0  0  0  0  0  0  0  0  0  0  0  0
  139.8140   72.5090  221.9830 C   0  0  0  0  0  0  0  0  0  0  0  0
  138.9990   73.6570  222.1440 N   0  0  0  0  0  0  0  0  0  0  0  0
  138.8820   74.6580  221.1320 C   0  0  0  0  0  0  0  0  0  0  0  0
  139.6000   75.9090  221.5610 C   0  0  0  0  0  0  0  0  0  0  0  0
  139.0640   76.5390  222.5090 O   0  0  0  0  0  0  0  0  0  0  0  0
  140.8050   76.3300  220.9250 N   0  0  0  0  0  0  0  0  0  0  0  0
  141.8490   75.3740  220.7590 C   0  0  0  0  0  0  0  0  0  0  0  0
  142.9340   75.7280  219.8290 C   0  0  0  0  0  0  0  0  0  0  0  0
  142.9200   77.1240  219.3030 C   0  0  0  0  0  0  0  0  0  0  0  0
  141.5850   77.7480  219.1720 C   0  0  0  0  0  0  0  0  0  0  0  0
  140.8620   77.7130  220.4930 C   0  0  2  0  0  0  0  0  0  0  0  0
  141.3760   78.6460  221.4940 C   0  0  0  0  0  0  0  0  0  0  0  0
  141.4510   78.3260  222.8540 C   0  0  0  0  0  0  0  0  0  0  0  0
  141.9390   79.2110  223.7910 C   0  0  0  0  0  0  0  0  0  0  0  0
  142.3820   80.4640  223.4290 C   0  0  0  0  0  0  0  0  0  0  0  0
  142.8830   81.3910  224.3320 O   0  0  0  0  0  0  0  0  0  0  0  0
  142.3190   80.8040  222.0950 C   0  0  0  0  0  0  0  0  0  0  0  0
  141.8290   79.9130  221.1630 C   0  0  0  0  0  0  0  0  0  0  0  0
  139.8880   71.5130  223.0710 C   0  0  0  0  0  0  0  0  0  0  0  0
  139.4570   70.2220  222.8380 C   0  0  0  0  0  0  0  0  0  0  0  0
  139.5410   69.3150  223.8800 C   0  0  0  0  0  0  0  0  0  0  0  0
  140.0400   69.6930  225.1080 C   0  0  0  0  0  0  0  0  0  0  0  0
  140.1490   68.8360  226.1820 C   0  0  0  0  0  0  0  0  0  0  0  0
  140.6620   69.2860  227.3920 C   0  0  0  0  0  0  0  0  0  0  0  0
  140.8110   68.2100  228.7800 Cl  0  0  0  0  0  0  0  0  0  0  0  0
  141.0820   70.5930  227.5720 C   0  0  0  0  0  0  0  0  0  0  0  0
  140.9670   71.4450  226.4830 C   0  0  0  0  0  0  0  0  0  0  0  0
  140.4590   70.9930  225.2930 C   0  0  0  0  0  0  0  0  0  0  0  0
  140.3740   71.8690  224.2770 N   0  0  0  0  0  0  0  0  0  0  0  0
  138.4720   73.7370  223.0650 H   0  0  0  0  0  0  0  0  0  0  0  0
  139.3265   74.2851  220.1975 H   0  0  0  0  0  0  0  0  0  0  0  0
  137.8182   74.8884  220.9729 H   0  0  0  0  0  0  0  0  0  0  0  0
  142.3011   75.2007  221.7467 H   0  0  0  0  0  0  0  0  0  0  0  0
  141.3637   74.4938  220.3121 H   0  0  0  0  0  0  0  0  0  0  0  0
  143.8889   75.5764  220.3537 H   0  0  0  0  0  0  0  0  0  0  0  0
  142.7927   75.0806  218.9510 H   0  0  0  0  0  0  0  0  0  0  0  0
  143.5189   77.7473  219.9833 H   0  0  0  0  0  0  0  0  0  0  0  0
  143.3234   77.0630  218.2815 H   0  0  0  0  0  0  0  0  0  0  0  0
  141.7026   78.7932  218.8498 H   0  0  0  0  0  0  0  0  0  0  0  0
  140.9992   77.1889  218.4275 H   0  0  0  0  0  0  0  0  0  0  0  0
  139.8380   78.0907  220.3563 H   0  0  0  0  0  0  0  0  0  0  0  0
  141.1090   77.3348  223.1865 H   0  0  0  0  0  0  0  0  0  0  0  0
  141.9754   78.9109  224.8486 H   0  0  0  0  0  0  0  0  0  0  0  0
  142.2630   81.8270  225.0310 H   0  0  0  0  0  0  0  0  0  0  0  0
  142.6633   81.7969  221.7699 H   0  0  0  0  0  0  0  0  0  0  0  0
  141.7963   80.2226  220.1080 H   0  0  0  0  0  0  0  0  0  0  0  0
  139.0599   69.9242  221.8564 H   0  0  0  0  0  0  0  0  0  0  0  0
  139.2051   68.2789  223.7262 H   0  0  0  0  0  0  0  0  0  0  0  0
  139.8277   67.7889  226.0803 H   0  0  0  0  0  0  0  0  0  0  0  0
  141.4880   70.9398  228.5337 H   0  0  0  0  0  0  0  0  0  0  0  0
  141.2866   72.4935  226.5756 H   0  0  0  0  0  0  0  0  0  0  0  0
  1  2  2  0
  2  3  1  0
  3  4  1  0
  4  5  1  0
  5  6  2  0
  5  7  1  0
  7  8  1  0
  8  9  1  0
  9 10  1  0
 10 11  1  0
 11 12  1  0
 12 13  1  0
 13 14  2  0
 14 15  1  0
 15 16  2  0
 16 17  1  0
 16 18  1  0
 18 19  2  0
  2 20  1  0
 20 21  2  0
 21 22  1  0
 22 23  2  0
 23 24  1  0
 24 25  2  0
 25 26  1  0
 25 27  1  0
 27 28  2  0
 28 29  1  0
 29 30  2  0
 12  7  1  0
 19 13  1  0
 30 20  1  0
 29 23  1  0
  3 31  1  0
  4 32  1  0
  4 33  1  0
  8 34  1  0
  8 35  1  0
  9 36  1  0
  9 37  1  0
 10 38  1  0
 10 39  1  0
 11 40  1  0
 11 41  1  0
 12 42  1  6
 14 43  1  0
 15 44  1  0
 17 45  1  0
 18 46  1  0
 19 47  1  0
 21 48  1  0
 22 49  1  0
 24 50  1  0
 27 51  1  0
 28 52  1  0
M  END
>  <smiles>  (3) 
O=C(NCC(=O)N1CCCCC1c1ccc(O)cc1)c1ccc2cc(Cl)ccc2n1

>  <score_type>  (3) 
oracle

>  <origin>  (3) 
autodockgpu

>  <m_score__min__energy>  (3) 
-9.3000000000000007

>  <m_primary>  (3) 
energy

>  <rmsd>  (3) 
1.9971033277266657

>  <m_score__min__rmsd>  (3) 
1.9971033277266657

>  <meeko>  (3) 
{"free_energy": -9.0, "intermolecular_energy": -10.79, "internal_energy": -1.51, "cluster_size": 18, "cluster_id": 2, "rank_in_cluster": 3}

>  <energy>  (3) 
-9.26

>  <cluster_rmsd>  (3) 
0.98

>  <cluster>  (3) 
1

$$$$

     RDKit          3D

 52 55  0  0  0  0  0  0  0  0999 V2000
  139.5870   71.9440  220.6150 O   0  0  0  0  0  0  0  0  0  0  0  0
  139.3810   72.3460  221.8000 C   0  0  0  0  0  0  0  0  0  0  0  0
  138.9650   73.6750  222.0610 N   0  0  0  0  0  0  0  0  0  0  0  0
  138.7570   74.6280  221.0180 C   0  0  0  0  0  0  0  0  0  0  0  0
  139.4510   75.9210  221.3570 C   0  0  0  0  0  0  0  0  0  0  0  0
  138.8040   76.6990  222.1050 O   0  0  0  0  0  0  0  0  0  0  0  0
  140.7520   76.2200  220.8550 N   0  0  0  0  0  0  0  0  0  0  0  0
  141.7390   75.1920  220.8870 C   0  0  0  0  0  0  0  0  0  0  0  0
  142.9530   75.4100  220.0840 C   0  0  0  0  0  0  0  0  0  0  0  0
  143.1030   76.7630  219.4720 C   0  0  0  0  0  0  0  0  0  0  0  0
  141.8420   77.4570  219.1310 C   0  0  0  0  0  0  0  0  0  0  0  0
  140.9590   77.5620  220.3470 C   0  0  2  0  0  0  0  0  0  0  0  0
  141.4090   78.5320  221.3440 C   0  0  0  0  0  0  0  0  0  0  0  0
  141.8320   79.8210  221.0030 C   0  0  0  0  0  0  0  0  0  0  0  0
  142.2510   80.7300  221.9480 C   0  0  0  0  0  0  0  0  0  0  0  0
  142.2730   80.4110  223.2880 C   0  0  0  0  0  0  0  0  0  0  0  0
  142.6860   81.2900  224.2800 O   0  0  0  0  0  0  0  0  0  0  0  0
  141.8610   79.1470  223.6510 C   0  0  0  0  0  0  0  0  0  0  0  0
  141.4420   78.2420  222.6980 C   0  0  0  0  0  0  0  0  0  0  0  0
  139.5770   71.4120  222.9270 C   0  0  0  0  0  0  0  0  0  0  0  0
  139.2050   70.0900  222.7840 C   0  0  0  0  0  0  0  0  0  0  0  0
  139.4040   69.2430  223.8600 C   0  0  0  0  0  0  0  0  0  0  0  0
  139.9550   69.7090  225.0340 C   0  0  0  0  0  0  0  0  0  0  0  0
  140.1770   68.9140  226.1390 C   0  0  0  0  0  0  0  0  0  0  0  0
  140.7370   69.4520  227.2900 C   0  0  0  0  0  0  0  0  0  0  0  0
  141.0310   68.4570  228.7160 Cl  0  0  0  0  0  0  0  0  0  0  0  0
  141.0940   70.7870  227.3810 C   0  0  0  0  0  0  0  0  0  0  0  0
  140.8650   71.5740  226.2630 C   0  0  0  0  0  0  0  0  0  0  0  0
  140.3110   71.0370  225.1300 C   0  0  0  0  0  0  0  0  0  0  0  0
  140.1160   71.8540  224.0810 N   0  0  0  0  0  0  0  0  0  0  0  0
  138.8140   73.9310  223.0830 H   0  0  0  0  0  0  0  0  0  0  0  0
  139.1641   74.2320  220.0760 H   0  0  0  0  0  0  0  0  0  0  0  0
  137.6785   74.8145  220.9086 H   0  0  0  0  0  0  0  0  0  0  0  0
  142.0515   75.0637  221.9338 H   0  0  0  0  0  0  0  0  0  0  0  0
  141.2525   74.3130  220.4389 H   0  0  0  0  0  0  0  0  0  0  0  0
  143.8222   75.2381  220.7359 H   0  0  0  0  0  0  0  0  0  0  0  0
  142.8766   74.7107  219.2383 H   0  0  0  0  0  0  0  0  0  0  0  0
  143.6554   77.3957  220.1823 H   0  0  0  0  0  0  0  0  0  0  0  0
  143.6248   76.6035  218.5169 H   0  0  0  0  0  0  0  0  0  0  0  0
  142.0720   78.4670  218.7610 H   0  0  0  0  0  0  0  0  0  0  0  0
  141.3156   76.8827  218.3545 H   0  0  0  0  0  0  0  0  0  0  0  0
  139.9886   77.9907  220.0562 H   0  0  0  0  0  0  0  0  0  0  0  0
  141.8297   80.1183  219.9439 H   0  0  0  0  0  0  0  0  0  0  0  0
  142.5747   81.7310  221.6268 H   0  0  0  0  0  0  0  0  0  0  0  0
  143.3310   80.9770  225.0200 H   0  0  0  0  0  0  0  0  0  0  0  0
  141.8663   78.8567  224.7120 H   0  0  0  0  0  0  0  0  0  0  0  0
  141.1191   77.2438  223.0287 H   0  0  0  0  0  0  0  0  0  0  0  0
  138.7648   69.7221  221.8454 H   0  0  0  0  0  0  0  0  0  0  0  0
  139.1187   68.1839  223.7772 H   0  0  0  0  0  0  0  0  0  0  0  0
  139.9089   67.8476  226.1082 H   0  0  0  0  0  0  0  0  0  0  0  0
  141.5383   71.2032  228.2972 H   0  0  0  0  0  0  0  0  0  0  0  0
  141.1308   72.6412  226.2853 H   0  0  0  0  0  0  0  0  0  0  0  0
  1  2  2  0
  2  3  1  0
  3  4  1  0
  4  5  1  0
  5  6  2  0
  5  7  1  0
  7  8  1  0
  8  9  1  0
  9 10  1  0
 10 11  1  0
 11 12  1  0
 12 13  1  0
 13 14  2  0
 14 15  1  0
 15 16  2  0
 16 17  1  0
 16 18  1  0
 18 19  2  0
  2 20  1  0
 20 21  2  0
 21 22  1  0
 22 23  2  0
 23 24  1  0
 24 25  2  0
 25 26  1  0
 25 27  1  0
 27 28  2  0
 28 29  1  0
 29 30  2  0
 12  7  1  0
 19 13  1  0
 30 20  1  0
 29 23  1  0
  3 31  1  0
  4 32  1  0
  4 33  1  0
  8 34  1  0
  8 35  1  0
  9 36  1  0
  9 37  1  0
 10 38  1  0
 10 39  1  0
 11 40  1  0
 11 41  1  0
 12 42  1  6
 14 43  1  0
 15 44  1  0
 17 45  1  0
 18 46  1  0
 19 47  1  0
 21 48  1  0
 22 49  1  0
 24 50  1  0
 27 51  1  0
 28 52  1  0
M  END
>  <smiles>  (4) 
O=C(NCC(=O)N1CCCCC1c1ccc(O)cc1)c1ccc2cc(Cl)ccc2n1

>  <score_type>  (4) 
oracle

>  <origin>  (4) 
autodockgpu

>  <m_score__min__energy>  (4) 
-9.3000000000000007

>  <m_primary>  (4) 
energy

>  <rmsd>  (4) 
1.9853829520371156

>  <m_score__min__rmsd>  (4) 
1.9853829520371156

>  <meeko>  (4) 
{"free_energy": -8.79, "intermolecular_energy": -10.58, "internal_energy": -1.6, "cluster_size": 18, "cluster_id": 2, "rank_in_cluster": 7}

>  <energy>  (4) 
-9.25

>  <cluster_rmsd>  (4) 
0.93

>  <cluster>  (4) 
1

$$$$

     RDKit          3D

 52 55  0  0  0  0  0  0  0  0999 V2000
  139.5230   71.6360  220.6900 O   0  0  0  0  0  0  0  0  0  0  0  0
  139.6790   72.0980  221.8610 C   0  0  0  0  0  0  0  0  0  0  0  0
  139.8000   73.4910  222.0890 N   0  0  0  0  0  0  0  0  0  0  0  0
  139.7530   74.4450  221.0270 C   0  0  0  0  0  0  0  0  0  0  0  0
  140.5570   75.6630  221.3950 C   0  0  0  0  0  0  0  0  0  0  0  0
  140.5040   75.9970  222.6070 O   0  0  0  0  0  0  0  0  0  0  0  0
  141.3210   76.3720  220.4210 N   0  0  0  0  0  0  0  0  0  0  0  0
  142.6050   75.8620  220.0710 C   0  0  0  0  0  0  0  0  0  0  0  0
  143.2290   76.4080  218.8540 C   0  0  0  0  0  0  0  0  0  0  0  0
  142.5350   77.5680  218.2230 C   0  0  0  0  0  0  0  0  0  0  0  0
  141.0660   77.6110  218.3990 C   0  0  0  0  0  0  0  0  0  0  0  0
  140.7150   77.5650  219.8640 C   0  0  2  0  0  0  0  0  0  0  0  0
  140.9990   78.7970  220.5970 C   0  0  0  0  0  0  0  0  0  0  0  0
  140.9010   80.0630  220.0100 C   0  0  0  0  0  0  0  0  0  0  0  0
  141.1670   81.2190  220.7090 C   0  0  0  0  0  0  0  0  0  0  0  0
  141.5450   81.1840  222.0330 C   0  0  0  0  0  0  0  0  0  0  0  0
  141.8240   82.3190  222.7820 O   0  0  0  0  0  0  0  0  0  0  0  0
  141.6490   79.9490  222.6360 C   0  0  0  0  0  0  0  0  0  0  0  0
  141.3810   78.7950  221.9290 C   0  0  0  0  0  0  0  0  0  0  0  0
  139.7360   71.1670  223.0060 C   0  0  0  0  0  0  0  0  0  0  0  0
  139.1940   69.9030  222.8790 C   0  0  0  0  0  0  0  0  0  0  0  0
  139.2660   69.0570  223.9710 C   0  0  0  0  0  0  0  0  0  0  0  0
  139.8590   69.4670  225.1460 C   0  0  0  0  0  0  0  0  0  0  0  0
  139.9600   68.6700  226.2660 C   0  0  0  0  0  0  0  0  0  0  0  0
  140.5710   69.1500  227.4170 C   0  0  0  0  0  0  0  0  0  0  0  0
  140.7130   68.1510  228.8630 Cl  0  0  0  0  0  0  0  0  0  0  0  0
  141.1000   70.4280  227.4920 C   0  0  0  0  0  0  0  0  0  0  0  0
  140.9920   71.2180  226.3570 C   0  0  0  0  0  0  0  0  0  0  0  0
  140.3860   70.7380  225.2260 C   0  0  0  0  0  0  0  0  0  0  0  0
  140.3130   71.5540  224.1600 N   0  0  0  0  0  0  0  0  0  0  0  0
  139.9280   73.7940  223.1010 H   0  0  0  0  0  0  0  0  0  0  0  0
  140.1702   73.9950  220.1140 H   0  0  0  0  0  0  0  0  0  0  0  0
  138.7080   74.7407  220.8524 H   0  0  0  0  0  0  0  0  0  0  0  0
  143.2839   76.0649  220.9124 H   0  0  0  0  0  0  0  0  0  0  0  0
  142.4415   74.7957  219.8561 H   0  0  0  0  0  0  0  0  0  0  0  0
  144.2489   76.7277  219.1140 H   0  0  0  0  0  0  0  0  0  0  0  0
  143.1846   75.5980  218.1110 H   0  0  0  0  0  0  0  0  0  0  0  0
  142.9542   78.4885  218.6555 H   0  0  0  0  0  0  0  0  0  0  0  0
  142.7042   77.4659  217.1409 H   0  0  0  0  0  0  0  0  0  0  0  0
  140.6747   78.5410  217.9608 H   0  0  0  0  0  0  0  0  0  0  0  0
  140.6189   76.7411  217.8956 H   0  0  0  0  0  0  0  0  0  0  0  0
  139.6226   77.4998  219.9753 H   0  0  0  0  0  0  0  0  0  0  0  0
  140.6013   80.1375  218.9542 H   0  0  0  0  0  0  0  0  0  0  0  0
  141.0758   82.1898  220.1999 H   0  0  0  0  0  0  0  0  0  0  0  0
  141.7050   83.2570  222.3720 H   0  0  0  0  0  0  0  0  0  0  0  0
  141.9489   79.8827  223.6923 H   0  0  0  0  0  0  0  0  0  0  0  0
  141.4749   77.8289  222.4465 H   0  0  0  0  0  0  0  0  0  0  0  0
  138.7206   69.5797  221.9402 H   0  0  0  0  0  0  0  0  0  0  0  0
  138.8444   68.0434  223.9009 H   0  0  0  0  0  0  0  0  0  0  0  0
  139.5543   67.6477  226.2480 H   0  0  0  0  0  0  0  0  0  0  0  0
  141.5828   70.7988  228.4082 H   0  0  0  0  0  0  0  0  0  0  0  0
  141.3972   72.2406  226.3651 H   0  0  0  0  0  0  0  0  0  0  0  0
  1  2  2  0
  2  3  1  0
  3  4  1  0
  4  5  1  0
  5  6  2  0
  5  7  1  0
  7  8  1  0
  8  9  1  0
  9 10  1  0
 10 11  1  0
 11 12  1  0
 12 13  1  0
 13 14  2  0
 14 15  1  0
 15 16  2  0
 16 17  1  0
 16 18  1  0
 18 19  2  0
  2 20  1  0
 20 21  2  0
 21 22  1  0
 22 23  2  0
 23 24  1  0
 24 25  2  0
 25 26  1  0
 25 27  1  0
 27 28  2  0
 28 29  1  0
 29 30  2  0
 12  7  1  0
 19 13  1  0
 30 20  1  0
 29 23  1  0
  3 31  1  0
  4 32  1  0
  4 33  1  0
  8 34  1  0
  8 35  1  0
  9 36  1  0
  9 37  1  0
 10 38  1  0
 10 39  1  0
 11 40  1  0
 11 41  1  0
 12 42  1  6
 14 43  1  0
 15 44  1  0
 17 45  1  0
 18 46  1  0
 19 47  1  0
 21 48  1  0
 22 49  1  0
 24 50  1  0
 27 51  1  0
 28 52  1  0
M  END
>  <smiles>  (5) 
O=C(NCC(=O)N1CCCCC1c1ccc(O)cc1)c1ccc2cc(Cl)ccc2n1

>  <score_type>  (5) 
oracle

>  <origin>  (5) 
autodockgpu

>  <m_score__min__energy>  (5) 
-9.3000000000000007

>  <m_primary>  (5) 
energy

>  <rmsd>  (5) 
1.959532580004467

>  <m_score__min__rmsd>  (5) 
1.959532580004467

>  <meeko>  (5) 
{"free_energy": -7.7, "intermolecular_energy": -9.49, "internal_energy": -1.94, "cluster_size": 18, "cluster_id": 2, "rank_in_cluster": 18}

>  <energy>  (5) 
-9.17

>  <cluster_rmsd>  (5) 
0.28

>  <cluster>  (5) 
1

$$$$

     RDKit          3D

 52 55  0  0  0  0  0  0  0  0999 V2000
  139.0750   73.6050  220.3810 O   0  0  0  0  0  0  0  0  0  0  0  0
  139.1280   73.6710  221.6460 C   0  0  0  0  0  0  0  0  0  0  0  0
  139.0830   74.9180  222.3170 N   0  0  0  0  0  0  0  0  0  0  0  0
  138.9780   76.1580  221.6170 C   0  0  0  0  0  0  0  0  0  0  0  0
  140.3240   76.8290  221.5550 C   0  0  0  0  0  0  0  0  0  0  0  0
  141.2770   76.0910  221.1890 O   0  0  0  0  0  0  0  0  0  0  0  0
  140.4850   78.2060  221.8890 N   0  0  0  0  0  0  0  0  0  0  0  0
  139.3760   78.8930  222.4630 C   0  0  0  0  0  0  0  0  0  0  0  0
  139.6530   80.1960  223.0900 C   0  0  0  0  0  0  0  0  0  0  0  0
  141.0270   80.7420  222.8940 C   0  0  0  0  0  0  0  0  0  0  0  0
  142.1030   79.7360  222.7440 C   0  0  0  0  0  0  0  0  0  0  0  0
  141.7810   78.7940  221.6130 C   0  0  2  0  0  0  0  0  0  0  0  0
  141.9190   79.3740  220.2790 C   0  0  0  0  0  0  0  0  0  0  0  0
  141.8070   80.7480  220.0400 C   0  0  0  0  0  0  0  0  0  0  0  0
  141.9410   81.2870  218.7800 C   0  0  0  0  0  0  0  0  0  0  0  0
  142.1980   80.4920  217.6840 C   0  0  0  0  0  0  0  0  0  0  0  0
  142.3430   80.9850  216.3950 O   0  0  0  0  0  0  0  0  0  0  0  0
  142.3140   79.1350  217.8930 C   0  0  0  0  0  0  0  0  0  0  0  0
  142.1780   78.6020  219.1580 C   0  0  0  0  0  0  0  0  0  0  0  0
  139.2370   72.4260  222.4330 C   0  0  0  0  0  0  0  0  0  0  0  0
  138.5240   71.3110  222.0390 C   0  0  0  0  0  0  0  0  0  0  0  0
  138.6500   70.1620  222.8000 C   0  0  0  0  0  0  0  0  0  0  0  0
  139.4640   70.1360  223.9120 C   0  0  0  0  0  0  0  0  0  0  0  0
  139.6300   69.0220  224.7070 C   0  0  0  0  0  0  0  0  0  0  0  0
  140.4670   69.0680  225.8150 C   0  0  0  0  0  0  0  0  0  0  0  0
  140.6970   67.6570  226.8470 Cl  0  0  0  0  0  0  0  0  0  0  0  0
  141.1620   70.2130  226.1650 C   0  0  0  0  0  0  0  0  0  0  0  0
  140.9850   71.3260  225.3560 C   0  0  0  0  0  0  0  0  0  0  0  0
  140.1580   71.2730  224.2650 C   0  0  0  0  0  0  0  0  0  0  0  0
  140.0290   72.3860  223.5220 N   0  0  0  0  0  0  0  0  0  0  0  0
  139.1330   74.8840  223.3800 H   0  0  0  0  0  0  0  0  0  0  0  0
  138.6171   75.9701  220.5950 H   0  0  0  0  0  0  0  0  0  0  0  0
  138.2715   76.8136  222.1472 H   0  0  0  0  0  0  0  0  0  0  0  0
  138.6378   79.0585  221.6644 H   0  0  0  0  0  0  0  0  0  0  0  0
  139.0313   78.2468  223.2837 H   0  0  0  0  0  0  0  0  0  0  0  0
  138.9401   80.9252  222.6777 H   0  0  0  0  0  0  0  0  0  0  0  0
  139.5543   80.0287  224.1727 H   0  0  0  0  0  0  0  0  0  0  0  0
  141.0171   81.3639  221.9868 H   0  0  0  0  0  0  0  0  0  0  0  0
  141.2625   81.2976  223.8137 H   0  0  0  0  0  0  0  0  0  0  0  0
  143.0525   80.2487  222.5306 H   0  0  0  0  0  0  0  0  0  0  0  0
  142.1884   79.1601  223.6773 H   0  0  0  0  0  0  0  0  0  0  0  0
  142.5383   77.9970  221.5767 H   0  0  0  0  0  0  0  0  0  0  0  0
  141.6052   81.4202  220.8870 H   0  0  0  0  0  0  0  0  0  0  0  0
  141.8409   82.3742  218.6455 H   0  0  0  0  0  0  0  0  0  0  0  0
  143.2180   80.8310  215.8720 H   0  0  0  0  0  0  0  0  0  0  0  0
  142.5174   78.4691  217.0414 H   0  0  0  0  0  0  0  0  0  0  0  0
  142.2799   77.5138  219.2825 H   0  0  0  0  0  0  0  0  0  0  0  0
  137.8772   71.3353  221.1496 H   0  0  0  0  0  0  0  0  0  0  0  0
  138.0932   69.2576  222.5137 H   0  0  0  0  0  0  0  0  0  0  0  0
  139.0968   68.0914  224.4627 H   0  0  0  0  0  0  0  0  0  0  0  0
  141.8236   70.2390  227.0434 H   0  0  0  0  0  0  0  0  0  0  0  0
  141.5142   72.2608  225.5930 H   0  0  0  0  0  0  0  0  0  0  0  0
  1  2  2  0
  2  3  1  0
  3  4  1  0
  4  5  1  0
  5  6  2  0
  5  7  1  0
  7  8  1  0
  8  9  1  0
  9 10  1  0
 10 11  1  0
 11 12  1  0
 12 13  1  0
 13 14  2  0
 14 15  1  0
 15 16  2  0
 16 17  1  0
 16 18  1  0
 18 19  2  0
  2 20  1  0
 20 21  2  0
 21 22  1  0
 22 23  2  0
 23 24  1  0
 24 25  2  0
 25 26  1  0
 25 27  1  0
 27 28  2  0
 28 29  1  0
 29 30  2  0
 12  7  1  0
 19 13  1  0
 30 20  1  0
 29 23  1  0
  3 31  1  0
  4 32  1  0
  4 33  1  0
  8 34  1  0
  8 35  1  0
  9 36  1  0
  9 37  1  0
 10 38  1  0
 10 39  1  0
 11 40  1  0
 11 41  1  0
 12 42  1  6
 14 43  1  0
 15 44  1  0
 17 45  1  0
 18 46  1  0
 19 47  1  0
 21 48  1  0
 22 49  1  0
 24 50  1  0
 27 51  1  0
 28 52  1  0
M  END
>  <smiles>  (6) 
O=C(NCC(=O)N1CCCCC1c1ccc(O)cc1)c1ccc2cc(Cl)ccc2n1

>  <score_type>  (6) 
oracle

>  <origin>  (6) 
autodockgpu

>  <m_score__min__energy>  (6) 
-9.3000000000000007

>  <m_primary>  (6) 
energy

>  <rmsd>  (6) 
3.749035591581904

>  <m_score__min__rmsd>  (6) 
3.749035591581904

>  <meeko>  (6) 
{"free_energy": -8.39, "intermolecular_energy": -10.18, "internal_energy": -1.27, "cluster_size": 19, "cluster_id": 1, "rank_in_cluster": 13}

>  <energy>  (6) 
-9.14

>  <cluster_rmsd>  (6) 
1.0

>  <cluster>  (6) 
1

$$$$

     RDKit          3D

 52 55  0  0  0  0  0  0  0  0999 V2000
  139.0550   71.0450  220.8170 O   0  0  0  0  0  0  0  0  0  0  0  0
  139.2890   71.5850  221.9400 C   0  0  0  0  0  0  0  0  0  0  0  0
  139.3810   72.9920  222.0730 N   0  0  0  0  0  0  0  0  0  0  0  0
  139.2180   73.8750  220.9620 C   0  0  0  0  0  0  0  0  0  0  0  0
  140.0830   75.0940  221.1420 C   0  0  0  0  0  0  0  0  0  0  0  0
  140.0700   75.5970  222.2960 O   0  0  0  0  0  0  0  0  0  0  0  0
  140.8560   75.6220  220.0670 N   0  0  0  0  0  0  0  0  0  0  0  0
  140.2220   75.7930  218.8020 C   0  0  0  0  0  0  0  0  0  0  0  0
  140.9250   76.6260  217.8120 C   0  0  0  0  0  0  0  0  0  0  0  0
  142.3100   77.0480  218.1720 C   0  0  0  0  0  0  0  0  0  0  0  0
  142.5750   77.2140  219.6180 C   0  0  0  0  0  0  0  0  0  0  0  0
  142.2380   75.9460  220.3590 C   0  0  2  0  0  0  0  0  0  0  0  0
  143.1820   74.8490  220.1500 C   0  0  0  0  0  0  0  0  0  0  0  0
  142.7960   73.6140  219.6170 C   0  0  0  0  0  0  0  0  0  0  0  0
  143.6920   72.5870  219.4210 C   0  0  0  0  0  0  0  0  0  0  0  0
  145.0240   72.7290  219.7410 C   0  0  0  0  0  0  0  0  0  0  0  0
  145.9670   71.7260  219.5630 O   0  0  0  0  0  0  0  0  0  0  0  0
  145.4310   73.9360  220.2680 C   0  0  0  0  0  0  0  0  0  0  0  0
  144.5270   74.9600  220.4620 C   0  0  0  0  0  0  0  0  0  0  0  0
  139.4700   70.7300  223.1310 C   0  0  0  0  0  0  0  0  0  0  0  0
  138.9900   69.4360  223.1150 C   0  0  0  0  0  0  0  0  0  0  0  0
  139.1760   68.6630  224.2480 C   0  0  0  0  0  0  0  0  0  0  0  0
  139.8210   69.1740  225.3540 C   0  0  0  0  0  0  0  0  0  0  0  0
  140.0370   68.4540  226.5100 C   0  0  0  0  0  0  0  0  0  0  0  0
  140.6950   69.0340  227.5870 C   0  0  0  0  0  0  0  0  0  0  0  0
  140.9830   68.1340  229.0750 Cl  0  0  0  0  0  0  0  0  0  0  0  0
  141.1590   70.3380  227.5500 C   0  0  0  0  0  0  0  0  0  0  0  0
  140.9350   71.0510  226.3810 C   0  0  0  0  0  0  0  0  0  0  0  0
  140.2840   70.4720  225.3230 C   0  0  0  0  0  0  0  0  0  0  0  0
  140.0990   71.2160  224.2200 N   0  0  0  0  0  0  0  0  0  0  0  0
  139.5810   73.3630  223.0500 H   0  0  0  0  0  0  0  0  0  0  0  0
  139.5093   73.3549  220.0375 H   0  0  0  0  0  0  0  0  0  0  0  0
  138.1647   74.1857  220.8992 H   0  0  0  0  0  0  0  0  0  0  0  0
  140.0868   74.7947  218.3603 H   0  0  0  0  0  0  0  0  0  0  0  0
  139.2884   76.3324  219.0196 H   0  0  0  0  0  0  0  0  0  0  0  0
  140.9811   76.0560  216.8729 H   0  0  0  0  0  0  0  0  0  0  0  0
  140.3421   77.5563  217.7425 H   0  0  0  0  0  0  0  0  0  0  0  0
  143.0057   76.2884  217.7860 H   0  0  0  0  0  0  0  0  0  0  0  0
  142.4450   78.0445  217.7263 H   0  0  0  0  0  0  0  0  0  0  0  0
  143.6389   77.4501  219.7674 H   0  0  0  0  0  0  0  0  0  0  0  0
  141.9501   78.0323  220.0053 H   0  0  0  0  0  0  0  0  0  0  0  0
  142.3472   76.1170  221.4401 H   0  0  0  0  0  0  0  0  0  0  0  0
  141.7414   73.4584  219.3455 H   0  0  0  0  0  0  0  0  0  0  0  0
  143.3370   71.6345  219.0006 H   0  0  0  0  0  0  0  0  0  0  0  0
  146.3230   71.1930  220.3700 H   0  0  0  0  0  0  0  0  0  0  0  0
  146.4873   74.0842  220.5366 H   0  0  0  0  0  0  0  0  0  0  0  0
  144.8911   75.9084  220.8839 H   0  0  0  0  0  0  0  0  0  0  0  0
  138.4762   69.0320  222.2303 H   0  0  0  0  0  0  0  0  0  0  0  0
  138.8044   67.6278  224.2661 H   0  0  0  0  0  0  0  0  0  0  0  0
  139.6860   67.4138  226.5797 H   0  0  0  0  0  0  0  0  0  0  0  0
  141.6809   70.7878  228.4075 H   0  0  0  0  0  0  0  0  0  0  0  0
  141.2834   72.0914  226.3026 H   0  0  0  0  0  0  0  0  0  0  0  0
  1  2  2  0
  2  3  1  0
  3  4  1  0
  4  5  1  0
  5  6  2  0
  5  7  1  0
  7  8  1  0
  8  9  1  0
  9 10  1  0
 10 11  1  0
 11 12  1  0
 12 13  1  0
 13 14  2  0
 14 15  1  0
 15 16  2  0
 16 17  1  0
 16 18  1  0
 18 19  2  0
  2 20  1  0
 20 21  2  0
 21 22  1  0
 22 23  2  0
 23 24  1  0
 24 25  2  0
 25 26  1  0
 25 27  1  0
 27 28  2  0
 28 29  1  0
 29 30  2  0
 12  7  1  0
 19 13  1  0
 30 20  1  0
 29 23  1  0
  3 31  1  0
  4 32  1  0
  4 33  1  0
  8 34  1  0
  8 35  1  0
  9 36  1  0
  9 37  1  0
 10 38  1  0
 10 39  1  0
 11 40  1  0
 11 41  1  0
 12 42  1  1
 14 43  1  0
 15 44  1  0
 17 45  1  0
 18 46  1  0
 19 47  1  0
 21 48  1  0
 22 49  1  0
 24 50  1  0
 27 51  1  0
 28 52  1  0
M  END
>  <smiles>  (7) 
O=C(NCC(=O)N1CCCCC1c1ccc(O)cc1)c1ccc2cc(Cl)ccc2n1

>  <score_type>  (7) 
oracle

>  <origin>  (7) 
autodockgpu

>  <m_score__min__energy>  (7) 
-9.3000000000000007

>  <m_primary>  (7) 
energy

>  <rmsd>  (7) 
1.3372932053896325

>  <m_score__min__rmsd>  (7) 
1.3372932053896325

>  <meeko>  (7) 
{"free_energy": -8.38, "intermolecular_energy": -10.17, "internal_energy": -2.01, "cluster_size": 5, "cluster_id": 3, "rank_in_cluster": 3}

>  <energy>  (7) 
-9.05

>  <cluster_rmsd>  (7) 
1.32

>  <cluster>  (7) 
1

$$$$

     RDKit          3D

 52 55  0  0  0  0  0  0  0  0999 V2000
  140.2640   72.6670  220.8180 O   0  0  0  0  0  0  0  0  0  0  0  0
  139.9580   72.9910  222.0060 C   0  0  0  0  0  0  0  0  0  0  0  0
  139.5960   74.3210  222.3330 N   0  0  0  0  0  0  0  0  0  0  0  0
  139.5540   75.3620  221.3560 C   0  0  0  0  0  0  0  0  0  0  0  0
  138.8420   76.5640  221.9170 C   0  0  0  0  0  0  0  0  0  0  0  0
  137.5860   76.4910  221.9210 O   0  0  0  0  0  0  0  0  0  0  0  0
  139.5620   77.6940  222.4050 N   0  0  0  0  0  0  0  0  0  0  0  0
  138.8340   78.7110  223.0900 C   0  0  0  0  0  0  0  0  0  0  0  0
  139.6210   79.6900  223.8570 C   0  0  0  0  0  0  0  0  0  0  0  0
  141.1020   79.6250  223.6840 C   0  0  0  0  0  0  0  0  0  0  0  0
  141.6550   78.2860  223.3840 C   0  0  0  0  0  0  0  0  0  0  0  0
  140.9900   77.7100  222.1610 C   0  0  2  0  0  0  0  0  0  0  0  0
  141.3890   78.3320  220.9000 C   0  0  0  0  0  0  0  0  0  0  0  0
  142.1370   77.6550  219.9290 C   0  0  0  0  0  0  0  0  0  0  0  0
  142.5070   78.2480  218.7430 C   0  0  0  0  0  0  0  0  0  0  0  0
  142.1540   79.5480  218.4510 C   0  0  0  0  0  0  0  0  0  0  0  0
  142.5010   80.1900  217.2710 O   0  0  0  0  0  0  0  0  0  0  0  0
  141.4180   80.2360  219.3910 C   0  0  0  0  0  0  0  0  0  0  0  0
  141.0510   79.6360  220.5770 C   0  0  0  0  0  0  0  0  0  0  0  0
  139.9800   71.9630  223.0660 C   0  0  0  0  0  0  0  0  0  0  0  0
  139.5130   70.6940  222.7880 C   0  0  0  0  0  0  0  0  0  0  0  0
  139.5480   69.7550  223.8050 C   0  0  0  0  0  0  0  0  0  0  0  0
  140.0360   70.0820  225.0520 C   0  0  0  0  0  0  0  0  0  0  0  0
  140.0970   69.1920  226.1020 C   0  0  0  0  0  0  0  0  0  0  0  0
  140.6010   69.5900  227.3340 C   0  0  0  0  0  0  0  0  0  0  0  0
  140.6900   68.4710  228.6930 Cl  0  0  0  0  0  0  0  0  0  0  0  0
  141.0590   70.8780  227.5590 C   0  0  0  0  0  0  0  0  0  0  0  0
  140.9920   71.7630  226.4930 C   0  0  0  0  0  0  0  0  0  0  0  0
  140.4930   71.3620  225.2820 C   0  0  0  0  0  0  0  0  0  0  0  0
  140.4550   72.2680  224.2900 N   0  0  0  0  0  0  0  0  0  0  0  0
  139.3540   74.5070  223.3520 H   0  0  0  0  0  0  0  0  0  0  0  0
  140.5806   75.6431  221.0784 H   0  0  0  0  0  0  0  0  0  0  0  0
  139.0132   75.0031  220.4679 H   0  0  0  0  0  0  0  0  0  0  0  0
  138.2525   79.2665  222.3395 H   0  0  0  0  0  0  0  0  0  0  0  0
  138.2307   78.1773  223.8391 H   0  0  0  0  0  0  0  0  0  0  0  0
  139.2917   80.6954  223.5558 H   0  0  0  0  0  0  0  0  0  0  0  0
  139.4373   79.4516  224.9150 H   0  0  0  0  0  0  0  0  0  0  0  0
  141.3754   80.2966  222.8568 H   0  0  0  0  0  0  0  0  0  0  0  0
  141.5302   79.9155  224.6547 H   0  0  0  0  0  0  0  0  0  0  0  0
  142.7366   78.3719  223.2029 H   0  0  0  0  0  0  0  0  0  0  0  0
  141.4690   77.6210  224.2402 H   0  0  0  0  0  0  0  0  0  0  0  0
  141.3411   76.6787  222.0090 H   0  0  0  0  0  0  0  0  0  0  0  0
  142.4390   76.6147  220.1202 H   0  0  0  0  0  0  0  0  0  0  0  0
  143.0962   77.6728  218.0137 H   0  0  0  0  0  0  0  0  0  0  0  0
  143.2950   79.8530  216.7060 H   0  0  0  0  0  0  0  0  0  0  0  0
  141.1197   81.2761  219.1930 H   0  0  0  0  0  0  0  0  0  0  0  0
  140.4626   80.2198  221.3001 H   0  0  0  0  0  0  0  0  0  0  0  0
  139.1257   70.4372  221.7910 H   0  0  0  0  0  0  0  0  0  0  0  0
  139.1818   68.7352  223.6154 H   0  0  0  0  0  0  0  0  0  0  0  0
  139.7443   68.1593  225.9639 H   0  0  0  0  0  0  0  0  0  0  0  0
  141.4573   71.1846  228.5375 H   0  0  0  0  0  0  0  0  0  0  0  0
  141.3432   72.7975  226.6214 H   0  0  0  0  0  0  0  0  0  0  0  0
  1  2  2  0
  2  3  1  0
  3  4  1  0
  4  5  1  0
  5  6  2  0
  5  7  1  0
  7  8  1  0
  8  9  1  0
  9 10  1  0
 10 11  1  0
 11 12  1  0
 12 13  1  0
 13 14  2  0
 14 15  1  0
 15 16  2  0
 16 17  1  0
 16 18  1  0
 18 19  2  0
  2 20  1  0
 20 21  2  0
 21 22  1  0
 22 23  2  0
 23 24  1  0
 24 25  2  0
 25 26  1  0
 25 27  1  0
 27 28  2  0
 28 29  1  0
 29 30  2  0
 12  7  1  0
 19 13  1  0
 30 20  1  0
 29 23  1  0
  3 31  1  0
  4 32  1  0
  4 33  1  0
  8 34  1  0
  8 35  1  0
  9 36  1  0
  9 37  1  0
 10 38  1  0
 10 39  1  0
 11 40  1  0
 11 41  1  0
 12 42  1  6
 14 43  1  0
 15 44  1  0
 17 45  1  0
 18 46  1  0
 19 47  1  0
 21 48  1  0
 22 49  1  0
 24 50  1  0
 27 51  1  0
 28 52  1  0
M  END
>  <smiles>  (8) 
O=C(NCC(=O)N1CCCCC1c1ccc(O)cc1)c1ccc2cc(Cl)ccc2n1

>  <score_type>  (8) 
oracle

>  <origin>  (8) 
autodockgpu

>  <m_score__min__energy>  (8) 
-9.3000000000000007

>  <m_primary>  (8) 
energy

>  <rmsd>  (8) 
3.6581540405807313

>  <m_score__min__rmsd>  (8) 
3.6581540405807313

>  <meeko>  (8) 
{"free_energy": -9.26, "intermolecular_energy": -11.05, "internal_energy": -1.42, "cluster_size": 19, "cluster_id": 1, "rank_in_cluster": 3}

>  <energy>  (8) 
-8.96

>  <cluster_rmsd>  (8) 
1.46

>  <cluster>  (8) 
1

$$$$

     RDKit          3D

 52 55  0  0  0  0  0  0  0  0999 V2000
  141.7760   79.0210  216.6760 O   0  0  0  0  0  0  0  0  0  0  0  0
  142.2450   78.5570  217.7590 C   0  0  0  0  0  0  0  0  0  0  0  0
  142.1910   79.3060  218.9610 N   0  0  0  0  0  0  0  0  0  0  0  0
  141.6130   80.6110  219.0210 C   0  0  0  0  0  0  0  0  0  0  0  0
  140.7380   80.7290  220.2400 C   0  0  0  0  0  0  0  0  0  0  0  0
  139.5760   81.1640  220.0280 O   0  0  0  0  0  0  0  0  0  0  0  0
  141.2120   80.3650  221.5350 N   0  0  0  0  0  0  0  0  0  0  0  0
  142.5940   80.5650  221.8260 C   0  0  0  0  0  0  0  0  0  0  0  0
  142.9920   80.4920  223.2410 C   0  0  0  0  0  0  0  0  0  0  0  0
  141.9440   80.0340  224.1980 C   0  0  0  0  0  0  0  0  0  0  0  0
  140.5480   80.3590  223.8260 C   0  0  0  0  0  0  0  0  0  0  0  0
  140.2360   79.8180  222.4550 C   0  0  2  0  0  0  0  0  0  0  0  0
  140.0810   78.3660  222.3930 C   0  0  0  0  0  0  0  0  0  0  0  0
  141.1210   77.5140  222.0020 C   0  0  0  0  0  0  0  0  0  0  0  0
  140.9680   76.1460  221.9500 C   0  0  0  0  0  0  0  0  0  0  0  0
  139.7740   75.5460  222.2840 C   0  0  0  0  0  0  0  0  0  0  0  0
  139.5690   74.1740  222.2480 O   0  0  0  0  0  0  0  0  0  0  0  0
  138.7350   76.3630  222.6730 C   0  0  0  0  0  0  0  0  0  0  0  0
  138.8950   77.7320  222.7230 C   0  0  0  0  0  0  0  0  0  0  0  0
  142.8570   77.2130  217.7680 C   0  0  0  0  0  0  0  0  0  0  0  0
  143.1310   76.5860  216.5690 C   0  0  0  0  0  0  0  0  0  0  0  0
  143.7050   75.3280  216.6140 C   0  0  0  0  0  0  0  0  0  0  0  0
  143.9920   74.7250  217.8200 C   0  0  0  0  0  0  0  0  0  0  0  0
  144.5640   73.4750  217.9290 C   0  0  0  0  0  0  0  0  0  0  0  0
  144.8250   72.9280  219.1790 C   0  0  0  0  0  0  0  0  0  0  0  0
  145.5550   71.3320  219.3450 Cl  0  0  0  0  0  0  0  0  0  0  0  0
  144.5320   73.6010  220.3530 C   0  0  0  0  0  0  0  0  0  0  0  0
  143.9580   74.8580  220.2280 C   0  0  0  0  0  0  0  0  0  0  0  0
  143.7010   75.3900  218.9920 C   0  0  0  0  0  0  0  0  0  0  0  0
  143.1440   76.6120  218.9400 N   0  0  0  0  0  0  0  0  0  0  0  0
  142.6060   78.8430  219.8250 H   0  0  0  0  0  0  0  0  0  0  0  0
  142.4144   81.3627  219.0733 H   0  0  0  0  0  0  0  0  0  0  0  0
  141.0037   80.7786  218.1206 H   0  0  0  0  0  0  0  0  0  0  0  0
  143.1633   79.7981  221.2803 H   0  0  0  0  0  0  0  0  0  0  0  0
  142.8052   81.6005  221.5209 H   0  0  0  0  0  0  0  0  0  0  0  0
  143.8410   79.7965  223.3152 H   0  0  0  0  0  0  0  0  0  0  0  0
  143.2261   81.5260  223.5342 H   0  0  0  0  0  0  0  0  0  0  0  0
  142.0237   78.9406  224.2886 H   0  0  0  0  0  0  0  0  0  0  0  0
  142.1378   80.5748  225.1360 H   0  0  0  0  0  0  0  0  0  0  0  0
  139.8624   79.9089  224.5590 H   0  0  0  0  0  0  0  0  0  0  0  0
  140.4237   81.4519  223.8176 H   0  0  0  0  0  0  0  0  0  0  0  0
  139.2317   80.1507  222.1537 H   0  0  0  0  0  0  0  0  0  0  0  0
  142.0922   77.9514  221.7273 H   0  0  0  0  0  0  0  0  0  0  0  0
  141.8163   75.5203  221.6355 H   0  0  0  0  0  0  0  0  0  0  0  0
  138.8510   73.7360  222.8440 H   0  0  0  0  0  0  0  0  0  0  0  0
  137.7668   75.9184  222.9468 H   0  0  0  0  0  0  0  0  0  0  0  0
  138.0410   78.3487  223.0397 H   0  0  0  0  0  0  0  0  0  0  0  0
  142.9004   77.0709  215.6090 H   0  0  0  0  0  0  0  0  0  0  0  0
  143.9353   74.8023  215.6756 H   0  0  0  0  0  0  0  0  0  0  0  0
  144.8151   72.9076  217.0207 H   0  0  0  0  0  0  0  0  0  0  0  0
  144.7442   73.1600  221.3381 H   0  0  0  0  0  0  0  0  0  0  0  0
  143.7066   75.4336  221.1311 H   0  0  0  0  0  0  0  0  0  0  0  0
  1  2  2  0
  2  3  1  0
  3  4  1  0
  4  5  1  0
  5  6  2  0
  5  7  1  0
  7  8  1  0
  8  9  1  0
  9 10  1  0
 10 11  1  0
 11 12  1  0
 12 13  1  0
 13 14  2  0
 14 15  1  0
 15 16  2  0
 16 17  1  0
 16 18  1  0
 18 19  2  0
  2 20  1  0
 20 21  2  0
 21 22  1  0
 22 23  2  0
 23 24  1  0
 24 25  2  0
 25 26  1  0
 25 27  1  0
 27 28  2  0
 28 29  1  0
 29 30  2  0
 12  7  1  0
 19 13  1  0
 30 20  1  0
 29 23  1  0
  3 31  1  0
  4 32  1  0
  4 33  1  0
  8 34  1  0
  8 35  1  0
  9 36  1  0
  9 37  1  0
 10 38  1  0
 10 39  1  0
 11 40  1  0
 11 41  1  0
 12 42  1  6
 14 43  1  0
 15 44  1  0
 17 45  1  0
 18 46  1  0
 19 47  1  0
 21 48  1  0
 22 49  1  0
 24 50  1  0
 27 51  1  0
 28 52  1  0
M  END
>  <smiles>  (9) 
O=C(NCC(=O)N1CCCCC1c1ccc(O)cc1)c1ccc2cc(Cl)ccc2n1

>  <score_type>  (9) 
oracle

>  <origin>  (9) 
autodockgpu

>  <m_score__min__energy>  (9) 
-9.3000000000000007

>  <m_primary>  (9) 
energy

>  <rmsd>  (9) 
8.548658149592228

>  <m_score__min__rmsd>  (9) 
8.548658149592228

>  <meeko>  (9) 
{"free_energy": -7.6, "intermolecular_energy": -9.39, "internal_energy": -2.22, "cluster_size": 3, "cluster_id": 5, "rank_in_cluster": 2}

>  <energy>  (9) 
-8.85

>  <cluster_rmsd>  (9) 
1.37

>  <cluster>  (9) 
1

$$$$

     RDKit          3D

 52 55  0  0  0  0  0  0  0  0999 V2000
  138.4770   71.5210  220.7200 O   0  0  0  0  0  0  0  0  0  0  0  0
  138.6670   72.0220  221.8680 C   0  0  0  0  0  0  0  0  0  0  0  0
  138.5610   73.4190  222.0850 N   0  0  0  0  0  0  0  0  0  0  0  0
  138.2360   74.3310  221.0360 C   0  0  0  0  0  0  0  0  0  0  0  0
  139.0020   75.6140  221.2150 C   0  0  0  0  0  0  0  0  0  0  0  0
  138.3220   76.5970  221.6100 O   0  0  0  0  0  0  0  0  0  0  0  0
  140.4020   75.6880  220.9510 N   0  0  0  0  0  0  0  0  0  0  0  0
  141.2080   74.5580  221.2770 C   0  0  0  0  0  0  0  0  0  0  0  0
  142.5660   74.5250  220.7100 C   0  0  0  0  0  0  0  0  0  0  0  0
  143.0180   75.7630  220.0100 C   0  0  0  0  0  0  0  0  0  0  0  0
  141.9520   76.5590  219.3610 C   0  0  0  0  0  0  0  0  0  0  0  0
  140.8880   76.9210  220.3650 C   0  0  2  0  0  0  0  0  0  0  0  0
  141.2850   77.9440  221.3310 C   0  0  0  0  0  0  0  0  0  0  0  0
  141.8270   79.1750  220.9440 C   0  0  0  0  0  0  0  0  0  0  0  0
  142.1950   80.1350  221.8610 C   0  0  0  0  0  0  0  0  0  0  0  0
  142.0450   79.9270  223.2140 C   0  0  0  0  0  0  0  0  0  0  0  0
  142.4000   80.8620  224.1770 O   0  0  0  0  0  0  0  0  0  0  0  0
  141.5130   78.7230  223.6210 C   0  0  0  0  0  0  0  0  0  0  0  0
  141.1470   77.7660  222.6980 C   0  0  0  0  0  0  0  0  0  0  0  0
  139.0070   71.1360  222.9990 C   0  0  0  0  0  0  0  0  0  0  0  0
  138.7080   69.7900  222.9190 C   0  0  0  0  0  0  0  0  0  0  0  0
  139.0410   68.9890  223.9970 C   0  0  0  0  0  0  0  0  0  0  0  0
  139.6500   69.5210  225.1120 C   0  0  0  0  0  0  0  0  0  0  0  0
  140.0050   68.7750  226.2150 C   0  0  0  0  0  0  0  0  0  0  0  0
  140.6180   69.3780  227.3060 C   0  0  0  0  0  0  0  0  0  0  0  0
  141.0810   68.4450  228.7280 Cl  0  0  0  0  0  0  0  0  0  0  0  0
  140.8970   70.7340  227.3350 C   0  0  0  0  0  0  0  0  0  0  0  0
  140.5350   71.4730  226.2190 C   0  0  0  0  0  0  0  0  0  0  0  0
  139.9300   70.8710  225.1470 C   0  0  0  0  0  0  0  0  0  0  0  0
  139.6040   71.6430  224.0960 N   0  0  0  0  0  0  0  0  0  0  0  0
  138.7360   73.7570  223.0790 H   0  0  0  0  0  0  0  0  0  0  0  0
  138.4996   73.8813  220.0674 H   0  0  0  0  0  0  0  0  0  0  0  0
  137.1577   74.5466  221.0656 H   0  0  0  0  0  0  0  0  0  0  0  0
  141.3038   74.5226  222.3722 H   0  0  0  0  0  0  0  0  0  0  0  0
  140.6892   73.6965  220.8312 H   0  0  0  0  0  0  0  0  0  0  0  0
  143.2688   74.3294  221.5333 H   0  0  0  0  0  0  0  0  0  0  0  0
  142.5437   73.7418  219.9380 H   0  0  0  0  0  0  0  0  0  0  0  0
  143.5174   76.4062  220.7495 H   0  0  0  0  0  0  0  0  0  0  0  0
  143.6765   75.4241  219.1966 H   0  0  0  0  0  0  0  0  0  0  0  0
  142.3878   77.4796  218.9456 H   0  0  0  0  0  0  0  0  0  0  0  0
  141.4979   75.9621  218.5564 H   0  0  0  0  0  0  0  0  0  0  0  0
  140.0582   77.4267  219.8495 H   0  0  0  0  0  0  0  0  0  0  0  0
  141.9636   79.3828  219.8725 H   0  0  0  0  0  0  0  0  0  0  0  0
  142.6170   81.0865  221.5054 H   0  0  0  0  0  0  0  0  0  0  0  0
  142.6860   81.8130  223.9020 H   0  0  0  0  0  0  0  0  0  0  0  0
  141.3787   78.5229  224.6943 H   0  0  0  0  0  0  0  0  0  0  0  0
  140.7262   76.8178  223.0639 H   0  0  0  0  0  0  0  0  0  0  0  0
  138.2210   69.3685  222.0273 H   0  0  0  0  0  0  0  0  0  0  0  0
  138.8163   67.9127  223.9630 H   0  0  0  0  0  0  0  0  0  0  0  0
  139.8015   67.6941  226.2316 H   0  0  0  0  0  0  0  0  0  0  0  0
  141.3832   71.2031  228.2031 H   0  0  0  0  0  0  0  0  0  0  0  0
  140.7357   72.5542  226.1939 H   0  0  0  0  0  0  0  0  0  0  0  0
  1  2  2  0
  2  3  1  0
  3  4  1  0
  4  5  1  0
  5  6  2  0
  5  7  1  0
  7  8  1  0
  8  9  1  0
  9 10  1  0
 10 11  1  0
 11 12  1  0
 12 13  1  0
 13 14  2  0
 14 15  1  0
 15 16  2  0
 16 17  1  0
 16 18  1  0
 18 19  2  0
  2 20  1  0
 20 21  2  0
 21 22  1  0
 22 23  2  0
 23 24  1  0
 24 25  2  0
 25 26  1  0
 25 27  1  0
 27 28  2  0
 28 29  1  0
 29 30  2  0
 12  7  1  0
 19 13  1  0
 30 20  1  0
 29 23  1  0
  3 31  1  0
  4 32  1  0
  4 33  1  0
  8 34  1  0
  8 35  1  0
  9 36  1  0
  9 37  1  0
 10 38  1  0
 10 39  1  0
 11 40  1  0
 11 41  1  0
 12 42  1  6
 14 43  1  0
 15 44  1  0
 17 45  1  0
 18 46  1  0
 19 47  1  0
 21 48  1  0
 22 49  1  0
 24 50  1  0
 27 51  1  0
 28 52  1  0
M  END
>  <smiles>  (10) 
O=C(NCC(=O)N1CCCCC1c1ccc(O)cc1)c1ccc2cc(Cl)ccc2n1

>  <score_type>  (10) 
oracle

>  <origin>  (10) 
autodockgpu

>  <m_score__min__energy>  (10) 
-9.3000000000000007

>  <m_primary>  (10) 
energy

>  <rmsd>  (10) 
1.9827230024693359

>  <m_score__min__rmsd>  (10) 
1.9827230024693359

>  <meeko>  (10) 
{"free_energy": -8.23, "intermolecular_energy": -10.02, "internal_energy": -1.71, "cluster_size": 18, "cluster_id": 2, "rank_in_cluster": 11}

>  <energy>  (10) 
-8.69

>  <cluster_rmsd>  (10) 
1.8

>  <cluster>  (10) 
1

$$$$

     RDKit          3D

 52 55  0  0  0  0  0  0  0  0999 V2000
  140.1410   72.2220  220.8370 O   0  0  0  0  0  0  0  0  0  0  0  0
  139.8560   72.5650  222.0240 C   0  0  0  0  0  0  0  0  0  0  0  0
  139.5030   73.9010  222.3370 N   0  0  0  0  0  0  0  0  0  0  0  0
  139.4490   74.9280  221.3450 C   0  0  0  0  0  0  0  0  0  0  0  0
  140.5730   75.9060  221.5560 C   0  0  0  0  0  0  0  0  0  0  0  0
  141.7290   75.4450  221.3700 O   0  0  0  0  0  0  0  0  0  0  0  0
  140.3220   77.2570  221.9370 N   0  0  0  0  0  0  0  0  0  0  0  0
  138.9820   77.6290  222.2540 C   0  0  0  0  0  0  0  0  0  0  0  0
  138.7950   78.9150  222.9460 C   0  0  0  0  0  0  0  0  0  0  0  0
  140.0070   79.7760  223.0750 C   0  0  0  0  0  0  0  0  0  0  0  0
  141.2980   79.0580  223.1590 C   0  0  0  0  0  0  0  0  0  0  0  0
  141.4660   78.1460  221.9710 C   0  0  2  0  0  0  0  0  0  0  0  0
  141.7470   78.8320  220.7110 C   0  0  0  0  0  0  0  0  0  0  0  0
  141.9810   78.1440  219.5150 C   0  0  0  0  0  0  0  0  0  0  0  0
  142.2430   78.7980  218.3320 C   0  0  0  0  0  0  0  0  0  0  0  0
  142.2850   80.1730  218.2680 C   0  0  0  0  0  0  0  0  0  0  0  0
  142.5440   80.8790  217.1010 O   0  0  0  0  0  0  0  0  0  0  0  0
  142.0580   80.8740  219.4320 C   0  0  0  0  0  0  0  0  0  0  0  0
  141.7970   80.2130  220.6140 C   0  0  0  0  0  0  0  0  0  0  0  0
  139.8930   71.5540  223.1000 C   0  0  0  0  0  0  0  0  0  0  0  0
  139.4040   70.2860  222.8540 C   0  0  0  0  0  0  0  0  0  0  0  0
  139.4540   69.3630  223.8840 C   0  0  0  0  0  0  0  0  0  0  0  0
  139.9770   69.7040  225.1130 C   0  0  0  0  0  0  0  0  0  0  0  0
  140.0540   68.8290  226.1760 C   0  0  0  0  0  0  0  0  0  0  0  0
  140.5940   69.2410  227.3880 C   0  0  0  0  0  0  0  0  0  0  0  0
  140.7040   68.1410  228.7620 Cl  0  0  0  0  0  0  0  0  0  0  0  0
  141.0720   70.5260  227.5810 C   0  0  0  0  0  0  0  0  0  0  0  0
  140.9880   71.3950  226.5030 C   0  0  0  0  0  0  0  0  0  0  0  0
  140.4540   70.9810  225.3110 C   0  0  0  0  0  0  0  0  0  0  0  0
  140.4020   71.8720  224.3060 N   0  0  0  0  0  0  0  0  0  0  0  0
  139.2790   74.1040  223.3570 H   0  0  0  0  0  0  0  0  0  0  0  0
  139.5422   74.4756  220.3467 H   0  0  0  0  0  0  0  0  0  0  0  0
  138.4886   75.4583  221.4257 H   0  0  0  0  0  0  0  0  0  0  0  0
  138.4173   77.6735  221.3111 H   0  0  0  0  0  0  0  0  0  0  0  0
  138.6328   76.8663  222.9656 H   0  0  0  0  0  0  0  0  0  0  0  0
  138.0348   79.4863  222.3930 H   0  0  0  0  0  0  0  0  0  0  0  0
  138.5068   78.6562  223.9755 H   0  0  0  0  0  0  0  0  0  0  0  0
  140.0455   80.4390  222.1981 H   0  0  0  0  0  0  0  0  0  0  0  0
  139.8967   80.3076  224.0317 H   0  0  0  0  0  0  0  0  0  0  0  0
  142.1198   79.7891  223.1746 H   0  0  0  0  0  0  0  0  0  0  0  0
  141.3135   78.4549  224.0788 H   0  0  0  0  0  0  0  0  0  0  0  0
  142.3821   77.5501  222.0965 H   0  0  0  0  0  0  0  0  0  0  0  0
  141.9548   77.0443  219.5202 H   0  0  0  0  0  0  0  0  0  0  0  0
  142.4224   78.2103  217.4196 H   0  0  0  0  0  0  0  0  0  0  0  0
  143.2740   80.5590  216.4480 H   0  0  0  0  0  0  0  0  0  0  0  0
  142.0852   81.9736  219.4186 H   0  0  0  0  0  0  0  0  0  0  0  0
  141.6205   80.8096  221.5211 H   0  0  0  0  0  0  0  0  0  0  0  0
  138.9883   70.0184  221.8714 H   0  0  0  0  0  0  0  0  0  0  0  0
  139.0717   68.3447  223.7199 H   0  0  0  0  0  0  0  0  0  0  0  0
  139.6857   67.7986  226.0637 H   0  0  0  0  0  0  0  0  0  0  0  0
  141.4985   70.8430  228.5441 H   0  0  0  0  0  0  0  0  0  0  0  0
  141.3539   72.4272  226.6062 H   0  0  0  0  0  0  0  0  0  0  0  0
  1  2  2  0
  2  3  1  0
  3  4  1  0
  4  5  1  0
  5  6  2  0
  5  7  1  0
  7  8  1  0
  8  9  1  0
  9 10  1  0
 10 11  1  0
 11 12  1  0
 12 13  1  0
 13 14  2  0
 14 15  1  0
 15 16  2  0
 16 17  1  0
 16 18  1  0
 18 19  2  0
  2 20  1  0
 20 21  2  0
 21 22  1  0
 22 23  2  0
 23 24  1  0
 24 25  2  0
 25 26  1  0
 25 27  1  0
 27 28  2  0
 28 29  1  0
 29 30  2  0
 12  7  1  0
 19 13  1  0
 30 20  1  0
 29 23  1  0
  3 31  1  0
  4 32  1  0
  4 33  1  0
  8 34  1  0
  8 35  1  0
  9 36  1  0
  9 37  1  0
 10 38  1  0
 10 39  1  0
 11 40  1  0
 11 41  1  0
 12 42  1  1
 14 43  1  0
 15 44  1  0
 17 45  1  0
 18 46  1  0
 19 47  1  0
 21 48  1  0
 22 49  1  0
 24 50  1  0
 27 51  1  0
 28 52  1  0
M  END
>  <smiles>  (11) 
O=C(NCC(=O)N1CCCCC1c1ccc(O)cc1)c1ccc2cc(Cl)ccc2n1

>  <score_type>  (11) 
oracle

>  <origin>  (11) 
autodockgpu

>  <m_score__min__energy>  (11) 
-9.3000000000000007

>  <m_primary>  (11) 
energy

>  <rmsd>  (11) 
3.1606110517058346

>  <m_score__min__rmsd>  (11) 
3.1606110517058346

>  <meeko>  (11) 
{"free_energy": -9.17, "intermolecular_energy": -10.96, "internal_energy": -1.33, "cluster_size": 19, "cluster_id": 1, "rank_in_cluster": 5}

>  <energy>  (11) 
-8.55

>  <cluster_rmsd>  (11) 
0.76

>  <cluster>  (11) 
1

$$$$

     RDKit          3D

 52 55  0  0  0  0  0  0  0  0999 V2000
  135.0040   76.6990  224.2280 O   0  0  0  0  0  0  0  0  0  0  0  0
  135.6570   75.6350  224.0070 C   0  0  0  0  0  0  0  0  0  0  0  0
  136.8470   75.6510  223.2380 N   0  0  0  0  0  0  0  0  0  0  0  0
  137.3730   76.8530  222.6730 C   0  0  0  0  0  0  0  0  0  0  0  0
  138.8760   76.7800  222.6180 C   0  0  0  0  0  0  0  0  0  0  0  0
  139.3540   75.6240  222.4740 O   0  0  0  0  0  0  0  0  0  0  0  0
  139.6810   77.9520  222.7240 N   0  0  0  0  0  0  0  0  0  0  0  0
  139.0350   79.1890  223.0120 C   0  0  0  0  0  0  0  0  0  0  0  0
  139.8960   80.3070  223.4310 C   0  0  0  0  0  0  0  0  0  0  0  0
  141.3670   80.0790  223.3310 C   0  0  0  0  0  0  0  0  0  0  0  0
  141.8130   78.6790  223.5080 C   0  0  0  0  0  0  0  0  0  0  0  0
  141.1070   77.7790  222.5270 C   0  0  2  0  0  0  0  0  0  0  0  0
  141.5560   77.9150  221.1430 C   0  0  0  0  0  0  0  0  0  0  0  0
  142.1380   76.8590  220.4330 C   0  0  0  0  0  0  0  0  0  0  0  0
  142.5570   76.9940  219.1280 C   0  0  0  0  0  0  0  0  0  0  0  0
  142.4180   78.1870  218.4520 C   0  0  0  0  0  0  0  0  0  0  0  0
  142.8230   78.3740  217.1380 O   0  0  0  0  0  0  0  0  0  0  0  0
  141.8480   79.2420  219.1290 C   0  0  0  0  0  0  0  0  0  0  0  0
  141.4320   79.1000  220.4360 C   0  0  0  0  0  0  0  0  0  0  0  0
  135.1690   74.3560  224.5620 C   0  0  0  0  0  0  0  0  0  0  0  0
  134.2480   74.3720  225.5910 C   0  0  0  0  0  0  0  0  0  0  0  0
  133.8120   73.1560  226.0870 C   0  0  0  0  0  0  0  0  0  0  0  0
  134.2850   71.9700  225.5670 C   0  0  0  0  0  0  0  0  0  0  0  0
  133.8880   70.7290  226.0180 C   0  0  0  0  0  0  0  0  0  0  0  0
  134.4070   69.5750  225.4470 C   0  0  0  0  0  0  0  0  0  0  0  0
  133.9150   67.9760  226.0060 Cl  0  0  0  0  0  0  0  0  0  0  0  0
  135.3280   69.6150  224.4140 C   0  0  0  0  0  0  0  0  0  0  0  0
  135.7180   70.8690  223.9700 C   0  0  0  0  0  0  0  0  0  0  0  0
  135.2030   72.0040  224.5390 C   0  0  0  0  0  0  0  0  0  0  0  0
  135.6220   73.1890  224.0630 N   0  0  0  0  0  0  0  0  0  0  0  0
  137.3330   74.7150  223.1010 H   0  0  0  0  0  0  0  0  0  0  0  0
  136.9768   76.9810  221.6549 H   0  0  0  0  0  0  0  0  0  0  0  0
  137.0751   77.7072  223.2987 H   0  0  0  0  0  0  0  0  0  0  0  0
  138.4996   79.5038  222.1041 H   0  0  0  0  0  0  0  0  0  0  0  0
  138.3910   78.9817  223.8793 H   0  0  0  0  0  0  0  0  0  0  0  0
  139.6476   81.1754  222.8032 H   0  0  0  0  0  0  0  0  0  0  0  0
  139.6924   80.4497  224.5025 H   0  0  0  0  0  0  0  0  0  0  0  0
  141.6941   80.4146  222.3358 H   0  0  0  0  0  0  0  0  0  0  0  0
  141.8151   80.6437  224.1619 H   0  0  0  0  0  0  0  0  0  0  0  0
  142.8984   78.6195  223.3393 H   0  0  0  0  0  0  0  0  0  0  0  0
  141.5730   78.3528  224.5307 H   0  0  0  0  0  0  0  0  0  0  0  0
  141.3755   76.7326  222.7340 H   0  0  0  0  0  0  0  0  0  0  0  0
  142.2652   75.8881  220.9341 H   0  0  0  0  0  0  0  0  0  0  0  0
  143.0113   76.1332  218.6155 H   0  0  0  0  0  0  0  0  0  0  0  0
  143.5900   79.0260  216.9150 H   0  0  0  0  0  0  0  0  0  0  0  0
  141.7230   80.2097  218.6211 H   0  0  0  0  0  0  0  0  0  0  0  0
  140.9811   79.9673  220.9404 H   0  0  0  0  0  0  0  0  0  0  0  0
  133.8732   75.3206  226.0029 H   0  0  0  0  0  0  0  0  0  0  0  0
  133.0787   73.1354  226.9066 H   0  0  0  0  0  0  0  0  0  0  0  0
  133.1556   70.6529  226.8352 H   0  0  0  0  0  0  0  0  0  0  0  0
  135.7314   68.6947  223.9665 H   0  0  0  0  0  0  0  0  0  0  0  0
  136.4487   70.9537  223.1522 H   0  0  0  0  0  0  0  0  0  0  0  0
  1  2  2  0
  2  3  1  0
  3  4  1  0
  4  5  1  0
  5  6  2  0
  5  7  1  0
  7  8  1  0
  8  9  1  0
  9 10  1  0
 10 11  1  0
 11 12  1  0
 12 13  1  0
 13 14  2  0
 14 15  1  0
 15 16  2  0
 16 17  1  0
 16 18  1  0
 18 19  2  0
  2 20  1  0
 20 21  2  0
 21 22  1  0
 22 23  2  0
 23 24  1  0
 24 25  2  0
 25 26  1  0
 25 27  1  0
 27 28  2  0
 28 29  1  0
 29 30  2  0
 12  7  1  0
 19 13  1  0
 30 20  1  0
 29 23  1  0
  3 31  1  0
  4 32  1  0
  4 33  1  0
  8 34  1  0
  8 35  1  0
  9 36  1  0
  9 37  1  0
 10 38  1  0
 10 39  1  0
 11 40  1  0
 11 41  1  0
 12 42  1  1
 14 43  1  0
 15 44  1  0
 17 45  1  0
 18 46  1  0
 19 47  1  0
 21 48  1  0
 22 49  1  0
 24 50  1  0
 27 51  1  0
 28 52  1  0
M  END
>  <smiles>  (12) 
O=C(NCC(=O)N1CCCCC1c1ccc(O)cc1)c1ccc2cc(Cl)ccc2n1

>  <score_type>  (12) 
oracle

>  <origin>  (12) 
autodockgpu

>  <m_score__min__energy>  (12) 
-9.3000000000000007

>  <m_primary>  (12) 
energy

>  <rmsd>  (12) 
5.9110241381511495

>  <m_score__min__rmsd>  (12) 
5.9110241381511495

>  <meeko>  (12) 
{"free_energy": -7.63, "intermolecular_energy": -9.41, "internal_energy": -1.91, "cluster_size": 2, "cluster_id": 4, "rank_in_cluster": 2}

>  <energy>  (12) 
-8.43

>  <cluster_rmsd>  (12) 
1.35

>  <cluster>  (12) 
1

$$$$

     RDKit          3D

 52 55  0  0  0  0  0  0  0  0999 V2000
  138.0820   72.0270  221.6050 O   0  0  0  0  0  0  0  0  0  0  0  0
  139.0600   72.2150  222.3900 C   0  0  0  0  0  0  0  0  0  0  0  0
  139.9140   73.3360  222.2410 N   0  0  0  0  0  0  0  0  0  0  0  0
  139.7260   74.3070  221.2110 C   0  0  0  0  0  0  0  0  0  0  0  0
  140.6040   75.5030  221.4650 C   0  0  0  0  0  0  0  0  0  0  0  0
  141.8420   75.2830  221.4080 O   0  0  0  0  0  0  0  0  0  0  0  0
  140.0500   76.7860  221.7460 N   0  0  0  0  0  0  0  0  0  0  0  0
  138.6330   76.9330  221.6960 C   0  0  0  0  0  0  0  0  0  0  0  0
  138.0680   78.1530  222.2950 C   0  0  0  0  0  0  0  0  0  0  0  0
  139.0510   79.1910  222.7230 C   0  0  0  0  0  0  0  0  0  0  0  0
  140.3730   78.6850  223.1540 C   0  0  0  0  0  0  0  0  0  0  0  0
  140.9880   77.8430  222.0660 C   0  0  2  0  0  0  0  0  0  0  0  0
  141.4760   78.5990  220.9130 C   0  0  0  0  0  0  0  0  0  0  0  0
  141.7710   77.9940  219.6860 C   0  0  0  0  0  0  0  0  0  0  0  0
  142.2280   78.7140  218.6040 C   0  0  0  0  0  0  0  0  0  0  0  0
  142.4150   80.0770  218.6790 C   0  0  0  0  0  0  0  0  0  0  0  0
  142.8720   80.8470  217.6190 O   0  0  0  0  0  0  0  0  0  0  0  0
  142.1300   80.6970  219.8760 C   0  0  0  0  0  0  0  0  0  0  0  0
  141.6740   79.9690  220.9550 C   0  0  0  0  0  0  0  0  0  0  0  0
  139.3130   71.2490  223.4780 C   0  0  0  0  0  0  0  0  0  0  0  0
  138.9250   69.9340  223.3190 C   0  0  0  0  0  0  0  0  0  0  0  0
  139.1780   69.0550  224.3580 C   0  0  0  0  0  0  0  0  0  0  0  0
  139.7960   69.4860  225.5130 C   0  0  0  0  0  0  0  0  0  0  0  0
  140.0740   68.6590  226.5810 C   0  0  0  0  0  0  0  0  0  0  0  0
  140.7000   69.1620  227.7140 C   0  0  0  0  0  0  0  0  0  0  0  0
  141.0660   68.1260  229.0930 Cl  0  0  0  0  0  0  0  0  0  0  0  0
  141.0690   70.4920  227.8220 C   0  0  0  0  0  0  0  0  0  0  0  0
  140.7840   71.3120  226.7400 C   0  0  0  0  0  0  0  0  0  0  0  0
  140.1650   70.8090  225.6260 C   0  0  0  0  0  0  0  0  0  0  0  0
  139.9170   71.6560  224.6120 N   0  0  0  0  0  0  0  0  0  0  0  0
  140.7110   73.4190  222.9420 H   0  0  0  0  0  0  0  0  0  0  0  0
  139.9876   73.8627  220.2393 H   0  0  0  0  0  0  0  0  0  0  0  0
  138.6735   74.6266  221.2036 H   0  0  0  0  0  0  0  0  0  0  0  0
  138.3341   76.9135  220.6376 H   0  0  0  0  0  0  0  0  0  0  0  0
  138.2375   76.1058  222.3037 H   0  0  0  0  0  0  0  0  0  0  0  0
  137.3968   78.6113  221.5538 H   0  0  0  0  0  0  0  0  0  0  0  0
  137.5660   77.8240  223.2168 H   0  0  0  0  0  0  0  0  0  0  0  0
  139.2107   79.8746  221.8761 H   0  0  0  0  0  0  0  0  0  0  0  0
  138.6113   79.6726  223.6089 H   0  0  0  0  0  0  0  0  0  0  0  0
  141.0344   79.5364  223.3722 H   0  0  0  0  0  0  0  0  0  0  0  0
  140.2447   78.0683  224.0558 H   0  0  0  0  0  0  0  0  0  0  0  0
  141.9216   77.3953  222.4375 H   0  0  0  0  0  0  0  0  0  0  0  0
  141.6334   76.9076  219.5821 H   0  0  0  0  0  0  0  0  0  0  0  0
  142.4479   78.1905  217.6619 H   0  0  0  0  0  0  0  0  0  0  0  0
  143.6680   80.5290  217.0460 H   0  0  0  0  0  0  0  0  0  0  0  0
  142.2676   81.7841  219.9721 H   0  0  0  0  0  0  0  0  0  0  0  0
  141.4574   80.5015  221.8928 H   0  0  0  0  0  0  0  0  0  0  0  0
  138.4307   69.5954  222.3965 H   0  0  0  0  0  0  0  0  0  0  0  0
  138.8825   67.9999  224.2612 H   0  0  0  0  0  0  0  0  0  0  0  0
  139.7984   67.5951  226.5352 H   0  0  0  0  0  0  0  0  0  0  0  0
  141.5650   70.8804  228.7237 H   0  0  0  0  0  0  0  0  0  0  0  0
  141.0577   72.3768  226.7768 H   0  0  0  0  0  0  0  0  0  0  0  0
  1  2  2  0
  2  3  1  0
  3  4  1  0
  4  5  1  0
  5  6  2  0
  5  7  1  0
  7  8  1  0
  8  9  1  0
  9 10  1  0
 10 11  1  0
 11 12  1  0
 12 13  1  0
 13 14  2  0
 14 15  1  0
 15 16  2  0
 16 17  1  0
 16 18  1  0
 18 19  2  0
  2 20  1  0
 20 21  2  0
 21 22  1  0
 22 23  2  0
 23 24  1  0
 24 25  2  0
 25 26  1  0
 25 27  1  0
 27 28  2  0
 28 29  1  0
 29 30  2  0
 12  7  1  0
 19 13  1  0
 30 20  1  0
 29 23  1  0
  3 31  1  0
  4 32  1  0
  4 33  1  0
  8 34  1  0
  8 35  1  0
  9 36  1  0
  9 37  1  0
 10 38  1  0
 10 39  1  0
 11 40  1  0
 11 41  1  0
 12 42  1  1
 14 43  1  0
 15 44  1  0
 17 45  1  0
 18 46  1  0
 19 47  1  0
 21 48  1  0
 22 49  1  0
 24 50  1  0
 27 51  1  0
 28 52  1  0
M  END
>  <smiles>  (13) 
O=C(NCC(=O)N1CCCCC1c1ccc(O)cc1)c1ccc2cc(Cl)ccc2n1

>  <score_type>  (13) 
oracle

>  <origin>  (13) 
autodockgpu

>  <m_score__min__energy>  (13) 
-9.3000000000000007

>  <m_primary>  (13) 
energy

>  <rmsd>  (13) 
2.883793092869804

>  <m_score__min__rmsd>  (13) 
2.883793092869804

>  <meeko>  (13) 
{"free_energy": -8.28, "intermolecular_energy": -10.07, "internal_energy": -1.59, "cluster_size": 19, "cluster_id": 1, "rank_in_cluster": 16}

>  <energy>  (13) 
-8.39

>  <cluster_rmsd>  (13) 
1.15

>  <cluster>  (13) 
1

$$$$

     RDKit          3D

 52 55  0  0  0  0  0  0  0  0999 V2000
  140.2100   72.5180  220.6650 O   0  0  0  0  0  0  0  0  0  0  0  0
  139.9700   72.9090  221.8470 C   0  0  0  0  0  0  0  0  0  0  0  0
  139.7600   74.2790  222.1380 N   0  0  0  0  0  0  0  0  0  0  0  0
  139.8060   75.2890  221.1290 C   0  0  0  0  0  0  0  0  0  0  0  0
  141.2330   75.5500  220.7270 C   0  0  0  0  0  0  0  0  0  0  0  0
  142.0540   74.6510  221.0450 O   0  0  0  0  0  0  0  0  0  0  0  0
  141.6050   76.7390  220.0330 N   0  0  0  0  0  0  0  0  0  0  0  0
  142.6910   76.6690  219.1130 C   0  0  0  0  0  0  0  0  0  0  0  0
  142.8490   77.7990  218.1830 C   0  0  0  0  0  0  0  0  0  0  0  0
  141.9690   78.9800  218.4260 C   0  0  0  0  0  0  0  0  0  0  0  0
  140.6530   78.6850  219.0340 C   0  0  0  0  0  0  0  0  0  0  0  0
  140.8330   77.9300  220.3260 C   0  0  2  0  0  0  0  0  0  0  0  0
  141.3440   78.7340  221.4350 C   0  0  0  0  0  0  0  0  0  0  0  0
  141.3910   78.2580  222.7500 C   0  0  0  0  0  0  0  0  0  0  0  0
  141.8760   79.0210  223.7890 C   0  0  0  0  0  0  0  0  0  0  0  0
  142.3440   80.3000  223.5810 C   0  0  0  0  0  0  0  0  0  0  0  0
  142.8430   81.1080  224.5930 O   0  0  0  0  0  0  0  0  0  0  0  0
  142.3090   80.7910  222.2940 C   0  0  0  0  0  0  0  0  0  0  0  0
  141.8210   80.0220  221.2590 C   0  0  0  0  0  0  0  0  0  0  0  0
  139.9090   71.9170  222.9400 C   0  0  0  0  0  0  0  0  0  0  0  0
  139.2790   70.7080  222.7230 C   0  0  0  0  0  0  0  0  0  0  0  0
  139.2400   69.8020  223.7680 C   0  0  0  0  0  0  0  0  0  0  0  0
  139.8130   70.1030  224.9850 C   0  0  0  0  0  0  0  0  0  0  0  0
  139.8070   69.2420  226.0630 C   0  0  0  0  0  0  0  0  0  0  0  0
  140.4050   69.6120  227.2610 C   0  0  0  0  0  0  0  0  0  0  0  0
  140.4110   68.5300  228.6530 Cl  0  0  0  0  0  0  0  0  0  0  0  0
  141.0260   70.8380  227.4260 C   0  0  0  0  0  0  0  0  0  0  0  0
  141.0250   71.6940  226.3340 C   0  0  0  0  0  0  0  0  0  0  0  0
  140.4320   71.3230  225.1550 C   0  0  0  0  0  0  0  0  0  0  0  0
  140.4660   72.1970  224.1350 N   0  0  0  0  0  0  0  0  0  0  0  0
  139.5650   74.5220  223.1560 H   0  0  0  0  0  0  0  0  0  0  0  0
  139.2357   74.9527  220.2506 H   0  0  0  0  0  0  0  0  0  0  0  0
  139.3671   76.2163  221.5258 H   0  0  0  0  0  0  0  0  0  0  0  0
  143.6184   76.5885  219.6990 H   0  0  0  0  0  0  0  0  0  0  0  0
  142.4710   75.8005  218.4748 H   0  0  0  0  0  0  0  0  0  0  0  0
  143.8930   78.1402  218.2436 H   0  0  0  0  0  0  0  0  0  0  0  0
  142.5560   77.4115  217.1961 H   0  0  0  0  0  0  0  0  0  0  0  0
  142.5045   79.6682  219.0965 H   0  0  0  0  0  0  0  0  0  0  0  0
  141.7529   79.4022  217.4335 H   0  0  0  0  0  0  0  0  0  0  0  0
  140.1262   79.6294  219.2356 H   0  0  0  0  0  0  0  0  0  0  0  0
  140.0663   78.0684  218.3372 H   0  0  0  0  0  0  0  0  0  0  0  0
  139.8474   77.6341  220.7147 H   0  0  0  0  0  0  0  0  0  0  0  0
  141.0287   77.2410  222.9608 H   0  0  0  0  0  0  0  0  0  0  0  0
  141.8900   78.6007  224.8054 H   0  0  0  0  0  0  0  0  0  0  0  0
  142.2150   81.7320  225.1210 H   0  0  0  0  0  0  0  0  0  0  0  0
  142.6746   81.8082  222.0900 H   0  0  0  0  0  0  0  0  0  0  0  0
  141.8101   80.4515  220.2464 H   0  0  0  0  0  0  0  0  0  0  0  0
  138.8226   70.4724  221.7503 H   0  0  0  0  0  0  0  0  0  0  0  0
  138.7457   68.8297  223.6259 H   0  0  0  0  0  0  0  0  0  0  0  0
  139.3259   68.2568  225.9733 H   0  0  0  0  0  0  0  0  0  0  0  0
  141.4983   71.1205  228.3784 H   0  0  0  0  0  0  0  0  0  0  0  0
  141.5049   72.6804  226.4151 H   0  0  0  0  0  0  0  0  0  0  0  0
  1  2  2  0
  2  3  1  0
  3  4  1  0
  4  5  1  0
  5  6  2  0
  5  7  1  0
  7  8  1  0
  8  9  1  0
  9 10  1  0
 10 11  1  0
 11 12  1  0
 12 13  1  0
 13 14  2  0
 14 15  1  0
 15 16  2  0
 16 17  1  0
 16 18  1  0
 18 19  2  0
  2 20  1  0
 20 21  2  0
 21 22  1  0
 22 23  2  0
 23 24  1  0
 24 25  2  0
 25 26  1  0
 25 27  1  0
 27 28  2  0
 28 29  1  0
 29 30  2  0
 12  7  1  0
 19 13  1  0
 30 20  1  0
 29 23  1  0
  3 31  1  0
  4 32  1  0
  4 33  1  0
  8 34  1  0
  8 35  1  0
  9 36  1  0
  9 37  1  0
 10 38  1  0
 10 39  1  0
 11 40  1  0
 11 41  1  0
 12 42  1  1
 14 43  1  0
 15 44  1  0
 17 45  1  0
 18 46  1  0
 19 47  1  0
 21 48  1  0
 22 49  1  0
 24 50  1  0
 27 51  1  0
 28 52  1  0
M  END
>  <smiles>  (14) 
O=C(NCC(=O)N1CCCCC1c1ccc(O)cc1)c1ccc2cc(Cl)ccc2n1

>  <score_type>  (14) 
oracle

>  <origin>  (14) 
autodockgpu

>  <m_score__min__energy>  (14) 
-9.3000000000000007

>  <m_primary>  (14) 
energy

>  <rmsd>  (14) 
2.2882942675276605

>  <m_score__min__rmsd>  (14) 
2.2882942675276605

>  <meeko>  (14) 
{"free_energy": -8.65, "intermolecular_energy": -10.44, "internal_energy": -1.3, "cluster_size": 18, "cluster_id": 2, "rank_in_cluster": 8}

>  <energy>  (14) 
-8.38

>  <cluster_rmsd>  (14) 
0.84

>  <cluster>  (14) 
1

$$$$

     RDKit          3D

 52 55  0  0  0  0  0  0  0  0999 V2000
  140.7910   72.5730  220.8850 O   0  0  0  0  0  0  0  0  0  0  0  0
  140.1120   72.8010  221.9320 C   0  0  0  0  0  0  0  0  0  0  0  0
  139.3820   74.0060  222.0830 N   0  0  0  0  0  0  0  0  0  0  0  0
  139.3670   75.0200  221.0780 C   0  0  0  0  0  0  0  0  0  0  0  0
  140.7410   75.6160  220.9280 C   0  0  0  0  0  0  0  0  0  0  0  0
  141.3010   75.9540  222.0030 O   0  0  0  0  0  0  0  0  0  0  0  0
  141.3480   75.7730  219.6470 N   0  0  0  0  0  0  0  0  0  0  0  0
  140.5400   75.5710  218.4900 C   0  0  0  0  0  0  0  0  0  0  0  0
  141.0840   76.0460  217.2080 C   0  0  0  0  0  0  0  0  0  0  0  0
  142.4990   76.5190  217.2280 C   0  0  0  0  0  0  0  0  0  0  0  0
  142.9620   77.1080  218.5040 C   0  0  0  0  0  0  0  0  0  0  0  0
  142.7520   76.1320  219.6330 C   0  0  2  0  0  0  0  0  0  0  0  0
  143.6750   74.9990  219.6380 C   0  0  0  0  0  0  0  0  0  0  0  0
  144.2320   74.4860  220.8150 C   0  0  0  0  0  0  0  0  0  0  0  0
  145.0990   73.4160  220.8110 C   0  0  0  0  0  0  0  0  0  0  0  0
  145.4610   72.7920  219.6370 C   0  0  0  0  0  0  0  0  0  0  0  0
  146.3290   71.7110  219.5800 O   0  0  0  0  0  0  0  0  0  0  0  0
  144.9260   73.2780  218.4640 C   0  0  0  0  0  0  0  0  0  0  0  0
  144.0590   74.3510  218.4760 C   0  0  0  0  0  0  0  0  0  0  0  0
  140.0840   71.7940  223.0120 C   0  0  0  0  0  0  0  0  0  0  0  0
  139.5620   70.5420  222.7560 C   0  0  0  0  0  0  0  0  0  0  0  0
  139.5510   69.6230  223.7910 C   0  0  0  0  0  0  0  0  0  0  0  0
  140.0460   69.9530  225.0340 C   0  0  0  0  0  0  0  0  0  0  0  0
  140.0620   69.0810  226.1020 C   0  0  0  0  0  0  0  0  0  0  0  0
  140.5770   69.4820  227.3290 C   0  0  0  0  0  0  0  0  0  0  0  0
  140.6090   68.3860  228.7100 Cl  0  0  0  0  0  0  0  0  0  0  0  0
  141.0900   70.7520  227.5320 C   0  0  0  0  0  0  0  0  0  0  0  0
  141.0680   71.6180  226.4490 C   0  0  0  0  0  0  0  0  0  0  0  0
  140.5580   71.2160  225.2420 C   0  0  0  0  0  0  0  0  0  0  0  0
  140.5650   72.1020  224.2320 N   0  0  0  0  0  0  0  0  0  0  0  0
  138.8390   74.1180  222.9920 H   0  0  0  0  0  0  0  0  0  0  0  0
  139.0546   74.5789  220.1200 H   0  0  0  0  0  0  0  0  0  0  0  0
  138.6607   75.8102  221.3726 H   0  0  0  0  0  0  0  0  0  0  0  0
  140.3600   74.4900  218.3947 H   0  0  0  0  0  0  0  0  0  0  0  0
  139.6374   76.1761  218.6608 H   0  0  0  0  0  0  0  0  0  0  0  0
  141.0171   75.2176  216.4874 H   0  0  0  0  0  0  0  0  0  0  0  0
  140.4825   76.9275  216.9413 H   0  0  0  0  0  0  0  0  0  0  0  0
  143.1457   75.6593  216.9986 H   0  0  0  0  0  0  0  0  0  0  0  0
  142.5540   77.3299  216.4867 H   0  0  0  0  0  0  0  0  0  0  0  0
  144.0325   77.3488  218.4260 H   0  0  0  0  0  0  0  0  0  0  0  0
  142.3858   78.0226  218.7077 H   0  0  0  0  0  0  0  0  0  0  0  0
  143.0082   76.6181  220.5860 H   0  0  0  0  0  0  0  0  0  0  0  0
  143.9684   74.9531  221.7754 H   0  0  0  0  0  0  0  0  0  0  0  0
  145.5107   73.0522  221.7640 H   0  0  0  0  0  0  0  0  0  0  0  0
  146.6030   71.2140  220.4400 H   0  0  0  0  0  0  0  0  0  0  0  0
  145.1931   72.8052  217.5074 H   0  0  0  0  0  0  0  0  0  0  0  0
  143.6538   74.7085  217.5179 H   0  0  0  0  0  0  0  0  0  0  0  0
  139.1678   70.2832  221.7622 H   0  0  0  0  0  0  0  0  0  0  0  0
  139.1419   68.6165  223.6191 H   0  0  0  0  0  0  0  0  0  0  0  0
  139.6649   68.0622  225.9822 H   0  0  0  0  0  0  0  0  0  0  0  0
  141.4961   71.0597  228.5069 H   0  0  0  0  0  0  0  0  0  0  0  0
  141.4640   72.6382  226.5599 H   0  0  0  0  0  0  0  0  0  0  0  0
  1  2  2  0
  2  3  1  0
  3  4  1  0
  4  5  1  0
  5  6  2  0
  5  7  1  0
  7  8  1  0
  8  9  1  0
  9 10  1  0
 10 11  1  0
 11 12  1  0
 12 13  1  0
 13 14  2  0
 14 15  1  0
 15 16  2  0
 16 17  1  0
 16 18  1  0
 18 19  2  0
  2 20  1  0
 20 21  2  0
 21 22  1  0
 22 23  2  0
 23 24  1  0
 24 25  2  0
 25 26  1  0
 25 27  1  0
 27 28  2  0
 28 29  1  0
 29 30  2  0
 12  7  1  0
 19 13  1  0
 30 20  1  0
 29 23  1  0
  3 31  1  0
  4 32  1  0
  4 33  1  0
  8 34  1  0
  8 35  1  0
  9 36  1  0
  9 37  1  0
 10 38  1  0
 10 39  1  0
 11 40  1  0
 11 41  1  0
 12 42  1  1
 14 43  1  0
 15 44  1  0
 17 45  1  0
 18 46  1  0
 19 47  1  0
 21 48  1  0
 22 49  1  0
 24 50  1  0
 27 51  1  0
 28 52  1  0
M  END
>  <smiles>  (15) 
O=C(NCC(=O)N1CCCCC1c1ccc(O)cc1)c1ccc2cc(Cl)ccc2n1

>  <score_type>  (15) 
oracle

>  <origin>  (15) 
autodockgpu

>  <m_score__min__energy>  (15) 
-9.3000000000000007

>  <m_primary>  (15) 
energy

>  <rmsd>  (15) 
1.684062268576115

>  <m_score__min__rmsd>  (15) 
1.684062268576115

>  <meeko>  (15) 
{"free_energy": -8.82, "intermolecular_energy": -10.61, "internal_energy": -1.52, "cluster_size": 5, "cluster_id": 3, "rank_in_cluster": 2}

>  <energy>  (15) 
-8.38

>  <cluster_rmsd>  (15) 
0.9

>  <cluster>  (15) 
1

$$$$

     RDKit          3D

 52 55  0  0  0  0  0  0  0  0999 V2000
  136.1460   78.0360  222.7750 O   0  0  0  0  0  0  0  0  0  0  0  0
  136.2850   76.8430  223.1800 C   0  0  0  0  0  0  0  0  0  0  0  0
  137.4030   76.0630  222.7940 N   0  0  0  0  0  0  0  0  0  0  0  0
  138.4280   76.5690  221.9380 C   0  0  0  0  0  0  0  0  0  0  0  0
  139.5560   75.5780  221.8440 C   0  0  0  0  0  0  0  0  0  0  0  0
  139.3210   74.4460  222.3420 O   0  0  0  0  0  0  0  0  0  0  0  0
  140.7960   75.9190  221.2270 N   0  0  0  0  0  0  0  0  0  0  0  0
  141.8220   74.9300  221.1870 C   0  0  0  0  0  0  0  0  0  0  0  0
  142.9530   75.1810  220.2780 C   0  0  0  0  0  0  0  0  0  0  0  0
  142.9960   76.5280  219.6370 C   0  0  0  0  0  0  0  0  0  0  0  0
  141.6830   77.1670  219.3980 C   0  0  0  0  0  0  0  0  0  0  0  0
  140.9050   77.2580  220.6850 C   0  0  2  0  0  0  0  0  0  0  0  0
  141.4010   78.2620  221.6260 C   0  0  0  0  0  0  0  0  0  0  0  0
  141.4020   78.0590  223.0110 C   0  0  0  0  0  0  0  0  0  0  0  0
  141.8730   79.0080  223.8910 C   0  0  0  0  0  0  0  0  0  0  0  0
  142.3710   80.2130  223.4450 C   0  0  0  0  0  0  0  0  0  0  0  0
  142.8580   81.2020  224.2890 O   0  0  0  0  0  0  0  0  0  0  0  0
  142.3810   80.4370  222.0850 C   0  0  0  0  0  0  0  0  0  0  0  0
  141.9070   79.4820  221.2100 C   0  0  0  0  0  0  0  0  0  0  0  0
  135.2620   76.2550  224.0690 C   0  0  0  0  0  0  0  0  0  0  0  0
  134.3300   77.0800  224.6660 C   0  0  0  0  0  0  0  0  0  0  0  0
  133.3850   76.4960  225.4920 C   0  0  0  0  0  0  0  0  0  0  0  0
  133.3810   75.1340  225.7090 C   0  0  0  0  0  0  0  0  0  0  0  0
  132.4670   74.4960  226.5200 C   0  0  0  0  0  0  0  0  0  0  0  0
  132.5220   73.1190  226.6930 C   0  0  0  0  0  0  0  0  0  0  0  0
  131.3650   72.2790  227.7240 Cl  0  0  0  0  0  0  0  0  0  0  0  0
  133.4790   72.3370  226.0680 C   0  0  0  0  0  0  0  0  0  0  0  0
  134.3920   72.9920  225.2550 C   0  0  0  0  0  0  0  0  0  0  0  0
  134.3320   74.3510  225.0900 C   0  0  0  0  0  0  0  0  0  0  0  0
  135.2450   74.9260  224.2890 N   0  0  0  0  0  0  0  0  0  0  0  0
  137.4430   75.0710  223.1780 H   0  0  0  0  0  0  0  0  0  0  0  0
  138.0117   76.7432  220.9348 H   0  0  0  0  0  0  0  0  0  0  0  0
  138.8108   77.5133  222.3524 H   0  0  0  0  0  0  0  0  0  0  0  0
  142.2286   74.8314  222.2043 H   0  0  0  0  0  0  0  0  0  0  0  0
  141.3339   74.0255  220.7951 H   0  0  0  0  0  0  0  0  0  0  0  0
  143.8814   75.0536  220.8541 H   0  0  0  0  0  0  0  0  0  0  0  0
  142.8313   74.4652  219.4517 H   0  0  0  0  0  0  0  0  0  0  0  0
  143.5823   77.1934  220.2878 H   0  0  0  0  0  0  0  0  0  0  0  0
  143.4394   76.3727  218.6424 H   0  0  0  0  0  0  0  0  0  0  0  0
  141.8395   78.1789  218.9960 H   0  0  0  0  0  0  0  0  0  0  0  0
  141.1148   76.5598  218.6780 H   0  0  0  0  0  0  0  0  0  0  0  0
  139.8966   77.6436  220.4740 H   0  0  0  0  0  0  0  0  0  0  0  0
  141.0138   77.1102  223.4097 H   0  0  0  0  0  0  0  0  0  0  0  0
  141.8512   78.8000  224.9709 H   0  0  0  0  0  0  0  0  0  0  0  0
  142.8340   82.1920  224.0030 H   0  0  0  0  0  0  0  0  0  0  0  0
  142.7713   81.3879  221.6932 H   0  0  0  0  0  0  0  0  0  0  0  0
  141.9321   79.6995  220.1320 H   0  0  0  0  0  0  0  0  0  0  0  0
  134.3380   78.1660  224.4911 H   0  0  0  0  0  0  0  0  0  0  0  0
  132.6278   77.1262  225.9814 H   0  0  0  0  0  0  0  0  0  0  0  0
  131.6895   75.0809  227.0332 H   0  0  0  0  0  0  0  0  0  0  0  0
  133.5134   71.2467  226.2098 H   0  0  0  0  0  0  0  0  0  0  0  0
  135.1722   72.4147  224.7374 H   0  0  0  0  0  0  0  0  0  0  0  0
  1  2  2  0
  2  3  1  0
  3  4  1  0
  4  5  1  0
  5  6  2  0
  5  7  1  0
  7  8  1  0
  8  9  1  0
  9 10  1  0
 10 11  1  0
 11 12  1  0
 12 13  1  0
 13 14  2  0
 14 15  1  0
 15 16  2  0
 16 17  1  0
 16 18  1  0
 18 19  2  0
  2 20  1  0
 20 21  2  0
 21 22  1  0
 22 23  2  0
 23 24  1  0
 24 25  2  0
 25 26  1  0
 25 27  1  0
 27 28  2  0
 28 29  1  0
 29 30  2  0
 12  7  1  0
 19 13  1  0
 30 20  1  0
 29 23  1  0
  3 31  1  0
  4 32  1  0
  4 33  1  0
  8 34  1  0
  8 35  1  0
  9 36  1  0
  9 37  1  0
 10 38  1  0
 10 39  1  0
 11 40  1  0
 11 41  1  0
 12 42  1  6
 14 43  1  0
 15 44  1  0
 17 45  1  0
 18 46  1  0
 19 47  1  0
 21 48  1  0
 22 49  1  0
 24 50  1  0
 27 51  1  0
 28 52  1  0
M  END
>  <smiles>  (16) 
O=C(NCC(=O)N1CCCCC1c1ccc(O)cc1)c1ccc2cc(Cl)ccc2n1

>  <score_type>  (16) 
oracle

>  <origin>  (16) 
autodockgpu

>  <m_score__min__energy>  (16) 
-9.3000000000000007

>  <m_primary>  (16) 
energy

>  <rmsd>  (16) 
6.21014572256283

>  <m_score__min__rmsd>  (16) 
6.21014572256283

>  <meeko>  (16) 
{"free_energy": -7.36, "intermolecular_energy": -9.15, "internal_energy": -2.2, "cluster_size": 3, "cluster_id": 6, "rank_in_cluster": 1}

>  <energy>  (16) 
-8.28

>  <cluster_rmsd>  (16) 
0.87

>  <cluster>  (16) 
1

$$$$

     RDKit          3D

 52 55  0  0  0  0  0  0  0  0999 V2000
  139.7790   72.1640  220.6560 O   0  0  0  0  0  0  0  0  0  0  0  0
  139.3280   72.4550  221.8040 C   0  0  0  0  0  0  0  0  0  0  0  0
  138.6320   73.6680  222.0320 N   0  0  0  0  0  0  0  0  0  0  0  0
  138.4000   74.6210  220.9940 C   0  0  0  0  0  0  0  0  0  0  0  0
  139.1680   75.8850  221.2750 C   0  0  0  0  0  0  0  0  0  0  0  0
  138.5130   76.7990  221.8390 O   0  0  0  0  0  0  0  0  0  0  0  0
  140.5430   76.0130  220.9190 N   0  0  0  0  0  0  0  0  0  0  0  0
  141.4040   74.8980  221.1420 C   0  0  0  0  0  0  0  0  0  0  0  0
  142.7190   74.9310  220.4820 C   0  0  0  0  0  0  0  0  0  0  0  0
  143.0840   76.2090  219.8050 C   0  0  0  0  0  0  0  0  0  0  0  0
  141.9530   76.9950  219.2640 C   0  0  0  0  0  0  0  0  0  0  0  0
  140.9520   77.2830  220.3530 C   0  0  2  0  0  0  0  0  0  0  0  0
  141.3840   78.2800  221.3300 C   0  0  0  0  0  0  0  0  0  0  0  0
  141.8180   79.5580  220.9610 C   0  0  0  0  0  0  0  0  0  0  0  0
  142.2220   80.4930  221.8880 C   0  0  0  0  0  0  0  0  0  0  0  0
  142.2160   80.2110  223.2370 C   0  0  0  0  0  0  0  0  0  0  0  0
  142.6120   81.1170  224.2110 O   0  0  0  0  0  0  0  0  0  0  0  0
  141.7930   78.9590  223.6270 C   0  0  0  0  0  0  0  0  0  0  0  0
  141.3900   78.0280  222.6920 C   0  0  0  0  0  0  0  0  0  0  0  0
  139.5330   71.5150  222.9240 C   0  0  0  0  0  0  0  0  0  0  0  0
  139.1610   70.1940  222.7750 C   0  0  0  0  0  0  0  0  0  0  0  0
  139.3670   69.3390  223.8450 C   0  0  0  0  0  0  0  0  0  0  0  0
  139.9270   69.7980  225.0180 C   0  0  0  0  0  0  0  0  0  0  0  0
  140.1580   68.9970  226.1160 C   0  0  0  0  0  0  0  0  0  0  0  0
  140.7260   69.5270  227.2660 C   0  0  0  0  0  0  0  0  0  0  0  0
  141.0310   68.5230  228.6830 Cl  0  0  0  0  0  0  0  0  0  0  0  0
  141.0830   70.8620  227.3630 C   0  0  0  0  0  0  0  0  0  0  0  0
  140.8460   71.6560  226.2510 C   0  0  0  0  0  0  0  0  0  0  0  0
  140.2840   71.1260  225.1200 C   0  0  0  0  0  0  0  0  0  0  0  0
  140.0800   71.9490  224.0770 N   0  0  0  0  0  0  0  0  0  0  0  0
  138.2870   73.8350  223.0250 H   0  0  0  0  0  0  0  0  0  0  0  0
  138.7299   74.2003  220.0327 H   0  0  0  0  0  0  0  0  0  0  0  0
  137.3257   74.8532  220.9503 H   0  0  0  0  0  0  0  0  0  0  0  0
  141.5776   74.8235  222.2256 H   0  0  0  0  0  0  0  0  0  0  0  0
  140.8812   74.0381  220.6979 H   0  0  0  0  0  0  0  0  0  0  0  0
  143.4833   74.7257  221.2460 H   0  0  0  0  0  0  0  0  0  0  0  0
  142.6656   74.1785  219.6814 H   0  0  0  0  0  0  0  0  0  0  0  0
  143.6144   76.8384  220.5347 H   0  0  0  0  0  0  0  0  0  0  0  0
  143.6937   75.9237  218.9351 H   0  0  0  0  0  0  0  0  0  0  0  0
  142.3317   77.9446  218.8580 H   0  0  0  0  0  0  0  0  0  0  0  0
  141.4614   76.4161  218.4683 H   0  0  0  0  0  0  0  0  0  0  0  0
  140.0739   77.7819  219.9170 H   0  0  0  0  0  0  0  0  0  0  0  0
  141.8372   79.8250  219.8941 H   0  0  0  0  0  0  0  0  0  0  0  0
  142.5558   81.4835  221.5452 H   0  0  0  0  0  0  0  0  0  0  0  0
  143.3120   80.8510  224.9200 H   0  0  0  0  0  0  0  0  0  0  0  0
  141.7764   78.6989  224.6957 H   0  0  0  0  0  0  0  0  0  0  0  0
  141.0582   77.0402  223.0443 H   0  0  0  0  0  0  0  0  0  0  0  0
  138.7153   69.8321  221.8367 H   0  0  0  0  0  0  0  0  0  0  0  0
  139.0802   68.2806  223.7577 H   0  0  0  0  0  0  0  0  0  0  0  0
  139.8903   67.9307  226.0803 H   0  0  0  0  0  0  0  0  0  0  0  0
  141.5332   71.2728  228.2788 H   0  0  0  0  0  0  0  0  0  0  0  0
  141.1122   72.7230  226.2776 H   0  0  0  0  0  0  0  0  0  0  0  0
  1  2  2  0
  2  3  1  0
  3  4  1  0
  4  5  1  0
  5  6  2  0
  5  7  1  0
  7  8  1  0
  8  9  1  0
  9 10  1  0
 10 11  1  0
 11 12  1  0
 12 13  1  0
 13 14  2  0
 14 15  1  0
 15 16  2  0
 16 17  1  0
 16 18  1  0
 18 19  2  0
  2 20  1  0
 20 21  2  0
 21 22  1  0
 22 23  2  0
 23 24  1  0
 24 25  2  0
 25 26  1  0
 25 27  1  0
 27 28  2  0
 28 29  1  0
 29 30  2  0
 12  7  1  0
 19 13  1  0
 30 20  1  0
 29 23  1  0
  3 31  1  0
  4 32  1  0
  4 33  1  0
  8 34  1  0
  8 35  1  0
  9 36  1  0
  9 37  1  0
 10 38  1  0
 10 39  1  0
 11 40  1  0
 11 41  1  0
 12 42  1  6
 14 43  1  0
 15 44  1  0
 17 45  1  0
 18 46  1  0
 19 47  1  0
 21 48  1  0
 22 49  1  0
 24 50  1  0
 27 51  1  0
 28 52  1  0
M  END
>  <smiles>  (17) 
O=C(NCC(=O)N1CCCCC1c1ccc(O)cc1)c1ccc2cc(Cl)ccc2n1

>  <score_type>  (17) 
oracle

>  <origin>  (17) 
autodockgpu

>  <m_score__min__energy>  (17) 
-9.3000000000000007

>  <m_primary>  (17) 
energy

>  <rmsd>  (17) 
2.0241451631610907

>  <m_score__min__rmsd>  (17) 
2.0241451631610907

>  <meeko>  (17) 
{"free_energy": -8.61, "intermolecular_energy": -10.4, "internal_energy": -1.59, "cluster_size": 18, "cluster_id": 2, "rank_in_cluster": 9}

>  <energy>  (17) 
-8.14

>  <cluster_rmsd>  (17) 
0.97

>  <cluster>  (17) 
1

$$$$

     RDKit          3D

 52 55  0  0  0  0  0  0  0  0999 V2000
  140.3260   72.3660  220.8780 O   0  0  0  0  0  0  0  0  0  0  0  0
  139.6480   72.5090  221.9400 C   0  0  0  0  0  0  0  0  0  0  0  0
  138.7710   73.6100  222.1070 N   0  0  0  0  0  0  0  0  0  0  0  0
  138.6010   74.6090  221.1000 C   0  0  0  0  0  0  0  0  0  0  0  0
  139.3420   75.8610  221.4890 C   0  0  0  0  0  0  0  0  0  0  0  0
  138.7230   76.6320  222.2670 O   0  0  0  0  0  0  0  0  0  0  0  0
  140.6530   76.1310  220.9990 N   0  0  0  0  0  0  0  0  0  0  0  0
  141.6140   75.0780  221.0290 C   0  0  0  0  0  0  0  0  0  0  0  0
  142.8390   75.2720  220.2360 C   0  0  0  0  0  0  0  0  0  0  0  0
  143.0280   76.6250  219.6360 C   0  0  0  0  0  0  0  0  0  0  0  0
  141.7860   77.3540  219.2920 C   0  0  0  0  0  0  0  0  0  0  0  0
  140.8980   77.4710  220.5040 C   0  0  2  0  0  0  0  0  0  0  0  0
  141.3650   78.4210  221.5110 C   0  0  0  0  0  0  0  0  0  0  0  0
  141.3890   78.1190  222.8780 C   0  0  0  0  0  0  0  0  0  0  0  0
  141.8330   79.0190  223.8210 C   0  0  0  0  0  0  0  0  0  0  0  0
  142.2810   80.2710  223.4600 C   0  0  0  0  0  0  0  0  0  0  0  0
  142.7390   81.2130  224.3710 O   0  0  0  0  0  0  0  0  0  0  0  0
  142.2680   80.5930  222.1200 C   0  0  0  0  0  0  0  0  0  0  0  0
  141.8220   79.6870  221.1820 C   0  0  0  0  0  0  0  0  0  0  0  0
  139.7760   71.5130  223.0220 C   0  0  0  0  0  0  0  0  0  0  0  0
  139.3860   70.2090  222.7910 C   0  0  0  0  0  0  0  0  0  0  0  0
  139.5190   69.3010  223.8270 C   0  0  0  0  0  0  0  0  0  0  0  0
  140.0250   69.6910  225.0480 C   0  0  0  0  0  0  0  0  0  0  0  0
  140.1820   68.8340  226.1160 C   0  0  0  0  0  0  0  0  0  0  0  0
  140.7000   69.2960  227.3190 C   0  0  0  0  0  0  0  0  0  0  0  0
  140.9100   68.2200  228.7000 Cl  0  0  0  0  0  0  0  0  0  0  0  0
  141.0780   70.6170  227.4980 C   0  0  0  0  0  0  0  0  0  0  0  0
  140.9150   71.4680  226.4150 C   0  0  0  0  0  0  0  0  0  0  0  0
  140.4030   71.0040  225.2320 C   0  0  0  0  0  0  0  0  0  0  0  0
  140.2700   71.8800  224.2210 N   0  0  0  0  0  0  0  0  0  0  0  0
  138.2400   73.6550  223.0280 H   0  0  0  0  0  0  0  0  0  0  0  0
  138.9954   74.2340  220.1441 H   0  0  0  0  0  0  0  0  0  0  0  0
  137.5305   74.8396  220.9961 H   0  0  0  0  0  0  0  0  0  0  0  0
  141.9158   74.9332  222.0768 H   0  0  0  0  0  0  0  0  0  0  0  0
  141.1088   74.2153  220.5702 H   0  0  0  0  0  0  0  0  0  0  0  0
  143.6988   75.0729  220.8925 H   0  0  0  0  0  0  0  0  0  0  0  0
  142.7505   74.5819  219.3840 H   0  0  0  0  0  0  0  0  0  0  0  0
  143.5915   77.2378  220.3550 H   0  0  0  0  0  0  0  0  0  0  0  0
  143.5524   76.4599  218.6833 H   0  0  0  0  0  0  0  0  0  0  0  0
  142.0437   78.3609  218.9319 H   0  0  0  0  0  0  0  0  0  0  0  0
  141.2505   76.7998  218.5071 H   0  0  0  0  0  0  0  0  0  0  0  0
  139.9406   77.9265  220.2108 H   0  0  0  0  0  0  0  0  0  0  0  0
  141.0415   77.1295  223.2099 H   0  0  0  0  0  0  0  0  0  0  0  0
  141.8299   78.7328  224.8831 H   0  0  0  0  0  0  0  0  0  0  0  0
  142.0730   81.7880  224.9080 H   0  0  0  0  0  0  0  0  0  0  0  0
  142.6175   81.5842  221.7955 H   0  0  0  0  0  0  0  0  0  0  0  0
  141.8292   79.9828  220.1226 H   0  0  0  0  0  0  0  0  0  0  0  0
  138.9825   69.9016  221.8149 H   0  0  0  0  0  0  0  0  0  0  0  0
  139.2169   68.2545  223.6738 H   0  0  0  0  0  0  0  0  0  0  0  0
  139.8951   67.7769  226.0149 H   0  0  0  0  0  0  0  0  0  0  0  0
  141.4881   70.9740  228.4542 H   0  0  0  0  0  0  0  0  0  0  0  0
  141.1998   72.5265  226.5069 H   0  0  0  0  0  0  0  0  0  0  0  0
  1  2  2  0
  2  3  1  0
  3  4  1  0
  4  5  1  0
  5  6  2  0
  5  7  1  0
  7  8  1  0
  8  9  1  0
  9 10  1  0
 10 11  1  0
 11 12  1  0
 12 13  1  0
 13 14  2  0
 14 15  1  0
 15 16  2  0
 16 17  1  0
 16 18  1  0
 18 19  2  0
  2 20  1  0
 20 21  2  0
 21 22  1  0
 22 23  2  0
 23 24  1  0
 24 25  2  0
 25 26  1  0
 25 27  1  0
 27 28  2  0
 28 29  1  0
 29 30  2  0
 12  7  1  0
 19 13  1  0
 30 20  1  0
 29 23  1  0
  3 31  1  0
  4 32  1  0
  4 33  1  0
  8 34  1  0
  8 35  1  0
  9 36  1  0
  9 37  1  0
 10 38  1  0
 10 39  1  0
 11 40  1  0
 11 41  1  0
 12 42  1  6
 14 43  1  0
 15 44  1  0
 17 45  1  0
 18 46  1  0
 19 47  1  0
 21 48  1  0
 22 49  1  0
 24 50  1  0
 27 51  1  0
 28 52  1  0
M  END
>  <smiles>  (18) 
O=C(NCC(=O)N1CCCCC1c1ccc(O)cc1)c1ccc2cc(Cl)ccc2n1

>  <score_type>  (18) 
oracle

>  <origin>  (18) 
autodockgpu

>  <m_score__min__energy>  (18) 
-9.3000000000000007

>  <m_primary>  (18) 
energy

>  <rmsd>  (18) 
2.0157355571804736

>  <m_score__min__rmsd>  (18) 
2.0157355571804736

>  <meeko>  (18) 
{"free_energy": -8.93, "intermolecular_energy": -10.72, "internal_energy": -1.53, "cluster_size": 18, "cluster_id": 2, "rank_in_cluster": 4}

>  <energy>  (18) 
-7.97

>  <cluster_rmsd>  (18) 
0.93

>  <cluster>  (18) 
1

$$$$

     RDKit          3D

 52 55  0  0  0  0  0  0  0  0999 V2000
  141.0090   72.4800  221.1640 O   0  0  0  0  0  0  0  0  0  0  0  0
  140.2250   72.6540  222.1450 C   0  0  0  0  0  0  0  0  0  0  0  0
  139.4100   73.8100  222.2350 N   0  0  0  0  0  0  0  0  0  0  0  0
  139.4240   74.8340  221.2390 C   0  0  0  0  0  0  0  0  0  0  0  0
  140.5480   75.7980  221.5100 C   0  0  0  0  0  0  0  0  0  0  0  0
  141.7050   75.3500  221.2980 O   0  0  0  0  0  0  0  0  0  0  0  0
  140.2950   77.1230  221.9720 N   0  0  0  0  0  0  0  0  0  0  0  0
  138.9560   77.4720  222.3170 C   0  0  0  0  0  0  0  0  0  0  0  0
  138.7690   78.7140  223.0850 C   0  0  0  0  0  0  0  0  0  0  0  0
  139.9800   79.5690  223.2590 C   0  0  0  0  0  0  0  0  0  0  0  0
  141.2730   78.8510  223.2940 C   0  0  0  0  0  0  0  0  0  0  0  0
  141.4370   78.0120  222.0530 C   0  0  2  0  0  0  0  0  0  0  0  0
  141.7110   78.7720  220.8350 C   0  0  0  0  0  0  0  0  0  0  0  0
  141.6940   80.1710  220.8010 C   0  0  0  0  0  0  0  0  0  0  0  0
  141.9550   80.8800  219.6490 C   0  0  0  0  0  0  0  0  0  0  0  0
  142.2510   80.2390  218.4660 C   0  0  0  0  0  0  0  0  0  0  0  0
  142.5230   80.9060  217.2800 O   0  0  0  0  0  0  0  0  0  0  0  0
  142.2750   78.8610  218.4740 C   0  0  0  0  0  0  0  0  0  0  0  0
  142.0110   78.1580  219.6300 C   0  0  0  0  0  0  0  0  0  0  0  0
  140.1600   71.6350  223.2110 C   0  0  0  0  0  0  0  0  0  0  0  0
  139.6000   70.4030  222.9370 C   0  0  0  0  0  0  0  0  0  0  0  0
  139.5560   69.4710  223.9600 C   0  0  0  0  0  0  0  0  0  0  0  0
  140.0550   69.7690  225.2090 C   0  0  0  0  0  0  0  0  0  0  0  0
  140.0390   68.8840  226.2660 C   0  0  0  0  0  0  0  0  0  0  0  0
  140.5600   69.2520  227.5000 C   0  0  0  0  0  0  0  0  0  0  0  0
  140.5520   68.1380  228.8660 Cl  0  0  0  0  0  0  0  0  0  0  0  0
  141.1120   70.5030  227.7220 C   0  0  0  0  0  0  0  0  0  0  0  0
  141.1220   71.3830  226.6500 C   0  0  0  0  0  0  0  0  0  0  0  0
  140.6050   71.0130  225.4360 C   0  0  0  0  0  0  0  0  0  0  0  0
  140.6440   71.9120  224.4380 N   0  0  0  0  0  0  0  0  0  0  0  0
  138.7800   73.8780  223.0910 H   0  0  0  0  0  0  0  0  0  0  0  0
  139.5662   74.3773  220.2485 H   0  0  0  0  0  0  0  0  0  0  0  0
  138.4676   75.3768  221.2647 H   0  0  0  0  0  0  0  0  0  0  0  0
  138.3865   77.5709  221.3811 H   0  0  0  0  0  0  0  0  0  0  0  0
  138.6124   76.6675  222.9839 H   0  0  0  0  0  0  0  0  0  0  0  0
  138.0047   79.3150  222.5705 H   0  0  0  0  0  0  0  0  0  0  0  0
  138.4861   78.3939  224.0987 H   0  0  0  0  0  0  0  0  0  0  0  0
  140.0125   80.2830  222.4228 H   0  0  0  0  0  0  0  0  0  0  0  0
  139.8733   80.0424  224.2462 H   0  0  0  0  0  0  0  0  0  0  0  0
  142.0930   79.5821  223.3492 H   0  0  0  0  0  0  0  0  0  0  0  0
  141.2948   78.1944  224.1763 H   0  0  0  0  0  0  0  0  0  0  0  0
  142.3551   77.4121  222.1380 H   0  0  0  0  0  0  0  0  0  0  0  0
  141.4647   80.7227  221.7246 H   0  0  0  0  0  0  0  0  0  0  0  0
  141.9265   81.9793  219.6742 H   0  0  0  0  0  0  0  0  0  0  0  0
  143.2700   80.5740  216.6520 H   0  0  0  0  0  0  0  0  0  0  0  0
  142.5075   78.3159  217.5473 H   0  0  0  0  0  0  0  0  0  0  0  0
  142.0399   77.0590  219.5940 H   0  0  0  0  0  0  0  0  0  0  0  0
  139.2018   70.1696  221.9385 H   0  0  0  0  0  0  0  0  0  0  0  0
  139.1170   68.4799  223.7730 H   0  0  0  0  0  0  0  0  0  0  0  0
  139.6108   67.8798  226.1313 H   0  0  0  0  0  0  0  0  0  0  0  0
  141.5231   70.7852  228.7025 H   0  0  0  0  0  0  0  0  0  0  0  0
  141.5495   72.3887  226.7756 H   0  0  0  0  0  0  0  0  0  0  0  0
  1  2  2  0
  2  3  1  0
  3  4  1  0
  4  5  1  0
  5  6  2  0
  5  7  1  0
  7  8  1  0
  8  9  1  0
  9 10  1  0
 10 11  1  0
 11 12  1  0
 12 13  1  0
 13 14  2  0
 14 15  1  0
 15 16  2  0
 16 17  1  0
 16 18  1  0
 18 19  2  0
  2 20  1  0
 20 21  2  0
 21 22  1  0
 22 23  2  0
 23 24  1  0
 24 25  2  0
 25 26  1  0
 25 27  1  0
 27 28  2  0
 28 29  1  0
 29 30  2  0
 12  7  1  0
 19 13  1  0
 30 20  1  0
 29 23  1  0
  3 31  1  0
  4 32  1  0
  4 33  1  0
  8 34  1  0
  8 35  1  0
  9 36  1  0
  9 37  1  0
 10 38  1  0
 10 39  1  0
 11 40  1  0
 11 41  1  0
 12 42  1  1
 14 43  1  0
 15 44  1  0
 17 45  1  0
 18 46  1  0
 19 47  1  0
 21 48  1  0
 22 49  1  0
 24 50  1  0
 27 51  1  0
 28 52  1  0
M  END
>  <smiles>  (19) 
O=C(NCC(=O)N1CCCCC1c1ccc(O)cc1)c1ccc2cc(Cl)ccc2n1

>  <score_type>  (19) 
oracle

>  <origin>  (19) 
autodockgpu

>  <m_score__min__energy>  (19) 
-9.3000000000000007

>  <m_primary>  (19) 
energy

>  <rmsd>  (19) 
3.188879733915336

>  <m_score__min__rmsd>  (19) 
3.188879733915336

>  <meeko>  (19) 
{"free_energy": -9.3, "intermolecular_energy": -11.09, "internal_energy": -1.22, "cluster_size": 19, "cluster_id": 1, "rank_in_cluster": 1}

>  <energy>  (19) 
-7.89

>  <cluster_rmsd>  (19) 
1.18

>  <cluster>  (19) 
1

$$$$

     RDKit          3D

 52 55  0  0  0  0  0  0  0  0999 V2000
  139.8960   72.1030  220.6790 O   0  0  0  0  0  0  0  0  0  0  0  0
  139.4510   72.4060  221.8270 C   0  0  0  0  0  0  0  0  0  0  0  0
  138.7950   73.6410  222.0560 N   0  0  0  0  0  0  0  0  0  0  0  0
  138.5990   74.6040  221.0200 C   0  0  0  0  0  0  0  0  0  0  0  0
  139.3250   75.8790  221.3590 C   0  0  0  0  0  0  0  0  0  0  0  0
  138.6610   76.7150  222.0250 O   0  0  0  0  0  0  0  0  0  0  0  0
  140.6710   76.1000  220.9440 N   0  0  0  0  0  0  0  0  0  0  0  0
  141.5990   75.0250  221.0670 C   0  0  0  0  0  0  0  0  0  0  0  0
  142.8760   75.1620  220.3480 C   0  0  0  0  0  0  0  0  0  0  0  0
  143.1390   76.4900  219.7210 C   0  0  0  0  0  0  0  0  0  0  0  0
  141.9410   77.2390  219.2770 C   0  0  0  0  0  0  0  0  0  0  0  0
  140.9830   77.4170  220.4250 C   0  0  2  0  0  0  0  0  0  0  0  0
  141.4120   78.3870  221.4320 C   0  0  0  0  0  0  0  0  0  0  0  0
  141.4270   78.0950  222.8000 C   0  0  0  0  0  0  0  0  0  0  0  0
  141.8350   79.0140  223.7420 C   0  0  0  0  0  0  0  0  0  0  0  0
  142.2530   80.2750  223.3770 C   0  0  0  0  0  0  0  0  0  0  0  0
  142.6740   81.2360  224.2860 O   0  0  0  0  0  0  0  0  0  0  0  0
  142.2480   80.5870  222.0350 C   0  0  0  0  0  0  0  0  0  0  0  0
  141.8370   79.6620  221.0980 C   0  0  0  0  0  0  0  0  0  0  0  0
  139.6210   71.4560  222.9440 C   0  0  0  0  0  0  0  0  0  0  0  0
  139.2340   70.1410  222.7790 C   0  0  0  0  0  0  0  0  0  0  0  0
  139.4070   69.2770  223.8470 C   0  0  0  0  0  0  0  0  0  0  0  0
  139.9480   69.7210  225.0340 C   0  0  0  0  0  0  0  0  0  0  0  0
  140.1450   68.9100  226.1310 C   0  0  0  0  0  0  0  0  0  0  0  0
  140.6970   69.4250  227.2970 C   0  0  0  0  0  0  0  0  0  0  0  0
  140.9590   68.4090  228.7140 Cl  0  0  0  0  0  0  0  0  0  0  0  0
  141.0690   70.7540  227.4100 C   0  0  0  0  0  0  0  0  0  0  0  0
  140.8660   71.5590  226.2990 C   0  0  0  0  0  0  0  0  0  0  0  0
  140.3200   71.0430  225.1520 C   0  0  0  0  0  0  0  0  0  0  0  0
  140.1490   71.8750  224.1110 N   0  0  0  0  0  0  0  0  0  0  0  0
  138.4530   73.8170  223.0480 H   0  0  0  0  0  0  0  0  0  0  0  0
  138.9883   74.2039  220.0722 H   0  0  0  0  0  0  0  0  0  0  0  0
  137.5240   74.8154  220.9217 H   0  0  0  0  0  0  0  0  0  0  0  0
  141.8305   74.9065  222.1358 H   0  0  0  0  0  0  0  0  0  0  0  0
  141.1002   74.1612  220.6034 H   0  0  0  0  0  0  0  0  0  0  0  0
  143.6873   74.9620  221.0635 H   0  0  0  0  0  0  0  0  0  0  0  0
  142.8224   74.4475  219.5134 H   0  0  0  0  0  0  0  0  0  0  0  0
  143.6727   77.1109  220.4556 H   0  0  0  0  0  0  0  0  0  0  0  0
  143.7175   76.2817  218.8089 H   0  0  0  0  0  0  0  0  0  0  0  0
  142.2481   78.2271  218.9037 H   0  0  0  0  0  0  0  0  0  0  0  0
  141.4408   76.6737  218.4769 H   0  0  0  0  0  0  0  0  0  0  0  0
  140.0590   77.8873  220.0574 H   0  0  0  0  0  0  0  0  0  0  0  0
  141.1023   77.0987  223.1347 H   0  0  0  0  0  0  0  0  0  0  0  0
  141.8268   78.7355  224.8061 H   0  0  0  0  0  0  0  0  0  0  0  0
  141.9880   81.7570  224.8510 H   0  0  0  0  0  0  0  0  0  0  0  0
  142.5754   81.5847  221.7072 H   0  0  0  0  0  0  0  0  0  0  0  0
  141.8473   79.9504  220.0365 H   0  0  0  0  0  0  0  0  0  0  0  0
  138.8022   69.7910  221.8298 H   0  0  0  0  0  0  0  0  0  0  0  0
  139.1088   68.2229  223.7467 H   0  0  0  0  0  0  0  0  0  0  0  0
  139.8632   67.8478  226.0828 H   0  0  0  0  0  0  0  0  0  0  0  0
  141.5052   71.1527  228.3378 H   0  0  0  0  0  0  0  0  0  0  0  0
  141.1458   72.6221  226.3384 H   0  0  0  0  0  0  0  0  0  0  0  0
  1  2  2  0
  2  3  1  0
  3  4  1  0
  4  5  1  0
  5  6  2  0
  5  7  1  0
  7  8  1  0
  8  9  1  0
  9 10  1  0
 10 11  1  0
 11 12  1  0
 12 13  1  0
 13 14  2  0
 14 15  1  0
 15 16  2  0
 16 17  1  0
 16 18  1  0
 18 19  2  0
  2 20  1  0
 20 21  2  0
 21 22  1  0
 22 23  2  0
 23 24  1  0
 24 25  2  0
 25 26  1  0
 25 27  1  0
 27 28  2  0
 28 29  1  0
 29 30  2  0
 12  7  1  0
 19 13  1  0
 30 20  1  0
 29 23  1  0
  3 31  1  0
  4 32  1  0
  4 33  1  0
  8 34  1  0
  8 35  1  0
  9 36  1  0
  9 37  1  0
 10 38  1  0
 10 39  1  0
 11 40  1  0
 11 41  1  0
 12 42  1  6
 14 43  1  0
 15 44  1  0
 17 45  1  0
 18 46  1  0
 19 47  1  0
 21 48  1  0
 22 49  1  0
 24 50  1  0
 27 51  1  0
 28 52  1  0
M  END
>  <smiles>  (20) 
O=C(NCC(=O)N1CCCCC1c1ccc(O)cc1)c1ccc2cc(Cl)ccc2n1

>  <score_type>  (20) 
oracle

>  <origin>  (20) 
autodockgpu

>  <m_score__min__energy>  (20) 
-9.3000000000000007

>  <m_primary>  (20) 
energy

>  <rmsd>  (20) 
2.0216915280220356

>  <m_score__min__rmsd>  (20) 
2.0216915280220356

>  <meeko>  (20) 
{"free_energy": -8.82, "intermolecular_energy": -10.61, "internal_energy": -1.59, "cluster_size": 18, "cluster_id": 2, "rank_in_cluster": 6}

>  <energy>  (20) 
-9.01

>  <cluster_rmsd>  (20) 
0.0

>  <cluster>  (20) 
2

$$$$

     RDKit          3D

 52 55  0  0  0  0  0  0  0  0999 V2000
  140.6100   72.3990  221.0790 O   0  0  0  0  0  0  0  0  0  0  0  0
  139.8380   72.5160  222.0790 C   0  0  0  0  0  0  0  0  0  0  0  0
  138.9250   73.5950  222.1770 N   0  0  0  0  0  0  0  0  0  0  0  0
  138.8210   74.6010  221.1680 C   0  0  0  0  0  0  0  0  0  0  0  0
  139.5570   75.8400  221.6000 C   0  0  0  0  0  0  0  0  0  0  0  0
  139.0180   76.4880  222.5350 O   0  0  0  0  0  0  0  0  0  0  0  0
  140.7800   76.2330  220.9810 N   0  0  0  0  0  0  0  0  0  0  0  0
  141.8160   75.2610  220.8590 C   0  0  0  0  0  0  0  0  0  0  0  0
  142.9240   75.5800  219.9450 C   0  0  0  0  0  0  0  0  0  0  0  0
  142.9390   76.9640  219.3870 C   0  0  0  0  0  0  0  0  0  0  0  0
  141.6150   77.6020  219.2140 C   0  0  0  0  0  0  0  0  0  0  0  0
  140.8640   77.6050  220.5200 C   0  0  2  0  0  0  0  0  0  0  0  0
  141.3680   78.5540  221.5110 C   0  0  0  0  0  0  0  0  0  0  0  0
  141.4300   78.2550  222.8770 C   0  0  0  0  0  0  0  0  0  0  0  0
  141.9090   79.1550  223.8030 C   0  0  0  0  0  0  0  0  0  0  0  0
  142.3560   80.4020  223.4260 C   0  0  0  0  0  0  0  0  0  0  0  0
  142.8480   81.3430  224.3190 O   0  0  0  0  0  0  0  0  0  0  0  0
  142.3050   80.7200  222.0860 C   0  0  0  0  0  0  0  0  0  0  0  0
  141.8240   79.8150  221.1640 C   0  0  0  0  0  0  0  0  0  0  0  0
  139.8940   71.5110  223.1590 C   0  0  0  0  0  0  0  0  0  0  0  0
  139.4470   70.2280  222.9140 C   0  0  0  0  0  0  0  0  0  0  0  0
  139.5130   69.3120  223.9490 C   0  0  0  0  0  0  0  0  0  0  0  0
  140.0110   69.6740  225.1830 C   0  0  0  0  0  0  0  0  0  0  0  0
  140.1020   68.8070  226.2510 C   0  0  0  0  0  0  0  0  0  0  0  0
  140.6150   69.2410  227.4670 C   0  0  0  0  0  0  0  0  0  0  0  0
  140.7420   68.1510  228.8470 Cl  0  0  0  0  0  0  0  0  0  0  0  0
  141.0510   70.5410  227.6590 C   0  0  0  0  0  0  0  0  0  0  0  0
  140.9530   71.4020  226.5770 C   0  0  0  0  0  0  0  0  0  0  0  0
  140.4460   70.9670  225.3800 C   0  0  0  0  0  0  0  0  0  0  0  0
  140.3780   71.8510  224.3710 N   0  0  0  0  0  0  0  0  0  0  0  0
  138.3150   73.6190  223.0480 H   0  0  0  0  0  0  0  0  0  0  0  0
  139.2590   74.2247  220.2317 H   0  0  0  0  0  0  0  0  0  0  0  0
  137.7604   74.8470  221.0108 H   0  0  0  0  0  0  0  0  0  0  0  0
  142.2451   75.1054  221.8598 H   0  0  0  0  0  0  0  0  0  0  0  0
  141.3293   74.3766  220.4219 H   0  0  0  0  0  0  0  0  0  0  0  0
  143.8656   75.4287  220.4932 H   0  0  0  0  0  0  0  0  0  0  0  0
  142.7928   74.9144  219.0791 H   0  0  0  0  0  0  0  0  0  0  0  0
  143.5320   77.5952  220.0653 H   0  0  0  0  0  0  0  0  0  0  0  0
  143.3623   76.8743  218.3757 H   0  0  0  0  0  0  0  0  0  0  0  0
  141.7530   78.6383  218.8719 H   0  0  0  0  0  0  0  0  0  0  0  0
  141.0377   77.0343  218.4694 H   0  0  0  0  0  0  0  0  0  0  0  0
  139.8479   77.9920  220.3531 H   0  0  0  0  0  0  0  0  0  0  0  0
  141.0849   77.2692  223.2221 H   0  0  0  0  0  0  0  0  0  0  0  0
  141.9351   78.8720  224.8656 H   0  0  0  0  0  0  0  0  0  0  0  0
  143.8080   81.7050  224.2220 H   0  0  0  0  0  0  0  0  0  0  0  0
  142.6522   81.7076  221.7482 H   0  0  0  0  0  0  0  0  0  0  0  0
  141.8013   80.1078  220.1039 H   0  0  0  0  0  0  0  0  0  0  0  0
  139.0512   69.9432  221.9280 H   0  0  0  0  0  0  0  0  0  0  0  0
  139.1637   68.2818  223.7854 H   0  0  0  0  0  0  0  0  0  0  0  0
  139.7664   67.7654  226.1397 H   0  0  0  0  0  0  0  0  0  0  0  0
  141.4564   70.8752  228.6254 H   0  0  0  0  0  0  0  0  0  0  0  0
  141.2856   72.4454  226.6800 H   0  0  0  0  0  0  0  0  0  0  0  0
  1  2  2  0
  2  3  1  0
  3  4  1  0
  4  5  1  0
  5  6  2  0
  5  7  1  0
  7  8  1  0
  8  9  1  0
  9 10  1  0
 10 11  1  0
 11 12  1  0
 12 13  1  0
 13 14  2  0
 14 15  1  0
 15 16  2  0
 16 17  1  0
 16 18  1  0
 18 19  2  0
  2 20  1  0
 20 21  2  0
 21 22  1  0
 22 23  2  0
 23 24  1  0
 24 25  2  0
 25 26  1  0
 25 27  1  0
 27 28  2  0
 28 29  1  0
 29 30  2  0
 12  7  1  0
 19 13  1  0
 30 20  1  0
 29 23  1  0
  3 31  1  0
  4 32  1  0
  4 33  1  0
  8 34  1  0
  8 35  1  0
  9 36  1  0
  9 37  1  0
 10 38  1  0
 10 39  1  0
 11 40  1  0
 11 41  1  0
 12 42  1  6
 14 43  1  0
 15 44  1  0
 17 45  1  0
 18 46  1  0
 19 47  1  0
 21 48  1  0
 22 49  1  0
 24 50  1  0
 27 51  1  0
 28 52  1  0
M  END
>  <smiles>  (21) 
O=C(NCC(=O)N1CCCCC1c1ccc(O)cc1)c1ccc2cc(Cl)ccc2n1

>  <score_type>  (21) 
oracle

>  <origin>  (21) 
autodockgpu

>  <m_score__min__energy>  (21) 
-9.3000000000000007

>  <m_primary>  (21) 
energy

>  <rmsd>  (21) 
1.9986796310290975

>  <m_score__min__rmsd>  (21) 
1.9986796310290975

>  <meeko>  (21) 
{"free_energy": -9.01, "intermolecular_energy": -10.8, "internal_energy": -1.49, "cluster_size": 18, "cluster_id": 2, "rank_in_cluster": 1}

>  <energy>  (21) 
-9.0

>  <cluster_rmsd>  (21) 
0.42

>  <cluster>  (21) 
2

$$$$

     RDKit          3D

 52 55  0  0  0  0  0  0  0  0999 V2000
  138.4530   71.6660  221.2440 O   0  0  0  0  0  0  0  0  0  0  0  0
  139.0420   72.0810  222.2880 C   0  0  0  0  0  0  0  0  0  0  0  0
  139.4460   73.4340  222.4130 N   0  0  0  0  0  0  0  0  0  0  0  0
  139.2170   74.3970  221.3830 C   0  0  0  0  0  0  0  0  0  0  0  0
  140.1550   75.5620  221.5510 C   0  0  0  0  0  0  0  0  0  0  0  0
  141.3790   75.2820  221.4780 O   0  0  0  0  0  0  0  0  0  0  0  0
  139.6660   76.8830  221.7750 N   0  0  0  0  0  0  0  0  0  0  0  0
  138.2590   77.1010  221.7060 C   0  0  0  0  0  0  0  0  0  0  0  0
  137.7550   78.3730  222.2490 C   0  0  0  0  0  0  0  0  0  0  0  0
  138.7870   79.3750  222.6450 C   0  0  0  0  0  0  0  0  0  0  0  0
  140.0780   78.8180  223.1070 C   0  0  0  0  0  0  0  0  0  0  0  0
  140.6560   77.9020  222.0600 C   0  0  2  0  0  0  0  0  0  0  0  0
  141.1910   78.5840  220.8820 C   0  0  0  0  0  0  0  0  0  0  0  0
  141.6830   79.8930  220.9290 C   0  0  0  0  0  0  0  0  0  0  0  0
  142.1880   80.5270  219.8150 C   0  0  0  0  0  0  0  0  0  0  0  0
  142.2330   79.8960  218.5910 C   0  0  0  0  0  0  0  0  0  0  0  0
  142.7320   80.4900  217.4400 O   0  0  0  0  0  0  0  0  0  0  0  0
  141.7550   78.6060  218.5190 C   0  0  0  0  0  0  0  0  0  0  0  0
  141.2500   77.9770  219.6380 C   0  0  0  0  0  0  0  0  0  0  0  0
  139.3110   71.1380  223.3920 C   0  0  0  0  0  0  0  0  0  0  0  0
  138.9510   69.8130  223.2530 C   0  0  0  0  0  0  0  0  0  0  0  0
  139.2180   68.9570  224.3080 C   0  0  0  0  0  0  0  0  0  0  0  0
  139.8240   69.4180  225.4570 C   0  0  0  0  0  0  0  0  0  0  0  0
  140.1150   68.6150  226.5380 C   0  0  0  0  0  0  0  0  0  0  0  0
  140.7270   69.1480  227.6650 C   0  0  0  0  0  0  0  0  0  0  0  0
  141.1100   68.1420  229.0620 Cl  0  0  0  0  0  0  0  0  0  0  0  0
  141.0690   70.4870  227.7530 C   0  0  0  0  0  0  0  0  0  0  0  0
  140.7700   71.2830  226.6570 C   0  0  0  0  0  0  0  0  0  0  0  0
  140.1650   70.7500  225.5490 C   0  0  0  0  0  0  0  0  0  0  0  0
  139.9030   71.5750  224.5210 N   0  0  0  0  0  0  0  0  0  0  0  0
  139.9340   73.6990  223.3210 H   0  0  0  0  0  0  0  0  0  0  0  0
  139.3886   73.9294  220.4022 H   0  0  0  0  0  0  0  0  0  0  0  0
  138.1793   74.7561  221.4481 H   0  0  0  0  0  0  0  0  0  0  0  0
  137.9668   77.0528  220.6466 H   0  0  0  0  0  0  0  0  0  0  0  0
  137.8163   76.3215  222.3435 H   0  0  0  0  0  0  0  0  0  0  0  0
  137.1152   78.8350  221.4827 H   0  0  0  0  0  0  0  0  0  0  0  0
  137.2293   78.1087  223.1784 H   0  0  0  0  0  0  0  0  0  0  0  0
  138.9878   80.0158  221.7738 H   0  0  0  0  0  0  0  0  0  0  0  0
  138.3669   79.9135  223.5073 H   0  0  0  0  0  0  0  0  0  0  0  0
  140.7816   79.6419  223.2969 H   0  0  0  0  0  0  0  0  0  0  0  0
  139.9107   78.2452  224.0311 H   0  0  0  0  0  0  0  0  0  0  0  0
  141.5626   77.4221  222.4571 H   0  0  0  0  0  0  0  0  0  0  0  0
  141.6660   80.4336  221.8868 H   0  0  0  0  0  0  0  0  0  0  0  0
  142.5627   81.5573  219.9045 H   0  0  0  0  0  0  0  0  0  0  0  0
  143.6770   80.2580  217.0990 H   0  0  0  0  0  0  0  0  0  0  0  0
  141.7763   78.0713  217.5579 H   0  0  0  0  0  0  0  0  0  0  0  0
  140.8773   76.9469  219.5381 H   0  0  0  0  0  0  0  0  0  0  0  0
  138.4678   69.4489  222.3343 H   0  0  0  0  0  0  0  0  0  0  0  0
  138.9429   67.8950  224.2282 H   0  0  0  0  0  0  0  0  0  0  0  0
  139.8611   67.5451  226.5083 H   0  0  0  0  0  0  0  0  0  0  0  0
  141.5547   70.8998  228.6495 H   0  0  0  0  0  0  0  0  0  0  0  0
  141.0213   72.3537  226.6775 H   0  0  0  0  0  0  0  0  0  0  0  0
  1  2  2  0
  2  3  1  0
  3  4  1  0
  4  5  1  0
  5  6  2  0
  5  7  1  0
  7  8  1  0
  8  9  1  0
  9 10  1  0
 10 11  1  0
 11 12  1  0
 12 13  1  0
 13 14  2  0
 14 15  1  0
 15 16  2  0
 16 17  1  0
 16 18  1  0
 18 19  2  0
  2 20  1  0
 20 21  2  0
 21 22  1  0
 22 23  2  0
 23 24  1  0
 24 25  2  0
 25 26  1  0
 25 27  1  0
 27 28  2  0
 28 29  1  0
 29 30  2  0
 12  7  1  0
 19 13  1  0
 30 20  1  0
 29 23  1  0
  3 31  1  0
  4 32  1  0
  4 33  1  0
  8 34  1  0
  8 35  1  0
  9 36  1  0
  9 37  1  0
 10 38  1  0
 10 39  1  0
 11 40  1  0
 11 41  1  0
 12 42  1  1
 14 43  1  0
 15 44  1  0
 17 45  1  0
 18 46  1  0
 19 47  1  0
 21 48  1  0
 22 49  1  0
 24 50  1  0
 27 51  1  0
 28 52  1  0
M  END
>  <smiles>  (22) 
O=C(NCC(=O)N1CCCCC1c1ccc(O)cc1)c1ccc2cc(Cl)ccc2n1

>  <score_type>  (22) 
oracle

>  <origin>  (22) 
autodockgpu

>  <m_score__min__energy>  (22) 
-9.3000000000000007

>  <m_primary>  (22) 
energy

>  <rmsd>  (22) 
2.8847585111189598

>  <m_score__min__rmsd>  (22) 
2.8847585111189598

>  <meeko>  (22) 
{"free_energy": -8.38, "intermolecular_energy": -10.17, "internal_energy": -1.64, "cluster_size": 19, "cluster_id": 1, "rank_in_cluster": 14}

>  <energy>  (22) 
-9.0

>  <cluster_rmsd>  (22) 
0.33

>  <cluster>  (22) 
2

$$$$

     RDKit          3D

 52 55  0  0  0  0  0  0  0  0999 V2000
  140.4370   72.6140  220.7090 O   0  0  0  0  0  0  0  0  0  0  0  0
  140.0970   72.9610  221.8800 C   0  0  0  0  0  0  0  0  0  0  0  0
  139.7500   74.3020  222.1760 N   0  0  0  0  0  0  0  0  0  0  0  0
  139.7620   75.3300  221.1840 C   0  0  0  0  0  0  0  0  0  0  0  0
  138.9400   76.5020  221.6490 C   0  0  0  0  0  0  0  0  0  0  0  0
  137.7010   76.4000  221.4550 O   0  0  0  0  0  0  0  0  0  0  0  0
  139.5450   77.6370  222.2650 N   0  0  0  0  0  0  0  0  0  0  0  0
  138.7030   78.5600  222.9520 C   0  0  0  0  0  0  0  0  0  0  0  0
  139.3630   79.5290  223.8400 C   0  0  0  0  0  0  0  0  0  0  0  0
  140.8540   79.5650  223.7840 C   0  0  0  0  0  0  0  0  0  0  0  0
  141.5140   78.2840  223.4450 C   0  0  0  0  0  0  0  0  0  0  0  0
  140.9840   77.7550  222.1380 C   0  0  2  0  0  0  0  0  0  0  0  0
  141.4380   78.4850  220.9560 C   0  0  0  0  0  0  0  0  0  0  0  0
  141.9390   77.8400  219.8190 C   0  0  0  0  0  0  0  0  0  0  0  0
  142.3620   78.5350  218.7080 C   0  0  0  0  0  0  0  0  0  0  0  0
  142.3100   79.9110  218.6620 C   0  0  0  0  0  0  0  0  0  0  0  0
  142.7240   80.6580  217.5670 O   0  0  0  0  0  0  0  0  0  0  0  0
  141.8210   80.5700  219.7690 C   0  0  0  0  0  0  0  0  0  0  0  0
  141.4000   79.8670  220.8780 C   0  0  0  0  0  0  0  0  0  0  0  0
  140.0630   71.9480  222.9550 C   0  0  0  0  0  0  0  0  0  0  0  0
  139.5250   70.7030  222.6950 C   0  0  0  0  0  0  0  0  0  0  0  0
  139.5100   69.7780  223.7250 C   0  0  0  0  0  0  0  0  0  0  0  0
  140.0160   70.0950  224.9670 C   0  0  0  0  0  0  0  0  0  0  0  0
  140.0290   69.2180  226.0300 C   0  0  0  0  0  0  0  0  0  0  0  0
  140.5560   69.6050  227.2550 C   0  0  0  0  0  0  0  0  0  0  0  0
  140.5840   68.5020  228.6300 Cl  0  0  0  0  0  0  0  0  0  0  0  0
  141.0860   70.8680  227.4620 C   0  0  0  0  0  0  0  0  0  0  0  0
  141.0670   71.7400  226.3840 C   0  0  0  0  0  0  0  0  0  0  0  0
  140.5440   71.3510  225.1790 C   0  0  0  0  0  0  0  0  0  0  0  0
  140.5560   72.2430  224.1740 N   0  0  0  0  0  0  0  0  0  0  0  0
  139.4780   74.5080  223.1840 H   0  0  0  0  0  0  0  0  0  0  0  0
  140.7978   75.6572  221.0106 H   0  0  0  0  0  0  0  0  0  0  0  0
  139.3345   74.9363  220.2501 H   0  0  0  0  0  0  0  0  0  0  0  0
  138.1462   79.1299  222.1936 H   0  0  0  0  0  0  0  0  0  0  0  0
  138.0802   77.9414  223.6150 H   0  0  0  0  0  0  0  0  0  0  0  0
  138.9930   80.5311  223.5773 H   0  0  0  0  0  0  0  0  0  0  0  0
  139.1145   79.2081  224.8624 H   0  0  0  0  0  0  0  0  0  0  0  0
  141.1461   80.3068  223.0261 H   0  0  0  0  0  0  0  0  0  0  0  0
  141.1867   79.8138  224.8025 H   0  0  0  0  0  0  0  0  0  0  0  0
  142.5986   78.4459  223.3583 H   0  0  0  0  0  0  0  0  0  0  0  0
  141.3056   77.5520  224.2392 H   0  0  0  0  0  0  0  0  0  0  0  0
  141.4115   76.7594  221.9483 H   0  0  0  0  0  0  0  0  0  0  0  0
  141.9967   76.7415  219.8129 H   0  0  0  0  0  0  0  0  0  0  0  0
  142.7490   77.9807  217.8402 H   0  0  0  0  0  0  0  0  0  0  0  0
  143.6160   80.4460  217.0970 H   0  0  0  0  0  0  0  0  0  0  0  0
  141.7659   81.6686  219.7680 H   0  0  0  0  0  0  0  0  0  0  0  0
  141.0160   80.4304  221.7412 H   0  0  0  0  0  0  0  0  0  0  0  0
  139.1217   70.4544  221.7023 H   0  0  0  0  0  0  0  0  0  0  0  0
  139.0887   68.7771  223.5497 H   0  0  0  0  0  0  0  0  0  0  0  0
  139.6192   68.2046  225.9072 H   0  0  0  0  0  0  0  0  0  0  0  0
  141.5024   71.1652  228.4358 H   0  0  0  0  0  0  0  0  0  0  0  0
  141.4762   72.7547  226.4976 H   0  0  0  0  0  0  0  0  0  0  0  0
  1  2  2  0
  2  3  1  0
  3  4  1  0
  4  5  1  0
  5  6  2  0
  5  7  1  0
  7  8  1  0
  8  9  1  0
  9 10  1  0
 10 11  1  0
 11 12  1  0
 12 13  1  0
 13 14  2  0
 14 15  1  0
 15 16  2  0
 16 17  1  0
 16 18  1  0
 18 19  2  0
  2 20  1  0
 20 21  2  0
 21 22  1  0
 22 23  2  0
 23 24  1  0
 24 25  2  0
 25 26  1  0
 25 27  1  0
 27 28  2  0
 28 29  1  0
 29 30  2  0
 12  7  1  0
 19 13  1  0
 30 20  1  0
 29 23  1  0
  3 31  1  0
  4 32  1  0
  4 33  1  0
  8 34  1  0
  8 35  1  0
  9 36  1  0
  9 37  1  0
 10 38  1  0
 10 39  1  0
 11 40  1  0
 11 41  1  0
 12 42  1  6
 14 43  1  0
 15 44  1  0
 17 45  1  0
 18 46  1  0
 19 47  1  0
 21 48  1  0
 22 49  1  0
 24 50  1  0
 27 51  1  0
 28 52  1  0
M  END
>  <smiles>  (23) 
O=C(NCC(=O)N1CCCCC1c1ccc(O)cc1)c1ccc2cc(Cl)ccc2n1

>  <score_type>  (23) 
oracle

>  <origin>  (23) 
autodockgpu

>  <m_score__min__energy>  (23) 
-9.3000000000000007

>  <m_primary>  (23) 
energy

>  <rmsd>  (23) 
3.6412024166564674

>  <m_score__min__rmsd>  (23) 
3.6412024166564674

>  <meeko>  (23) 
{"free_energy": -9.25, "intermolecular_energy": -11.04, "internal_energy": -1.3, "cluster_size": 19, "cluster_id": 1, "rank_in_cluster": 4}

>  <energy>  (23) 
-8.93

>  <cluster_rmsd>  (23) 
0.4

>  <cluster>  (23) 
2

$$$$

     RDKit          3D

 52 55  0  0  0  0  0  0  0  0999 V2000
  136.2400   77.9920  222.8550 O   0  0  0  0  0  0  0  0  0  0  0  0
  136.3380   76.7800  223.2150 C   0  0  0  0  0  0  0  0  0  0  0  0
  137.4190   75.9730  222.7820 N   0  0  0  0  0  0  0  0  0  0  0  0
  138.4490   76.4710  221.9270 C   0  0  0  0  0  0  0  0  0  0  0  0
  139.5710   75.4710  221.8370 C   0  0  0  0  0  0  0  0  0  0  0  0
  139.3260   74.3420  222.3360 O   0  0  0  0  0  0  0  0  0  0  0  0
  140.8140   75.8030  221.2230 N   0  0  0  0  0  0  0  0  0  0  0  0
  141.8420   74.8140  221.2070 C   0  0  0  0  0  0  0  0  0  0  0  0
  142.9780   75.0510  220.3030 C   0  0  0  0  0  0  0  0  0  0  0  0
  143.0250   76.3860  219.6380 C   0  0  0  0  0  0  0  0  0  0  0  0
  141.7120   77.0200  219.3790 C   0  0  0  0  0  0  0  0  0  0  0  0
  140.9260   77.1330  220.6590 C   0  0  2  0  0  0  0  0  0  0  0  0
  141.4140   78.1530  221.5850 C   0  0  0  0  0  0  0  0  0  0  0  0
  141.4220   77.9680  222.9730 C   0  0  0  0  0  0  0  0  0  0  0  0
  141.8860   78.9330  223.8390 C   0  0  0  0  0  0  0  0  0  0  0  0
  142.3700   80.1370  223.3760 C   0  0  0  0  0  0  0  0  0  0  0  0
  142.8490   81.1410  224.2060 O   0  0  0  0  0  0  0  0  0  0  0  0
  142.3730   80.3440  222.0130 C   0  0  0  0  0  0  0  0  0  0  0  0
  141.9070   79.3730  221.1520 C   0  0  0  0  0  0  0  0  0  0  0  0
  135.3070   76.2000  224.0990 C   0  0  0  0  0  0  0  0  0  0  0  0
  134.3540   77.0270  224.6610 C   0  0  0  0  0  0  0  0  0  0  0  0
  133.4030   76.4500  225.4840 C   0  0  0  0  0  0  0  0  0  0  0  0
  133.4110   75.0940  225.7320 C   0  0  0  0  0  0  0  0  0  0  0  0
  132.4910   74.4620  226.5410 C   0  0  0  0  0  0  0  0  0  0  0  0
  132.5600   73.0910  226.7470 C   0  0  0  0  0  0  0  0  0  0  0  0
  131.3960   72.2600  227.7780 Cl  0  0  0  0  0  0  0  0  0  0  0  0
  133.5370   72.3060  226.1570 C   0  0  0  0  0  0  0  0  0  0  0  0
  134.4560   72.9550  225.3450 C   0  0  0  0  0  0  0  0  0  0  0  0
  134.3820   74.3090  225.1480 C   0  0  0  0  0  0  0  0  0  0  0  0
  135.3020   74.8760  224.3500 N   0  0  0  0  0  0  0  0  0  0  0  0
  137.4260   74.9670  223.1300 H   0  0  0  0  0  0  0  0  0  0  0  0
  138.0358   76.6464  220.9228 H   0  0  0  0  0  0  0  0  0  0  0  0
  138.8373   77.4136  222.3402 H   0  0  0  0  0  0  0  0  0  0  0  0
  142.2414   74.7329  222.2287 H   0  0  0  0  0  0  0  0  0  0  0  0
  141.3577   73.9024  220.8269 H   0  0  0  0  0  0  0  0  0  0  0  0
  143.9022   74.9352  220.8882 H   0  0  0  0  0  0  0  0  0  0  0  0
  142.8625   74.3209  219.4884 H   0  0  0  0  0  0  0  0  0  0  0  0
  143.6068   77.0634  220.2803 H   0  0  0  0  0  0  0  0  0  0  0  0
  143.4752   76.2133  218.6493 H   0  0  0  0  0  0  0  0  0  0  0  0
  141.8702   78.0247  218.9601 H   0  0  0  0  0  0  0  0  0  0  0  0
  141.1489   76.3997  218.6662 H   0  0  0  0  0  0  0  0  0  0  0  0
  139.9189   77.5147  220.4351 H   0  0  0  0  0  0  0  0  0  0  0  0
  141.0451   77.0204  223.3853 H   0  0  0  0  0  0  0  0  0  0  0  0
  141.8699   78.7387  224.9216 H   0  0  0  0  0  0  0  0  0  0  0  0
  142.8810   82.1190  223.8790 H   0  0  0  0  0  0  0  0  0  0  0  0
  142.7513   81.2942  221.6079 H   0  0  0  0  0  0  0  0  0  0  0  0
  141.9277   79.5766  220.0712 H   0  0  0  0  0  0  0  0  0  0  0  0
  134.3512   78.1086  224.4609 H   0  0  0  0  0  0  0  0  0  0  0  0
  132.6303   77.0817  225.9465 H   0  0  0  0  0  0  0  0  0  0  0  0
  131.6968   75.0481  227.0266 H   0  0  0  0  0  0  0  0  0  0  0  0
  133.5821   71.2197  226.3243 H   0  0  0  0  0  0  0  0  0  0  0  0
  135.2524   72.3764  224.8542 H   0  0  0  0  0  0  0  0  0  0  0  0
  1  2  2  0
  2  3  1  0
  3  4  1  0
  4  5  1  0
  5  6  2  0
  5  7  1  0
  7  8  1  0
  8  9  1  0
  9 10  1  0
 10 11  1  0
 11 12  1  0
 12 13  1  0
 13 14  2  0
 14 15  1  0
 15 16  2  0
 16 17  1  0
 16 18  1  0
 18 19  2  0
  2 20  1  0
 20 21  2  0
 21 22  1  0
 22 23  2  0
 23 24  1  0
 24 25  2  0
 25 26  1  0
 25 27  1  0
 27 28  2  0
 28 29  1  0
 29 30  2  0
 12  7  1  0
 19 13  1  0
 30 20  1  0
 29 23  1  0
  3 31  1  0
  4 32  1  0
  4 33  1  0
  8 34  1  0
  8 35  1  0
  9 36  1  0
  9 37  1  0
 10 38  1  0
 10 39  1  0
 11 40  1  0
 11 41  1  0
 12 42  1  6
 14 43  1  0
 15 44  1  0
 17 45  1  0
 18 46  1  0
 19 47  1  0
 21 48  1  0
 22 49  1  0
 24 50  1  0
 27 51  1  0
 28 52  1  0
M  END
>  <smiles>  (24) 
O=C(NCC(=O)N1CCCCC1c1ccc(O)cc1)c1ccc2cc(Cl)ccc2n1

>  <score_type>  (24) 
oracle

>  <origin>  (24) 
autodockgpu

>  <m_score__min__energy>  (24) 
-9.3000000000000007

>  <m_primary>  (24) 
energy

>  <rmsd>  (24) 
6.168101986589558

>  <m_score__min__rmsd>  (24) 
6.168101986589558

>  <meeko>  (24) 
{"free_energy": -7.34, "intermolecular_energy": -9.13, "internal_energy": -2.23, "cluster_size": 3, "cluster_id": 6, "rank_in_cluster": 2}

>  <energy>  (24) 
-8.83

>  <cluster_rmsd>  (24) 
0.47

>  <cluster>  (24) 
2

$$$$

     RDKit          3D

 52 55  0  0  0  0  0  0  0  0999 V2000
  137.6260   71.2010  221.5380 O   0  0  0  0  0  0  0  0  0  0  0  0
  138.3730   71.6680  222.4500 C   0  0  0  0  0  0  0  0  0  0  0  0
  138.7970   73.0200  222.4300 N   0  0  0  0  0  0  0  0  0  0  0  0
  138.4110   73.9250  221.3950 C   0  0  0  0  0  0  0  0  0  0  0  0
  139.2740   75.1570  221.4410 C   0  0  0  0  0  0  0  0  0  0  0  0
  140.5090   74.9450  221.5590 O   0  0  0  0  0  0  0  0  0  0  0  0
  138.7110   76.4640  221.3530 N   0  0  0  0  0  0  0  0  0  0  0  0
  138.1180   76.8600  220.1180 C   0  0  0  0  0  0  0  0  0  0  0  0
  137.2690   78.0620  220.1420 C   0  0  0  0  0  0  0  0  0  0  0  0
  137.2700   78.8430  221.4140 C   0  0  0  0  0  0  0  0  0  0  0  0
  137.4990   78.0590  222.6480 C   0  0  0  0  0  0  0  0  0  0  0  0
  138.7880   77.2870  222.5430 C   0  0  2  0  0  0  0  0  0  0  0  0
  139.9970   78.1030  222.6470 C   0  0  0  0  0  0  0  0  0  0  0  0
  140.1480   79.1050  223.6120 C   0  0  0  0  0  0  0  0  0  0  0  0
  141.2910   79.8680  223.7040 C   0  0  0  0  0  0  0  0  0  0  0  0
  142.3510   79.6760  222.8450 C   0  0  0  0  0  0  0  0  0  0  0  0
  143.5240   80.4160  222.8980 O   0  0  0  0  0  0  0  0  0  0  0  0
  142.2280   78.6940  221.8870 C   0  0  0  0  0  0  0  0  0  0  0  0
  141.0790   77.9350  221.7990 C   0  0  0  0  0  0  0  0  0  0  0  0
  138.8110   70.7870  223.5520 C   0  0  0  0  0  0  0  0  0  0  0  0
  138.5040   69.4410  223.5040 C   0  0  0  0  0  0  0  0  0  0  0  0
  138.9300   68.6450  224.5530 C   0  0  0  0  0  0  0  0  0  0  0  0
  139.6350   69.1820  225.6080 C   0  0  0  0  0  0  0  0  0  0  0  0
  140.0850   68.4400  226.6790 C   0  0  0  0  0  0  0  0  0  0  0  0
  140.7920   69.0490  227.7090 C   0  0  0  0  0  0  0  0  0  0  0  0
  141.3770   68.1220  229.0890 Cl  0  0  0  0  0  0  0  0  0  0  0  0
  141.0730   70.4040  227.7070 C   0  0  0  0  0  0  0  0  0  0  0  0
  140.6150   71.1380  226.6230 C   0  0  0  0  0  0  0  0  0  0  0  0
  139.9180   70.5310  225.6110 C   0  0  0  0  0  0  0  0  0  0  0  0
  139.5020   71.2980  224.5890 N   0  0  0  0  0  0  0  0  0  0  0  0
  139.4220   73.3310  223.2330 H   0  0  0  0  0  0  0  0  0  0  0  0
  138.5295   73.4334  220.4182 H   0  0  0  0  0  0  0  0  0  0  0  0
  137.3599   74.2145  221.5416 H   0  0  0  0  0  0  0  0  0  0  0  0
  138.9326   77.0428  219.4018 H   0  0  0  0  0  0  0  0  0  0  0  0
  137.4410   76.0362  219.8479 H   0  0  0  0  0  0  0  0  0  0  0  0
  137.6100   78.7301  219.3374 H   0  0  0  0  0  0  0  0  0  0  0  0
  136.2383   77.6974  220.0207 H   0  0  0  0  0  0  0  0  0  0  0  0
  138.0629   79.6022  221.3439 H   0  0  0  0  0  0  0  0  0  0  0  0
  136.2577   79.2629  221.5089 H   0  0  0  0  0  0  0  0  0  0  0  0
  137.5542   78.7429  223.5078 H   0  0  0  0  0  0  0  0  0  0  0  0
  136.6674   77.3517  222.7830 H   0  0  0  0  0  0  0  0  0  0  0  0
  138.8944   76.6366  223.4237 H   0  0  0  0  0  0  0  0  0  0  0  0
  139.3269   79.2894  224.3204 H   0  0  0  0  0  0  0  0  0  0  0  0
  141.3589   80.6460  224.4786 H   0  0  0  0  0  0  0  0  0  0  0  0
  144.3470   80.1320  222.3450 H   0  0  0  0  0  0  0  0  0  0  0  0
  143.0548   78.5128  221.1844 H   0  0  0  0  0  0  0  0  0  0  0  0
  141.0197   77.1610  221.0196 H   0  0  0  0  0  0  0  0  0  0  0  0
  137.9400   69.0162  222.6605 H   0  0  0  0  0  0  0  0  0  0  0  0
  138.7026   67.5688  224.5443 H   0  0  0  0  0  0  0  0  0  0  0  0
  139.8833   67.3594  226.7187 H   0  0  0  0  0  0  0  0  0  0  0  0
  141.6335   70.8769  228.5269 H   0  0  0  0  0  0  0  0  0  0  0  0
  140.8133   72.2189  226.5750 H   0  0  0  0  0  0  0  0  0  0  0  0
  1  2  2  0
  2  3  1  0
  3  4  1  0
  4  5  1  0
  5  6  2  0
  5  7  1  0
  7  8  1  0
  8  9  1  0
  9 10  1  0
 10 11  1  0
 11 12  1  0
 12 13  1  0
 13 14  2  0
 14 15  1  0
 15 16  2  0
 16 17  1  0
 16 18  1  0
 18 19  2  0
  2 20  1  0
 20 21  2  0
 21 22  1  0
 22 23  2  0
 23 24  1  0
 24 25  2  0
 25 26  1  0
 25 27  1  0
 27 28  2  0
 28 29  1  0
 29 30  2  0
 12  7  1  0
 19 13  1  0
 30 20  1  0
 29 23  1  0
  3 31  1  0
  4 32  1  0
  4 33  1  0
  8 34  1  0
  8 35  1  0
  9 36  1  0
  9 37  1  0
 10 38  1  0
 10 39  1  0
 11 40  1  0
 11 41  1  0
 12 42  1  1
 14 43  1  0
 15 44  1  0
 17 45  1  0
 18 46  1  0
 19 47  1  0
 21 48  1  0
 22 49  1  0
 24 50  1  0
 27 51  1  0
 28 52  1  0
M  END
>  <smiles>  (25) 
O=C(NCC(=O)N1CCCCC1c1ccc(O)cc1)c1ccc2cc(Cl)ccc2n1

>  <score_type>  (25) 
oracle

>  <origin>  (25) 
autodockgpu

>  <m_score__min__energy>  (25) 
-9.3000000000000007

>  <m_primary>  (25) 
energy

>  <rmsd>  (25) 
2.7074945206647087

>  <m_score__min__rmsd>  (25) 
2.7074945206647087

>  <meeko>  (25) 
{"free_energy": -8.2, "intermolecular_energy": -9.99, "internal_energy": -1.76, "cluster_size": 18, "cluster_id": 2, "rank_in_cluster": 12}

>  <energy>  (25) 
-8.82

>  <cluster_rmsd>  (25) 
0.49

>  <cluster>  (25) 
2

$$$$

     RDKit          3D

 52 55  0  0  0  0  0  0  0  0999 V2000
  139.2740   71.5810  220.9130 O   0  0  0  0  0  0  0  0  0  0  0  0
  139.4360   72.0440  222.0820 C   0  0  0  0  0  0  0  0  0  0  0  0
  139.4510   73.4400  222.3220 N   0  0  0  0  0  0  0  0  0  0  0  0
  139.2870   74.3960  221.2730 C   0  0  0  0  0  0  0  0  0  0  0  0
  140.4330   75.3720  221.2830 C   0  0  0  0  0  0  0  0  0  0  0  0
  140.5320   76.0740  222.3230 O   0  0  0  0  0  0  0  0  0  0  0  0
  141.3320   75.4750  220.1810 N   0  0  0  0  0  0  0  0  0  0  0  0
  140.7920   75.7850  218.8990 C   0  0  0  0  0  0  0  0  0  0  0  0
  141.7460   76.2010  217.8580 C   0  0  0  0  0  0  0  0  0  0  0  0
  143.1920   76.0740  218.2020 C   0  0  0  0  0  0  0  0  0  0  0  0
  143.5270   76.2310  219.6360 C   0  0  0  0  0  0  0  0  0  0  0  0
  142.7360   75.2540  220.4650 C   0  0  2  0  0  0  0  0  0  0  0  0
  143.1730   73.8640  220.3520 C   0  0  0  0  0  0  0  0  0  0  0  0
  142.2740   72.7910  220.3300 C   0  0  0  0  0  0  0  0  0  0  0  0
  142.6940   71.4840  220.2200 C   0  0  0  0  0  0  0  0  0  0  0  0
  144.0320   71.1680  220.1230 C   0  0  0  0  0  0  0  0  0  0  0  0
  144.5060   69.8680  220.0100 O   0  0  0  0  0  0  0  0  0  0  0  0
  144.9370   72.2060  220.1420 C   0  0  0  0  0  0  0  0  0  0  0  0
  144.5090   73.5130  220.2530 C   0  0  0  0  0  0  0  0  0  0  0  0
  139.6120   71.1110  223.2130 C   0  0  0  0  0  0  0  0  0  0  0  0
  139.2050   69.7990  223.0790 C   0  0  0  0  0  0  0  0  0  0  0  0
  139.3850   68.9520  224.1590 C   0  0  0  0  0  0  0  0  0  0  0  0
  139.9540   69.4090  225.3280 C   0  0  0  0  0  0  0  0  0  0  0  0
  140.1590   68.6150  226.4360 C   0  0  0  0  0  0  0  0  0  0  0  0
  140.7380   69.1440  227.5830 C   0  0  0  0  0  0  0  0  0  0  0  0
  141.0110   68.1490  229.0120 Cl  0  0  0  0  0  0  0  0  0  0  0  0
  141.1300   70.4690  227.6650 C   0  0  0  0  0  0  0  0  0  0  0  0
  140.9180   71.2570  226.5430 C   0  0  0  0  0  0  0  0  0  0  0  0
  140.3460   70.7280  225.4160 C   0  0  0  0  0  0  0  0  0  0  0  0
  140.1670   71.5440  224.3630 N   0  0  0  0  0  0  0  0  0  0  0  0
  139.5930   73.7450  223.3320 H   0  0  0  0  0  0  0  0  0  0  0  0
  139.2613   73.8741  220.3050 H   0  0  0  0  0  0  0  0  0  0  0  0
  138.3451   74.9430  221.4266 H   0  0  0  0  0  0  0  0  0  0  0  0
  140.2701   74.8887  218.5326 H   0  0  0  0  0  0  0  0  0  0  0  0
  140.1468   76.6606  219.0634 H   0  0  0  0  0  0  0  0  0  0  0  0
  141.5580   75.5863  216.9653 H   0  0  0  0  0  0  0  0  0  0  0  0
  141.5714   77.2771  217.7113 H   0  0  0  0  0  0  0  0  0  0  0  0
  143.5289   75.0765  217.8835 H   0  0  0  0  0  0  0  0  0  0  0  0
  143.6975   76.9021  217.6835 H   0  0  0  0  0  0  0  0  0  0  0  0
  144.6013   76.0440  219.7807 H   0  0  0  0  0  0  0  0  0  0  0  0
  143.2778   77.2545  219.9527 H   0  0  0  0  0  0  0  0  0  0  0  0
  142.9229   75.4479  221.5315 H   0  0  0  0  0  0  0  0  0  0  0  0
  141.1963   72.9988  220.4030 H   0  0  0  0  0  0  0  0  0  0  0  0
  141.9470   70.6766  220.2094 H   0  0  0  0  0  0  0  0  0  0  0  0
  143.9620   69.1560  219.5020 H   0  0  0  0  0  0  0  0  0  0  0  0
  146.0132   71.9906  220.0678 H   0  0  0  0  0  0  0  0  0  0  0  0
  145.2638   74.3131  220.2633 H   0  0  0  0  0  0  0  0  0  0  0  0
  138.7521   69.4380  222.1439 H   0  0  0  0  0  0  0  0  0  0  0  0
  139.0699   67.9008  224.0832 H   0  0  0  0  0  0  0  0  0  0  0  0
  139.8624   67.5560  226.4120 H   0  0  0  0  0  0  0  0  0  0  0  0
  141.5883   70.8782  228.5774 H   0  0  0  0  0  0  0  0  0  0  0  0
  141.2120   72.3169  226.5584 H   0  0  0  0  0  0  0  0  0  0  0  0
  1  2  2  0
  2  3  1  0
  3  4  1  0
  4  5  1  0
  5  6  2  0
  5  7  1  0
  7  8  1  0
  8  9  1  0
  9 10  1  0
 10 11  1  0
 11 12  1  0
 12 13  1  0
 13 14  2  0
 14 15  1  0
 15 16  2  0
 16 17  1  0
 16 18  1  0
 18 19  2  0
  2 20  1  0
 20 21  2  0
 21 22  1  0
 22 23  2  0
 23 24  1  0
 24 25  2  0
 25 26  1  0
 25 27  1  0
 27 28  2  0
 28 29  1  0
 29 30  2  0
 12  7  1  0
 19 13  1  0
 30 20  1  0
 29 23  1  0
  3 31  1  0
  4 32  1  0
  4 33  1  0
  8 34  1  0
  8 35  1  0
  9 36  1  0
  9 37  1  0
 10 38  1  0
 10 39  1  0
 11 40  1  0
 11 41  1  0
 12 42  1  1
 14 43  1  0
 15 44  1  0
 17 45  1  0
 18 46  1  0
 19 47  1  0
 21 48  1  0
 22 49  1  0
 24 50  1  0
 27 51  1  0
 28 52  1  0
M  END
>  <smiles>  (26) 
O=C(NCC(=O)N1CCCCC1c1ccc(O)cc1)c1ccc2cc(Cl)ccc2n1

>  <score_type>  (26) 
oracle

>  <origin>  (26) 
autodockgpu

>  <m_score__min__energy>  (26) 
-9.3000000000000007

>  <m_primary>  (26) 
energy

>  <rmsd>  (26) 
1.7302230626517454

>  <m_score__min__rmsd>  (26) 
1.7302230626517454

>  <meeko>  (26) 
{"free_energy": -7.56, "intermolecular_energy": -9.35, "internal_energy": -2.1, "cluster_size": 5, "cluster_id": 3, "rank_in_cluster": 5}

>  <energy>  (26) 
-8.79

>  <cluster_rmsd>  (26) 
0.42

>  <cluster>  (26) 
2

$$$$

     RDKit          3D

 52 55  0  0  0  0  0  0  0  0999 V2000
  140.7220   74.0010  221.1280 O   0  0  0  0  0  0  0  0  0  0  0  0
  139.7480   73.8240  221.9200 C   0  0  0  0  0  0  0  0  0  0  0  0
  138.7740   74.8330  222.1240 N   0  0  0  0  0  0  0  0  0  0  0  0
  138.8330   76.0950  221.4560 C   0  0  0  0  0  0  0  0  0  0  0  0
  138.6220   77.2100  222.4450 C   0  0  0  0  0  0  0  0  0  0  0  0
  137.5370   77.1660  223.0820 O   0  0  0  0  0  0  0  0  0  0  0  0
  139.5990   78.2310  222.6330 N   0  0  0  0  0  0  0  0  0  0  0  0
  139.1480   79.5390  222.9810 C   0  0  0  0  0  0  0  0  0  0  0  0
  140.1610   80.4810  223.4800 C   0  0  0  0  0  0  0  0  0  0  0  0
  141.5810   80.0290  223.3930 C   0  0  0  0  0  0  0  0  0  0  0  0
  141.7970   78.5680  223.4970 C   0  0  0  0  0  0  0  0  0  0  0  0
  140.9840   77.8470  222.4530 C   0  0  2  0  0  0  0  0  0  0  0  0
  141.4870   77.9840  221.0870 C   0  0  0  0  0  0  0  0  0  0  0  0
  142.0760   76.9230  220.3910 C   0  0  0  0  0  0  0  0  0  0  0  0
  142.5450   77.0610  219.1040 C   0  0  0  0  0  0  0  0  0  0  0  0
  142.4530   78.2600  218.4330 C   0  0  0  0  0  0  0  0  0  0  0  0
  142.9090   78.4500  217.1350 O   0  0  0  0  0  0  0  0  0  0  0  0
  141.8760   79.3210  219.0960 C   0  0  0  0  0  0  0  0  0  0  0  0
  141.4090   79.1760  220.3860 C   0  0  0  0  0  0  0  0  0  0  0  0
  139.6260   72.5420  222.6440 C   0  0  0  0  0  0  0  0  0  0  0  0
  138.7500   71.5820  222.1780 C   0  0  0  0  0  0  0  0  0  0  0  0
  138.6610   70.3930  222.8800 C   0  0  0  0  0  0  0  0  0  0  0  0
  139.4260   70.1790  224.0070 C   0  0  0  0  0  0  0  0  0  0  0  0
  139.3820   69.0160  224.7470 C   0  0  0  0  0  0  0  0  0  0  0  0
  140.1810   68.8690  225.8740 C   0  0  0  0  0  0  0  0  0  0  0  0
  140.1430   67.3930  226.8370 Cl  0  0  0  0  0  0  0  0  0  0  0  0
  141.0450   69.8650  226.2980 C   0  0  0  0  0  0  0  0  0  0  0  0
  141.0790   71.0280  225.5440 C   0  0  0  0  0  0  0  0  0  0  0  0
  140.2870   71.1660  224.4340 C   0  0  0  0  0  0  0  0  0  0  0  0
  140.3680   72.3180  223.7470 N   0  0  0  0  0  0  0  0  0  0  0  0
  137.9900   74.6030  222.8050 H   0  0  0  0  0  0  0  0  0  0  0  0
  139.8186   76.2104  220.9813 H   0  0  0  0  0  0  0  0  0  0  0  0
  138.0439   76.1363  220.6907 H   0  0  0  0  0  0  0  0  0  0  0  0
  138.6941   79.9839  222.0832 H   0  0  0  0  0  0  0  0  0  0  0  0
  138.4561   79.3893  223.8229 H   0  0  0  0  0  0  0  0  0  0  0  0
  140.0688   81.4112  222.9002 H   0  0  0  0  0  0  0  0  0  0  0  0
  139.9535   80.5945  224.5543 H   0  0  0  0  0  0  0  0  0  0  0  0
  141.9830   80.3620  222.4248 H   0  0  0  0  0  0  0  0  0  0  0  0
  142.0900   80.4701  224.2627 H   0  0  0  0  0  0  0  0  0  0  0  0
  142.8636   78.3464  223.3441 H   0  0  0  0  0  0  0  0  0  0  0  0
  141.4826   78.2285  224.4949 H   0  0  0  0  0  0  0  0  0  0  0  0
  141.0781   76.7616  222.6049 H   0  0  0  0  0  0  0  0  0  0  0  0
  142.1674   75.9462  220.8885 H   0  0  0  0  0  0  0  0  0  0  0  0
  143.0025   76.1960  218.6015 H   0  0  0  0  0  0  0  0  0  0  0  0
  143.3420   79.3440  216.8590 H   0  0  0  0  0  0  0  0  0  0  0  0
  141.7867   80.2943  218.5913 H   0  0  0  0  0  0  0  0  0  0  0  0
  140.9539   80.0469  220.8804 H   0  0  0  0  0  0  0  0  0  0  0  0
  138.1425   71.7567  221.2778 H   0  0  0  0  0  0  0  0  0  0  0  0
  137.9713   69.6087  222.5347 H   0  0  0  0  0  0  0  0  0  0  0  0
  138.7102   68.1998  224.4430 H   0  0  0  0  0  0  0  0  0  0  0  0
  141.6747   69.7392  227.1911 H   0  0  0  0  0  0  0  0  0  0  0  0
  141.7489   71.8488  225.8399 H   0  0  0  0  0  0  0  0  0  0  0  0
  1  2  2  0
  2  3  1  0
  3  4  1  0
  4  5  1  0
  5  6  2  0
  5  7  1  0
  7  8  1  0
  8  9  1  0
  9 10  1  0
 10 11  1  0
 11 12  1  0
 12 13  1  0
 13 14  2  0
 14 15  1  0
 15 16  2  0
 16 17  1  0
 16 18  1  0
 18 19  2  0
  2 20  1  0
 20 21  2  0
 21 22  1  0
 22 23  2  0
 23 24  1  0
 24 25  2  0
 25 26  1  0
 25 27  1  0
 27 28  2  0
 28 29  1  0
 29 30  2  0
 12  7  1  0
 19 13  1  0
 30 20  1  0
 29 23  1  0
  3 31  1  0
  4 32  1  0
  4 33  1  0
  8 34  1  0
  8 35  1  0
  9 36  1  0
  9 37  1  0
 10 38  1  0
 10 39  1  0
 11 40  1  0
 11 41  1  0
 12 42  1  1
 14 43  1  0
 15 44  1  0
 17 45  1  0
 18 46  1  0
 19 47  1  0
 21 48  1  0
 22 49  1  0
 24 50  1  0
 27 51  1  0
 28 52  1  0
M  END
>  <smiles>  (27) 
O=C(NCC(=O)N1CCCCC1c1ccc(O)cc1)c1ccc2cc(Cl)ccc2n1

>  <score_type>  (27) 
oracle

>  <origin>  (27) 
autodockgpu

>  <m_score__min__energy>  (27) 
-9.3000000000000007

>  <m_primary>  (27) 
energy

>  <rmsd>  (27) 
4.028820090567695

>  <m_score__min__rmsd>  (27) 
4.028820090567695

>  <meeko>  (27) 
{"free_energy": -8.96, "intermolecular_energy": -10.75, "internal_energy": -1.59, "cluster_size": 19, "cluster_id": 1, "rank_in_cluster": 8}

>  <energy>  (27) 
-8.65

>  <cluster_rmsd>  (27) 
0.93

>  <cluster>  (27) 
2

$$$$

     RDKit          3D

 52 55  0  0  0  0  0  0  0  0999 V2000
  141.7710   79.0250  216.6790 O   0  0  0  0  0  0  0  0  0  0  0  0
  142.2270   78.5610  217.7670 C   0  0  0  0  0  0  0  0  0  0  0  0
  142.1610   79.3100  218.9680 N   0  0  0  0  0  0  0  0  0  0  0  0
  141.5830   80.6150  219.0230 C   0  0  0  0  0  0  0  0  0  0  0  0
  140.7100   80.7400  220.2430 C   0  0  0  0  0  0  0  0  0  0  0  0
  139.5500   81.1790  220.0320 O   0  0  0  0  0  0  0  0  0  0  0  0
  141.1860   80.3770  221.5370 N   0  0  0  0  0  0  0  0  0  0  0  0
  142.5720   80.5550  221.8190 C   0  0  0  0  0  0  0  0  0  0  0  0
  142.9780   80.4860  223.2320 C   0  0  0  0  0  0  0  0  0  0  0  0
  141.9270   80.0530  224.1990 C   0  0  0  0  0  0  0  0  0  0  0  0
  140.5360   80.4010  223.8320 C   0  0  0  0  0  0  0  0  0  0  0  0
  140.2050   79.8550  222.4670 C   0  0  2  0  0  0  0  0  0  0  0  0
  140.0240   78.4050  222.4180 C   0  0  0  0  0  0  0  0  0  0  0  0
  138.8080   77.7870  222.7310 C   0  0  0  0  0  0  0  0  0  0  0  0
  138.6450   76.4200  222.6790 C   0  0  0  0  0  0  0  0  0  0  0  0
  139.6810   75.5890  222.3120 C   0  0  0  0  0  0  0  0  0  0  0  0
  139.5690   74.2080  222.2440 O   0  0  0  0  0  0  0  0  0  0  0  0
  140.8890   76.1740  221.9990 C   0  0  0  0  0  0  0  0  0  0  0  0
  141.0450   77.5430  222.0530 C   0  0  0  0  0  0  0  0  0  0  0  0
  142.8390   77.2170  217.7820 C   0  0  0  0  0  0  0  0  0  0  0  0
  143.1100   76.5830  216.5860 C   0  0  0  0  0  0  0  0  0  0  0  0
  143.6840   75.3240  216.6370 C   0  0  0  0  0  0  0  0  0  0  0  0
  143.9740   74.7280  217.8460 C   0  0  0  0  0  0  0  0  0  0  0  0
  144.5450   73.4790  217.9610 C   0  0  0  0  0  0  0  0  0  0  0  0
  144.8100   72.9390  219.2130 C   0  0  0  0  0  0  0  0  0  0  0  0
  145.5400   71.3440  219.3860 Cl  0  0  0  0  0  0  0  0  0  0  0  0
  144.5190   73.6200  220.3830 C   0  0  0  0  0  0  0  0  0  0  0  0
  143.9450   74.8750  220.2530 C   0  0  0  0  0  0  0  0  0  0  0  0
  143.6860   75.4010  219.0140 C   0  0  0  0  0  0  0  0  0  0  0  0
  143.1290   76.6220  218.9560 N   0  0  0  0  0  0  0  0  0  0  0  0
  142.5670   78.8470  219.8360 H   0  0  0  0  0  0  0  0  0  0  0  0
  142.3846   81.3668  219.0700 H   0  0  0  0  0  0  0  0  0  0  0  0
  140.9716   80.7775  218.1231 H   0  0  0  0  0  0  0  0  0  0  0  0
  143.1246   79.7742  221.2759 H   0  0  0  0  0  0  0  0  0  0  0  0
  142.7986   81.5847  221.5054 H   0  0  0  0  0  0  0  0  0  0  0  0
  143.8153   79.7765  223.3064 H   0  0  0  0  0  0  0  0  0  0  0  0
  143.2323   81.5178  223.5160 H   0  0  0  0  0  0  0  0  0  0  0  0
  141.9874   78.9590  224.2966 H   0  0  0  0  0  0  0  0  0  0  0  0
  142.1360   80.5958  225.1326 H   0  0  0  0  0  0  0  0  0  0  0  0
  139.8463   79.9700  224.5726 H   0  0  0  0  0  0  0  0  0  0  0  0
  140.4329   81.4960  223.8149 H   0  0  0  0  0  0  0  0  0  0  0  0
  139.2051   80.2033  222.1688 H   0  0  0  0  0  0  0  0  0  0  0  0
  137.9541   78.4135  223.0284 H   0  0  0  0  0  0  0  0  0  0  0  0
  137.6685   75.9833  222.9355 H   0  0  0  0  0  0  0  0  0  0  0  0
  138.8940   73.7080  222.8420 H   0  0  0  0  0  0  0  0  0  0  0  0
  141.7387   75.5414  221.7026 H   0  0  0  0  0  0  0  0  0  0  0  0
  142.0251   77.9701  221.7944 H   0  0  0  0  0  0  0  0  0  0  0  0
  142.8775   77.0625  215.6237 H   0  0  0  0  0  0  0  0  0  0  0  0
  143.9115   74.7926  215.7011 H   0  0  0  0  0  0  0  0  0  0  0  0
  144.7925   72.9059  217.0553 H   0  0  0  0  0  0  0  0  0  0  0  0
  144.7335   73.1850  221.3703 H   0  0  0  0  0  0  0  0  0  0  0  0
  143.6947   75.4549  221.1536 H   0  0  0  0  0  0  0  0  0  0  0  0
  1  2  2  0
  2  3  1  0
  3  4  1  0
  4  5  1  0
  5  6  2  0
  5  7  1  0
  7  8  1  0
  8  9  1  0
  9 10  1  0
 10 11  1  0
 11 12  1  0
 12 13  1  0
 13 14  2  0
 14 15  1  0
 15 16  2  0
 16 17  1  0
 16 18  1  0
 18 19  2  0
  2 20  1  0
 20 21  2  0
 21 22  1  0
 22 23  2  0
 23 24  1  0
 24 25  2  0
 25 26  1  0
 25 27  1  0
 27 28  2  0
 28 29  1  0
 29 30  2  0
 12  7  1  0
 19 13  1  0
 30 20  1  0
 29 23  1  0
  3 31  1  0
  4 32  1  0
  4 33  1  0
  8 34  1  0
  8 35  1  0
  9 36  1  0
  9 37  1  0
 10 38  1  0
 10 39  1  0
 11 40  1  0
 11 41  1  0
 12 42  1  6
 14 43  1  0
 15 44  1  0
 17 45  1  0
 18 46  1  0
 19 47  1  0
 21 48  1  0
 22 49  1  0
 24 50  1  0
 27 51  1  0
 28 52  1  0
M  END
>  <smiles>  (28) 
O=C(NCC(=O)N1CCCCC1c1ccc(O)cc1)c1ccc2cc(Cl)ccc2n1

>  <score_type>  (28) 
oracle

>  <origin>  (28) 
autodockgpu

>  <m_score__min__energy>  (28) 
-9.3000000000000007

>  <m_primary>  (28) 
energy

>  <rmsd>  (28) 
8.536720535836578

>  <m_score__min__rmsd>  (28) 
8.536720535836578

>  <meeko>  (28) 
{"free_energy": -7.6, "intermolecular_energy": -9.39, "internal_energy": -2.2, "cluster_size": 3, "cluster_id": 5, "rank_in_cluster": 1}

>  <energy>  (28) 
-8.61

>  <cluster_rmsd>  (28) 
0.52

>  <cluster>  (28) 
2

$$$$

     RDKit          3D

 52 55  0  0  0  0  0  0  0  0999 V2000
  142.1800   79.6910  218.2230 O   0  0  0  0  0  0  0  0  0  0  0  0
  141.6650   78.6130  218.6460 C   0  0  0  0  0  0  0  0  0  0  0  0
  140.3860   78.6010  219.2560 N   0  0  0  0  0  0  0  0  0  0  0  0
  139.6120   79.7900  219.4270 C   0  0  0  0  0  0  0  0  0  0  0  0
  140.3640   80.7740  220.2830 C   0  0  0  0  0  0  0  0  0  0  0  0
  140.3490   81.9640  219.8750 O   0  0  0  0  0  0  0  0  0  0  0  0
  141.0370   80.3630  221.4720 N   0  0  0  0  0  0  0  0  0  0  0  0
  142.4530   80.5180  221.5310 C   0  0  0  0  0  0  0  0  0  0  0  0
  143.0800   80.3970  222.8570 C   0  0  0  0  0  0  0  0  0  0  0  0
  142.1920   79.9410  223.9660 C   0  0  0  0  0  0  0  0  0  0  0  0
  140.7650   80.3140  223.8410 C   0  0  0  0  0  0  0  0  0  0  0  0
  140.2110   79.8180  222.5310 C   0  0  2  0  0  0  0  0  0  0  0  0
  140.0030   78.3730  222.4650 C   0  0  0  0  0  0  0  0  0  0  0  0
  141.0510   77.4710  222.2460 C   0  0  0  0  0  0  0  0  0  0  0  0
  140.8470   76.1100  222.1870 C   0  0  0  0  0  0  0  0  0  0  0  0
  139.5910   75.5670  222.3450 C   0  0  0  0  0  0  0  0  0  0  0  0
  139.3330   74.2040  222.2960 O   0  0  0  0  0  0  0  0  0  0  0  0
  138.5420   76.4340  222.5630 C   0  0  0  0  0  0  0  0  0  0  0  0
  138.7540   77.7960  222.6190 C   0  0  0  0  0  0  0  0  0  0  0  0
  142.4110   77.3470  218.5010 C   0  0  0  0  0  0  0  0  0  0  0  0
  142.9760   77.0300  217.2810 C   0  0  0  0  0  0  0  0  0  0  0  0
  143.6680   75.8350  217.1810 C   0  0  0  0  0  0  0  0  0  0  0  0
  143.7870   74.9940  218.2660 C   0  0  0  0  0  0  0  0  0  0  0  0
  144.4640   73.7930  218.2280 C   0  0  0  0  0  0  0  0  0  0  0  0
  144.5440   72.9950  219.3610 C   0  0  0  0  0  0  0  0  0  0  0  0
  145.4030   71.4550  219.3370 Cl  0  0  0  0  0  0  0  0  0  0  0  0
  143.9590   73.3610  220.5620 C   0  0  0  0  0  0  0  0  0  0  0  0
  143.2820   74.5710  220.5860 C   0  0  0  0  0  0  0  0  0  0  0  0
  143.2070   75.3530  219.4640 C   0  0  0  0  0  0  0  0  0  0  0  0
  142.5360   76.5140  219.5530 N   0  0  0  0  0  0  0  0  0  0  0  0
  140.0270   77.6550  219.5830 H   0  0  0  0  0  0  0  0  0  0  0  0
  139.4132   80.2401  218.4432 H   0  0  0  0  0  0  0  0  0  0  0  0
  138.6617   79.5351  219.9190 H   0  0  0  0  0  0  0  0  0  0  0  0
  142.8989   79.7508  220.8810 H   0  0  0  0  0  0  0  0  0  0  0  0
  142.6419   81.5553  221.2173 H   0  0  0  0  0  0  0  0  0  0  0  0
  143.9079   79.6777  222.7725 H   0  0  0  0  0  0  0  0  0  0  0  0
  143.3919   81.4161  223.1294 H   0  0  0  0  0  0  0  0  0  0  0  0
  142.2512   78.8438  224.0168 H   0  0  0  0  0  0  0  0  0  0  0  0
  142.5566   80.4501  224.8704 H   0  0  0  0  0  0  0  0  0  0  0  0
  140.1978   79.8640  224.6691 H   0  0  0  0  0  0  0  0  0  0  0  0
  140.6758   81.4098  223.8768 H   0  0  0  0  0  0  0  0  0  0  0  0
  139.1812   80.1851  222.4095 H   0  0  0  0  0  0  0  0  0  0  0  0
  142.0710   77.8620  222.1168 H   0  0  0  0  0  0  0  0  0  0  0  0
  141.7041   75.4436  222.0102 H   0  0  0  0  0  0  0  0  0  0  0  0
  138.8030   73.7440  223.0510 H   0  0  0  0  0  0  0  0  0  0  0  0
  137.5250   76.0357  222.6937 H   0  0  0  0  0  0  0  0  0  0  0  0
  137.8903   78.4543  222.7942 H   0  0  0  0  0  0  0  0  0  0  0  0
  142.8793   77.7046  216.4176 H   0  0  0  0  0  0  0  0  0  0  0  0
  144.1289   75.5532  216.2228 H   0  0  0  0  0  0  0  0  0  0  0  0
  144.9436   73.4654  217.2939 H   0  0  0  0  0  0  0  0  0  0  0  0
  144.0282   72.7220  221.4547 H   0  0  0  0  0  0  0  0  0  0  0  0
  142.8000   74.9064  221.5162 H   0  0  0  0  0  0  0  0  0  0  0  0
  1  2  2  0
  2  3  1  0
  3  4  1  0
  4  5  1  0
  5  6  2  0
  5  7  1  0
  7  8  1  0
  8  9  1  0
  9 10  1  0
 10 11  1  0
 11 12  1  0
 12 13  1  0
 13 14  2  0
 14 15  1  0
 15 16  2  0
 16 17  1  0
 16 18  1  0
 18 19  2  0
  2 20  1  0
 20 21  2  0
 21 22  1  0
 22 23  2  0
 23 24  1  0
 24 25  2  0
 25 26  1  0
 25 27  1  0
 27 28  2  0
 28 29  1  0
 29 30  2  0
 12  7  1  0
 19 13  1  0
 30 20  1  0
 29 23  1  0
  3 31  1  0
  4 32  1  0
  4 33  1  0
  8 34  1  0
  8 35  1  0
  9 36  1  0
  9 37  1  0
 10 38  1  0
 10 39  1  0
 11 40  1  0
 11 41  1  0
 12 42  1  6
 14 43  1  0
 15 44  1  0
 17 45  1  0
 18 46  1  0
 19 47  1  0
 21 48  1  0
 22 49  1  0
 24 50  1  0
 27 51  1  0
 28 52  1  0
M  END
>  <smiles>  (29) 
O=C(NCC(=O)N1CCCCC1c1ccc(O)cc1)c1ccc2cc(Cl)ccc2n1

>  <score_type>  (29) 
oracle

>  <origin>  (29) 
autodockgpu

>  <m_score__min__energy>  (29) 
-9.3000000000000007

>  <m_primary>  (29) 
energy

>  <rmsd>  (29) 
8.179354578869289

>  <m_score__min__rmsd>  (29) 
8.179354578869289

>  <meeko>  (29) 
{"free_energy": -7.12, "intermolecular_energy": -8.91, "internal_energy": -2.42, "cluster_size": 3, "cluster_id": 5, "rank_in_cluster": 3}

>  <energy>  (29) 
-8.58

>  <cluster_rmsd>  (29) 
0.58

>  <cluster>  (29) 
2

$$$$

     RDKit          3D

 52 55  0  0  0  0  0  0  0  0999 V2000
  138.0440   71.4670  221.3050 O   0  0  0  0  0  0  0  0  0  0  0  0
  138.6780   71.9190  222.3060 C   0  0  0  0  0  0  0  0  0  0  0  0
  139.0480   73.2840  222.3830 N   0  0  0  0  0  0  0  0  0  0  0  0
  138.7320   74.2200  221.3520 C   0  0  0  0  0  0  0  0  0  0  0  0
  139.5030   75.4960  221.5620 C   0  0  0  0  0  0  0  0  0  0  0  0
  140.6980   75.3490  221.9290 O   0  0  0  0  0  0  0  0  0  0  0  0
  138.9010   76.7710  221.3520 N   0  0  0  0  0  0  0  0  0  0  0  0
  138.5790   77.1530  220.0160 C   0  0  0  0  0  0  0  0  0  0  0  0
  137.6800   78.3060  219.8510 C   0  0  0  0  0  0  0  0  0  0  0  0
  137.3510   79.0670  221.0920 C   0  0  0  0  0  0  0  0  0  0  0  0
  137.3410   78.2780  222.3450 C   0  0  0  0  0  0  0  0  0  0  0  0
  138.6620   77.5790  222.5310 C   0  0  2  0  0  0  0  0  0  0  0  0
  139.7690   78.4580  222.9060 C   0  0  0  0  0  0  0  0  0  0  0  0
  139.5680   79.7200  223.4770 C   0  0  0  0  0  0  0  0  0  0  0  0
  140.6160   80.5400  223.8300 C   0  0  0  0  0  0  0  0  0  0  0  0
  141.9240   80.1540  223.6380 C   0  0  0  0  0  0  0  0  0  0  0  0
  143.0150   80.9420  223.9770 O   0  0  0  0  0  0  0  0  0  0  0  0
  142.1490   78.9150  223.0780 C   0  0  0  0  0  0  0  0  0  0  0  0
  141.0940   78.0990  222.7260 C   0  0  0  0  0  0  0  0  0  0  0  0
  139.0380   71.0050  223.4090 C   0  0  0  0  0  0  0  0  0  0  0  0
  138.7070   69.6680  223.3160 C   0  0  0  0  0  0  0  0  0  0  0  0
  139.0600   68.8400  224.3680 C   0  0  0  0  0  0  0  0  0  0  0  0
  139.7190   69.3400  225.4710 C   0  0  0  0  0  0  0  0  0  0  0  0
  140.0950   68.5670  226.5480 C   0  0  0  0  0  0  0  0  0  0  0  0
  140.7580   69.1380  227.6260 C   0  0  0  0  0  0  0  0  0  0  0  0
  141.2500   68.1700  229.0160 Cl  0  0  0  0  0  0  0  0  0  0  0  0
  141.0670   70.4870  227.6690 C   0  0  0  0  0  0  0  0  0  0  0  0
  140.6820   71.2540  226.5790 C   0  0  0  0  0  0  0  0  0  0  0  0
  140.0280   70.6830  225.5190 C   0  0  0  0  0  0  0  0  0  0  0  0
  139.6830   71.4800  224.4930 N   0  0  0  0  0  0  0  0  0  0  0  0
  139.5790   73.5810  223.2570 H   0  0  0  0  0  0  0  0  0  0  0  0
  138.9983   73.7899  220.3752 H   0  0  0  0  0  0  0  0  0  0  0  0
  137.6546   74.4398  221.3813 H   0  0  0  0  0  0  0  0  0  0  0  0
  139.5220   77.3908  219.5021 H   0  0  0  0  0  0  0  0  0  0  0  0
  138.0275   76.2977  219.5986 H   0  0  0  0  0  0  0  0  0  0  0  0
  138.1547   79.0036  219.1453 H   0  0  0  0  0  0  0  0  0  0  0  0
  136.7252   77.8874  219.5001 H   0  0  0  0  0  0  0  0  0  0  0  0
  138.0951   79.8694  221.2037 H   0  0  0  0  0  0  0  0  0  0  0  0
  136.3212   79.4294  220.9575 H   0  0  0  0  0  0  0  0  0  0  0  0
  137.1632   78.9511  223.1966 H   0  0  0  0  0  0  0  0  0  0  0  0
  136.5416   77.5246  222.2880 H   0  0  0  0  0  0  0  0  0  0  0  0
  138.6041   76.9223  223.4116 H   0  0  0  0  0  0  0  0  0  0  0  0
  138.5388   80.0681  223.6494 H   0  0  0  0  0  0  0  0  0  0  0  0
  140.4043   81.5237  224.2745 H   0  0  0  0  0  0  0  0  0  0  0  0
  143.9380   80.7680  223.5530 H   0  0  0  0  0  0  0  0  0  0  0  0
  143.1809   78.5731  222.9099 H   0  0  0  0  0  0  0  0  0  0  0  0
  141.3157   77.1175  222.2816 H   0  0  0  0  0  0  0  0  0  0  0  0
  138.1800   69.2734  222.4348 H   0  0  0  0  0  0  0  0  0  0  0  0
  138.8115   67.7694  224.3232 H   0  0  0  0  0  0  0  0  0  0  0  0
  139.8684   67.4906  226.5537 H   0  0  0  0  0  0  0  0  0  0  0  0
  141.5932   70.9299  228.5274 H   0  0  0  0  0  0  0  0  0  0  0  0
  140.9040   72.3313  226.5656 H   0  0  0  0  0  0  0  0  0  0  0  0
  1  2  2  0
  2  3  1  0
  3  4  1  0
  4  5  1  0
  5  6  2  0
  5  7  1  0
  7  8  1  0
  8  9  1  0
  9 10  1  0
 10 11  1  0
 11 12  1  0
 12 13  1  0
 13 14  2  0
 14 15  1  0
 15 16  2  0
 16 17  1  0
 16 18  1  0
 18 19  2  0
  2 20  1  0
 20 21  2  0
 21 22  1  0
 22 23  2  0
 23 24  1  0
 24 25  2  0
 25 26  1  0
 25 27  1  0
 27 28  2  0
 28 29  1  0
 29 30  2  0
 12  7  1  0
 19 13  1  0
 30 20  1  0
 29 23  1  0
  3 31  1  0
  4 32  1  0
  4 33  1  0
  8 34  1  0
  8 35  1  0
  9 36  1  0
  9 37  1  0
 10 38  1  0
 10 39  1  0
 11 40  1  0
 11 41  1  0
 12 42  1  1
 14 43  1  0
 15 44  1  0
 17 45  1  0
 18 46  1  0
 19 47  1  0
 21 48  1  0
 22 49  1  0
 24 50  1  0
 27 51  1  0
 28 52  1  0
M  END
>  <smiles>  (30) 
O=C(NCC(=O)N1CCCCC1c1ccc(O)cc1)c1ccc2cc(Cl)ccc2n1

>  <score_type>  (30) 
oracle

>  <origin>  (30) 
autodockgpu

>  <m_score__min__energy>  (30) 
-9.3000000000000007

>  <m_primary>  (30) 
energy

>  <rmsd>  (30) 
2.6915018100543775

>  <m_score__min__rmsd>  (30) 
2.6915018100543775

>  <meeko>  (30) 
{"free_energy": -8.06, "intermolecular_energy": -9.85, "internal_energy": -1.79, "cluster_size": 18, "cluster_id": 2, "rank_in_cluster": 15}

>  <energy>  (30) 
-8.23

>  <cluster_rmsd>  (30) 
0.83

>  <cluster>  (30) 
2

$$$$

     RDKit          3D

 52 55  0  0  0  0  0  0  0  0999 V2000
  135.0840   76.7390  224.1240 O   0  0  0  0  0  0  0  0  0  0  0  0
  135.7400   75.6690  223.9400 C   0  0  0  0  0  0  0  0  0  0  0  0
  136.9430   75.6660  223.1920 N   0  0  0  0  0  0  0  0  0  0  0  0
  137.4810   76.8530  222.6080 C   0  0  0  0  0  0  0  0  0  0  0  0
  138.9830   76.8380  222.7040 C   0  0  0  0  0  0  0  0  0  0  0  0
  139.5100   75.6950  222.7040 O   0  0  0  0  0  0  0  0  0  0  0  0
  139.7350   78.0460  222.7860 N   0  0  0  0  0  0  0  0  0  0  0  0
  139.0390   79.2550  223.0810 C   0  0  0  0  0  0  0  0  0  0  0  0
  139.8550   80.4140  223.4770 C   0  0  0  0  0  0  0  0  0  0  0  0
  141.3330   80.2530  223.3470 C   0  0  0  0  0  0  0  0  0  0  0  0
  141.8470   78.8770  223.5220 C   0  0  0  0  0  0  0  0  0  0  0  0
  141.1630   77.9390  222.5620 C   0  0  2  0  0  0  0  0  0  0  0  0
  141.5770   78.0870  221.1670 C   0  0  0  0  0  0  0  0  0  0  0  0
  141.4420   79.2900  220.4650 C   0  0  0  0  0  0  0  0  0  0  0  0
  141.8370   79.4210  219.1520 C   0  0  0  0  0  0  0  0  0  0  0  0
  142.3920   78.3650  218.4620 C   0  0  0  0  0  0  0  0  0  0  0  0
  142.8060   78.4460  217.1400 O   0  0  0  0  0  0  0  0  0  0  0  0
  142.5360   77.1690  219.1320 C   0  0  0  0  0  0  0  0  0  0  0  0
  142.1380   77.0450  220.4460 C   0  0  0  0  0  0  0  0  0  0  0  0
  135.2400   74.4040  224.5160 C   0  0  0  0  0  0  0  0  0  0  0  0
  134.3100   74.4460  225.5360 C   0  0  0  0  0  0  0  0  0  0  0  0
  133.8630   73.2420  226.0520 C   0  0  0  0  0  0  0  0  0  0  0  0
  134.3340   72.0440  225.5600 C   0  0  0  0  0  0  0  0  0  0  0  0
  133.9260   70.8140  226.0320 C   0  0  0  0  0  0  0  0  0  0  0  0
  134.4440   69.6450  225.4890 C   0  0  0  0  0  0  0  0  0  0  0  0
  133.9390   68.0610  226.0750 Cl  0  0  0  0  0  0  0  0  0  0  0  0
  135.3750   69.6600  224.4640 C   0  0  0  0  0  0  0  0  0  0  0  0
  135.7760   70.9040  223.9980 C   0  0  0  0  0  0  0  0  0  0  0  0
  135.2610   72.0520  224.5400 C   0  0  0  0  0  0  0  0  0  0  0  0
  135.6900   73.2250  224.0450 N   0  0  0  0  0  0  0  0  0  0  0  0
  137.4300   74.7260  223.0850 H   0  0  0  0  0  0  0  0  0  0  0  0
  137.1840   76.9056  221.5502 H   0  0  0  0  0  0  0  0  0  0  0  0
  137.0931   77.7293  223.1481 H   0  0  0  0  0  0  0  0  0  0  0  0
  138.4718   79.5395  222.1825 H   0  0  0  0  0  0  0  0  0  0  0  0
  138.4234   79.0234  223.9627 H   0  0  0  0  0  0  0  0  0  0  0  0
  139.5537   81.2666  222.8507 H   0  0  0  0  0  0  0  0  0  0  0  0
  139.6669   80.5537  224.5518 H   0  0  0  0  0  0  0  0  0  0  0  0
  141.6233   80.5969  222.3433 H   0  0  0  0  0  0  0  0  0  0  0  0
  141.7716   80.8429  224.1653 H   0  0  0  0  0  0  0  0  0  0  0  0
  142.9301   78.8668  223.3301 H   0  0  0  0  0  0  0  0  0  0  0  0
  141.6443   78.5468  224.5515 H   0  0  0  0  0  0  0  0  0  0  0  0
  141.4837   76.9078  222.7713 H   0  0  0  0  0  0  0  0  0  0  0  0
  141.0061   80.1596  220.9786 H   0  0  0  0  0  0  0  0  0  0  0  0
  141.7069   80.3879  218.6439 H   0  0  0  0  0  0  0  0  0  0  0  0
  143.6140   79.0320  216.8800 H   0  0  0  0  0  0  0  0  0  0  0  0
  142.9734   76.3038  218.6123 H   0  0  0  0  0  0  0  0  0  0  0  0
  142.2719   76.0740  220.9453 H   0  0  0  0  0  0  0  0  0  0  0  0
  133.9368   75.4046  225.9255 H   0  0  0  0  0  0  0  0  0  0  0  0
  133.1223   73.2414  226.8652 H   0  0  0  0  0  0  0  0  0  0  0  0
  133.1856   70.7583  226.8436 H   0  0  0  0  0  0  0  0  0  0  0  0
  135.7780   68.7289  224.0389 H   0  0  0  0  0  0  0  0  0  0  0  0
  136.5146   70.9690  223.1855 H   0  0  0  0  0  0  0  0  0  0  0  0
  1  2  2  0
  2  3  1  0
  3  4  1  0
  4  5  1  0
  5  6  2  0
  5  7  1  0
  7  8  1  0
  8  9  1  0
  9 10  1  0
 10 11  1  0
 11 12  1  0
 12 13  1  0
 13 14  2  0
 14 15  1  0
 15 16  2  0
 16 17  1  0
 16 18  1  0
 18 19  2  0
  2 20  1  0
 20 21  2  0
 21 22  1  0
 22 23  2  0
 23 24  1  0
 24 25  2  0
 25 26  1  0
 25 27  1  0
 27 28  2  0
 28 29  1  0
 29 30  2  0
 12  7  1  0
 19 13  1  0
 30 20  1  0
 29 23  1  0
  3 31  1  0
  4 32  1  0
  4 33  1  0
  8 34  1  0
  8 35  1  0
  9 36  1  0
  9 37  1  0
 10 38  1  0
 10 39  1  0
 11 40  1  0
 11 41  1  0
 12 42  1  1
 14 43  1  0
 15 44  1  0
 17 45  1  0
 18 46  1  0
 19 47  1  0
 21 48  1  0
 22 49  1  0
 24 50  1  0
 27 51  1  0
 28 52  1  0
M  END
>  <smiles>  (31) 
O=C(NCC(=O)N1CCCCC1c1ccc(O)cc1)c1ccc2cc(Cl)ccc2n1

>  <score_type>  (31) 
oracle

>  <origin>  (31) 
autodockgpu

>  <m_score__min__energy>  (31) 
-9.3000000000000007

>  <m_primary>  (31) 
energy

>  <rmsd>  (31) 
5.919980379846982

>  <m_score__min__rmsd>  (31) 
5.919980379846982

>  <meeko>  (31) 
{"free_energy": -7.65, "intermolecular_energy": -9.44, "internal_energy": -1.87, "cluster_size": 2, "cluster_id": 4, "rank_in_cluster": 1}

>  <energy>  (31) 
-8.2

>  <cluster_rmsd>  (31) 
1.74

>  <cluster>  (31) 
2

$$$$

     RDKit          3D

 52 55  0  0  0  0  0  0  0  0999 V2000
  139.9520   72.1560  220.7400 O   0  0  0  0  0  0  0  0  0  0  0  0
  139.4440   72.4220  221.8700 C   0  0  0  0  0  0  0  0  0  0  0  0
  138.7310   73.6270  222.0890 N   0  0  0  0  0  0  0  0  0  0  0  0
  138.5470   74.6010  221.0600 C   0  0  0  0  0  0  0  0  0  0  0  0
  139.3010   75.8580  221.4020 C   0  0  0  0  0  0  0  0  0  0  0  0
  138.6650   76.6960  222.0930 O   0  0  0  0  0  0  0  0  0  0  0  0
  140.6420   76.0630  220.9630 N   0  0  0  0  0  0  0  0  0  0  0  0
  141.5580   74.9760  221.0680 C   0  0  0  0  0  0  0  0  0  0  0  0
  142.8240   75.0980  220.3260 C   0  0  0  0  0  0  0  0  0  0  0  0
  143.0920   76.4230  219.6950 C   0  0  0  0  0  0  0  0  0  0  0  0
  141.8960   77.1870  219.2730 C   0  0  0  0  0  0  0  0  0  0  0  0
  140.9610   77.3760  220.4390 C   0  0  2  0  0  0  0  0  0  0  0  0
  141.4200   78.3400  221.4380 C   0  0  0  0  0  0  0  0  0  0  0  0
  141.4410   78.0530  222.8080 C   0  0  0  0  0  0  0  0  0  0  0  0
  141.8780   78.9650  223.7420 C   0  0  0  0  0  0  0  0  0  0  0  0
  142.3210   80.2150  223.3690 C   0  0  0  0  0  0  0  0  0  0  0  0
  142.7720   81.1690  224.2710 O   0  0  0  0  0  0  0  0  0  0  0  0
  142.3120   80.5220  222.0260 C   0  0  0  0  0  0  0  0  0  0  0  0
  141.8730   79.6030  221.0960 C   0  0  0  0  0  0  0  0  0  0  0  0
  139.5970   71.4590  222.9790 C   0  0  0  0  0  0  0  0  0  0  0  0
  139.1650   70.1580  222.8110 C   0  0  0  0  0  0  0  0  0  0  0  0
  139.3250   69.2820  223.8700 C   0  0  0  0  0  0  0  0  0  0  0  0
  139.8970   69.6990  225.0530 C   0  0  0  0  0  0  0  0  0  0  0  0
  140.0820   68.8740  226.1410 C   0  0  0  0  0  0  0  0  0  0  0  0
  140.6670   69.3630  227.3030 C   0  0  0  0  0  0  0  0  0  0  0  0
  140.9150   68.3280  228.7080 Cl  0  0  0  0  0  0  0  0  0  0  0  0
  141.0840   70.6780  227.4190 C   0  0  0  0  0  0  0  0  0  0  0  0
  140.8920   71.4970  226.3160 C   0  0  0  0  0  0  0  0  0  0  0  0
  140.3140   71.0080  225.1740 C   0  0  0  0  0  0  0  0  0  0  0  0
  140.1560   71.8520  224.1410 N   0  0  0  0  0  0  0  0  0  0  0  0
  138.3370   73.7720  223.0660 H   0  0  0  0  0  0  0  0  0  0  0  0
  138.9213   74.1994  220.1068 H   0  0  0  0  0  0  0  0  0  0  0  0
  137.4758   74.8348  220.9707 H   0  0  0  0  0  0  0  0  0  0  0  0
  141.8071   74.8529  222.1323 H   0  0  0  0  0  0  0  0  0  0  0  0
  141.0399   74.1192  220.6125 H   0  0  0  0  0  0  0  0  0  0  0  0
  143.6454   74.8876  221.0267 H   0  0  0  0  0  0  0  0  0  0  0  0
  142.7466   74.3848  219.4921 H   0  0  0  0  0  0  0  0  0  0  0  0
  143.6465   77.0367  220.4202 H   0  0  0  0  0  0  0  0  0  0  0  0
  143.6513   76.2081  218.7725 H   0  0  0  0  0  0  0  0  0  0  0  0
  142.2086   78.1715  218.8947 H   0  0  0  0  0  0  0  0  0  0  0  0
  141.3744   76.6288  218.4816 H   0  0  0  0  0  0  0  0  0  0  0  0
  140.0363   77.8577  220.0885 H   0  0  0  0  0  0  0  0  0  0  0  0
  141.0968   77.0657  223.1496 H   0  0  0  0  0  0  0  0  0  0  0  0
  141.8734   78.6902  224.8071 H   0  0  0  0  0  0  0  0  0  0  0  0
  142.1150   81.8450  224.6890 H   0  0  0  0  0  0  0  0  0  0  0  0
  142.6587   81.5110  221.6918 H   0  0  0  0  0  0  0  0  0  0  0  0
  141.8832   79.8865  220.0332 H   0  0  0  0  0  0  0  0  0  0  0  0
  138.7085   69.8289  221.8659 H   0  0  0  0  0  0  0  0  0  0  0  0
  138.9913   68.2389  223.7666 H   0  0  0  0  0  0  0  0  0  0  0  0
  139.7647   67.8220  226.0896 H   0  0  0  0  0  0  0  0  0  0  0  0
  141.5461   71.0559  228.3429 H   0  0  0  0  0  0  0  0  0  0  0  0
  141.2071   72.5501  226.3586 H   0  0  0  0  0  0  0  0  0  0  0  0
  1  2  2  0
  2  3  1  0
  3  4  1  0
  4  5  1  0
  5  6  2  0
  5  7  1  0
  7  8  1  0
  8  9  1  0
  9 10  1  0
 10 11  1  0
 11 12  1  0
 12 13  1  0
 13 14  2  0
 14 15  1  0
 15 16  2  0
 16 17  1  0
 16 18  1  0
 18 19  2  0
  2 20  1  0
 20 21  2  0
 21 22  1  0
 22 23  2  0
 23 24  1  0
 24 25  2  0
 25 26  1  0
 25 27  1  0
 27 28  2  0
 28 29  1  0
 29 30  2  0
 12  7  1  0
 19 13  1  0
 30 20  1  0
 29 23  1  0
  3 31  1  0
  4 32  1  0
  4 33  1  0
  8 34  1  0
  8 35  1  0
  9 36  1  0
  9 37  1  0
 10 38  1  0
 10 39  1  0
 11 40  1  0
 11 41  1  0
 12 42  1  6
 14 43  1  0
 15 44  1  0
 17 45  1  0
 18 46  1  0
 19 47  1  0
 21 48  1  0
 22 49  1  0
 24 50  1  0
 27 51  1  0
 28 52  1  0
M  END
>  <smiles>  (32) 
O=C(NCC(=O)N1CCCCC1c1ccc(O)cc1)c1ccc2cc(Cl)ccc2n1

>  <score_type>  (32) 
oracle

>  <origin>  (32) 
autodockgpu

>  <m_score__min__energy>  (32) 
-9.3000000000000007

>  <m_primary>  (32) 
energy

>  <rmsd>  (32) 
2.0022164198258148

>  <m_score__min__rmsd>  (32) 
2.0022164198258148

>  <meeko>  (32) 
{"free_energy": -8.83, "intermolecular_energy": -10.62, "internal_energy": -1.57, "cluster_size": 18, "cluster_id": 2, "rank_in_cluster": 5}

>  <energy>  (32) 
-8.12

>  <cluster_rmsd>  (32) 
0.95

>  <cluster>  (32) 
2

$$$$

     RDKit          3D

 52 55  0  0  0  0  0  0  0  0999 V2000
  141.1920   73.0250  221.3030 O   0  0  0  0  0  0  0  0  0  0  0  0
  140.3150   73.0960  222.2160 C   0  0  0  0  0  0  0  0  0  0  0  0
  139.4110   74.1850  222.2820 N   0  0  0  0  0  0  0  0  0  0  0  0
  139.4340   75.2530  221.3350 C   0  0  0  0  0  0  0  0  0  0  0  0
  138.7340   76.4590  221.9030 C   0  0  0  0  0  0  0  0  0  0  0  0
  137.4780   76.3880  221.9310 O   0  0  0  0  0  0  0  0  0  0  0  0
  139.4650   77.5900  222.3730 N   0  0  0  0  0  0  0  0  0  0  0  0
  138.7470   78.6240  223.0420 C   0  0  0  0  0  0  0  0  0  0  0  0
  139.5440   79.6080  223.7930 C   0  0  0  0  0  0  0  0  0  0  0  0
  141.0240   79.5260  223.6200 C   0  0  0  0  0  0  0  0  0  0  0  0
  141.5640   78.1770  223.3410 C   0  0  0  0  0  0  0  0  0  0  0  0
  140.8930   77.5880  222.1280 C   0  0  2  0  0  0  0  0  0  0  0  0
  141.2980   78.1870  220.8570 C   0  0  0  0  0  0  0  0  0  0  0  0
  142.0880   77.5080  219.9220 C   0  0  0  0  0  0  0  0  0  0  0  0
  142.4630   78.0780  218.7260 C   0  0  0  0  0  0  0  0  0  0  0  0
  142.0720   79.3550  218.3890 C   0  0  0  0  0  0  0  0  0  0  0  0
  142.4220   79.9740  217.1970 O   0  0  0  0  0  0  0  0  0  0  0  0
  141.2930   80.0450  219.2920 C   0  0  0  0  0  0  0  0  0  0  0  0
  140.9220   79.4680  220.4880 C   0  0  0  0  0  0  0  0  0  0  0  0
  140.2350   72.0240  223.2300 C   0  0  0  0  0  0  0  0  0  0  0  0
  139.6880   70.8050  222.8840 C   0  0  0  0  0  0  0  0  0  0  0  0
  139.6290   69.8230  223.8580 C   0  0  0  0  0  0  0  0  0  0  0  0
  140.1030   70.0610  225.1300 C   0  0  0  0  0  0  0  0  0  0  0  0
  140.0720   69.1240  226.1410 C   0  0  0  0  0  0  0  0  0  0  0  0
  140.5680   69.4320  227.4010 C   0  0  0  0  0  0  0  0  0  0  0  0
  140.5400   68.2520  228.7100 Cl  0  0  0  0  0  0  0  0  0  0  0  0
  141.1090   70.6730  227.6950 C   0  0  0  0  0  0  0  0  0  0  0  0
  141.1340   71.6060  226.6690 C   0  0  0  0  0  0  0  0  0  0  0  0
  140.6420   71.2940  225.4290 C   0  0  0  0  0  0  0  0  0  0  0  0
  140.6950   72.2420  224.4780 N   0  0  0  0  0  0  0  0  0  0  0  0
  138.7070   74.1670  223.0800 H   0  0  0  0  0  0  0  0  0  0  0  0
  140.4776   75.5127  221.1039 H   0  0  0  0  0  0  0  0  0  0  0  0
  138.9174   74.9339  220.4178 H   0  0  0  0  0  0  0  0  0  0  0  0
  138.1700   79.1729  222.2832 H   0  0  0  0  0  0  0  0  0  0  0  0
  138.1393   78.1079  223.7998 H   0  0  0  0  0  0  0  0  0  0  0  0
  139.2240   80.6115  223.4759 H   0  0  0  0  0  0  0  0  0  0  0  0
  139.3588   79.3885  224.8549 H   0  0  0  0  0  0  0  0  0  0  0  0
  141.3031   80.1816  222.7820 H   0  0  0  0  0  0  0  0  0  0  0  0
  141.4557   79.8278  224.5857 H   0  0  0  0  0  0  0  0  0  0  0  0
  142.6462   78.2497  223.1581 H   0  0  0  0  0  0  0  0  0  0  0  0
  141.3721   77.5276  224.2078 H   0  0  0  0  0  0  0  0  0  0  0  0
  141.2333   76.5508  221.9919 H   0  0  0  0  0  0  0  0  0  0  0  0
  142.4204   76.4846  220.1504 H   0  0  0  0  0  0  0  0  0  0  0  0
  143.0868   77.5025  218.0262 H   0  0  0  0  0  0  0  0  0  0  0  0
  143.3250   79.7650  216.7440 H   0  0  0  0  0  0  0  0  0  0  0  0
  140.9634   81.0676  219.0561 H   0  0  0  0  0  0  0  0  0  0  0  0
  140.2986   80.0519  221.1811 H   0  0  0  0  0  0  0  0  0  0  0  0
  139.3112   70.6197  221.8673 H   0  0  0  0  0  0  0  0  0  0  0  0
  139.1985   68.8407  223.6136 H   0  0  0  0  0  0  0  0  0  0  0  0
  139.6516   68.1259  225.9483 H   0  0  0  0  0  0  0  0  0  0  0  0
  141.5006   70.9076  228.6958 H   0  0  0  0  0  0  0  0  0  0  0  0
  141.5530   72.6063  226.8527 H   0  0  0  0  0  0  0  0  0  0  0  0
  1  2  2  0
  2  3  1  0
  3  4  1  0
  4  5  1  0
  5  6  2  0
  5  7  1  0
  7  8  1  0
  8  9  1  0
  9 10  1  0
 10 11  1  0
 11 12  1  0
 12 13  1  0
 13 14  2  0
 14 15  1  0
 15 16  2  0
 16 17  1  0
 16 18  1  0
 18 19  2  0
  2 20  1  0
 20 21  2  0
 21 22  1  0
 22 23  2  0
 23 24  1  0
 24 25  2  0
 25 26  1  0
 25 27  1  0
 27 28  2  0
 28 29  1  0
 29 30  2  0
 12  7  1  0
 19 13  1  0
 30 20  1  0
 29 23  1  0
  3 31  1  0
  4 32  1  0
  4 33  1  0
  8 34  1  0
  8 35  1  0
  9 36  1  0
  9 37  1  0
 10 38  1  0
 10 39  1  0
 11 40  1  0
 11 41  1  0
 12 42  1  6
 14 43  1  0
 15 44  1  0
 17 45  1  0
 18 46  1  0
 19 47  1  0
 21 48  1  0
 22 49  1  0
 24 50  1  0
 27 51  1  0
 28 52  1  0
M  END
>  <smiles>  (33) 
O=C(NCC(=O)N1CCCCC1c1ccc(O)cc1)c1ccc2cc(Cl)ccc2n1

>  <score_type>  (33) 
oracle

>  <origin>  (33) 
autodockgpu

>  <m_score__min__energy>  (33) 
-9.3000000000000007

>  <m_primary>  (33) 
energy

>  <rmsd>  (33) 
3.6309408157757894

>  <m_score__min__rmsd>  (33) 
3.6309408157757894

>  <meeko>  (33) 
{"free_energy": -9.14, "intermolecular_energy": -10.93, "internal_energy": -1.39, "cluster_size": 19, "cluster_id": 1, "rank_in_cluster": 6}

>  <energy>  (33) 
-8.09

>  <cluster_rmsd>  (33) 
1.85

>  <cluster>  (33) 
2

$$$$

     RDKit          3D

 52 55  0  0  0  0  0  0  0  0999 V2000
  140.3890   74.0320  220.3970 O   0  0  0  0  0  0  0  0  0  0  0  0
  139.9290   74.0490  221.5780 C   0  0  0  0  0  0  0  0  0  0  0  0
  139.5730   75.2660  222.2100 N   0  0  0  0  0  0  0  0  0  0  0  0
  139.7080   76.5310  221.5600 C   0  0  0  0  0  0  0  0  0  0  0  0
  140.5920   77.4350  222.3760 C   0  0  0  0  0  0  0  0  0  0  0  0
  141.3900   76.8500  223.1530 O   0  0  0  0  0  0  0  0  0  0  0  0
  140.5140   78.8540  222.2590 N   0  0  0  0  0  0  0  0  0  0  0  0
  139.2790   79.4900  222.5830 C   0  0  0  0  0  0  0  0  0  0  0  0
  139.3110   80.9500  222.7680 C   0  0  0  0  0  0  0  0  0  0  0  0
  140.5900   81.6310  222.4140 C   0  0  0  0  0  0  0  0  0  0  0  0
  141.8180   80.8240  222.5920 C   0  0  0  0  0  0  0  0  0  0  0  0
  141.7130   79.5370  221.8160 C   0  0  2  0  0  0  0  0  0  0  0  0
  141.8320   79.6880  220.3670 C   0  0  0  0  0  0  0  0  0  0  0  0
  141.8250   80.9380  219.7370 C   0  0  0  0  0  0  0  0  0  0  0  0
  141.9410   81.0720  218.3710 C   0  0  0  0  0  0  0  0  0  0  0  0
  142.0730   79.9720  217.5530 C   0  0  0  0  0  0  0  0  0  0  0  0
  142.1930   80.0530  216.1720 O   0  0  0  0  0  0  0  0  0  0  0  0
  142.0840   78.7300  218.1480 C   0  0  0  0  0  0  0  0  0  0  0  0
  141.9670   78.6030  219.5170 C   0  0  0  0  0  0  0  0  0  0  0  0
  139.7630   72.7760  222.3090 C   0  0  0  0  0  0  0  0  0  0  0  0
  139.0280   71.7570  221.7360 C   0  0  0  0  0  0  0  0  0  0  0  0
  138.8930   70.5780  222.4490 C   0  0  0  0  0  0  0  0  0  0  0  0
  139.4750   70.4320  223.6890 C   0  0  0  0  0  0  0  0  0  0  0  0
  139.3760   69.2830  224.4460 C   0  0  0  0  0  0  0  0  0  0  0  0
  139.9890   69.2050  225.6890 C   0  0  0  0  0  0  0  0  0  0  0  0
  139.8780   67.7480  226.6750 Cl  0  0  0  0  0  0  0  0  0  0  0  0
  140.7180   70.2580  226.2180 C   0  0  0  0  0  0  0  0  0  0  0  0
  140.8090   71.4070  225.4460 C   0  0  0  0  0  0  0  0  0  0  0  0
  140.2010   71.4760  224.2210 C   0  0  0  0  0  0  0  0  0  0  0  0
  140.3270   72.6180  223.5230 N   0  0  0  0  0  0  0  0  0  0  0  0
  139.1950   75.1900  223.2020 H   0  0  0  0  0  0  0  0  0  0  0  0
  140.1552   76.3842  220.5658 H   0  0  0  0  0  0  0  0  0  0  0  0
  138.7149   76.9927  221.4569 H   0  0  0  0  0  0  0  0  0  0  0  0
  138.5702   79.2733  221.7702 H   0  0  0  0  0  0  0  0  0  0  0  0
  138.9950   79.0824  223.5644 H   0  0  0  0  0  0  0  0  0  0  0  0
  138.5157   81.3847  222.1448 H   0  0  0  0  0  0  0  0  0  0  0  0
  139.1801   81.1127  223.8480 H   0  0  0  0  0  0  0  0  0  0  0  0
  140.5323   81.9298  221.3569 H   0  0  0  0  0  0  0  0  0  0  0  0
  140.6828   82.4759  223.1123 H   0  0  0  0  0  0  0  0  0  0  0  0
  142.6846   81.3967  222.2300 H   0  0  0  0  0  0  0  0  0  0  0  0
  141.9415   80.5898  223.6597 H   0  0  0  0  0  0  0  0  0  0  0  0
  142.5879   78.9078  222.0366 H   0  0  0  0  0  0  0  0  0  0  0  0
  141.7235   81.8435  220.3533 H   0  0  0  0  0  0  0  0  0  0  0  0
  141.9279   82.0773  217.9248 H   0  0  0  0  0  0  0  0  0  0  0  0
  143.1220   80.1390  215.7330 H   0  0  0  0  0  0  0  0  0  0  0  0
  142.1872   77.8293  217.5250 H   0  0  0  0  0  0  0  0  0  0  0  0
  141.9816   77.5934  219.9534 H   0  0  0  0  0  0  0  0  0  0  0  0
  138.5650   71.8781  220.7456 H   0  0  0  0  0  0  0  0  0  0  0  0
  138.3136   69.7472  222.0199 H   0  0  0  0  0  0  0  0  0  0  0  0
  138.8076   68.4230  224.0621 H   0  0  0  0  0  0  0  0  0  0  0  0
  141.2016   70.1862  227.2034 H   0  0  0  0  0  0  0  0  0  0  0  0
  141.3755   72.2717  225.8219 H   0  0  0  0  0  0  0  0  0  0  0  0
  1  2  2  0
  2  3  1  0
  3  4  1  0
  4  5  1  0
  5  6  2  0
  5  7  1  0
  7  8  1  0
  8  9  1  0
  9 10  1  0
 10 11  1  0
 11 12  1  0
 12 13  1  0
 13 14  2  0
 14 15  1  0
 15 16  2  0
 16 17  1  0
 16 18  1  0
 18 19  2  0
  2 20  1  0
 20 21  2  0
 21 22  1  0
 22 23  2  0
 23 24  1  0
 24 25  2  0
 25 26  1  0
 25 27  1  0
 27 28  2  0
 28 29  1  0
 29 30  2  0
 12  7  1  0
 19 13  1  0
 30 20  1  0
 29 23  1  0
  3 31  1  0
  4 32  1  0
  4 33  1  0
  8 34  1  0
  8 35  1  0
  9 36  1  0
  9 37  1  0
 10 38  1  0
 10 39  1  0
 11 40  1  0
 11 41  1  0
 12 42  1  1
 14 43  1  0
 15 44  1  0
 17 45  1  0
 18 46  1  0
 19 47  1  0
 21 48  1  0
 22 49  1  0
 24 50  1  0
 27 51  1  0
 28 52  1  0
M  END
>  <smiles>  (34) 
O=C(NCC(=O)N1CCCCC1c1ccc(O)cc1)c1ccc2cc(Cl)ccc2n1

>  <score_type>  (34) 
oracle

>  <origin>  (34) 
autodockgpu

>  <m_score__min__energy>  (34) 
-9.3000000000000007

>  <m_primary>  (34) 
energy

>  <rmsd>  (34) 
4.1203860603213185

>  <m_score__min__rmsd>  (34) 
4.1203860603213185

>  <meeko>  (34) 
{"free_energy": -8.43, "intermolecular_energy": -10.22, "internal_energy": -1.36, "cluster_size": 19, "cluster_id": 1, "rank_in_cluster": 12}

>  <energy>  (34) 
-8.06

>  <cluster_rmsd>  (34) 
1.64

>  <cluster>  (34) 
2

$$$$

     RDKit          3D

 52 55  0  0  0  0  0  0  0  0999 V2000
  140.9170   74.0150  220.7380 O   0  0  0  0  0  0  0  0  0  0  0  0
  140.0620   73.9270  221.6700 C   0  0  0  0  0  0  0  0  0  0  0  0
  139.3060   75.0530  222.0800 N   0  0  0  0  0  0  0  0  0  0  0  0
  139.4600   76.3370  221.4730 C   0  0  0  0  0  0  0  0  0  0  0  0
  139.1080   77.4170  222.4610 C   0  0  0  0  0  0  0  0  0  0  0  0
  138.0150   77.2600  223.0640 O   0  0  0  0  0  0  0  0  0  0  0  0
  139.9700   78.5320  222.6830 N   0  0  0  0  0  0  0  0  0  0  0  0
  139.4170   79.7030  223.2790 C   0  0  0  0  0  0  0  0  0  0  0  0
  140.3690   80.7020  223.7900 C   0  0  0  0  0  0  0  0  0  0  0  0
  141.8060   80.4700  223.4630 C   0  0  0  0  0  0  0  0  0  0  0  0
  142.2100   79.0540  223.3150 C   0  0  0  0  0  0  0  0  0  0  0  0
  141.3530   78.3730  222.2800 C   0  0  2  0  0  0  0  0  0  0  0  0
  141.6380   78.7650  220.9000 C   0  0  0  0  0  0  0  0  0  0  0  0
  141.3800   80.0510  220.4140 C   0  0  0  0  0  0  0  0  0  0  0  0
  141.6540   80.4130  219.1130 C   0  0  0  0  0  0  0  0  0  0  0  0
  142.2020   79.5170  218.2220 C   0  0  0  0  0  0  0  0  0  0  0  0
  142.4970   79.8310  216.9020 O   0  0  0  0  0  0  0  0  0  0  0  0
  142.4660   78.2430  218.6760 C   0  0  0  0  0  0  0  0  0  0  0  0
  142.1880   77.8880  219.9800 C   0  0  0  0  0  0  0  0  0  0  0  0
  139.8510   72.6280  222.3410 C   0  0  0  0  0  0  0  0  0  0  0  0
  139.1020   71.6550  221.7110 C   0  0  0  0  0  0  0  0  0  0  0  0
  138.9250   70.4490  222.3680 C   0  0  0  0  0  0  0  0  0  0  0  0
  139.4810   70.2340  223.6110 C   0  0  0  0  0  0  0  0  0  0  0  0
  139.3400   69.0560  224.3140 C   0  0  0  0  0  0  0  0  0  0  0  0
  139.9280   68.9090  225.5640 C   0  0  0  0  0  0  0  0  0  0  0  0
  139.7620   67.4130  226.4820 Cl  0  0  0  0  0  0  0  0  0  0  0  0
  140.6710   69.9190  226.1510 C   0  0  0  0  0  0  0  0  0  0  0  0
  140.8050   71.0980  225.4330 C   0  0  0  0  0  0  0  0  0  0  0  0
  140.2210   71.2360  224.2010 C   0  0  0  0  0  0  0  0  0  0  0  0
  140.3890   72.4030  223.5560 N   0  0  0  0  0  0  0  0  0  0  0  0
  138.6100   74.8930  222.8690 H   0  0  0  0  0  0  0  0  0  0  0  0
  140.5036   76.4647  221.1497 H   0  0  0  0  0  0  0  0  0  0  0  0
  138.7897   76.4092  220.6038 H   0  0  0  0  0  0  0  0  0  0  0  0
  138.7907   80.1974  222.5218 H   0  0  0  0  0  0  0  0  0  0  0  0
  138.8734   79.3446  224.1656 H   0  0  0  0  0  0  0  0  0  0  0  0
  140.0841   81.6801  223.3751 H   0  0  0  0  0  0  0  0  0  0  0  0
  140.3025   80.6384  224.8861 H   0  0  0  0  0  0  0  0  0  0  0  0
  142.0243   80.9845  222.5156 H   0  0  0  0  0  0  0  0  0  0  0  0
  142.3750   80.8559  224.3217 H   0  0  0  0  0  0  0  0  0  0  0  0
  143.2635   79.0077  223.0018 H   0  0  0  0  0  0  0  0  0  0  0  0
  142.0818   78.5418  224.2800 H   0  0  0  0  0  0  0  0  0  0  0  0
  141.5991   77.3012  222.2521 H   0  0  0  0  0  0  0  0  0  0  0  0
  140.9438   80.7983  221.0931 H   0  0  0  0  0  0  0  0  0  0  0  0
  141.4308   81.4372  218.7796 H   0  0  0  0  0  0  0  0  0  0  0  0
  143.3090   79.4040  216.4320 H   0  0  0  0  0  0  0  0  0  0  0  0
  142.9031   77.5011  217.9915 H   0  0  0  0  0  0  0  0  0  0  0  0
  142.4136   76.8612  220.3038 H   0  0  0  0  0  0  0  0  0  0  0  0
  138.6601   71.8317  220.7193 H   0  0  0  0  0  0  0  0  0  0  0  0
  138.3335   69.6528  221.8923 H   0  0  0  0  0  0  0  0  0  0  0  0
  138.7585   68.2279  223.8824 H   0  0  0  0  0  0  0  0  0  0  0  0
  141.1336   69.7923  227.1409 H   0  0  0  0  0  0  0  0  0  0  0  0
  141.3858   71.9306  225.8567 H   0  0  0  0  0  0  0  0  0  0  0  0
  1  2  2  0
  2  3  1  0
  3  4  1  0
  4  5  1  0
  5  6  2  0
  5  7  1  0
  7  8  1  0
  8  9  1  0
  9 10  1  0
 10 11  1  0
 11 12  1  0
 12 13  1  0
 13 14  2  0
 14 15  1  0
 15 16  2  0
 16 17  1  0
 16 18  1  0
 18 19  2  0
  2 20  1  0
 20 21  2  0
 21 22  1  0
 22 23  2  0
 23 24  1  0
 24 25  2  0
 25 26  1  0
 25 27  1  0
 27 28  2  0
 28 29  1  0
 29 30  2  0
 12  7  1  0
 19 13  1  0
 30 20  1  0
 29 23  1  0
  3 31  1  0
  4 32  1  0
  4 33  1  0
  8 34  1  0
  8 35  1  0
  9 36  1  0
  9 37  1  0
 10 38  1  0
 10 39  1  0
 11 40  1  0
 11 41  1  0
 12 42  1  6
 14 43  1  0
 15 44  1  0
 17 45  1  0
 18 46  1  0
 19 47  1  0
 21 48  1  0
 22 49  1  0
 24 50  1  0
 27 51  1  0
 28 52  1  0
M  END
>  <smiles>  (35) 
O=C(NCC(=O)N1CCCCC1c1ccc(O)cc1)c1ccc2cc(Cl)ccc2n1

>  <score_type>  (35) 
oracle

>  <origin>  (35) 
autodockgpu

>  <m_score__min__energy>  (35) 
-9.3000000000000007

>  <m_primary>  (35) 
energy

>  <rmsd>  (35) 
4.2426479954033685

>  <m_score__min__rmsd>  (35) 
4.2426479954033685

>  <meeko>  (35) 
{"free_energy": -8.85, "intermolecular_energy": -10.64, "internal_energy": -1.59, "cluster_size": 19, "cluster_id": 1, "rank_in_cluster": 9}

>  <energy>  (35) 
-8.06

>  <cluster_rmsd>  (35) 
1.79

>  <cluster>  (35) 
2

$$$$

     RDKit          3D

 52 55  0  0  0  0  0  0  0  0999 V2000
  140.7550   72.9200  221.0630 O   0  0  0  0  0  0  0  0  0  0  0  0
  139.9080   72.9670  222.0050 C   0  0  0  0  0  0  0  0  0  0  0  0
  138.9260   73.9870  222.0590 N   0  0  0  0  0  0  0  0  0  0  0  0
  138.8350   75.0110  221.0670 C   0  0  0  0  0  0  0  0  0  0  0  0
  138.4540   76.3170  221.7100 C   0  0  0  0  0  0  0  0  0  0  0  0
  137.2580   76.4010  222.0910 O   0  0  0  0  0  0  0  0  0  0  0  0
  139.4010   77.3720  221.8680 N   0  0  0  0  0  0  0  0  0  0  0  0
  138.9270   78.7160  221.8170 C   0  0  0  0  0  0  0  0  0  0  0  0
  139.8430   79.7630  222.2970 C   0  0  0  0  0  0  0  0  0  0  0  0
  141.2350   79.3270  222.6100 C   0  0  0  0  0  0  0  0  0  0  0  0
  141.3810   77.9300  223.0760 C   0  0  0  0  0  0  0  0  0  0  0  0
  140.7810   76.9810  222.0710 C   0  0  2  0  0  0  0  0  0  0  0  0
  141.5600   76.8210  220.8440 C   0  0  0  0  0  0  0  0  0  0  0  0
  141.7520   77.8660  219.9330 C   0  0  0  0  0  0  0  0  0  0  0  0
  142.4890   77.7070  218.7800 C   0  0  0  0  0  0  0  0  0  0  0  0
  143.0800   76.5020  218.4680 C   0  0  0  0  0  0  0  0  0  0  0  0
  143.8330   76.2920  217.3210 O   0  0  0  0  0  0  0  0  0  0  0  0
  142.9070   75.4580  219.3500 C   0  0  0  0  0  0  0  0  0  0  0  0
  142.1660   75.6240  220.5020 C   0  0  0  0  0  0  0  0  0  0  0  0
  139.9460   71.9390  223.0660 C   0  0  0  0  0  0  0  0  0  0  0  0
  139.4900   70.6650  222.7900 C   0  0  0  0  0  0  0  0  0  0  0  0
  139.5400   69.7280  223.8070 C   0  0  0  0  0  0  0  0  0  0  0  0
  140.0300   70.0600  225.0520 C   0  0  0  0  0  0  0  0  0  0  0  0
  140.1060   69.1710  226.1020 C   0  0  0  0  0  0  0  0  0  0  0  0
  140.6110   69.5750  227.3310 C   0  0  0  0  0  0  0  0  0  0  0  0
  140.7180   68.4570  228.6900 Cl  0  0  0  0  0  0  0  0  0  0  0  0
  141.0570   70.8670  227.5540 C   0  0  0  0  0  0  0  0  0  0  0  0
  140.9760   71.7510  226.4880 C   0  0  0  0  0  0  0  0  0  0  0  0
  140.4750   71.3450  225.2800 C   0  0  0  0  0  0  0  0  0  0  0  0
  140.4230   72.2500  224.2870 N   0  0  0  0  0  0  0  0  0  0  0  0
  138.2550   73.9530  222.8840 H   0  0  0  0  0  0  0  0  0  0  0  0
  139.8085   75.1214  220.5669 H   0  0  0  0  0  0  0  0  0  0  0  0
  138.0669   74.7332  220.3303 H   0  0  0  0  0  0  0  0  0  0  0  0
  138.6829   78.9429  220.7687 H   0  0  0  0  0  0  0  0  0  0  0  0
  138.0710   78.7449  222.5073 H   0  0  0  0  0  0  0  0  0  0  0  0
  139.9012   80.5399  221.5204 H   0  0  0  0  0  0  0  0  0  0  0  0
  139.4208   80.1085  223.2522 H   0  0  0  0  0  0  0  0  0  0  0  0
  141.8388   79.4438  221.6979 H   0  0  0  0  0  0  0  0  0  0  0  0
  141.5654   79.9584  223.4479 H   0  0  0  0  0  0  0  0  0  0  0  0
  142.4490   77.6986  223.2017 H   0  0  0  0  0  0  0  0  0  0  0  0
  140.8564   77.8151  224.0360 H   0  0  0  0  0  0  0  0  0  0  0  0
  140.8091   75.9583  222.4752 H   0  0  0  0  0  0  0  0  0  0  0  0
  141.2997   78.8462  220.1445 H   0  0  0  0  0  0  0  0  0  0  0  0
  142.6081   78.5591  218.0947 H   0  0  0  0  0  0  0  0  0  0  0  0
  144.8270   76.0290  217.3890 H   0  0  0  0  0  0  0  0  0  0  0  0
  143.3646   74.4814  219.1335 H   0  0  0  0  0  0  0  0  0  0  0  0
  142.0514   74.7655  221.1802 H   0  0  0  0  0  0  0  0  0  0  0  0
  139.1002   70.4039  221.7951 H   0  0  0  0  0  0  0  0  0  0  0  0
  139.1839   68.7043  223.6195 H   0  0  0  0  0  0  0  0  0  0  0  0
  139.7644   68.1343  225.9659 H   0  0  0  0  0  0  0  0  0  0  0  0
  141.4567   71.1777  228.5306 H   0  0  0  0  0  0  0  0  0  0  0  0
  141.3178   72.7889  226.6144 H   0  0  0  0  0  0  0  0  0  0  0  0
  1  2  2  0
  2  3  1  0
  3  4  1  0
  4  5  1  0
  5  6  2  0
  5  7  1  0
  7  8  1  0
  8  9  1  0
  9 10  1  0
 10 11  1  0
 11 12  1  0
 12 13  1  0
 13 14  2  0
 14 15  1  0
 15 16  2  0
 16 17  1  0
 16 18  1  0
 18 19  2  0
  2 20  1  0
 20 21  2  0
 21 22  1  0
 22 23  2  0
 23 24  1  0
 24 25  2  0
 25 26  1  0
 25 27  1  0
 27 28  2  0
 28 29  1  0
 29 30  2  0
 12  7  1  0
 19 13  1  0
 30 20  1  0
 29 23  1  0
  3 31  1  0
  4 32  1  0
  4 33  1  0
  8 34  1  0
  8 35  1  0
  9 36  1  0
  9 37  1  0
 10 38  1  0
 10 39  1  0
 11 40  1  0
 11 41  1  0
 12 42  1  1
 14 43  1  0
 15 44  1  0
 17 45  1  0
 18 46  1  0
 19 47  1  0
 21 48  1  0
 22 49  1  0
 24 50  1  0
 27 51  1  0
 28 52  1  0
M  END
>  <smiles>  (36) 
O=C(NCC(=O)N1CCCCC1c1ccc(O)cc1)c1ccc2cc(Cl)ccc2n1

>  <score_type>  (36) 
oracle

>  <origin>  (36) 
autodockgpu

>  <m_score__min__energy>  (36) 
-9.3000000000000007

>  <m_primary>  (36) 
energy

>  <rmsd>  (36) 
3.2182373029468447

>  <m_score__min__rmsd>  (36) 
3.2182373029468447

>  <meeko>  (36) 
{"free_energy": -8.69, "intermolecular_energy": -10.48, "internal_energy": -1.6, "cluster_size": 19, "cluster_id": 1, "rank_in_cluster": 10}

>  <energy>  (36) 
-7.96

>  <cluster_rmsd>  (36) 
1.08

>  <cluster>  (36) 
2

$$$$

     RDKit          3D

 52 55  0  0  0  0  0  0  0  0999 V2000
  137.7460   71.4530  221.0980 O   0  0  0  0  0  0  0  0  0  0  0  0
  138.3380   71.9430  222.1060 C   0  0  0  0  0  0  0  0  0  0  0  0
  138.5890   73.3340  222.2040 N   0  0  0  0  0  0  0  0  0  0  0  0
  138.1930   74.2550  221.1870 C   0  0  0  0  0  0  0  0  0  0  0  0
  138.9640   75.5400  221.3270 C   0  0  0  0  0  0  0  0  0  0  0  0
  138.2900   76.5340  221.7000 O   0  0  0  0  0  0  0  0  0  0  0  0
  140.3620   75.6010  221.0540 N   0  0  0  0  0  0  0  0  0  0  0  0
  141.1640   74.4700  221.3850 C   0  0  0  0  0  0  0  0  0  0  0  0
  142.5180   74.4220  220.8100 C   0  0  0  0  0  0  0  0  0  0  0  0
  142.9730   75.6500  220.0940 C   0  0  0  0  0  0  0  0  0  0  0  0
  141.9080   76.4460  219.4450 C   0  0  0  0  0  0  0  0  0  0  0  0
  140.8530   76.8250  220.4520 C   0  0  2  0  0  0  0  0  0  0  0  0
  141.2630   77.8550  221.4050 C   0  0  0  0  0  0  0  0  0  0  0  0
  141.8080   79.0800  221.0020 C   0  0  0  0  0  0  0  0  0  0  0  0
  142.1890   80.0460  221.9060 C   0  0  0  0  0  0  0  0  0  0  0  0
  142.0480   79.8520  223.2630 C   0  0  0  0  0  0  0  0  0  0  0  0
  142.4160   80.7940  224.2140 O   0  0  0  0  0  0  0  0  0  0  0  0
  141.5140   78.6550  223.6860 C   0  0  0  0  0  0  0  0  0  0  0  0
  141.1350   77.6910  222.7740 C   0  0  0  0  0  0  0  0  0  0  0  0
  138.7750   71.0480  223.1960 C   0  0  0  0  0  0  0  0  0  0  0  0
  138.4970   69.6980  223.1160 C   0  0  0  0  0  0  0  0  0  0  0  0
  138.9210   68.8880  224.1550 C   0  0  0  0  0  0  0  0  0  0  0  0
  139.6000   69.4170  225.2320 C   0  0  0  0  0  0  0  0  0  0  0  0
  140.0470   68.6620  226.2950 C   0  0  0  0  0  0  0  0  0  0  0  0
  140.7250   69.2630  227.3480 C   0  0  0  0  0  0  0  0  0  0  0  0
  141.3080   68.3190  228.7190 Cl  0  0  0  0  0  0  0  0  0  0  0  0
  140.9800   70.6240  227.3780 C   0  0  0  0  0  0  0  0  0  0  0  0
  140.5250   71.3710  226.3020 C   0  0  0  0  0  0  0  0  0  0  0  0
  139.8560   70.7710  225.2670 C   0  0  0  0  0  0  0  0  0  0  0  0
  139.4400   71.5510  224.2550 N   0  0  0  0  0  0  0  0  0  0  0  0
  139.0910   73.6630  223.0830 H   0  0  0  0  0  0  0  0  0  0  0  0
  138.3943   73.8153  220.1990 H   0  0  0  0  0  0  0  0  0  0  0  0
  137.1183   74.4659  221.2898 H   0  0  0  0  0  0  0  0  0  0  0  0
  141.2669   74.4447  222.4799 H   0  0  0  0  0  0  0  0  0  0  0  0
  140.6372   73.6080  220.9498 H   0  0  0  0  0  0  0  0  0  0  0  0
  143.2248   74.2307  221.6309 H   0  0  0  0  0  0  0  0  0  0  0  0
  142.4862   73.6306  220.0467 H   0  0  0  0  0  0  0  0  0  0  0  0
  143.4820   76.2974  220.8233 H   0  0  0  0  0  0  0  0  0  0  0  0
  143.6232   75.2985  219.2794 H   0  0  0  0  0  0  0  0  0  0  0  0
  142.3469   77.3596  219.0176 H   0  0  0  0  0  0  0  0  0  0  0  0
  141.4445   75.8437  218.6498 H   0  0  0  0  0  0  0  0  0  0  0  0
  140.0233   77.3307  219.9364 H   0  0  0  0  0  0  0  0  0  0  0  0
  141.9361   79.2772  219.9274 H   0  0  0  0  0  0  0  0  0  0  0  0
  142.6143   80.9913  221.5378 H   0  0  0  0  0  0  0  0  0  0  0  0
  143.3930   81.1160  224.2810 H   0  0  0  0  0  0  0  0  0  0  0  0
  141.3883   78.4653  224.7622 H   0  0  0  0  0  0  0  0  0  0  0  0
  140.7116   76.7488  223.1521 H   0  0  0  0  0  0  0  0  0  0  0  0
  137.9560   69.2798  222.2544 H   0  0  0  0  0  0  0  0  0  0  0  0
  138.7136   67.8083  224.1211 H   0  0  0  0  0  0  0  0  0  0  0  0
  139.8658   67.5771  226.3096 H   0  0  0  0  0  0  0  0  0  0  0  0
  141.5183   71.0905  228.2162 H   0  0  0  0  0  0  0  0  0  0  0  0
  140.7028   72.4563  226.2788 H   0  0  0  0  0  0  0  0  0  0  0  0
  1  2  2  0
  2  3  1  0
  3  4  1  0
  4  5  1  0
  5  6  2  0
  5  7  1  0
  7  8  1  0
  8  9  1  0
  9 10  1  0
 10 11  1  0
 11 12  1  0
 12 13  1  0
 13 14  2  0
 14 15  1  0
 15 16  2  0
 16 17  1  0
 16 18  1  0
 18 19  2  0
  2 20  1  0
 20 21  2  0
 21 22  1  0
 22 23  2  0
 23 24  1  0
 24 25  2  0
 25 26  1  0
 25 27  1  0
 27 28  2  0
 28 29  1  0
 29 30  2  0
 12  7  1  0
 19 13  1  0
 30 20  1  0
 29 23  1  0
  3 31  1  0
  4 32  1  0
  4 33  1  0
  8 34  1  0
  8 35  1  0
  9 36  1  0
  9 37  1  0
 10 38  1  0
 10 39  1  0
 11 40  1  0
 11 41  1  0
 12 42  1  6
 14 43  1  0
 15 44  1  0
 17 45  1  0
 18 46  1  0
 19 47  1  0
 21 48  1  0
 22 49  1  0
 24 50  1  0
 27 51  1  0
 28 52  1  0
M  END
>  <smiles>  (37) 
O=C(NCC(=O)N1CCCCC1c1ccc(O)cc1)c1ccc2cc(Cl)ccc2n1

>  <score_type>  (37) 
oracle

>  <origin>  (37) 
autodockgpu

>  <m_score__min__energy>  (37) 
-9.3000000000000007

>  <m_primary>  (37) 
energy

>  <rmsd>  (37) 
2.013695257774432

>  <m_score__min__rmsd>  (37) 
2.013695257774432

>  <meeko>  (37) 
{"free_energy": -8.12, "intermolecular_energy": -9.91, "internal_energy": -1.7, "cluster_size": 18, "cluster_id": 2, "rank_in_cluster": 13}

>  <energy>  (37) 
-7.7

>  <cluster_rmsd>  (37) 
1.1

>  <cluster>  (37) 
2

$$$$

     RDKit          3D

 52 55  0  0  0  0  0  0  0  0999 V2000
  141.0380   72.6510  221.4560 O   0  0  0  0  0  0  0  0  0  0  0  0
  140.0840   72.6210  222.2910 C   0  0  0  0  0  0  0  0  0  0  0  0
  139.0160   73.5490  222.2180 N   0  0  0  0  0  0  0  0  0  0  0  0
  138.9520   74.5610  221.2120 C   0  0  0  0  0  0  0  0  0  0  0  0
  139.6710   75.7980  221.6810 C   0  0  0  0  0  0  0  0  0  0  0  0
  139.2410   76.2960  222.7530 O   0  0  0  0  0  0  0  0  0  0  0  0
  140.7620   76.3470  220.9450 N   0  0  0  0  0  0  0  0  0  0  0  0
  141.8420   75.4830  220.5970 C   0  0  0  0  0  0  0  0  0  0  0  0
  142.7850   75.9740  219.5790 C   0  0  0  0  0  0  0  0  0  0  0  0
  142.6180   77.3960  219.1580 C   0  0  0  0  0  0  0  0  0  0  0  0
  141.2370   77.9260  219.2220 C   0  0  0  0  0  0  0  0  0  0  0  0
  140.6770   77.7540  220.6100 C   0  0  2  0  0  0  0  0  0  0  0  0
  141.2410   78.6580  221.6110 C   0  0  0  0  0  0  0  0  0  0  0  0
  141.3440   78.3140  222.9640 C   0  0  0  0  0  0  0  0  0  0  0  0
  141.8790   79.1700  223.9000 C   0  0  0  0  0  0  0  0  0  0  0  0
  142.3430   80.4180  223.5460 C   0  0  0  0  0  0  0  0  0  0  0  0
  142.8910   81.3180  224.4500 O   0  0  0  0  0  0  0  0  0  0  0  0
  142.2530   80.7810  222.2200 C   0  0  0  0  0  0  0  0  0  0  0  0
  141.7160   79.9180  221.2880 C   0  0  0  0  0  0  0  0  0  0  0  0
  140.0870   71.6000  223.3580 C   0  0  0  0  0  0  0  0  0  0  0  0
  139.6040   70.3350  223.0870 C   0  0  0  0  0  0  0  0  0  0  0  0
  139.6220   69.4030  224.1100 C   0  0  0  0  0  0  0  0  0  0  0  0
  140.1070   69.7320  225.3580 C   0  0  0  0  0  0  0  0  0  0  0  0
  140.1510   68.8490  226.4150 C   0  0  0  0  0  0  0  0  0  0  0  0
  140.6550   69.2490  227.6450 C   0  0  0  0  0  0  0  0  0  0  0  0
  140.7220   68.1380  229.0130 Cl  0  0  0  0  0  0  0  0  0  0  0  0
  141.1290   70.5320  227.8640 C   0  0  0  0  0  0  0  0  0  0  0  0
  141.0790   71.4100  226.7920 C   0  0  0  0  0  0  0  0  0  0  0  0
  140.5810   71.0080  225.5810 C   0  0  0  0  0  0  0  0  0  0  0  0
  140.5600   71.9070  224.5830 N   0  0  0  0  0  0  0  0  0  0  0  0
  138.2570   73.4540  222.9580 H   0  0  0  0  0  0  0  0  0  0  0  0
  139.4267   74.1904  220.2915 H   0  0  0  0  0  0  0  0  0  0  0  0
  137.8985   74.8082  221.0144 H   0  0  0  0  0  0  0  0  0  0  0  0
  142.4165   75.2831  221.5135 H   0  0  0  0  0  0  0  0  0  0  0  0
  141.3683   74.5982  220.1467 H   0  0  0  0  0  0  0  0  0  0  0  0
  143.8025   75.8603  219.9813 H   0  0  0  0  0  0  0  0  0  0  0  0
  142.5847   75.3748  218.6785 H   0  0  0  0  0  0  0  0  0  0  0  0
  143.2493   78.0179  219.8097 H   0  0  0  0  0  0  0  0  0  0  0  0
  142.9036   77.4302  218.0963 H   0  0  0  0  0  0  0  0  0  0  0  0
  141.2459   78.9952  218.9638 H   0  0  0  0  0  0  0  0  0  0  0  0
  140.6071   77.3727  218.5099 H   0  0  0  0  0  0  0  0  0  0  0  0
  139.6212   78.0627  220.6170 H   0  0  0  0  0  0  0  0  0  0  0  0
  140.9854   77.3266  223.2902 H   0  0  0  0  0  0  0  0  0  0  0  0
  141.9372   78.8513  224.9512 H   0  0  0  0  0  0  0  0  0  0  0  0
  142.2880   81.8180  225.1200 H   0  0  0  0  0  0  0  0  0  0  0  0
  142.6135   81.7701  221.9012 H   0  0  0  0  0  0  0  0  0  0  0  0
  141.6625   80.2457  220.2393 H   0  0  0  0  0  0  0  0  0  0  0  0
  139.2174   70.0764  222.0902 H   0  0  0  0  0  0  0  0  0  0  0  0
  139.2444   68.3865  223.9250 H   0  0  0  0  0  0  0  0  0  0  0  0
  139.7843   67.8203  226.2832 H   0  0  0  0  0  0  0  0  0  0  0  0
  141.5264   70.8399  228.8424 H   0  0  0  0  0  0  0  0  0  0  0  0
  141.4432   72.4406  226.9154 H   0  0  0  0  0  0  0  0  0  0  0  0
  1  2  2  0
  2  3  1  0
  3  4  1  0
  4  5  1  0
  5  6  2  0
  5  7  1  0
  7  8  1  0
  8  9  1  0
  9 10  1  0
 10 11  1  0
 11 12  1  0
 12 13  1  0
 13 14  2  0
 14 15  1  0
 15 16  2  0
 16 17  1  0
 16 18  1  0
 18 19  2  0
  2 20  1  0
 20 21  2  0
 21 22  1  0
 22 23  2  0
 23 24  1  0
 24 25  2  0
 25 26  1  0
 25 27  1  0
 27 28  2  0
 28 29  1  0
 29 30  2  0
 12  7  1  0
 19 13  1  0
 30 20  1  0
 29 23  1  0
  3 31  1  0
  4 32  1  0
  4 33  1  0
  8 34  1  0
  8 35  1  0
  9 36  1  0
  9 37  1  0
 10 38  1  0
 10 39  1  0
 11 40  1  0
 11 41  1  0
 12 42  1  6
 14 43  1  0
 15 44  1  0
 17 45  1  0
 18 46  1  0
 19 47  1  0
 21 48  1  0
 22 49  1  0
 24 50  1  0
 27 51  1  0
 28 52  1  0
M  END
>  <smiles>  (38) 
O=C(NCC(=O)N1CCCCC1c1ccc(O)cc1)c1ccc2cc(Cl)ccc2n1

>  <score_type>  (38) 
oracle

>  <origin>  (38) 
autodockgpu

>  <m_score__min__energy>  (38) 
-9.3000000000000007

>  <m_primary>  (38) 
energy

>  <rmsd>  (38) 
1.9836469501284602

>  <m_score__min__rmsd>  (38) 
1.9836469501284602

>  <meeko>  (38) 
{"free_energy": -9.0, "intermolecular_energy": -10.79, "internal_energy": -1.42, "cluster_size": 18, "cluster_id": 2, "rank_in_cluster": 2}

>  <energy>  (38) 
-8.83

>  <cluster_rmsd>  (38) 
0.0

>  <cluster>  (38) 
3

$$$$

     RDKit          3D

 52 55  0  0  0  0  0  0  0  0999 V2000
  138.0500   72.1410  221.6440 O   0  0  0  0  0  0  0  0  0  0  0  0
  139.0820   72.2590  222.3700 C   0  0  0  0  0  0  0  0  0  0  0  0
  140.0100   73.3100  222.1600 N   0  0  0  0  0  0  0  0  0  0  0  0
  139.8370   74.2850  221.1300 C   0  0  0  0  0  0  0  0  0  0  0  0
  140.5540   75.5550  221.5000 C   0  0  0  0  0  0  0  0  0  0  0  0
  141.7990   75.4470  221.6490 O   0  0  0  0  0  0  0  0  0  0  0  0
  139.8510   76.7850  221.6640 N   0  0  0  0  0  0  0  0  0  0  0  0
  138.4430   76.7910  221.4410 C   0  0  0  0  0  0  0  0  0  0  0  0
  137.6980   77.9660  221.9210 C   0  0  0  0  0  0  0  0  0  0  0  0
  138.5190   79.1070  222.4210 C   0  0  0  0  0  0  0  0  0  0  0  0
  139.8220   78.7450  223.0230 C   0  0  0  0  0  0  0  0  0  0  0  0
  140.6400   77.9380  222.0490 C   0  0  2  0  0  0  0  0  0  0  0  0
  141.1900   78.7060  220.9330 C   0  0  0  0  0  0  0  0  0  0  0  0
  141.3570   80.0940  220.9840 C   0  0  0  0  0  0  0  0  0  0  0  0
  141.8780   80.8100  219.9290 C   0  0  0  0  0  0  0  0  0  0  0  0
  142.2650   80.1860  218.7630 C   0  0  0  0  0  0  0  0  0  0  0  0
  142.7950   80.8610  217.6720 O   0  0  0  0  0  0  0  0  0  0  0  0
  142.1110   78.8190  218.6870 C   0  0  0  0  0  0  0  0  0  0  0  0
  141.5880   78.1090  219.7480 C   0  0  0  0  0  0  0  0  0  0  0  0
  139.3230   71.2850  223.4530 C   0  0  0  0  0  0  0  0  0  0  0  0
  138.9200   69.9750  223.2880 C   0  0  0  0  0  0  0  0  0  0  0  0
  139.1610   69.0890  224.3230 C   0  0  0  0  0  0  0  0  0  0  0  0
  139.7840   69.5060  225.4800 C   0  0  0  0  0  0  0  0  0  0  0  0
  140.0510   68.6710  226.5440 C   0  0  0  0  0  0  0  0  0  0  0  0
  140.6830   69.1600  227.6800 C   0  0  0  0  0  0  0  0  0  0  0  0
  141.0350   68.1130  229.0540 Cl  0  0  0  0  0  0  0  0  0  0  0  0
  141.0680   70.4850  227.7950 C   0  0  0  0  0  0  0  0  0  0  0  0
  140.7930   71.3140  226.7170 C   0  0  0  0  0  0  0  0  0  0  0  0
  140.1690   70.8240  225.6000 C   0  0  0  0  0  0  0  0  0  0  0  0
  139.9310   71.6780  224.5900 N   0  0  0  0  0  0  0  0  0  0  0  0
  140.8490   73.3370  222.8130 H   0  0  0  0  0  0  0  0  0  0  0  0
  140.2481   73.8958  220.1869 H   0  0  0  0  0  0  0  0  0  0  0  0
  138.7644   74.4972  221.0092 H   0  0  0  0  0  0  0  0  0  0  0  0
  138.2780   76.7132  220.3562 H   0  0  0  0  0  0  0  0  0  0  0  0
  138.0558   75.9459  222.0292 H   0  0  0  0  0  0  0  0  0  0  0  0
  137.0814   78.3356  221.0884 H   0  0  0  0  0  0  0  0  0  0  0  0
  137.1219   77.6147  222.7898 H   0  0  0  0  0  0  0  0  0  0  0  0
  138.7138   79.7803  221.5732 H   0  0  0  0  0  0  0  0  0  0  0  0
  137.9323   79.5667  223.2300 H   0  0  0  0  0  0  0  0  0  0  0  0
  140.3692   79.6630  223.2836 H   0  0  0  0  0  0  0  0  0  0  0  0
  139.6446   78.1435  223.9267 H   0  0  0  0  0  0  0  0  0  0  0  0
  141.5605   77.5946  222.5438 H   0  0  0  0  0  0  0  0  0  0  0  0
  141.0623   80.6316  221.8973 H   0  0  0  0  0  0  0  0  0  0  0  0
  141.9873   81.9009  220.0190 H   0  0  0  0  0  0  0  0  0  0  0  0
  143.5720   80.4530  217.1310 H   0  0  0  0  0  0  0  0  0  0  0  0
  142.4082   78.2880  217.7706 H   0  0  0  0  0  0  0  0  0  0  0  0
  141.4822   77.0186  219.6484 H   0  0  0  0  0  0  0  0  0  0  0  0
  138.4232   69.6461  222.3633 H   0  0  0  0  0  0  0  0  0  0  0  0
  138.8515   68.0383  224.2214 H   0  0  0  0  0  0  0  0  0  0  0  0
  139.7617   67.6109  226.4930 H   0  0  0  0  0  0  0  0  0  0  0  0
  141.5685   70.8627  228.6988 H   0  0  0  0  0  0  0  0  0  0  0  0
  141.0788   72.3754  226.7595 H   0  0  0  0  0  0  0  0  0  0  0  0
  1  2  2  0
  2  3  1  0
  3  4  1  0
  4  5  1  0
  5  6  2  0
  5  7  1  0
  7  8  1  0
  8  9  1  0
  9 10  1  0
 10 11  1  0
 11 12  1  0
 12 13  1  0
 13 14  2  0
 14 15  1  0
 15 16  2  0
 16 17  1  0
 16 18  1  0
 18 19  2  0
  2 20  1  0
 20 21  2  0
 21 22  1  0
 22 23  2  0
 23 24  1  0
 24 25  2  0
 25 26  1  0
 25 27  1  0
 27 28  2  0
 28 29  1  0
 29 30  2  0
 12  7  1  0
 19 13  1  0
 30 20  1  0
 29 23  1  0
  3 31  1  0
  4 32  1  0
  4 33  1  0
  8 34  1  0
  8 35  1  0
  9 36  1  0
  9 37  1  0
 10 38  1  0
 10 39  1  0
 11 40  1  0
 11 41  1  0
 12 42  1  1
 14 43  1  0
 15 44  1  0
 17 45  1  0
 18 46  1  0
 19 47  1  0
 21 48  1  0
 22 49  1  0
 24 50  1  0
 27 51  1  0
 28 52  1  0
M  END
>  <smiles>  (39) 
O=C(NCC(=O)N1CCCCC1c1ccc(O)cc1)c1ccc2cc(Cl)ccc2n1

>  <score_type>  (39) 
oracle

>  <origin>  (39) 
autodockgpu

>  <m_score__min__energy>  (39) 
-9.3000000000000007

>  <m_primary>  (39) 
energy

>  <rmsd>  (39) 
2.8306815909285366

>  <m_score__min__rmsd>  (39) 
2.8306815909285366

>  <meeko>  (39) 
{"free_energy": -7.97, "intermolecular_energy": -9.76, "internal_energy": -1.63, "cluster_size": 19, "cluster_id": 1, "rank_in_cluster": 18}

>  <energy>  (39) 
-8.82

>  <cluster_rmsd>  (39) 
0.35

>  <cluster>  (39) 
3

$$$$

     RDKit          3D

 52 55  0  0  0  0  0  0  0  0999 V2000
  140.1480   72.5730  220.6840 O   0  0  0  0  0  0  0  0  0  0  0  0
  139.9440   72.9380  221.8810 C   0  0  0  0  0  0  0  0  0  0  0  0
  139.6950   74.2950  222.2020 N   0  0  0  0  0  0  0  0  0  0  0  0
  139.6600   75.3200  221.2070 C   0  0  0  0  0  0  0  0  0  0  0  0
  138.8710   76.4980  221.7120 C   0  0  0  0  0  0  0  0  0  0  0  0
  137.6220   76.4020  221.5880 O   0  0  0  0  0  0  0  0  0  0  0  0
  139.5150   77.6330  222.2870 N   0  0  0  0  0  0  0  0  0  0  0  0
  138.7060   78.6010  222.9510 C   0  0  0  0  0  0  0  0  0  0  0  0
  139.4030   79.5780  223.8050 C   0  0  0  0  0  0  0  0  0  0  0  0
  140.8930   79.5660  223.7360 C   0  0  0  0  0  0  0  0  0  0  0  0
  141.5120   78.2560  223.4330 C   0  0  0  0  0  0  0  0  0  0  0  0
  140.9550   77.7030  222.1470 C   0  0  2  0  0  0  0  0  0  0  0  0
  141.4220   78.3810  220.9390 C   0  0  0  0  0  0  0  0  0  0  0  0
  141.8200   77.6870  219.7910 C   0  0  0  0  0  0  0  0  0  0  0  0
  142.2560   78.3340  218.6560 C   0  0  0  0  0  0  0  0  0  0  0  0
  142.3190   79.7100  218.5960 C   0  0  0  0  0  0  0  0  0  0  0  0
  142.7490   80.4090  217.4780 O   0  0  0  0  0  0  0  0  0  0  0  0
  141.9320   80.4170  219.7140 C   0  0  0  0  0  0  0  0  0  0  0  0
  141.4970   79.7610  220.8470 C   0  0  0  0  0  0  0  0  0  0  0  0
  139.9660   71.9290  222.9600 C   0  0  0  0  0  0  0  0  0  0  0  0
  139.4890   70.6580  222.7080 C   0  0  0  0  0  0  0  0  0  0  0  0
  139.5260   69.7380  223.7420 C   0  0  0  0  0  0  0  0  0  0  0  0
  140.0230   70.0850  224.9800 C   0  0  0  0  0  0  0  0  0  0  0  0
  140.0850   69.2140  226.0460 C   0  0  0  0  0  0  0  0  0  0  0  0
  140.5990   69.6320  227.2670 C   0  0  0  0  0  0  0  0  0  0  0  0
  140.6900   68.5370  228.6460 Cl  0  0  0  0  0  0  0  0  0  0  0  0
  141.0660   70.9210  227.4660 C   0  0  0  0  0  0  0  0  0  0  0  0
  140.9980   71.7860  226.3840 C   0  0  0  0  0  0  0  0  0  0  0  0
  140.4890   71.3660  225.1840 C   0  0  0  0  0  0  0  0  0  0  0  0
  140.4500   72.2540  224.1750 N   0  0  0  0  0  0  0  0  0  0  0  0
  139.5340   74.5160  223.2300 H   0  0  0  0  0  0  0  0  0  0  0  0
  140.6869   75.6404  220.9772 H   0  0  0  0  0  0  0  0  0  0  0  0
  139.1810   74.9263  220.2984 H   0  0  0  0  0  0  0  0  0  0  0  0
  138.1601   79.1637  222.1794 H   0  0  0  0  0  0  0  0  0  0  0  0
  138.0703   78.0220  223.6370 H   0  0  0  0  0  0  0  0  0  0  0  0
  139.0614   80.5823  223.5142 H   0  0  0  0  0  0  0  0  0  0  0  0
  139.1532   79.2974  224.8388 H   0  0  0  0  0  0  0  0  0  0  0  0
  141.2006   80.2742  222.9525 H   0  0  0  0  0  0  0  0  0  0  0  0
  141.2416   79.8359  224.7438 H   0  0  0  0  0  0  0  0  0  0  0  0
  142.6001   78.3826  223.3331 H   0  0  0  0  0  0  0  0  0  0  0  0
  141.2892   77.5556  224.2514 H   0  0  0  0  0  0  0  0  0  0  0  0
  141.3502   76.6891  221.9865 H   0  0  0  0  0  0  0  0  0  0  0  0
  141.7834   76.5876  219.7952 H   0  0  0  0  0  0  0  0  0  0  0  0
  142.5598   77.7415  217.7805 H   0  0  0  0  0  0  0  0  0  0  0  0
  143.6950   80.2550  217.0960 H   0  0  0  0  0  0  0  0  0  0  0  0
  141.9704   81.5163  219.7028 H   0  0  0  0  0  0  0  0  0  0  0  0
  141.1957   80.3618  221.7178 H   0  0  0  0  0  0  0  0  0  0  0  0
  139.0928   70.3854  221.7187 H   0  0  0  0  0  0  0  0  0  0  0  0
  139.1539   68.7167  223.5734 H   0  0  0  0  0  0  0  0  0  0  0  0
  139.7252   68.1811  225.9294 H   0  0  0  0  0  0  0  0  0  0  0  0
  141.4716   71.2432  228.4364 H   0  0  0  0  0  0  0  0  0  0  0  0
  141.3567   72.8204  226.4908 H   0  0  0  0  0  0  0  0  0  0  0  0
  1  2  2  0
  2  3  1  0
  3  4  1  0
  4  5  1  0
  5  6  2  0
  5  7  1  0
  7  8  1  0
  8  9  1  0
  9 10  1  0
 10 11  1  0
 11 12  1  0
 12 13  1  0
 13 14  2  0
 14 15  1  0
 15 16  2  0
 16 17  1  0
 16 18  1  0
 18 19  2  0
  2 20  1  0
 20 21  2  0
 21 22  1  0
 22 23  2  0
 23 24  1  0
 24 25  2  0
 25 26  1  0
 25 27  1  0
 27 28  2  0
 28 29  1  0
 29 30  2  0
 12  7  1  0
 19 13  1  0
 30 20  1  0
 29 23  1  0
  3 31  1  0
  4 32  1  0
  4 33  1  0
  8 34  1  0
  8 35  1  0
  9 36  1  0
  9 37  1  0
 10 38  1  0
 10 39  1  0
 11 40  1  0
 11 41  1  0
 12 42  1  6
 14 43  1  0
 15 44  1  0
 17 45  1  0
 18 46  1  0
 19 47  1  0
 21 48  1  0
 22 49  1  0
 24 50  1  0
 27 51  1  0
 28 52  1  0
M  END
>  <smiles>  (40) 
O=C(NCC(=O)N1CCCCC1c1ccc(O)cc1)c1ccc2cc(Cl)ccc2n1

>  <score_type>  (40) 
oracle

>  <origin>  (40) 
autodockgpu

>  <m_score__min__energy>  (40) 
-9.3000000000000007

>  <m_primary>  (40) 
energy

>  <rmsd>  (40) 
3.625601044289858

>  <m_score__min__rmsd>  (40) 
3.625601044289858

>  <meeko>  (40) 
{"free_energy": -9.27, "intermolecular_energy": -11.06, "internal_energy": -1.33, "cluster_size": 19, "cluster_id": 1, "rank_in_cluster": 2}

>  <energy>  (40) 
-8.38

>  <cluster_rmsd>  (40) 
0.82

>  <cluster>  (40) 
3

$$$$

     RDKit          3D

 52 55  0  0  0  0  0  0  0  0999 V2000
  138.6960   71.6940  221.1120 O   0  0  0  0  0  0  0  0  0  0  0  0
  139.1030   72.1300  222.2310 C   0  0  0  0  0  0  0  0  0  0  0  0
  139.3190   73.5140  222.4440 N   0  0  0  0  0  0  0  0  0  0  0  0
  139.0910   74.4870  221.4240 C   0  0  0  0  0  0  0  0  0  0  0  0
  140.2110   75.4930  221.4140 C   0  0  0  0  0  0  0  0  0  0  0  0
  141.3360   75.0420  221.0740 O   0  0  0  0  0  0  0  0  0  0  0  0
  139.9890   76.8570  221.7670 N   0  0  0  0  0  0  0  0  0  0  0  0
  138.6570   77.2670  222.0640 C   0  0  0  0  0  0  0  0  0  0  0  0
  138.4950   78.5700  222.7300 C   0  0  0  0  0  0  0  0  0  0  0  0
  139.7260   79.4030  222.8540 C   0  0  0  0  0  0  0  0  0  0  0  0
  140.9990   78.6570  222.9630 C   0  0  0  0  0  0  0  0  0  0  0  0
  141.1540   77.7180  221.7950 C   0  0  2  0  0  0  0  0  0  0  0  0
  141.4640   78.3730  220.5250 C   0  0  0  0  0  0  0  0  0  0  0  0
  141.8410   79.7180  220.4440 C   0  0  0  0  0  0  0  0  0  0  0  0
  142.1340   80.3260  219.2430 C   0  0  0  0  0  0  0  0  0  0  0  0
  142.0700   79.6320  218.0540 C   0  0  0  0  0  0  0  0  0  0  0  0
  142.3550   80.1990  216.8200 O   0  0  0  0  0  0  0  0  0  0  0  0
  141.7010   78.3060  218.1080 C   0  0  0  0  0  0  0  0  0  0  0  0
  141.4090   77.7030  219.3140 C   0  0  0  0  0  0  0  0  0  0  0  0
  139.3590   71.1780  223.3310 C   0  0  0  0  0  0  0  0  0  0  0  0
  138.9890   69.8560  223.1820 C   0  0  0  0  0  0  0  0  0  0  0  0
  139.2430   68.9920  224.2320 C   0  0  0  0  0  0  0  0  0  0  0  0
  139.8470   69.4410  225.3870 C   0  0  0  0  0  0  0  0  0  0  0  0
  140.1260   68.6290  226.4660 C   0  0  0  0  0  0  0  0  0  0  0  0
  140.7370   69.1500  227.5990 C   0  0  0  0  0  0  0  0  0  0  0  0
  141.1040   68.1320  228.9910 Cl  0  0  0  0  0  0  0  0  0  0  0  0
  141.0890   70.4850  227.6960 C   0  0  0  0  0  0  0  0  0  0  0  0
  140.8030   71.2910  226.6040 C   0  0  0  0  0  0  0  0  0  0  0  0
  140.1990   70.7700  225.4900 C   0  0  0  0  0  0  0  0  0  0  0  0
  139.9490   71.6030  224.4660 N   0  0  0  0  0  0  0  0  0  0  0  0
  139.6610   73.7960  223.4110 H   0  0  0  0  0  0  0  0  0  0  0  0
  139.0428   73.9855  220.4461 H   0  0  0  0  0  0  0  0  0  0  0  0
  138.1415   75.0050  221.6242 H   0  0  0  0  0  0  0  0  0  0  0  0
  138.1021   77.3073  221.1151 H   0  0  0  0  0  0  0  0  0  0  0  0
  138.2830   76.5267  222.7865 H   0  0  0  0  0  0  0  0  0  0  0  0
  137.7540   79.1489  222.1593 H   0  0  0  0  0  0  0  0  0  0  0  0
  138.1911   78.3380  223.7614 H   0  0  0  0  0  0  0  0  0  0  0  0
  139.7879   80.0484  221.9654 H   0  0  0  0  0  0  0  0  0  0  0  0
  139.6202   79.9540  223.8002 H   0  0  0  0  0  0  0  0  0  0  0  0
  141.8376   79.3688  222.9707 H   0  0  0  0  0  0  0  0  0  0  0  0
  140.9936   78.0725  223.8949 H   0  0  0  0  0  0  0  0  0  0  0  0
  142.0530   77.1010  221.9407 H   0  0  0  0  0  0  0  0  0  0  0  0
  141.9055   80.3092  221.3694 H   0  0  0  0  0  0  0  0  0  0  0  0
  142.4249   81.3868  219.2328 H   0  0  0  0  0  0  0  0  0  0  0  0
  143.3230   80.2190  216.4650 H   0  0  0  0  0  0  0  0  0  0  0  0
  141.6384   77.7210  217.1786 H   0  0  0  0  0  0  0  0  0  0  0  0
  141.1193   76.6418  219.3138 H   0  0  0  0  0  0  0  0  0  0  0  0
  138.5080   69.5015  222.2585 H   0  0  0  0  0  0  0  0  0  0  0  0
  138.9593   67.9328  224.1442 H   0  0  0  0  0  0  0  0  0  0  0  0
  139.8629   67.5616  226.4290 H   0  0  0  0  0  0  0  0  0  0  0  0
  141.5733   70.8883  228.5976 H   0  0  0  0  0  0  0  0  0  0  0  0
  141.0637   72.3593  226.6327 H   0  0  0  0  0  0  0  0  0  0  0  0
  1  2  2  0
  2  3  1  0
  3  4  1  0
  4  5  1  0
  5  6  2  0
  5  7  1  0
  7  8  1  0
  8  9  1  0
  9 10  1  0
 10 11  1  0
 11 12  1  0
 12 13  1  0
 13 14  2  0
 14 15  1  0
 15 16  2  0
 16 17  1  0
 16 18  1  0
 18 19  2  0
  2 20  1  0
 20 21  2  0
 21 22  1  0
 22 23  2  0
 23 24  1  0
 24 25  2  0
 25 26  1  0
 25 27  1  0
 27 28  2  0
 28 29  1  0
 29 30  2  0
 12  7  1  0
 19 13  1  0
 30 20  1  0
 29 23  1  0
  3 31  1  0
  4 32  1  0
  4 33  1  0
  8 34  1  0
  8 35  1  0
  9 36  1  0
  9 37  1  0
 10 38  1  0
 10 39  1  0
 11 40  1  0
 11 41  1  0
 12 42  1  1
 14 43  1  0
 15 44  1  0
 17 45  1  0
 18 46  1  0
 19 47  1  0
 21 48  1  0
 22 49  1  0
 24 50  1  0
 27 51  1  0
 28 52  1  0
M  END
>  <smiles>  (41) 
O=C(NCC(=O)N1CCCCC1c1ccc(O)cc1)c1ccc2cc(Cl)ccc2n1

>  <score_type>  (41) 
oracle

>  <origin>  (41) 
autodockgpu

>  <m_score__min__energy>  (41) 
-9.3000000000000007

>  <m_primary>  (41) 
energy

>  <rmsd>  (41) 
2.902389158720105

>  <m_score__min__rmsd>  (41) 
2.902389158720105

>  <meeko>  (41) 
{"free_energy": -8.55, "intermolecular_energy": -10.34, "internal_energy": -1.55, "cluster_size": 19, "cluster_id": 1, "rank_in_cluster": 11}

>  <energy>  (41) 
-7.89

>  <cluster_rmsd>  (41) 
1.59

>  <cluster>  (41) 
3

$$$$

     RDKit          3D

 52 55  0  0  0  0  0  0  0  0999 V2000
  140.9120   73.7800  220.8300 O   0  0  0  0  0  0  0  0  0  0  0  0
  140.1240   73.7940  221.8240 C   0  0  0  0  0  0  0  0  0  0  0  0
  139.4950   74.9920  222.2450 N   0  0  0  0  0  0  0  0  0  0  0  0
  139.7100   76.2390  221.5830 C   0  0  0  0  0  0  0  0  0  0  0  0
  139.2820   77.3740  222.4740 C   0  0  0  0  0  0  0  0  0  0  0  0
  138.1910   77.2020  223.0780 O   0  0  0  0  0  0  0  0  0  0  0  0
  140.0750   78.5520  222.6100 N   0  0  0  0  0  0  0  0  0  0  0  0
  139.4630   79.7150  223.1620 C   0  0  0  0  0  0  0  0  0  0  0  0
  140.3610   80.8000  223.5900 C   0  0  0  0  0  0  0  0  0  0  0  0
  141.8000   80.6430  223.2310 C   0  0  0  0  0  0  0  0  0  0  0  0
  142.2920   79.2500  223.1430 C   0  0  0  0  0  0  0  0  0  0  0  0
  141.4530   78.4610  222.1720 C   0  0  2  0  0  0  0  0  0  0  0  0
  141.6720   78.7950  220.7660 C   0  0  0  0  0  0  0  0  0  0  0  0
  141.3660   80.0530  220.2340 C   0  0  0  0  0  0  0  0  0  0  0  0
  141.5790   80.3610  218.9090 C   0  0  0  0  0  0  0  0  0  0  0  0
  142.1090   79.4360  218.0350 C   0  0  0  0  0  0  0  0  0  0  0  0
  142.3420   79.6960  216.6920 O   0  0  0  0  0  0  0  0  0  0  0  0
  142.4190   78.1900  218.5340 C   0  0  0  0  0  0  0  0  0  0  0  0
  142.2030   77.8890  219.8630 C   0  0  0  0  0  0  0  0  0  0  0  0
  139.8570   72.5390  222.5550 C   0  0  0  0  0  0  0  0  0  0  0  0
  138.9230   71.6510  222.0580 C   0  0  0  0  0  0  0  0  0  0  0  0
  138.6990   70.4850  222.7680 C   0  0  0  0  0  0  0  0  0  0  0  0
  139.3880   70.2220  223.9330 C   0  0  0  0  0  0  0  0  0  0  0  0
  139.2080   69.0800  224.6830 C   0  0  0  0  0  0  0  0  0  0  0  0
  139.9380   68.8810  225.8480 C   0  0  0  0  0  0  0  0  0  0  0  0
  139.7260   67.4280  226.8240 Cl  0  0  0  0  0  0  0  0  0  0  0  0
  140.8650   69.8040  226.3010 C   0  0  0  0  0  0  0  0  0  0  0  0
  141.0360   70.9490  225.5370 C   0  0  0  0  0  0  0  0  0  0  0  0
  140.3120   71.1380  224.3900 C   0  0  0  0  0  0  0  0  0  0  0  0
  140.5240   72.2680  223.6940 N   0  0  0  0  0  0  0  0  0  0  0  0
  138.8490   74.9150  223.0870 H   0  0  0  0  0  0  0  0  0  0  0  0
  140.7786   76.3457  221.3447 H   0  0  0  0  0  0  0  0  0  0  0  0
  139.1175   76.2634  220.6565 H   0  0  0  0  0  0  0  0  0  0  0  0
  138.7839   80.1264  222.4007 H   0  0  0  0  0  0  0  0  0  0  0  0
  138.9701   79.3703  224.0830 H   0  0  0  0  0  0  0  0  0  0  0  0
  140.0009   81.7337  223.1332 H   0  0  0  0  0  0  0  0  0  0  0  0
  140.3290   80.7925  224.6895 H   0  0  0  0  0  0  0  0  0  0  0  0
  141.9579   81.1195  222.2522 H   0  0  0  0  0  0  0  0  0  0  0  0
  142.3658   81.1092  224.0511 H   0  0  0  0  0  0  0  0  0  0  0  0
  143.3370   79.2550  222.7994 H   0  0  0  0  0  0  0  0  0  0  0  0
  142.2250   78.7828  224.1366 H   0  0  0  0  0  0  0  0  0  0  0  0
  141.7688   77.4075  222.1914 H   0  0  0  0  0  0  0  0  0  0  0  0
  140.9411   80.8213  220.8967 H   0  0  0  0  0  0  0  0  0  0  0  0
  141.3212   81.3649  218.5406 H   0  0  0  0  0  0  0  0  0  0  0  0
  143.3030   79.6960  216.3190 H   0  0  0  0  0  0  0  0  0  0  0  0
  142.8435   77.4266  217.8654 H   0  0  0  0  0  0  0  0  0  0  0  0
  142.4647   76.8827  220.2221 H   0  0  0  0  0  0  0  0  0  0  0  0
  138.3753   71.8640  221.1281 H   0  0  0  0  0  0  0  0  0  0  0  0
  137.9612   69.7578  222.3981 H   0  0  0  0  0  0  0  0  0  0  0  0
  138.4815   68.3211  224.3570 H   0  0  0  0  0  0  0  0  0  0  0  0
  141.4394   69.6371  227.2241 H   0  0  0  0  0  0  0  0  0  0  0  0
  141.7605   71.7130  225.8556 H   0  0  0  0  0  0  0  0  0  0  0  0
  1  2  2  0
  2  3  1  0
  3  4  1  0
  4  5  1  0
  5  6  2  0
  5  7  1  0
  7  8  1  0
  8  9  1  0
  9 10  1  0
 10 11  1  0
 11 12  1  0
 12 13  1  0
 13 14  2  0
 14 15  1  0
 15 16  2  0
 16 17  1  0
 16 18  1  0
 18 19  2  0
  2 20  1  0
 20 21  2  0
 21 22  1  0
 22 23  2  0
 23 24  1  0
 24 25  2  0
 25 26  1  0
 25 27  1  0
 27 28  2  0
 28 29  1  0
 29 30  2  0
 12  7  1  0
 19 13  1  0
 30 20  1  0
 29 23  1  0
  3 31  1  0
  4 32  1  0
  4 33  1  0
  8 34  1  0
  8 35  1  0
  9 36  1  0
  9 37  1  0
 10 38  1  0
 10 39  1  0
 11 40  1  0
 11 41  1  0
 12 42  1  6
 14 43  1  0
 15 44  1  0
 17 45  1  0
 18 46  1  0
 19 47  1  0
 21 48  1  0
 22 49  1  0
 24 50  1  0
 27 51  1  0
 28 52  1  0
M  END
>  <smiles>  (42) 
O=C(NCC(=O)N1CCCCC1c1ccc(O)cc1)c1ccc2cc(Cl)ccc2n1

>  <score_type>  (42) 
oracle

>  <origin>  (42) 
autodockgpu

>  <m_score__min__energy>  (42) 
-9.3000000000000007

>  <m_primary>  (42) 
energy

>  <rmsd>  (42) 
4.166179435644049

>  <m_score__min__rmsd>  (42) 
4.166179435644049

>  <meeko>  (42) 
{"free_energy": -9.05, "intermolecular_energy": -10.84, "internal_energy": -1.6, "cluster_size": 19, "cluster_id": 1, "rank_in_cluster": 7}

>  <energy>  (42) 
-7.56

>  <cluster_rmsd>  (42) 
1.26

>  <cluster>  (42) 
3

$$$$

     RDKit          3D

 52 55  0  0  0  0  0  0  0  0999 V2000
  137.9350   71.8950  221.7140 O   0  0  0  0  0  0  0  0  0  0  0  0
  138.9030   72.1210  222.5010 C   0  0  0  0  0  0  0  0  0  0  0  0
  139.6910   73.2920  222.3750 N   0  0  0  0  0  0  0  0  0  0  0  0
  139.4440   74.2730  221.3680 C   0  0  0  0  0  0  0  0  0  0  0  0
  140.2980   75.4880  221.6130 C   0  0  0  0  0  0  0  0  0  0  0  0
  141.5370   75.2720  221.6680 O   0  0  0  0  0  0  0  0  0  0  0  0
  139.7230   76.7840  221.7660 N   0  0  0  0  0  0  0  0  0  0  0  0
  138.3190   76.9250  221.5630 C   0  0  0  0  0  0  0  0  0  0  0  0
  137.7010   78.1750  222.0350 C   0  0  0  0  0  0  0  0  0  0  0  0
  138.6380   79.2360  222.5050 C   0  0  0  0  0  0  0  0  0  0  0  0
  139.9080   78.7560  223.0940 C   0  0  0  0  0  0  0  0  0  0  0  0
  140.6280   77.8580  222.1220 C   0  0  2  0  0  0  0  0  0  0  0  0
  141.2330   78.5520  220.9860 C   0  0  0  0  0  0  0  0  0  0  0  0
  141.6500   77.8810  219.8300 C   0  0  0  0  0  0  0  0  0  0  0  0
  142.2170   78.5420  218.7630 C   0  0  0  0  0  0  0  0  0  0  0  0
  142.4000   79.9080  218.7820 C   0  0  0  0  0  0  0  0  0  0  0  0
  142.9650   80.6200  217.7340 O   0  0  0  0  0  0  0  0  0  0  0  0
  141.9970   80.5910  219.9090 C   0  0  0  0  0  0  0  0  0  0  0  0
  141.4300   79.9220  220.9740 C   0  0  0  0  0  0  0  0  0  0  0  0
  139.2150   71.1470  223.5660 C   0  0  0  0  0  0  0  0  0  0  0  0
  138.8670   69.8220  223.3950 C   0  0  0  0  0  0  0  0  0  0  0  0
  139.1750   68.9360  224.4130 C   0  0  0  0  0  0  0  0  0  0  0  0
  139.8070   69.3680  225.5590 C   0  0  0  0  0  0  0  0  0  0  0  0
  140.1390   68.5350  226.6060 C   0  0  0  0  0  0  0  0  0  0  0  0
  140.7760   69.0400  227.7320 C   0  0  0  0  0  0  0  0  0  0  0  0
  141.2110   67.9950  229.0830 Cl  0  0  0  0  0  0  0  0  0  0  0  0
  141.1040   70.3800  227.8530 C   0  0  0  0  0  0  0  0  0  0  0  0
  140.7640   71.2070  226.7920 C   0  0  0  0  0  0  0  0  0  0  0  0
  140.1350   70.7010  225.6850 C   0  0  0  0  0  0  0  0  0  0  0  0
  139.8330   71.5550  224.6920 N   0  0  0  0  0  0  0  0  0  0  0  0
  140.4840   73.4050  223.0760 H   0  0  0  0  0  0  0  0  0  0  0  0
  139.6853   73.8510  220.3812 H   0  0  0  0  0  0  0  0  0  0  0  0
  138.3837   74.5643  221.3998 H   0  0  0  0  0  0  0  0  0  0  0  0
  138.1299   76.8481  220.4821 H   0  0  0  0  0  0  0  0  0  0  0  0
  137.8599   76.1306  222.1698 H   0  0  0  0  0  0  0  0  0  0  0  0
  137.1109   78.5918  221.2055 H   0  0  0  0  0  0  0  0  0  0  0  0
  137.1068   77.8949  222.9173 H   0  0  0  0  0  0  0  0  0  0  0  0
  138.8849   79.8744  221.6439 H   0  0  0  0  0  0  0  0  0  0  0  0
  138.1122   79.7629  223.3149 H   0  0  0  0  0  0  0  0  0  0  0  0
  140.5468   79.6193  223.3322 H   0  0  0  0  0  0  0  0  0  0  0  0
  139.6860   78.1879  224.0094 H   0  0  0  0  0  0  0  0  0  0  0  0
  141.5176   77.4325  222.6094 H   0  0  0  0  0  0  0  0  0  0  0  0
  141.5205   76.7902  219.7721 H   0  0  0  0  0  0  0  0  0  0  0  0
  142.5300   77.9684  217.8781 H   0  0  0  0  0  0  0  0  0  0  0  0
  143.6840   80.1880  217.1350 H   0  0  0  0  0  0  0  0  0  0  0  0
  142.1289   81.6819  219.9600 H   0  0  0  0  0  0  0  0  0  0  0  0
  141.1201   80.5043  221.8543 H   0  0  0  0  0  0  0  0  0  0  0  0
  138.3613   69.4814  222.4794 H   0  0  0  0  0  0  0  0  0  0  0  0
  138.9119   67.8733  224.3059 H   0  0  0  0  0  0  0  0  0  0  0  0
  139.8978   67.4633  226.5492 H   0  0  0  0  0  0  0  0  0  0  0  0
  141.6103   70.7704  228.7481 H   0  0  0  0  0  0  0  0  0  0  0  0
  141.0019   72.2799  226.8401 H   0  0  0  0  0  0  0  0  0  0  0  0
  1  2  2  0
  2  3  1  0
  3  4  1  0
  4  5  1  0
  5  6  2  0
  5  7  1  0
  7  8  1  0
  8  9  1  0
  9 10  1  0
 10 11  1  0
 11 12  1  0
 12 13  1  0
 13 14  2  0
 14 15  1  0
 15 16  2  0
 16 17  1  0
 16 18  1  0
 18 19  2  0
  2 20  1  0
 20 21  2  0
 21 22  1  0
 22 23  2  0
 23 24  1  0
 24 25  2  0
 25 26  1  0
 25 27  1  0
 27 28  2  0
 28 29  1  0
 29 30  2  0
 12  7  1  0
 19 13  1  0
 30 20  1  0
 29 23  1  0
  3 31  1  0
  4 32  1  0
  4 33  1  0
  8 34  1  0
  8 35  1  0
  9 36  1  0
  9 37  1  0
 10 38  1  0
 10 39  1  0
 11 40  1  0
 11 41  1  0
 12 42  1  1
 14 43  1  0
 15 44  1  0
 17 45  1  0
 18 46  1  0
 19 47  1  0
 21 48  1  0
 22 49  1  0
 24 50  1  0
 27 51  1  0
 28 52  1  0
M  END
>  <smiles>  (43) 
O=C(NCC(=O)N1CCCCC1c1ccc(O)cc1)c1ccc2cc(Cl)ccc2n1

>  <score_type>  (43) 
oracle

>  <origin>  (43) 
autodockgpu

>  <m_score__min__energy>  (43) 
-9.3000000000000007

>  <m_primary>  (43) 
energy

>  <rmsd>  (43) 
2.8488012994614733

>  <m_score__min__rmsd>  (43) 
2.8488012994614733

>  <meeko>  (43) 
{"free_energy": -8.14, "intermolecular_energy": -9.93, "internal_energy": -1.66, "cluster_size": 19, "cluster_id": 1, "rank_in_cluster": 17}

>  <energy>  (43) 
-7.65

>  <cluster_rmsd>  (43) 
0.0

>  <cluster>  (43) 
4

$$$$

     RDKit          3D

 52 55  0  0  0  0  0  0  0  0999 V2000
  138.8370   71.7350  220.6750 O   0  0  0  0  0  0  0  0  0  0  0  0
  138.9690   72.2120  221.8420 C   0  0  0  0  0  0  0  0  0  0  0  0
  138.8500   73.6030  222.0830 N   0  0  0  0  0  0  0  0  0  0  0  0
  138.5770   74.5380  221.0380 C   0  0  0  0  0  0  0  0  0  0  0  0
  139.2860   75.8370  221.3130 C   0  0  0  0  0  0  0  0  0  0  0  0
  138.5980   76.7110  221.9030 O   0  0  0  0  0  0  0  0  0  0  0  0
  140.6430   76.0410  220.9250 N   0  0  0  0  0  0  0  0  0  0  0  0
  141.5580   74.9590  221.0840 C   0  0  0  0  0  0  0  0  0  0  0  0
  142.8510   75.0740  220.3910 C   0  0  0  0  0  0  0  0  0  0  0  0
  143.1400   76.3900  219.7500 C   0  0  0  0  0  0  0  0  0  0  0  0
  141.9590   77.1430  219.2690 C   0  0  0  0  0  0  0  0  0  0  0  0
  140.9780   77.3470  220.3940 C   0  0  2  0  0  0  0  0  0  0  0  0
  141.3940   78.3270  221.3950 C   0  0  0  0  0  0  0  0  0  0  0  0
  141.8140   79.6180  221.0560 C   0  0  0  0  0  0  0  0  0  0  0  0
  142.2020   80.5370  222.0050 C   0  0  0  0  0  0  0  0  0  0  0  0
  142.1920   80.2270  223.3480 C   0  0  0  0  0  0  0  0  0  0  0  0
  142.5730   81.1160  224.3430 O   0  0  0  0  0  0  0  0  0  0  0  0
  141.7820   78.9620  223.7080 C   0  0  0  0  0  0  0  0  0  0  0  0
  141.3960   78.0470  222.7520 C   0  0  0  0  0  0  0  0  0  0  0  0
  139.2530   71.3020  222.9700 C   0  0  0  0  0  0  0  0  0  0  0  0
  138.9100   69.9680  222.8660 C   0  0  0  0  0  0  0  0  0  0  0  0
  139.1900   69.1430  223.9410 C   0  0  0  0  0  0  0  0  0  0  0  0
  139.7920   69.6420  225.0770 C   0  0  0  0  0  0  0  0  0  0  0  0
  140.0960   68.8710  226.1780 C   0  0  0  0  0  0  0  0  0  0  0  0
  140.7030   69.4410  227.2900 C   0  0  0  0  0  0  0  0  0  0  0  0
  141.1020   68.4770  228.7110 Cl  0  0  0  0  0  0  0  0  0  0  0  0
  141.0270   70.7860  227.3420 C   0  0  0  0  0  0  0  0  0  0  0  0
  140.7160   71.5500  226.2270 C   0  0  0  0  0  0  0  0  0  0  0  0
  140.1160   70.9810  225.1340 C   0  0  0  0  0  0  0  0  0  0  0  0
  139.8410   71.7750  224.0860 N   0  0  0  0  0  0  0  0  0  0  0  0
  138.9750   73.9200  223.0910 H   0  0  0  0  0  0  0  0  0  0  0  0
  138.9281   74.1268  220.0801 H   0  0  0  0  0  0  0  0  0  0  0  0
  137.4933   74.7206  220.9901 H   0  0  0  0  0  0  0  0  0  0  0  0
  141.7653   74.8542  222.1592 H   0  0  0  0  0  0  0  0  0  0  0  0
  141.0611   74.0928  220.6227 H   0  0  0  0  0  0  0  0  0  0  0  0
  143.6448   74.8775  221.1268 H   0  0  0  0  0  0  0  0  0  0  0  0
  142.8085   74.3477  219.5660 H   0  0  0  0  0  0  0  0  0  0  0  0
  143.6636   77.0170  220.4867 H   0  0  0  0  0  0  0  0  0  0  0  0
  143.7361   76.1626  218.8539 H   0  0  0  0  0  0  0  0  0  0  0  0
  142.2833   78.1225  218.8877 H   0  0  0  0  0  0  0  0  0  0  0  0
  141.4708   76.5703  218.4667 H   0  0  0  0  0  0  0  0  0  0  0  0
  140.0666   77.8204  219.9999 H   0  0  0  0  0  0  0  0  0  0  0  0
  141.8349   79.9085  219.9953 H   0  0  0  0  0  0  0  0  0  0  0  0
  142.5263   81.5382  221.6851 H   0  0  0  0  0  0  0  0  0  0  0  0
  143.2330   81.8800  224.1370 H   0  0  0  0  0  0  0  0  0  0  0  0
  141.7624   78.6788  224.7707 H   0  0  0  0  0  0  0  0  0  0  0  0
  141.0746   77.0480  223.0818 H   0  0  0  0  0  0  0  0  0  0  0  0
  138.4298   69.5743  221.9580 H   0  0  0  0  0  0  0  0  0  0  0  0
  138.9291   68.0757  223.8888 H   0  0  0  0  0  0  0  0  0  0  0  0
  139.8565   67.7974  226.1763 H   0  0  0  0  0  0  0  0  0  0  0  0
  141.5087   71.2282  228.2265 H   0  0  0  0  0  0  0  0  0  0  0  0
  140.9534   72.6240  226.2199 H   0  0  0  0  0  0  0  0  0  0  0  0
  1  2  2  0
  2  3  1  0
  3  4  1  0
  4  5  1  0
  5  6  2  0
  5  7  1  0
  7  8  1  0
  8  9  1  0
  9 10  1  0
 10 11  1  0
 11 12  1  0
 12 13  1  0
 13 14  2  0
 14 15  1  0
 15 16  2  0
 16 17  1  0
 16 18  1  0
 18 19  2  0
  2 20  1  0
 20 21  2  0
 21 22  1  0
 22 23  2  0
 23 24  1  0
 24 25  2  0
 25 26  1  0
 25 27  1  0
 27 28  2  0
 28 29  1  0
 29 30  2  0
 12  7  1  0
 19 13  1  0
 30 20  1  0
 29 23  1  0
  3 31  1  0
  4 32  1  0
  4 33  1  0
  8 34  1  0
  8 35  1  0
  9 36  1  0
  9 37  1  0
 10 38  1  0
 10 39  1  0
 11 40  1  0
 11 41  1  0
 12 42  1  6
 14 43  1  0
 15 44  1  0
 17 45  1  0
 18 46  1  0
 19 47  1  0
 21 48  1  0
 22 49  1  0
 24 50  1  0
 27 51  1  0
 28 52  1  0
M  END
>  <smiles>  (44) 
O=C(NCC(=O)N1CCCCC1c1ccc(O)cc1)c1ccc2cc(Cl)ccc2n1

>  <score_type>  (44) 
oracle

>  <origin>  (44) 
autodockgpu

>  <m_score__min__energy>  (44) 
-9.3000000000000007

>  <m_primary>  (44) 
energy

>  <rmsd>  (44) 
1.9868551954179738

>  <m_score__min__rmsd>  (44) 
1.9868551954179738

>  <meeko>  (44) 
{"free_energy": -8.58, "intermolecular_energy": -10.37, "internal_energy": -1.68, "cluster_size": 18, "cluster_id": 2, "rank_in_cluster": 10}

>  <energy>  (44) 
-7.63

>  <cluster_rmsd>  (44) 
0.14

>  <cluster>  (44) 
4

$$$$

     RDKit          3D

 52 55  0  0  0  0  0  0  0  0999 V2000
  139.0260   70.7590  221.0540 O   0  0  0  0  0  0  0  0  0  0  0  0
  139.0270   71.5890  222.0120 C   0  0  0  0  0  0  0  0  0  0  0  0
  138.4940   72.8920  221.8530 N   0  0  0  0  0  0  0  0  0  0  0  0
  137.9330   73.3420  220.6190 C   0  0  0  0  0  0  0  0  0  0  0  0
  139.0050   73.9560  219.7600 C   0  0  0  0  0  0  0  0  0  0  0  0
  139.1420   73.4400  218.6200 O   0  0  0  0  0  0  0  0  0  0  0  0
  139.7960   75.0470  220.2250 N   0  0  0  0  0  0  0  0  0  0  0  0
  139.5350   76.3440  219.6920 C   0  0  0  0  0  0  0  0  0  0  0  0
  140.1260   77.4880  220.4060 C   0  0  0  0  0  0  0  0  0  0  0  0
  141.0860   77.1570  221.4990 C   0  0  0  0  0  0  0  0  0  0  0  0
  140.8440   75.8770  222.2010 C   0  0  0  0  0  0  0  0  0  0  0  0
  140.8100   74.7400  221.2130 C   0  0  2  0  0  0  0  0  0  0  0  0
  142.1140   74.3740  220.6620 C   0  0  0  0  0  0  0  0  0  0  0  0
  142.6860   73.1110  220.8560 C   0  0  0  0  0  0  0  0  0  0  0  0
  143.9140   72.7740  220.3310 C   0  0  0  0  0  0  0  0  0  0  0  0
  144.6420   73.6700  219.5800 C   0  0  0  0  0  0  0  0  0  0  0  0
  145.8820   73.3790  219.0280 O   0  0  0  0  0  0  0  0  0  0  0  0
  144.1000   74.9200  219.3730 C   0  0  0  0  0  0  0  0  0  0  0  0
  142.8700   75.2510  219.9030 C   0  0  0  0  0  0  0  0  0  0  0  0
  139.5930   71.1900  223.3160 C   0  0  0  0  0  0  0  0  0  0  0  0
  140.4770   72.0350  223.9570 C   0  0  0  0  0  0  0  0  0  0  0  0
  140.9880   71.6290  225.1780 C   0  0  0  0  0  0  0  0  0  0  0  0
  140.6230   70.4210  225.7310 C   0  0  0  0  0  0  0  0  0  0  0  0
  141.0970   69.9640  226.9420 C   0  0  0  0  0  0  0  0  0  0  0  0
  140.6860   68.7340  227.4390 C   0  0  0  0  0  0  0  0  0  0  0  0
  141.2780   68.1270  228.9850 Cl  0  0  0  0  0  0  0  0  0  0  0  0
  139.7950   67.9240  226.7550 C   0  0  0  0  0  0  0  0  0  0  0  0
  139.3250   68.3970  225.5380 C   0  0  0  0  0  0  0  0  0  0  0  0
  139.7360   69.6110  225.0540 C   0  0  0  0  0  0  0  0  0  0  0  0
  139.2450   70.0110  223.8690 N   0  0  0  0  0  0  0  0  0  0  0  0
  138.5350   73.5260  222.7070 H   0  0  0  0  0  0  0  0  0  0  0  0
  137.4862   72.4879  220.0890 H   0  0  0  0  0  0  0  0  0  0  0  0
  137.1607   74.0971  220.8275 H   0  0  0  0  0  0  0  0  0  0  0  0
  139.9168   76.3626  218.6606 H   0  0  0  0  0  0  0  0  0  0  0  0
  138.4472   76.4788  219.7843 H   0  0  0  0  0  0  0  0  0  0  0  0
  140.6580   78.1060  219.6677 H   0  0  0  0  0  0  0  0  0  0  0  0
  139.2832   77.9956  220.8979 H   0  0  0  0  0  0  0  0  0  0  0  0
  142.0947   77.1171  221.0620 H   0  0  0  0  0  0  0  0  0  0  0  0
  140.9587   77.9433  222.2576 H   0  0  0  0  0  0  0  0  0  0  0  0
  141.6512   75.7029  222.9277 H   0  0  0  0  0  0  0  0  0  0  0  0
  139.8759   75.9301  222.7206 H   0  0  0  0  0  0  0  0  0  0  0  0
  140.5323   73.8124  221.7350 H   0  0  0  0  0  0  0  0  0  0  0  0
  142.1368   72.3633  221.4470 H   0  0  0  0  0  0  0  0  0  0  0  0
  144.3215   71.7690  220.5152 H   0  0  0  0  0  0  0  0  0  0  0  0
  146.5740   74.1270  218.8750 H   0  0  0  0  0  0  0  0  0  0  0  0
  144.6540   75.6617  218.7789 H   0  0  0  0  0  0  0  0  0  0  0  0
  142.4714   76.2586  219.7137 H   0  0  0  0  0  0  0  0  0  0  0  0
  140.7657   72.9988  223.5123 H   0  0  0  0  0  0  0  0  0  0  0  0
  141.6949   72.2796  225.7138 H   0  0  0  0  0  0  0  0  0  0  0  0
  141.8052   70.5774  227.5184 H   0  0  0  0  0  0  0  0  0  0  0  0
  139.4749   66.9516  227.1574 H   0  0  0  0  0  0  0  0  0  0  0  0
  138.6151   67.7910  224.9559 H   0  0  0  0  0  0  0  0  0  0  0  0
  1  2  2  0
  2  3  1  0
  3  4  1  0
  4  5  1  0
  5  6  2  0
  5  7  1  0
  7  8  1  0
  8  9  1  0
  9 10  1  0
 10 11  1  0
 11 12  1  0
 12 13  1  0
 13 14  2  0
 14 15  1  0
 15 16  2  0
 16 17  1  0
 16 18  1  0
 18 19  2  0
  2 20  1  0
 20 21  2  0
 21 22  1  0
 22 23  2  0
 23 24  1  0
 24 25  2  0
 25 26  1  0
 25 27  1  0
 27 28  2  0
 28 29  1  0
 29 30  2  0
 12  7  1  0
 19 13  1  0
 30 20  1  0
 29 23  1  0
  3 31  1  0
  4 32  1  0
  4 33  1  0
  8 34  1  0
  8 35  1  0
  9 36  1  0
  9 37  1  0
 10 38  1  0
 10 39  1  0
 11 40  1  0
 11 41  1  0
 12 42  1  1
 14 43  1  0
 15 44  1  0
 17 45  1  0
 18 46  1  0
 19 47  1  0
 21 48  1  0
 22 49  1  0
 24 50  1  0
 27 51  1  0
 28 52  1  0
M  END
>  <smiles>  (45) 
O=C(NCC(=O)N1CCCCC1c1ccc(O)cc1)c1ccc2cc(Cl)ccc2n1

>  <score_type>  (45) 
oracle

>  <origin>  (45) 
autodockgpu

>  <m_score__min__energy>  (45) 
-9.3000000000000007

>  <m_primary>  (45) 
energy

>  <rmsd>  (45) 
3.100767068527064

>  <m_score__min__rmsd>  (45) 
3.100767068527064

>  <meeko>  (45) 
{"free_energy": -7.89, "intermolecular_energy": -9.68, "internal_energy": -1.72, "cluster_size": 5, "cluster_id": 3, "rank_in_cluster": 4}

>  <energy>  (45) 
-7.6

>  <cluster_rmsd>  (45) 
0.0

>  <cluster>  (45) 
5

$$$$

     RDKit          3D

 52 55  0  0  0  0  0  0  0  0999 V2000
  137.5000   71.8240  222.1920 O   0  0  0  0  0  0  0  0  0  0  0  0
  138.6410   71.9450  222.7310 C   0  0  0  0  0  0  0  0  0  0  0  0
  139.5100   73.0070  222.3780 N   0  0  0  0  0  0  0  0  0  0  0  0
  139.1550   73.9910  221.4050 C   0  0  0  0  0  0  0  0  0  0  0  0
  140.0350   75.2030  221.5570 C   0  0  0  0  0  0  0  0  0  0  0  0
  141.2730   74.9770  221.5270 O   0  0  0  0  0  0  0  0  0  0  0  0
  139.4820   76.5070  221.7190 N   0  0  0  0  0  0  0  0  0  0  0  0
  138.0840   76.6780  221.4990 C   0  0  0  0  0  0  0  0  0  0  0  0
  137.4840   77.9340  221.9780 C   0  0  0  0  0  0  0  0  0  0  0  0
  138.4350   78.9710  222.4740 C   0  0  0  0  0  0  0  0  0  0  0  0
  139.6870   78.4600  223.0750 C   0  0  0  0  0  0  0  0  0  0  0  0
  140.4020   77.5600  222.1000 C   0  0  2  0  0  0  0  0  0  0  0  0
  141.0360   78.2560  220.9810 C   0  0  0  0  0  0  0  0  0  0  0  0
  141.3600   77.6120  219.7810 C   0  0  0  0  0  0  0  0  0  0  0  0
  141.9540   78.2760  218.7310 C   0  0  0  0  0  0  0  0  0  0  0  0
  142.2590   79.6170  218.8120 C   0  0  0  0  0  0  0  0  0  0  0  0
  142.8570   80.3310  217.7820 O   0  0  0  0  0  0  0  0  0  0  0  0
  141.9500   80.2730  219.9830 C   0  0  0  0  0  0  0  0  0  0  0  0
  141.3550   79.6020  221.0310 C   0  0  0  0  0  0  0  0  0  0  0  0
  139.0720   70.9610  223.7450 C   0  0  0  0  0  0  0  0  0  0  0  0
  138.8850   69.6140  223.5040 C   0  0  0  0  0  0  0  0  0  0  0  0
  139.3010   68.7200  224.4750 C   0  0  0  0  0  0  0  0  0  0  0  0
  139.8810   69.1650  225.6430 C   0  0  0  0  0  0  0  0  0  0  0  0
  140.3150   68.3240  226.6460 C   0  0  0  0  0  0  0  0  0  0  0  0
  140.8920   68.8430  227.7980 C   0  0  0  0  0  0  0  0  0  0  0  0
  141.4550   67.7880  229.0940 Cl  0  0  0  0  0  0  0  0  0  0  0  0
  141.0570   70.2040  227.9890 C   0  0  0  0  0  0  0  0  0  0  0  0
  140.6160   71.0380  226.9730 C   0  0  0  0  0  0  0  0  0  0  0  0
  140.0480   70.5190  225.8390 C   0  0  0  0  0  0  0  0  0  0  0  0
  139.6410   71.3810  224.8920 N   0  0  0  0  0  0  0  0  0  0  0  0
  140.4490   73.0350  222.8770 H   0  0  0  0  0  0  0  0  0  0  0  0
  139.2845   73.5704  220.3969 H   0  0  0  0  0  0  0  0  0  0  0  0
  138.1054   74.2847  221.5534 H   0  0  0  0  0  0  0  0  0  0  0  0
  137.9082   76.6179  220.4148 H   0  0  0  0  0  0  0  0  0  0  0  0
  137.6013   75.8856  222.0898 H   0  0  0  0  0  0  0  0  0  0  0  0
  136.9136   78.3723  221.1458 H   0  0  0  0  0  0  0  0  0  0  0  0
  136.8724   77.6549  222.8486 H   0  0  0  0  0  0  0  0  0  0  0  0
  138.7064   79.6145  221.6242 H   0  0  0  0  0  0  0  0  0  0  0  0
  137.9080   79.4981  223.2830 H   0  0  0  0  0  0  0  0  0  0  0  0
  140.3390   79.3077  223.3326 H   0  0  0  0  0  0  0  0  0  0  0  0
  139.4425   77.8860  223.9809 H   0  0  0  0  0  0  0  0  0  0  0  0
  141.2767   77.1114  222.5936 H   0  0  0  0  0  0  0  0  0  0  0  0
  141.1328   76.5411  219.6734 H   0  0  0  0  0  0  0  0  0  0  0  0
  142.1897   77.7245  217.8089 H   0  0  0  0  0  0  0  0  0  0  0  0
  143.5940   79.8980  217.2050 H   0  0  0  0  0  0  0  0  0  0  0  0
  142.1803   81.3439  220.0836 H   0  0  0  0  0  0  0  0  0  0  0  0
  141.1233   80.1624  221.9488 H   0  0  0  0  0  0  0  0  0  0  0  0
  138.4205   69.2632  222.5706 H   0  0  0  0  0  0  0  0  0  0  0  0
  139.1669   67.6404  224.3123 H   0  0  0  0  0  0  0  0  0  0  0  0
  140.2036   67.2355  226.5331 H   0  0  0  0  0  0  0  0  0  0  0  0
  141.5167   70.6052  228.9043 H   0  0  0  0  0  0  0  0  0  0  0  0
  140.7232   72.1277  227.0783 H   0  0  0  0  0  0  0  0  0  0  0  0
  1  2  2  0
  2  3  1  0
  3  4  1  0
  4  5  1  0
  5  6  2  0
  5  7  1  0
  7  8  1  0
  8  9  1  0
  9 10  1  0
 10 11  1  0
 11 12  1  0
 12 13  1  0
 13 14  2  0
 14 15  1  0
 15 16  2  0
 16 17  1  0
 16 18  1  0
 18 19  2  0
  2 20  1  0
 20 21  2  0
 21 22  1  0
 22 23  2  0
 23 24  1  0
 24 25  2  0
 25 26  1  0
 25 27  1  0
 27 28  2  0
 28 29  1  0
 29 30  2  0
 12  7  1  0
 19 13  1  0
 30 20  1  0
 29 23  1  0
  3 31  1  0
  4 32  1  0
  4 33  1  0
  8 34  1  0
  8 35  1  0
  9 36  1  0
  9 37  1  0
 10 38  1  0
 10 39  1  0
 11 40  1  0
 11 41  1  0
 12 42  1  1
 14 43  1  0
 15 44  1  0
 17 45  1  0
 18 46  1  0
 19 47  1  0
 21 48  1  0
 22 49  1  0
 24 50  1  0
 27 51  1  0
 28 52  1  0
M  END
>  <smiles>  (46) 
O=C(NCC(=O)N1CCCCC1c1ccc(O)cc1)c1ccc2cc(Cl)ccc2n1

>  <score_type>  (46) 
oracle

>  <origin>  (46) 
autodockgpu

>  <m_score__min__energy>  (46) 
-9.3000000000000007

>  <m_primary>  (46) 
energy

>  <rmsd>  (46) 
2.80032451620784

>  <m_score__min__rmsd>  (46) 
2.80032451620784

>  <meeko>  (46) 
{"free_energy": -7.89, "intermolecular_energy": -9.68, "internal_energy": -1.6, "cluster_size": 19, "cluster_id": 1, "rank_in_cluster": 19}

>  <energy>  (46) 
-7.6

>  <cluster_rmsd>  (46) 
0.05

>  <cluster>  (46) 
5

$$$$

     RDKit          3D

 52 55  0  0  0  0  0  0  0  0999 V2000
  139.9420   72.7660  220.6970 O   0  0  0  0  0  0  0  0  0  0  0  0
  139.7300   73.0320  221.9180 C   0  0  0  0  0  0  0  0  0  0  0  0
  139.3930   74.3440  222.3350 N   0  0  0  0  0  0  0  0  0  0  0  0
  139.2740   75.4300  221.4150 C   0  0  0  0  0  0  0  0  0  0  0  0
  138.4890   76.5510  222.0410 C   0  0  0  0  0  0  0  0  0  0  0  0
  137.8650   76.2490  223.0920 O   0  0  0  0  0  0  0  0  0  0  0  0
  138.4690   77.8560  221.4670 N   0  0  0  0  0  0  0  0  0  0  0  0
  138.2750   77.9700  220.0590 C   0  0  0  0  0  0  0  0  0  0  0  0
  137.9370   79.3050  219.5400 C   0  0  0  0  0  0  0  0  0  0  0  0
  138.0180   80.4300  220.5160 C   0  0  0  0  0  0  0  0  0  0  0  0
  137.7360   80.0790  221.9260 C   0  0  0  0  0  0  0  0  0  0  0  0
  138.6490   78.9690  222.3780 C   0  0  2  0  0  0  0  0  0  0  0  0
  140.0390   79.3700  222.5890 C   0  0  0  0  0  0  0  0  0  0  0  0
  140.3920   80.4780  223.3670 C   0  0  0  0  0  0  0  0  0  0  0  0
  141.7040   80.8480  223.5630 C   0  0  0  0  0  0  0  0  0  0  0  0
  142.7410   80.1370  222.9990 C   0  0  0  0  0  0  0  0  0  0  0  0
  144.0780   80.4670  223.1660 O   0  0  0  0  0  0  0  0  0  0  0  0
  142.4190   79.0400  222.2290 C   0  0  0  0  0  0  0  0  0  0  0  0
  141.1020   78.6760  222.0360 C   0  0  0  0  0  0  0  0  0  0  0  0
  139.8360   71.9560  222.9240 C   0  0  0  0  0  0  0  0  0  0  0  0
  139.4280   70.6790  222.5950 C   0  0  0  0  0  0  0  0  0  0  0  0
  139.5420   69.6940  223.5610 C   0  0  0  0  0  0  0  0  0  0  0  0
  140.0470   69.9850  224.8100 C   0  0  0  0  0  0  0  0  0  0  0  0
  140.1850   69.0490  225.8130 C   0  0  0  0  0  0  0  0  0  0  0  0
  140.7020   69.4130  227.0490 C   0  0  0  0  0  0  0  0  0  0  0  0
  140.8890   68.2350  228.3470 Cl  0  0  0  0  0  0  0  0  0  0  0  0
  141.0990   70.7110  227.3270 C   0  0  0  0  0  0  0  0  0  0  0  0
  140.9550   71.6420  226.3100 C   0  0  0  0  0  0  0  0  0  0  0  0
  140.4430   71.2750  225.0930 C   0  0  0  0  0  0  0  0  0  0  0  0
  140.3290   72.2250  224.1490 N   0  0  0  0  0  0  0  0  0  0  0  0
  139.2320   74.4810  223.3780 H   0  0  0  0  0  0  0  0  0  0  0  0
  140.2775   75.7928  221.1479 H   0  0  0  0  0  0  0  0  0  0  0  0
  138.7504   75.0827  220.5121 H   0  0  0  0  0  0  0  0  0  0  0  0
  139.2053   77.6482  219.5681 H   0  0  0  0  0  0  0  0  0  0  0  0
  137.3966   77.3456  219.8388 H   0  0  0  0  0  0  0  0  0  0  0  0
  138.6266   79.5280  218.7125 H   0  0  0  0  0  0  0  0  0  0  0  0
  136.8791   79.2471  219.2441 H   0  0  0  0  0  0  0  0  0  0  0  0
  139.0352   80.8460  220.4684 H   0  0  0  0  0  0  0  0  0  0  0  0
  137.2311   81.1397  220.2209 H   0  0  0  0  0  0  0  0  0  0  0  0
  137.8975   80.9633  222.5600 H   0  0  0  0  0  0  0  0  0  0  0  0
  136.6922   79.7423  222.0104 H   0  0  0  0  0  0  0  0  0  0  0  0
  138.3636   78.6544  223.3927 H   0  0  0  0  0  0  0  0  0  0  0  0
  139.5955   81.0731  223.8376 H   0  0  0  0  0  0  0  0  0  0  0  0
  141.9287   81.7289  224.1823 H   0  0  0  0  0  0  0  0  0  0  0  0
  144.7970   80.0690  222.5440 H   0  0  0  0  0  0  0  0  0  0  0  0
  143.2207   78.4482  221.7632 H   0  0  0  0  0  0  0  0  0  0  0  0
  140.8868   77.7943  221.4145 H   0  0  0  0  0  0  0  0  0  0  0  0
  139.0251   70.4513  221.5971 H   0  0  0  0  0  0  0  0  0  0  0  0
  139.2257   68.6664  223.3289 H   0  0  0  0  0  0  0  0  0  0  0  0
  139.8834   68.0067  225.6326 H   0  0  0  0  0  0  0  0  0  0  0  0
  141.5093   70.9897  228.3088 H   0  0  0  0  0  0  0  0  0  0  0  0
  141.2549   72.6863  226.4817 H   0  0  0  0  0  0  0  0  0  0  0  0
  1  2  2  0
  2  3  1  0
  3  4  1  0
  4  5  1  0
  5  6  2  0
  5  7  1  0
  7  8  1  0
  8  9  1  0
  9 10  1  0
 10 11  1  0
 11 12  1  0
 12 13  1  0
 13 14  2  0
 14 15  1  0
 15 16  2  0
 16 17  1  0
 16 18  1  0
 18 19  2  0
  2 20  1  0
 20 21  2  0
 21 22  1  0
 22 23  2  0
 23 24  1  0
 24 25  2  0
 25 26  1  0
 25 27  1  0
 27 28  2  0
 28 29  1  0
 29 30  2  0
 12  7  1  0
 19 13  1  0
 30 20  1  0
 29 23  1  0
  3 31  1  0
  4 32  1  0
  4 33  1  0
  8 34  1  0
  8 35  1  0
  9 36  1  0
  9 37  1  0
 10 38  1  0
 10 39  1  0
 11 40  1  0
 11 41  1  0
 12 42  1  1
 14 43  1  0
 15 44  1  0
 17 45  1  0
 18 46  1  0
 19 47  1  0
 21 48  1  0
 22 49  1  0
 24 50  1  0
 27 51  1  0
 28 52  1  0
M  END
>  <smiles>  (47) 
O=C(NCC(=O)N1CCCCC1c1ccc(O)cc1)c1ccc2cc(Cl)ccc2n1

>  <score_type>  (47) 
oracle

>  <origin>  (47) 
autodockgpu

>  <m_score__min__energy>  (47) 
-9.3000000000000007

>  <m_primary>  (47) 
energy

>  <rmsd>  (47) 
3.1476632448203503

>  <m_score__min__rmsd>  (47) 
3.1476632448203503

>  <meeko>  (47) 
{"free_energy": -8.06, "intermolecular_energy": -9.85, "internal_energy": -1.97, "cluster_size": 18, "cluster_id": 2, "rank_in_cluster": 16}

>  <energy>  (47) 
-7.12

>  <cluster_rmsd>  (47) 
0.88

>  <cluster>  (47) 
5

$$$$

     RDKit          3D

 52 55  0  0  0  0  0  0  0  0999 V2000
  140.1860   72.2070  220.6580 O   0  0  0  0  0  0  0  0  0  0  0  0
  139.8600   72.5850  221.8240 C   0  0  0  0  0  0  0  0  0  0  0  0
  139.4540   73.9190  222.0760 N   0  0  0  0  0  0  0  0  0  0  0  0
  139.3890   74.9040  221.0430 C   0  0  0  0  0  0  0  0  0  0  0  0
  140.7220   75.5880  220.9010 C   0  0  0  0  0  0  0  0  0  0  0  0
  141.2350   75.9950  221.9760 O   0  0  0  0  0  0  0  0  0  0  0  0
  141.3420   75.7500  219.6270 N   0  0  0  0  0  0  0  0  0  0  0  0
  140.5500   75.5390  218.4610 C   0  0  0  0  0  0  0  0  0  0  0  0
  141.1050   76.0180  217.1840 C   0  0  0  0  0  0  0  0  0  0  0  0
  142.5150   76.5050  217.2210 C   0  0  0  0  0  0  0  0  0  0  0  0
  142.9560   77.0990  218.5020 C   0  0  0  0  0  0  0  0  0  0  0  0
  142.7430   76.1230  219.6300 C   0  0  2  0  0  0  0  0  0  0  0  0
  143.6770   74.9980  219.6470 C   0  0  0  0  0  0  0  0  0  0  0  0
  144.8040   74.9680  220.4750 C   0  0  0  0  0  0  0  0  0  0  0  0
  145.6780   73.9030  220.4870 C   0  0  0  0  0  0  0  0  0  0  0  0
  145.4800   72.8060  219.6770 C   0  0  0  0  0  0  0  0  0  0  0  0
  146.3290   71.7080  219.6520 O   0  0  0  0  0  0  0  0  0  0  0  0
  144.3760   72.8110  218.8530 C   0  0  0  0  0  0  0  0  0  0  0  0
  143.5060   73.8810  218.8460 C   0  0  0  0  0  0  0  0  0  0  0  0
  139.9040   71.6170  222.9390 C   0  0  0  0  0  0  0  0  0  0  0  0
  139.4440   70.3310  222.7380 C   0  0  0  0  0  0  0  0  0  0  0  0
  139.5010   69.4510  223.8040 C   0  0  0  0  0  0  0  0  0  0  0  0
  140.0020   69.8500  225.0250 C   0  0  0  0  0  0  0  0  0  0  0  0
  140.0840   69.0190  226.1220 C   0  0  0  0  0  0  0  0  0  0  0  0
  140.6010   69.4890  227.3220 C   0  0  0  0  0  0  0  0  0  0  0  0
  140.7170   68.4470  228.7400 Cl  0  0  0  0  0  0  0  0  0  0  0  0
  141.0510   70.7900  227.4700 C   0  0  0  0  0  0  0  0  0  0  0  0
  140.9620   71.6150  226.3580 C   0  0  0  0  0  0  0  0  0  0  0  0
  140.4510   71.1440  225.1780 C   0  0  0  0  0  0  0  0  0  0  0  0
  140.3920   71.9930  224.1380 N   0  0  0  0  0  0  0  0  0  0  0  0
  139.1970   74.1530  223.0820 H   0  0  0  0  0  0  0  0  0  0  0  0
  139.1256   74.4180  220.0920 H   0  0  0  0  0  0  0  0  0  0  0  0
  138.6251   75.6513  221.3035 H   0  0  0  0  0  0  0  0  0  0  0  0
  140.3815   74.4562  218.3650 H   0  0  0  0  0  0  0  0  0  0  0  0
  139.6398   76.1357  218.6203 H   0  0  0  0  0  0  0  0  0  0  0  0
  141.0552   75.1880  216.4638 H   0  0  0  0  0  0  0  0  0  0  0  0
  140.4980   76.8930  216.9084 H   0  0  0  0  0  0  0  0  0  0  0  0
  143.1730   75.6516  217.0001 H   0  0  0  0  0  0  0  0  0  0  0  0
  142.5713   77.3159  216.4798 H   0  0  0  0  0  0  0  0  0  0  0  0
  144.0248   77.3509  218.4366 H   0  0  0  0  0  0  0  0  0  0  0  0
  142.3669   78.0071  218.6977 H   0  0  0  0  0  0  0  0  0  0  0  0
  142.9837   76.6126  220.5852 H   0  0  0  0  0  0  0  0  0  0  0  0
  144.9990   75.8233  221.1387 H   0  0  0  0  0  0  0  0  0  0  0  0
  146.5507   73.9289  221.1561 H   0  0  0  0  0  0  0  0  0  0  0  0
  146.5440   71.1940  220.5190 H   0  0  0  0  0  0  0  0  0  0  0  0
  144.1863   71.9517  218.1931 H   0  0  0  0  0  0  0  0  0  0  0  0
  142.6363   73.8458  218.1734 H   0  0  0  0  0  0  0  0  0  0  0  0
  139.0452   70.0163  221.7623 H   0  0  0  0  0  0  0  0  0  0  0  0
  139.1418   68.4192  223.6757 H   0  0  0  0  0  0  0  0  0  0  0  0
  139.7379   67.9776  226.0462 H   0  0  0  0  0  0  0  0  0  0  0  0
  141.4600   71.1526  228.4246 H   0  0  0  0  0  0  0  0  0  0  0  0
  141.3054   72.6579  226.4249 H   0  0  0  0  0  0  0  0  0  0  0  0
  1  2  2  0
  2  3  1  0
  3  4  1  0
  4  5  1  0
  5  6  2  0
  5  7  1  0
  7  8  1  0
  8  9  1  0
  9 10  1  0
 10 11  1  0
 11 12  1  0
 12 13  1  0
 13 14  2  0
 14 15  1  0
 15 16  2  0
 16 17  1  0
 16 18  1  0
 18 19  2  0
  2 20  1  0
 20 21  2  0
 21 22  1  0
 22 23  2  0
 23 24  1  0
 24 25  2  0
 25 26  1  0
 25 27  1  0
 27 28  2  0
 28 29  1  0
 29 30  2  0
 12  7  1  0
 19 13  1  0
 30 20  1  0
 29 23  1  0
  3 31  1  0
  4 32  1  0
  4 33  1  0
  8 34  1  0
  8 35  1  0
  9 36  1  0
  9 37  1  0
 10 38  1  0
 10 39  1  0
 11 40  1  0
 11 41  1  0
 12 42  1  1
 14 43  1  0
 15 44  1  0
 17 45  1  0
 18 46  1  0
 19 47  1  0
 21 48  1  0
 22 49  1  0
 24 50  1  0
 27 51  1  0
 28 52  1  0
M  END
>  <smiles>  (48) 
O=C(NCC(=O)N1CCCCC1c1ccc(O)cc1)c1ccc2cc(Cl)ccc2n1

>  <score_type>  (48) 
oracle

>  <origin>  (48) 
autodockgpu

>  <m_score__min__energy>  (48) 
-9.3000000000000007

>  <m_primary>  (48) 
energy

>  <rmsd>  (48) 
1.6088738516009191

>  <m_score__min__rmsd>  (48) 
1.6088738516009191

>  <meeko>  (48) 
{"free_energy": -8.83, "intermolecular_energy": -10.62, "internal_energy": -1.68, "cluster_size": 5, "cluster_id": 3, "rank_in_cluster": 1}

>  <energy>  (48) 
-7.36

>  <cluster_rmsd>  (48) 
0.0

>  <cluster>  (48) 
6

$$$$

     RDKit          3D

 52 55  0  0  0  0  0  0  0  0999 V2000
  140.5930   72.9920  220.9550 O   0  0  0  0  0  0  0  0  0  0  0  0
  139.8640   73.0620  221.9900 C   0  0  0  0  0  0  0  0  0  0  0  0
  138.9930   74.1600  222.2010 N   0  0  0  0  0  0  0  0  0  0  0  0
  138.8880   75.2390  221.2710 C   0  0  0  0  0  0  0  0  0  0  0  0
  138.0750   76.3560  221.8700 C   0  0  0  0  0  0  0  0  0  0  0  0
  137.3920   76.0420  222.8800 O   0  0  0  0  0  0  0  0  0  0  0  0
  138.0970   77.6700  221.3170 N   0  0  0  0  0  0  0  0  0  0  0  0
  137.8860   77.8140  219.9150 C   0  0  0  0  0  0  0  0  0  0  0  0
  137.5920   79.1690  219.4220 C   0  0  0  0  0  0  0  0  0  0  0  0
  137.7290   80.2750  220.4140 C   0  0  0  0  0  0  0  0  0  0  0  0
  137.4550   79.9110  221.8220 C   0  0  0  0  0  0  0  0  0  0  0  0
  138.3310   78.7600  222.2430 C   0  0  2  0  0  0  0  0  0  0  0  0
  139.7380   79.1060  222.4390 C   0  0  0  0  0  0  0  0  0  0  0  0
  140.7620   78.5730  221.6470 C   0  0  0  0  0  0  0  0  0  0  0  0
  142.0850   78.9050  221.8370 C   0  0  0  0  0  0  0  0  0  0  0  0
  142.4670   79.7890  222.8230 C   0  0  0  0  0  0  0  0  0  0  0  0
  143.7850   80.1570  223.0540 O   0  0  0  0  0  0  0  0  0  0  0  0
  141.4770   80.3280  223.6160 C   0  0  0  0  0  0  0  0  0  0  0  0
  140.1550   79.9900  223.4210 C   0  0  0  0  0  0  0  0  0  0  0  0
  139.9240   71.9800  222.9930 C   0  0  0  0  0  0  0  0  0  0  0  0
  139.4960   70.7130  222.6490 C   0  0  0  0  0  0  0  0  0  0  0  0
  139.5660   69.7230  223.6130 C   0  0  0  0  0  0  0  0  0  0  0  0
  140.0480   69.9980  224.8750 C   0  0  0  0  0  0  0  0  0  0  0  0
  140.1420   69.0550  225.8760 C   0  0  0  0  0  0  0  0  0  0  0  0
  140.6380   69.4030  227.1260 C   0  0  0  0  0  0  0  0  0  0  0  0
  140.7690   68.2160  228.4230 Cl  0  0  0  0  0  0  0  0  0  0  0  0
  141.0560   70.6900  227.4190 C   0  0  0  0  0  0  0  0  0  0  0  0
  140.9550   71.6290  226.4030 C   0  0  0  0  0  0  0  0  0  0  0  0
  140.4640   71.2780  225.1730 C   0  0  0  0  0  0  0  0  0  0  0  0
  140.3930   72.2340  224.2310 N   0  0  0  0  0  0  0  0  0  0  0  0
  138.4170   74.1400  223.0950 H   0  0  0  0  0  0  0  0  0  0  0  0
  139.8946   75.6103  221.0283 H   0  0  0  0  0  0  0  0  0  0  0  0
  138.3925   74.8813  220.3564 H   0  0  0  0  0  0  0  0  0  0  0  0
  138.7955   77.4646  219.4044 H   0  0  0  0  0  0  0  0  0  0  0  0
  136.9807   77.2275  219.6994 H   0  0  0  0  0  0  0  0  0  0  0  0
  138.2782   79.3790  218.5883 H   0  0  0  0  0  0  0  0  0  0  0  0
  136.5286   79.1557  219.1409 H   0  0  0  0  0  0  0  0  0  0  0  0
  138.7600   80.6542  220.3573 H   0  0  0  0  0  0  0  0  0  0  0  0
  136.9651   81.0183  220.1421 H   0  0  0  0  0  0  0  0  0  0  0  0
  137.6593   80.7779  222.4675 H   0  0  0  0  0  0  0  0  0  0  0  0
  136.4006   79.6121  221.9162 H   0  0  0  0  0  0  0  0  0  0  0  0
  138.0476   78.4389  223.2562 H   0  0  0  0  0  0  0  0  0  0  0  0
  140.5012   77.8654  220.8462 H   0  0  0  0  0  0  0  0  0  0  0  0
  142.8520   78.4558  221.1890 H   0  0  0  0  0  0  0  0  0  0  0  0
  144.5110   79.9700  222.3470 H   0  0  0  0  0  0  0  0  0  0  0  0
  141.7450   81.0362  224.4139 H   0  0  0  0  0  0  0  0  0  0  0  0
  139.3958   80.4431  224.0754 H   0  0  0  0  0  0  0  0  0  0  0  0
  139.1118   70.4977  221.6410 H   0  0  0  0  0  0  0  0  0  0  0  0
  139.2328   68.7034  223.3694 H   0  0  0  0  0  0  0  0  0  0  0  0
  139.8222   68.0202  225.6837 H   0  0  0  0  0  0  0  0  0  0  0  0
  141.4498   70.9555  228.4112 H   0  0  0  0  0  0  0  0  0  0  0  0
  141.2724   72.6661  226.5867 H   0  0  0  0  0  0  0  0  0  0  0  0
  1  2  2  0
  2  3  1  0
  3  4  1  0
  4  5  1  0
  5  6  2  0
  5  7  1  0
  7  8  1  0
  8  9  1  0
  9 10  1  0
 10 11  1  0
 11 12  1  0
 12 13  1  0
 13 14  2  0
 14 15  1  0
 15 16  2  0
 16 17  1  0
 16 18  1  0
 18 19  2  0
  2 20  1  0
 20 21  2  0
 21 22  1  0
 22 23  2  0
 23 24  1  0
 24 25  2  0
 25 26  1  0
 25 27  1  0
 27 28  2  0
 28 29  1  0
 29 30  2  0
 12  7  1  0
 19 13  1  0
 30 20  1  0
 29 23  1  0
  3 31  1  0
  4 32  1  0
  4 33  1  0
  8 34  1  0
  8 35  1  0
  9 36  1  0
  9 37  1  0
 10 38  1  0
 10 39  1  0
 11 40  1  0
 11 41  1  0
 12 42  1  1
 14 43  1  0
 15 44  1  0
 17 45  1  0
 18 46  1  0
 19 47  1  0
 21 48  1  0
 22 49  1  0
 24 50  1  0
 27 51  1  0
 28 52  1  0
M  END
>  <smiles>  (49) 
O=C(NCC(=O)N1CCCCC1c1ccc(O)cc1)c1ccc2cc(Cl)ccc2n1

>  <score_type>  (49) 
oracle

>  <origin>  (49) 
autodockgpu

>  <m_score__min__energy>  (49) 
-9.3000000000000007

>  <m_primary>  (49) 
energy

>  <rmsd>  (49) 
3.1279861111380423

>  <m_score__min__rmsd>  (49) 
3.1279861111380423

>  <meeko>  (49) 
{"free_energy": -8.09, "intermolecular_energy": -9.88, "internal_energy": -1.9, "cluster_size": 18, "cluster_id": 2, "rank_in_cluster": 14}

>  <energy>  (49) 
-7.34

>  <cluster_rmsd>  (49) 
0.11

>  <cluster>  (49) 
6

$$$$

     RDKit          3D

 52 55  0  0  0  0  0  0  0  0999 V2000
  138.4790   72.4910  221.2050 O   0  0  0  0  0  0  0  0  0  0  0  0
  139.4380   72.5740  222.0310 C   0  0  0  0  0  0  0  0  0  0  0  0
  140.3940   73.6160  221.9420 N   0  0  0  0  0  0  0  0  0  0  0  0
  140.3350   74.6210  220.9300 C   0  0  0  0  0  0  0  0  0  0  0  0
  141.7060   75.2010  220.7010 C   0  0  0  0  0  0  0  0  0  0  0  0
  142.6560   74.5540  221.2140 O   0  0  0  0  0  0  0  0  0  0  0  0
  141.8900   76.3990  219.9500 N   0  0  0  0  0  0  0  0  0  0  0  0
  142.9520   76.4410  218.9990 C   0  0  0  0  0  0  0  0  0  0  0  0
  142.9260   77.5410  218.0210 C   0  0  0  0  0  0  0  0  0  0  0  0
  141.8980   78.5980  218.2470 C   0  0  0  0  0  0  0  0  0  0  0  0
  140.6510   78.1510  218.9080 C   0  0  0  0  0  0  0  0  0  0  0  0
  140.9690   77.4840  220.2210 C   0  0  2  0  0  0  0  0  0  0  0  0
  141.3920   78.3970  221.2820 C   0  0  0  0  0  0  0  0  0  0  0  0
  141.8090   79.7080  221.0250 C   0  0  0  0  0  0  0  0  0  0  0  0
  142.2040   80.5620  222.0300 C   0  0  0  0  0  0  0  0  0  0  0  0
  142.2050   80.1640  223.3490 C   0  0  0  0  0  0  0  0  0  0  0  0
  142.5920   80.9860  224.3980 O   0  0  0  0  0  0  0  0  0  0  0  0
  141.7970   78.8780  223.6290 C   0  0  0  0  0  0  0  0  0  0  0  0
  141.4040   78.0280  222.6170 C   0  0  0  0  0  0  0  0  0  0  0  0
  139.5590   71.5660  223.1040 C   0  0  0  0  0  0  0  0  0  0  0  0
  139.0470   70.3000  222.9040 C   0  0  0  0  0  0  0  0  0  0  0  0
  139.1790   69.3800  223.9300 C   0  0  0  0  0  0  0  0  0  0  0  0
  139.8010   69.7230  225.1110 C   0  0  0  0  0  0  0  0  0  0  0  0
  139.9620   68.8530  226.1670 C   0  0  0  0  0  0  0  0  0  0  0  0
  140.6000   69.2670  227.3290 C   0  0  0  0  0  0  0  0  0  0  0  0
  140.8180   68.1720  228.6940 Cl  0  0  0  0  0  0  0  0  0  0  0  0
  141.0970   70.5510  227.4780 C   0  0  0  0  0  0  0  0  0  0  0  0
  140.9280   71.4160  226.4070 C   0  0  0  0  0  0  0  0  0  0  0  0
  140.2970   71.0000  225.2650 C   0  0  0  0  0  0  0  0  0  0  0  0
  140.1660   71.8870  224.2640 N   0  0  0  0  0  0  0  0  0  0  0  0
  141.1660   73.6110  222.6750 H   0  0  0  0  0  0  0  0  0  0  0  0
  139.9671   74.1749  219.9943 H   0  0  0  0  0  0  0  0  0  0  0  0
  139.6535   75.4212  221.2544 H   0  0  0  0  0  0  0  0  0  0  0  0
  143.8963   76.5155  219.5582 H   0  0  0  0  0  0  0  0  0  0  0  0
  142.8397   75.5237  218.4024 H   0  0  0  0  0  0  0  0  0  0  0  0
  143.9137   78.0250  218.0338 H   0  0  0  0  0  0  0  0  0  0  0  0
  142.6630   77.0748  217.0600 H   0  0  0  0  0  0  0  0  0  0  0  0
  142.3505   79.3808  218.8734 H   0  0  0  0  0  0  0  0  0  0  0  0
  141.5992   78.9439  217.2465 H   0  0  0  0  0  0  0  0  0  0  0  0
  140.0039   79.0217  219.0900 H   0  0  0  0  0  0  0  0  0  0  0  0
  140.1364   77.4310  218.2547 H   0  0  0  0  0  0  0  0  0  0  0  0
  140.0446   77.0721  220.6521 H   0  0  0  0  0  0  0  0  0  0  0  0
  141.8216   80.0680  219.9856 H   0  0  0  0  0  0  0  0  0  0  0  0
  142.5252   81.5826  221.7748 H   0  0  0  0  0  0  0  0  0  0  0  0
  142.6450   82.0080  224.2700 H   0  0  0  0  0  0  0  0  0  0  0  0
  141.7847   78.5258  224.6710 H   0  0  0  0  0  0  0  0  0  0  0  0
  141.0851   77.0092  222.8822 H   0  0  0  0  0  0  0  0  0  0  0  0
  138.5503   70.0308  221.9602 H   0  0  0  0  0  0  0  0  0  0  0  0
  138.7823   68.3622  223.8009 H   0  0  0  0  0  0  0  0  0  0  0  0
  139.5826   67.8234  226.0893 H   0  0  0  0  0  0  0  0  0  0  0  0
  141.6018   70.8698  228.4019 H   0  0  0  0  0  0  0  0  0  0  0  0
  141.3048   72.4472  226.4757 H   0  0  0  0  0  0  0  0  0  0  0  0
  1  2  2  0
  2  3  1  0
  3  4  1  0
  4  5  1  0
  5  6  2  0
  5  7  1  0
  7  8  1  0
  8  9  1  0
  9 10  1  0
 10 11  1  0
 11 12  1  0
 12 13  1  0
 13 14  2  0
 14 15  1  0
 15 16  2  0
 16 17  1  0
 16 18  1  0
 18 19  2  0
  2 20  1  0
 20 21  2  0
 21 22  1  0
 22 23  2  0
 23 24  1  0
 24 25  2  0
 25 26  1  0
 25 27  1  0
 27 28  2  0
 28 29  1  0
 29 30  2  0
 12  7  1  0
 19 13  1  0
 30 20  1  0
 29 23  1  0
  3 31  1  0
  4 32  1  0
  4 33  1  0
  8 34  1  0
  8 35  1  0
  9 36  1  0
  9 37  1  0
 10 38  1  0
 10 39  1  0
 11 40  1  0
 11 41  1  0
 12 42  1  1
 14 43  1  0
 15 44  1  0
 17 45  1  0
 18 46  1  0
 19 47  1  0
 21 48  1  0
 22 49  1  0
 24 50  1  0
 27 51  1  0
 28 52  1  0
M  END
>  <smiles>  (50) 
O=C(NCC(=O)N1CCCCC1c1ccc(O)cc1)c1ccc2cc(Cl)ccc2n1

>  <score_type>  (50) 
oracle

>  <origin>  (50) 
autodockgpu

>  <m_score__min__energy>  (50) 
-9.3000000000000007

>  <m_primary>  (50) 
energy

>  <rmsd>  (50) 
2.1961167607753995

>  <m_score__min__rmsd>  (50) 
2.1961167607753995

>  <meeko>  (50) 
{"free_energy": -7.96, "intermolecular_energy": -9.75, "internal_energy": -1.83, "cluster_size": 18, "cluster_id": 2, "rank_in_cluster": 17}

>  <energy>  (50) 
-7.3

>  <cluster_rmsd>  (50) 
0.27

>  <cluster>  (50) 
6

$$$$

     RDKit          3D

 52 55  0  0  0  0  0  0  0  0999 V2000
  140.3660   72.6400  220.9180 O   0  0  0  0  0  0  0  0  0  0  0  0
  139.9990   72.9150  222.1040 C   0  0  0  0  0  0  0  0  0  0  0  0
  139.5240   74.2800  222.3540 N   0  0  0  0  0  0  0  0  0  0  0  0
  139.5300   75.1360  221.2400 C   0  0  0  0  0  0  0  0  0  0  0  0
  140.6360   76.0040  220.9200 C   0  0  0  0  0  0  0  0  0  0  0  0
  141.0840   76.6490  221.9940 O   0  0  0  0  0  0  0  0  0  0  0  0
  141.3280   76.3140  219.7640 N   0  0  0  0  0  0  0  0  0  0  0  0
  141.7590   77.6060  219.2740 C   0  0  0  0  0  0  0  0  0  0  0  0
  140.7340   77.9970  218.2200 C   0  0  0  0  0  0  0  0  0  0  0  0
  140.5200   76.7980  217.3330 C   0  0  0  0  0  0  0  0  0  0  0  0
  141.6390   75.7810  217.4570 C   0  0  0  0  0  0  0  0  0  0  0  0
  141.6540   75.2000  218.8460 C   0  0  1  0  0  0  0  0  0  0  0  0
  142.8320   74.4380  219.2130 C   0  0  0  0  0  0  0  0  0  0  0  0
  143.7480   75.0440  220.0880 C   0  0  0  0  0  0  0  0  0  0  0  0
  144.9000   74.4010  220.4900 C   0  0  0  0  0  0  0  0  0  0  0  0
  145.2040   73.1290  220.0470 C   0  0  0  0  0  0  0  0  0  0  0  0
  146.3510   72.4450  220.4250 O   0  0  0  0  0  0  0  0  0  0  0  0
  144.3180   72.5150  219.1870 C   0  0  0  0  0  0  0  0  0  0  0  0
  143.1640   73.1740  218.7920 C   0  0  0  0  0  0  0  0  0  0  0  0
  140.0360   71.9530  223.1740 C   0  0  0  0  0  0  0  0  0  0  0  0
  139.5750   70.6860  222.9360 C   0  0  0  0  0  0  0  0  0  0  0  0
  139.6000   69.7440  223.9450 C   0  0  0  0  0  0  0  0  0  0  0  0
  140.0810   70.0630  225.1880 C   0  0  0  0  0  0  0  0  0  0  0  0
  140.0920   69.1030  226.1730 C   0  0  0  0  0  0  0  0  0  0  0  0
  140.5780   69.4470  227.4080 C   0  0  0  0  0  0  0  0  0  0  0  0
  140.6270   68.2820  228.7180 Cl  0  0  0  0  0  0  0  0  0  0  0  0
  141.0400   70.7240  227.6460 C   0  0  0  0  0  0  0  0  0  0  0  0
  141.0180   71.6790  226.6300 C   0  0  0  0  0  0  0  0  0  0  0  0
  140.5380   71.3470  225.3990 C   0  0  0  0  0  0  0  0  0  0  0  0
  140.5060   72.2490  224.4070 N   0  0  0  0  0  0  0  0  0  0  0  0
  139.2310   74.4270  223.3240 H   0  0  0  0  0  0  0  0  0  0  0  0
  139.3884   74.4898  220.3611 H   0  0  0  0  0  0  0  0  0  0  0  0
  138.7540   75.8640  221.5190 H   0  0  0  0  0  0  0  0  0  0  0  0
  141.7726   78.3430  220.0905 H   0  0  0  0  0  0  0  0  0  0  0  0
  142.7782   77.5695  218.8617 H   0  0  0  0  0  0  0  0  0  0  0  0
  139.7875   78.2810  218.7032 H   0  0  0  0  0  0  0  0  0  0  0  0
  141.0895   78.8563  217.6324 H   0  0  0  0  0  0  0  0  0  0  0  0
  139.5717   76.3160  217.6130 H   0  0  0  0  0  0  0  0  0  0  0  0
  140.5003   77.1503  216.2911 H   0  0  0  0  0  0  0  0  0  0  0  0
  141.4809   74.9742  216.7262 H   0  0  0  0  0  0  0  0  0  0  0  0
  142.6014   76.2769  217.2622 H   0  0  0  0  0  0  0  0  0  0  0  0
  140.8980   74.4035  218.9098 H   0  0  0  0  0  0  0  0  0  0  0  0
  143.5414   76.0575  220.4624 H   0  0  0  0  0  0  0  0  0  0  0  0
  145.5905   74.9117  221.1773 H   0  0  0  0  0  0  0  0  0  0  0  0
  146.3220   71.5250  220.8470 H   0  0  0  0  0  0  0  0  0  0  0  0
  144.5270   71.5015  218.8141 H   0  0  0  0  0  0  0  0  0  0  0  0
  142.4781   72.6568  218.1050 H   0  0  0  0  0  0  0  0  0  0  0  0
  139.1854   70.4190  221.9426 H   0  0  0  0  0  0  0  0  0  0  0  0
  139.2300   68.7268  223.7492 H   0  0  0  0  0  0  0  0  0  0  0  0
  139.7208   68.0866  225.9752 H   0  0  0  0  0  0  0  0  0  0  0  0
  141.4272   70.9904  228.6405 H   0  0  0  0  0  0  0  0  0  0  0  0
  141.3871   72.6973  226.8220 H   0  0  0  0  0  0  0  0  0  0  0  0
  1  2  2  0
  2  3  1  0
  3  4  1  0
  4  5  1  0
  5  6  2  0
  5  7  1  0
  7  8  1  0
  8  9  1  0
  9 10  1  0
 10 11  1  0
 11 12  1  0
 12 13  1  0
 13 14  2  0
 14 15  1  0
 15 16  2  0
 16 17  1  0
 16 18  1  0
 18 19  2  0
  2 20  1  0
 20 21  2  0
 21 22  1  0
 22 23  2  0
 23 24  1  0
 24 25  2  0
 25 26  1  0
 25 27  1  0
 27 28  2  0
 28 29  1  0
 29 30  2  0
 12  7  1  0
 19 13  1  0
 30 20  1  0
 29 23  1  0
  3 31  1  0
  4 32  1  0
  4 33  1  0
  8 34  1  0
  8 35  1  0
  9 36  1  0
  9 37  1  0
 10 38  1  0
 10 39  1  0
 11 40  1  0
 11 41  1  0
 12 42  1  6
 14 43  1  0
 15 44  1  0
 17 45  1  0
 18 46  1  0
 19 47  1  0
 21 48  1  0
 22 49  1  0
 24 50  1  0
 27 51  1  0
 28 52  1  0
M  END
>  <smiles>  (51) 
O=C(NCC(=O)N1CCCCC1c1ccc(O)cc1)c1ccc2cc(Cl)ccc2n1

>  <score_type>  (51) 
oracle

>  <origin>  (51) 
autodockgpu

>  <m_score__min__energy>  (51) 
-8.5800000000000001

>  <m_primary>  (51) 
energy

>  <rmsd>  (51) 
2.219629298516658

>  <m_score__min__rmsd>  (51) 
2.219629298516658

>  <meeko>  (51) 
{"free_energy": -7.98, "intermolecular_energy": -9.77, "internal_energy": -1.7, "cluster_size": 20, "cluster_id": 1, "rank_in_cluster": 18}

>  <energy>  (51) 
-8.58

>  <cluster_rmsd>  (51) 
0.0

>  <cluster>  (51) 
1

$$$$

     RDKit          3D

 52 55  0  0  0  0  0  0  0  0999 V2000
  139.2900   71.9140  220.7230 O   0  0  0  0  0  0  0  0  0  0  0  0
  139.4520   72.3290  221.9140 C   0  0  0  0  0  0  0  0  0  0  0  0
  139.4310   73.7820  222.1200 N   0  0  0  0  0  0  0  0  0  0  0  0
  139.2330   74.5540  220.9640 C   0  0  0  0  0  0  0  0  0  0  0  0
  140.0110   74.3860  219.7620 C   0  0  0  0  0  0  0  0  0  0  0  0
  139.2440   74.3810  218.6740 O   0  0  0  0  0  0  0  0  0  0  0  0
  141.3570   74.2320  219.4860 N   0  0  0  0  0  0  0  0  0  0  0  0
  142.0210   73.2000  218.7170 C   0  0  0  0  0  0  0  0  0  0  0  0
  142.5900   72.2360  219.7480 C   0  0  0  0  0  0  0  0  0  0  0  0
  143.2770   73.0610  220.8050 C   0  0  0  0  0  0  0  0  0  0  0  0
  143.5770   74.4700  220.3340 C   0  0  0  0  0  0  0  0  0  0  0  0
  142.2920   75.2130  220.0820 C   0  0  1  0  0  0  0  0  0  0  0  0
  142.4010   76.4620  219.3540 C   0  0  0  0  0  0  0  0  0  0  0  0
  141.9560   77.6280  219.9970 C   0  0  0  0  0  0  0  0  0  0  0  0
  142.0140   78.8620  219.3840 C   0  0  0  0  0  0  0  0  0  0  0  0
  142.5140   79.0040  218.1050 C   0  0  0  0  0  0  0  0  0  0  0  0
  142.5920   80.2250  217.4490 O   0  0  0  0  0  0  0  0  0  0  0  0
  142.9570   77.8720  217.4540 C   0  0  0  0  0  0  0  0  0  0  0  0
  142.8920   76.6390  218.0840 C   0  0  0  0  0  0  0  0  0  0  0  0
  139.6480   71.4420  223.0290 C   0  0  0  0  0  0  0  0  0  0  0  0
  139.2950   70.1260  222.8940 C   0  0  0  0  0  0  0  0  0  0  0  0
  139.4730   69.2530  223.9480 C   0  0  0  0  0  0  0  0  0  0  0  0
  140.0010   69.6890  225.1360 C   0  0  0  0  0  0  0  0  0  0  0  0
  140.1660   68.7960  226.1690 C   0  0  0  0  0  0  0  0  0  0  0  0
  140.6960   69.2570  227.3460 C   0  0  0  0  0  0  0  0  0  0  0  0
  140.9390   68.1830  228.7110 Cl  0  0  0  0  0  0  0  0  0  0  0  0
  141.0500   70.5830  227.4810 C   0  0  0  0  0  0  0  0  0  0  0  0
  140.8730   71.4680  226.4190 C   0  0  0  0  0  0  0  0  0  0  0  0
  140.3470   71.0200  225.2440 C   0  0  0  0  0  0  0  0  0  0  0  0
  140.1670   71.8530  224.2090 N   0  0  0  0  0  0  0  0  0  0  0  0
  139.5520   74.0440  223.1020 H   0  0  0  0  0  0  0  0  0  0  0  0
  138.1848   74.3958  220.6705 H   0  0  0  0  0  0  0  0  0  0  0  0
  139.5663   75.5458  221.3035 H   0  0  0  0  0  0  0  0  0  0  0  0
  141.3027   72.6846  218.0625 H   0  0  0  0  0  0  0  0  0  0  0  0
  142.8046   73.6137  218.0653 H   0  0  0  0  0  0  0  0  0  0  0  0
  141.7785   71.6464  220.1996 H   0  0  0  0  0  0  0  0  0  0  0  0
  143.2989   71.5385  219.2780 H   0  0  0  0  0  0  0  0  0  0  0  0
  142.6253   73.1155  221.6895 H   0  0  0  0  0  0  0  0  0  0  0  0
  144.2353   72.5747  221.0396 H   0  0  0  0  0  0  0  0  0  0  0  0
  144.1569   74.9966  221.1063 H   0  0  0  0  0  0  0  0  0  0  0  0
  144.1562   74.4230  219.4000 H   0  0  0  0  0  0  0  0  0  0  0  0
  141.9065   75.5952  221.0387 H   0  0  0  0  0  0  0  0  0  0  0  0
  141.5503   77.5554  221.0168 H   0  0  0  0  0  0  0  0  0  0  0  0
  141.6550   79.7502  219.9245 H   0  0  0  0  0  0  0  0  0  0  0  0
  143.2810   80.4160  216.7310 H   0  0  0  0  0  0  0  0  0  0  0  0
  143.3622   77.9475  216.4341 H   0  0  0  0  0  0  0  0  0  0  0  0
  143.2530   75.7553  217.5374 H   0  0  0  0  0  0  0  0  0  0  0  0
  138.8698   69.7648  221.9460 H   0  0  0  0  0  0  0  0  0  0  0  0
  139.1884   68.1966  223.8339 H   0  0  0  0  0  0  0  0  0  0  0  0
  139.8802   67.7400  226.0537 H   0  0  0  0  0  0  0  0  0  0  0  0
  141.4735   70.9434  228.4301 H   0  0  0  0  0  0  0  0  0  0  0  0
  141.1570   72.5250  226.5287 H   0  0  0  0  0  0  0  0  0  0  0  0
  1  2  2  0
  2  3  1  0
  3  4  1  0
  4  5  1  0
  5  6  2  0
  5  7  1  0
  7  8  1  0
  8  9  1  0
  9 10  1  0
 10 11  1  0
 11 12  1  0
 12 13  1  0
 13 14  2  0
 14 15  1  0
 15 16  2  0
 16 17  1  0
 16 18  1  0
 18 19  2  0
  2 20  1  0
 20 21  2  0
 21 22  1  0
 22 23  2  0
 23 24  1  0
 24 25  2  0
 25 26  1  0
 25 27  1  0
 27 28  2  0
 28 29  1  0
 29 30  2  0
 12  7  1  0
 19 13  1  0
 30 20  1  0
 29 23  1  0
  3 31  1  0
  4 32  1  0
  4 33  1  0
  8 34  1  0
  8 35  1  0
  9 36  1  0
  9 37  1  0
 10 38  1  0
 10 39  1  0
 11 40  1  0
 11 41  1  0
 12 42  1  1
 14 43  1  0
 15 44  1  0
 17 45  1  0
 18 46  1  0
 19 47  1  0
 21 48  1  0
 22 49  1  0
 24 50  1  0
 27 51  1  0
 28 52  1  0
M  END
>  <smiles>  (52) 
O=C(NCC(=O)N1CCCCC1c1ccc(O)cc1)c1ccc2cc(Cl)ccc2n1

>  <score_type>  (52) 
oracle

>  <origin>  (52) 
autodockgpu

>  <m_score__min__energy>  (52) 
-8.5800000000000001

>  <m_primary>  (52) 
energy

>  <rmsd>  (52) 
2.5441135196531306

>  <m_score__min__rmsd>  (52) 
2.5441135196531306

>  <meeko>  (52) 
{"free_energy": -7.88, "intermolecular_energy": -9.67, "internal_energy": -1.86, "cluster_size": 3, "cluster_id": 4, "rank_in_cluster": 2}

>  <energy>  (52) 
-8.52

>  <cluster_rmsd>  (52) 
0.18

>  <cluster>  (52) 
1

$$$$

     RDKit          3D

 52 55  0  0  0  0  0  0  0  0999 V2000
  138.3280   72.4680  221.1900 O   0  0  0  0  0  0  0  0  0  0  0  0
  139.4070   72.3880  221.8580 C   0  0  0  0  0  0  0  0  0  0  0  0
  140.5170   73.2470  221.4330 N   0  0  0  0  0  0  0  0  0  0  0  0
  140.2570   74.0670  220.3230 C   0  0  0  0  0  0  0  0  0  0  0  0
  140.4260   75.4980  220.3440 C   0  0  0  0  0  0  0  0  0  0  0  0
  139.2930   76.1240  220.6520 O   0  0  0  0  0  0  0  0  0  0  0  0
  141.4860   76.3580  220.1210 N   0  0  0  0  0  0  0  0  0  0  0  0
  141.8460   77.5690  220.8280 C   0  0  0  0  0  0  0  0  0  0  0  0
  141.3330   78.7080  219.9580 C   0  0  0  0  0  0  0  0  0  0  0  0
  141.7500   78.4140  218.5410 C   0  0  0  0  0  0  0  0  0  0  0  0
  142.8650   77.3890  218.4670 C   0  0  0  0  0  0  0  0  0  0  0  0
  142.3760   76.0600  218.9770 C   0  0  1  0  0  0  0  0  0  0  0  0
  143.3910   75.0590  219.2460 C   0  0  0  0  0  0  0  0  0  0  0  0
  143.7820   74.2320  218.1820 C   0  0  0  0  0  0  0  0  0  0  0  0
  144.7360   73.2480  218.3410 C   0  0  0  0  0  0  0  0  0  0  0  0
  145.3480   73.0330  219.5600 C   0  0  0  0  0  0  0  0  0  0  0  0
  146.3120   72.0560  219.7660 O   0  0  0  0  0  0  0  0  0  0  0  0
  144.9790   73.8350  220.6190 C   0  0  0  0  0  0  0  0  0  0  0  0
  144.0190   74.8200  220.4430 C   0  0  0  0  0  0  0  0  0  0  0  0
  139.5620   71.5070  222.9850 C   0  0  0  0  0  0  0  0  0  0  0  0
  139.0670   70.2330  222.8980 C   0  0  0  0  0  0  0  0  0  0  0  0
  139.2040   69.3670  223.9640 C   0  0  0  0  0  0  0  0  0  0  0  0
  139.8300   69.7690  225.1160 C   0  0  0  0  0  0  0  0  0  0  0  0
  139.9500   68.8840  226.1620 C   0  0  0  0  0  0  0  0  0  0  0  0
  140.5800   69.3100  227.3020 C   0  0  0  0  0  0  0  0  0  0  0  0
  140.7740   68.2430  228.6810 Cl  0  0  0  0  0  0  0  0  0  0  0  0
  141.0760   70.5930  227.3880 C   0  0  0  0  0  0  0  0  0  0  0  0
  140.9420   71.4710  226.3140 C   0  0  0  0  0  0  0  0  0  0  0  0
  140.3180   71.0570  225.1760 C   0  0  0  0  0  0  0  0  0  0  0  0
  140.1760   71.8850  224.1290 N   0  0  0  0  0  0  0  0  0  0  0  0
  141.3470   73.1430  222.0230 H   0  0  0  0  0  0  0  0  0  0  0  0
  140.9063   73.6977  219.5155 H   0  0  0  0  0  0  0  0  0  0  0  0
  139.1641   73.9772  220.2362 H   0  0  0  0  0  0  0  0  0  0  0  0
  141.3672   77.5943  221.8180 H   0  0  0  0  0  0  0  0  0  0  0  0
  142.9306   77.6384  220.9978 H   0  0  0  0  0  0  0  0  0  0  0  0
  140.2365   78.7665  220.0230 H   0  0  0  0  0  0  0  0  0  0  0  0
  141.7470   79.6703  220.2934 H   0  0  0  0  0  0  0  0  0  0  0  0
  140.8796   78.0294  217.9892 H   0  0  0  0  0  0  0  0  0  0  0  0
  142.1251   79.3498  218.1010 H   0  0  0  0  0  0  0  0  0  0  0  0
  143.1916   77.2806  217.4222 H   0  0  0  0  0  0  0  0  0  0  0  0
  143.7080   77.7265  219.0879 H   0  0  0  0  0  0  0  0  0  0  0  0
  141.8270   75.5482  218.1728 H   0  0  0  0  0  0  0  0  0  0  0  0
  143.3158   74.3718  217.1955 H   0  0  0  0  0  0  0  0  0  0  0  0
  145.0144   72.6226  217.4800 H   0  0  0  0  0  0  0  0  0  0  0  0
  146.3580   71.5060  220.6150 H   0  0  0  0  0  0  0  0  0  0  0  0
  145.4466   73.6934  221.6045 H   0  0  0  0  0  0  0  0  0  0  0  0
  143.7464   75.4425  221.3080 H   0  0  0  0  0  0  0  0  0  0  0  0
  138.5609   69.9003  221.9797 H   0  0  0  0  0  0  0  0  0  0  0  0
  138.8070   68.3439  223.8887 H   0  0  0  0  0  0  0  0  0  0  0  0
  139.5510   67.8618  226.0856 H   0  0  0  0  0  0  0  0  0  0  0  0
  141.5795   70.9253  228.3078 H   0  0  0  0  0  0  0  0  0  0  0  0
  141.3387   72.4945  226.3849 H   0  0  0  0  0  0  0  0  0  0  0  0
  1  2  2  0
  2  3  1  0
  3  4  1  0
  4  5  1  0
  5  6  2  0
  5  7  1  0
  7  8  1  0
  8  9  1  0
  9 10  1  0
 10 11  1  0
 11 12  1  0
 12 13  1  0
 13 14  2  0
 14 15  1  0
 15 16  2  0
 16 17  1  0
 16 18  1  0
 18 19  2  0
  2 20  1  0
 20 21  2  0
 21 22  1  0
 22 23  2  0
 23 24  1  0
 24 25  2  0
 25 26  1  0
 25 27  1  0
 27 28  2  0
 28 29  1  0
 29 30  2  0
 12  7  1  0
 19 13  1  0
 30 20  1  0
 29 23  1  0
  3 31  1  0
  4 32  1  0
  4 33  1  0
  8 34  1  0
  8 35  1  0
  9 36  1  0
  9 37  1  0
 10 38  1  0
 10 39  1  0
 11 40  1  0
 11 41  1  0
 12 42  1  6
 14 43  1  0
 15 44  1  0
 17 45  1  0
 18 46  1  0
 19 47  1  0
 21 48  1  0
 22 49  1  0
 24 50  1  0
 27 51  1  0
 28 52  1  0
M  END
>  <smiles>  (53) 
O=C(NCC(=O)N1CCCCC1c1ccc(O)cc1)c1ccc2cc(Cl)ccc2n1

>  <score_type>  (53) 
oracle

>  <origin>  (53) 
autodockgpu

>  <m_score__min__energy>  (53) 
-8.5800000000000001

>  <m_primary>  (53) 
energy

>  <rmsd>  (53) 
2.455854871093389

>  <m_score__min__rmsd>  (53) 
2.455854871093389

>  <meeko>  (53) 
{"free_energy": -8.22, "intermolecular_energy": -10.01, "internal_energy": -1.39, "cluster_size": 20, "cluster_id": 1, "rank_in_cluster": 17}

>  <energy>  (53) 
-8.52

>  <cluster_rmsd>  (53) 
1.03

>  <cluster>  (53) 
1

$$$$

     RDKit          3D

 52 55  0  0  0  0  0  0  0  0999 V2000
  139.4750   72.3690  220.6260 O   0  0  0  0  0  0  0  0  0  0  0  0
  139.5750   72.7480  221.8360 C   0  0  0  0  0  0  0  0  0  0  0  0
  139.4870   74.1910  222.0900 N   0  0  0  0  0  0  0  0  0  0  0  0
  139.3020   74.9950  220.9520 C   0  0  0  0  0  0  0  0  0  0  0  0
  140.3950   75.5700  220.2090 C   0  0  0  0  0  0  0  0  0  0  0  0
  140.8300   76.6980  220.7650 O   0  0  0  0  0  0  0  0  0  0  0  0
  141.0850   75.2200  219.0640 N   0  0  0  0  0  0  0  0  0  0  0  0
  141.2860   75.9790  217.8470 C   0  0  0  0  0  0  0  0  0  0  0  0
  140.2730   75.4250  216.8570 C   0  0  0  0  0  0  0  0  0  0  0  0
  140.3540   73.9220  216.9240 C   0  0  0  0  0  0  0  0  0  0  0  0
  141.6390   73.4400  217.5690 C   0  0  0  0  0  0  0  0  0  0  0  0
  141.6790   73.8650  219.0140 C   0  0  1  0  0  0  0  0  0  0  0  0
  142.9580   73.7410  219.6870 C   0  0  0  0  0  0  0  0  0  0  0  0
  143.2980   72.4810  220.2030 C   0  0  0  0  0  0  0  0  0  0  0  0
  144.4900   72.2660  220.8640 C   0  0  0  0  0  0  0  0  0  0  0  0
  145.4020   73.2850  221.0480 C   0  0  0  0  0  0  0  0  0  0  0  0
  146.6130   73.1150  221.7060 O   0  0  0  0  0  0  0  0  0  0  0  0
  145.0890   74.5320  220.5480 C   0  0  0  0  0  0  0  0  0  0  0  0
  143.8880   74.7320  219.8850 C   0  0  0  0  0  0  0  0  0  0  0  0
  139.7640   71.8310  222.9280 C   0  0  0  0  0  0  0  0  0  0  0  0
  139.4140   70.5190  222.7530 C   0  0  0  0  0  0  0  0  0  0  0  0
  139.5860   69.6170  223.7850 C   0  0  0  0  0  0  0  0  0  0  0  0
  140.1040   70.0220  224.9880 C   0  0  0  0  0  0  0  0  0  0  0  0
  140.2620   69.1000  225.9970 C   0  0  0  0  0  0  0  0  0  0  0  0
  140.7820   69.5300  227.1910 C   0  0  0  0  0  0  0  0  0  0  0  0
  141.0160   68.4190  228.5280 Cl  0  0  0  0  0  0  0  0  0  0  0  0
  141.1320   70.8520  227.3650 C   0  0  0  0  0  0  0  0  0  0  0  0
  140.9620   71.7660  226.3260 C   0  0  0  0  0  0  0  0  0  0  0  0
  140.4460   71.3490  225.1360 C   0  0  0  0  0  0  0  0  0  0  0  0
  140.2730   72.2110  224.1220 N   0  0  0  0  0  0  0  0  0  0  0  0
  139.5590   74.4240  223.0840 H   0  0  0  0  0  0  0  0  0  0  0  0
  138.7392   74.3795  220.2348 H   0  0  0  0  0  0  0  0  0  0  0  0
  138.8390   75.8916  221.3900 H   0  0  0  0  0  0  0  0  0  0  0  0
  141.1046   77.0491  218.0258 H   0  0  0  0  0  0  0  0  0  0  0  0
  142.3166   75.8892  217.4730 H   0  0  0  0  0  0  0  0  0  0  0  0
  139.2607   75.7595  217.1278 H   0  0  0  0  0  0  0  0  0  0  0  0
  140.4897   75.7809  215.8390 H   0  0  0  0  0  0  0  0  0  0  0  0
  139.5023   73.5482  217.5113 H   0  0  0  0  0  0  0  0  0  0  0  0
  140.3322   73.5389  215.8931 H   0  0  0  0  0  0  0  0  0  0  0  0
  141.6872   72.3426  217.5102 H   0  0  0  0  0  0  0  0  0  0  0  0
  142.4969   73.8791  217.0388 H   0  0  0  0  0  0  0  0  0  0  0  0
  141.0901   73.1543  219.6125 H   0  0  0  0  0  0  0  0  0  0  0  0
  142.5963   71.6433  220.0773 H   0  0  0  0  0  0  0  0  0  0  0  0
  144.7178   71.2622  221.2520 H   0  0  0  0  0  0  0  0  0  0  0  0
  146.8420   72.2700  222.2160 H   0  0  0  0  0  0  0  0  0  0  0  0
  145.7926   75.3679  220.6754 H   0  0  0  0  0  0  0  0  0  0  0  0
  143.6683   75.7376  219.4970 H   0  0  0  0  0  0  0  0  0  0  0  0
  138.9965   70.1837  221.7921 H   0  0  0  0  0  0  0  0  0  0  0  0
  139.3046   68.5635  223.6402 H   0  0  0  0  0  0  0  0  0  0  0  0
  139.9791   68.0472  225.8501 H   0  0  0  0  0  0  0  0  0  0  0  0
  141.5469   71.1870  228.3271 H   0  0  0  0  0  0  0  0  0  0  0  0
  141.2435   72.8200  226.4665 H   0  0  0  0  0  0  0  0  0  0  0  0
  1  2  2  0
  2  3  1  0
  3  4  1  0
  4  5  1  0
  5  6  2  0
  5  7  1  0
  7  8  1  0
  8  9  1  0
  9 10  1  0
 10 11  1  0
 11 12  1  0
 12 13  1  0
 13 14  2  0
 14 15  1  0
 15 16  2  0
 16 17  1  0
 16 18  1  0
 18 19  2  0
  2 20  1  0
 20 21  2  0
 21 22  1  0
 22 23  2  0
 23 24  1  0
 24 25  2  0
 25 26  1  0
 25 27  1  0
 27 28  2  0
 28 29  1  0
 29 30  2  0
 12  7  1  0
 19 13  1  0
 30 20  1  0
 29 23  1  0
  3 31  1  0
  4 32  1  0
  4 33  1  0
  8 34  1  0
  8 35  1  0
  9 36  1  0
  9 37  1  0
 10 38  1  0
 10 39  1  0
 11 40  1  0
 11 41  1  0
 12 42  1  1
 14 43  1  0
 15 44  1  0
 17 45  1  0
 18 46  1  0
 19 47  1  0
 21 48  1  0
 22 49  1  0
 24 50  1  0
 27 51  1  0
 28 52  1  0
M  END
>  <smiles>  (54) 
O=C(NCC(=O)N1CCCCC1c1ccc(O)cc1)c1ccc2cc(Cl)ccc2n1

>  <score_type>  (54) 
oracle

>  <origin>  (54) 
autodockgpu

>  <m_score__min__energy>  (54) 
-8.5800000000000001

>  <m_primary>  (54) 
energy

>  <rmsd>  (54) 
2.2522120176212304

>  <m_score__min__rmsd>  (54) 
2.2522120176212304

>  <meeko>  (54) 
{"free_energy": -7.31, "intermolecular_energy": -9.1, "internal_energy": -2.0, "cluster_size": 20, "cluster_id": 1, "rank_in_cluster": 20}

>  <energy>  (54) 
-8.51

>  <cluster_rmsd>  (54) 
0.4

>  <cluster>  (54) 
1

$$$$

     RDKit          3D

 52 55  0  0  0  0  0  0  0  0999 V2000
  140.2550   77.8470  218.5760 O   0  0  0  0  0  0  0  0  0  0  0  0
  141.4580   77.6560  218.9420 C   0  0  0  0  0  0  0  0  0  0  0  0
  142.1920   78.8210  219.4480 N   0  0  0  0  0  0  0  0  0  0  0  0
  141.4720   80.0280  219.4680 C   0  0  0  0  0  0  0  0  0  0  0  0
  140.8640   80.5620  220.6600 C   0  0  0  0  0  0  0  0  0  0  0  0
  140.0410   81.5710  220.3850 O   0  0  0  0  0  0  0  0  0  0  0  0
  140.9390   80.2670  222.0090 N   0  0  0  0  0  0  0  0  0  0  0  0
  140.5930   81.0920  223.1470 C   0  0  0  0  0  0  0  0  0  0  0  0
  141.9150   81.6420  223.6600 C   0  0  0  0  0  0  0  0  0  0  0  0
  142.8850   80.4920  223.7290 C   0  0  0  0  0  0  0  0  0  0  0  0
  142.1880   79.1450  223.7080 C   0  0  0  0  0  0  0  0  0  0  0  0
  141.4920   78.9470  222.3870 C   0  0  1  0  0  0  0  0  0  0  0  0
  140.5440   77.8520  222.3160 C   0  0  0  0  0  0  0  0  0  0  0  0
  141.0550   76.5690  222.0650 C   0  0  0  0  0  0  0  0  0  0  0  0
  140.2320   75.4660  221.9740 C   0  0  0  0  0  0  0  0  0  0  0  0
  138.8640   75.5770  222.1250 C   0  0  0  0  0  0  0  0  0  0  0  0
  137.9980   74.4950  222.0420 O   0  0  0  0  0  0  0  0  0  0  0  0
  138.3400   76.8280  222.3730 C   0  0  0  0  0  0  0  0  0  0  0  0
  139.1810   77.9270  222.4620 C   0  0  0  0  0  0  0  0  0  0  0  0
  142.0970   76.3690  218.8770 C   0  0  0  0  0  0  0  0  0  0  0  0
  141.6220   75.4420  217.9890 C   0  0  0  0  0  0  0  0  0  0  0  0
  142.2180   74.1990  217.9060 C   0  0  0  0  0  0  0  0  0  0  0  0
  143.2840   73.8800  218.7070 C   0  0  0  0  0  0  0  0  0  0  0  0
  143.8560   72.6330  218.6020 C   0  0  0  0  0  0  0  0  0  0  0  0
  144.9210   72.3390  219.4140 C   0  0  0  0  0  0  0  0  0  0  0  0
  145.7070   70.7730  219.3420 Cl  0  0  0  0  0  0  0  0  0  0  0  0
  145.3970   73.2730  220.3090 C   0  0  0  0  0  0  0  0  0  0  0  0
  144.7990   74.5300  220.3960 C   0  0  0  0  0  0  0  0  0  0  0  0
  143.7410   74.8330  219.5930 C   0  0  0  0  0  0  0  0  0  0  0  0
  143.1500   76.0350  219.6590 N   0  0  0  0  0  0  0  0  0  0  0  0
  143.1470   78.5930  219.7380 H   0  0  0  0  0  0  0  0  0  0  0  0
  142.1680   80.8014  219.1109 H   0  0  0  0  0  0  0  0  0  0  0  0
  140.5870   79.7648  218.8700 H   0  0  0  0  0  0  0  0  0  0  0  0
  139.9274   81.9123  222.8402 H   0  0  0  0  0  0  0  0  0  0  0  0
  140.0584   80.5210  223.9204 H   0  0  0  0  0  0  0  0  0  0  0  0
  142.2938   82.4126  222.9724 H   0  0  0  0  0  0  0  0  0  0  0  0
  141.7861   82.1013  224.6512 H   0  0  0  0  0  0  0  0  0  0  0  0
  143.5650   80.5513  222.8664 H   0  0  0  0  0  0  0  0  0  0  0  0
  143.4320   80.5715  224.6800 H   0  0  0  0  0  0  0  0  0  0  0  0
  142.9319   78.3474  223.8512 H   0  0  0  0  0  0  0  0  0  0  0  0
  141.4440   79.1102  224.5175 H   0  0  0  0  0  0  0  0  0  0  0  0
  142.2251   78.5993  221.6442 H   0  0  0  0  0  0  0  0  0  0  0  0
  142.1399   76.4399  221.9376 H   0  0  0  0  0  0  0  0  0  0  0  0
  140.6742   74.4782  221.7772 H   0  0  0  0  0  0  0  0  0  0  0  0
  137.7990   73.8940  222.8330 H   0  0  0  0  0  0  0  0  0  0  0  0
  137.2547   76.9543  222.5003 H   0  0  0  0  0  0  0  0  0  0  0  0
  138.7320   78.9115  222.6602 H   0  0  0  0  0  0  0  0  0  0  0  0
  140.7666   75.6868  217.3422 H   0  0  0  0  0  0  0  0  0  0  0  0
  141.8337   73.4575  217.1901 H   0  0  0  0  0  0  0  0  0  0  0  0
  143.4695   71.8924  217.8864 H   0  0  0  0  0  0  0  0  0  0  0  0
  146.2512   73.0262  220.9567 H   0  0  0  0  0  0  0  0  0  0  0  0
  145.1803   75.2743  221.1106 H   0  0  0  0  0  0  0  0  0  0  0  0
  1  2  2  0
  2  3  1  0
  3  4  1  0
  4  5  1  0
  5  6  2  0
  5  7  1  0
  7  8  1  0
  8  9  1  0
  9 10  1  0
 10 11  1  0
 11 12  1  0
 12 13  1  0
 13 14  2  0
 14 15  1  0
 15 16  2  0
 16 17  1  0
 16 18  1  0
 18 19  2  0
  2 20  1  0
 20 21  2  0
 21 22  1  0
 22 23  2  0
 23 24  1  0
 24 25  2  0
 25 26  1  0
 25 27  1  0
 27 28  2  0
 28 29  1  0
 29 30  2  0
 12  7  1  0
 19 13  1  0
 30 20  1  0
 29 23  1  0
  3 31  1  0
  4 32  1  0
  4 33  1  0
  8 34  1  0
  8 35  1  0
  9 36  1  0
  9 37  1  0
 10 38  1  0
 10 39  1  0
 11 40  1  0
 11 41  1  0
 12 42  1  6
 14 43  1  0
 15 44  1  0
 17 45  1  0
 18 46  1  0
 19 47  1  0
 21 48  1  0
 22 49  1  0
 24 50  1  0
 27 51  1  0
 28 52  1  0
M  END
>  <smiles>  (55) 
O=C(NCC(=O)N1CCCCC1c1ccc(O)cc1)c1ccc2cc(Cl)ccc2n1

>  <score_type>  (55) 
oracle

>  <origin>  (55) 
autodockgpu

>  <m_score__min__energy>  (55) 
-8.5800000000000001

>  <m_primary>  (55) 
energy

>  <rmsd>  (55) 
7.870578772549142

>  <m_score__min__rmsd>  (55) 
7.870578772549142

>  <meeko>  (55) 
{"free_energy": -7.23, "intermolecular_energy": -9.02, "internal_energy": -2.43, "cluster_size": 15, "cluster_id": 6, "rank_in_cluster": 12}

>  <energy>  (55) 
-8.47

>  <cluster_rmsd>  (55) 
0.38

>  <cluster>  (55) 
1

$$$$

     RDKit          3D

 52 55  0  0  0  0  0  0  0  0999 V2000
  140.3230   77.7660  219.0220 O   0  0  0  0  0  0  0  0  0  0  0  0
  141.5880   77.6350  219.0580 C   0  0  0  0  0  0  0  0  0  0  0  0
  142.3780   78.8600  219.2190 N   0  0  0  0  0  0  0  0  0  0  0  0
  141.6380   80.0500  219.3160 C   0  0  0  0  0  0  0  0  0  0  0  0
  140.8220   80.3800  220.4570 C   0  0  0  0  0  0  0  0  0  0  0  0
  139.7410   81.0720  220.1080 O   0  0  0  0  0  0  0  0  0  0  0  0
  140.9070   80.1420  221.8170 N   0  0  0  0  0  0  0  0  0  0  0  0
  140.5610   81.0120  222.9210 C   0  0  0  0  0  0  0  0  0  0  0  0
  141.8830   81.5940  223.4030 C   0  0  0  0  0  0  0  0  0  0  0  0
  142.8620   80.4540  223.5140 C   0  0  0  0  0  0  0  0  0  0  0  0
  142.1740   79.1030  223.5550 C   0  0  0  0  0  0  0  0  0  0  0  0
  141.4720   78.8440  222.2480 C   0  0  1  0  0  0  0  0  0  0  0  0
  140.5320   77.7400  222.2280 C   0  0  0  0  0  0  0  0  0  0  0  0
  141.0490   76.4530  222.0110 C   0  0  0  0  0  0  0  0  0  0  0  0
  140.2330   75.3420  221.9700 C   0  0  0  0  0  0  0  0  0  0  0  0
  138.8680   75.4470  222.1400 C   0  0  0  0  0  0  0  0  0  0  0  0
  138.0090   74.3570  222.1070 O   0  0  0  0  0  0  0  0  0  0  0  0
  138.3380   76.7020  222.3560 C   0  0  0  0  0  0  0  0  0  0  0  0
  139.1710   77.8100  222.3950 C   0  0  0  0  0  0  0  0  0  0  0  0
  142.2420   76.3590  218.9490 C   0  0  0  0  0  0  0  0  0  0  0  0
  141.8100   75.4760  217.9960 C   0  0  0  0  0  0  0  0  0  0  0  0
  142.4220   74.2440  217.8710 C   0  0  0  0  0  0  0  0  0  0  0  0
  143.4610   73.8920  218.6930 C   0  0  0  0  0  0  0  0  0  0  0  0
  144.0490   72.6580  218.5440 C   0  0  0  0  0  0  0  0  0  0  0  0
  145.0870   72.3300  219.3780 C   0  0  0  0  0  0  0  0  0  0  0  0
  145.8920   70.7770  219.2530 Cl  0  0  0  0  0  0  0  0  0  0  0  0
  145.5200   73.2200  220.3370 C   0  0  0  0  0  0  0  0  0  0  0  0
  144.9070   74.4650  220.4670 C   0  0  0  0  0  0  0  0  0  0  0  0
  143.8750   74.8010  219.6430 C   0  0  0  0  0  0  0  0  0  0  0  0
  143.2690   75.9930  219.7510 N   0  0  0  0  0  0  0  0  0  0  0  0
  143.3850   78.6800  219.2560 H   0  0  0  0  0  0  0  0  0  0  0  0
  142.3670   80.8680  219.2190 H   0  0  0  0  0  0  0  0  0  0  0  0
  140.8747   79.8963  218.5389 H   0  0  0  0  0  0  0  0  0  0  0  0
  139.8873   81.8134  222.5836 H   0  0  0  0  0  0  0  0  0  0  0  0
  140.0352   80.4703  223.7211 H   0  0  0  0  0  0  0  0  0  0  0  0
  142.2519   82.3378  222.6814 H   0  0  0  0  0  0  0  0  0  0  0  0
  141.7566   82.0941  224.3746 H   0  0  0  0  0  0  0  0  0  0  0  0
  143.5358   80.4811  222.6449 H   0  0  0  0  0  0  0  0  0  0  0  0
  143.4151   80.5775  224.4568 H   0  0  0  0  0  0  0  0  0  0  0  0
  142.9240   78.3171  223.7279 H   0  0  0  0  0  0  0  0  0  0  0  0
  141.4348   79.0982  224.3696 H   0  0  0  0  0  0  0  0  0  0  0  0
  142.2043   78.4703  221.5172 H   0  0  0  0  0  0  0  0  0  0  0  0
  142.1327   76.3275  221.8701 H   0  0  0  0  0  0  0  0  0  0  0  0
  140.6798   74.3516  221.7982 H   0  0  0  0  0  0  0  0  0  0  0  0
  137.8320   73.7780  222.9190 H   0  0  0  0  0  0  0  0  0  0  0  0
  137.2540   76.8240  222.4974 H   0  0  0  0  0  0  0  0  0  0  0  0
  138.7175   78.7970  222.5689 H   0  0  0  0  0  0  0  0  0  0  0  0
  140.9769   75.7472  217.3309 H   0  0  0  0  0  0  0  0  0  0  0  0
  142.0719   73.5379  217.1037 H   0  0  0  0  0  0  0  0  0  0  0  0
  143.6964   71.9531  217.7767 H   0  0  0  0  0  0  0  0  0  0  0  0
  146.3524   72.9468  221.0022 H   0  0  0  0  0  0  0  0  0  0  0  0
  145.2552   75.1742  221.2324 H   0  0  0  0  0  0  0  0  0  0  0  0
  1  2  2  0
  2  3  1  0
  3  4  1  0
  4  5  1  0
  5  6  2  0
  5  7  1  0
  7  8  1  0
  8  9  1  0
  9 10  1  0
 10 11  1  0
 11 12  1  0
 12 13  1  0
 13 14  2  0
 14 15  1  0
 15 16  2  0
 16 17  1  0
 16 18  1  0
 18 19  2  0
  2 20  1  0
 20 21  2  0
 21 22  1  0
 22 23  2  0
 23 24  1  0
 24 25  2  0
 25 26  1  0
 25 27  1  0
 27 28  2  0
 28 29  1  0
 29 30  2  0
 12  7  1  0
 19 13  1  0
 30 20  1  0
 29 23  1  0
  3 31  1  0
  4 32  1  0
  4 33  1  0
  8 34  1  0
  8 35  1  0
  9 36  1  0
  9 37  1  0
 10 38  1  0
 10 39  1  0
 11 40  1  0
 11 41  1  0
 12 42  1  6
 14 43  1  0
 15 44  1  0
 17 45  1  0
 18 46  1  0
 19 47  1  0
 21 48  1  0
 22 49  1  0
 24 50  1  0
 27 51  1  0
 28 52  1  0
M  END
>  <smiles>  (56) 
O=C(NCC(=O)N1CCCCC1c1ccc(O)cc1)c1ccc2cc(Cl)ccc2n1

>  <score_type>  (56) 
oracle

>  <origin>  (56) 
autodockgpu

>  <m_score__min__energy>  (56) 
-8.5800000000000001

>  <m_primary>  (56) 
energy

>  <rmsd>  (56) 
7.864070022638862

>  <m_score__min__rmsd>  (56) 
7.864070022638862

>  <meeko>  (56) 
{"free_energy": -7.22, "intermolecular_energy": -9.01, "internal_energy": -2.36, "cluster_size": 15, "cluster_id": 6, "rank_in_cluster": 13}

>  <energy>  (56) 
-8.43

>  <cluster_rmsd>  (56) 
0.47

>  <cluster>  (56) 
1

$$$$

     RDKit          3D

 52 55  0  0  0  0  0  0  0  0999 V2000
  142.9580   79.1620  218.5600 O   0  0  0  0  0  0  0  0  0  0  0  0
  142.2990   78.1010  218.7980 C   0  0  0  0  0  0  0  0  0  0  0  0
  140.9120   78.2660  219.2470 N   0  0  0  0  0  0  0  0  0  0  0  0
  140.4680   79.5930  219.3640 C   0  0  0  0  0  0  0  0  0  0  0  0
  140.6760   80.3910  220.5460 C   0  0  0  0  0  0  0  0  0  0  0  0
  140.7170   81.6910  220.2630 O   0  0  0  0  0  0  0  0  0  0  0  0
  140.8400   80.1170  221.8910 N   0  0  0  0  0  0  0  0  0  0  0  0
  140.4840   80.9230  223.0400 C   0  0  0  0  0  0  0  0  0  0  0  0
  141.7810   81.5820  223.4850 C   0  0  0  0  0  0  0  0  0  0  0  0
  142.8420   80.5120  223.5130 C   0  0  0  0  0  0  0  0  0  0  0  0
  142.2540   79.1150  223.5350 C   0  0  0  0  0  0  0  0  0  0  0  0
  141.5140   78.8490  222.2510 C   0  0  1  0  0  0  0  0  0  0  0  0
  140.6540   77.6810  222.2320 C   0  0  0  0  0  0  0  0  0  0  0  0
  139.3140   77.8570  222.6120 C   0  0  0  0  0  0  0  0  0  0  0  0
  138.4220   76.8060  222.6310 C   0  0  0  0  0  0  0  0  0  0  0  0
  138.8100   75.5290  222.2780 C   0  0  0  0  0  0  0  0  0  0  0  0
  137.9470   74.4410  222.2830 O   0  0  0  0  0  0  0  0  0  0  0  0
  140.1220   75.3330  221.9020 C   0  0  0  0  0  0  0  0  0  0  0  0
  141.0070   76.4000  221.8870 C   0  0  0  0  0  0  0  0  0  0  0  0
  142.8590   76.7850  218.6420 C   0  0  0  0  0  0  0  0  0  0  0  0
  142.9140   76.2360  217.3890 C   0  0  0  0  0  0  0  0  0  0  0  0
  143.4470   74.9750  217.2120 C   0  0  0  0  0  0  0  0  0  0  0  0
  143.9240   74.2610  218.2810 C   0  0  0  0  0  0  0  0  0  0  0  0
  144.4480   73.0070  218.0730 C   0  0  0  0  0  0  0  0  0  0  0  0
  144.9190   72.3130  219.1590 C   0  0  0  0  0  0  0  0  0  0  0  0
  145.6030   70.7090  218.9790 Cl  0  0  0  0  0  0  0  0  0  0  0  0
  144.8620   72.8670  220.4190 C   0  0  0  0  0  0  0  0  0  0  0  0
  144.3260   74.1400  220.6030 C   0  0  0  0  0  0  0  0  0  0  0  0
  143.8560   74.8380  219.5310 C   0  0  0  0  0  0  0  0  0  0  0  0
  143.3350   76.0650  219.6840 N   0  0  0  0  0  0  0  0  0  0  0  0
  140.4380   77.3720  219.4040 H   0  0  0  0  0  0  0  0  0  0  0  0
  140.9425   80.1447  218.5391 H   0  0  0  0  0  0  0  0  0  0  0  0
  139.3764   79.4581  219.3801 H   0  0  0  0  0  0  0  0  0  0  0  0
  139.7407   81.6845  222.7612 H   0  0  0  0  0  0  0  0  0  0  0  0
  140.0348   80.3186  223.8418 H   0  0  0  0  0  0  0  0  0  0  0  0
  142.0636   82.3736  222.7754 H   0  0  0  0  0  0  0  0  0  0  0  0
  141.6639   82.0398  224.4783 H   0  0  0  0  0  0  0  0  0  0  0  0
  143.4721   80.6159  222.6174 H   0  0  0  0  0  0  0  0  0  0  0  0
  143.4270   80.6440  224.4352 H   0  0  0  0  0  0  0  0  0  0  0  0
  143.0646   78.3800  223.6475 H   0  0  0  0  0  0  0  0  0  0  0  0
  141.5546   79.0302  224.3798 H   0  0  0  0  0  0  0  0  0  0  0  0
  142.2368   78.5530  221.4765 H   0  0  0  0  0  0  0  0  0  0  0  0
  138.9667   78.8596  222.9021 H   0  0  0  0  0  0  0  0  0  0  0  0
  137.3803   76.9886  222.9335 H   0  0  0  0  0  0  0  0  0  0  0  0
  137.8470   73.8290  223.0840 H   0  0  0  0  0  0  0  0  0  0  0  0
  140.4668   74.3290  221.6136 H   0  0  0  0  0  0  0  0  0  0  0  0
  142.0469   76.2102  221.5826 H   0  0  0  0  0  0  0  0  0  0  0  0
  142.5338   76.7993  216.5241 H   0  0  0  0  0  0  0  0  0  0  0  0
  143.4895   74.5386  216.2032 H   0  0  0  0  0  0  0  0  0  0  0  0
  144.4885   72.5719  217.0635 H   0  0  0  0  0  0  0  0  0  0  0  0
  145.2411   72.3021  221.2834 H   0  0  0  0  0  0  0  0  0  0  0  0
  144.2824   74.5801  221.6102 H   0  0  0  0  0  0  0  0  0  0  0  0
  1  2  2  0
  2  3  1  0
  3  4  1  0
  4  5  1  0
  5  6  2  0
  5  7  1  0
  7  8  1  0
  8  9  1  0
  9 10  1  0
 10 11  1  0
 11 12  1  0
 12 13  1  0
 13 14  2  0
 14 15  1  0
 15 16  2  0
 16 17  1  0
 16 18  1  0
 18 19  2  0
  2 20  1  0
 20 21  2  0
 21 22  1  0
 22 23  2  0
 23 24  1  0
 24 25  2  0
 25 26  1  0
 25 27  1  0
 27 28  2  0
 28 29  1  0
 29 30  2  0
 12  7  1  0
 19 13  1  0
 30 20  1  0
 29 23  1  0
  3 31  1  0
  4 32  1  0
  4 33  1  0
  8 34  1  0
  8 35  1  0
  9 36  1  0
  9 37  1  0
 10 38  1  0
 10 39  1  0
 11 40  1  0
 11 41  1  0
 12 42  1  6
 14 43  1  0
 15 44  1  0
 17 45  1  0
 18 46  1  0
 19 47  1  0
 21 48  1  0
 22 49  1  0
 24 50  1  0
 27 51  1  0
 28 52  1  0
M  END
>  <smiles>  (57) 
O=C(NCC(=O)N1CCCCC1c1ccc(O)cc1)c1ccc2cc(Cl)ccc2n1

>  <score_type>  (57) 
oracle

>  <origin>  (57) 
autodockgpu

>  <m_score__min__energy>  (57) 
-8.5800000000000001

>  <m_primary>  (57) 
energy

>  <rmsd>  (57) 
8.043977314746357

>  <m_score__min__rmsd>  (57) 
8.043977314746357

>  <meeko>  (57) 
{"free_energy": -7.18, "intermolecular_energy": -8.97, "internal_energy": -2.05, "cluster_size": 15, "cluster_id": 6, "rank_in_cluster": 14}

>  <energy>  (57) 
-8.42

>  <cluster_rmsd>  (57) 
0.64

>  <cluster>  (57) 
1

$$$$

     RDKit          3D

 52 55  0  0  0  0  0  0  0  0999 V2000
  140.4450   72.4240  220.7550 O   0  0  0  0  0  0  0  0  0  0  0  0
  140.1480   72.7690  221.9420 C   0  0  0  0  0  0  0  0  0  0  0  0
  139.7990   74.1770  222.1580 N   0  0  0  0  0  0  0  0  0  0  0  0
  139.8350   74.9910  221.0130 C   0  0  0  0  0  0  0  0  0  0  0  0
  140.6890   76.1460  220.8950 C   0  0  0  0  0  0  0  0  0  0  0  0
  140.5620   76.9630  221.9380 O   0  0  0  0  0  0  0  0  0  0  0  0
  141.6000   76.5930  219.9560 N   0  0  0  0  0  0  0  0  0  0  0  0
  142.1790   77.9100  219.7960 C   0  0  0  0  0  0  0  0  0  0  0  0
  141.3900   78.5610  218.6700 C   0  0  0  0  0  0  0  0  0  0  0  0
  141.2860   77.5550  217.5540 C   0  0  0  0  0  0  0  0  0  0  0  0
  142.3090   76.4430  217.6800 C   0  0  0  0  0  0  0  0  0  0  0  0
  142.0350   75.6310  218.9180 C   0  0  1  0  0  0  0  0  0  0  0  0
  143.0840   74.7220  219.3380 C   0  0  0  0  0  0  0  0  0  0  0  0
  144.1490   75.2600  220.0780 C   0  0  0  0  0  0  0  0  0  0  0  0
  145.1960   74.4760  220.5160 C   0  0  0  0  0  0  0  0  0  0  0  0
  145.2420   73.1230  220.2440 C   0  0  0  0  0  0  0  0  0  0  0  0
  146.2750   72.2970  220.6650 O   0  0  0  0  0  0  0  0  0  0  0  0
  144.2060   72.5740  219.5190 C   0  0  0  0  0  0  0  0  0  0  0  0
  143.1610   73.3750  219.0860 C   0  0  0  0  0  0  0  0  0  0  0  0
  140.1440   71.8440  223.0440 C   0  0  0  0  0  0  0  0  0  0  0  0
  139.6460   70.5840  222.8450 C   0  0  0  0  0  0  0  0  0  0  0  0
  139.6320   69.6770  223.8860 C   0  0  0  0  0  0  0  0  0  0  0  0
  140.1100   70.0250  225.1230 C   0  0  0  0  0  0  0  0  0  0  0  0
  140.0810   69.1000  226.1410 C   0  0  0  0  0  0  0  0  0  0  0  0
  140.5660   69.4720  227.3680 C   0  0  0  0  0  0  0  0  0  0  0  0
  140.5650   68.3520  228.7180 Cl  0  0  0  0  0  0  0  0  0  0  0  0
  141.0650   70.7410  227.5670 C   0  0  0  0  0  0  0  0  0  0  0  0
  141.0830   71.6600  226.5190 C   0  0  0  0  0  0  0  0  0  0  0  0
  140.6050   71.3010  225.2950 C   0  0  0  0  0  0  0  0  0  0  0  0
  140.6110   72.1680  224.2720 N   0  0  0  0  0  0  0  0  0  0  0  0
  139.5570   74.3810  223.1310 H   0  0  0  0  0  0  0  0  0  0  0  0
  140.1063   74.3276  220.1786 H   0  0  0  0  0  0  0  0  0  0  0  0
  138.8392   75.4573  221.0444 H   0  0  0  0  0  0  0  0  0  0  0  0
  142.0768   78.4912  220.7243 H   0  0  0  0  0  0  0  0  0  0  0  0
  143.2540   77.8606  219.5683 H   0  0  0  0  0  0  0  0  0  0  0  0
  140.3853   78.8350  219.0242 H   0  0  0  0  0  0  0  0  0  0  0  0
  141.8914   79.4764  218.3227 H   0  0  0  0  0  0  0  0  0  0  0  0
  140.2792   77.1121  217.5705 H   0  0  0  0  0  0  0  0  0  0  0  0
  141.4793   78.0825  216.6083 H   0  0  0  0  0  0  0  0  0  0  0  0
  142.2496   75.7911  216.7959 H   0  0  0  0  0  0  0  0  0  0  0  0
  143.3146   76.8830  217.7513 H   0  0  0  0  0  0  0  0  0  0  0  0
  141.2414   74.9014  218.6994 H   0  0  0  0  0  0  0  0  0  0  0  0
  144.1484   76.3343  220.3145 H   0  0  0  0  0  0  0  0  0  0  0  0
  146.0104   74.9378  221.0934 H   0  0  0  0  0  0  0  0  0  0  0  0
  146.3100   71.9000  221.5970 H   0  0  0  0  0  0  0  0  0  0  0  0
  144.2087   71.4994  219.2839 H   0  0  0  0  0  0  0  0  0  0  0  0
  142.3500   72.9061  218.5095 H   0  0  0  0  0  0  0  0  0  0  0  0
  139.2577   70.2949  221.8573 H   0  0  0  0  0  0  0  0  0  0  0  0
  139.2334   68.6651  223.7212 H   0  0  0  0  0  0  0  0  0  0  0  0
  139.6795   68.0894  225.9749 H   0  0  0  0  0  0  0  0  0  0  0  0
  141.4504   71.0297  228.5560 H   0  0  0  0  0  0  0  0  0  0  0  0
  141.4821   72.6723  226.6800 H   0  0  0  0  0  0  0  0  0  0  0  0
  1  2  2  0
  2  3  1  0
  3  4  1  0
  4  5  1  0
  5  6  2  0
  5  7  1  0
  7  8  1  0
  8  9  1  0
  9 10  1  0
 10 11  1  0
 11 12  1  0
 12 13  1  0
 13 14  2  0
 14 15  1  0
 15 16  2  0
 16 17  1  0
 16 18  1  0
 18 19  2  0
  2 20  1  0
 20 21  2  0
 21 22  1  0
 22 23  2  0
 23 24  1  0
 24 25  2  0
 25 26  1  0
 25 27  1  0
 27 28  2  0
 28 29  1  0
 29 30  2  0
 12  7  1  0
 19 13  1  0
 30 20  1  0
 29 23  1  0
  3 31  1  0
  4 32  1  0
  4 33  1  0
  8 34  1  0
  8 35  1  0
  9 36  1  0
  9 37  1  0
 10 38  1  0
 10 39  1  0
 11 40  1  0
 11 41  1  0
 12 42  1  6
 14 43  1  0
 15 44  1  0
 17 45  1  0
 18 46  1  0
 19 47  1  0
 21 48  1  0
 22 49  1  0
 24 50  1  0
 27 51  1  0
 28 52  1  0
M  END
>  <smiles>  (58) 
O=C(NCC(=O)N1CCCCC1c1ccc(O)cc1)c1ccc2cc(Cl)ccc2n1

>  <score_type>  (58) 
oracle

>  <origin>  (58) 
autodockgpu

>  <m_score__min__energy>  (58) 
-8.5800000000000001

>  <m_primary>  (58) 
energy

>  <rmsd>  (58) 
2.3822961195449475

>  <m_score__min__rmsd>  (58) 
2.3822961195449475

>  <meeko>  (58) 
{"free_energy": -8.35, "intermolecular_energy": -10.14, "internal_energy": -1.69, "cluster_size": 20, "cluster_id": 1, "rank_in_cluster": 9}

>  <energy>  (58) 
-8.4

>  <cluster_rmsd>  (58) 
0.79

>  <cluster>  (58) 
1

$$$$

     RDKit          3D

 52 55  0  0  0  0  0  0  0  0999 V2000
  140.7090   72.5100  220.8080 O   0  0  0  0  0  0  0  0  0  0  0  0
  140.2700   72.8360  221.9560 C   0  0  0  0  0  0  0  0  0  0  0  0
  139.8130   74.2200  222.1250 N   0  0  0  0  0  0  0  0  0  0  0  0
  139.9150   75.0340  220.9850 C   0  0  0  0  0  0  0  0  0  0  0  0
  140.7800   76.1850  220.9140 C   0  0  0  0  0  0  0  0  0  0  0  0
  140.7260   76.9120  222.0280 O   0  0  0  0  0  0  0  0  0  0  0  0
  141.6430   76.6980  219.9640 N   0  0  0  0  0  0  0  0  0  0  0  0
  142.1670   78.0410  219.8340 C   0  0  0  0  0  0  0  0  0  0  0  0
  141.3180   78.7010  218.7570 C   0  0  0  0  0  0  0  0  0  0  0  0
  141.2160   77.7310  217.6080 C   0  0  0  0  0  0  0  0  0  0  0  0
  142.2840   76.6550  217.6630 C   0  0  0  0  0  0  0  0  0  0  0  0
  142.0800   75.7910  218.8800 C   0  0  1  0  0  0  0  0  0  0  0  0
  143.1760   74.9090  219.2350 C   0  0  0  0  0  0  0  0  0  0  0  0
  143.5760   73.9580  218.2830 C   0  0  0  0  0  0  0  0  0  0  0  0
  144.6040   73.0720  218.5310 C   0  0  0  0  0  0  0  0  0  0  0  0
  145.2850   73.0820  219.7310 C   0  0  0  0  0  0  0  0  0  0  0  0
  146.3250   72.2100  220.0240 O   0  0  0  0  0  0  0  0  0  0  0  0
  144.9090   74.0080  220.6810 C   0  0  0  0  0  0  0  0  0  0  0  0
  143.8740   74.8920  220.4160 C   0  0  0  0  0  0  0  0  0  0  0  0
  140.2110   71.9140  223.0590 C   0  0  0  0  0  0  0  0  0  0  0  0
  139.6650   70.6750  222.8530 C   0  0  0  0  0  0  0  0  0  0  0  0
  139.5970   69.7710  223.8940 C   0  0  0  0  0  0  0  0  0  0  0  0
  140.0710   70.1000  225.1380 C   0  0  0  0  0  0  0  0  0  0  0  0
  139.9880   69.1770  226.1550 C   0  0  0  0  0  0  0  0  0  0  0  0
  140.4700   69.5300  227.3900 C   0  0  0  0  0  0  0  0  0  0  0  0
  140.4020   68.4120  228.7390 Cl  0  0  0  0  0  0  0  0  0  0  0  0
  141.0180   70.7780  227.5950 C   0  0  0  0  0  0  0  0  0  0  0  0
  141.0900   71.6940  226.5470 C   0  0  0  0  0  0  0  0  0  0  0  0
  140.6150   71.3540  225.3160 C   0  0  0  0  0  0  0  0  0  0  0  0
  140.6730   72.2190  224.2930 N   0  0  0  0  0  0  0  0  0  0  0  0
  139.4590   74.4080  223.0670 H   0  0  0  0  0  0  0  0  0  0  0  0
  140.2277   74.3696  220.1659 H   0  0  0  0  0  0  0  0  0  0  0  0
  138.9214   75.5054  220.9632 H   0  0  0  0  0  0  0  0  0  0  0  0
  142.0734   78.5849  220.7855 H   0  0  0  0  0  0  0  0  0  0  0  0
  143.2352   78.0407  219.5712 H   0  0  0  0  0  0  0  0  0  0  0  0
  140.3156   78.9233  219.1518 H   0  0  0  0  0  0  0  0  0  0  0  0
  141.7731   79.6469  218.4282 H   0  0  0  0  0  0  0  0  0  0  0  0
  140.2275   77.2495  217.6389 H   0  0  0  0  0  0  0  0  0  0  0  0
  141.3591   78.2983  216.6765 H   0  0  0  0  0  0  0  0  0  0  0  0
  142.2207   76.0319  216.7587 H   0  0  0  0  0  0  0  0  0  0  0  0
  143.2743   77.1306  217.7187 H   0  0  0  0  0  0  0  0  0  0  0  0
  141.3072   75.0398  218.6600 H   0  0  0  0  0  0  0  0  0  0  0  0
  143.0564   73.9182  217.3143 H   0  0  0  0  0  0  0  0  0  0  0  0
  144.8863   72.3433  217.7569 H   0  0  0  0  0  0  0  0  0  0  0  0
  146.2860   71.5540  220.7940 H   0  0  0  0  0  0  0  0  0  0  0  0
  145.4301   74.0455  221.6490 H   0  0  0  0  0  0  0  0  0  0  0  0
  143.5978   75.6185  221.1944 H   0  0  0  0  0  0  0  0  0  0  0  0
  139.2812   70.4006  221.8593 H   0  0  0  0  0  0  0  0  0  0  0  0
  139.1582   68.7768  223.7239 H   0  0  0  0  0  0  0  0  0  0  0  0
  139.5475   68.1839  225.9827 H   0  0  0  0  0  0  0  0  0  0  0  0
  141.4000   71.0521  228.5895 H   0  0  0  0  0  0  0  0  0  0  0  0
  141.5291   72.6888  226.7132 H   0  0  0  0  0  0  0  0  0  0  0  0
  1  2  2  0
  2  3  1  0
  3  4  1  0
  4  5  1  0
  5  6  2  0
  5  7  1  0
  7  8  1  0
  8  9  1  0
  9 10  1  0
 10 11  1  0
 11 12  1  0
 12 13  1  0
 13 14  2  0
 14 15  1  0
 15 16  2  0
 16 17  1  0
 16 18  1  0
 18 19  2  0
  2 20  1  0
 20 21  2  0
 21 22  1  0
 22 23  2  0
 23 24  1  0
 24 25  2  0
 25 26  1  0
 25 27  1  0
 27 28  2  0
 28 29  1  0
 29 30  2  0
 12  7  1  0
 19 13  1  0
 30 20  1  0
 29 23  1  0
  3 31  1  0
  4 32  1  0
  4 33  1  0
  8 34  1  0
  8 35  1  0
  9 36  1  0
  9 37  1  0
 10 38  1  0
 10 39  1  0
 11 40  1  0
 11 41  1  0
 12 42  1  6
 14 43  1  0
 15 44  1  0
 17 45  1  0
 18 46  1  0
 19 47  1  0
 21 48  1  0
 22 49  1  0
 24 50  1  0
 27 51  1  0
 28 52  1  0
M  END
>  <smiles>  (59) 
O=C(NCC(=O)N1CCCCC1c1ccc(O)cc1)c1ccc2cc(Cl)ccc2n1

>  <score_type>  (59) 
oracle

>  <origin>  (59) 
autodockgpu

>  <m_score__min__energy>  (59) 
-8.5800000000000001

>  <m_primary>  (59) 
energy

>  <rmsd>  (59) 
2.433286545499217

>  <m_score__min__rmsd>  (59) 
2.433286545499217

>  <meeko>  (59) 
{"free_energy": -8.58, "intermolecular_energy": -10.37, "internal_energy": -1.64, "cluster_size": 20, "cluster_id": 1, "rank_in_cluster": 1}

>  <energy>  (59) 
-8.35

>  <cluster_rmsd>  (59) 
0.4

>  <cluster>  (59) 
1

$$$$

     RDKit          3D

 52 55  0  0  0  0  0  0  0  0999 V2000
  138.9380   71.7190  220.7770 O   0  0  0  0  0  0  0  0  0  0  0  0
  139.1550   72.1560  221.9520 C   0  0  0  0  0  0  0  0  0  0  0  0
  139.1150   73.6100  222.1390 N   0  0  0  0  0  0  0  0  0  0  0  0
  138.8390   74.3610  220.9840 C   0  0  0  0  0  0  0  0  0  0  0  0
  139.2690   75.7260  220.8110 C   0  0  0  0  0  0  0  0  0  0  0  0
  138.3830   76.4380  220.1190 O   0  0  0  0  0  0  0  0  0  0  0  0
  140.3780   76.4540  221.1960 N   0  0  0  0  0  0  0  0  0  0  0  0
  140.5840   77.2460  222.3910 C   0  0  0  0  0  0  0  0  0  0  0  0
  140.3550   78.6880  221.9610 C   0  0  0  0  0  0  0  0  0  0  0  0
  141.1150   78.9010  220.6780 C   0  0  0  0  0  0  0  0  0  0  0  0
  142.1760   77.8400  220.4510 C   0  0  0  0  0  0  0  0  0  0  0  0
  141.5250   76.4960  220.2610 C   0  0  1  0  0  0  0  0  0  0  0  0
  142.4000   75.3410  220.3270 C   0  0  0  0  0  0  0  0  0  0  0  0
  143.7380   75.5200  219.9440 C   0  0  0  0  0  0  0  0  0  0  0  0
  144.6450   74.4810  219.9670 C   0  0  0  0  0  0  0  0  0  0  0  0
  144.2730   73.2130  220.3680 C   0  0  0  0  0  0  0  0  0  0  0  0
  145.1500   72.1380  220.4070 O   0  0  0  0  0  0  0  0  0  0  0  0
  142.9620   73.0140  220.7490 C   0  0  0  0  0  0  0  0  0  0  0  0
  142.0640   74.0690  220.7210 C   0  0  0  0  0  0  0  0  0  0  0  0
  139.4300   71.2890  223.0670 C   0  0  0  0  0  0  0  0  0  0  0  0
  139.1030   69.9630  222.9660 C   0  0  0  0  0  0  0  0  0  0  0  0
  139.3560   69.1090  224.0220 C   0  0  0  0  0  0  0  0  0  0  0  0
  139.9330   69.5760  225.1750 C   0  0  0  0  0  0  0  0  0  0  0  0
  140.1720   68.7010  226.2100 C   0  0  0  0  0  0  0  0  0  0  0  0
  140.7500   69.1920  227.3520 C   0  0  0  0  0  0  0  0  0  0  0  0
  141.0880   68.1430  228.7170 Cl  0  0  0  0  0  0  0  0  0  0  0  0
  141.0770   70.5270  227.4520 C   0  0  0  0  0  0  0  0  0  0  0  0
  140.8240   71.3920  226.3890 C   0  0  0  0  0  0  0  0  0  0  0  0
  140.2510   70.9150  225.2480 C   0  0  0  0  0  0  0  0  0  0  0  0
  139.9970   71.7290  224.2130 N   0  0  0  0  0  0  0  0  0  0  0  0
  139.2830   73.8900  223.1090 H   0  0  0  0  0  0  0  0  0  0  0  0
  139.2750   73.7979  220.1457 H   0  0  0  0  0  0  0  0  0  0  0  0
  137.7482   74.4828  221.0576 H   0  0  0  0  0  0  0  0  0  0  0  0
  139.8655   76.9582  223.1727 H   0  0  0  0  0  0  0  0  0  0  0  0
  141.5891   77.0984  222.8129 H   0  0  0  0  0  0  0  0  0  0  0  0
  139.2820   78.8655  221.7964 H   0  0  0  0  0  0  0  0  0  0  0  0
  140.7015   79.3850  222.7382 H   0  0  0  0  0  0  0  0  0  0  0  0
  140.4048   78.8757  219.8384 H   0  0  0  0  0  0  0  0  0  0  0  0
  141.6232   79.8741  220.7469 H   0  0  0  0  0  0  0  0  0  0  0  0
  142.7586   78.0932  219.5530 H   0  0  0  0  0  0  0  0  0  0  0  0
  142.8406   77.7997  221.3266 H   0  0  0  0  0  0  0  0  0  0  0  0
  141.1863   76.4075  219.2182 H   0  0  0  0  0  0  0  0  0  0  0  0
  144.0725   76.5155  219.6167 H   0  0  0  0  0  0  0  0  0  0  0  0
  145.6849   74.6661  219.6599 H   0  0  0  0  0  0  0  0  0  0  0  0
  145.2460   71.5420  221.2210 H   0  0  0  0  0  0  0  0  0  0  0  0
  142.6295   72.0175  221.0751 H   0  0  0  0  0  0  0  0  0  0  0  0
  141.0261   73.8773  221.0310 H   0  0  0  0  0  0  0  0  0  0  0  0
  138.6396   69.5785  222.0455 H   0  0  0  0  0  0  0  0  0  0  0  0
  139.0922   68.0445  223.9372 H   0  0  0  0  0  0  0  0  0  0  0  0
  139.9066   67.6370  226.1233 H   0  0  0  0  0  0  0  0  0  0  0  0
  141.5390   70.9109  228.3735 H   0  0  0  0  0  0  0  0  0  0  0  0
  141.0861   72.4572  226.4706 H   0  0  0  0  0  0  0  0  0  0  0  0
  1  2  2  0
  2  3  1  0
  3  4  1  0
  4  5  1  0
  5  6  2  0
  5  7  1  0
  7  8  1  0
  8  9  1  0
  9 10  1  0
 10 11  1  0
 11 12  1  0
 12 13  1  0
 13 14  2  0
 14 15  1  0
 15 16  2  0
 16 17  1  0
 16 18  1  0
 18 19  2  0
  2 20  1  0
 20 21  2  0
 21 22  1  0
 22 23  2  0
 23 24  1  0
 24 25  2  0
 25 26  1  0
 25 27  1  0
 27 28  2  0
 28 29  1  0
 29 30  2  0
 12  7  1  0
 19 13  1  0
 30 20  1  0
 29 23  1  0
  3 31  1  0
  4 32  1  0
  4 33  1  0
  8 34  1  0
  8 35  1  0
  9 36  1  0
  9 37  1  0
 10 38  1  0
 10 39  1  0
 11 40  1  0
 11 41  1  0
 12 42  1  6
 14 43  1  0
 15 44  1  0
 17 45  1  0
 18 46  1  0
 19 47  1  0
 21 48  1  0
 22 49  1  0
 24 50  1  0
 27 51  1  0
 28 52  1  0
M  END
>  <smiles>  (60) 
O=C(NCC(=O)N1CCCCC1c1ccc(O)cc1)c1ccc2cc(Cl)ccc2n1

>  <score_type>  (60) 
oracle

>  <origin>  (60) 
autodockgpu

>  <m_score__min__energy>  (60) 
-8.5800000000000001

>  <m_primary>  (60) 
energy

>  <rmsd>  (60) 
2.5392357473877847

>  <m_score__min__rmsd>  (60) 
2.5392357473877847

>  <meeko>  (60) 
{"free_energy": -8.33, "intermolecular_energy": -10.12, "internal_energy": -1.68, "cluster_size": 20, "cluster_id": 1, "rank_in_cluster": 10}

>  <energy>  (60) 
-8.33

>  <cluster_rmsd>  (60) 
1.33

>  <cluster>  (60) 
1

$$$$

     RDKit          3D

 52 55  0  0  0  0  0  0  0  0999 V2000
  138.7940   71.8470  220.8120 O   0  0  0  0  0  0  0  0  0  0  0  0
  139.0680   72.2890  221.9720 C   0  0  0  0  0  0  0  0  0  0  0  0
  139.0750   73.7450  222.1450 N   0  0  0  0  0  0  0  0  0  0  0  0
  138.7750   74.4930  220.9940 C   0  0  0  0  0  0  0  0  0  0  0  0
  139.6040   74.4910  219.8150 C   0  0  0  0  0  0  0  0  0  0  0  0
  138.8940   74.7140  218.7120 O   0  0  0  0  0  0  0  0  0  0  0  0
  140.9530   74.3120  219.5730 N   0  0  0  0  0  0  0  0  0  0  0  0
  141.6090   73.3450  218.7190 C   0  0  0  0  0  0  0  0  0  0  0  0
  142.0990   72.2490  219.6540 C   0  0  0  0  0  0  0  0  0  0  0  0
  142.7720   72.9220  220.8220 C   0  0  0  0  0  0  0  0  0  0  0  0
  143.1440   74.3620  220.5240 C   0  0  0  0  0  0  0  0  0  0  0  0
  141.8980   75.1810  220.3090 C   0  0  1  0  0  0  0  0  0  0  0  0
  142.0850   76.4980  219.7310 C   0  0  0  0  0  0  0  0  0  0  0  0
  142.7910   76.5790  218.5200 C   0  0  0  0  0  0  0  0  0  0  0  0
  143.0230   77.7870  217.8970 C   0  0  0  0  0  0  0  0  0  0  0  0
  142.5700   78.9730  218.4390 C   0  0  0  0  0  0  0  0  0  0  0  0
  142.7810   80.2110  217.8460 O   0  0  0  0  0  0  0  0  0  0  0  0
  141.8740   78.9170  219.6270 C   0  0  0  0  0  0  0  0  0  0  0  0
  141.6480   77.6950  220.2420 C   0  0  0  0  0  0  0  0  0  0  0  0
  139.3620   71.4250  223.0850 C   0  0  0  0  0  0  0  0  0  0  0  0
  139.0390   70.0980  222.9920 C   0  0  0  0  0  0  0  0  0  0  0  0
  139.3110   69.2480  224.0450 C   0  0  0  0  0  0  0  0  0  0  0  0
  139.9030   69.7180  225.1890 C   0  0  0  0  0  0  0  0  0  0  0  0
  140.1600   68.8470  226.2220 C   0  0  0  0  0  0  0  0  0  0  0  0
  140.7530   69.3420  227.3550 C   0  0  0  0  0  0  0  0  0  0  0  0
  141.1160   68.2970  228.7160 Cl  0  0  0  0  0  0  0  0  0  0  0  0
  141.0770   70.6790  227.4460 C   0  0  0  0  0  0  0  0  0  0  0  0
  140.8050   71.5410  226.3860 C   0  0  0  0  0  0  0  0  0  0  0  0
  140.2170   71.0590  225.2550 C   0  0  0  0  0  0  0  0  0  0  0  0
  139.9460   71.8700  224.2220 N   0  0  0  0  0  0  0  0  0  0  0  0
  139.2890   74.0300  223.1050 H   0  0  0  0  0  0  0  0  0  0  0  0
  137.7808   74.1563  220.6652 H   0  0  0  0  0  0  0  0  0  0  0  0
  138.9160   75.5212  221.3586 H   0  0  0  0  0  0  0  0  0  0  0  0
  140.8996   72.9360  217.9846 H   0  0  0  0  0  0  0  0  0  0  0  0
  142.4342   73.7958  218.1482 H   0  0  0  0  0  0  0  0  0  0  0  0
  141.2485   71.6467  220.0059 H   0  0  0  0  0  0  0  0  0  0  0  0
  142.8001   71.5794  219.1344 H   0  0  0  0  0  0  0  0  0  0  0  0
  142.0867   72.9050  221.6823 H   0  0  0  0  0  0  0  0  0  0  0  0
  143.7010   72.3730  221.0356 H   0  0  0  0  0  0  0  0  0  0  0  0
  143.7099   74.7752  221.3719 H   0  0  0  0  0  0  0  0  0  0  0  0
  143.7601   74.3952  219.6133 H   0  0  0  0  0  0  0  0  0  0  0  0
  141.4858   75.4703  221.2870 H   0  0  0  0  0  0  0  0  0  0  0  0
  143.1685   75.6555  218.0566 H   0  0  0  0  0  0  0  0  0  0  0  0
  143.5804   77.8060  216.9489 H   0  0  0  0  0  0  0  0  0  0  0  0
  143.4590   80.3530  217.1070 H   0  0  0  0  0  0  0  0  0  0  0  0
  141.4975   79.8422  220.0877 H   0  0  0  0  0  0  0  0  0  0  0  0
  141.0891   77.6840  221.1893 H   0  0  0  0  0  0  0  0  0  0  0  0
  138.5633   69.7096  222.0794 H   0  0  0  0  0  0  0  0  0  0  0  0
  139.0501   68.1823  223.9656 H   0  0  0  0  0  0  0  0  0  0  0  0
  139.8969   67.7820  226.1414 H   0  0  0  0  0  0  0  0  0  0  0  0
  141.5522   71.0666  228.3592 H   0  0  0  0  0  0  0  0  0  0  0  0
  141.0640   72.6074  226.4617 H   0  0  0  0  0  0  0  0  0  0  0  0
  1  2  2  0
  2  3  1  0
  3  4  1  0
  4  5  1  0
  5  6  2  0
  5  7  1  0
  7  8  1  0
  8  9  1  0
  9 10  1  0
 10 11  1  0
 11 12  1  0
 12 13  1  0
 13 14  2  0
 14 15  1  0
 15 16  2  0
 16 17  1  0
 16 18  1  0
 18 19  2  0
  2 20  1  0
 20 21  2  0
 21 22  1  0
 22 23  2  0
 23 24  1  0
 24 25  2  0
 25 26  1  0
 25 27  1  0
 27 28  2  0
 28 29  1  0
 29 30  2  0
 12  7  1  0
 19 13  1  0
 30 20  1  0
 29 23  1  0
  3 31  1  0
  4 32  1  0
  4 33  1  0
  8 34  1  0
  8 35  1  0
  9 36  1  0
  9 37  1  0
 10 38  1  0
 10 39  1  0
 11 40  1  0
 11 41  1  0
 12 42  1  1
 14 43  1  0
 15 44  1  0
 17 45  1  0
 18 46  1  0
 19 47  1  0
 21 48  1  0
 22 49  1  0
 24 50  1  0
 27 51  1  0
 28 52  1  0
M  END
>  <smiles>  (61) 
O=C(NCC(=O)N1CCCCC1c1ccc(O)cc1)c1ccc2cc(Cl)ccc2n1

>  <score_type>  (61) 
oracle

>  <origin>  (61) 
autodockgpu

>  <m_score__min__energy>  (61) 
-8.5800000000000001

>  <m_primary>  (61) 
energy

>  <rmsd>  (61) 
2.400011522857224

>  <m_score__min__rmsd>  (61) 
2.400011522857224

>  <meeko>  (61) 
{"free_energy": -7.68, "intermolecular_energy": -9.47, "internal_energy": -1.99, "cluster_size": 3, "cluster_id": 4, "rank_in_cluster": 3}

>  <energy>  (61) 
-8.33

>  <cluster_rmsd>  (61) 
1.3

>  <cluster>  (61) 
1

$$$$

     RDKit          3D

 52 55  0  0  0  0  0  0  0  0999 V2000
  139.6570   71.9650  220.6510 O   0  0  0  0  0  0  0  0  0  0  0  0
  139.6600   72.3830  221.8520 C   0  0  0  0  0  0  0  0  0  0  0  0
  139.5040   73.8280  222.0530 N   0  0  0  0  0  0  0  0  0  0  0  0
  139.3680   74.5910  220.8810 C   0  0  0  0  0  0  0  0  0  0  0  0
  138.8830   75.9480  220.8760 C   0  0  0  0  0  0  0  0  0  0  0  0
  138.8920   76.4710  219.6530 O   0  0  0  0  0  0  0  0  0  0  0  0
  138.4160   76.8190  221.8430 N   0  0  0  0  0  0  0  0  0  0  0  0
  137.7620   76.5250  223.1000 C   0  0  0  0  0  0  0  0  0  0  0  0
  136.2780   76.7420  222.8400 C   0  0  0  0  0  0  0  0  0  0  0  0
  136.1360   78.0530  222.1120 C   0  0  0  0  0  0  0  0  0  0  0  0
  137.3680   78.9270  222.2480 C   0  0  0  0  0  0  0  0  0  0  0  0
  138.5410   78.2690  221.5710 C   0  0  1  0  0  0  0  0  0  0  0  0
  139.8490   78.8270  221.8600 C   0  0  0  0  0  0  0  0  0  0  0  0
  140.5910   78.2360  222.8950 C   0  0  0  0  0  0  0  0  0  0  0  0
  141.8410   78.7010  223.2460 C   0  0  0  0  0  0  0  0  0  0  0  0
  142.4180   79.7720  222.5940 C   0  0  0  0  0  0  0  0  0  0  0  0
  143.6730   80.2730  222.9140 O   0  0  0  0  0  0  0  0  0  0  0  0
  141.7060   80.3680  221.5740 C   0  0  0  0  0  0  0  0  0  0  0  0
  140.4510   79.8890  221.2320 C   0  0  0  0  0  0  0  0  0  0  0  0
  139.8080   71.5060  222.9820 C   0  0  0  0  0  0  0  0  0  0  0  0
  139.4010   70.2040  222.8630 C   0  0  0  0  0  0  0  0  0  0  0  0
  139.5320   69.3410  223.9330 C   0  0  0  0  0  0  0  0  0  0  0  0
  140.0660   69.7740  225.1190 C   0  0  0  0  0  0  0  0  0  0  0  0
  140.1820   68.8910  226.1670 C   0  0  0  0  0  0  0  0  0  0  0  0
  140.7200   69.3480  227.3430 C   0  0  0  0  0  0  0  0  0  0  0  0
  140.9030   68.2860  228.7270 Cl  0  0  0  0  0  0  0  0  0  0  0  0
  141.1270   70.6600  227.4610 C   0  0  0  0  0  0  0  0  0  0  0  0
  140.9980   71.5350  226.3840 C   0  0  0  0  0  0  0  0  0  0  0  0
  140.4660   71.0900  225.2110 C   0  0  0  0  0  0  0  0  0  0  0  0
  140.3310   71.9140  224.1610 N   0  0  0  0  0  0  0  0  0  0  0  0
  139.5000   74.0930  223.0420 H   0  0  0  0  0  0  0  0  0  0  0  0
  140.3685   74.6259  220.4252 H   0  0  0  0  0  0  0  0  0  0  0  0
  138.5479   74.0641  220.3713 H   0  0  0  0  0  0  0  0  0  0  0  0
  137.9527   75.4839  223.3995 H   0  0  0  0  0  0  0  0  0  0  0  0
  138.1335   77.1633  223.9152 H   0  0  0  0  0  0  0  0  0  0  0  0
  135.8809   75.9235  222.2217 H   0  0  0  0  0  0  0  0  0  0  0  0
  135.7162   76.7596  223.7856 H   0  0  0  0  0  0  0  0  0  0  0  0
  135.9647   77.8477  221.0450 H   0  0  0  0  0  0  0  0  0  0  0  0
  135.2897   78.5948  222.5595 H   0  0  0  0  0  0  0  0  0  0  0  0
  137.1763   79.9030  221.7783 H   0  0  0  0  0  0  0  0  0  0  0  0
  137.5971   79.0661  223.3148 H   0  0  0  0  0  0  0  0  0  0  0  0
  138.4918   78.4737  220.4913 H   0  0  0  0  0  0  0  0  0  0  0  0
  140.1647   77.3806  223.4396 H   0  0  0  0  0  0  0  0  0  0  0  0
  142.3894   78.2082  224.0623 H   0  0  0  0  0  0  0  0  0  0  0  0
  144.4870   80.1160  222.3320 H   0  0  0  0  0  0  0  0  0  0  0  0
  142.1343   81.2238  221.0317 H   0  0  0  0  0  0  0  0  0  0  0  0
  139.9088   80.3861  220.4141 H   0  0  0  0  0  0  0  0  0  0  0  0
  138.9702   69.8460  221.9163 H   0  0  0  0  0  0  0  0  0  0  0  0
  139.2046   68.2957  223.8327 H   0  0  0  0  0  0  0  0  0  0  0  0
  139.8523   67.8466  226.0649 H   0  0  0  0  0  0  0  0  0  0  0  0
  141.5553   71.0175  228.4090 H   0  0  0  0  0  0  0  0  0  0  0  0
  141.3244   72.5810  226.4804 H   0  0  0  0  0  0  0  0  0  0  0  0
  1  2  2  0
  2  3  1  0
  3  4  1  0
  4  5  1  0
  5  6  2  0
  5  7  1  0
  7  8  1  0
  8  9  1  0
  9 10  1  0
 10 11  1  0
 11 12  1  0
 12 13  1  0
 13 14  2  0
 14 15  1  0
 15 16  2  0
 16 17  1  0
 16 18  1  0
 18 19  2  0
  2 20  1  0
 20 21  2  0
 21 22  1  0
 22 23  2  0
 23 24  1  0
 24 25  2  0
 25 26  1  0
 25 27  1  0
 27 28  2  0
 28 29  1  0
 29 30  2  0
 12  7  1  0
 19 13  1  0
 30 20  1  0
 29 23  1  0
  3 31  1  0
  4 32  1  0
  4 33  1  0
  8 34  1  0
  8 35  1  0
  9 36  1  0
  9 37  1  0
 10 38  1  0
 10 39  1  0
 11 40  1  0
 11 41  1  0
 12 42  1  6
 14 43  1  0
 15 44  1  0
 17 45  1  0
 18 46  1  0
 19 47  1  0
 21 48  1  0
 22 49  1  0
 24 50  1  0
 27 51  1  0
 28 52  1  0
M  END
>  <smiles>  (62) 
O=C(NCC(=O)N1CCCCC1c1ccc(O)cc1)c1ccc2cc(Cl)ccc2n1

>  <score_type>  (62) 
oracle

>  <origin>  (62) 
autodockgpu

>  <m_score__min__energy>  (62) 
-8.5800000000000001

>  <m_primary>  (62) 
energy

>  <rmsd>  (62) 
3.374964236701324

>  <m_score__min__rmsd>  (62) 
3.374964236701324

>  <meeko>  (62) 
{"free_energy": -8.08, "intermolecular_energy": -9.87, "internal_energy": -1.45, "cluster_size": 7, "cluster_id": 2, "rank_in_cluster": 2}

>  <energy>  (62) 
-8.3

>  <cluster_rmsd>  (62) 
1.41

>  <cluster>  (62) 
1

$$$$

     RDKit          3D

 52 55  0  0  0  0  0  0  0  0999 V2000
  140.5530   72.5640  220.7900 O   0  0  0  0  0  0  0  0  0  0  0  0
  140.1840   72.8840  221.9640 C   0  0  0  0  0  0  0  0  0  0  0  0
  139.7850   74.2790  222.1790 N   0  0  0  0  0  0  0  0  0  0  0  0
  139.8590   75.1100  221.0490 C   0  0  0  0  0  0  0  0  0  0  0  0
  140.8120   76.1850  220.9230 C   0  0  0  0  0  0  0  0  0  0  0  0
  140.9120   76.8900  222.0470 O   0  0  0  0  0  0  0  0  0  0  0  0
  141.6350   76.6440  219.9110 N   0  0  0  0  0  0  0  0  0  0  0  0
  142.1640   77.9740  219.6940 C   0  0  0  0  0  0  0  0  0  0  0  0
  141.2730   78.5910  218.6260 C   0  0  0  0  0  0  0  0  0  0  0  0
  141.1100   77.5690  217.5310 C   0  0  0  0  0  0  0  0  0  0  0  0
  142.1700   76.4860  217.5890 C   0  0  0  0  0  0  0  0  0  0  0  0
  142.0140   75.6820  218.8520 C   0  0  1  0  0  0  0  0  0  0  0  0
  143.1170   74.8060  219.1990 C   0  0  0  0  0  0  0  0  0  0  0  0
  143.7910   74.1660  218.1470 C   0  0  0  0  0  0  0  0  0  0  0  0
  144.8480   73.3100  218.3770 C   0  0  0  0  0  0  0  0  0  0  0  0
  145.2900   73.0450  219.6570 C   0  0  0  0  0  0  0  0  0  0  0  0
  146.3500   72.1920  219.9360 O   0  0  0  0  0  0  0  0  0  0  0  0
  144.6430   73.6630  220.7060 C   0  0  0  0  0  0  0  0  0  0  0  0
  143.5830   74.5210  220.4590 C   0  0  0  0  0  0  0  0  0  0  0  0
  140.1460   71.9440  223.0530 C   0  0  0  0  0  0  0  0  0  0  0  0
  139.6090   70.7040  222.8340 C   0  0  0  0  0  0  0  0  0  0  0  0
  139.5620   69.7830  223.8620 C   0  0  0  0  0  0  0  0  0  0  0  0
  140.0480   70.0970  225.1050 C   0  0  0  0  0  0  0  0  0  0  0  0
  139.9860   69.1590  226.1090 C   0  0  0  0  0  0  0  0  0  0  0  0
  140.4790   69.4970  227.3430 C   0  0  0  0  0  0  0  0  0  0  0  0
  140.4380   68.3580  228.6760 Cl  0  0  0  0  0  0  0  0  0  0  0  0
  141.0180   70.7470  227.5620 C   0  0  0  0  0  0  0  0  0  0  0  0
  141.0680   71.6790  226.5270 C   0  0  0  0  0  0  0  0  0  0  0  0
  140.5820   71.3540  225.2970 C   0  0  0  0  0  0  0  0  0  0  0  0
  140.6200   72.2350  224.2870 N   0  0  0  0  0  0  0  0  0  0  0  0
  139.4850   74.4630  223.1400 H   0  0  0  0  0  0  0  0  0  0  0  0
  140.0412   74.4424  220.1939 H   0  0  0  0  0  0  0  0  0  0  0  0
  138.9119   75.6646  221.1227 H   0  0  0  0  0  0  0  0  0  0  0  0
  142.1179   78.5631  220.6218 H   0  0  0  0  0  0  0  0  0  0  0  0
  143.2192   77.9502  219.3843 H   0  0  0  0  0  0  0  0  0  0  0  0
  140.2917   78.8431  219.0544 H   0  0  0  0  0  0  0  0  0  0  0  0
  141.7213   79.5150  218.2319 H   0  0  0  0  0  0  0  0  0  0  0  0
  140.1199   77.1000  217.6300 H   0  0  0  0  0  0  0  0  0  0  0  0
  141.2147   78.0897  216.5677 H   0  0  0  0  0  0  0  0  0  0  0  0
  142.0610   75.8223  216.7186 H   0  0  0  0  0  0  0  0  0  0  0  0
  143.1657   76.9535  217.5785 H   0  0  0  0  0  0  0  0  0  0  0  0
  141.2257   74.9296  218.7020 H   0  0  0  0  0  0  0  0  0  0  0  0
  143.4678   74.3520  217.1121 H   0  0  0  0  0  0  0  0  0  0  0  0
  145.3483   72.8293  217.5234 H   0  0  0  0  0  0  0  0  0  0  0  0
  146.4750   71.7560  220.8420 H   0  0  0  0  0  0  0  0  0  0  0  0
  144.9684   73.4749  221.7398 H   0  0  0  0  0  0  0  0  0  0  0  0
  143.0888   74.9990  221.3176 H   0  0  0  0  0  0  0  0  0  0  0  0
  139.2156   70.4416  221.8408 H   0  0  0  0  0  0  0  0  0  0  0  0
  139.1303   68.7874  223.6817 H   0  0  0  0  0  0  0  0  0  0  0  0
  139.5526   68.1645  225.9269 H   0  0  0  0  0  0  0  0  0  0  0  0
  141.4095   71.0093  228.5559 H   0  0  0  0  0  0  0  0  0  0  0  0
  141.4993   72.6755  226.7033 H   0  0  0  0  0  0  0  0  0  0  0  0
  1  2  2  0
  2  3  1  0
  3  4  1  0
  4  5  1  0
  5  6  2  0
  5  7  1  0
  7  8  1  0
  8  9  1  0
  9 10  1  0
 10 11  1  0
 11 12  1  0
 12 13  1  0
 13 14  2  0
 14 15  1  0
 15 16  2  0
 16 17  1  0
 16 18  1  0
 18 19  2  0
  2 20  1  0
 20 21  2  0
 21 22  1  0
 22 23  2  0
 23 24  1  0
 24 25  2  0
 25 26  1  0
 25 27  1  0
 27 28  2  0
 28 29  1  0
 29 30  2  0
 12  7  1  0
 19 13  1  0
 30 20  1  0
 29 23  1  0
  3 31  1  0
  4 32  1  0
  4 33  1  0
  8 34  1  0
  8 35  1  0
  9 36  1  0
  9 37  1  0
 10 38  1  0
 10 39  1  0
 11 40  1  0
 11 41  1  0
 12 42  1  6
 14 43  1  0
 15 44  1  0
 17 45  1  0
 18 46  1  0
 19 47  1  0
 21 48  1  0
 22 49  1  0
 24 50  1  0
 27 51  1  0
 28 52  1  0
M  END
>  <smiles>  (63) 
O=C(NCC(=O)N1CCCCC1c1ccc(O)cc1)c1ccc2cc(Cl)ccc2n1

>  <score_type>  (63) 
oracle

>  <origin>  (63) 
autodockgpu

>  <m_score__min__energy>  (63) 
-8.5800000000000001

>  <m_primary>  (63) 
energy

>  <rmsd>  (63) 
2.4078058854318294

>  <m_score__min__rmsd>  (63) 
2.4078058854318294

>  <meeko>  (63) 
{"free_energy": -8.52, "intermolecular_energy": -10.31, "internal_energy": -1.65, "cluster_size": 20, "cluster_id": 1, "rank_in_cluster": 2}

>  <energy>  (63) 
-8.28

>  <cluster_rmsd>  (63) 
1.37

>  <cluster>  (63) 
1

$$$$

     RDKit          3D

 52 55  0  0  0  0  0  0  0  0999 V2000
  139.4350   74.3700  221.9200 O   0  0  0  0  0  0  0  0  0  0  0  0
  140.6710   74.5660  221.6960 C   0  0  0  0  0  0  0  0  0  0  0  0
  141.2010   75.8970  222.0110 N   0  0  0  0  0  0  0  0  0  0  0  0
  140.2700   76.8120  222.5290 C   0  0  0  0  0  0  0  0  0  0  0  0
  140.2840   78.2180  222.2080 C   0  0  0  0  0  0  0  0  0  0  0  0
  139.0670   78.7510  222.2740 O   0  0  0  0  0  0  0  0  0  0  0  0
  141.2630   79.1260  221.8520 N   0  0  0  0  0  0  0  0  0  0  0  0
  142.2770   79.7490  222.6760 C   0  0  0  0  0  0  0  0  0  0  0  0
  141.7420   81.1400  222.9850 C   0  0  0  0  0  0  0  0  0  0  0  0
  141.2420   81.7280  221.6910 C   0  0  0  0  0  0  0  0  0  0  0  0
  141.7940   81.0060  220.4770 C   0  0  0  0  0  0  0  0  0  0  0  0
  141.2840   79.5890  220.4460 C   0  0  1  0  0  0  0  0  0  0  0  0
  141.9440   78.6860  219.5220 C   0  0  0  0  0  0  0  0  0  0  0  0
  142.4900   77.5060  220.0490 C   0  0  0  0  0  0  0  0  0  0  0  0
  143.1410   76.5890  219.2500 C   0  0  0  0  0  0  0  0  0  0  0  0
  143.2850   76.7940  217.8930 C   0  0  0  0  0  0  0  0  0  0  0  0
  143.9320   75.8990  217.0510 O   0  0  0  0  0  0  0  0  0  0  0  0
  142.7550   77.9470  217.3540 C   0  0  0  0  0  0  0  0  0  0  0  0
  142.1030   78.8590  218.1690 C   0  0  0  0  0  0  0  0  0  0  0  0
  141.5370   73.5490  221.1610 C   0  0  0  0  0  0  0  0  0  0  0  0
  141.0280   72.2970  220.9460 C   0  0  0  0  0  0  0  0  0  0  0  0
  141.8370   71.3030  220.4320 C   0  0  0  0  0  0  0  0  0  0  0  0
  143.1510   71.5560  220.1330 C   0  0  0  0  0  0  0  0  0  0  0  0
  143.9330   70.5460  219.6240 C   0  0  0  0  0  0  0  0  0  0  0  0
  145.2430   70.8240  219.3330 C   0  0  0  0  0  0  0  0  0  0  0  0
  146.3060   69.5910  218.6800 Cl  0  0  0  0  0  0  0  0  0  0  0  0
  145.7540   72.0850  219.5510 C   0  0  0  0  0  0  0  0  0  0  0  0
  144.9410   73.0920  220.0690 C   0  0  0  0  0  0  0  0  0  0  0  0
  143.6370   72.8270  220.3600 C   0  0  0  0  0  0  0  0  0  0  0  0
  142.8360   73.7790  220.8600 N   0  0  0  0  0  0  0  0  0  0  0  0
  142.2040   75.9800  221.8210 H   0  0  0  0  0  0  0  0  0  0  0  0
  139.2802   76.4419  222.2235 H   0  0  0  0  0  0  0  0  0  0  0  0
  140.5482   76.8280  223.5931 H   0  0  0  0  0  0  0  0  0  0  0  0
  142.4243   79.1775  223.6043 H   0  0  0  0  0  0  0  0  0  0  0  0
  143.2522   79.7873  222.1686 H   0  0  0  0  0  0  0  0  0  0  0  0
  140.9182   81.0733  223.7108 H   0  0  0  0  0  0  0  0  0  0  0  0
  142.5306   81.7718  223.4197 H   0  0  0  0  0  0  0  0  0  0  0  0
  140.1442   81.6608  221.6732 H   0  0  0  0  0  0  0  0  0  0  0  0
  141.5824   82.7729  221.6435 H   0  0  0  0  0  0  0  0  0  0  0  0
  141.4726   81.5292  219.5643 H   0  0  0  0  0  0  0  0  0  0  0  0
  142.8926   80.9939  220.5320 H   0  0  0  0  0  0  0  0  0  0  0  0
  140.2727   79.5818  220.0133 H   0  0  0  0  0  0  0  0  0  0  0  0
  142.3966   77.3069  221.1268 H   0  0  0  0  0  0  0  0  0  0  0  0
  143.5537   75.6759  219.7038 H   0  0  0  0  0  0  0  0  0  0  0  0
  144.9230   75.7030  217.1230 H   0  0  0  0  0  0  0  0  0  0  0  0
  142.8497   78.1434  216.2758 H   0  0  0  0  0  0  0  0  0  0  0  0
  141.6914   79.7689  217.7079 H   0  0  0  0  0  0  0  0  0  0  0  0
  139.9753   72.0827  221.1824 H   0  0  0  0  0  0  0  0  0  0  0  0
  141.4232   70.2983  220.2607 H   0  0  0  0  0  0  0  0  0  0  0  0
  143.5180   69.5414  219.4548 H   0  0  0  0  0  0  0  0  0  0  0  0
  146.8072   72.2978  219.3154 H   0  0  0  0  0  0  0  0  0  0  0  0
  145.3514   74.0978  220.2422 H   0  0  0  0  0  0  0  0  0  0  0  0
  1  2  2  0
  2  3  1  0
  3  4  1  0
  4  5  1  0
  5  6  2  0
  5  7  1  0
  7  8  1  0
  8  9  1  0
  9 10  1  0
 10 11  1  0
 11 12  1  0
 12 13  1  0
 13 14  2  0
 14 15  1  0
 15 16  2  0
 16 17  1  0
 16 18  1  0
 18 19  2  0
  2 20  1  0
 20 21  2  0
 21 22  1  0
 22 23  2  0
 23 24  1  0
 24 25  2  0
 25 26  1  0
 25 27  1  0
 27 28  2  0
 28 29  1  0
 29 30  2  0
 12  7  1  0
 19 13  1  0
 30 20  1  0
 29 23  1  0
  3 31  1  0
  4 32  1  0
  4 33  1  0
  8 34  1  0
  8 35  1  0
  9 36  1  0
  9 37  1  0
 10 38  1  0
 10 39  1  0
 11 40  1  0
 11 41  1  0
 12 42  1  6
 14 43  1  0
 15 44  1  0
 17 45  1  0
 18 46  1  0
 19 47  1  0
 21 48  1  0
 22 49  1  0
 24 50  1  0
 27 51  1  0
 28 52  1  0
M  END
>  <smiles>  (64) 
O=C(NCC(=O)N1CCCCC1c1ccc(O)cc1)c1ccc2cc(Cl)ccc2n1

>  <score_type>  (64) 
oracle

>  <origin>  (64) 
autodockgpu

>  <m_score__min__energy>  (64) 
-8.5800000000000001

>  <m_primary>  (64) 
energy

>  <rmsd>  (64) 
6.223912451780987

>  <m_score__min__rmsd>  (64) 
6.223912451780987

>  <meeko>  (64) 
{"free_energy": -7.54, "intermolecular_energy": -9.33, "internal_energy": -1.91, "cluster_size": 4, "cluster_id": 3, "rank_in_cluster": 4}

>  <energy>  (64) 
-8.25

>  <cluster_rmsd>  (64) 
1.39

>  <cluster>  (64) 
1

$$$$

     RDKit          3D

 52 55  0  0  0  0  0  0  0  0999 V2000
  140.6650   76.9930  218.1220 O   0  0  0  0  0  0  0  0  0  0  0  0
  141.7970   76.8210  218.6750 C   0  0  0  0  0  0  0  0  0  0  0  0
  142.3890   77.9800  219.3520 N   0  0  0  0  0  0  0  0  0  0  0  0
  141.6270   79.1600  219.3100 C   0  0  0  0  0  0  0  0  0  0  0  0
  141.5690   80.0990  220.4020 C   0  0  0  0  0  0  0  0  0  0  0  0
  141.8510   81.3370  220.0030 O   0  0  0  0  0  0  0  0  0  0  0  0
  141.2890   80.0070  221.7530 N   0  0  0  0  0  0  0  0  0  0  0  0
  140.6710   80.9800  222.6270 C   0  0  0  0  0  0  0  0  0  0  0  0
  141.8220   81.6360  223.3770 C   0  0  0  0  0  0  0  0  0  0  0  0
  142.7270   80.5340  223.8630 C   0  0  0  0  0  0  0  0  0  0  0  0
  142.0420   79.1810  223.8640 C   0  0  0  0  0  0  0  0  0  0  0  0
  141.7090   78.7730  222.4530 C   0  0  1  0  0  0  0  0  0  0  0  0
  140.7990   77.6530  222.3030 C   0  0  0  0  0  0  0  0  0  0  0  0
  139.4590   77.8560  222.6690 C   0  0  0  0  0  0  0  0  0  0  0  0
  138.5200   76.8500  222.5680 C   0  0  0  0  0  0  0  0  0  0  0  0
  138.8600   75.5960  222.1020 C   0  0  0  0  0  0  0  0  0  0  0  0
  137.9490   74.5550  221.9830 O   0  0  0  0  0  0  0  0  0  0  0  0
  140.1710   75.3750  221.7360 C   0  0  0  0  0  0  0  0  0  0  0  0
  141.1030   76.3960  221.8430 C   0  0  0  0  0  0  0  0  0  0  0  0
  142.4900   75.5610  218.6550 C   0  0  0  0  0  0  0  0  0  0  0  0
  142.0620   74.5870  217.7930 C   0  0  0  0  0  0  0  0  0  0  0  0
  142.7100   73.3680  217.7540 C   0  0  0  0  0  0  0  0  0  0  0  0
  143.7820   73.1200  218.5720 C   0  0  0  0  0  0  0  0  0  0  0  0
  144.4070   71.8960  218.5110 C   0  0  0  0  0  0  0  0  0  0  0  0
  145.4770   71.6730  219.3390 C   0  0  0  0  0  0  0  0  0  0  0  0
  146.3280   70.1400  219.3220 Cl  0  0  0  0  0  0  0  0  0  0  0  0
  145.9060   72.6540  220.2070 C   0  0  0  0  0  0  0  0  0  0  0  0
  145.2550   73.8860  220.2490 C   0  0  0  0  0  0  0  0  0  0  0  0
  144.1910   74.1190  219.4300 C   0  0  0  0  0  0  0  0  0  0  0  0
  143.5490   75.2970  219.4540 N   0  0  0  0  0  0  0  0  0  0  0  0
  143.2910   77.7670  219.7870 H   0  0  0  0  0  0  0  0  0  0  0  0
  141.9953   79.7272  218.4425 H   0  0  0  0  0  0  0  0  0  0  0  0
  140.6026   78.7592  219.3114 H   0  0  0  0  0  0  0  0  0  0  0  0
  140.1176   81.7280  222.0403 H   0  0  0  0  0  0  0  0  0  0  0  0
  139.9479   80.5140  223.3126 H   0  0  0  0  0  0  0  0  0  0  0  0
  142.3751   82.3079  222.7043 H   0  0  0  0  0  0  0  0  0  0  0  0
  141.4465   82.2321  224.2218 H   0  0  0  0  0  0  0  0  0  0  0  0
  143.6071   80.4838  223.2051 H   0  0  0  0  0  0  0  0  0  0  0  0
  143.0113   80.7665  224.8999 H   0  0  0  0  0  0  0  0  0  0  0  0
  142.7132   78.4329  224.3110 H   0  0  0  0  0  0  0  0  0  0  0  0
  141.1137   79.2460  224.4505 H   0  0  0  0  0  0  0  0  0  0  0  0
  142.6054   78.3404  221.9848 H   0  0  0  0  0  0  0  0  0  0  0  0
  139.1497   78.8421  223.0459 H   0  0  0  0  0  0  0  0  0  0  0  0
  137.4801   77.0513  222.8646 H   0  0  0  0  0  0  0  0  0  0  0  0
  137.7380   73.9250  222.7480 H   0  0  0  0  0  0  0  0  0  0  0  0
  140.4776   74.3882  221.3589 H   0  0  0  0  0  0  0  0  0  0  0  0
  142.1407   76.1877  221.5435 H   0  0  0  0  0  0  0  0  0  0  0  0
  141.2029   74.7752  217.1323 H   0  0  0  0  0  0  0  0  0  0  0  0
  142.3627   72.5885  217.0599 H   0  0  0  0  0  0  0  0  0  0  0  0
  144.0579   71.1174  217.8169 H   0  0  0  0  0  0  0  0  0  0  0  0
  146.7643   72.4643  220.8683 H   0  0  0  0  0  0  0  0  0  0  0  0
  145.5993   74.6682  220.9415 H   0  0  0  0  0  0  0  0  0  0  0  0
  1  2  2  0
  2  3  1  0
  3  4  1  0
  4  5  1  0
  5  6  2  0
  5  7  1  0
  7  8  1  0
  8  9  1  0
  9 10  1  0
 10 11  1  0
 11 12  1  0
 12 13  1  0
 13 14  2  0
 14 15  1  0
 15 16  2  0
 16 17  1  0
 16 18  1  0
 18 19  2  0
  2 20  1  0
 20 21  2  0
 21 22  1  0
 22 23  2  0
 23 24  1  0
 24 25  2  0
 25 26  1  0
 25 27  1  0
 27 28  2  0
 28 29  1  0
 29 30  2  0
 12  7  1  0
 19 13  1  0
 30 20  1  0
 29 23  1  0
  3 31  1  0
  4 32  1  0
  4 33  1  0
  8 34  1  0
  8 35  1  0
  9 36  1  0
  9 37  1  0
 10 38  1  0
 10 39  1  0
 11 40  1  0
 11 41  1  0
 12 42  1  6
 14 43  1  0
 15 44  1  0
 17 45  1  0
 18 46  1  0
 19 47  1  0
 21 48  1  0
 22 49  1  0
 24 50  1  0
 27 51  1  0
 28 52  1  0
M  END
>  <smiles>  (65) 
O=C(NCC(=O)N1CCCCC1c1ccc(O)cc1)c1ccc2cc(Cl)ccc2n1

>  <score_type>  (65) 
oracle

>  <origin>  (65) 
autodockgpu

>  <m_score__min__energy>  (65) 
-8.5800000000000001

>  <m_primary>  (65) 
energy

>  <rmsd>  (65) 
7.691394510213473

>  <m_score__min__rmsd>  (65) 
7.691394510213473

>  <meeko>  (65) 
{"free_energy": -7.4, "intermolecular_energy": -9.19, "internal_energy": -2.14, "cluster_size": 15, "cluster_id": 6, "rank_in_cluster": 3}

>  <energy>  (65) 
-8.23

>  <cluster_rmsd>  (65) 
0.99

>  <cluster>  (65) 
1

$$$$

     RDKit          3D

 52 55  0  0  0  0  0  0  0  0999 V2000
  140.5140   77.6620  219.0080 O   0  0  0  0  0  0  0  0  0  0  0  0
  141.7790   77.5420  218.9550 C   0  0  0  0  0  0  0  0  0  0  0  0
  142.5680   78.7750  219.0400 N   0  0  0  0  0  0  0  0  0  0  0  0
  141.8260   79.9610  219.1710 C   0  0  0  0  0  0  0  0  0  0  0  0
  140.9180   80.2050  220.2640 C   0  0  0  0  0  0  0  0  0  0  0  0
  139.7670   80.7220  219.8430 O   0  0  0  0  0  0  0  0  0  0  0  0
  140.9720   80.0260  221.6330 N   0  0  0  0  0  0  0  0  0  0  0  0
  140.5490   80.9190  222.6910 C   0  0  0  0  0  0  0  0  0  0  0  0
  141.8240   81.5840  223.1880 C   0  0  0  0  0  0  0  0  0  0  0  0
  142.8540   80.5000  223.3740 C   0  0  0  0  0  0  0  0  0  0  0  0
  142.2320   79.1190  223.4490 C   0  0  0  0  0  0  0  0  0  0  0  0
  141.5850   78.7750  222.1330 C   0  0  1  0  0  0  0  0  0  0  0  0
  140.7010   77.6250  222.1310 C   0  0  0  0  0  0  0  0  0  0  0  0
  139.3380   77.8560  222.3720 C   0  0  0  0  0  0  0  0  0  0  0  0
  138.4210   76.8260  222.3950 C   0  0  0  0  0  0  0  0  0  0  0  0
  138.8070   75.5180  222.1820 C   0  0  0  0  0  0  0  0  0  0  0  0
  137.9190   74.4500  222.1960 O   0  0  0  0  0  0  0  0  0  0  0  0
  140.1410   75.2670  221.9420 C   0  0  0  0  0  0  0  0  0  0  0  0
  141.0500   76.3140  221.9220 C   0  0  0  0  0  0  0  0  0  0  0  0
  142.4350   76.2690  218.8190 C   0  0  0  0  0  0  0  0  0  0  0  0
  142.1660   75.5030  217.7170 C   0  0  0  0  0  0  0  0  0  0  0  0
  142.7830   74.2780  217.5620 C   0  0  0  0  0  0  0  0  0  0  0  0
  143.6660   73.8150  218.5040 C   0  0  0  0  0  0  0  0  0  0  0  0
  144.2640   72.5900  218.3220 C   0  0  0  0  0  0  0  0  0  0  0  0
  145.1440   72.1510  219.2780 C   0  0  0  0  0  0  0  0  0  0  0  0
  145.9490   70.6000  219.1210 Cl  0  0  0  0  0  0  0  0  0  0  0  0
  145.4130   72.9230  220.3880 C   0  0  0  0  0  0  0  0  0  0  0  0
  144.7930   74.1610  220.5480 C   0  0  0  0  0  0  0  0  0  0  0  0
  143.9180   74.6080  219.6040 C   0  0  0  0  0  0  0  0  0  0  0  0
  143.3090   75.7950  219.7370 N   0  0  0  0  0  0  0  0  0  0  0  0
  143.5770   78.6040  219.0070 H   0  0  0  0  0  0  0  0  0  0  0  0
  142.5629   80.7771  219.2019 H   0  0  0  0  0  0  0  0  0  0  0  0
  141.1305   79.8789  218.3228 H   0  0  0  0  0  0  0  0  0  0  0  0
  139.8478   81.6721  222.3023 H   0  0  0  0  0  0  0  0  0  0  0  0
  140.0254   80.3825  223.4960 H   0  0  0  0  0  0  0  0  0  0  0  0
  142.1788   82.3170  222.4485 H   0  0  0  0  0  0  0  0  0  0  0  0
  141.6423   82.1139  224.1347 H   0  0  0  0  0  0  0  0  0  0  0  0
  143.5528   80.5271  222.5249 H   0  0  0  0  0  0  0  0  0  0  0  0
  143.3705   80.6877  224.3269 H   0  0  0  0  0  0  0  0  0  0  0  0
  143.0136   78.3789  223.6755 H   0  0  0  0  0  0  0  0  0  0  0  0
  141.4687   79.1085  224.2410 H   0  0  0  0  0  0  0  0  0  0  0  0
  142.3565   78.4104  221.4388 H   0  0  0  0  0  0  0  0  0  0  0  0
  138.9919   78.8853  222.5471 H   0  0  0  0  0  0  0  0  0  0  0  0
  137.3615   77.0513  222.5868 H   0  0  0  0  0  0  0  0  0  0  0  0
  137.8690   73.7930  222.9650 H   0  0  0  0  0  0  0  0  0  0  0  0
  140.4843   74.2368  221.7665 H   0  0  0  0  0  0  0  0  0  0  0  0
  142.1075   76.0815  221.7282 H   0  0  0  0  0  0  0  0  0  0  0  0
  141.4587   75.8633  216.9555 H   0  0  0  0  0  0  0  0  0  0  0  0
  142.5643   73.6668  216.6739 H   0  0  0  0  0  0  0  0  0  0  0  0
  144.0427   71.9792  217.4343 H   0  0  0  0  0  0  0  0  0  0  0  0
  146.1191   72.5608  221.1498 H   0  0  0  0  0  0  0  0  0  0  0  0
  145.0095   74.7757  221.4342 H   0  0  0  0  0  0  0  0  0  0  0  0
  1  2  2  0
  2  3  1  0
  3  4  1  0
  4  5  1  0
  5  6  2  0
  5  7  1  0
  7  8  1  0
  8  9  1  0
  9 10  1  0
 10 11  1  0
 11 12  1  0
 12 13  1  0
 13 14  2  0
 14 15  1  0
 15 16  2  0
 16 17  1  0
 16 18  1  0
 18 19  2  0
  2 20  1  0
 20 21  2  0
 21 22  1  0
 22 23  2  0
 23 24  1  0
 24 25  2  0
 25 26  1  0
 25 27  1  0
 27 28  2  0
 28 29  1  0
 29 30  2  0
 12  7  1  0
 19 13  1  0
 30 20  1  0
 29 23  1  0
  3 31  1  0
  4 32  1  0
  4 33  1  0
  8 34  1  0
  8 35  1  0
  9 36  1  0
  9 37  1  0
 10 38  1  0
 10 39  1  0
 11 40  1  0
 11 41  1  0
 12 42  1  6
 14 43  1  0
 15 44  1  0
 17 45  1  0
 18 46  1  0
 19 47  1  0
 21 48  1  0
 22 49  1  0
 24 50  1  0
 27 51  1  0
 28 52  1  0
M  END
>  <smiles>  (66) 
O=C(NCC(=O)N1CCCCC1c1ccc(O)cc1)c1ccc2cc(Cl)ccc2n1

>  <score_type>  (66) 
oracle

>  <origin>  (66) 
autodockgpu

>  <m_score__min__energy>  (66) 
-8.5800000000000001

>  <m_primary>  (66) 
energy

>  <rmsd>  (66) 
7.882060752692778

>  <m_score__min__rmsd>  (66) 
7.882060752692778

>  <meeko>  (66) 
{"free_energy": -7.3, "intermolecular_energy": -9.09, "internal_energy": -2.21, "cluster_size": 15, "cluster_id": 6, "rank_in_cluster": 6}

>  <energy>  (66) 
-8.23

>  <cluster_rmsd>  (66) 
1.36

>  <cluster>  (66) 
1

$$$$

     RDKit          3D

 52 55  0  0  0  0  0  0  0  0999 V2000
  139.8380   71.9980  220.6660 O   0  0  0  0  0  0  0  0  0  0  0  0
  139.7680   72.4030  221.8690 C   0  0  0  0  0  0  0  0  0  0  0  0
  139.5640   73.8410  222.0760 N   0  0  0  0  0  0  0  0  0  0  0  0
  139.4690   74.6130  220.9060 C   0  0  0  0  0  0  0  0  0  0  0  0
  139.7920   76.0180  220.8620 C   0  0  0  0  0  0  0  0  0  0  0  0
  138.7010   76.7770  220.9380 O   0  0  0  0  0  0  0  0  0  0  0  0
  140.9620   76.7460  220.7590 N   0  0  0  0  0  0  0  0  0  0  0  0
  141.4560   77.8090  221.6090 C   0  0  0  0  0  0  0  0  0  0  0  0
  141.1270   79.0980  220.8700 C   0  0  0  0  0  0  0  0  0  0  0  0
  141.5470   78.9140  219.4350 C   0  0  0  0  0  0  0  0  0  0  0  0
  142.5190   77.7630  219.2600 C   0  0  0  0  0  0  0  0  0  0  0  0
  141.8420   76.4630  219.6030 C   0  0  1  0  0  0  0  0  0  0  0  0
  142.7070   75.3100  219.7700 C   0  0  0  0  0  0  0  0  0  0  0  0
  142.1310   74.0400  219.6080 C   0  0  0  0  0  0  0  0  0  0  0  0
  142.8710   72.8850  219.7520 C   0  0  0  0  0  0  0  0  0  0  0  0
  144.2150   72.9290  220.0650 C   0  0  0  0  0  0  0  0  0  0  0  0
  144.9990   71.7930  220.2200 O   0  0  0  0  0  0  0  0  0  0  0  0
  144.8010   74.1660  220.2290 C   0  0  0  0  0  0  0  0  0  0  0  0
  144.0440   75.3180  220.0800 C   0  0  0  0  0  0  0  0  0  0  0  0
  139.8790   71.5170  222.9970 C   0  0  0  0  0  0  0  0  0  0  0  0
  139.4660   70.2190  222.8580 C   0  0  0  0  0  0  0  0  0  0  0  0
  139.5620   69.3480  223.9250 C   0  0  0  0  0  0  0  0  0  0  0  0
  140.0670   69.7690  225.1280 C   0  0  0  0  0  0  0  0  0  0  0  0
  140.1490   68.8780  226.1730 C   0  0  0  0  0  0  0  0  0  0  0  0
  140.6580   69.3230  227.3660 C   0  0  0  0  0  0  0  0  0  0  0  0
  140.7970   68.2510  228.7460 Cl  0  0  0  0  0  0  0  0  0  0  0  0
  141.0720   70.6310  227.5040 C   0  0  0  0  0  0  0  0  0  0  0  0
  140.9780   71.5140  226.4300 C   0  0  0  0  0  0  0  0  0  0  0  0
  140.4740   71.0820  225.2400 C   0  0  0  0  0  0  0  0  0  0  0  0
  140.3740   71.9130  224.1920 N   0  0  0  0  0  0  0  0  0  0  0  0
  139.5010   74.0940  223.0660 H   0  0  0  0  0  0  0  0  0  0  0  0
  140.1261   74.1281  220.1691 H   0  0  0  0  0  0  0  0  0  0  0  0
  138.3812   74.6328  220.7440 H   0  0  0  0  0  0  0  0  0  0  0  0
  140.9528   77.7860  222.5869 H   0  0  0  0  0  0  0  0  0  0  0  0
  142.5341   77.7113  221.8041 H   0  0  0  0  0  0  0  0  0  0  0  0
  140.0464   79.2965  220.9230 H   0  0  0  0  0  0  0  0  0  0  0  0
  141.6540   79.9508  221.3228 H   0  0  0  0  0  0  0  0  0  0  0  0
  140.6516   78.7157  218.8275 H   0  0  0  0  0  0  0  0  0  0  0  0
  142.0562   79.8347  219.1139 H   0  0  0  0  0  0  0  0  0  0  0  0
  142.8619   77.7310  218.2153 H   0  0  0  0  0  0  0  0  0  0  0  0
  143.3791   77.9107  219.9297 H   0  0  0  0  0  0  0  0  0  0  0  0
  141.2561   76.1252  218.7355 H   0  0  0  0  0  0  0  0  0  0  0  0
  141.0620   73.9641  219.3599 H   0  0  0  0  0  0  0  0  0  0  0  0
  142.3809   71.9098  219.6148 H   0  0  0  0  0  0  0  0  0  0  0  0
  145.4560   71.5620  221.0930 H   0  0  0  0  0  0  0  0  0  0  0  0
  145.8699   74.2391  220.4783 H   0  0  0  0  0  0  0  0  0  0  0  0
  144.5412   76.2896  220.2175 H   0  0  0  0  0  0  0  0  0  0  0  0
  139.0583   69.8706  221.8976 H   0  0  0  0  0  0  0  0  0  0  0  0
  139.2299   68.3058  223.8087 H   0  0  0  0  0  0  0  0  0  0  0  0
  139.8152   67.8366  226.0547 H   0  0  0  0  0  0  0  0  0  0  0  0
  141.4780   70.9787  228.4654 H   0  0  0  0  0  0  0  0  0  0  0  0
  141.3097   72.5567  226.5426 H   0  0  0  0  0  0  0  0  0  0  0  0
  1  2  2  0
  2  3  1  0
  3  4  1  0
  4  5  1  0
  5  6  2  0
  5  7  1  0
  7  8  1  0
  8  9  1  0
  9 10  1  0
 10 11  1  0
 11 12  1  0
 12 13  1  0
 13 14  2  0
 14 15  1  0
 15 16  2  0
 16 17  1  0
 16 18  1  0
 18 19  2  0
  2 20  1  0
 20 21  2  0
 21 22  1  0
 22 23  2  0
 23 24  1  0
 24 25  2  0
 25 26  1  0
 25 27  1  0
 27 28  2  0
 28 29  1  0
 29 30  2  0
 12  7  1  0
 19 13  1  0
 30 20  1  0
 29 23  1  0
  3 31  1  0
  4 32  1  0
  4 33  1  0
  8 34  1  0
  8 35  1  0
  9 36  1  0
  9 37  1  0
 10 38  1  0
 10 39  1  0
 11 40  1  0
 11 41  1  0
 12 42  1  6
 14 43  1  0
 15 44  1  0
 17 45  1  0
 18 46  1  0
 19 47  1  0
 21 48  1  0
 22 49  1  0
 24 50  1  0
 27 51  1  0
 28 52  1  0
M  END
>  <smiles>  (67) 
O=C(NCC(=O)N1CCCCC1c1ccc(O)cc1)c1ccc2cc(Cl)ccc2n1

>  <score_type>  (67) 
oracle

>  <origin>  (67) 
autodockgpu

>  <m_score__min__energy>  (67) 
-8.5800000000000001

>  <m_primary>  (67) 
energy

>  <rmsd>  (67) 
2.508697203803203

>  <m_score__min__rmsd>  (67) 
2.508697203803203

>  <meeko>  (67) 
{"free_energy": -8.23, "intermolecular_energy": -10.02, "internal_energy": -1.55, "cluster_size": 20, "cluster_id": 1, "rank_in_cluster": 15}

>  <energy>  (67) 
-8.22

>  <cluster_rmsd>  (67) 
0.97

>  <cluster>  (67) 
1

$$$$

     RDKit          3D

 52 55  0  0  0  0  0  0  0  0999 V2000
  138.6290   71.5420  220.8650 O   0  0  0  0  0  0  0  0  0  0  0  0
  138.9590   72.0050  222.0030 C   0  0  0  0  0  0  0  0  0  0  0  0
  139.0140   73.4650  222.1360 N   0  0  0  0  0  0  0  0  0  0  0  0
  138.6910   74.1910  220.9780 C   0  0  0  0  0  0  0  0  0  0  0  0
  139.4280   75.3520  220.5450 C   0  0  0  0  0  0  0  0  0  0  0  0
  139.0140   75.7840  219.3570 O   0  0  0  0  0  0  0  0  0  0  0  0
  140.4540   76.1090  221.0780 N   0  0  0  0  0  0  0  0  0  0  0  0
  140.5240   76.7850  222.3560 C   0  0  0  0  0  0  0  0  0  0  0  0
  140.2170   78.2450  222.0550 C   0  0  0  0  0  0  0  0  0  0  0  0
  141.0410   78.6400  220.8570 C   0  0  0  0  0  0  0  0  0  0  0  0
  142.1880   77.6810  220.6030 C   0  0  0  0  0  0  0  0  0  0  0  0
  141.6520   76.3230  220.2360 C   0  0  1  0  0  0  0  0  0  0  0  0
  142.6040   75.2280  220.2490 C   0  0  0  0  0  0  0  0  0  0  0  0
  142.1000   73.9350  220.4580 C   0  0  0  0  0  0  0  0  0  0  0  0
  142.9270   72.8320  220.4930 C   0  0  0  0  0  0  0  0  0  0  0  0
  144.2920   72.9530  220.3250 C   0  0  0  0  0  0  0  0  0  0  0  0
  145.1620   71.8720  220.3530 O   0  0  0  0  0  0  0  0  0  0  0  0
  144.8090   74.2150  220.1190 C   0  0  0  0  0  0  0  0  0  0  0  0
  143.9640   75.3140  220.0860 C   0  0  0  0  0  0  0  0  0  0  0  0
  139.2710   71.1620  223.1260 C   0  0  0  0  0  0  0  0  0  0  0  0
  138.9390   69.8350  223.0660 C   0  0  0  0  0  0  0  0  0  0  0  0
  139.2270   69.0050  224.1310 C   0  0  0  0  0  0  0  0  0  0  0  0
  139.8440   69.4950  225.2540 C   0  0  0  0  0  0  0  0  0  0  0  0
  140.1170   68.6420  226.2980 C   0  0  0  0  0  0  0  0  0  0  0  0
  140.7340   69.1570  227.4090 C   0  0  0  0  0  0  0  0  0  0  0  0
  141.1180   68.1370  228.7840 Cl  0  0  0  0  0  0  0  0  0  0  0  0
  141.0660   70.4930  227.4680 C   0  0  0  0  0  0  0  0  0  0  0  0
  140.7780   71.3360  226.3960 C   0  0  0  0  0  0  0  0  0  0  0  0
  140.1660   70.8350  225.2860 C   0  0  0  0  0  0  0  0  0  0  0  0
  139.8780   71.6270  224.2430 N   0  0  0  0  0  0  0  0  0  0  0  0
  139.2710   73.7670  223.0800 H   0  0  0  0  0  0  0  0  0  0  0  0
  138.7423   73.4727  220.1465 H   0  0  0  0  0  0  0  0  0  0  0  0
  137.7265   74.6374  221.2616 H   0  0  0  0  0  0  0  0  0  0  0  0
  139.7803   76.3705  223.0525 H   0  0  0  0  0  0  0  0  0  0  0  0
  141.5083   76.6624  222.8316 H   0  0  0  0  0  0  0  0  0  0  0  0
  139.1467   78.3660  221.8318 H   0  0  0  0  0  0  0  0  0  0  0  0
  140.4596   78.8797  222.9201 H   0  0  0  0  0  0  0  0  0  0  0  0
  140.3904   78.6554  219.9702 H   0  0  0  0  0  0  0  0  0  0  0  0
  141.4714   79.6321  221.0582 H   0  0  0  0  0  0  0  0  0  0  0  0
  142.8068   78.0636  219.7779 H   0  0  0  0  0  0  0  0  0  0  0  0
  142.7955   77.5948  221.5160 H   0  0  0  0  0  0  0  0  0  0  0  0
  141.3887   76.3193  219.1680 H   0  0  0  0  0  0  0  0  0  0  0  0
  141.0175   73.7978  220.5975 H   0  0  0  0  0  0  0  0  0  0  0  0
  142.4904   71.8359  220.6581 H   0  0  0  0  0  0  0  0  0  0  0  0
  145.5670   71.5200  221.2120 H   0  0  0  0  0  0  0  0  0  0  0  0
  145.8919   74.3497  219.9809 H   0  0  0  0  0  0  0  0  0  0  0  0
  144.4071   76.3071  219.9204 H   0  0  0  0  0  0  0  0  0  0  0  0
  138.4437   69.4309  222.1708 H   0  0  0  0  0  0  0  0  0  0  0  0
  138.9589   67.9395  224.0785 H   0  0  0  0  0  0  0  0  0  0  0  0
  139.8480   67.5768  226.2432 H   0  0  0  0  0  0  0  0  0  0  0  0
  141.5601   70.8958  228.3644 H   0  0  0  0  0  0  0  0  0  0  0  0
  141.0438   72.4022  226.4457 H   0  0  0  0  0  0  0  0  0  0  0  0
  1  2  2  0
  2  3  1  0
  3  4  1  0
  4  5  1  0
  5  6  2  0
  5  7  1  0
  7  8  1  0
  8  9  1  0
  9 10  1  0
 10 11  1  0
 11 12  1  0
 12 13  1  0
 13 14  2  0
 14 15  1  0
 15 16  2  0
 16 17  1  0
 16 18  1  0
 18 19  2  0
  2 20  1  0
 20 21  2  0
 21 22  1  0
 22 23  2  0
 23 24  1  0
 24 25  2  0
 25 26  1  0
 25 27  1  0
 27 28  2  0
 28 29  1  0
 29 30  2  0
 12  7  1  0
 19 13  1  0
 30 20  1  0
 29 23  1  0
  3 31  1  0
  4 32  1  0
  4 33  1  0
  8 34  1  0
  8 35  1  0
  9 36  1  0
  9 37  1  0
 10 38  1  0
 10 39  1  0
 11 40  1  0
 11 41  1  0
 12 42  1  6
 14 43  1  0
 15 44  1  0
 17 45  1  0
 18 46  1  0
 19 47  1  0
 21 48  1  0
 22 49  1  0
 24 50  1  0
 27 51  1  0
 28 52  1  0
M  END
>  <smiles>  (68) 
O=C(NCC(=O)N1CCCCC1c1ccc(O)cc1)c1ccc2cc(Cl)ccc2n1

>  <score_type>  (68) 
oracle

>  <origin>  (68) 
autodockgpu

>  <m_score__min__energy>  (68) 
-8.5800000000000001

>  <m_primary>  (68) 
energy

>  <rmsd>  (68) 
2.4631149876005876

>  <m_score__min__rmsd>  (68) 
2.4631149876005876

>  <meeko>  (68) 
{"free_energy": -8.28, "intermolecular_energy": -10.07, "internal_energy": -1.62, "cluster_size": 20, "cluster_id": 1, "rank_in_cluster": 13}

>  <energy>  (68) 
-7.98

>  <cluster_rmsd>  (68) 
0.53

>  <cluster>  (68) 
1

$$$$

     RDKit          3D

 52 55  0  0  0  0  0  0  0  0999 V2000
  140.3100   77.7690  219.0080 O   0  0  0  0  0  0  0  0  0  0  0  0
  141.5740   77.6430  219.0580 C   0  0  0  0  0  0  0  0  0  0  0  0
  142.3590   78.8720  219.2270 N   0  0  0  0  0  0  0  0  0  0  0  0
  141.6120   80.0580  219.3140 C   0  0  0  0  0  0  0  0  0  0  0  0
  140.8170   80.4060  220.4650 C   0  0  0  0  0  0  0  0  0  0  0  0
  139.7500   81.1270  220.1290 O   0  0  0  0  0  0  0  0  0  0  0  0
  140.9090   80.1620  221.8230 N   0  0  0  0  0  0  0  0  0  0  0  0
  140.5630   81.0240  222.9330 C   0  0  0  0  0  0  0  0  0  0  0  0
  141.8830   81.6100  223.4130 C   0  0  0  0  0  0  0  0  0  0  0  0
  142.8690   80.4750  223.5140 C   0  0  0  0  0  0  0  0  0  0  0  0
  142.1890   79.1200  223.5500 C   0  0  0  0  0  0  0  0  0  0  0  0
  141.4830   78.8640  222.2440 C   0  0  1  0  0  0  0  0  0  0  0  0
  140.5490   77.7550  222.2230 C   0  0  0  0  0  0  0  0  0  0  0  0
  141.0730   76.4710  222.0070 C   0  0  0  0  0  0  0  0  0  0  0  0
  140.2640   75.3550  221.9650 C   0  0  0  0  0  0  0  0  0  0  0  0
  138.8970   75.4530  222.1320 C   0  0  0  0  0  0  0  0  0  0  0  0
  138.0440   74.3580  222.0970 O   0  0  0  0  0  0  0  0  0  0  0  0
  138.3600   76.7060  222.3450 C   0  0  0  0  0  0  0  0  0  0  0  0
  139.1870   77.8170  222.3860 C   0  0  0  0  0  0  0  0  0  0  0  0
  142.2360   76.3690  218.9570 C   0  0  0  0  0  0  0  0  0  0  0  0
  141.8070   75.4780  218.0110 C   0  0  0  0  0  0  0  0  0  0  0  0
  142.4250   74.2490  217.8930 C   0  0  0  0  0  0  0  0  0  0  0  0
  143.4660   73.9080  218.7170 C   0  0  0  0  0  0  0  0  0  0  0  0
  144.0610   72.6750  218.5750 C   0  0  0  0  0  0  0  0  0  0  0  0
  145.1010   72.3580  219.4110 C   0  0  0  0  0  0  0  0  0  0  0  0
  145.9130   70.8080  219.2960 Cl  0  0  0  0  0  0  0  0  0  0  0  0
  145.5300   73.2570  220.3640 C   0  0  0  0  0  0  0  0  0  0  0  0
  144.9100   74.4990  220.4860 C   0  0  0  0  0  0  0  0  0  0  0  0
  143.8770   74.8250  219.6610 C   0  0  0  0  0  0  0  0  0  0  0  0
  143.2650   76.0140  219.7610 N   0  0  0  0  0  0  0  0  0  0  0  0
  143.3660   78.6960  219.2740 H   0  0  0  0  0  0  0  0  0  0  0  0
  142.3323   80.8792  219.1846 H   0  0  0  0  0  0  0  0  0  0  0  0
  140.8342   79.8824  218.5562 H   0  0  0  0  0  0  0  0  0  0  0  0
  139.8839   81.8238  222.6026 H   0  0  0  0  0  0  0  0  0  0  0  0
  140.0433   80.4750  223.7321 H   0  0  0  0  0  0  0  0  0  0  0  0
  142.2451   82.3599  222.6943 H   0  0  0  0  0  0  0  0  0  0  0  0
  141.7574   82.1036  224.3880 H   0  0  0  0  0  0  0  0  0  0  0  0
  143.5394   80.5108  222.6426 H   0  0  0  0  0  0  0  0  0  0  0  0
  143.4249   80.5964  224.4554 H   0  0  0  0  0  0  0  0  0  0  0  0
  142.9442   78.3375  223.7155 H   0  0  0  0  0  0  0  0  0  0  0  0
  141.4531   79.1065  224.3675 H   0  0  0  0  0  0  0  0  0  0  0  0
  142.2135   78.4983  221.5073 H   0  0  0  0  0  0  0  0  0  0  0  0
  142.1576   76.3517  221.8675 H   0  0  0  0  0  0  0  0  0  0  0  0
  140.7168   74.3670  221.7950 H   0  0  0  0  0  0  0  0  0  0  0  0
  137.8810   73.7680  222.9040 H   0  0  0  0  0  0  0  0  0  0  0  0
  137.2749   76.8230  222.4823 H   0  0  0  0  0  0  0  0  0  0  0  0
  138.7278   78.8016  222.5584 H   0  0  0  0  0  0  0  0  0  0  0  0
  140.9712   75.7405  217.3457 H   0  0  0  0  0  0  0  0  0  0  0  0
  142.0785   73.5363  217.1301 H   0  0  0  0  0  0  0  0  0  0  0  0
  143.7120   71.9635  217.8121 H   0  0  0  0  0  0  0  0  0  0  0  0
  146.3645   72.9931  221.0303 H   0  0  0  0  0  0  0  0  0  0  0  0
  145.2544   75.2145  221.2472 H   0  0  0  0  0  0  0  0  0  0  0  0
  1  2  2  0
  2  3  1  0
  3  4  1  0
  4  5  1  0
  5  6  2  0
  5  7  1  0
  7  8  1  0
  8  9  1  0
  9 10  1  0
 10 11  1  0
 11 12  1  0
 12 13  1  0
 13 14  2  0
 14 15  1  0
 15 16  2  0
 16 17  1  0
 16 18  1  0
 18 19  2  0
  2 20  1  0
 20 21  2  0
 21 22  1  0
 22 23  2  0
 23 24  1  0
 24 25  2  0
 25 26  1  0
 25 27  1  0
 27 28  2  0
 28 29  1  0
 29 30  2  0
 12  7  1  0
 19 13  1  0
 30 20  1  0
 29 23  1  0
  3 31  1  0
  4 32  1  0
  4 33  1  0
  8 34  1  0
  8 35  1  0
  9 36  1  0
  9 37  1  0
 10 38  1  0
 10 39  1  0
 11 40  1  0
 11 41  1  0
 12 42  1  6
 14 43  1  0
 15 44  1  0
 17 45  1  0
 18 46  1  0
 19 47  1  0
 21 48  1  0
 22 49  1  0
 24 50  1  0
 27 51  1  0
 28 52  1  0
M  END
>  <smiles>  (69) 
O=C(NCC(=O)N1CCCCC1c1ccc(O)cc1)c1ccc2cc(Cl)ccc2n1

>  <score_type>  (69) 
oracle

>  <origin>  (69) 
autodockgpu

>  <m_score__min__energy>  (69) 
-8.5800000000000001

>  <m_primary>  (69) 
energy

>  <rmsd>  (69) 
7.864505664107854

>  <m_score__min__rmsd>  (69) 
7.864505664107854

>  <meeko>  (69) 
{"free_energy": -7.24, "intermolecular_energy": -9.03, "internal_energy": -2.36, "cluster_size": 15, "cluster_id": 6, "rank_in_cluster": 11}

>  <energy>  (69) 
-7.7

>  <cluster_rmsd>  (69) 
0.81

>  <cluster>  (69) 
1

$$$$

     RDKit          3D

 52 55  0  0  0  0  0  0  0  0999 V2000
  139.7000   74.4970  222.0500 O   0  0  0  0  0  0  0  0  0  0  0  0
  140.8790   74.6860  221.6130 C   0  0  0  0  0  0  0  0  0  0  0  0
  141.3830   76.0630  221.6320 N   0  0  0  0  0  0  0  0  0  0  0  0
  140.4930   77.0260  222.1360 C   0  0  0  0  0  0  0  0  0  0  0  0
  140.5690   78.4240  221.7940 C   0  0  0  0  0  0  0  0  0  0  0  0
  139.4840   78.8310  221.1390 O   0  0  0  0  0  0  0  0  0  0  0  0
  141.5010   79.4260  221.9890 N   0  0  0  0  0  0  0  0  0  0  0  0
  142.7100   79.4090  222.7850 C   0  0  0  0  0  0  0  0  0  0  0  0
  142.3490   80.1210  224.0800 C   0  0  0  0  0  0  0  0  0  0  0  0
  141.6120   81.3820  223.7090 C   0  0  0  0  0  0  0  0  0  0  0  0
  141.8330   81.7760  222.2620 C   0  0  0  0  0  0  0  0  0  0  0  0
  141.2390   80.7350  221.3500 C   0  0  1  0  0  0  0  0  0  0  0  0
  141.6170   80.8110  219.9520 C   0  0  0  0  0  0  0  0  0  0  0  0
  141.4490   82.0440  219.3020 C   0  0  0  0  0  0  0  0  0  0  0  0
  141.7750   82.2130  217.9730 C   0  0  0  0  0  0  0  0  0  0  0  0
  142.2810   81.1720  217.2200 C   0  0  0  0  0  0  0  0  0  0  0  0
  142.6230   81.2960  215.8800 O   0  0  0  0  0  0  0  0  0  0  0  0
  142.4540   79.9520  217.8380 C   0  0  0  0  0  0  0  0  0  0  0  0
  142.1220   79.7980  219.1750 C   0  0  0  0  0  0  0  0  0  0  0  0
  141.7060   73.6180  221.1170 C   0  0  0  0  0  0  0  0  0  0  0  0
  141.1520   72.3760  220.9570 C   0  0  0  0  0  0  0  0  0  0  0  0
  141.9240   71.3340  220.4820 C   0  0  0  0  0  0  0  0  0  0  0  0
  143.2440   71.5280  220.1680 C   0  0  0  0  0  0  0  0  0  0  0  0
  143.9870   70.4700  219.6980 C   0  0  0  0  0  0  0  0  0  0  0  0
  145.3050   70.6910  219.3900 C   0  0  0  0  0  0  0  0  0  0  0  0
  146.3210   69.3950  218.7850 Cl  0  0  0  0  0  0  0  0  0  0  0  0
  145.8600   71.9410  219.5520 C   0  0  0  0  0  0  0  0  0  0  0  0
  145.0860   72.9970  220.0310 C   0  0  0  0  0  0  0  0  0  0  0  0
  143.7750   72.7890  220.3390 C   0  0  0  0  0  0  0  0  0  0  0  0
  143.0100   73.7890  220.8010 N   0  0  0  0  0  0  0  0  0  0  0  0
  142.3420   76.1390  221.2810 H   0  0  0  0  0  0  0  0  0  0  0  0
  139.4878   76.6954  221.8357 H   0  0  0  0  0  0  0  0  0  0  0  0
  140.7716   77.0457  223.2000 H   0  0  0  0  0  0  0  0  0  0  0  0
  143.0226   78.3742  222.9886 H   0  0  0  0  0  0  0  0  0  0  0  0
  143.5481   79.8990  222.2678 H   0  0  0  0  0  0  0  0  0  0  0  0
  141.7053   79.4766  224.6968 H   0  0  0  0  0  0  0  0  0  0  0  0
  143.2537   80.3556  224.6601 H   0  0  0  0  0  0  0  0  0  0  0  0
  140.5357   81.2229  223.8714 H   0  0  0  0  0  0  0  0  0  0  0  0
  141.9991   82.1950  224.3408 H   0  0  0  0  0  0  0  0  0  0  0  0
  141.3511   82.7461  222.0706 H   0  0  0  0  0  0  0  0  0  0  0  0
  142.9132   81.8524  222.0687 H   0  0  0  0  0  0  0  0  0  0  0  0
  140.1585   80.9179  221.2548 H   0  0  0  0  0  0  0  0  0  0  0  0
  141.0469   82.8974  219.8677 H   0  0  0  0  0  0  0  0  0  0  0  0
  141.6290   83.1968  217.5032 H   0  0  0  0  0  0  0  0  0  0  0  0
  143.4910   80.9350  215.5030 H   0  0  0  0  0  0  0  0  0  0  0  0
  142.8558   79.1001  217.2698 H   0  0  0  0  0  0  0  0  0  0  0  0
  142.2711   78.8115  219.6382 H   0  0  0  0  0  0  0  0  0  0  0  0
  140.0938   72.2085  221.2064 H   0  0  0  0  0  0  0  0  0  0  0  0
  141.4748   70.3380  220.3543 H   0  0  0  0  0  0  0  0  0  0  0  0
  143.5365   69.4743  219.5727 H   0  0  0  0  0  0  0  0  0  0  0  0
  146.9184   72.1069  219.3024 H   0  0  0  0  0  0  0  0  0  0  0  0
  145.5319   73.9943  220.1598 H   0  0  0  0  0  0  0  0  0  0  0  0
  1  2  2  0
  2  3  1  0
  3  4  1  0
  4  5  1  0
  5  6  2  0
  5  7  1  0
  7  8  1  0
  8  9  1  0
  9 10  1  0
 10 11  1  0
 11 12  1  0
 12 13  1  0
 13 14  2  0
 14 15  1  0
 15 16  2  0
 16 17  1  0
 16 18  1  0
 18 19  2  0
  2 20  1  0
 20 21  2  0
 21 22  1  0
 22 23  2  0
 23 24  1  0
 24 25  2  0
 25 26  1  0
 25 27  1  0
 27 28  2  0
 28 29  1  0
 29 30  2  0
 12  7  1  0
 19 13  1  0
 30 20  1  0
 29 23  1  0
  3 31  1  0
  4 32  1  0
  4 33  1  0
  8 34  1  0
  8 35  1  0
  9 36  1  0
  9 37  1  0
 10 38  1  0
 10 39  1  0
 11 40  1  0
 11 41  1  0
 12 42  1  6
 14 43  1  0
 15 44  1  0
 17 45  1  0
 18 46  1  0
 19 47  1  0
 21 48  1  0
 22 49  1  0
 24 50  1  0
 27 51  1  0
 28 52  1  0
M  END
>  <smiles>  (70) 
O=C(NCC(=O)N1CCCCC1c1ccc(O)cc1)c1ccc2cc(Cl)ccc2n1

>  <score_type>  (70) 
oracle

>  <origin>  (70) 
autodockgpu

>  <m_score__min__energy>  (70) 
-8.5800000000000001

>  <m_primary>  (70) 
energy

>  <rmsd>  (70) 
6.51036348667037

>  <m_score__min__rmsd>  (70) 
6.51036348667037

>  <meeko>  (70) 
{"free_energy": -7.97, "intermolecular_energy": -9.76, "internal_energy": -1.46, "cluster_size": 4, "cluster_id": 3, "rank_in_cluster": 1}

>  <energy>  (70) 
-7.31

>  <cluster_rmsd>  (70) 
1.32

>  <cluster>  (70) 
1

$$$$

     RDKit          3D

 52 55  0  0  0  0  0  0  0  0999 V2000
  139.5790   72.0220  220.7120 O   0  0  0  0  0  0  0  0  0  0  0  0
  139.6400   72.4210  221.9180 C   0  0  0  0  0  0  0  0  0  0  0  0
  139.5530   73.8680  222.1450 N   0  0  0  0  0  0  0  0  0  0  0  0
  139.4110   74.6540  220.9890 C   0  0  0  0  0  0  0  0  0  0  0  0
  139.1330   76.0680  221.0270 C   0  0  0  0  0  0  0  0  0  0  0  0
  139.5310   76.6790  219.9140 O   0  0  0  0  0  0  0  0  0  0  0  0
  138.5530   76.9220  221.9460 N   0  0  0  0  0  0  0  0  0  0  0  0
  137.7190   76.6100  223.0870 C   0  0  0  0  0  0  0  0  0  0  0  0
  136.2930   76.8750  222.6260 C   0  0  0  0  0  0  0  0  0  0  0  0
  136.2860   78.2100  221.9290 C   0  0  0  0  0  0  0  0  0  0  0  0
  137.5060   79.0450  222.2680 C   0  0  0  0  0  0  0  0  0  0  0  0
  138.7490   78.3750  221.7430 C   0  0  1  0  0  0  0  0  0  0  0  0
  140.0140   78.8890  222.2330 C   0  0  0  0  0  0  0  0  0  0  0  0
  140.7480   79.7260  221.3780 C   0  0  0  0  0  0  0  0  0  0  0  0
  141.9640   80.2580  221.7530 C   0  0  0  0  0  0  0  0  0  0  0  0
  142.5140   79.9880  222.9900 C   0  0  0  0  0  0  0  0  0  0  0  0
  143.7340   80.5010  223.4090 O   0  0  0  0  0  0  0  0  0  0  0  0
  141.8100   79.1680  223.8460 C   0  0  0  0  0  0  0  0  0  0  0  0
  140.5890   78.6410  223.4550 C   0  0  0  0  0  0  0  0  0  0  0  0
  139.7860   71.5210  223.0310 C   0  0  0  0  0  0  0  0  0  0  0  0
  139.4070   70.2150  222.8750 C   0  0  0  0  0  0  0  0  0  0  0  0
  139.5380   69.3300  223.9270 C   0  0  0  0  0  0  0  0  0  0  0  0
  140.0440   69.7460  225.1320 C   0  0  0  0  0  0  0  0  0  0  0  0
  140.1610   68.8410  226.1610 C   0  0  0  0  0  0  0  0  0  0  0  0
  140.6700   69.2810  227.3560 C   0  0  0  0  0  0  0  0  0  0  0  0
  140.8520   68.1910  228.7180 Cl  0  0  0  0  0  0  0  0  0  0  0  0
  141.0500   70.5970  227.5110 C   0  0  0  0  0  0  0  0  0  0  0  0
  140.9210   71.4940  226.4510 C   0  0  0  0  0  0  0  0  0  0  0  0
  140.4170   71.0670  225.2600 C   0  0  0  0  0  0  0  0  0  0  0  0
  140.2830   71.9120  224.2270 N   0  0  0  0  0  0  0  0  0  0  0  0
  139.5920   74.1170  223.1370 H   0  0  0  0  0  0  0  0  0  0  0  0
  140.3535   74.5459  220.4322 H   0  0  0  0  0  0  0  0  0  0  0  0
  138.4744   74.2583  220.5692 H   0  0  0  0  0  0  0  0  0  0  0  0
  137.8408   75.5558  223.3766 H   0  0  0  0  0  0  0  0  0  0  0  0
  137.9847   77.2143  223.9669 H   0  0  0  0  0  0  0  0  0  0  0  0
  135.9698   76.0862  221.9308 H   0  0  0  0  0  0  0  0  0  0  0  0
  135.6025   76.8802  223.4823 H   0  0  0  0  0  0  0  0  0  0  0  0
  136.2642   78.0411  220.8423 H   0  0  0  0  0  0  0  0  0  0  0  0
  135.3969   78.7614  222.2688 H   0  0  0  0  0  0  0  0  0  0  0  0
  137.4062   80.0395  221.8087 H   0  0  0  0  0  0  0  0  0  0  0  0
  137.5833   79.1456  223.3607 H   0  0  0  0  0  0  0  0  0  0  0  0
  138.8599   78.6120  220.6746 H   0  0  0  0  0  0  0  0  0  0  0  0
  140.3430   79.9637  220.3833 H   0  0  0  0  0  0  0  0  0  0  0  0
  142.5062   80.9103  221.0526 H   0  0  0  0  0  0  0  0  0  0  0  0
  143.9750   80.6050  224.3880 H   0  0  0  0  0  0  0  0  0  0  0  0
  142.2175   78.9318  224.8400 H   0  0  0  0  0  0  0  0  0  0  0  0
  140.0525   77.9899  224.1608 H   0  0  0  0  0  0  0  0  0  0  0  0
  138.9988   69.8710  221.9132 H   0  0  0  0  0  0  0  0  0  0  0  0
  139.2335   68.2810  223.7972 H   0  0  0  0  0  0  0  0  0  0  0  0
  139.8546   67.7928  226.0291 H   0  0  0  0  0  0  0  0  0  0  0  0
  141.4562   70.9407  228.4737 H   0  0  0  0  0  0  0  0  0  0  0  0
  141.2255   72.5435  226.5765 H   0  0  0  0  0  0  0  0  0  0  0  0
  1  2  2  0
  2  3  1  0
  3  4  1  0
  4  5  1  0
  5  6  2  0
  5  7  1  0
  7  8  1  0
  8  9  1  0
  9 10  1  0
 10 11  1  0
 11 12  1  0
 12 13  1  0
 13 14  2  0
 14 15  1  0
 15 16  2  0
 16 17  1  0
 16 18  1  0
 18 19  2  0
  2 20  1  0
 20 21  2  0
 21 22  1  0
 22 23  2  0
 23 24  1  0
 24 25  2  0
 25 26  1  0
 25 27  1  0
 27 28  2  0
 28 29  1  0
 29 30  2  0
 12  7  1  0
 19 13  1  0
 30 20  1  0
 29 23  1  0
  3 31  1  0
  4 32  1  0
  4 33  1  0
  8 34  1  0
  8 35  1  0
  9 36  1  0
  9 37  1  0
 10 38  1  0
 10 39  1  0
 11 40  1  0
 11 41  1  0
 12 42  1  6
 14 43  1  0
 15 44  1  0
 17 45  1  0
 18 46  1  0
 19 47  1  0
 21 48  1  0
 22 49  1  0
 24 50  1  0
 27 51  1  0
 28 52  1  0
M  END
>  <smiles>  (71) 
O=C(NCC(=O)N1CCCCC1c1ccc(O)cc1)c1ccc2cc(Cl)ccc2n1

>  <score_type>  (71) 
oracle

>  <origin>  (71) 
autodockgpu

>  <m_score__min__energy>  (71) 
-8.5800000000000001

>  <m_primary>  (71) 
energy

>  <rmsd>  (71) 
3.338032036245536

>  <m_score__min__rmsd>  (71) 
3.338032036245536

>  <meeko>  (71) 
{"free_energy": -7.79, "intermolecular_energy": -9.57, "internal_energy": -1.45, "cluster_size": 7, "cluster_id": 2, "rank_in_cluster": 4}

>  <energy>  (71) 
-8.26

>  <cluster_rmsd>  (71) 
0.0

>  <cluster>  (71) 
2

$$$$

     RDKit          3D

 52 55  0  0  0  0  0  0  0  0999 V2000
  139.2440   71.8610  220.6830 O   0  0  0  0  0  0  0  0  0  0  0  0
  139.4150   72.3010  221.8640 C   0  0  0  0  0  0  0  0  0  0  0  0
  139.3940   73.7570  222.0410 N   0  0  0  0  0  0  0  0  0  0  0  0
  139.1850   74.5060  220.8710 C   0  0  0  0  0  0  0  0  0  0  0  0
  138.8770   75.9140  220.8820 C   0  0  0  0  0  0  0  0  0  0  0  0
  139.1020   76.4770  219.6970 O   0  0  0  0  0  0  0  0  0  0  0  0
  138.4070   76.8010  221.8310 N   0  0  0  0  0  0  0  0  0  0  0  0
  137.7340   76.5300  223.0840 C   0  0  0  0  0  0  0  0  0  0  0  0
  136.2550   76.7570  222.8020 C   0  0  0  0  0  0  0  0  0  0  0  0
  136.1350   78.0610  222.0560 C   0  0  0  0  0  0  0  0  0  0  0  0
  137.3740   78.9240  222.1970 C   0  0  0  0  0  0  0  0  0  0  0  0
  138.5500   78.2460  221.5440 C   0  0  1  0  0  0  0  0  0  0  0  0
  139.8580   78.7960  221.8420 C   0  0  0  0  0  0  0  0  0  0  0  0
  140.5230   78.3040  222.9760 C   0  0  0  0  0  0  0  0  0  0  0  0
  141.7690   78.7690  223.3450 C   0  0  0  0  0  0  0  0  0  0  0  0
  142.4170   79.7420  222.6110 C   0  0  0  0  0  0  0  0  0  0  0  0
  143.6690   80.2390  222.9440 O   0  0  0  0  0  0  0  0  0  0  0  0
  141.7820   80.2400  221.4930 C   0  0  0  0  0  0  0  0  0  0  0  0
  140.5300   79.7620  221.1360 C   0  0  0  0  0  0  0  0  0  0  0  0
  139.6210   71.4360  222.9950 C   0  0  0  0  0  0  0  0  0  0  0  0
  139.2570   70.1200  222.8930 C   0  0  0  0  0  0  0  0  0  0  0  0
  139.4450   69.2690  223.9640 C   0  0  0  0  0  0  0  0  0  0  0  0
  139.9930   69.7270  225.1340 C   0  0  0  0  0  0  0  0  0  0  0  0
  140.1670   68.8550  226.1830 C   0  0  0  0  0  0  0  0  0  0  0  0
  140.7170   69.3380  227.3430 C   0  0  0  0  0  0  0  0  0  0  0  0
  140.9720   68.2910  228.7270 Cl  0  0  0  0  0  0  0  0  0  0  0  0
  141.0820   70.6630  227.4430 C   0  0  0  0  0  0  0  0  0  0  0  0
  140.8950   71.5260  226.3650 C   0  0  0  0  0  0  0  0  0  0  0  0
  140.3500   71.0570  225.2080 C   0  0  0  0  0  0  0  0  0  0  0  0
  140.1600   71.8690  224.1580 N   0  0  0  0  0  0  0  0  0  0  0  0
  139.5220   74.0400  223.0170 H   0  0  0  0  0  0  0  0  0  0  0  0
  140.1050   74.4022  220.2770 H   0  0  0  0  0  0  0  0  0  0  0  0
  138.2407   74.0783  220.5032 H   0  0  0  0  0  0  0  0  0  0  0  0
  137.9112   75.4913  223.3999 H   0  0  0  0  0  0  0  0  0  0  0  0
  138.1010   77.1760  223.8951 H   0  0  0  0  0  0  0  0  0  0  0  0
  135.8584   75.9346  222.1885 H   0  0  0  0  0  0  0  0  0  0  0  0
  135.6809   76.7910  223.7397 H   0  0  0  0  0  0  0  0  0  0  0  0
  135.9749   77.8444  220.9895 H   0  0  0  0  0  0  0  0  0  0  0  0
  135.2886   78.6166  222.4860 H   0  0  0  0  0  0  0  0  0  0  0  0
  137.1983   79.8958  221.7124 H   0  0  0  0  0  0  0  0  0  0  0  0
  137.5905   79.0739  223.2650 H   0  0  0  0  0  0  0  0  0  0  0  0
  138.5177   78.4369  220.4612 H   0  0  0  0  0  0  0  0  0  0  0  0
  140.0385   77.5277  223.5864 H   0  0  0  0  0  0  0  0  0  0  0  0
  142.2550   78.3563  224.2413 H   0  0  0  0  0  0  0  0  0  0  0  0
  144.4760   80.1320  222.3410 H   0  0  0  0  0  0  0  0  0  0  0  0
  142.2684   81.0164  220.8842 H   0  0  0  0  0  0  0  0  0  0  0  0
  140.0499   80.1796  220.2388 H   0  0  0  0  0  0  0  0  0  0  0  0
  138.8155   69.7413  221.9594 H   0  0  0  0  0  0  0  0  0  0  0  0
  139.1519   68.2123  223.8774 H   0  0  0  0  0  0  0  0  0  0  0  0
  139.8731   67.7987  226.0942 H   0  0  0  0  0  0  0  0  0  0  0  0
  141.5227   71.0409  228.3773 H   0  0  0  0  0  0  0  0  0  0  0  0
  141.1868   72.5833  226.4481 H   0  0  0  0  0  0  0  0  0  0  0  0
  1  2  2  0
  2  3  1  0
  3  4  1  0
  4  5  1  0
  5  6  2  0
  5  7  1  0
  7  8  1  0
  8  9  1  0
  9 10  1  0
 10 11  1  0
 11 12  1  0
 12 13  1  0
 13 14  2  0
 14 15  1  0
 15 16  2  0
 16 17  1  0
 16 18  1  0
 18 19  2  0
  2 20  1  0
 20 21  2  0
 21 22  1  0
 22 23  2  0
 23 24  1  0
 24 25  2  0
 25 26  1  0
 25 27  1  0
 27 28  2  0
 28 29  1  0
 29 30  2  0
 12  7  1  0
 19 13  1  0
 30 20  1  0
 29 23  1  0
  3 31  1  0
  4 32  1  0
  4 33  1  0
  8 34  1  0
  8 35  1  0
  9 36  1  0
  9 37  1  0
 10 38  1  0
 10 39  1  0
 11 40  1  0
 11 41  1  0
 12 42  1  6
 14 43  1  0
 15 44  1  0
 17 45  1  0
 18 46  1  0
 19 47  1  0
 21 48  1  0
 22 49  1  0
 24 50  1  0
 27 51  1  0
 28 52  1  0
M  END
>  <smiles>  (72) 
O=C(NCC(=O)N1CCCCC1c1ccc(O)cc1)c1ccc2cc(Cl)ccc2n1

>  <score_type>  (72) 
oracle

>  <origin>  (72) 
autodockgpu

>  <m_score__min__energy>  (72) 
-8.5800000000000001

>  <m_primary>  (72) 
energy

>  <rmsd>  (72) 
3.333397258013608

>  <m_score__min__rmsd>  (72) 
3.333397258013608

>  <meeko>  (72) 
{"free_energy": -8.05, "intermolecular_energy": -9.84, "internal_energy": -1.49, "cluster_size": 7, "cluster_id": 2, "rank_in_cluster": 3}

>  <energy>  (72) 
-8.08

>  <cluster_rmsd>  (72) 
1.88

>  <cluster>  (72) 
2

$$$$

     RDKit          3D

 52 55  0  0  0  0  0  0  0  0999 V2000
  138.5370   72.4190  221.1470 O   0  0  0  0  0  0  0  0  0  0  0  0
  139.4450   72.5360  222.0290 C   0  0  0  0  0  0  0  0  0  0  0  0
  140.3670   73.6690  221.8890 N   0  0  0  0  0  0  0  0  0  0  0  0
  140.1360   74.5020  220.7810 C   0  0  0  0  0  0  0  0  0  0  0  0
  139.1920   75.5910  220.7980 C   0  0  0  0  0  0  0  0  0  0  0  0
  138.7130   75.8470  219.5830 O   0  0  0  0  0  0  0  0  0  0  0  0
  138.6760   76.4190  221.7780 N   0  0  0  0  0  0  0  0  0  0  0  0
  138.0410   76.0690  223.0310 C   0  0  0  0  0  0  0  0  0  0  0  0
  136.5470   76.2020  222.7750 C   0  0  0  0  0  0  0  0  0  0  0  0
  136.3280   77.5140  222.0660 C   0  0  0  0  0  0  0  0  0  0  0  0
  137.5070   78.4560  222.2140 C   0  0  0  0  0  0  0  0  0  0  0  0
  138.7160   77.8770  221.5280 C   0  0  1  0  0  0  0  0  0  0  0  0
  139.9890   78.5060  221.8240 C   0  0  0  0  0  0  0  0  0  0  0  0
  140.6360   78.1290  223.0110 C   0  0  0  0  0  0  0  0  0  0  0  0
  141.8470   78.6770  223.3810 C   0  0  0  0  0  0  0  0  0  0  0  0
  142.4760   79.6230  222.5980 C   0  0  0  0  0  0  0  0  0  0  0  0
  143.6940   80.2000  222.9310 O   0  0  0  0  0  0  0  0  0  0  0  0
  141.8580   80.0080  221.4270 C   0  0  0  0  0  0  0  0  0  0  0  0
  140.6420   79.4480  221.0680 C   0  0  0  0  0  0  0  0  0  0  0  0
  139.5880   71.6180  223.1270 C   0  0  0  0  0  0  0  0  0  0  0  0
  139.0820   70.3520  222.9970 C   0  0  0  0  0  0  0  0  0  0  0  0
  139.2060   69.4510  224.0360 C   0  0  0  0  0  0  0  0  0  0  0  0
  139.8320   69.8100  225.2020 C   0  0  0  0  0  0  0  0  0  0  0  0
  139.9390   68.8900  226.2190 C   0  0  0  0  0  0  0  0  0  0  0  0
  140.5690   69.2730  227.3750 C   0  0  0  0  0  0  0  0  0  0  0  0
  140.7480   68.1600  228.7190 Cl  0  0  0  0  0  0  0  0  0  0  0  0
  141.0770   70.5480  227.5040 C   0  0  0  0  0  0  0  0  0  0  0  0
  140.9550   71.4610  226.4590 C   0  0  0  0  0  0  0  0  0  0  0  0
  140.3310   71.0910  225.3050 C   0  0  0  0  0  0  0  0  0  0  0  0
  140.2010   71.9530  224.2860 N   0  0  0  0  0  0  0  0  0  0  0  0
  141.0610   73.7110  222.6400 H   0  0  0  0  0  0  0  0  0  0  0  0
  141.1093   74.9492  220.5306 H   0  0  0  0  0  0  0  0  0  0  0  0
  139.6534   73.8050  220.0801 H   0  0  0  0  0  0  0  0  0  0  0  0
  138.2928   75.0366  223.3154 H   0  0  0  0  0  0  0  0  0  0  0  0
  138.3751   76.7166  223.8550 H   0  0  0  0  0  0  0  0  0  0  0  0
  136.1978   75.3708  222.1448 H   0  0  0  0  0  0  0  0  0  0  0  0
  135.9860   76.1724  223.7207 H   0  0  0  0  0  0  0  0  0  0  0  0
  136.1674   77.3147  220.9962 H   0  0  0  0  0  0  0  0  0  0  0  0
  135.4524   77.9991  222.5220 H   0  0  0  0  0  0  0  0  0  0  0  0
  137.2585   79.4256  221.7579 H   0  0  0  0  0  0  0  0  0  0  0  0
  137.7285   78.5932  223.2827 H   0  0  0  0  0  0  0  0  0  0  0  0
  138.6540   78.0941  220.4514 H   0  0  0  0  0  0  0  0  0  0  0  0
  140.1659   77.3778  223.6627 H   0  0  0  0  0  0  0  0  0  0  0  0
  142.3207   78.3530  224.3194 H   0  0  0  0  0  0  0  0  0  0  0  0
  144.5240   80.0880  222.3610 H   0  0  0  0  0  0  0  0  0  0  0  0
  142.3302   80.7598  220.7775 H   0  0  0  0  0  0  0  0  0  0  0  0
  140.1753   79.7757  220.1274 H   0  0  0  0  0  0  0  0  0  0  0  0
  138.5775   70.0534  222.0662 H   0  0  0  0  0  0  0  0  0  0  0  0
  138.7985   68.4351  223.9272 H   0  0  0  0  0  0  0  0  0  0  0  0
  139.5303   67.8748  226.1079 H   0  0  0  0  0  0  0  0  0  0  0  0
  141.5806   70.8455  228.4356 H   0  0  0  0  0  0  0  0  0  0  0  0
  141.3611   72.4778  226.5648 H   0  0  0  0  0  0  0  0  0  0  0  0
  1  2  2  0
  2  3  1  0
  3  4  1  0
  4  5  1  0
  5  6  2  0
  5  7  1  0
  7  8  1  0
  8  9  1  0
  9 10  1  0
 10 11  1  0
 11 12  1  0
 12 13  1  0
 13 14  2  0
 14 15  1  0
 15 16  2  0
 16 17  1  0
 16 18  1  0
 18 19  2  0
  2 20  1  0
 20 21  2  0
 21 22  1  0
 22 23  2  0
 23 24  1  0
 24 25  2  0
 25 26  1  0
 25 27  1  0
 27 28  2  0
 28 29  1  0
 29 30  2  0
 12  7  1  0
 19 13  1  0
 30 20  1  0
 29 23  1  0
  3 31  1  0
  4 32  1  0
  4 33  1  0
  8 34  1  0
  8 35  1  0
  9 36  1  0
  9 37  1  0
 10 38  1  0
 10 39  1  0
 11 40  1  0
 11 41  1  0
 12 42  1  6
 14 43  1  0
 15 44  1  0
 17 45  1  0
 18 46  1  0
 19 47  1  0
 21 48  1  0
 22 49  1  0
 24 50  1  0
 27 51  1  0
 28 52  1  0
M  END
>  <smiles>  (73) 
O=C(NCC(=O)N1CCCCC1c1ccc(O)cc1)c1ccc2cc(Cl)ccc2n1

>  <score_type>  (73) 
oracle

>  <origin>  (73) 
autodockgpu

>  <m_score__min__energy>  (73) 
-8.5800000000000001

>  <m_primary>  (73) 
energy

>  <rmsd>  (73) 
3.3006808493529824

>  <m_score__min__rmsd>  (73) 
3.3006808493529824

>  <meeko>  (73) 
{"free_energy": -7.53, "intermolecular_energy": -9.32, "internal_energy": -1.66, "cluster_size": 7, "cluster_id": 2, "rank_in_cluster": 7}

>  <energy>  (73) 
-8.05

>  <cluster_rmsd>  (73) 
1.88

>  <cluster>  (73) 
2

$$$$

     RDKit          3D

 52 55  0  0  0  0  0  0  0  0999 V2000
  140.1980   72.5220  220.7850 O   0  0  0  0  0  0  0  0  0  0  0  0
  139.9090   72.8450  221.9800 C   0  0  0  0  0  0  0  0  0  0  0  0
  139.4980   74.2340  222.2120 N   0  0  0  0  0  0  0  0  0  0  0  0
  139.4720   75.0560  221.0740 C   0  0  0  0  0  0  0  0  0  0  0  0
  139.7340   76.4730  221.1190 C   0  0  0  0  0  0  0  0  0  0  0  0
  139.3740   77.0040  222.2850 O   0  0  0  0  0  0  0  0  0  0  0  0
  140.2680   77.3940  220.2370 N   0  0  0  0  0  0  0  0  0  0  0  0
  139.6700   77.9850  219.0580 C   0  0  0  0  0  0  0  0  0  0  0  0
  140.2480   77.2090  217.8830 C   0  0  0  0  0  0  0  0  0  0  0  0
  141.7350   77.1040  218.1020 C   0  0  0  0  0  0  0  0  0  0  0  0
  142.2450   78.1170  219.1080 C   0  0  0  0  0  0  0  0  0  0  0  0
  141.6640   77.8280  220.4670 C   0  0  1  0  0  0  0  0  0  0  0  0
  141.8160   78.8670  221.4680 C   0  0  0  0  0  0  0  0  0  0  0  0
  141.7750   78.4780  222.8160 C   0  0  0  0  0  0  0  0  0  0  0  0
  141.9050   79.3940  223.8390 C   0  0  0  0  0  0  0  0  0  0  0  0
  142.0810   80.7390  223.5800 C   0  0  0  0  0  0  0  0  0  0  0  0
  142.2160   81.6960  224.5760 O   0  0  0  0  0  0  0  0  0  0  0  0
  142.1250   81.1430  222.2620 C   0  0  0  0  0  0  0  0  0  0  0  0
  141.9940   80.2100  221.2450 C   0  0  0  0  0  0  0  0  0  0  0  0
  139.9710   71.9150  223.0750 C   0  0  0  0  0  0  0  0  0  0  0  0
  139.5170   70.6380  222.8810 C   0  0  0  0  0  0  0  0  0  0  0  0
  139.5670   69.7250  223.9160 C   0  0  0  0  0  0  0  0  0  0  0  0
  140.0650   70.0830  225.1420 C   0  0  0  0  0  0  0  0  0  0  0  0
  140.1000   69.1520  226.1530 C   0  0  0  0  0  0  0  0  0  0  0  0
  140.6040   69.5350  227.3700 C   0  0  0  0  0  0  0  0  0  0  0  0
  140.6840   68.4080  228.7110 Cl  0  0  0  0  0  0  0  0  0  0  0  0
  141.0590   70.8220  227.5630 C   0  0  0  0  0  0  0  0  0  0  0  0
  141.0130   71.7470  226.5220 C   0  0  0  0  0  0  0  0  0  0  0  0
  140.5150   71.3760  225.3090 C   0  0  0  0  0  0  0  0  0  0  0  0
  140.4600   72.2490  224.2920 N   0  0  0  0  0  0  0  0  0  0  0  0
  139.2650   74.4200  223.1920 H   0  0  0  0  0  0  0  0  0  0  0  0
  140.2125   74.6335  220.3789 H   0  0  0  0  0  0  0  0  0  0  0  0
  138.4025   75.0396  220.8171 H   0  0  0  0  0  0  0  0  0  0  0  0
  138.5754   77.8807  219.0876 H   0  0  0  0  0  0  0  0  0  0  0  0
  139.8851   79.0613  218.9845 H   0  0  0  0  0  0  0  0  0  0  0  0
  139.8022   76.2043  217.8398 H   0  0  0  0  0  0  0  0  0  0  0  0
  140.0298   77.7205  216.9339 H   0  0  0  0  0  0  0  0  0  0  0  0
  141.9672   76.0936  218.4696 H   0  0  0  0  0  0  0  0  0  0  0  0
  142.2303   77.3076  217.1411 H   0  0  0  0  0  0  0  0  0  0  0  0
  143.3422   78.0581  219.1605 H   0  0  0  0  0  0  0  0  0  0  0  0
  141.9411   79.1257  218.7916 H   0  0  0  0  0  0  0  0  0  0  0  0
  142.2516   77.0300  220.9444 H   0  0  0  0  0  0  0  0  0  0  0  0
  141.6356   77.4152  223.0629 H   0  0  0  0  0  0  0  0  0  0  0  0
  141.8677   79.0462  224.8819 H   0  0  0  0  0  0  0  0  0  0  0  0
  141.4310   82.0290  225.1220 H   0  0  0  0  0  0  0  0  0  0  0  0
  142.2642   82.2064  222.0176 H   0  0  0  0  0  0  0  0  0  0  0  0
  142.0348   80.5644  220.2044 H   0  0  0  0  0  0  0  0  0  0  0  0
  139.1131   70.3397  221.9023 H   0  0  0  0  0  0  0  0  0  0  0  0
  139.2033   68.6994  223.7549 H   0  0  0  0  0  0  0  0  0  0  0  0
  139.7337   68.1276  225.9904 H   0  0  0  0  0  0  0  0  0  0  0  0
  141.4601   71.1199  228.5430 H   0  0  0  0  0  0  0  0  0  0  0  0
  141.3773   72.7730  226.6787 H   0  0  0  0  0  0  0  0  0  0  0  0
  1  2  2  0
  2  3  1  0
  3  4  1  0
  4  5  1  0
  5  6  2  0
  5  7  1  0
  7  8  1  0
  8  9  1  0
  9 10  1  0
 10 11  1  0
 11 12  1  0
 12 13  1  0
 13 14  2  0
 14 15  1  0
 15 16  2  0
 16 17  1  0
 16 18  1  0
 18 19  2  0
  2 20  1  0
 20 21  2  0
 21 22  1  0
 22 23  2  0
 23 24  1  0
 24 25  2  0
 25 26  1  0
 25 27  1  0
 27 28  2  0
 28 29  1  0
 29 30  2  0
 12  7  1  0
 19 13  1  0
 30 20  1  0
 29 23  1  0
  3 31  1  0
  4 32  1  0
  4 33  1  0
  8 34  1  0
  8 35  1  0
  9 36  1  0
  9 37  1  0
 10 38  1  0
 10 39  1  0
 11 40  1  0
 11 41  1  0
 12 42  1  1
 14 43  1  0
 15 44  1  0
 17 45  1  0
 18 46  1  0
 19 47  1  0
 21 48  1  0
 22 49  1  0
 24 50  1  0
 27 51  1  0
 28 52  1  0
M  END
>  <smiles>  (74) 
O=C(NCC(=O)N1CCCCC1c1ccc(O)cc1)c1ccc2cc(Cl)ccc2n1

>  <score_type>  (74) 
oracle

>  <origin>  (74) 
autodockgpu

>  <m_score__min__energy>  (74) 
-8.5800000000000001

>  <m_primary>  (74) 
energy

>  <rmsd>  (74) 
1.9055104558035936

>  <m_score__min__rmsd>  (74) 
1.9055104558035936

>  <meeko>  (74) 
{"free_energy": -8.26, "intermolecular_energy": -10.05, "internal_energy": -1.4, "cluster_size": 7, "cluster_id": 2, "rank_in_cluster": 1}

>  <energy>  (74) 
-7.79

>  <cluster_rmsd>  (74) 
1.71

>  <cluster>  (74) 
2

$$$$

     RDKit          3D

 52 55  0  0  0  0  0  0  0  0999 V2000
  140.4520   77.8260  218.2560 O   0  0  0  0  0  0  0  0  0  0  0  0
  141.5660   77.6130  218.8300 C   0  0  0  0  0  0  0  0  0  0  0  0
  142.1550   78.7300  219.5760 N   0  0  0  0  0  0  0  0  0  0  0  0
  141.4110   79.9210  219.5690 C   0  0  0  0  0  0  0  0  0  0  0  0
  140.9050   80.5410  220.7680 C   0  0  0  0  0  0  0  0  0  0  0  0
  140.2280   81.6550  220.5000 O   0  0  0  0  0  0  0  0  0  0  0  0
  140.9620   80.2440  222.1170 N   0  0  0  0  0  0  0  0  0  0  0  0
  140.5930   81.0640  223.2510 C   0  0  0  0  0  0  0  0  0  0  0  0
  141.9030   81.6230  223.7860 C   0  0  0  0  0  0  0  0  0  0  0  0
  142.8800   80.4790  223.8670 C   0  0  0  0  0  0  0  0  0  0  0  0
  142.1920   79.1280  223.8330 C   0  0  0  0  0  0  0  0  0  0  0  0
  141.5180   78.9270  222.5020 C   0  0  1  0  0  0  0  0  0  0  0  0
  140.5790   77.8250  222.4140 C   0  0  0  0  0  0  0  0  0  0  0  0
  141.0820   76.5760  222.0200 C   0  0  0  0  0  0  0  0  0  0  0  0
  140.2660   75.4700  221.9020 C   0  0  0  0  0  0  0  0  0  0  0  0
  138.9130   75.5460  222.1670 C   0  0  0  0  0  0  0  0  0  0  0  0
  138.0540   74.4600  222.0620 O   0  0  0  0  0  0  0  0  0  0  0  0
  138.3970   76.7640  222.5570 C   0  0  0  0  0  0  0  0  0  0  0  0
  139.2310   77.8660  222.6710 C   0  0  0  0  0  0  0  0  0  0  0  0
  142.2430   76.3450  218.7700 C   0  0  0  0  0  0  0  0  0  0  0  0
  141.8820   75.4510  217.7980 C   0  0  0  0  0  0  0  0  0  0  0  0
  142.5170   74.2270  217.7180 C   0  0  0  0  0  0  0  0  0  0  0  0
  143.5080   73.8940  218.6050 C   0  0  0  0  0  0  0  0  0  0  0  0
  144.1200   72.6670  218.5000 C   0  0  0  0  0  0  0  0  0  0  0  0
  145.1090   72.3570  219.3990 C   0  0  0  0  0  0  0  0  0  0  0  0
  145.9400   70.8140  219.3330 Cl  0  0  0  0  0  0  0  0  0  0  0  0
  145.4700   73.2580  220.3770 C   0  0  0  0  0  0  0  0  0  0  0  0
  144.8330   74.4950  220.4620 C   0  0  0  0  0  0  0  0  0  0  0  0
  143.8500   74.8130  219.5730 C   0  0  0  0  0  0  0  0  0  0  0  0
  143.2230   75.9970  219.6350 N   0  0  0  0  0  0  0  0  0  0  0  0
  143.0420   78.4840  220.0240 H   0  0  0  0  0  0  0  0  0  0  0  0
  142.0506   80.6743  219.0859 H   0  0  0  0  0  0  0  0  0  0  0  0
  140.4802   79.5944  219.0823 H   0  0  0  0  0  0  0  0  0  0  0  0
  139.9262   81.8800  222.9356 H   0  0  0  0  0  0  0  0  0  0  0  0
  140.0511   80.4872  224.0149 H   0  0  0  0  0  0  0  0  0  0  0  0
  142.2868   82.3980  223.1063 H   0  0  0  0  0  0  0  0  0  0  0  0
  141.7556   82.0793  224.7760 H   0  0  0  0  0  0  0  0  0  0  0  0
  143.5722   80.5445  223.0146 H   0  0  0  0  0  0  0  0  0  0  0  0
  143.4128   80.5601  224.8259 H   0  0  0  0  0  0  0  0  0  0  0  0
  142.9386   78.3350  223.9867 H   0  0  0  0  0  0  0  0  0  0  0  0
  141.4356   79.0878  224.6306 H   0  0  0  0  0  0  0  0  0  0  0  0
  142.2649   78.5851  221.7704 H   0  0  0  0  0  0  0  0  0  0  0  0
  142.1550   76.4760  221.7994 H   0  0  0  0  0  0  0  0  0  0  0  0
  140.7016   74.5090  221.5908 H   0  0  0  0  0  0  0  0  0  0  0  0
  137.8480   73.8510  222.8450 H   0  0  0  0  0  0  0  0  0  0  0  0
  137.3238   76.8614  222.7777 H   0  0  0  0  0  0  0  0  0  0  0  0
  138.7892   78.8236  222.9839 H   0  0  0  0  0  0  0  0  0  0  0  0
  141.0874   75.7071  217.0818 H   0  0  0  0  0  0  0  0  0  0  0  0
  142.2247   73.5122  216.9347 H   0  0  0  0  0  0  0  0  0  0  0  0
  143.8247   71.9535  217.7166 H   0  0  0  0  0  0  0  0  0  0  0  0
  146.2639   73.0002  221.0934 H   0  0  0  0  0  0  0  0  0  0  0  0
  145.1227   75.2122  221.2441 H   0  0  0  0  0  0  0  0  0  0  0  0
  1  2  2  0
  2  3  1  0
  3  4  1  0
  4  5  1  0
  5  6  2  0
  5  7  1  0
  7  8  1  0
  8  9  1  0
  9 10  1  0
 10 11  1  0
 11 12  1  0
 12 13  1  0
 13 14  2  0
 14 15  1  0
 15 16  2  0
 16 17  1  0
 16 18  1  0
 18 19  2  0
  2 20  1  0
 20 21  2  0
 21 22  1  0
 22 23  2  0
 23 24  1  0
 24 25  2  0
 25 26  1  0
 25 27  1  0
 27 28  2  0
 28 29  1  0
 29 30  2  0
 12  7  1  0
 19 13  1  0
 30 20  1  0
 29 23  1  0
  3 31  1  0
  4 32  1  0
  4 33  1  0
  8 34  1  0
  8 35  1  0
  9 36  1  0
  9 37  1  0
 10 38  1  0
 10 39  1  0
 11 40  1  0
 11 41  1  0
 12 42  1  6
 14 43  1  0
 15 44  1  0
 17 45  1  0
 18 46  1  0
 19 47  1  0
 21 48  1  0
 22 49  1  0
 24 50  1  0
 27 51  1  0
 28 52  1  0
M  END
>  <smiles>  (75) 
O=C(NCC(=O)N1CCCCC1c1ccc(O)cc1)c1ccc2cc(Cl)ccc2n1

>  <score_type>  (75) 
oracle

>  <origin>  (75) 
autodockgpu

>  <m_score__min__energy>  (75) 
-8.5800000000000001

>  <m_primary>  (75) 
energy

>  <rmsd>  (75) 
7.927399426402859

>  <m_score__min__rmsd>  (75) 
7.927399426402859

>  <meeko>  (75) 
{"free_energy": -7.29, "intermolecular_energy": -9.08, "internal_energy": -2.33, "cluster_size": 15, "cluster_id": 6, "rank_in_cluster": 7}

>  <energy>  (75) 
-7.76

>  <cluster_rmsd>  (75) 
1.98

>  <cluster>  (75) 
2

$$$$

     RDKit          3D

 52 55  0  0  0  0  0  0  0  0999 V2000
  140.7550   77.7900  217.8920 O   0  0  0  0  0  0  0  0  0  0  0  0
  141.7310   77.4970  218.6530 C   0  0  0  0  0  0  0  0  0  0  0  0
  142.1760   78.5310  219.5930 N   0  0  0  0  0  0  0  0  0  0  0  0
  141.4630   79.7410  219.5420 C   0  0  0  0  0  0  0  0  0  0  0  0
  141.1450   80.5160  220.7150 C   0  0  0  0  0  0  0  0  0  0  0  0
  140.8090   81.7660  220.4040 O   0  0  0  0  0  0  0  0  0  0  0  0
  141.1090   80.2600  222.0730 N   0  0  0  0  0  0  0  0  0  0  0  0
  140.7080   81.1300  223.1580 C   0  0  0  0  0  0  0  0  0  0  0  0
  142.0070   81.6510  223.7550 C   0  0  0  0  0  0  0  0  0  0  0  0
  142.9280   80.4720  223.9280 C   0  0  0  0  0  0  0  0  0  0  0  0
  142.1870   79.1490  223.8920 C   0  0  0  0  0  0  0  0  0  0  0  0
  141.5850   78.9350  222.5280 C   0  0  1  0  0  0  0  0  0  0  0  0
  140.6070   77.8690  222.4160 C   0  0  0  0  0  0  0  0  0  0  0  0
  141.0680   76.6060  222.0140 C   0  0  0  0  0  0  0  0  0  0  0  0
  140.2130   75.5330  221.8730 C   0  0  0  0  0  0  0  0  0  0  0  0
  138.8610   75.6560  222.1210 C   0  0  0  0  0  0  0  0  0  0  0  0
  137.9640   74.6040  221.9920 O   0  0  0  0  0  0  0  0  0  0  0  0
  138.3850   76.8880  222.5180 C   0  0  0  0  0  0  0  0  0  0  0  0
  139.2580   77.9570  222.6550 C   0  0  0  0  0  0  0  0  0  0  0  0
  142.3890   76.2180  218.6170 C   0  0  0  0  0  0  0  0  0  0  0  0
  142.0890   75.3500  217.6010 C   0  0  0  0  0  0  0  0  0  0  0  0
  142.7070   74.1170  217.5440 C   0  0  0  0  0  0  0  0  0  0  0  0
  143.6210   73.7480  218.4970 C   0  0  0  0  0  0  0  0  0  0  0  0
  144.2200   72.5120  218.4140 C   0  0  0  0  0  0  0  0  0  0  0  0
  145.1300   72.1670  219.3790 C   0  0  0  0  0  0  0  0  0  0  0  0
  145.9380   70.6100  219.3440 Cl  0  0  0  0  0  0  0  0  0  0  0  0
  145.4300   73.0410  220.4010 C   0  0  0  0  0  0  0  0  0  0  0  0
  144.8090   74.2870  220.4630 C   0  0  0  0  0  0  0  0  0  0  0  0
  143.9030   74.6410  219.5090 C   0  0  0  0  0  0  0  0  0  0  0  0
  143.2930   75.8350  219.5480 N   0  0  0  0  0  0  0  0  0  0  0  0
  142.9530   78.2230  220.1830 H   0  0  0  0  0  0  0  0  0  0  0  0
  142.0437   80.4073  218.8871 H   0  0  0  0  0  0  0  0  0  0  0  0
  140.4663   79.3955  219.2304 H   0  0  0  0  0  0  0  0  0  0  0  0
  140.0969   81.9624  222.7789 H   0  0  0  0  0  0  0  0  0  0  0  0
  140.0967   80.6008  223.9039 H   0  0  0  0  0  0  0  0  0  0  0  0
  142.4630   82.3881  223.0777 H   0  0  0  0  0  0  0  0  0  0  0  0
  141.8206   82.1432  224.7209 H   0  0  0  0  0  0  0  0  0  0  0  0
  143.6714   80.4826  223.1173 H   0  0  0  0  0  0  0  0  0  0  0  0
  143.4060   80.5618  224.9146 H   0  0  0  0  0  0  0  0  0  0  0  0
  142.8892   78.3316  224.1130 H   0  0  0  0  0  0  0  0  0  0  0  0
  141.3841   79.1633  224.6438 H   0  0  0  0  0  0  0  0  0  0  0  0
  142.3586   78.5419  221.8520 H   0  0  0  0  0  0  0  0  0  0  0  0
  142.1393   76.4682  221.8059 H   0  0  0  0  0  0  0  0  0  0  0  0
  140.6167   74.5599  221.5566 H   0  0  0  0  0  0  0  0  0  0  0  0
  137.8080   73.9280  222.7300 H   0  0  0  0  0  0  0  0  0  0  0  0
  137.3133   77.0228  222.7259 H   0  0  0  0  0  0  0  0  0  0  0  0
  138.8476   78.9271  222.9721 H   0  0  0  0  0  0  0  0  0  0  0  0
  141.3566   75.6350  216.8314 H   0  0  0  0  0  0  0  0  0  0  0  0
  142.4637   73.4234  216.7256 H   0  0  0  0  0  0  0  0  0  0  0  0
  143.9751   71.8195  217.5952 H   0  0  0  0  0  0  0  0  0  0  0  0
  146.1620   72.7543  221.1704 H   0  0  0  0  0  0  0  0  0  0  0  0
  145.0497   74.9830  221.2801 H   0  0  0  0  0  0  0  0  0  0  0  0
  1  2  2  0
  2  3  1  0
  3  4  1  0
  4  5  1  0
  5  6  2  0
  5  7  1  0
  7  8  1  0
  8  9  1  0
  9 10  1  0
 10 11  1  0
 11 12  1  0
 12 13  1  0
 13 14  2  0
 14 15  1  0
 15 16  2  0
 16 17  1  0
 16 18  1  0
 18 19  2  0
  2 20  1  0
 20 21  2  0
 21 22  1  0
 22 23  2  0
 23 24  1  0
 24 25  2  0
 25 26  1  0
 25 27  1  0
 27 28  2  0
 28 29  1  0
 29 30  2  0
 12  7  1  0
 19 13  1  0
 30 20  1  0
 29 23  1  0
  3 31  1  0
  4 32  1  0
  4 33  1  0
  8 34  1  0
  8 35  1  0
  9 36  1  0
  9 37  1  0
 10 38  1  0
 10 39  1  0
 11 40  1  0
 11 41  1  0
 12 42  1  6
 14 43  1  0
 15 44  1  0
 17 45  1  0
 18 46  1  0
 19 47  1  0
 21 48  1  0
 22 49  1  0
 24 50  1  0
 27 51  1  0
 28 52  1  0
M  END
>  <smiles>  (76) 
O=C(NCC(=O)N1CCCCC1c1ccc(O)cc1)c1ccc2cc(Cl)ccc2n1

>  <score_type>  (76) 
oracle

>  <origin>  (76) 
autodockgpu

>  <m_score__min__energy>  (76) 
-8.5800000000000001

>  <m_primary>  (76) 
energy

>  <rmsd>  (76) 
7.931904996214525

>  <m_score__min__rmsd>  (76) 
7.931904996214525

>  <meeko>  (76) 
{"free_energy": -7.43, "intermolecular_energy": -9.22, "internal_energy": -2.22, "cluster_size": 15, "cluster_id": 6, "rank_in_cluster": 2}

>  <energy>  (76) 
-7.69

>  <cluster_rmsd>  (76) 
1.26

>  <cluster>  (76) 
2

$$$$

     RDKit          3D

 52 55  0  0  0  0  0  0  0  0999 V2000
  140.7680   72.1520  220.8740 O   0  0  0  0  0  0  0  0  0  0  0  0
  140.3220   72.5060  222.0110 C   0  0  0  0  0  0  0  0  0  0  0  0
  139.8810   73.8990  222.1480 N   0  0  0  0  0  0  0  0  0  0  0  0
  140.0050   74.6890  220.9930 C   0  0  0  0  0  0  0  0  0  0  0  0
  140.6240   75.9900  220.9920 C   0  0  0  0  0  0  0  0  0  0  0  0
  140.1790   76.7500  221.9900 O   0  0  0  0  0  0  0  0  0  0  0  0
  141.5660   76.6210  220.1990 N   0  0  0  0  0  0  0  0  0  0  0  0
  142.1480   77.9380  220.3430 C   0  0  0  0  0  0  0  0  0  0  0  0
  141.3960   78.8190  219.3560 C   0  0  0  0  0  0  0  0  0  0  0  0
  141.3300   78.0740  218.0480 C   0  0  0  0  0  0  0  0  0  0  0  0
  142.3500   76.9540  217.9680 C   0  0  0  0  0  0  0  0  0  0  0  0
  142.0350   75.8990  218.9960 C   0  0  1  0  0  0  0  0  0  0  0  0
  143.0710   74.9150  219.2470 C   0  0  0  0  0  0  0  0  0  0  0  0
  144.0820   75.2580  220.1580 C   0  0  0  0  0  0  0  0  0  0  0  0
  145.1130   74.3910  220.4570 C   0  0  0  0  0  0  0  0  0  0  0  0
  145.1940   73.1440  219.8700 C   0  0  0  0  0  0  0  0  0  0  0  0
  146.2120   72.2400  220.1410 O   0  0  0  0  0  0  0  0  0  0  0  0
  144.2110   72.7860  218.9720 C   0  0  0  0  0  0  0  0  0  0  0  0
  143.1820   73.6690  218.6820 C   0  0  0  0  0  0  0  0  0  0  0  0
  140.2410   71.6070  223.1310 C   0  0  0  0  0  0  0  0  0  0  0  0
  139.6670   70.3770  222.9470 C   0  0  0  0  0  0  0  0  0  0  0  0
  139.5770   69.4950  224.0060 C   0  0  0  0  0  0  0  0  0  0  0  0
  140.0570   69.8360  225.2440 C   0  0  0  0  0  0  0  0  0  0  0  0
  139.9520   68.9360  226.2780 C   0  0  0  0  0  0  0  0  0  0  0  0
  140.4390   69.3010  227.5070 C   0  0  0  0  0  0  0  0  0  0  0  0
  140.3450   68.2110  228.8780 Cl  0  0  0  0  0  0  0  0  0  0  0  0
  141.0150   70.5400  227.6890 C   0  0  0  0  0  0  0  0  0  0  0  0
  141.1090   71.4340  226.6240 C   0  0  0  0  0  0  0  0  0  0  0  0
  140.6290   71.0810  225.3990 C   0  0  0  0  0  0  0  0  0  0  0  0
  140.7080   71.9250  224.3600 N   0  0  0  0  0  0  0  0  0  0  0  0
  139.5210   74.1100  223.0830 H   0  0  0  0  0  0  0  0  0  0  0  0
  140.5731   74.0832  220.2717 H   0  0  0  0  0  0  0  0  0  0  0  0
  138.9549   74.9462  220.7901 H   0  0  0  0  0  0  0  0  0  0  0  0
  142.0138   78.3084  221.3700 H   0  0  0  0  0  0  0  0  0  0  0  0
  143.2302   77.9321  220.1458 H   0  0  0  0  0  0  0  0  0  0  0  0
  140.3798   79.0175  219.7275 H   0  0  0  0  0  0  0  0  0  0  0  0
  141.9078   79.7843  219.2282 H   0  0  0  0  0  0  0  0  0  0  0  0
  140.3237   77.6439  217.9369 H   0  0  0  0  0  0  0  0  0  0  0  0
  141.5538   78.7894  217.2430 H   0  0  0  0  0  0  0  0  0  0  0  0
  142.3209   76.5052  216.9641 H   0  0  0  0  0  0  0  0  0  0  0  0
  143.3524   77.3625  218.1639 H   0  0  0  0  0  0  0  0  0  0  0  0
  141.2491   75.2377  218.6022 H   0  0  0  0  0  0  0  0  0  0  0  0
  144.0517   76.2433  220.6462 H   0  0  0  0  0  0  0  0  0  0  0  0
  145.8853   74.6994  221.1770 H   0  0  0  0  0  0  0  0  0  0  0  0
  146.2900   71.7560  221.0280 H   0  0  0  0  0  0  0  0  0  0  0  0
  144.2430   71.7999  218.4856 H   0  0  0  0  0  0  0  0  0  0  0  0
  142.4136   73.3541  217.9606 H   0  0  0  0  0  0  0  0  0  0  0  0
  139.2786   70.0923  221.9580 H   0  0  0  0  0  0  0  0  0  0  0  0
  139.1151   68.5082  223.8544 H   0  0  0  0  0  0  0  0  0  0  0  0
  139.4898   67.9498  226.1237 H   0  0  0  0  0  0  0  0  0  0  0  0
  141.4020   70.8242  228.6787 H   0  0  0  0  0  0  0  0  0  0  0  0
  141.5695   72.4219  226.7722 H   0  0  0  0  0  0  0  0  0  0  0  0
  1  2  2  0
  2  3  1  0
  3  4  1  0
  4  5  1  0
  5  6  2  0
  5  7  1  0
  7  8  1  0
  8  9  1  0
  9 10  1  0
 10 11  1  0
 11 12  1  0
 12 13  1  0
 13 14  2  0
 14 15  1  0
 15 16  2  0
 16 17  1  0
 16 18  1  0
 18 19  2  0
  2 20  1  0
 20 21  2  0
 21 22  1  0
 22 23  2  0
 23 24  1  0
 24 25  2  0
 25 26  1  0
 25 27  1  0
 27 28  2  0
 28 29  1  0
 29 30  2  0
 12  7  1  0
 19 13  1  0
 30 20  1  0
 29 23  1  0
  3 31  1  0
  4 32  1  0
  4 33  1  0
  8 34  1  0
  8 35  1  0
  9 36  1  0
  9 37  1  0
 10 38  1  0
 10 39  1  0
 11 40  1  0
 11 41  1  0
 12 42  1  6
 14 43  1  0
 15 44  1  0
 17 45  1  0
 18 46  1  0
 19 47  1  0
 21 48  1  0
 22 49  1  0
 24 50  1  0
 27 51  1  0
 28 52  1  0
M  END
>  <smiles>  (77) 
O=C(NCC(=O)N1CCCCC1c1ccc(O)cc1)c1ccc2cc(Cl)ccc2n1

>  <score_type>  (77) 
oracle

>  <origin>  (77) 
autodockgpu

>  <m_score__min__energy>  (77) 
-8.5800000000000001

>  <m_primary>  (77) 
energy

>  <rmsd>  (77) 
2.408353079889431

>  <m_score__min__rmsd>  (77) 
2.408353079889431

>  <meeko>  (77) 
{"free_energy": -8.47, "intermolecular_energy": -10.26, "internal_energy": -1.59, "cluster_size": 20, "cluster_id": 1, "rank_in_cluster": 5}

>  <energy>  (77) 
-7.53

>  <cluster_rmsd>  (77) 
1.85

>  <cluster>  (77) 
2

$$$$

     RDKit          3D

 52 55  0  0  0  0  0  0  0  0999 V2000
  140.1820   77.5950  218.6750 O   0  0  0  0  0  0  0  0  0  0  0  0
  141.4070   77.4680  218.9940 C   0  0  0  0  0  0  0  0  0  0  0  0
  142.1020   78.6730  219.4600 N   0  0  0  0  0  0  0  0  0  0  0  0
  141.3250   79.8420  219.4990 C   0  0  0  0  0  0  0  0  0  0  0  0
  141.1250   80.6150  220.6990 C   0  0  0  0  0  0  0  0  0  0  0  0
  140.8940   81.8970  220.4280 O   0  0  0  0  0  0  0  0  0  0  0  0
  141.1180   80.3300  222.0520 N   0  0  0  0  0  0  0  0  0  0  0  0
  140.7490   81.1800  223.1640 C   0  0  0  0  0  0  0  0  0  0  0  0
  142.0650   81.6800  223.7420 C   0  0  0  0  0  0  0  0  0  0  0  0
  142.9810   80.4900  223.8690 C   0  0  0  0  0  0  0  0  0  0  0  0
  142.2290   79.1740  223.8220 C   0  0  0  0  0  0  0  0  0  0  0  0
  141.5950   78.9930  222.4690 C   0  0  1  0  0  0  0  0  0  0  0  0
  140.6070   77.9370  222.3560 C   0  0  0  0  0  0  0  0  0  0  0  0
  141.0730   76.6380  222.1010 C   0  0  0  0  0  0  0  0  0  0  0  0
  140.2100   75.5700  221.9720 C   0  0  0  0  0  0  0  0  0  0  0  0
  138.8440   75.7340  222.0880 C   0  0  0  0  0  0  0  0  0  0  0  0
  137.9380   74.6890  221.9660 O   0  0  0  0  0  0  0  0  0  0  0  0
  138.3630   77.0020  222.3400 C   0  0  0  0  0  0  0  0  0  0  0  0
  139.2440   78.0650  222.4670 C   0  0  0  0  0  0  0  0  0  0  0  0
  142.1060   76.2130  218.9140 C   0  0  0  0  0  0  0  0  0  0  0  0
  141.6960   75.2890  217.9910 C   0  0  0  0  0  0  0  0  0  0  0  0
  142.3510   74.0770  217.8930 C   0  0  0  0  0  0  0  0  0  0  0  0
  143.4100   73.7850  218.7130 C   0  0  0  0  0  0  0  0  0  0  0  0
  144.0410   72.5690  218.5920 C   0  0  0  0  0  0  0  0  0  0  0  0
  145.0980   72.3020  219.4240 C   0  0  0  0  0  0  0  0  0  0  0  0
  145.9560   70.7750  219.3340 Cl  0  0  0  0  0  0  0  0  0  0  0  0
  145.5080   73.2340  220.3540 C   0  0  0  0  0  0  0  0  0  0  0  0
  144.8510   74.4590  220.4560 C   0  0  0  0  0  0  0  0  0  0  0  0
  143.8000   74.7350  219.6340 C   0  0  0  0  0  0  0  0  0  0  0  0
  143.1530   75.9070  219.7140 N   0  0  0  0  0  0  0  0  0  0  0  0
  143.0770   78.4940  219.7140 H   0  0  0  0  0  0  0  0  0  0  0  0
  141.7758   80.5294  218.7681 H   0  0  0  0  0  0  0  0  0  0  0  0
  140.3157   79.4396  219.3272 H   0  0  0  0  0  0  0  0  0  0  0  0
  140.1354   82.0243  222.8165 H   0  0  0  0  0  0  0  0  0  0  0  0
  140.1517   80.6391  223.9128 H   0  0  0  0  0  0  0  0  0  0  0  0
  142.5110   82.4280  223.0700 H   0  0  0  0  0  0  0  0  0  0  0  0
  141.9045   82.1536  224.7218 H   0  0  0  0  0  0  0  0  0  0  0  0
  143.7059   80.5124  223.0420 H   0  0  0  0  0  0  0  0  0  0  0  0
  143.4821   80.5552  224.8461 H   0  0  0  0  0  0  0  0  0  0  0  0
  142.9295   78.3470  224.0099 H   0  0  0  0  0  0  0  0  0  0  0  0
  141.4433   79.1787  224.5919 H   0  0  0  0  0  0  0  0  0  0  0  0
  142.3512   78.6087  221.7687 H   0  0  0  0  0  0  0  0  0  0  0  0
  142.1551   76.4672  222.0014 H   0  0  0  0  0  0  0  0  0  0  0  0
  140.6179   74.5680  221.7728 H   0  0  0  0  0  0  0  0  0  0  0  0
  137.7500   74.0390  222.7210 H   0  0  0  0  0  0  0  0  0  0  0  0
  137.2805   77.1698  222.4402 H   0  0  0  0  0  0  0  0  0  0  0  0
  138.8293   79.0640  222.6673 H   0  0  0  0  0  0  0  0  0  0  0  0
  140.8464   75.5114  217.3286 H   0  0  0  0  0  0  0  0  0  0  0  0
  142.0193   73.3380  217.1488 H   0  0  0  0  0  0  0  0  0  0  0  0
  143.7070   71.8307  217.8481 H   0  0  0  0  0  0  0  0  0  0  0  0
  146.3563   73.0099  221.0175 H   0  0  0  0  0  0  0  0  0  0  0  0
  145.1802   75.2011  221.1982 H   0  0  0  0  0  0  0  0  0  0  0  0
  1  2  2  0
  2  3  1  0
  3  4  1  0
  4  5  1  0
  5  6  2  0
  5  7  1  0
  7  8  1  0
  8  9  1  0
  9 10  1  0
 10 11  1  0
 11 12  1  0
 12 13  1  0
 13 14  2  0
 14 15  1  0
 15 16  2  0
 16 17  1  0
 16 18  1  0
 18 19  2  0
  2 20  1  0
 20 21  2  0
 21 22  1  0
 22 23  2  0
 23 24  1  0
 24 25  2  0
 25 26  1  0
 25 27  1  0
 27 28  2  0
 28 29  1  0
 29 30  2  0
 12  7  1  0
 19 13  1  0
 30 20  1  0
 29 23  1  0
  3 31  1  0
  4 32  1  0
  4 33  1  0
  8 34  1  0
  8 35  1  0
  9 36  1  0
  9 37  1  0
 10 38  1  0
 10 39  1  0
 11 40  1  0
 11 41  1  0
 12 42  1  6
 14 43  1  0
 15 44  1  0
 17 45  1  0
 18 46  1  0
 19 47  1  0
 21 48  1  0
 22 49  1  0
 24 50  1  0
 27 51  1  0
 28 52  1  0
M  END
>  <smiles>  (78) 
O=C(NCC(=O)N1CCCCC1c1ccc(O)cc1)c1ccc2cc(Cl)ccc2n1

>  <score_type>  (78) 
oracle

>  <origin>  (78) 
autodockgpu

>  <m_score__min__energy>  (78) 
-8.5800000000000001

>  <m_primary>  (78) 
energy

>  <rmsd>  (78) 
7.856299663186283

>  <m_score__min__rmsd>  (78) 
7.856299663186283

>  <meeko>  (78) 
{"free_energy": -7.33, "intermolecular_energy": -9.12, "internal_energy": -2.34, "cluster_size": 15, "cluster_id": 6, "rank_in_cluster": 5}

>  <energy>  (78) 
-7.97

>  <cluster_rmsd>  (78) 
0.0

>  <cluster>  (78) 
3

$$$$

     RDKit          3D

 52 55  0  0  0  0  0  0  0  0999 V2000
  140.0830   72.4450  220.7730 O   0  0  0  0  0  0  0  0  0  0  0  0
  139.8910   72.7850  221.9830 C   0  0  0  0  0  0  0  0  0  0  0  0
  139.5910   74.1990  222.2360 N   0  0  0  0  0  0  0  0  0  0  0  0
  139.5500   75.0220  221.0990 C   0  0  0  0  0  0  0  0  0  0  0  0
  140.0540   76.3720  221.0850 C   0  0  0  0  0  0  0  0  0  0  0  0
  139.2290   77.2130  221.7040 O   0  0  0  0  0  0  0  0  0  0  0  0
  141.1870   76.9840  220.5820 N   0  0  0  0  0  0  0  0  0  0  0  0
  141.8570   78.1840  221.0350 C   0  0  0  0  0  0  0  0  0  0  0  0
  141.3980   79.2830  220.0870 C   0  0  0  0  0  0  0  0  0  0  0  0
  141.5130   78.7430  218.6850 C   0  0  0  0  0  0  0  0  0  0  0  0
  142.4150   77.5260  218.6060 C   0  0  0  0  0  0  0  0  0  0  0  0
  141.8070   76.3850  219.3790 C   0  0  1  0  0  0  0  0  0  0  0  0
  142.6740   75.2530  219.6450 C   0  0  0  0  0  0  0  0  0  0  0  0
  143.9750   75.5270  220.0960 C   0  0  0  0  0  0  0  0  0  0  0  0
  144.8740   74.5170  220.3710 C   0  0  0  0  0  0  0  0  0  0  0  0
  144.5320   73.1890  220.2120 C   0  0  0  0  0  0  0  0  0  0  0  0
  145.4040   72.1420  220.4770 O   0  0  0  0  0  0  0  0  0  0  0  0
  143.2590   72.8980  219.7710 C   0  0  0  0  0  0  0  0  0  0  0  0
  142.3670   73.9240  219.4990 C   0  0  0  0  0  0  0  0  0  0  0  0
  139.9580   71.8520  223.0760 C   0  0  0  0  0  0  0  0  0  0  0  0
  139.5130   70.5720  222.8770 C   0  0  0  0  0  0  0  0  0  0  0  0
  139.5670   69.6560  223.9080 C   0  0  0  0  0  0  0  0  0  0  0  0
  140.0620   70.0140  225.1360 C   0  0  0  0  0  0  0  0  0  0  0  0
  140.1010   69.0790  226.1440 C   0  0  0  0  0  0  0  0  0  0  0  0
  140.6010   69.4620  227.3630 C   0  0  0  0  0  0  0  0  0  0  0  0
  140.6860   68.3310  228.7010 Cl  0  0  0  0  0  0  0  0  0  0  0  0
  141.0470   70.7510  227.5610 C   0  0  0  0  0  0  0  0  0  0  0  0
  140.9960   71.6790  226.5230 C   0  0  0  0  0  0  0  0  0  0  0  0
  140.5020   71.3090  225.3080 C   0  0  0  0  0  0  0  0  0  0  0  0
  140.4420   72.1850  224.2940 N   0  0  0  0  0  0  0  0  0  0  0  0
  139.4330   74.3990  223.2280 H   0  0  0  0  0  0  0  0  0  0  0  0
  140.1048   74.4840  220.3162 H   0  0  0  0  0  0  0  0  0  0  0  0
  138.4685   75.1914  220.9908 H   0  0  0  0  0  0  0  0  0  0  0  0
  141.5659   78.4208  222.0690 H   0  0  0  0  0  0  0  0  0  0  0  0
  142.9510   78.0692  221.0305 H   0  0  0  0  0  0  0  0  0  0  0  0
  140.3535   79.5532  220.3017 H   0  0  0  0  0  0  0  0  0  0  0  0
  142.0158   80.1850  220.2086 H   0  0  0  0  0  0  0  0  0  0  0  0
  140.5099   78.4628  218.3310 H   0  0  0  0  0  0  0  0  0  0  0  0
  141.9565   79.5303  218.0578 H   0  0  0  0  0  0  0  0  0  0  0  0
  142.5362   77.2297  217.5536 H   0  0  0  0  0  0  0  0  0  0  0  0
  143.3956   77.7739  219.0383 H   0  0  0  0  0  0  0  0  0  0  0  0
  141.0511   75.8895  218.7520 H   0  0  0  0  0  0  0  0  0  0  0  0
  144.2855   76.5733  220.2336 H   0  0  0  0  0  0  0  0  0  0  0  0
  145.8833   74.7751  220.7240 H   0  0  0  0  0  0  0  0  0  0  0  0
  145.7310   71.9270  221.4110 H   0  0  0  0  0  0  0  0  0  0  0  0
  142.9505   71.8510  219.6347 H   0  0  0  0  0  0  0  0  0  0  0  0
  141.3592   73.6581  219.1473 H   0  0  0  0  0  0  0  0  0  0  0  0
  139.1130   70.2744  221.8965 H   0  0  0  0  0  0  0  0  0  0  0  0
  139.2096   68.6288  223.7432 H   0  0  0  0  0  0  0  0  0  0  0  0
  139.7414   68.0529  225.9775 H   0  0  0  0  0  0  0  0  0  0  0  0
  141.4448   71.0483  228.5425 H   0  0  0  0  0  0  0  0  0  0  0  0
  141.3533   72.7069  226.6837 H   0  0  0  0  0  0  0  0  0  0  0  0
  1  2  2  0
  2  3  1  0
  3  4  1  0
  4  5  1  0
  5  6  2  0
  5  7  1  0
  7  8  1  0
  8  9  1  0
  9 10  1  0
 10 11  1  0
 11 12  1  0
 12 13  1  0
 13 14  2  0
 14 15  1  0
 15 16  2  0
 16 17  1  0
 16 18  1  0
 18 19  2  0
  2 20  1  0
 20 21  2  0
 21 22  1  0
 22 23  2  0
 23 24  1  0
 24 25  2  0
 25 26  1  0
 25 27  1  0
 27 28  2  0
 28 29  1  0
 29 30  2  0
 12  7  1  0
 19 13  1  0
 30 20  1  0
 29 23  1  0
  3 31  1  0
  4 32  1  0
  4 33  1  0
  8 34  1  0
  8 35  1  0
  9 36  1  0
  9 37  1  0
 10 38  1  0
 10 39  1  0
 11 40  1  0
 11 41  1  0
 12 42  1  6
 14 43  1  0
 15 44  1  0
 17 45  1  0
 18 46  1  0
 19 47  1  0
 21 48  1  0
 22 49  1  0
 24 50  1  0
 27 51  1  0
 28 52  1  0
M  END
>  <smiles>  (79) 
O=C(NCC(=O)N1CCCCC1c1ccc(O)cc1)c1ccc2cc(Cl)ccc2n1

>  <score_type>  (79) 
oracle

>  <origin>  (79) 
autodockgpu

>  <m_score__min__energy>  (79) 
-8.5800000000000001

>  <m_primary>  (79) 
energy

>  <rmsd>  (79) 
2.5417560564078707

>  <m_score__min__rmsd>  (79) 
2.5417560564078707

>  <meeko>  (79) 
{"free_energy": -8.4, "intermolecular_energy": -10.19, "internal_energy": -1.67, "cluster_size": 20, "cluster_id": 1, "rank_in_cluster": 8}

>  <energy>  (79) 
-7.68

>  <cluster_rmsd>  (79) 
1.21

>  <cluster>  (79) 
3

$$$$

     RDKit          3D

 52 55  0  0  0  0  0  0  0  0999 V2000
  142.9960   79.2030  218.4390 O   0  0  0  0  0  0  0  0  0  0  0  0
  142.3700   78.1520  218.7860 C   0  0  0  0  0  0  0  0  0  0  0  0
  141.0310   78.3320  219.3580 N   0  0  0  0  0  0  0  0  0  0  0  0
  140.5910   79.6620  219.4570 C   0  0  0  0  0  0  0  0  0  0  0  0
  140.7830   80.4690  220.6360 C   0  0  0  0  0  0  0  0  0  0  0  0
  140.8770   81.7630  220.3390 O   0  0  0  0  0  0  0  0  0  0  0  0
  140.8910   80.2080  221.9890 N   0  0  0  0  0  0  0  0  0  0  0  0
  140.5490   81.0510  223.1150 C   0  0  0  0  0  0  0  0  0  0  0  0
  141.8690   81.6410  223.5890 C   0  0  0  0  0  0  0  0  0  0  0  0
  142.8650   80.5130  223.6650 C   0  0  0  0  0  0  0  0  0  0  0  0
  142.1960   79.1520  223.6890 C   0  0  0  0  0  0  0  0  0  0  0  0
  141.4790   78.9090  222.3870 C   0  0  1  0  0  0  0  0  0  0  0  0
  140.5530   77.7930  222.3600 C   0  0  0  0  0  0  0  0  0  0  0  0
  141.0560   76.5450  221.9590 C   0  0  0  0  0  0  0  0  0  0  0  0
  140.2520   75.4260  221.8960 C   0  0  0  0  0  0  0  0  0  0  0  0
  138.9120   75.4860  222.2240 C   0  0  0  0  0  0  0  0  0  0  0  0
  138.0660   74.3860  222.1760 O   0  0  0  0  0  0  0  0  0  0  0  0
  138.3970   76.7020  222.6220 C   0  0  0  0  0  0  0  0  0  0  0  0
  139.2190   77.8170  222.6810 C   0  0  0  0  0  0  0  0  0  0  0  0
  142.9220   76.8320  218.6360 C   0  0  0  0  0  0  0  0  0  0  0  0
  142.9830   76.2810  217.3850 C   0  0  0  0  0  0  0  0  0  0  0  0
  143.5090   75.0150  217.2140 C   0  0  0  0  0  0  0  0  0  0  0  0
  143.9720   74.3000  218.2870 C   0  0  0  0  0  0  0  0  0  0  0  0
  144.4900   73.0420  218.0850 C   0  0  0  0  0  0  0  0  0  0  0  0
  144.9470   72.3470  219.1750 C   0  0  0  0  0  0  0  0  0  0  0  0
  145.6220   70.7370  219.0030 Cl  0  0  0  0  0  0  0  0  0  0  0  0
  144.8840   72.9030  220.4350 C   0  0  0  0  0  0  0  0  0  0  0  0
  144.3550   74.1800  220.6130 C   0  0  0  0  0  0  0  0  0  0  0  0
  143.8980   74.8790  219.5360 C   0  0  0  0  0  0  0  0  0  0  0  0
  143.3840   76.1100  219.6830 N   0  0  0  0  0  0  0  0  0  0  0  0
  140.5800   77.4460  219.5990 H   0  0  0  0  0  0  0  0  0  0  0  0
  141.0815   80.2049  218.6356 H   0  0  0  0  0  0  0  0  0  0  0  0
  139.4987   79.5319  219.4562 H   0  0  0  0  0  0  0  0  0  0  0  0
  139.8596   81.8495  222.8034 H   0  0  0  0  0  0  0  0  0  0  0  0
  140.0421   80.4865  223.9115 H   0  0  0  0  0  0  0  0  0  0  0  0
  142.2176   82.4031  222.8765 H   0  0  0  0  0  0  0  0  0  0  0  0
  141.7496   82.1206  224.5717 H   0  0  0  0  0  0  0  0  0  0  0  0
  143.5265   80.5661  222.7878 H   0  0  0  0  0  0  0  0  0  0  0  0
  143.4292   80.6261  224.6025 H   0  0  0  0  0  0  0  0  0  0  0  0
  142.9589   78.3733  223.8359 H   0  0  0  0  0  0  0  0  0  0  0  0
  141.4687   79.1210  224.5137 H   0  0  0  0  0  0  0  0  0  0  0  0
  142.2051   78.5595  221.6383 H   0  0  0  0  0  0  0  0  0  0  0  0
  142.1185   76.4574  221.6881 H   0  0  0  0  0  0  0  0  0  0  0  0
  140.6868   74.4669  221.5782 H   0  0  0  0  0  0  0  0  0  0  0  0
  137.9010   73.7900  222.9780 H   0  0  0  0  0  0  0  0  0  0  0  0
  137.3342   76.7872  222.8926 H   0  0  0  0  0  0  0  0  0  0  0  0
  138.7781   78.7722  223.0024 H   0  0  0  0  0  0  0  0  0  0  0  0
  142.6136   76.8456  216.5162 H   0  0  0  0  0  0  0  0  0  0  0  0
  143.5565   74.5767  216.2062 H   0  0  0  0  0  0  0  0  0  0  0  0
  144.5364   72.6053  217.0765 H   0  0  0  0  0  0  0  0  0  0  0  0
  145.2526   72.3366  221.3030 H   0  0  0  0  0  0  0  0  0  0  0  0
  144.3065   74.6221  221.6191 H   0  0  0  0  0  0  0  0  0  0  0  0
  1  2  2  0
  2  3  1  0
  3  4  1  0
  4  5  1  0
  5  6  2  0
  5  7  1  0
  7  8  1  0
  8  9  1  0
  9 10  1  0
 10 11  1  0
 11 12  1  0
 12 13  1  0
 13 14  2  0
 14 15  1  0
 15 16  2  0
 16 17  1  0
 16 18  1  0
 18 19  2  0
  2 20  1  0
 20 21  2  0
 21 22  1  0
 22 23  2  0
 23 24  1  0
 24 25  2  0
 25 26  1  0
 25 27  1  0
 27 28  2  0
 28 29  1  0
 29 30  2  0
 12  7  1  0
 19 13  1  0
 30 20  1  0
 29 23  1  0
  3 31  1  0
  4 32  1  0
  4 33  1  0
  8 34  1  0
  8 35  1  0
  9 36  1  0
  9 37  1  0
 10 38  1  0
 10 39  1  0
 11 40  1  0
 11 41  1  0
 12 42  1  6
 14 43  1  0
 15 44  1  0
 17 45  1  0
 18 46  1  0
 19 47  1  0
 21 48  1  0
 22 49  1  0
 24 50  1  0
 27 51  1  0
 28 52  1  0
M  END
>  <smiles>  (80) 
O=C(NCC(=O)N1CCCCC1c1ccc(O)cc1)c1ccc2cc(Cl)ccc2n1

>  <score_type>  (80) 
oracle

>  <origin>  (80) 
autodockgpu

>  <m_score__min__energy>  (80) 
-8.5800000000000001

>  <m_primary>  (80) 
energy

>  <rmsd>  (80) 
8.112779950292515

>  <m_score__min__rmsd>  (80) 
8.112779950292515

>  <meeko>  (80) 
{"free_energy": -7.27, "intermolecular_energy": -9.06, "internal_energy": -2.01, "cluster_size": 15, "cluster_id": 6, "rank_in_cluster": 8}

>  <energy>  (80) 
-7.54

>  <cluster_rmsd>  (80) 
1.81

>  <cluster>  (80) 
3

$$$$

     RDKit          3D

 52 55  0  0  0  0  0  0  0  0999 V2000
  138.9700   71.4690  220.8740 O   0  0  0  0  0  0  0  0  0  0  0  0
  139.2260   71.9460  222.0250 C   0  0  0  0  0  0  0  0  0  0  0  0
  139.2460   73.4070  222.1500 N   0  0  0  0  0  0  0  0  0  0  0  0
  138.9780   74.1190  220.9690 C   0  0  0  0  0  0  0  0  0  0  0  0
  139.9840   74.8580  220.2490 C   0  0  0  0  0  0  0  0  0  0  0  0
  139.9390   74.6070  218.9420 O   0  0  0  0  0  0  0  0  0  0  0  0
  140.9730   75.7570  220.6020 N   0  0  0  0  0  0  0  0  0  0  0  0
  141.0690   76.5960  221.7780 C   0  0  0  0  0  0  0  0  0  0  0  0
  140.6150   77.9750  221.3240 C   0  0  0  0  0  0  0  0  0  0  0  0
  141.3160   78.2760  220.0260 C   0  0  0  0  0  0  0  0  0  0  0  0
  142.5250   77.3870  219.8020 C   0  0  0  0  0  0  0  0  0  0  0  0
  142.0870   75.9550  219.6480 C   0  0  1  0  0  0  0  0  0  0  0  0
  143.1310   74.9500  219.7210 C   0  0  0  0  0  0  0  0  0  0  0  0
  143.7460   74.5680  218.5180 C   0  0  0  0  0  0  0  0  0  0  0  0
  144.7450   73.6170  218.4860 C   0  0  0  0  0  0  0  0  0  0  0  0
  145.1830   72.9960  219.6390 C   0  0  0  0  0  0  0  0  0  0  0  0
  146.1840   72.0350  219.6530 O   0  0  0  0  0  0  0  0  0  0  0  0
  144.5920   73.3570  220.8320 C   0  0  0  0  0  0  0  0  0  0  0  0
  143.5900   74.3150  220.8480 C   0  0  0  0  0  0  0  0  0  0  0  0
  139.4880   71.1160  223.1710 C   0  0  0  0  0  0  0  0  0  0  0  0
  139.1590   69.7880  223.1110 C   0  0  0  0  0  0  0  0  0  0  0  0
  139.4000   68.9700  224.1970 C   0  0  0  0  0  0  0  0  0  0  0  0
  139.9660   69.4740  225.3400 C   0  0  0  0  0  0  0  0  0  0  0  0
  140.1930   68.6340  226.4060 C   0  0  0  0  0  0  0  0  0  0  0  0
  140.7600   69.1620  227.5370 C   0  0  0  0  0  0  0  0  0  0  0  0
  141.0830   68.1590  228.9390 Cl  0  0  0  0  0  0  0  0  0  0  0  0
  141.0890   70.4990  227.5950 C   0  0  0  0  0  0  0  0  0  0  0  0
  140.8490   71.3290  226.5010 C   0  0  0  0  0  0  0  0  0  0  0  0
  140.2860   70.8150  225.3720 C   0  0  0  0  0  0  0  0  0  0  0  0
  140.0450   71.5940  224.3070 N   0  0  0  0  0  0  0  0  0  0  0  0
  139.4430   73.7210  223.1040 H   0  0  0  0  0  0  0  0  0  0  0  0
  138.5759   73.3832  220.2570 H   0  0  0  0  0  0  0  0  0  0  0  0
  138.3372   74.9307  221.3439 H   0  0  0  0  0  0  0  0  0  0  0  0
  140.4133   76.2176  222.5760 H   0  0  0  0  0  0  0  0  0  0  0  0
  142.0899   76.6140  222.1873 H   0  0  0  0  0  0  0  0  0  0  0  0
  139.5254   77.9811  221.1729 H   0  0  0  0  0  0  0  0  0  0  0  0
  140.8600   78.7333  222.0823 H   0  0  0  0  0  0  0  0  0  0  0  0
  140.6075   78.1240  219.1984 H   0  0  0  0  0  0  0  0  0  0  0  0
  141.6685   79.3171  220.0687 H   0  0  0  0  0  0  0  0  0  0  0  0
  143.0497   77.7079  218.8900 H   0  0  0  0  0  0  0  0  0  0  0  0
  143.1993   77.4682  220.6673 H   0  0  0  0  0  0  0  0  0  0  0  0
  141.7523   75.7929  218.6128 H   0  0  0  0  0  0  0  0  0  0  0  0
  143.4233   75.0387  217.5776 H   0  0  0  0  0  0  0  0  0  0  0  0
  145.2020   73.3479  217.5223 H   0  0  0  0  0  0  0  0  0  0  0  0
  146.4030   71.4880  220.4780 H   0  0  0  0  0  0  0  0  0  0  0  0
  144.9159   72.8845  221.7711 H   0  0  0  0  0  0  0  0  0  0  0  0
  143.1388   74.5804  221.8155 H   0  0  0  0  0  0  0  0  0  0  0  0
  138.7036   69.3738  222.1994 H   0  0  0  0  0  0  0  0  0  0  0  0
  139.1354   67.9036  224.1449 H   0  0  0  0  0  0  0  0  0  0  0  0
  139.9268   67.5681  226.3522 H   0  0  0  0  0  0  0  0  0  0  0  0
  141.5426   70.9127  228.5077 H   0  0  0  0  0  0  0  0  0  0  0  0
  141.1134   72.3957  226.5492 H   0  0  0  0  0  0  0  0  0  0  0  0
  1  2  2  0
  2  3  1  0
  3  4  1  0
  4  5  1  0
  5  6  2  0
  5  7  1  0
  7  8  1  0
  8  9  1  0
  9 10  1  0
 10 11  1  0
 11 12  1  0
 12 13  1  0
 13 14  2  0
 14 15  1  0
 15 16  2  0
 16 17  1  0
 16 18  1  0
 18 19  2  0
  2 20  1  0
 20 21  2  0
 21 22  1  0
 22 23  2  0
 23 24  1  0
 24 25  2  0
 25 26  1  0
 25 27  1  0
 27 28  2  0
 28 29  1  0
 29 30  2  0
 12  7  1  0
 19 13  1  0
 30 20  1  0
 29 23  1  0
  3 31  1  0
  4 32  1  0
  4 33  1  0
  8 34  1  0
  8 35  1  0
  9 36  1  0
  9 37  1  0
 10 38  1  0
 10 39  1  0
 11 40  1  0
 11 41  1  0
 12 42  1  6
 14 43  1  0
 15 44  1  0
 17 45  1  0
 18 46  1  0
 19 47  1  0
 21 48  1  0
 22 49  1  0
 24 50  1  0
 27 51  1  0
 28 52  1  0
M  END
>  <smiles>  (81) 
O=C(NCC(=O)N1CCCCC1c1ccc(O)cc1)c1ccc2cc(Cl)ccc2n1

>  <score_type>  (81) 
oracle

>  <origin>  (81) 
autodockgpu

>  <m_score__min__energy>  (81) 
-8.5800000000000001

>  <m_primary>  (81) 
energy

>  <rmsd>  (81) 
2.286853489597323

>  <m_score__min__rmsd>  (81) 
2.286853489597323

>  <meeko>  (81) 
{"free_energy": -8.52, "intermolecular_energy": -10.31, "internal_energy": -1.58, "cluster_size": 20, "cluster_id": 1, "rank_in_cluster": 3}

>  <energy>  (81) 
-7.54

>  <cluster_rmsd>  (81) 
1.77

>  <cluster>  (81) 
3

$$$$

     RDKit          3D

 52 55  0  0  0  0  0  0  0  0999 V2000
  140.1860   77.7150  218.6220 O   0  0  0  0  0  0  0  0  0  0  0  0
  141.3990   77.5720  218.9730 C   0  0  0  0  0  0  0  0  0  0  0  0
  142.0930   78.7640  219.4720 N   0  0  0  0  0  0  0  0  0  0  0  0
  141.3260   79.9410  219.5040 C   0  0  0  0  0  0  0  0  0  0  0  0
  140.9220   80.5850  220.7280 C   0  0  0  0  0  0  0  0  0  0  0  0
  140.3670   81.7730  220.5010 O   0  0  0  0  0  0  0  0  0  0  0  0
  140.9790   80.2520  222.0690 N   0  0  0  0  0  0  0  0  0  0  0  0
  140.5650   81.0240  223.2220 C   0  0  0  0  0  0  0  0  0  0  0  0
  141.8460   81.6220  223.7860 C   0  0  0  0  0  0  0  0  0  0  0  0
  142.8700   80.5180  223.8450 C   0  0  0  0  0  0  0  0  0  0  0  0
  142.2400   79.1400  223.7660 C   0  0  0  0  0  0  0  0  0  0  0  0
  141.5870   78.9500  222.4220 C   0  0  1  0  0  0  0  0  0  0  0  0
  140.6960   77.8120  222.2940 C   0  0  0  0  0  0  0  0  0  0  0  0
  139.3200   78.0480  222.4430 C   0  0  0  0  0  0  0  0  0  0  0  0
  138.3960   77.0290  222.3430 C   0  0  0  0  0  0  0  0  0  0  0  0
  138.7860   75.7280  222.0940 C   0  0  0  0  0  0  0  0  0  0  0  0
  137.8910   74.6720  221.9860 O   0  0  0  0  0  0  0  0  0  0  0  0
  140.1330   75.4740  221.9440 C   0  0  0  0  0  0  0  0  0  0  0  0
  141.0500   76.5090  222.0460 C   0  0  0  0  0  0  0  0  0  0  0  0
  142.0880   76.3110  218.8970 C   0  0  0  0  0  0  0  0  0  0  0  0
  141.6710   75.3870  217.9770 C   0  0  0  0  0  0  0  0  0  0  0  0
  142.3160   74.1690  217.8840 C   0  0  0  0  0  0  0  0  0  0  0  0
  143.3730   73.8720  218.7050 C   0  0  0  0  0  0  0  0  0  0  0  0
  143.9940   72.6510  218.5880 C   0  0  0  0  0  0  0  0  0  0  0  0
  145.0490   72.3780  219.4210 C   0  0  0  0  0  0  0  0  0  0  0  0
  145.8950   70.8440  219.3360 Cl  0  0  0  0  0  0  0  0  0  0  0  0
  145.4660   73.3100  220.3470 C   0  0  0  0  0  0  0  0  0  0  0  0
  144.8200   74.5400  220.4450 C   0  0  0  0  0  0  0  0  0  0  0  0
  143.7710   74.8220  219.6220 C   0  0  0  0  0  0  0  0  0  0  0  0
  143.1330   75.9990  219.6990 N   0  0  0  0  0  0  0  0  0  0  0  0
  143.0590   78.5730  219.7510 H   0  0  0  0  0  0  0  0  0  0  0  0
  141.9013   80.6921  218.9428 H   0  0  0  0  0  0  0  0  0  0  0  0
  140.3607   79.5833  219.1164 H   0  0  0  0  0  0  0  0  0  0  0  0
  139.8675   81.8201  222.9224 H   0  0  0  0  0  0  0  0  0  0  0  0
  140.0406   80.4039  223.9639 H   0  0  0  0  0  0  0  0  0  0  0  0
  142.2029   82.4314  223.1322 H   0  0  0  0  0  0  0  0  0  0  0  0
  141.6705   82.0433  224.7869 H   0  0  0  0  0  0  0  0  0  0  0  0
  143.5666   80.6368  223.0020 H   0  0  0  0  0  0  0  0  0  0  0  0
  143.3900   80.5942  224.8113 H   0  0  0  0  0  0  0  0  0  0  0  0
  143.0181   78.3749  223.9047 H   0  0  0  0  0  0  0  0  0  0  0  0
  141.4791   79.0444  224.5546 H   0  0  0  0  0  0  0  0  0  0  0  0
  142.3544   78.6623  221.6883 H   0  0  0  0  0  0  0  0  0  0  0  0
  138.9702   79.0712  222.6445 H   0  0  0  0  0  0  0  0  0  0  0  0
  137.3268   77.2573  222.4641 H   0  0  0  0  0  0  0  0  0  0  0  0
  137.7560   73.9950  222.7260 H   0  0  0  0  0  0  0  0  0  0  0  0
  140.4802   74.4497  221.7433 H   0  0  0  0  0  0  0  0  0  0  0  0
  142.1173   76.2737  221.9217 H   0  0  0  0  0  0  0  0  0  0  0  0
  140.8239   75.6140  217.3130 H   0  0  0  0  0  0  0  0  0  0  0  0
  141.9779   73.4294  217.1432 H   0  0  0  0  0  0  0  0  0  0  0  0
  143.6540   71.9130  217.8465 H   0  0  0  0  0  0  0  0  0  0  0  0
  146.3124   73.0814  221.0113 H   0  0  0  0  0  0  0  0  0  0  0  0
  145.1556   75.2818  221.1847 H   0  0  0  0  0  0  0  0  0  0  0  0
  1  2  2  0
  2  3  1  0
  3  4  1  0
  4  5  1  0
  5  6  2  0
  5  7  1  0
  7  8  1  0
  8  9  1  0
  9 10  1  0
 10 11  1  0
 11 12  1  0
 12 13  1  0
 13 14  2  0
 14 15  1  0
 15 16  2  0
 16 17  1  0
 16 18  1  0
 18 19  2  0
  2 20  1  0
 20 21  2  0
 21 22  1  0
 22 23  2  0
 23 24  1  0
 24 25  2  0
 25 26  1  0
 25 27  1  0
 27 28  2  0
 28 29  1  0
 29 30  2  0
 12  7  1  0
 19 13  1  0
 30 20  1  0
 29 23  1  0
  3 31  1  0
  4 32  1  0
  4 33  1  0
  8 34  1  0
  8 35  1  0
  9 36  1  0
  9 37  1  0
 10 38  1  0
 10 39  1  0
 11 40  1  0
 11 41  1  0
 12 42  1  6
 14 43  1  0
 15 44  1  0
 17 45  1  0
 18 46  1  0
 19 47  1  0
 21 48  1  0
 22 49  1  0
 24 50  1  0
 27 51  1  0
 28 52  1  0
M  END
>  <smiles>  (82) 
O=C(NCC(=O)N1CCCCC1c1ccc(O)cc1)c1ccc2cc(Cl)ccc2n1

>  <score_type>  (82) 
oracle

>  <origin>  (82) 
autodockgpu

>  <m_score__min__energy>  (82) 
-8.5800000000000001

>  <m_primary>  (82) 
energy

>  <rmsd>  (82) 
7.864523671684909

>  <m_score__min__rmsd>  (82) 
7.864523671684909

>  <meeko>  (82) 
{"free_energy": -7.25, "intermolecular_energy": -9.04, "internal_energy": -2.36, "cluster_size": 15, "cluster_id": 6, "rank_in_cluster": 10}

>  <energy>  (82) 
-7.97

>  <cluster_rmsd>  (82) 
0.0

>  <cluster>  (82) 
4

$$$$

     RDKit          3D

 52 55  0  0  0  0  0  0  0  0999 V2000
  143.1690   79.0280  218.2150 O   0  0  0  0  0  0  0  0  0  0  0  0
  142.5840   78.0000  218.6800 C   0  0  0  0  0  0  0  0  0  0  0  0
  141.3090   78.2160  219.3730 N   0  0  0  0  0  0  0  0  0  0  0  0
  140.8780   79.5510  219.4430 C   0  0  0  0  0  0  0  0  0  0  0  0
  141.0510   80.3740  220.6140 C   0  0  0  0  0  0  0  0  0  0  0  0
  141.2680   81.6470  220.2950 O   0  0  0  0  0  0  0  0  0  0  0  0
  141.0420   80.1420  221.9770 N   0  0  0  0  0  0  0  0  0  0  0  0
  140.5830   81.0010  223.0480 C   0  0  0  0  0  0  0  0  0  0  0  0
  141.8420   81.6320  223.6250 C   0  0  0  0  0  0  0  0  0  0  0  0
  142.8510   80.5290  223.8150 C   0  0  0  0  0  0  0  0  0  0  0  0
  142.2110   79.1530  223.8110 C   0  0  0  0  0  0  0  0  0  0  0  0
  141.6200   78.8670  222.4560 C   0  0  1  0  0  0  0  0  0  0  0  0
  140.7240   77.7280  222.3710 C   0  0  0  0  0  0  0  0  0  0  0  0
  139.3770   77.9390  222.7030 C   0  0  0  0  0  0  0  0  0  0  0  0
  138.4510   76.9170  222.6590 C   0  0  0  0  0  0  0  0  0  0  0  0
  138.8120   75.6380  222.2850 C   0  0  0  0  0  0  0  0  0  0  0  0
  137.9150   74.5800  222.2260 O   0  0  0  0  0  0  0  0  0  0  0  0
  140.1310   75.4090  221.9540 C   0  0  0  0  0  0  0  0  0  0  0  0
  141.0490   76.4460  222.0040 C   0  0  0  0  0  0  0  0  0  0  0  0
  143.1210   76.6710  218.5480 C   0  0  0  0  0  0  0  0  0  0  0  0
  143.1890   76.1090  217.3020 C   0  0  0  0  0  0  0  0  0  0  0  0
  143.7010   74.8360  217.1480 C   0  0  0  0  0  0  0  0  0  0  0  0
  144.1430   74.1240  218.2330 C   0  0  0  0  0  0  0  0  0  0  0  0
  144.6470   72.8570  218.0480 C   0  0  0  0  0  0  0  0  0  0  0  0
  145.0820   72.1660  219.1490 C   0  0  0  0  0  0  0  0  0  0  0  0
  145.7390   70.5470  218.9990 Cl  0  0  0  0  0  0  0  0  0  0  0  0
  145.0120   72.7340  220.4030 C   0  0  0  0  0  0  0  0  0  0  0  0
  144.4970   74.0190  220.5640 C   0  0  0  0  0  0  0  0  0  0  0  0
  144.0620   74.7150  219.4760 C   0  0  0  0  0  0  0  0  0  0  0  0
  143.5620   75.9530  219.6070 N   0  0  0  0  0  0  0  0  0  0  0  0
  140.8870   77.3450  219.7070 H   0  0  0  0  0  0  0  0  0  0  0  0
  141.3907   80.0777  218.6246 H   0  0  0  0  0  0  0  0  0  0  0  0
  139.7850   79.4295  219.4204 H   0  0  0  0  0  0  0  0  0  0  0  0
  139.9077   81.7765  222.6573 H   0  0  0  0  0  0  0  0  0  0  0  0
  140.0191   80.4416  223.8090 H   0  0  0  0  0  0  0  0  0  0  0  0
  142.2368   82.3874  222.9296 H   0  0  0  0  0  0  0  0  0  0  0  0
  141.6244   82.1291  224.5818 H   0  0  0  0  0  0  0  0  0  0  0  0
  143.5868   80.5788  222.9989 H   0  0  0  0  0  0  0  0  0  0  0  0
  143.3269   80.6749  224.7959 H   0  0  0  0  0  0  0  0  0  0  0  0
  142.9737   78.3953  224.0436 H   0  0  0  0  0  0  0  0  0  0  0  0
  141.4135   79.1222  224.5680 H   0  0  0  0  0  0  0  0  0  0  0  0
  142.4189   78.5203  221.7840 H   0  0  0  0  0  0  0  0  0  0  0  0
  139.0510   78.9449  223.0061 H   0  0  0  0  0  0  0  0  0  0  0  0
  137.4047   77.1254  222.9271 H   0  0  0  0  0  0  0  0  0  0  0  0
  137.7790   73.9380  222.9970 H   0  0  0  0  0  0  0  0  0  0  0  0
  140.4547   74.4026  221.6501 H   0  0  0  0  0  0  0  0  0  0  0  0
  142.0936   76.2302  221.7353 H   0  0  0  0  0  0  0  0  0  0  0  0
  142.8362   76.6707  216.4245 H   0  0  0  0  0  0  0  0  0  0  0  0
  143.7548   74.3886  216.1446 H   0  0  0  0  0  0  0  0  0  0  0  0
  144.6994   72.4108  217.0439 H   0  0  0  0  0  0  0  0  0  0  0  0
  145.3639   72.1709  221.2800 H   0  0  0  0  0  0  0  0  0  0  0  0
  144.4418   74.4699  221.5658 H   0  0  0  0  0  0  0  0  0  0  0  0
  1  2  2  0
  2  3  1  0
  3  4  1  0
  4  5  1  0
  5  6  2  0
  5  7  1  0
  7  8  1  0
  8  9  1  0
  9 10  1  0
 10 11  1  0
 11 12  1  0
 12 13  1  0
 13 14  2  0
 14 15  1  0
 15 16  2  0
 16 17  1  0
 16 18  1  0
 18 19  2  0
  2 20  1  0
 20 21  2  0
 21 22  1  0
 22 23  2  0
 23 24  1  0
 24 25  2  0
 25 26  1  0
 25 27  1  0
 27 28  2  0
 28 29  1  0
 29 30  2  0
 12  7  1  0
 19 13  1  0
 30 20  1  0
 29 23  1  0
  3 31  1  0
  4 32  1  0
  4 33  1  0
  8 34  1  0
  8 35  1  0
  9 36  1  0
  9 37  1  0
 10 38  1  0
 10 39  1  0
 11 40  1  0
 11 41  1  0
 12 42  1  6
 14 43  1  0
 15 44  1  0
 17 45  1  0
 18 46  1  0
 19 47  1  0
 21 48  1  0
 22 49  1  0
 24 50  1  0
 27 51  1  0
 28 52  1  0
M  END
>  <smiles>  (83) 
O=C(NCC(=O)N1CCCCC1c1ccc(O)cc1)c1ccc2cc(Cl)ccc2n1

>  <score_type>  (83) 
oracle

>  <origin>  (83) 
autodockgpu

>  <m_score__min__energy>  (83) 
-8.5800000000000001

>  <m_primary>  (83) 
energy

>  <rmsd>  (83) 
8.127668298200602

>  <m_score__min__rmsd>  (83) 
8.127668298200602

>  <meeko>  (83) 
{"free_energy": -7.39, "intermolecular_energy": -9.18, "internal_energy": -1.89, "cluster_size": 15, "cluster_id": 6, "rank_in_cluster": 4}

>  <energy>  (83) 
-7.88

>  <cluster_rmsd>  (83) 
0.85

>  <cluster>  (83) 
4

$$$$

     RDKit          3D

 52 55  0  0  0  0  0  0  0  0999 V2000
  138.9610   71.6680  220.7080 O   0  0  0  0  0  0  0  0  0  0  0  0
  139.0100   72.1100  221.9000 C   0  0  0  0  0  0  0  0  0  0  0  0
  138.7440   73.5400  222.0900 N   0  0  0  0  0  0  0  0  0  0  0  0
  138.4650   74.2640  220.9190 C   0  0  0  0  0  0  0  0  0  0  0  0
  139.1860   75.4530  220.5370 C   0  0  0  0  0  0  0  0  0  0  0  0
  138.7660   75.9310  219.3680 O   0  0  0  0  0  0  0  0  0  0  0  0
  140.2020   76.2000  221.1030 N   0  0  0  0  0  0  0  0  0  0  0  0
  140.2280   76.8960  222.3720 C   0  0  0  0  0  0  0  0  0  0  0  0
  139.9630   78.3560  222.0340 C   0  0  0  0  0  0  0  0  0  0  0  0
  140.8450   78.7150  220.8670 C   0  0  0  0  0  0  0  0  0  0  0  0
  141.9850   77.7320  220.6800 C   0  0  0  0  0  0  0  0  0  0  0  0
  141.4390   76.3780  220.3110 C   0  0  1  0  0  0  0  0  0  0  0  0
  142.3690   75.2670  220.3830 C   0  0  0  0  0  0  0  0  0  0  0  0
  143.7020   75.5140  220.0220 C   0  0  0  0  0  0  0  0  0  0  0  0
  144.6580   74.5200  220.0540 C   0  0  0  0  0  0  0  0  0  0  0  0
  144.3420   73.2330  220.4430 C   0  0  0  0  0  0  0  0  0  0  0  0
  145.2700   72.2020  220.4900 O   0  0  0  0  0  0  0  0  0  0  0  0
  143.0370   72.9680  220.8020 C   0  0  0  0  0  0  0  0  0  0  0  0
  142.0890   73.9780  220.7660 C   0  0  0  0  0  0  0  0  0  0  0  0
  139.3070   71.2720  223.0300 C   0  0  0  0  0  0  0  0  0  0  0  0
  138.9770   69.9440  222.9710 C   0  0  0  0  0  0  0  0  0  0  0  0
  139.2520   69.1180  224.0430 C   0  0  0  0  0  0  0  0  0  0  0  0
  139.8540   69.6120  225.1710 C   0  0  0  0  0  0  0  0  0  0  0  0
  140.1140   68.7640  226.2220 C   0  0  0  0  0  0  0  0  0  0  0  0
  140.7170   69.2830  227.3390 C   0  0  0  0  0  0  0  0  0  0  0  0
  141.0840   68.2690  228.7220 Cl  0  0  0  0  0  0  0  0  0  0  0  0
  141.0480   70.6200  227.3970 C   0  0  0  0  0  0  0  0  0  0  0  0
  140.7730   71.4580  226.3180 C   0  0  0  0  0  0  0  0  0  0  0  0
  140.1750   70.9530  225.2030 C   0  0  0  0  0  0  0  0  0  0  0  0
  139.9000   71.7410  224.1530 N   0  0  0  0  0  0  0  0  0  0  0  0
  138.7840   73.8240  223.0730 H   0  0  0  0  0  0  0  0  0  0  0  0
  138.5898   73.5544  220.0878 H   0  0  0  0  0  0  0  0  0  0  0  0
  137.4708   74.6753  221.1479 H   0  0  0  0  0  0  0  0  0  0  0  0
  139.4461   76.5072  223.0409 H   0  0  0  0  0  0  0  0  0  0  0  0
  141.1874   76.7631  222.8933 H   0  0  0  0  0  0  0  0  0  0  0  0
  138.9059   78.4933  221.7626 H   0  0  0  0  0  0  0  0  0  0  0  0
  140.1807   79.0006  222.8983 H   0  0  0  0  0  0  0  0  0  0  0  0
  140.2339   78.7254  219.9524 H   0  0  0  0  0  0  0  0  0  0  0  0
  141.2839   79.7030  221.0698 H   0  0  0  0  0  0  0  0  0  0  0  0
  142.6468   78.0895  219.8774 H   0  0  0  0  0  0  0  0  0  0  0  0
  142.5507   77.6505  221.6198 H   0  0  0  0  0  0  0  0  0  0  0  0
  141.2213   76.3611  219.2329 H   0  0  0  0  0  0  0  0  0  0  0  0
  143.9924   76.5266  219.7052 H   0  0  0  0  0  0  0  0  0  0  0  0
  145.6923   74.7571  219.7640 H   0  0  0  0  0  0  0  0  0  0  0  0
  145.2980   71.5280  221.2450 H   0  0  0  0  0  0  0  0  0  0  0  0
  142.7486   71.9543  221.1171 H   0  0  0  0  0  0  0  0  0  0  0  0
  141.0573   73.7345  221.0598 H   0  0  0  0  0  0  0  0  0  0  0  0
  138.4936   69.5360  222.0710 H   0  0  0  0  0  0  0  0  0  0  0  0
  138.9851   68.0521  223.9911 H   0  0  0  0  0  0  0  0  0  0  0  0
  139.8456   67.6986  226.1682 H   0  0  0  0  0  0  0  0  0  0  0  0
  141.5307   71.0267  228.2979 H   0  0  0  0  0  0  0  0  0  0  0  0
  141.0381   72.5245  226.3665 H   0  0  0  0  0  0  0  0  0  0  0  0
  1  2  2  0
  2  3  1  0
  3  4  1  0
  4  5  1  0
  5  6  2  0
  5  7  1  0
  7  8  1  0
  8  9  1  0
  9 10  1  0
 10 11  1  0
 11 12  1  0
 12 13  1  0
 13 14  2  0
 14 15  1  0
 15 16  2  0
 16 17  1  0
 16 18  1  0
 18 19  2  0
  2 20  1  0
 20 21  2  0
 21 22  1  0
 22 23  2  0
 23 24  1  0
 24 25  2  0
 25 26  1  0
 25 27  1  0
 27 28  2  0
 28 29  1  0
 29 30  2  0
 12  7  1  0
 19 13  1  0
 30 20  1  0
 29 23  1  0
  3 31  1  0
  4 32  1  0
  4 33  1  0
  8 34  1  0
  8 35  1  0
  9 36  1  0
  9 37  1  0
 10 38  1  0
 10 39  1  0
 11 40  1  0
 11 41  1  0
 12 42  1  6
 14 43  1  0
 15 44  1  0
 17 45  1  0
 18 46  1  0
 19 47  1  0
 21 48  1  0
 22 49  1  0
 24 50  1  0
 27 51  1  0
 28 52  1  0
M  END
>  <smiles>  (84) 
O=C(NCC(=O)N1CCCCC1c1ccc(O)cc1)c1ccc2cc(Cl)ccc2n1

>  <score_type>  (84) 
oracle

>  <origin>  (84) 
autodockgpu

>  <m_score__min__energy>  (84) 
-8.5800000000000001

>  <m_primary>  (84) 
energy

>  <rmsd>  (84) 
2.4729248770310814

>  <m_score__min__rmsd>  (84) 
2.4729248770310814

>  <meeko>  (84) 
{"free_energy": -8.25, "intermolecular_energy": -10.04, "internal_energy": -1.71, "cluster_size": 20, "cluster_id": 1, "rank_in_cluster": 14}

>  <energy>  (84) 
-7.68

>  <cluster_rmsd>  (84) 
0.96

>  <cluster>  (84) 
4

$$$$

     RDKit          3D

 52 55  0  0  0  0  0  0  0  0999 V2000
  141.2220   72.3440  221.1770 O   0  0  0  0  0  0  0  0  0  0  0  0
  140.4660   72.5570  222.1770 C   0  0  0  0  0  0  0  0  0  0  0  0
  139.6880   73.8010  222.1690 N   0  0  0  0  0  0  0  0  0  0  0  0
  139.8730   74.6230  221.0450 C   0  0  0  0  0  0  0  0  0  0  0  0
  140.5880   75.8730  221.0930 C   0  0  0  0  0  0  0  0  0  0  0  0
  140.3510   76.5350  222.2230 O   0  0  0  0  0  0  0  0  0  0  0  0
  141.4550   76.5330  220.2420 N   0  0  0  0  0  0  0  0  0  0  0  0
  141.9560   77.8890  220.3170 C   0  0  0  0  0  0  0  0  0  0  0  0
  141.1110   78.6840  219.3330 C   0  0  0  0  0  0  0  0  0  0  0  0
  141.0430   77.8900  218.0540 C   0  0  0  0  0  0  0  0  0  0  0  0
  142.1300   76.8350  217.9710 C   0  0  0  0  0  0  0  0  0  0  0  0
  141.9250   75.8000  219.0450 C   0  0  1  0  0  0  0  0  0  0  0  0
  143.0310   74.8940  219.2870 C   0  0  0  0  0  0  0  0  0  0  0  0
  143.4480   74.0820  218.2200 C   0  0  0  0  0  0  0  0  0  0  0  0
  144.4870   73.1850  218.3550 C   0  0  0  0  0  0  0  0  0  0  0  0
  145.1640   73.0460  219.5500 C   0  0  0  0  0  0  0  0  0  0  0  0
  146.2150   72.1570  219.7310 O   0  0  0  0  0  0  0  0  0  0  0  0
  144.7720   73.8340  220.6110 C   0  0  0  0  0  0  0  0  0  0  0  0
  143.7260   74.7310  220.4600 C   0  0  0  0  0  0  0  0  0  0  0  0
  140.3550   71.6390  223.2790 C   0  0  0  0  0  0  0  0  0  0  0  0
  139.7620   70.4230  223.0670 C   0  0  0  0  0  0  0  0  0  0  0  0
  139.6430   69.5240  224.1080 C   0  0  0  0  0  0  0  0  0  0  0  0
  140.1130   69.8350  225.3580 C   0  0  0  0  0  0  0  0  0  0  0  0
  139.9800   68.9190  226.3750 C   0  0  0  0  0  0  0  0  0  0  0  0
  140.4590   69.2540  227.6160 C   0  0  0  0  0  0  0  0  0  0  0  0
  140.3280   68.1420  228.9660 Cl  0  0  0  0  0  0  0  0  0  0  0  0
  141.0540   70.4790  227.8270 C   0  0  0  0  0  0  0  0  0  0  0  0
  141.1770   71.3900  226.7790 C   0  0  0  0  0  0  0  0  0  0  0  0
  140.7060   71.0670  225.5420 C   0  0  0  0  0  0  0  0  0  0  0  0
  140.8120   71.9270  224.5190 N   0  0  0  0  0  0  0  0  0  0  0  0
  139.0910   73.9000  222.9950 H   0  0  0  0  0  0  0  0  0  0  0  0
  140.3952   74.0042  220.3004 H   0  0  0  0  0  0  0  0  0  0  0  0
  138.8455   74.9659  220.8533 H   0  0  0  0  0  0  0  0  0  0  0  0
  141.8384   78.2874  221.3355 H   0  0  0  0  0  0  0  0  0  0  0  0
  143.0277   77.9442  220.0754 H   0  0  0  0  0  0  0  0  0  0  0  0
  140.0992   78.8306  219.7389 H   0  0  0  0  0  0  0  0  0  0  0  0
  141.5537   79.6746  219.1523 H   0  0  0  0  0  0  0  0  0  0  0  0
  140.0632   77.3931  217.9981 H   0  0  0  0  0  0  0  0  0  0  0  0
  141.1884   78.5886  217.2169 H   0  0  0  0  0  0  0  0  0  0  0  0
  142.0919   76.3493  216.9848 H   0  0  0  0  0  0  0  0  0  0  0  0
  143.1101   77.3139  218.1129 H   0  0  0  0  0  0  0  0  0  0  0  0
  141.1702   75.0758  218.7046 H   0  0  0  0  0  0  0  0  0  0  0  0
  142.9328   74.1634  217.2515 H   0  0  0  0  0  0  0  0  0  0  0  0
  144.7820   72.5681  217.4933 H   0  0  0  0  0  0  0  0  0  0  0  0
  146.2500   71.5040  220.5040 H   0  0  0  0  0  0  0  0  0  0  0  0
  145.2896   73.7509  221.5781 H   0  0  0  0  0  0  0  0  0  0  0  0
  143.4373   75.3449  221.3259 H   0  0  0  0  0  0  0  0  0  0  0  0
  139.3809   70.1628  222.0685 H   0  0  0  0  0  0  0  0  0  0  0  0
  139.1663   68.5483  223.9329 H   0  0  0  0  0  0  0  0  0  0  0  0
  139.5024   67.9440  226.1982 H   0  0  0  0  0  0  0  0  0  0  0  0
  141.4334   70.7390  228.8263 H   0  0  0  0  0  0  0  0  0  0  0  0
  141.6530   72.3668  226.9503 H   0  0  0  0  0  0  0  0  0  0  0  0
  1  2  2  0
  2  3  1  0
  3  4  1  0
  4  5  1  0
  5  6  2  0
  5  7  1  0
  7  8  1  0
  8  9  1  0
  9 10  1  0
 10 11  1  0
 11 12  1  0
 12 13  1  0
 13 14  2  0
 14 15  1  0
 15 16  2  0
 16 17  1  0
 16 18  1  0
 18 19  2  0
  2 20  1  0
 20 21  2  0
 21 22  1  0
 22 23  2  0
 23 24  1  0
 24 25  2  0
 25 26  1  0
 25 27  1  0
 27 28  2  0
 28 29  1  0
 29 30  2  0
 12  7  1  0
 19 13  1  0
 30 20  1  0
 29 23  1  0
  3 31  1  0
  4 32  1  0
  4 33  1  0
  8 34  1  0
  8 35  1  0
  9 36  1  0
  9 37  1  0
 10 38  1  0
 10 39  1  0
 11 40  1  0
 11 41  1  0
 12 42  1  6
 14 43  1  0
 15 44  1  0
 17 45  1  0
 18 46  1  0
 19 47  1  0
 21 48  1  0
 22 49  1  0
 24 50  1  0
 27 51  1  0
 28 52  1  0
M  END
>  <smiles>  (85) 
O=C(NCC(=O)N1CCCCC1c1ccc(O)cc1)c1ccc2cc(Cl)ccc2n1

>  <score_type>  (85) 
oracle

>  <origin>  (85) 
autodockgpu

>  <m_score__min__energy>  (85) 
-8.5800000000000001

>  <m_primary>  (85) 
energy

>  <rmsd>  (85) 
2.3440428378879385

>  <m_score__min__rmsd>  (85) 
2.3440428378879385

>  <meeko>  (85) 
{"free_energy": -8.51, "intermolecular_energy": -10.3, "internal_energy": -1.58, "cluster_size": 20, "cluster_id": 1, "rank_in_cluster": 4}

>  <energy>  (85) 
-7.8

>  <cluster_rmsd>  (85) 
0.0

>  <cluster>  (85) 
5

$$$$

     RDKit          3D

 52 55  0  0  0  0  0  0  0  0999 V2000
  139.3690   74.2950  222.1250 O   0  0  0  0  0  0  0  0  0  0  0  0
  140.5550   74.5630  221.7520 C   0  0  0  0  0  0  0  0  0  0  0  0
  140.9990   75.9540  221.8960 N   0  0  0  0  0  0  0  0  0  0  0  0
  140.0500   76.8390  222.4350 C   0  0  0  0  0  0  0  0  0  0  0  0
  140.2250   78.2700  222.4450 C   0  0  0  0  0  0  0  0  0  0  0  0
  139.0770   78.9050  222.6700 O   0  0  0  0  0  0  0  0  0  0  0  0
  141.3000   79.1220  222.2760 N   0  0  0  0  0  0  0  0  0  0  0  0
  142.4200   79.3680  223.1590 C   0  0  0  0  0  0  0  0  0  0  0  0
  142.0880   80.6690  223.8750 C   0  0  0  0  0  0  0  0  0  0  0  0
  141.6180   81.6490  222.8310 C   0  0  0  0  0  0  0  0  0  0  0  0
  142.0190   81.2360  221.4280 C   0  0  0  0  0  0  0  0  0  0  0  0
  141.3250   79.9540  221.0520 C   0  0  1  0  0  0  0  0  0  0  0  0
  141.8210   79.2760  219.8690 C   0  0  0  0  0  0  0  0  0  0  0  0
  142.0330   80.0520  218.7190 C   0  0  0  0  0  0  0  0  0  0  0  0
  142.4970   79.4950  217.5450 C   0  0  0  0  0  0  0  0  0  0  0  0
  142.7730   78.1460  217.4510 C   0  0  0  0  0  0  0  0  0  0  0  0
  143.2410   77.5440  216.2910 O   0  0  0  0  0  0  0  0  0  0  0  0
  142.5720   77.3650  218.5690 C   0  0  0  0  0  0  0  0  0  0  0  0
  142.1050   77.9390  219.7420 C   0  0  0  0  0  0  0  0  0  0  0  0
  141.4450   73.5710  221.2120 C   0  0  0  0  0  0  0  0  0  0  0  0
  140.9760   72.2980  221.0230 C   0  0  0  0  0  0  0  0  0  0  0  0
  141.8090   71.3270  220.5050 C   0  0  0  0  0  0  0  0  0  0  0  0
  143.1070   71.6220  220.1760 C   0  0  0  0  0  0  0  0  0  0  0  0
  143.9130   70.6330  219.6630 C   0  0  0  0  0  0  0  0  0  0  0  0
  145.2070   70.9530  219.3420 C   0  0  0  0  0  0  0  0  0  0  0  0
  146.3000   69.7500  218.6820 Cl  0  0  0  0  0  0  0  0  0  0  0  0
  145.6780   72.2340  219.5340 C   0  0  0  0  0  0  0  0  0  0  0  0
  144.8400   73.2190  220.0560 C   0  0  0  0  0  0  0  0  0  0  0  0
  143.5530   72.9110  220.3770 C   0  0  0  0  0  0  0  0  0  0  0  0
  142.7290   73.8420  220.8810 N   0  0  0  0  0  0  0  0  0  0  0  0
  141.9660   76.0950  221.5920 H   0  0  0  0  0  0  0  0  0  0  0  0
  139.1156   76.6522  221.8854 H   0  0  0  0  0  0  0  0  0  0  0  0
  140.1145   76.6029  223.5074 H   0  0  0  0  0  0  0  0  0  0  0  0
  142.5279   78.5466  223.8826 H   0  0  0  0  0  0  0  0  0  0  0  0
  143.3699   79.4336  222.6083 H   0  0  0  0  0  0  0  0  0  0  0  0
  141.2930   80.4984  224.6159 H   0  0  0  0  0  0  0  0  0  0  0  0
  142.9704   81.0579  224.4043 H   0  0  0  0  0  0  0  0  0  0  0  0
  140.5212   81.7175  222.8791 H   0  0  0  0  0  0  0  0  0  0  0  0
  142.0922   82.6185  223.0436 H   0  0  0  0  0  0  0  0  0  0  0  0
  141.7326   82.0270  220.7193 H   0  0  0  0  0  0  0  0  0  0  0  0
  143.1076   81.0815  221.3936 H   0  0  0  0  0  0  0  0  0  0  0  0
  140.3044   80.1849  220.7127 H   0  0  0  0  0  0  0  0  0  0  0  0
  141.8240   81.1314  218.7545 H   0  0  0  0  0  0  0  0  0  0  0  0
  142.6500   80.1390  216.6664 H   0  0  0  0  0  0  0  0  0  0  0  0
  144.0390   77.8980  215.7770 H   0  0  0  0  0  0  0  0  0  0  0  0
  142.7821   76.2859  218.5308 H   0  0  0  0  0  0  0  0  0  0  0  0
  141.9543   77.2888  220.6164 H   0  0  0  0  0  0  0  0  0  0  0  0
  139.9366   72.0498  221.2838 H   0  0  0  0  0  0  0  0  0  0  0  0
  141.4277   70.3062  220.3546 H   0  0  0  0  0  0  0  0  0  0  0  0
  143.5299   69.6127  219.5142 H   0  0  0  0  0  0  0  0  0  0  0  0
  146.7182   72.4802  219.2747 H   0  0  0  0  0  0  0  0  0  0  0  0
  145.2173   74.2410  220.2079 H   0  0  0  0  0  0  0  0  0  0  0  0
  1  2  2  0
  2  3  1  0
  3  4  1  0
  4  5  1  0
  5  6  2  0
  5  7  1  0
  7  8  1  0
  8  9  1  0
  9 10  1  0
 10 11  1  0
 11 12  1  0
 12 13  1  0
 13 14  2  0
 14 15  1  0
 15 16  2  0
 16 17  1  0
 16 18  1  0
 18 19  2  0
  2 20  1  0
 20 21  2  0
 21 22  1  0
 22 23  2  0
 23 24  1  0
 24 25  2  0
 25 26  1  0
 25 27  1  0
 27 28  2  0
 28 29  1  0
 29 30  2  0
 12  7  1  0
 19 13  1  0
 30 20  1  0
 29 23  1  0
  3 31  1  0
  4 32  1  0
  4 33  1  0
  8 34  1  0
  8 35  1  0
  9 36  1  0
  9 37  1  0
 10 38  1  0
 10 39  1  0
 11 40  1  0
 11 41  1  0
 12 42  1  6
 14 43  1  0
 15 44  1  0
 17 45  1  0
 18 46  1  0
 19 47  1  0
 21 48  1  0
 22 49  1  0
 24 50  1  0
 27 51  1  0
 28 52  1  0
M  END
>  <smiles>  (86) 
O=C(NCC(=O)N1CCCCC1c1ccc(O)cc1)c1ccc2cc(Cl)ccc2n1

>  <score_type>  (86) 
oracle

>  <origin>  (86) 
autodockgpu

>  <m_score__min__energy>  (86) 
-8.5800000000000001

>  <m_primary>  (86) 
energy

>  <rmsd>  (86) 
6.333182245102943

>  <m_score__min__rmsd>  (86) 
6.333182245102943

>  <meeko>  (86) 
{"free_energy": -7.68, "intermolecular_energy": -9.47, "internal_energy": -1.77, "cluster_size": 4, "cluster_id": 3, "rank_in_cluster": 2}

>  <energy>  (86) 
-7.49

>  <cluster_rmsd>  (86) 
0.0

>  <cluster>  (86) 
6

$$$$

     RDKit          3D

 52 55  0  0  0  0  0  0  0  0999 V2000
  141.2680   72.7690  221.4300 O   0  0  0  0  0  0  0  0  0  0  0  0
  140.3940   72.8330  222.3520 C   0  0  0  0  0  0  0  0  0  0  0  0
  139.4460   73.9510  222.2930 N   0  0  0  0  0  0  0  0  0  0  0  0
  139.6180   74.8340  221.2140 C   0  0  0  0  0  0  0  0  0  0  0  0
  140.6480   75.8410  221.1760 C   0  0  0  0  0  0  0  0  0  0  0  0
  140.9140   76.3210  222.3890 O   0  0  0  0  0  0  0  0  0  0  0  0
  141.4150   76.4140  220.1790 N   0  0  0  0  0  0  0  0  0  0  0  0
  141.8390   77.7890  220.0270 C   0  0  0  0  0  0  0  0  0  0  0  0
  140.8840   78.3940  219.0080 C   0  0  0  0  0  0  0  0  0  0  0  0
  140.7760   77.4230  217.8610 C   0  0  0  0  0  0  0  0  0  0  0  0
  141.9140   76.4210  217.8430 C   0  0  0  0  0  0  0  0  0  0  0  0
  141.8440   75.5410  219.0630 C   0  0  1  0  0  0  0  0  0  0  0  0
  143.0160   74.7330  219.3440 C   0  0  0  0  0  0  0  0  0  0  0  0
  143.1200   73.4960  218.6900 C   0  0  0  0  0  0  0  0  0  0  0  0
  144.1950   72.6550  218.8960 C   0  0  0  0  0  0  0  0  0  0  0  0
  145.2160   72.9960  219.7600 C   0  0  0  0  0  0  0  0  0  0  0  0
  146.3160   72.1830  219.9980 O   0  0  0  0  0  0  0  0  0  0  0  0
  145.1340   74.2080  220.4130 C   0  0  0  0  0  0  0  0  0  0  0  0
  144.0480   75.0420  220.1940 C   0  0  0  0  0  0  0  0  0  0  0  0
  140.3110   71.8670  223.4150 C   0  0  0  0  0  0  0  0  0  0  0  0
  139.7870   70.6320  223.1430 C   0  0  0  0  0  0  0  0  0  0  0  0
  139.6960   69.6870  224.1460 C   0  0  0  0  0  0  0  0  0  0  0  0
  140.1260   69.9720  225.4170 C   0  0  0  0  0  0  0  0  0  0  0  0
  140.0220   69.0100  226.3940 C   0  0  0  0  0  0  0  0  0  0  0  0
  140.4590   69.3200  227.6570 C   0  0  0  0  0  0  0  0  0  0  0  0
  140.3610   68.1490  228.9590 Cl  0  0  0  0  0  0  0  0  0  0  0  0
  140.9840   70.5640  227.9280 C   0  0  0  0  0  0  0  0  0  0  0  0
  141.0790   71.5220  226.9190 C   0  0  0  0  0  0  0  0  0  0  0  0
  140.6480   71.2240  225.6610 C   0  0  0  0  0  0  0  0  0  0  0  0
  140.7280   72.1290  224.6750 N   0  0  0  0  0  0  0  0  0  0  0  0
  138.7630   73.9320  223.0550 H   0  0  0  0  0  0  0  0  0  0  0  0
  139.7808   74.2015  220.3289 H   0  0  0  0  0  0  0  0  0  0  0  0
  138.7113   75.4520  221.2911 H   0  0  0  0  0  0  0  0  0  0  0  0
  141.7673   78.3225  220.9863 H   0  0  0  0  0  0  0  0  0  0  0  0
  142.8868   77.8611  219.7000 H   0  0  0  0  0  0  0  0  0  0  0  0
  139.8952   78.5483  219.4645 H   0  0  0  0  0  0  0  0  0  0  0  0
  141.2550   79.3688  218.6585 H   0  0  0  0  0  0  0  0  0  0  0  0
  139.8254   76.8765  217.9491 H   0  0  0  0  0  0  0  0  0  0  0  0
  140.8233   78.0012  216.9264 H   0  0  0  0  0  0  0  0  0  0  0  0
  141.8369   75.7982  216.9396 H   0  0  0  0  0  0  0  0  0  0  0  0
  142.8718   76.9620  217.8422 H   0  0  0  0  0  0  0  0  0  0  0  0
  141.1115   74.7400  218.8848 H   0  0  0  0  0  0  0  0  0  0  0  0
  142.3245   73.1885  217.9953 H   0  0  0  0  0  0  0  0  0  0  0  0
  144.2389   71.6947  218.3614 H   0  0  0  0  0  0  0  0  0  0  0  0
  146.3010   71.4320  220.6790 H   0  0  0  0  0  0  0  0  0  0  0  0
  145.9303   74.5132  221.1078 H   0  0  0  0  0  0  0  0  0  0  0  0
  144.0119   76.0019  220.7299 H   0  0  0  0  0  0  0  0  0  0  0  0
  139.4390   70.3927  222.1273 H   0  0  0  0  0  0  0  0  0  0  0  0
  139.2744   68.6957  223.9234 H   0  0  0  0  0  0  0  0  0  0  0  0
  139.6001   68.0193  226.1691 H   0  0  0  0  0  0  0  0  0  0  0  0
  141.3298   70.8030  228.9445 H   0  0  0  0  0  0  0  0  0  0  0  0
  141.5002   72.5143  227.1377 H   0  0  0  0  0  0  0  0  0  0  0  0
  1  2  2  0
  2  3  1  0
  3  4  1  0
  4  5  1  0
  5  6  2  0
  5  7  1  0
  7  8  1  0
  8  9  1  0
  9 10  1  0
 10 11  1  0
 11 12  1  0
 12 13  1  0
 13 14  2  0
 14 15  1  0
 15 16  2  0
 16 17  1  0
 16 18  1  0
 18 19  2  0
  2 20  1  0
 20 21  2  0
 21 22  1  0
 22 23  2  0
 23 24  1  0
 24 25  2  0
 25 26  1  0
 25 27  1  0
 27 28  2  0
 28 29  1  0
 29 30  2  0
 12  7  1  0
 19 13  1  0
 30 20  1  0
 29 23  1  0
  3 31  1  0
  4 32  1  0
  4 33  1  0
  8 34  1  0
  8 35  1  0
  9 36  1  0
  9 37  1  0
 10 38  1  0
 10 39  1  0
 11 40  1  0
 11 41  1  0
 12 42  1  6
 14 43  1  0
 15 44  1  0
 17 45  1  0
 18 46  1  0
 19 47  1  0
 21 48  1  0
 22 49  1  0
 24 50  1  0
 27 51  1  0
 28 52  1  0
M  END
>  <smiles>  (87) 
O=C(NCC(=O)N1CCCCC1c1ccc(O)cc1)c1ccc2cc(Cl)ccc2n1

>  <score_type>  (87) 
oracle

>  <origin>  (87) 
autodockgpu

>  <m_score__min__energy>  (87) 
-8.5800000000000001

>  <m_primary>  (87) 
energy

>  <rmsd>  (87) 
2.288240249807774

>  <m_score__min__rmsd>  (87) 
2.288240249807774

>  <meeko>  (87) 
{"free_energy": -8.43, "intermolecular_energy": -10.22, "internal_energy": -1.62, "cluster_size": 20, "cluster_id": 1, "rank_in_cluster": 6}

>  <energy>  (87) 
-7.43

>  <cluster_rmsd>  (87) 
0.33

>  <cluster>  (87) 
6

$$$$

     RDKit          3D

 52 55  0  0  0  0  0  0  0  0999 V2000
  139.2690   71.8030  220.6530 O   0  0  0  0  0  0  0  0  0  0  0  0
  139.0960   72.1920  221.8510 C   0  0  0  0  0  0  0  0  0  0  0  0
  138.5910   73.5560  222.0400 N   0  0  0  0  0  0  0  0  0  0  0  0
  138.3550   74.2830  220.8620 C   0  0  0  0  0  0  0  0  0  0  0  0
  139.0860   75.4760  220.5130 C   0  0  0  0  0  0  0  0  0  0  0  0
  138.6870   75.9760  219.3460 O   0  0  0  0  0  0  0  0  0  0  0  0
  140.0950   76.2090  221.1080 N   0  0  0  0  0  0  0  0  0  0  0  0
  140.1020   76.8870  222.3870 C   0  0  0  0  0  0  0  0  0  0  0  0
  139.8500   78.3530  222.0650 C   0  0  0  0  0  0  0  0  0  0  0  0
  140.7560   78.7240  220.9200 C   0  0  0  0  0  0  0  0  0  0  0  0
  141.8940   77.7380  220.7400 C   0  0  0  0  0  0  0  0  0  0  0  0
  141.3480   76.3920  220.3410 C   0  0  1  0  0  0  0  0  0  0  0  0
  142.2700   75.2750  220.4150 C   0  0  0  0  0  0  0  0  0  0  0  0
  143.6080   75.5150  220.0640 C   0  0  0  0  0  0  0  0  0  0  0  0
  144.5570   74.5150  220.0970 C   0  0  0  0  0  0  0  0  0  0  0  0
  144.2310   73.2290  220.4780 C   0  0  0  0  0  0  0  0  0  0  0  0
  145.1530   72.1920  220.5270 O   0  0  0  0  0  0  0  0  0  0  0  0
  142.9230   72.9700  220.8290 C   0  0  0  0  0  0  0  0  0  0  0  0
  141.9800   73.9870  220.7900 C   0  0  0  0  0  0  0  0  0  0  0  0
  139.3720   71.3570  222.9890 C   0  0  0  0  0  0  0  0  0  0  0  0
  139.0400   70.0300  222.9280 C   0  0  0  0  0  0  0  0  0  0  0  0
  139.2950   69.2060  224.0070 C   0  0  0  0  0  0  0  0  0  0  0  0
  139.8780   69.7030  225.1440 C   0  0  0  0  0  0  0  0  0  0  0  0
  140.1180   68.8580  226.2020 C   0  0  0  0  0  0  0  0  0  0  0  0
  140.7030   69.3790  227.3280 C   0  0  0  0  0  0  0  0  0  0  0  0
  141.0430   68.3690  228.7200 Cl  0  0  0  0  0  0  0  0  0  0  0  0
  141.0340   70.7150  227.3870 C   0  0  0  0  0  0  0  0  0  0  0  0
  140.7800   71.5510  226.3010 C   0  0  0  0  0  0  0  0  0  0  0  0
  140.2010   71.0430  225.1770 C   0  0  0  0  0  0  0  0  0  0  0  0
  139.9460   71.8280  224.1200 N   0  0  0  0  0  0  0  0  0  0  0  0
  138.4610   73.7970  223.0270 H   0  0  0  0  0  0  0  0  0  0  0  0
  138.5148   73.5771  220.0337 H   0  0  0  0  0  0  0  0  0  0  0  0
  137.3509   74.6896  221.0531 H   0  0  0  0  0  0  0  0  0  0  0  0
  139.3066   76.4928  223.0365 H   0  0  0  0  0  0  0  0  0  0  0  0
  141.0515   76.7419  222.9232 H   0  0  0  0  0  0  0  0  0  0  0  0
  138.7989   78.4992  221.7756 H   0  0  0  0  0  0  0  0  0  0  0  0
  140.0539   78.9844  222.9424 H   0  0  0  0  0  0  0  0  0  0  0  0
  140.1624   78.7510  219.9943 H   0  0  0  0  0  0  0  0  0  0  0  0
  141.1962   79.7065  221.1456 H   0  0  0  0  0  0  0  0  0  0  0  0
  142.5726   78.1035  219.9552 H   0  0  0  0  0  0  0  0  0  0  0  0
  142.4415   77.6398  221.6890 H   0  0  0  0  0  0  0  0  0  0  0  0
  141.1510   76.3923  219.2588 H   0  0  0  0  0  0  0  0  0  0  0  0
  143.9072   76.5273  219.7545 H   0  0  0  0  0  0  0  0  0  0  0  0
  145.5944   74.7468  219.8141 H   0  0  0  0  0  0  0  0  0  0  0  0
  145.6040   71.9040  221.3870 H   0  0  0  0  0  0  0  0  0  0  0  0
  142.6272   71.9572  221.1399 H   0  0  0  0  0  0  0  0  0  0  0  0
  140.9447   73.7482  221.0748 H   0  0  0  0  0  0  0  0  0  0  0  0
  138.5709   69.6207  222.0211 H   0  0  0  0  0  0  0  0  0  0  0  0
  139.0276   68.1403  223.9534 H   0  0  0  0  0  0  0  0  0  0  0  0
  139.8481   67.7930  226.1468 H   0  0  0  0  0  0  0  0  0  0  0  0
  141.5008   71.1238  228.2952 H   0  0  0  0  0  0  0  0  0  0  0  0
  141.0460   72.6172  226.3512 H   0  0  0  0  0  0  0  0  0  0  0  0
  1  2  2  0
  2  3  1  0
  3  4  1  0
  4  5  1  0
  5  6  2  0
  5  7  1  0
  7  8  1  0
  8  9  1  0
  9 10  1  0
 10 11  1  0
 11 12  1  0
 12 13  1  0
 13 14  2  0
 14 15  1  0
 15 16  2  0
 16 17  1  0
 16 18  1  0
 18 19  2  0
  2 20  1  0
 20 21  2  0
 21 22  1  0
 22 23  2  0
 23 24  1  0
 24 25  2  0
 25 26  1  0
 25 27  1  0
 27 28  2  0
 28 29  1  0
 29 30  2  0
 12  7  1  0
 19 13  1  0
 30 20  1  0
 29 23  1  0
  3 31  1  0
  4 32  1  0
  4 33  1  0
  8 34  1  0
  8 35  1  0
  9 36  1  0
  9 37  1  0
 10 38  1  0
 10 39  1  0
 11 40  1  0
 11 41  1  0
 12 42  1  6
 14 43  1  0
 15 44  1  0
 17 45  1  0
 18 46  1  0
 19 47  1  0
 21 48  1  0
 22 49  1  0
 24 50  1  0
 27 51  1  0
 28 52  1  0
M  END
>  <smiles>  (88) 
O=C(NCC(=O)N1CCCCC1c1ccc(O)cc1)c1ccc2cc(Cl)ccc2n1

>  <score_type>  (88) 
oracle

>  <origin>  (88) 
autodockgpu

>  <m_score__min__energy>  (88) 
-8.5800000000000001

>  <m_primary>  (88) 
energy

>  <rmsd>  (88) 
2.4886426597075726

>  <m_score__min__rmsd>  (88) 
2.4886426597075726

>  <meeko>  (88) 
{"free_energy": -8.3, "intermolecular_energy": -10.09, "internal_energy": -1.73, "cluster_size": 20, "cluster_id": 1, "rank_in_cluster": 12}

>  <energy>  (88) 
-7.4

>  <cluster_rmsd>  (88) 
0.51

>  <cluster>  (88) 
6

$$$$

     RDKit          3D

 52 55  0  0  0  0  0  0  0  0999 V2000
  141.2930   77.7550  217.4820 O   0  0  0  0  0  0  0  0  0  0  0  0
  142.0750   77.3750  218.4090 C   0  0  0  0  0  0  0  0  0  0  0  0
  142.2820   78.3040  219.5260 N   0  0  0  0  0  0  0  0  0  0  0  0
  141.5840   79.5200  219.4390 C   0  0  0  0  0  0  0  0  0  0  0  0
  141.3260   80.3630  220.5800 C   0  0  0  0  0  0  0  0  0  0  0  0
  141.1520   81.6340  220.2240 O   0  0  0  0  0  0  0  0  0  0  0  0
  141.2200   80.1540  221.9420 N   0  0  0  0  0  0  0  0  0  0  0  0
  140.7240   81.0460  222.9690 C   0  0  0  0  0  0  0  0  0  0  0  0
  141.9660   81.6390  223.6190 C   0  0  0  0  0  0  0  0  0  0  0  0
  142.9180   80.5030  223.8890 C   0  0  0  0  0  0  0  0  0  0  0  0
  142.2290   79.1520  223.8610 C   0  0  0  0  0  0  0  0  0  0  0  0
  141.7170   78.8660  222.4740 C   0  0  1  0  0  0  0  0  0  0  0  0
  140.7870   77.7600  222.3460 C   0  0  0  0  0  0  0  0  0  0  0  0
  139.4560   77.9860  222.7310 C   0  0  0  0  0  0  0  0  0  0  0  0
  138.5010   76.9940  222.6510 C   0  0  0  0  0  0  0  0  0  0  0  0
  138.8130   75.7320  222.1880 C   0  0  0  0  0  0  0  0  0  0  0  0
  137.8850   74.7040  222.0910 O   0  0  0  0  0  0  0  0  0  0  0  0
  140.1150   75.4880  221.8050 C   0  0  0  0  0  0  0  0  0  0  0  0
  141.0640   76.4950  221.8910 C   0  0  0  0  0  0  0  0  0  0  0  0
  142.7400   76.1000  218.3940 C   0  0  0  0  0  0  0  0  0  0  0  0
  142.6560   75.3260  217.2680 C   0  0  0  0  0  0  0  0  0  0  0  0
  143.2860   74.0980  217.2270 C   0  0  0  0  0  0  0  0  0  0  0  0
  143.9980   73.6410  218.3060 C   0  0  0  0  0  0  0  0  0  0  0  0
  144.6130   72.4130  218.2360 C   0  0  0  0  0  0  0  0  0  0  0  0
  145.3190   71.9790  219.3280 C   0  0  0  0  0  0  0  0  0  0  0  0
  146.1340   70.4260  219.3190 Cl  0  0  0  0  0  0  0  0  0  0  0  0
  145.4020   72.7590  220.4610 C   0  0  0  0  0  0  0  0  0  0  0  0
  144.7690   74.0000  220.5070 C   0  0  0  0  0  0  0  0  0  0  0  0
  144.0650   74.4410  219.4270 C   0  0  0  0  0  0  0  0  0  0  0  0
  143.4470   75.6310  219.4490 N   0  0  0  0  0  0  0  0  0  0  0  0
  142.9100   77.9280  220.2430 H   0  0  0  0  0  0  0  0  0  0  0  0
  142.1452   80.1406  218.7250 H   0  0  0  0  0  0  0  0  0  0  0  0
  140.5704   79.1733  219.1892 H   0  0  0  0  0  0  0  0  0  0  0  0
  140.1055   81.8396  222.5244 H   0  0  0  0  0  0  0  0  0  0  0  0
  140.0904   80.5201  223.6984 H   0  0  0  0  0  0  0  0  0  0  0  0
  142.4334   82.3685  222.9412 H   0  0  0  0  0  0  0  0  0  0  0  0
  141.7056   82.1584  224.5530 H   0  0  0  0  0  0  0  0  0  0  0  0
  143.7067   80.5133  223.1223 H   0  0  0  0  0  0  0  0  0  0  0  0
  143.3340   80.6465  224.8972 H   0  0  0  0  0  0  0  0  0  0  0  0
  142.9461   78.3708  224.1533 H   0  0  0  0  0  0  0  0  0  0  0  0
  141.3831   79.1624  224.5641 H   0  0  0  0  0  0  0  0  0  0  0  0
  142.5436   78.4792  221.8599 H   0  0  0  0  0  0  0  0  0  0  0  0
  139.1675   78.9791  223.1059 H   0  0  0  0  0  0  0  0  0  0  0  0
  137.4692   77.2134  222.9628 H   0  0  0  0  0  0  0  0  0  0  0  0
  137.8260   73.9560  222.7710 H   0  0  0  0  0  0  0  0  0  0  0  0
  140.4008   74.4938  221.4310 H   0  0  0  0  0  0  0  0  0  0  0  0
  142.0938   76.2681  221.5779 H   0  0  0  0  0  0  0  0  0  0  0  0
  142.0870   75.6821  216.3965 H   0  0  0  0  0  0  0  0  0  0  0  0
  143.2160   73.4801  216.3196 H   0  0  0  0  0  0  0  0  0  0  0  0
  144.5404   71.7957  217.3284 H   0  0  0  0  0  0  0  0  0  0  0  0
  145.9699   72.4009  221.3324 H   0  0  0  0  0  0  0  0  0  0  0  0
  144.8376   74.6212  221.4122 H   0  0  0  0  0  0  0  0  0  0  0  0
  1  2  2  0
  2  3  1  0
  3  4  1  0
  4  5  1  0
  5  6  2  0
  5  7  1  0
  7  8  1  0
  8  9  1  0
  9 10  1  0
 10 11  1  0
 11 12  1  0
 12 13  1  0
 13 14  2  0
 14 15  1  0
 15 16  2  0
 16 17  1  0
 16 18  1  0
 18 19  2  0
  2 20  1  0
 20 21  2  0
 21 22  1  0
 22 23  2  0
 23 24  1  0
 24 25  2  0
 25 26  1  0
 25 27  1  0
 27 28  2  0
 28 29  1  0
 29 30  2  0
 12  7  1  0
 19 13  1  0
 30 20  1  0
 29 23  1  0
  3 31  1  0
  4 32  1  0
  4 33  1  0
  8 34  1  0
  8 35  1  0
  9 36  1  0
  9 37  1  0
 10 38  1  0
 10 39  1  0
 11 40  1  0
 11 41  1  0
 12 42  1  6
 14 43  1  0
 15 44  1  0
 17 45  1  0
 18 46  1  0
 19 47  1  0
 21 48  1  0
 22 49  1  0
 24 50  1  0
 27 51  1  0
 28 52  1  0
M  END
>  <smiles>  (89) 
O=C(NCC(=O)N1CCCCC1c1ccc(O)cc1)c1ccc2cc(Cl)ccc2n1

>  <score_type>  (89) 
oracle

>  <origin>  (89) 
autodockgpu

>  <m_score__min__energy>  (89) 
-8.5800000000000001

>  <m_primary>  (89) 
energy

>  <rmsd>  (89) 
7.978915489980081

>  <m_score__min__rmsd>  (89) 
7.978915489980081

>  <meeko>  (89) 
{"free_energy": -7.49, "intermolecular_energy": -9.28, "internal_energy": -2.06, "cluster_size": 15, "cluster_id": 6, "rank_in_cluster": 1}

>  <energy>  (89) 
-7.39

>  <cluster_rmsd>  (89) 
0.72

>  <cluster>  (89) 
6

$$$$

     RDKit          3D

 52 55  0  0  0  0  0  0  0  0999 V2000
  140.3240   77.8220  218.6190 O   0  0  0  0  0  0  0  0  0  0  0  0
  141.5390   77.6530  218.9550 C   0  0  0  0  0  0  0  0  0  0  0  0
  142.2670   78.8330  219.4350 N   0  0  0  0  0  0  0  0  0  0  0  0
  141.5290   80.0270  219.4670 C   0  0  0  0  0  0  0  0  0  0  0  0
  140.8180   80.4830  220.6360 C   0  0  0  0  0  0  0  0  0  0  0  0
  139.8660   81.3580  220.3240 O   0  0  0  0  0  0  0  0  0  0  0  0
  140.9010   80.2190  221.9900 N   0  0  0  0  0  0  0  0  0  0  0  0
  140.5390   81.0620  223.1100 C   0  0  0  0  0  0  0  0  0  0  0  0
  141.8510   81.6510  223.6100 C   0  0  0  0  0  0  0  0  0  0  0  0
  142.8440   80.5220  223.7030 C   0  0  0  0  0  0  0  0  0  0  0  0
  142.1740   79.1610  223.7130 C   0  0  0  0  0  0  0  0  0  0  0  0
  141.4810   78.9200  222.3980 C   0  0  1  0  0  0  0  0  0  0  0  0
  140.5550   77.8040  222.3520 C   0  0  0  0  0  0  0  0  0  0  0  0
  141.0780   76.5420  222.0300 C   0  0  0  0  0  0  0  0  0  0  0  0
  140.2760   75.4220  221.9560 C   0  0  0  0  0  0  0  0  0  0  0  0
  138.9180   75.4950  222.1960 C   0  0  0  0  0  0  0  0  0  0  0  0
  138.0740   74.3960  222.1340 O   0  0  0  0  0  0  0  0  0  0  0  0
  138.3830   76.7260  222.5150 C   0  0  0  0  0  0  0  0  0  0  0  0
  139.2030   77.8410  222.5860 C   0  0  0  0  0  0  0  0  0  0  0  0
  142.1970   76.3760  218.8800 C   0  0  0  0  0  0  0  0  0  0  0  0
  141.7790   75.4740  217.9380 C   0  0  0  0  0  0  0  0  0  0  0  0
  142.3950   74.2410  217.8450 C   0  0  0  0  0  0  0  0  0  0  0  0
  143.4230   73.9070  218.6880 C   0  0  0  0  0  0  0  0  0  0  0  0
  144.0150   72.6710  218.5720 C   0  0  0  0  0  0  0  0  0  0  0  0
  145.0410   72.3610  219.4270 C   0  0  0  0  0  0  0  0  0  0  0  0
  145.8500   70.8070  219.3430 Cl  0  0  0  0  0  0  0  0  0  0  0  0
  145.4590   73.2700  220.3750 C   0  0  0  0  0  0  0  0  0  0  0  0
  144.8420   74.5160  220.4720 C   0  0  0  0  0  0  0  0  0  0  0  0
  143.8220   74.8350  219.6270 C   0  0  0  0  0  0  0  0  0  0  0  0
  143.2130   76.0270  219.7030 N   0  0  0  0  0  0  0  0  0  0  0  0
  143.2320   78.6210  219.7020 H   0  0  0  0  0  0  0  0  0  0  0  0
  142.2388   80.8281  219.2131 H   0  0  0  0  0  0  0  0  0  0  0  0
  140.6991   79.7894  218.7852 H   0  0  0  0  0  0  0  0  0  0  0  0
  139.8565   81.8614  222.7858 H   0  0  0  0  0  0  0  0  0  0  0  0
  140.0169   80.4973  223.8964 H   0  0  0  0  0  0  0  0  0  0  0  0
  142.2136   82.4138  222.9053 H   0  0  0  0  0  0  0  0  0  0  0  0
  141.7135   82.1297  224.5908 H   0  0  0  0  0  0  0  0  0  0  0  0
  143.5217   80.5756  222.8382 H   0  0  0  0  0  0  0  0  0  0  0  0
  143.3903   80.6335  224.6512 H   0  0  0  0  0  0  0  0  0  0  0  0
  142.9338   78.3818  223.8728 H   0  0  0  0  0  0  0  0  0  0  0  0
  141.4317   79.1292  224.5242 H   0  0  0  0  0  0  0  0  0  0  0  0
  142.2213   78.5711  221.6630 H   0  0  0  0  0  0  0  0  0  0  0  0
  142.1554   76.4434  221.8315 H   0  0  0  0  0  0  0  0  0  0  0  0
  140.7271   74.4517  221.7008 H   0  0  0  0  0  0  0  0  0  0  0  0
  137.8160   73.8590  222.9530 H   0  0  0  0  0  0  0  0  0  0  0  0
  137.3053   76.8225  222.7130 H   0  0  0  0  0  0  0  0  0  0  0  0
  138.7457   78.8077  222.8438 H   0  0  0  0  0  0  0  0  0  0  0  0
  140.9544   75.7308  217.2568 H   0  0  0  0  0  0  0  0  0  0  0  0
  142.0570   73.5196  217.0865 H   0  0  0  0  0  0  0  0  0  0  0  0
  143.6745   71.9506  217.8137 H   0  0  0  0  0  0  0  0  0  0  0  0
  146.2822   73.0113  221.0572 H   0  0  0  0  0  0  0  0  0  0  0  0
  145.1778   75.2401  221.2290 H   0  0  0  0  0  0  0  0  0  0  0  0
  1  2  2  0
  2  3  1  0
  3  4  1  0
  4  5  1  0
  5  6  2  0
  5  7  1  0
  7  8  1  0
  8  9  1  0
  9 10  1  0
 10 11  1  0
 11 12  1  0
 12 13  1  0
 13 14  2  0
 14 15  1  0
 15 16  2  0
 16 17  1  0
 16 18  1  0
 18 19  2  0
  2 20  1  0
 20 21  2  0
 21 22  1  0
 22 23  2  0
 23 24  1  0
 24 25  2  0
 25 26  1  0
 25 27  1  0
 27 28  2  0
 28 29  1  0
 29 30  2  0
 12  7  1  0
 19 13  1  0
 30 20  1  0
 29 23  1  0
  3 31  1  0
  4 32  1  0
  4 33  1  0
  8 34  1  0
  8 35  1  0
  9 36  1  0
  9 37  1  0
 10 38  1  0
 10 39  1  0
 11 40  1  0
 11 41  1  0
 12 42  1  6
 14 43  1  0
 15 44  1  0
 17 45  1  0
 18 46  1  0
 19 47  1  0
 21 48  1  0
 22 49  1  0
 24 50  1  0
 27 51  1  0
 28 52  1  0
M  END
>  <smiles>  (90) 
O=C(NCC(=O)N1CCCCC1c1ccc(O)cc1)c1ccc2cc(Cl)ccc2n1

>  <score_type>  (90) 
oracle

>  <origin>  (90) 
autodockgpu

>  <m_score__min__energy>  (90) 
-8.5800000000000001

>  <m_primary>  (90) 
energy

>  <rmsd>  (90) 
7.889602031053921

>  <m_score__min__rmsd>  (90) 
7.889602031053921

>  <meeko>  (90) 
{"free_energy": -7.26, "intermolecular_energy": -9.05, "internal_energy": -2.4, "cluster_size": 15, "cluster_id": 6, "rank_in_cluster": 9}

>  <energy>  (90) 
-7.33

>  <cluster_rmsd>  (90) 
0.59

>  <cluster>  (90) 
6

$$$$

     RDKit          3D

 52 55  0  0  0  0  0  0  0  0999 V2000
  140.3190   77.7890  218.7880 O   0  0  0  0  0  0  0  0  0  0  0  0
  141.5790   77.7470  218.9490 C   0  0  0  0  0  0  0  0  0  0  0  0
  142.2500   79.0090  219.2830 N   0  0  0  0  0  0  0  0  0  0  0  0
  141.4110   80.1310  219.3850 C   0  0  0  0  0  0  0  0  0  0  0  0
  140.6960   80.4720  220.5900 C   0  0  0  0  0  0  0  0  0  0  0  0
  139.6420   81.2440  220.3360 O   0  0  0  0  0  0  0  0  0  0  0  0
  140.8550   80.1820  221.9320 N   0  0  0  0  0  0  0  0  0  0  0  0
  140.6210   81.0270  223.0850 C   0  0  0  0  0  0  0  0  0  0  0  0
  141.9970   81.5280  223.5000 C   0  0  0  0  0  0  0  0  0  0  0  0
  142.9240   80.3410  223.5100 C   0  0  0  0  0  0  0  0  0  0  0  0
  142.1750   79.0220  223.5500 C   0  0  0  0  0  0  0  0  0  0  0  0
  141.3810   78.8440  222.2830 C   0  0  1  0  0  0  0  0  0  0  0  0
  140.3890   77.7860  222.2870 C   0  0  0  0  0  0  0  0  0  0  0  0
  140.8280   76.4850  221.9960 C   0  0  0  0  0  0  0  0  0  0  0  0
  139.9580   75.4150  221.9710 C   0  0  0  0  0  0  0  0  0  0  0  0
  138.6120   75.5790  222.2310 C   0  0  0  0  0  0  0  0  0  0  0  0
  137.7010   74.5310  222.2170 O   0  0  0  0  0  0  0  0  0  0  0  0
  138.1590   76.8480  222.5200 C   0  0  0  0  0  0  0  0  0  0  0  0
  139.0460   77.9140  222.5420 C   0  0  0  0  0  0  0  0  0  0  0  0
  142.3420   76.5340  218.8190 C   0  0  0  0  0  0  0  0  0  0  0  0
  142.5500   76.0180  217.5680 C   0  0  0  0  0  0  0  0  0  0  0  0
  143.2780   74.8550  217.4150 C   0  0  0  0  0  0  0  0  0  0  0  0
  143.7980   74.2070  218.5060 C   0  0  0  0  0  0  0  0  0  0  0  0
  144.5180   73.0500  218.3210 C   0  0  0  0  0  0  0  0  0  0  0  0
  145.0280   72.4210  219.4280 C   0  0  0  0  0  0  0  0  0  0  0  0
  145.9580   70.9410  219.2780 Cl  0  0  0  0  0  0  0  0  0  0  0  0
  144.8160   72.9410  220.6860 C   0  0  0  0  0  0  0  0  0  0  0  0
  144.0820   74.1150  220.8460 C   0  0  0  0  0  0  0  0  0  0  0  0
  143.5720   74.7490  219.7530 C   0  0  0  0  0  0  0  0  0  0  0  0
  142.8620   75.8790  219.8820 N   0  0  0  0  0  0  0  0  0  0  0  0
  143.2590   78.8990  219.4130 H   0  0  0  0  0  0  0  0  0  0  0  0
  142.0403   81.0020  219.1497 H   0  0  0  0  0  0  0  0  0  0  0  0
  140.5867   79.8501  218.7130 H   0  0  0  0  0  0  0  0  0  0  0  0
  139.9677   81.8709  222.8183 H   0  0  0  0  0  0  0  0  0  0  0  0
  140.1199   80.4820  223.8986 H   0  0  0  0  0  0  0  0  0  0  0  0
  142.3560   82.2795  222.7814 H   0  0  0  0  0  0  0  0  0  0  0  0
  141.9561   81.9974  224.4940 H   0  0  0  0  0  0  0  0  0  0  0  0
  143.5427   80.3684  222.6009 H   0  0  0  0  0  0  0  0  0  0  0  0
  143.5400   80.4044  224.4191 H   0  0  0  0  0  0  0  0  0  0  0  0
  142.8954   78.1965  223.6478 H   0  0  0  0  0  0  0  0  0  0  0  0
  141.4891   79.0213  224.4100 H   0  0  0  0  0  0  0  0  0  0  0  0
  142.0465   78.4635  221.4942 H   0  0  0  0  0  0  0  0  0  0  0  0
  141.8935   76.3143  221.7824 H   0  0  0  0  0  0  0  0  0  0  0  0
  140.3441   74.4114  221.7394 H   0  0  0  0  0  0  0  0  0  0  0  0
  137.7520   73.7560  222.8670 H   0  0  0  0  0  0  0  0  0  0  0  0
  137.0930   77.0156  222.7334 H   0  0  0  0  0  0  0  0  0  0  0  0
  138.6529   78.9144  222.7760 H   0  0  0  0  0  0  0  0  0  0  0  0
  142.1375   76.5295  216.6858 H   0  0  0  0  0  0  0  0  0  0  0  0
  143.4426   74.4441  216.4080 H   0  0  0  0  0  0  0  0  0  0  0  0
  144.6804   72.6404  217.3131 H   0  0  0  0  0  0  0  0  0  0  0  0
  145.2276   72.4277  221.5676 H   0  0  0  0  0  0  0  0  0  0  0  0
  143.9149   74.5285  221.8515 H   0  0  0  0  0  0  0  0  0  0  0  0
  1  2  2  0
  2  3  1  0
  3  4  1  0
  4  5  1  0
  5  6  2  0
  5  7  1  0
  7  8  1  0
  8  9  1  0
  9 10  1  0
 10 11  1  0
 11 12  1  0
 12 13  1  0
 13 14  2  0
 14 15  1  0
 15 16  2  0
 16 17  1  0
 16 18  1  0
 18 19  2  0
  2 20  1  0
 20 21  2  0
 21 22  1  0
 22 23  2  0
 23 24  1  0
 24 25  2  0
 25 26  1  0
 25 27  1  0
 27 28  2  0
 28 29  1  0
 29 30  2  0
 12  7  1  0
 19 13  1  0
 30 20  1  0
 29 23  1  0
  3 31  1  0
  4 32  1  0
  4 33  1  0
  8 34  1  0
  8 35  1  0
  9 36  1  0
  9 37  1  0
 10 38  1  0
 10 39  1  0
 11 40  1  0
 11 41  1  0
 12 42  1  6
 14 43  1  0
 15 44  1  0
 17 45  1  0
 18 46  1  0
 19 47  1  0
 21 48  1  0
 22 49  1  0
 24 50  1  0
 27 51  1  0
 28 52  1  0
M  END
>  <smiles>  (91) 
O=C(NCC(=O)N1CCCCC1c1ccc(O)cc1)c1ccc2cc(Cl)ccc2n1

>  <score_type>  (91) 
oracle

>  <origin>  (91) 
autodockgpu

>  <m_score__min__energy>  (91) 
-8.5800000000000001

>  <m_primary>  (91) 
energy

>  <rmsd>  (91) 
7.995082936309811

>  <m_score__min__rmsd>  (91) 
7.995082936309811

>  <meeko>  (91) 
{"free_energy": -7.12, "intermolecular_energy": -8.91, "internal_energy": -2.19, "cluster_size": 15, "cluster_id": 6, "rank_in_cluster": 15}

>  <energy>  (91) 
-7.3

>  <cluster_rmsd>  (91) 
0.65

>  <cluster>  (91) 
6

$$$$

     RDKit          3D

 52 55  0  0  0  0  0  0  0  0999 V2000
  139.8200   72.3360  220.8370 O   0  0  0  0  0  0  0  0  0  0  0  0
  139.7570   72.6770  222.0610 C   0  0  0  0  0  0  0  0  0  0  0  0
  139.5480   74.1010  222.3450 N   0  0  0  0  0  0  0  0  0  0  0  0
  139.4420   74.9330  221.2180 C   0  0  0  0  0  0  0  0  0  0  0  0
  140.2930   76.0760  221.0000 C   0  0  0  0  0  0  0  0  0  0  0  0
  140.5850   76.6980  222.1400 O   0  0  0  0  0  0  0  0  0  0  0  0
  140.8680   76.6650  219.8890 N   0  0  0  0  0  0  0  0  0  0  0  0
  140.4670   76.5860  218.5010 C   0  0  0  0  0  0  0  0  0  0  0  0
  141.3990   75.5600  217.8720 C   0  0  0  0  0  0  0  0  0  0  0  0
  142.7990   75.8910  218.3180 C   0  0  0  0  0  0  0  0  0  0  0  0
  142.9180   77.3080  218.8460 C   0  0  0  0  0  0  0  0  0  0  0  0
  142.0990   77.4590  220.1000 C   0  0  1  0  0  0  0  0  0  0  0  0
  141.8710   78.8160  220.5620 C   0  0  0  0  0  0  0  0  0  0  0  0
  141.5000   79.7720  219.6040 C   0  0  0  0  0  0  0  0  0  0  0  0
  141.2670   81.0880  219.9450 C   0  0  0  0  0  0  0  0  0  0  0  0
  141.3920   81.5230  221.2490 C   0  0  0  0  0  0  0  0  0  0  0  0
  141.1680   82.8370  221.6380 O   0  0  0  0  0  0  0  0  0  0  0  0
  141.7560   80.6010  222.2070 C   0  0  0  0  0  0  0  0  0  0  0  0
  141.9860   79.2820  221.8480 C   0  0  0  0  0  0  0  0  0  0  0  0
  139.8800   71.7330  223.1400 C   0  0  0  0  0  0  0  0  0  0  0  0
  139.5020   70.4350  222.9250 C   0  0  0  0  0  0  0  0  0  0  0  0
  139.6100   69.5090  223.9440 C   0  0  0  0  0  0  0  0  0  0  0  0
  140.0930   69.8760  225.1740 C   0  0  0  0  0  0  0  0  0  0  0  0
  140.1880   68.9310  226.1690 C   0  0  0  0  0  0  0  0  0  0  0  0
  140.6740   69.3230  227.3900 C   0  0  0  0  0  0  0  0  0  0  0  0
  140.8270   68.1800  228.7110 Cl  0  0  0  0  0  0  0  0  0  0  0  0
  141.0530   70.6310  227.6040 C   0  0  0  0  0  0  0  0  0  0  0  0
  140.9460   71.5690  226.5790 C   0  0  0  0  0  0  0  0  0  0  0  0
  140.4650   71.1900  225.3610 C   0  0  0  0  0  0  0  0  0  0  0  0
  140.3530   72.0750  224.3600 N   0  0  0  0  0  0  0  0  0  0  0  0
  139.4920   74.3010  223.3470 H   0  0  0  0  0  0  0  0  0  0  0  0
  139.5841   74.2792  220.3449 H   0  0  0  0  0  0  0  0  0  0  0  0
  138.4688   75.4150  221.3927 H   0  0  0  0  0  0  0  0  0  0  0  0
  139.4206   76.2567  218.4203 H   0  0  0  0  0  0  0  0  0  0  0  0
  140.5327   77.5624  217.9987 H   0  0  0  0  0  0  0  0  0  0  0  0
  141.1265   74.5486  218.2079 H   0  0  0  0  0  0  0  0  0  0  0  0
  141.3238   75.5877  216.7749 H   0  0  0  0  0  0  0  0  0  0  0  0
  143.0905   75.1913  219.1152 H   0  0  0  0  0  0  0  0  0  0  0  0
  143.4594   75.8027  217.4428 H   0  0  0  0  0  0  0  0  0  0  0  0
  143.9725   77.5259  219.0708 H   0  0  0  0  0  0  0  0  0  0  0  0
  142.5468   78.0100  218.0848 H   0  0  0  0  0  0  0  0  0  0  0  0
  142.6761   77.0722  220.9529 H   0  0  0  0  0  0  0  0  0  0  0  0
  141.3922   79.4638  218.5536 H   0  0  0  0  0  0  0  0  0  0  0  0
  140.9760   81.8046  219.1628 H   0  0  0  0  0  0  0  0  0  0  0  0
  140.4830   83.4300  221.1850 H   0  0  0  0  0  0  0  0  0  0  0  0
  141.8640   80.9120  223.2566 H   0  0  0  0  0  0  0  0  0  0  0  0
  142.2761   78.5709  222.6356 H   0  0  0  0  0  0  0  0  0  0  0  0
  139.1129   70.1300  221.9424 H   0  0  0  0  0  0  0  0  0  0  0  0
  139.3056   68.4668  223.7673 H   0  0  0  0  0  0  0  0  0  0  0  0
  139.8825   67.8895  225.9902 H   0  0  0  0  0  0  0  0  0  0  0  0
  141.4412   70.9353  228.5872 H   0  0  0  0  0  0  0  0  0  0  0  0
  141.2488   72.6122  226.7522 H   0  0  0  0  0  0  0  0  0  0  0  0
  1  2  2  0
  2  3  1  0
  3  4  1  0
  4  5  1  0
  5  6  2  0
  5  7  1  0
  7  8  1  0
  8  9  1  0
  9 10  1  0
 10 11  1  0
 11 12  1  0
 12 13  1  0
 13 14  2  0
 14 15  1  0
 15 16  2  0
 16 17  1  0
 16 18  1  0
 18 19  2  0
  2 20  1  0
 20 21  2  0
 21 22  1  0
 22 23  2  0
 23 24  1  0
 24 25  2  0
 25 26  1  0
 25 27  1  0
 27 28  2  0
 28 29  1  0
 29 30  2  0
 12  7  1  0
 19 13  1  0
 30 20  1  0
 29 23  1  0
  3 31  1  0
  4 32  1  0
  4 33  1  0
  8 34  1  0
  8 35  1  0
  9 36  1  0
  9 37  1  0
 10 38  1  0
 10 39  1  0
 11 40  1  0
 11 41  1  0
 12 42  1  1
 14 43  1  0
 15 44  1  0
 17 45  1  0
 18 46  1  0
 19 47  1  0
 21 48  1  0
 22 49  1  0
 24 50  1  0
 27 51  1  0
 28 52  1  0
M  END
>  <smiles>  (92) 
O=C(NCC(=O)N1CCCCC1c1ccc(O)cc1)c1ccc2cc(Cl)ccc2n1

>  <score_type>  (92) 
oracle

>  <origin>  (92) 
autodockgpu

>  <m_score__min__energy>  (92) 
-8.5800000000000001

>  <m_primary>  (92) 
energy

>  <rmsd>  (92) 
1.6671435589444836

>  <m_score__min__rmsd>  (92) 
1.6671435589444836

>  <meeko>  (92) 
{"free_energy": -7.69, "intermolecular_energy": -9.48, "internal_energy": -1.46, "cluster_size": 7, "cluster_id": 2, "rank_in_cluster": 6}

>  <energy>  (92) 
-7.29

>  <cluster_rmsd>  (92) 
0.52

>  <cluster>  (92) 
6

$$$$

     RDKit          3D

 52 55  0  0  0  0  0  0  0  0999 V2000
  139.7150   72.2780  220.6490 O   0  0  0  0  0  0  0  0  0  0  0  0
  139.7200   72.6870  221.8530 C   0  0  0  0  0  0  0  0  0  0  0  0
  139.5850   74.1320  222.0650 N   0  0  0  0  0  0  0  0  0  0  0  0
  139.4670   74.9070  220.8990 C   0  0  0  0  0  0  0  0  0  0  0  0
  140.2980   76.0520  220.6270 C   0  0  0  0  0  0  0  0  0  0  0  0
  140.0160   77.0700  221.4360 O   0  0  0  0  0  0  0  0  0  0  0  0
  141.3110   76.3300  219.7270 N   0  0  0  0  0  0  0  0  0  0  0  0
  141.8500   77.6110  219.3230 C   0  0  0  0  0  0  0  0  0  0  0  0
  141.1970   77.9160  217.9830 C   0  0  0  0  0  0  0  0  0  0  0  0
  141.2910   76.6700  217.1420 C   0  0  0  0  0  0  0  0  0  0  0  0
  142.3330   75.6980  217.6630 C   0  0  0  0  0  0  0  0  0  0  0  0
  141.9250   75.1850  219.0180 C   0  0  1  0  0  0  0  0  0  0  0  0
  142.9440   74.4820  219.7750 C   0  0  0  0  0  0  0  0  0  0  0  0
  144.1200   75.1830  220.0830 C   0  0  0  0  0  0  0  0  0  0  0  0
  145.1470   74.5970  220.7930 C   0  0  0  0  0  0  0  0  0  0  0  0
  145.0630   73.2910  221.2320 C   0  0  0  0  0  0  0  0  0  0  0  0
  146.0710   72.6620  221.9490 O   0  0  0  0  0  0  0  0  0  0  0  0
  143.9150   72.5840  220.9410 C   0  0  0  0  0  0  0  0  0  0  0  0
  142.8920   73.1860  220.2270 C   0  0  0  0  0  0  0  0  0  0  0  0
  139.8470   71.7980  222.9770 C   0  0  0  0  0  0  0  0  0  0  0  0
  139.4720   70.4900  222.8290 C   0  0  0  0  0  0  0  0  0  0  0  0
  139.5850   69.6160  223.8920 C   0  0  0  0  0  0  0  0  0  0  0  0
  140.0700   70.0440  225.1010 C   0  0  0  0  0  0  0  0  0  0  0  0
  140.1710   69.1500  226.1410 C   0  0  0  0  0  0  0  0  0  0  0  0
  140.6590   69.6030  227.3400 C   0  0  0  0  0  0  0  0  0  0  0  0
  140.8190   68.5270  228.7150 Cl  0  0  0  0  0  0  0  0  0  0  0  0
  141.0350   70.9210  227.4870 C   0  0  0  0  0  0  0  0  0  0  0  0
  140.9240   71.8070  226.4170 C   0  0  0  0  0  0  0  0  0  0  0  0
  140.4400   71.3670  225.2210 C   0  0  0  0  0  0  0  0  0  0  0  0
  140.3230   72.2020  224.1780 N   0  0  0  0  0  0  0  0  0  0  0  0
  139.5810   74.3890  223.0570 H   0  0  0  0  0  0  0  0  0  0  0  0
  139.6220   74.2144  220.0586 H   0  0  0  0  0  0  0  0  0  0  0  0
  138.4854   75.3802  221.0495 H   0  0  0  0  0  0  0  0  0  0  0  0
  141.5958   78.3861  220.0609 H   0  0  0  0  0  0  0  0  0  0  0  0
  142.9473   77.5897  219.2494 H   0  0  0  0  0  0  0  0  0  0  0  0
  140.1422   78.1900  218.1325 H   0  0  0  0  0  0  0  0  0  0  0  0
  141.7024   78.7580  217.4874 H   0  0  0  0  0  0  0  0  0  0  0  0
  140.3111   76.1701  217.1403 H   0  0  0  0  0  0  0  0  0  0  0  0
  141.5912   76.9717  216.1277 H   0  0  0  0  0  0  0  0  0  0  0  0
  142.4237   74.8524  216.9653 H   0  0  0  0  0  0  0  0  0  0  0  0
  143.2997   76.2158  217.7485 H   0  0  0  0  0  0  0  0  0  0  0  0
  141.2004   74.3677  218.8876 H   0  0  0  0  0  0  0  0  0  0  0  0
  144.2254   76.2260  219.7498 H   0  0  0  0  0  0  0  0  0  0  0  0
  146.0517   75.1824  221.0140 H   0  0  0  0  0  0  0  0  0  0  0  0
  146.6150   71.8970  221.5680 H   0  0  0  0  0  0  0  0  0  0  0  0
  143.8118   71.5414  221.2761 H   0  0  0  0  0  0  0  0  0  0  0  0
  141.9900   72.5947  220.0105 H   0  0  0  0  0  0  0  0  0  0  0  0
  139.0809   70.1353  221.8640 H   0  0  0  0  0  0  0  0  0  0  0  0
  139.2829   68.5656  223.7676 H   0  0  0  0  0  0  0  0  0  0  0  0
  139.8686   68.1000  226.0147 H   0  0  0  0  0  0  0  0  0  0  0  0
  141.4243   71.2749  228.4530 H   0  0  0  0  0  0  0  0  0  0  0  0
  141.2259   72.8579  226.5372 H   0  0  0  0  0  0  0  0  0  0  0  0
  1  2  2  0
  2  3  1  0
  3  4  1  0
  4  5  1  0
  5  6  2  0
  5  7  1  0
  7  8  1  0
  8  9  1  0
  9 10  1  0
 10 11  1  0
 11 12  1  0
 12 13  1  0
 13 14  2  0
 14 15  1  0
 15 16  2  0
 16 17  1  0
 16 18  1  0
 18 19  2  0
  2 20  1  0
 20 21  2  0
 21 22  1  0
 22 23  2  0
 23 24  1  0
 24 25  2  0
 25 26  1  0
 25 27  1  0
 27 28  2  0
 28 29  1  0
 29 30  2  0
 12  7  1  0
 19 13  1  0
 30 20  1  0
 29 23  1  0
  3 31  1  0
  4 32  1  0
  4 33  1  0
  8 34  1  0
  8 35  1  0
  9 36  1  0
  9 37  1  0
 10 38  1  0
 10 39  1  0
 11 40  1  0
 11 41  1  0
 12 42  1  6
 14 43  1  0
 15 44  1  0
 17 45  1  0
 18 46  1  0
 19 47  1  0
 21 48  1  0
 22 49  1  0
 24 50  1  0
 27 51  1  0
 28 52  1  0
M  END
>  <smiles>  (93) 
O=C(NCC(=O)N1CCCCC1c1ccc(O)cc1)c1ccc2cc(Cl)ccc2n1

>  <score_type>  (93) 
oracle

>  <origin>  (93) 
autodockgpu

>  <m_score__min__energy>  (93) 
-8.5800000000000001

>  <m_primary>  (93) 
energy

>  <rmsd>  (93) 
2.1953273581796022

>  <m_score__min__rmsd>  (93) 
2.1953273581796022

>  <meeko>  (93) 
{"free_energy": -7.7, "intermolecular_energy": -9.49, "internal_energy": -1.87, "cluster_size": 20, "cluster_id": 1, "rank_in_cluster": 19}

>  <energy>  (93) 
-7.27

>  <cluster_rmsd>  (93) 
0.83

>  <cluster>  (93) 
6

$$$$

     RDKit          3D

 52 55  0  0  0  0  0  0  0  0999 V2000
  139.6210   72.0560  220.7710 O   0  0  0  0  0  0  0  0  0  0  0  0
  139.5840   72.4300  221.9850 C   0  0  0  0  0  0  0  0  0  0  0  0
  139.3560   73.8580  222.2340 N   0  0  0  0  0  0  0  0  0  0  0  0
  139.2060   74.6560  221.0870 C   0  0  0  0  0  0  0  0  0  0  0  0
  140.2860   75.4150  220.5090 C   0  0  0  0  0  0  0  0  0  0  0  0
  140.1350   76.7210  220.7120 O   0  0  0  0  0  0  0  0  0  0  0  0
  141.4300   75.0970  219.8010 N   0  0  0  0  0  0  0  0  0  0  0  0
  141.7170   73.9230  219.0040 C   0  0  0  0  0  0  0  0  0  0  0  0
  142.5730   73.0330  219.8950 C   0  0  0  0  0  0  0  0  0  0  0  0
  143.6370   73.9040  220.5110 C   0  0  0  0  0  0  0  0  0  0  0  0
  143.8160   75.2130  219.7650 C   0  0  0  0  0  0  0  0  0  0  0  0
  142.5650   76.0440  219.8800 C   0  0  1  0  0  0  0  0  0  0  0  0
  142.4650   77.1830  218.9870 C   0  0  0  0  0  0  0  0  0  0  0  0
  142.6880   76.9570  217.6200 C   0  0  0  0  0  0  0  0  0  0  0  0
  142.6210   77.9780  216.6960 C   0  0  0  0  0  0  0  0  0  0  0  0
  142.3300   79.2730  217.0770 C   0  0  0  0  0  0  0  0  0  0  0  0
  142.2520   80.3310  216.1820 O   0  0  0  0  0  0  0  0  0  0  0  0
  142.1060   79.5180  218.4160 C   0  0  0  0  0  0  0  0  0  0  0  0
  142.1780   78.4810  219.3320 C   0  0  0  0  0  0  0  0  0  0  0  0
  139.7510   71.5200  223.0870 C   0  0  0  0  0  0  0  0  0  0  0  0
  139.3810   70.2130  222.9230 C   0  0  0  0  0  0  0  0  0  0  0  0
  139.5320   69.3190  223.9650 C   0  0  0  0  0  0  0  0  0  0  0  0
  140.0500   69.7270  225.1670 C   0  0  0  0  0  0  0  0  0  0  0  0
  140.1870   68.8130  226.1860 C   0  0  0  0  0  0  0  0  0  0  0  0
  140.7080   69.2460  227.3780 C   0  0  0  0  0  0  0  0  0  0  0  0
  140.9160   68.1440  228.7270 Cl  0  0  0  0  0  0  0  0  0  0  0  0
  141.0780   70.5630  227.5410 C   0  0  0  0  0  0  0  0  0  0  0  0
  140.9290   71.4690  226.4930 C   0  0  0  0  0  0  0  0  0  0  0  0
  140.4130   71.0500  225.3040 C   0  0  0  0  0  0  0  0  0  0  0  0
  140.2590   71.9040  224.2810 N   0  0  0  0  0  0  0  0  0  0  0  0
  139.3220   74.0860  223.2310 H   0  0  0  0  0  0  0  0  0  0  0  0
  138.8518   73.9815  220.2935 H   0  0  0  0  0  0  0  0  0  0  0  0
  138.5520   75.4570  221.4620 H   0  0  0  0  0  0  0  0  0  0  0  0
  140.7853   73.4084  218.7264 H   0  0  0  0  0  0  0  0  0  0  0  0
  142.2303   74.1794  218.0655 H   0  0  0  0  0  0  0  0  0  0  0  0
  141.9526   72.5823  220.6837 H   0  0  0  0  0  0  0  0  0  0  0  0
  143.0270   72.2192  219.3105 H   0  0  0  0  0  0  0  0  0  0  0  0
  143.3540   74.1257  221.5506 H   0  0  0  0  0  0  0  0  0  0  0  0
  144.5896   73.3562  220.4608 H   0  0  0  0  0  0  0  0  0  0  0  0
  144.6625   75.7665  220.1975 H   0  0  0  0  0  0  0  0  0  0  0  0
  144.0135   75.0009  218.7039 H   0  0  0  0  0  0  0  0  0  0  0  0
  142.5717   76.5706  220.8458 H   0  0  0  0  0  0  0  0  0  0  0  0
  142.9224   75.9385  217.2768 H   0  0  0  0  0  0  0  0  0  0  0  0
  142.8030   77.7566  215.6340 H   0  0  0  0  0  0  0  0  0  0  0  0
  143.0420   80.6340  215.6260 H   0  0  0  0  0  0  0  0  0  0  0  0
  141.8702   80.5370  218.7565 H   0  0  0  0  0  0  0  0  0  0  0  0
  141.9955   78.7096  220.3924 H   0  0  0  0  0  0  0  0  0  0  0  0
  138.9640   69.8748  221.9630 H   0  0  0  0  0  0  0  0  0  0  0  0
  139.2336   68.2690  223.8290 H   0  0  0  0  0  0  0  0  0  0  0  0
  139.8868   67.7638  226.0483 H   0  0  0  0  0  0  0  0  0  0  0  0
  141.4927   70.9006  228.5023 H   0  0  0  0  0  0  0  0  0  0  0  0
  141.2272   72.5195  226.6254 H   0  0  0  0  0  0  0  0  0  0  0  0
  1  2  2  0
  2  3  1  0
  3  4  1  0
  4  5  1  0
  5  6  2  0
  5  7  1  0
  7  8  1  0
  8  9  1  0
  9 10  1  0
 10 11  1  0
 11 12  1  0
 12 13  1  0
 13 14  2  0
 14 15  1  0
 15 16  2  0
 16 17  1  0
 16 18  1  0
 18 19  2  0
  2 20  1  0
 20 21  2  0
 21 22  1  0
 22 23  2  0
 23 24  1  0
 24 25  2  0
 25 26  1  0
 25 27  1  0
 27 28  2  0
 28 29  1  0
 29 30  2  0
 12  7  1  0
 19 13  1  0
 30 20  1  0
 29 23  1  0
  3 31  1  0
  4 32  1  0
  4 33  1  0
  8 34  1  0
  8 35  1  0
  9 36  1  0
  9 37  1  0
 10 38  1  0
 10 39  1  0
 11 40  1  0
 11 41  1  0
 12 42  1  1
 14 43  1  0
 15 44  1  0
 17 45  1  0
 18 46  1  0
 19 47  1  0
 21 48  1  0
 22 49  1  0
 24 50  1  0
 27 51  1  0
 28 52  1  0
M  END
>  <smiles>  (94) 
O=C(NCC(=O)N1CCCCC1c1ccc(O)cc1)c1ccc2cc(Cl)ccc2n1

>  <score_type>  (94) 
oracle

>  <origin>  (94) 
autodockgpu

>  <m_score__min__energy>  (94) 
-8.5800000000000001

>  <m_primary>  (94) 
energy

>  <rmsd>  (94) 
2.2774306723874

>  <m_score__min__rmsd>  (94) 
2.2774306723874

>  <meeko>  (94) 
{"free_energy": -7.97, "intermolecular_energy": -9.76, "internal_energy": -1.69, "cluster_size": 3, "cluster_id": 4, "rank_in_cluster": 1}

>  <energy>  (94) 
-7.26

>  <cluster_rmsd>  (94) 
0.63

>  <cluster>  (94) 
6

$$$$

     RDKit          3D

 52 55  0  0  0  0  0  0  0  0999 V2000
  139.4590   71.8890  220.6330 O   0  0  0  0  0  0  0  0  0  0  0  0
  139.2130   72.2580  221.8250 C   0  0  0  0  0  0  0  0  0  0  0  0
  138.6520   73.6010  222.0040 N   0  0  0  0  0  0  0  0  0  0  0  0
  138.4490   74.3340  220.8230 C   0  0  0  0  0  0  0  0  0  0  0  0
  139.1850   75.5310  220.5030 C   0  0  0  0  0  0  0  0  0  0  0  0
  138.7440   76.0970  219.3820 O   0  0  0  0  0  0  0  0  0  0  0  0
  140.2320   76.2170  221.0890 N   0  0  0  0  0  0  0  0  0  0  0  0
  140.2820   76.8910  222.3690 C   0  0  0  0  0  0  0  0  0  0  0  0
  140.0930   78.3680  222.0530 C   0  0  0  0  0  0  0  0  0  0  0  0
  141.0030   78.7000  220.8990 C   0  0  0  0  0  0  0  0  0  0  0  0
  142.0930   77.6640  220.7060 C   0  0  0  0  0  0  0  0  0  0  0  0
  141.4840   76.3450  220.3100 C   0  0  1  0  0  0  0  0  0  0  0  0
  142.3560   75.1870  220.3730 C   0  0  0  0  0  0  0  0  0  0  0  0
  143.7150   75.3840  220.0840 C   0  0  0  0  0  0  0  0  0  0  0  0
  144.6200   74.3440  220.1130 C   0  0  0  0  0  0  0  0  0  0  0  0
  144.2260   73.0590  220.4260 C   0  0  0  0  0  0  0  0  0  0  0  0
  145.1020   71.9820  220.4670 O   0  0  0  0  0  0  0  0  0  0  0  0
  142.8950   72.8420  220.7140 C   0  0  0  0  0  0  0  0  0  0  0  0
  141.9980   73.8990  220.6810 C   0  0  0  0  0  0  0  0  0  0  0  0
  139.4630   71.4180  222.9670 C   0  0  0  0  0  0  0  0  0  0  0  0
  139.1050   70.0980  222.9040 C   0  0  0  0  0  0  0  0  0  0  0  0
  139.3340   69.2710  223.9860 C   0  0  0  0  0  0  0  0  0  0  0  0
  139.9170   69.7580  225.1280 C   0  0  0  0  0  0  0  0  0  0  0  0
  140.1310   68.9090  226.1890 C   0  0  0  0  0  0  0  0  0  0  0  0
  140.7160   69.4200  227.3190 C   0  0  0  0  0  0  0  0  0  0  0  0
  141.0240   68.4050  228.7160 Cl  0  0  0  0  0  0  0  0  0  0  0  0
  141.0740   70.7500  227.3800 C   0  0  0  0  0  0  0  0  0  0  0  0
  140.8460   71.5890  226.2900 C   0  0  0  0  0  0  0  0  0  0  0  0
  140.2660   71.0910  225.1620 C   0  0  0  0  0  0  0  0  0  0  0  0
  140.0370   71.8800  224.1020 N   0  0  0  0  0  0  0  0  0  0  0  0
  138.4650   73.8250  222.9850 H   0  0  0  0  0  0  0  0  0  0  0  0
  138.6367   73.6333  219.9961 H   0  0  0  0  0  0  0  0  0  0  0  0
  137.4380   74.7358  220.9859 H   0  0  0  0  0  0  0  0  0  0  0  0
  139.4761   76.5313  223.0256 H   0  0  0  0  0  0  0  0  0  0  0  0
  141.2294   76.7022  222.8951 H   0  0  0  0  0  0  0  0  0  0  0  0
  139.0466   78.5625  221.7751 H   0  0  0  0  0  0  0  0  0  0  0  0
  140.3341   78.9874  222.9294 H   0  0  0  0  0  0  0  0  0  0  0  0
  140.4017   78.7556  219.9796 H   0  0  0  0  0  0  0  0  0  0  0  0
  141.4894   79.6613  221.1212 H   0  0  0  0  0  0  0  0  0  0  0  0
  142.7797   78.0004  219.9153 H   0  0  0  0  0  0  0  0  0  0  0  0
  142.6442   77.5390  221.6497 H   0  0  0  0  0  0  0  0  0  0  0  0
  141.2770   76.3562  219.2297 H   0  0  0  0  0  0  0  0  0  0  0  0
  144.0674   76.3940  219.8277 H   0  0  0  0  0  0  0  0  0  0  0  0
  145.6770   74.5426  219.8821 H   0  0  0  0  0  0  0  0  0  0  0  0
  145.7720   71.8530  221.2150 H   0  0  0  0  0  0  0  0  0  0  0  0
  142.5450   71.8310  220.9698 H   0  0  0  0  0  0  0  0  0  0  0  0
  140.9428   73.6937  220.9143 H   0  0  0  0  0  0  0  0  0  0  0  0
  138.6359   69.6970  221.9934 H   0  0  0  0  0  0  0  0  0  0  0  0
  139.0459   68.2108  223.9314 H   0  0  0  0  0  0  0  0  0  0  0  0
  139.8408   67.8495  226.1325 H   0  0  0  0  0  0  0  0  0  0  0  0
  141.5411   71.1506  228.2918 H   0  0  0  0  0  0  0  0  0  0  0  0
  141.1334   72.6496  226.3405 H   0  0  0  0  0  0  0  0  0  0  0  0
  1  2  2  0
  2  3  1  0
  3  4  1  0
  4  5  1  0
  5  6  2  0
  5  7  1  0
  7  8  1  0
  8  9  1  0
  9 10  1  0
 10 11  1  0
 11 12  1  0
 12 13  1  0
 13 14  2  0
 14 15  1  0
 15 16  2  0
 16 17  1  0
 16 18  1  0
 18 19  2  0
  2 20  1  0
 20 21  2  0
 21 22  1  0
 22 23  2  0
 23 24  1  0
 24 25  2  0
 25 26  1  0
 25 27  1  0
 27 28  2  0
 28 29  1  0
 29 30  2  0
 12  7  1  0
 19 13  1  0
 30 20  1  0
 29 23  1  0
  3 31  1  0
  4 32  1  0
  4 33  1  0
  8 34  1  0
  8 35  1  0
  9 36  1  0
  9 37  1  0
 10 38  1  0
 10 39  1  0
 11 40  1  0
 11 41  1  0
 12 42  1  6
 14 43  1  0
 15 44  1  0
 17 45  1  0
 18 46  1  0
 19 47  1  0
 21 48  1  0
 22 49  1  0
 24 50  1  0
 27 51  1  0
 28 52  1  0
M  END
>  <smiles>  (95) 
O=C(NCC(=O)N1CCCCC1c1ccc(O)cc1)c1ccc2cc(Cl)ccc2n1

>  <score_type>  (95) 
oracle

>  <origin>  (95) 
autodockgpu

>  <m_score__min__energy>  (95) 
-8.5800000000000001

>  <m_primary>  (95) 
energy

>  <rmsd>  (95) 
2.509981293798368

>  <m_score__min__rmsd>  (95) 
2.509981293798368

>  <meeko>  (95) 
{"free_energy": -8.23, "intermolecular_energy": -10.02, "internal_energy": -1.74, "cluster_size": 20, "cluster_id": 1, "rank_in_cluster": 16}

>  <energy>  (95) 
-7.25

>  <cluster_rmsd>  (95) 
0.62

>  <cluster>  (95) 
6

$$$$

     RDKit          3D

 52 55  0  0  0  0  0  0  0  0999 V2000
  133.2200   70.0260  226.7960 O   0  0  0  0  0  0  0  0  0  0  0  0
  133.6720   71.1310  226.3570 C   0  0  0  0  0  0  0  0  0  0  0  0
  134.7990   71.0630  225.4200 N   0  0  0  0  0  0  0  0  0  0  0  0
  135.2540   69.7700  225.1130 C   0  0  0  0  0  0  0  0  0  0  0  0
  136.2950   69.5090  224.1520 C   0  0  0  0  0  0  0  0  0  0  0  0
  136.0500   68.4090  223.4440 O   0  0  0  0  0  0  0  0  0  0  0  0
  137.4770   70.1350  223.8020 N   0  0  0  0  0  0  0  0  0  0  0  0
  137.7050   71.5120  223.4170 C   0  0  0  0  0  0  0  0  0  0  0  0
  137.7970   71.4950  221.8980 C   0  0  0  0  0  0  0  0  0  0  0  0
  138.7120   70.3600  221.5170 C   0  0  0  0  0  0  0  0  0  0  0  0
  139.5700   69.8940  222.6770 C   0  0  0  0  0  0  0  0  0  0  0  0
  138.7010   69.3030  223.7550 C   0  0  1  0  0  0  0  0  0  0  0  0
  139.3310   69.0820  225.0420 C   0  0  0  0  0  0  0  0  0  0  0  0
  139.5680   67.7530  225.4270 C   0  0  0  0  0  0  0  0  0  0  0  0
  140.1570   67.4430  226.6350 C   0  0  0  0  0  0  0  0  0  0  0  0
  140.5390   68.4290  227.5220 C   0  0  0  0  0  0  0  0  0  0  0  0
  141.1350   68.1630  228.7470 O   0  0  0  0  0  0  0  0  0  0  0  0
  140.3160   69.7420  227.1640 C   0  0  0  0  0  0  0  0  0  0  0  0
  139.7230   70.0380  225.9460 C   0  0  0  0  0  0  0  0  0  0  0  0
  133.1260   72.4050  226.7430 C   0  0  0  0  0  0  0  0  0  0  0  0
  131.9300   72.4340  227.4090 C   0  0  0  0  0  0  0  0  0  0  0  0
  131.3840   73.6430  227.7910 C   0  0  0  0  0  0  0  0  0  0  0  0
  132.0260   74.8210  227.5080 C   0  0  0  0  0  0  0  0  0  0  0  0
  131.4560   76.0100  227.9000 C   0  0  0  0  0  0  0  0  0  0  0  0
  132.1180   77.1740  227.6060 C   0  0  0  0  0  0  0  0  0  0  0  0
  131.4590   78.7310  228.0710 Cl  0  0  0  0  0  0  0  0  0  0  0  0
  133.3210   77.1420  226.9340 C   0  0  0  0  0  0  0  0  0  0  0  0
  133.8770   75.9240  226.5470 C   0  0  0  0  0  0  0  0  0  0  0  0
  133.2280   74.7610  226.8350 C   0  0  0  0  0  0  0  0  0  0  0  0
  133.7440   73.5770  226.4730 N   0  0  0  0  0  0  0  0  0  0  0  0
  135.1010   71.9860  225.0960 H   0  0  0  0  0  0  0  0  0  0  0  0
  135.6042   69.3393  226.0626 H   0  0  0  0  0  0  0  0  0  0  0  0
  134.3760   69.3442  224.6052 H   0  0  0  0  0  0  0  0  0  0  0  0
  136.8690   72.1472  223.7452 H   0  0  0  0  0  0  0  0  0  0  0  0
  138.6160   71.9210  223.8782 H   0  0  0  0  0  0  0  0  0  0  0  0
  136.7995   71.3368  221.4622 H   0  0  0  0  0  0  0  0  0  0  0  0
  138.1861   72.4522  221.5207 H   0  0  0  0  0  0  0  0  0  0  0  0
  138.1002   69.5149  221.1685 H   0  0  0  0  0  0  0  0  0  0  0  0
  139.3855   70.7234  220.7268 H   0  0  0  0  0  0  0  0  0  0  0  0
  140.2795   69.1319  222.3223 H   0  0  0  0  0  0  0  0  0  0  0  0
  140.1203   70.7535  223.0874 H   0  0  0  0  0  0  0  0  0  0  0  0
  138.4608   68.2625  223.4912 H   0  0  0  0  0  0  0  0  0  0  0  0
  139.2765   66.9381  224.7480 H   0  0  0  0  0  0  0  0  0  0  0  0
  140.3258   66.3881  226.8969 H   0  0  0  0  0  0  0  0  0  0  0  0
  141.9280   68.6890  229.0930 H   0  0  0  0  0  0  0  0  0  0  0  0
  140.6086   70.5548  227.8449 H   0  0  0  0  0  0  0  0  0  0  0  0
  139.5579   71.0951  225.6905 H   0  0  0  0  0  0  0  0  0  0  0  0
  131.4050   71.4952  227.6393 H   0  0  0  0  0  0  0  0  0  0  0  0
  130.4241   73.6615  228.3279 H   0  0  0  0  0  0  0  0  0  0  0  0
  130.4950   76.0264  228.4349 H   0  0  0  0  0  0  0  0  0  0  0  0
  133.8443   78.0814  226.7023 H   0  0  0  0  0  0  0  0  0  0  0  0
  134.8371   75.9016  226.0105 H   0  0  0  0  0  0  0  0  0  0  0  0
  1  2  2  0
  2  3  1  0
  3  4  1  0
  4  5  1  0
  5  6  2  0
  5  7  1  0
  7  8  1  0
  8  9  1  0
  9 10  1  0
 10 11  1  0
 11 12  1  0
 12 13  1  0
 13 14  2  0
 14 15  1  0
 15 16  2  0
 16 17  1  0
 16 18  1  0
 18 19  2  0
  2 20  1  0
 20 21  2  0
 21 22  1  0
 22 23  2  0
 23 24  1  0
 24 25  2  0
 25 26  1  0
 25 27  1  0
 27 28  2  0
 28 29  1  0
 29 30  2  0
 12  7  1  0
 19 13  1  0
 30 20  1  0
 29 23  1  0
  3 31  1  0
  4 32  1  0
  4 33  1  0
  8 34  1  0
  8 35  1  0
  9 36  1  0
  9 37  1  0
 10 38  1  0
 10 39  1  0
 11 40  1  0
 11 41  1  0
 12 42  1  6
 14 43  1  0
 15 44  1  0
 17 45  1  0
 18 46  1  0
 19 47  1  0
 21 48  1  0
 22 49  1  0
 24 50  1  0
 27 51  1  0
 28 52  1  0
M  END
>  <smiles>  (96) 
O=C(NCC(=O)N1CCCCC1c1ccc(O)cc1)c1ccc2cc(Cl)ccc2n1

>  <score_type>  (96) 
oracle

>  <origin>  (96) 
autodockgpu

>  <m_score__min__energy>  (96) 
-8.5800000000000001

>  <m_primary>  (96) 
energy

>  <rmsd>  (96) 
8.406892535333014

>  <m_score__min__rmsd>  (96) 
8.406892535333014

>  <meeko>  (96) 
{"free_energy": -7.8, "intermolecular_energy": -9.59, "internal_energy": -1.49, "cluster_size": 1, "cluster_id": 5, "rank_in_cluster": 1}

>  <energy>  (96) 
-7.24

>  <cluster_rmsd>  (96) 
0.71

>  <cluster>  (96) 
6

$$$$

     RDKit          3D

 52 55  0  0  0  0  0  0  0  0999 V2000
  139.6980   72.0560  220.6990 O   0  0  0  0  0  0  0  0  0  0  0  0
  139.3150   72.3410  221.8770 C   0  0  0  0  0  0  0  0  0  0  0  0
  138.6090   73.6150  222.0570 N   0  0  0  0  0  0  0  0  0  0  0  0
  138.4380   74.3810  220.8920 C   0  0  0  0  0  0  0  0  0  0  0  0
  139.4270   75.3120  220.4090 C   0  0  0  0  0  0  0  0  0  0  0  0
  139.3450   75.4800  219.0920 O   0  0  0  0  0  0  0  0  0  0  0  0
  140.4280   76.0620  220.9980 N   0  0  0  0  0  0  0  0  0  0  0  0
  140.4500   76.7000  222.2970 C   0  0  0  0  0  0  0  0  0  0  0  0
  140.1390   78.1650  222.0310 C   0  0  0  0  0  0  0  0  0  0  0  0
  140.9960   78.6040  220.8720 C   0  0  0  0  0  0  0  0  0  0  0  0
  142.1600   77.6640  220.6260 C   0  0  0  0  0  0  0  0  0  0  0  0
  141.6490   76.3130  220.2000 C   0  0  1  0  0  0  0  0  0  0  0  0
  142.6110   75.2270  220.2110 C   0  0  0  0  0  0  0  0  0  0  0  0
  142.1180   73.9270  220.4050 C   0  0  0  0  0  0  0  0  0  0  0  0
  142.9560   72.8320  220.4360 C   0  0  0  0  0  0  0  0  0  0  0  0
  144.3210   72.9680  220.2780 C   0  0  0  0  0  0  0  0  0  0  0  0
  145.2010   71.8940  220.3020 O   0  0  0  0  0  0  0  0  0  0  0  0
  144.8270   74.2360  220.0860 C   0  0  0  0  0  0  0  0  0  0  0  0
  143.9720   75.3270  220.0570 C   0  0  0  0  0  0  0  0  0  0  0  0
  139.5460   71.4760  223.0030 C   0  0  0  0  0  0  0  0  0  0  0  0
  139.1900   70.1570  222.9040 C   0  0  0  0  0  0  0  0  0  0  0  0
  139.4020   69.3050  223.9690 C   0  0  0  0  0  0  0  0  0  0  0  0
  139.9660   69.7650  225.1310 C   0  0  0  0  0  0  0  0  0  0  0  0
  140.1630   68.8920  226.1760 C   0  0  0  0  0  0  0  0  0  0  0  0
  140.7300   69.3770  227.3270 C   0  0  0  0  0  0  0  0  0  0  0  0
  141.0160   68.3290  228.7040 Cl  0  0  0  0  0  0  0  0  0  0  0  0
  141.0860   70.7050  227.4250 C   0  0  0  0  0  0  0  0  0  0  0  0
  140.8750   71.5690  226.3510 C   0  0  0  0  0  0  0  0  0  0  0  0
  140.3140   71.0980  225.2030 C   0  0  0  0  0  0  0  0  0  0  0  0
  140.1010   71.9100  224.1570 N   0  0  0  0  0  0  0  0  0  0  0  0
  138.3170   73.7730  223.0250 H   0  0  0  0  0  0  0  0  0  0  0  0
  138.2778   73.6600  220.0768 H   0  0  0  0  0  0  0  0  0  0  0  0
  137.6274   75.0604  221.1941 H   0  0  0  0  0  0  0  0  0  0  0  0
  139.6882   76.2581  222.9561 H   0  0  0  0  0  0  0  0  0  0  0  0
  141.4198   76.5718  222.8001 H   0  0  0  0  0  0  0  0  0  0  0  0
  139.0751   78.2837  221.7781 H   0  0  0  0  0  0  0  0  0  0  0  0
  140.3488   78.7747  222.9222 H   0  0  0  0  0  0  0  0  0  0  0  0
  140.3734   78.6401  219.9659 H   0  0  0  0  0  0  0  0  0  0  0  0
  141.4095   79.5936  221.1162 H   0  0  0  0  0  0  0  0  0  0  0  0
  142.8012   78.0775  219.8336 H   0  0  0  0  0  0  0  0  0  0  0  0
  142.7389   77.5549  221.5549 H   0  0  0  0  0  0  0  0  0  0  0  0
  141.4190   76.3402  219.1247 H   0  0  0  0  0  0  0  0  0  0  0  0
  141.0360   73.7779  220.5356 H   0  0  0  0  0  0  0  0  0  0  0  0
  142.5284   71.8302  220.5897 H   0  0  0  0  0  0  0  0  0  0  0  0
  145.6070   71.5420  221.1600 H   0  0  0  0  0  0  0  0  0  0  0  0
  145.9094   74.3821  219.9558 H   0  0  0  0  0  0  0  0  0  0  0  0
  144.4068   76.3256  219.9025 H   0  0  0  0  0  0  0  0  0  0  0  0
  138.7357   69.7773  221.9769 H   0  0  0  0  0  0  0  0  0  0  0  0
  139.1156   68.2463  223.8847 H   0  0  0  0  0  0  0  0  0  0  0  0
  139.8737   67.8341  226.0908 H   0  0  0  0  0  0  0  0  0  0  0  0
  141.5380   71.0844  228.3533 H   0  0  0  0  0  0  0  0  0  0  0  0
  141.1609   72.6282  226.4309 H   0  0  0  0  0  0  0  0  0  0  0  0
  1  2  2  0
  2  3  1  0
  3  4  1  0
  4  5  1  0
  5  6  2  0
  5  7  1  0
  7  8  1  0
  8  9  1  0
  9 10  1  0
 10 11  1  0
 11 12  1  0
 12 13  1  0
 13 14  2  0
 14 15  1  0
 15 16  2  0
 16 17  1  0
 16 18  1  0
 18 19  2  0
  2 20  1  0
 20 21  2  0
 21 22  1  0
 22 23  2  0
 23 24  1  0
 24 25  2  0
 25 26  1  0
 25 27  1  0
 27 28  2  0
 28 29  1  0
 29 30  2  0
 12  7  1  0
 19 13  1  0
 30 20  1  0
 29 23  1  0
  3 31  1  0
  4 32  1  0
  4 33  1  0
  8 34  1  0
  8 35  1  0
  9 36  1  0
  9 37  1  0
 10 38  1  0
 10 39  1  0
 11 40  1  0
 11 41  1  0
 12 42  1  6
 14 43  1  0
 15 44  1  0
 17 45  1  0
 18 46  1  0
 19 47  1  0
 21 48  1  0
 22 49  1  0
 24 50  1  0
 27 51  1  0
 28 52  1  0
M  END
>  <smiles>  (97) 
O=C(NCC(=O)N1CCCCC1c1ccc(O)cc1)c1ccc2cc(Cl)ccc2n1

>  <score_type>  (97) 
oracle

>  <origin>  (97) 
autodockgpu

>  <m_score__min__energy>  (97) 
-8.5800000000000001

>  <m_primary>  (97) 
energy

>  <rmsd>  (97) 
2.4798132282740393

>  <m_score__min__rmsd>  (97) 
2.4798132282740393

>  <meeko>  (97) 
{"free_energy": -8.33, "intermolecular_energy": -10.12, "internal_energy": -1.64, "cluster_size": 20, "cluster_id": 1, "rank_in_cluster": 11}

>  <energy>  (97) 
-7.23

>  <cluster_rmsd>  (97) 
0.66

>  <cluster>  (97) 
6

$$$$

     RDKit          3D

 52 55  0  0  0  0  0  0  0  0999 V2000
  141.0510   73.5490  221.8390 O   0  0  0  0  0  0  0  0  0  0  0  0
  140.0020   72.9650  222.2600 C   0  0  0  0  0  0  0  0  0  0  0  0
  138.7360   73.3280  221.6140 N   0  0  0  0  0  0  0  0  0  0  0  0
  138.8300   74.2900  220.5950 C   0  0  0  0  0  0  0  0  0  0  0  0
  138.7010   75.7050  220.8330 C   0  0  0  0  0  0  0  0  0  0  0  0
  139.1210   76.4210  219.7930 O   0  0  0  0  0  0  0  0  0  0  0  0
  138.2440   76.4790  221.8840 N   0  0  0  0  0  0  0  0  0  0  0  0
  137.5840   76.0660  223.1050 C   0  0  0  0  0  0  0  0  0  0  0  0
  136.1040   76.3270  222.8690 C   0  0  0  0  0  0  0  0  0  0  0  0
  135.9790   77.7070  222.2790 C   0  0  0  0  0  0  0  0  0  0  0  0
  137.2220   78.5470  222.5030 C   0  0  0  0  0  0  0  0  0  0  0  0
  138.3870   77.9470  221.7620 C   0  0  1  0  0  0  0  0  0  0  0  0
  139.7010   78.4560  222.1060 C   0  0  0  0  0  0  0  0  0  0  0  0
  140.1940   79.5340  221.3550 C   0  0  0  0  0  0  0  0  0  0  0  0
  141.4350   80.0830  221.6040 C   0  0  0  0  0  0  0  0  0  0  0  0
  142.2490   79.5930  222.6050 C   0  0  0  0  0  0  0  0  0  0  0  0
  143.5030   80.1150  222.8910 O   0  0  0  0  0  0  0  0  0  0  0  0
  141.7840   78.5350  223.3560 C   0  0  0  0  0  0  0  0  0  0  0  0
  140.5340   77.9940  223.0950 C   0  0  0  0  0  0  0  0  0  0  0  0
  140.0240   71.9900  223.3170 C   0  0  0  0  0  0  0  0  0  0  0  0
  139.5150   70.7430  223.0730 C   0  0  0  0  0  0  0  0  0  0  0  0
  139.5250   69.7880  224.0710 C   0  0  0  0  0  0  0  0  0  0  0  0
  140.0390   70.0760  225.3090 C   0  0  0  0  0  0  0  0  0  0  0  0
  140.0340   69.1040  226.2820 C   0  0  0  0  0  0  0  0  0  0  0  0
  140.5540   69.4160  227.5120 C   0  0  0  0  0  0  0  0  0  0  0  0
  140.5850   68.2340  228.8070 Cl  0  0  0  0  0  0  0  0  0  0  0  0
  141.0650   70.6730  227.7560 C   0  0  0  0  0  0  0  0  0  0  0  0
  141.0580   71.6400  226.7520 C   0  0  0  0  0  0  0  0  0  0  0  0
  140.5440   71.3400  225.5260 C   0  0  0  0  0  0  0  0  0  0  0  0
  140.5270   72.2540  224.5450 N   0  0  0  0  0  0  0  0  0  0  0  0
  137.9370   72.8100  221.9910 H   0  0  0  0  0  0  0  0  0  0  0  0
  139.8202   74.1495  220.1371 H   0  0  0  0  0  0  0  0  0  0  0  0
  137.9193   74.0824  220.0141 H   0  0  0  0  0  0  0  0  0  0  0  0
  137.7611   74.9973  223.2963 H   0  0  0  0  0  0  0  0  0  0  0  0
  137.9624   76.6130  223.9811 H   0  0  0  0  0  0  0  0  0  0  0  0
  135.6973   75.5810  222.1703 H   0  0  0  0  0  0  0  0  0  0  0  0
  135.5416   76.2550  223.8116 H   0  0  0  0  0  0  0  0  0  0  0  0
  135.8059   77.6140  221.1967 H   0  0  0  0  0  0  0  0  0  0  0  0
  135.1392   78.2109  222.7799 H   0  0  0  0  0  0  0  0  0  0  0  0
  137.0430   79.5682  222.1355 H   0  0  0  0  0  0  0  0  0  0  0  0
  137.4520   78.5734  223.5784 H   0  0  0  0  0  0  0  0  0  0  0  0
  138.3411   78.2615  220.7089 H   0  0  0  0  0  0  0  0  0  0  0  0
  139.5753   79.9519  220.5472 H   0  0  0  0  0  0  0  0  0  0  0  0
  141.7827   80.9285  220.9922 H   0  0  0  0  0  0  0  0  0  0  0  0
  144.3240   79.8920  222.3400 H   0  0  0  0  0  0  0  0  0  0  0  0
  142.4050   78.1193  224.1632 H   0  0  0  0  0  0  0  0  0  0  0  0
  140.1919   77.1505  223.7127 H   0  0  0  0  0  0  0  0  0  0  0  0
  139.0987   70.5018  222.0838 H   0  0  0  0  0  0  0  0  0  0  0  0
  139.1165   68.7865  223.8705 H   0  0  0  0  0  0  0  0  0  0  0  0
  139.6241   68.1036  226.0791 H   0  0  0  0  0  0  0  0  0  0  0  0
  141.4796   70.9136  228.7461 H   0  0  0  0  0  0  0  0  0  0  0  0
  141.4662   72.6423  226.9487 H   0  0  0  0  0  0  0  0  0  0  0  0
  1  2  2  0
  2  3  1  0
  3  4  1  0
  4  5  1  0
  5  6  2  0
  5  7  1  0
  7  8  1  0
  8  9  1  0
  9 10  1  0
 10 11  1  0
 11 12  1  0
 12 13  1  0
 13 14  2  0
 14 15  1  0
 15 16  2  0
 16 17  1  0
 16 18  1  0
 18 19  2  0
  2 20  1  0
 20 21  2  0
 21 22  1  0
 22 23  2  0
 23 24  1  0
 24 25  2  0
 25 26  1  0
 25 27  1  0
 27 28  2  0
 28 29  1  0
 29 30  2  0
 12  7  1  0
 19 13  1  0
 30 20  1  0
 29 23  1  0
  3 31  1  0
  4 32  1  0
  4 33  1  0
  8 34  1  0
  8 35  1  0
  9 36  1  0
  9 37  1  0
 10 38  1  0
 10 39  1  0
 11 40  1  0
 11 41  1  0
 12 42  1  6
 14 43  1  0
 15 44  1  0
 17 45  1  0
 18 46  1  0
 19 47  1  0
 21 48  1  0
 22 49  1  0
 24 50  1  0
 27 51  1  0
 28 52  1  0
M  END
>  <smiles>  (98) 
O=C(NCC(=O)N1CCCCC1c1ccc(O)cc1)c1ccc2cc(Cl)ccc2n1

>  <score_type>  (98) 
oracle

>  <origin>  (98) 
autodockgpu

>  <m_score__min__energy>  (98) 
-8.5800000000000001

>  <m_primary>  (98) 
energy

>  <rmsd>  (98) 
3.4571892027259508

>  <m_score__min__rmsd>  (98) 
3.4571892027259508

>  <meeko>  (98) 
{"free_energy": -7.76, "intermolecular_energy": -9.55, "internal_energy": -1.41, "cluster_size": 7, "cluster_id": 2, "rank_in_cluster": 5}

>  <energy>  (98) 
-7.22

>  <cluster_rmsd>  (98) 
0.7

>  <cluster>  (98) 
6

$$$$

     RDKit          3D

 52 55  0  0  0  0  0  0  0  0999 V2000
  140.7150   72.3390  220.8350 O   0  0  0  0  0  0  0  0  0  0  0  0
  140.2000   72.6290  221.9610 C   0  0  0  0  0  0  0  0  0  0  0  0
  139.6230   73.9700  222.1040 N   0  0  0  0  0  0  0  0  0  0  0  0
  139.7080   74.7890  220.9660 C   0  0  0  0  0  0  0  0  0  0  0  0
  140.2000   76.1430  221.0060 C   0  0  0  0  0  0  0  0  0  0  0  0
  139.4330   76.9250  221.7610 O   0  0  0  0  0  0  0  0  0  0  0  0
  141.2760   76.8060  220.4450 N   0  0  0  0  0  0  0  0  0  0  0  0
  141.8990   78.0480  220.8530 C   0  0  0  0  0  0  0  0  0  0  0  0
  141.3420   79.1050  219.9110 C   0  0  0  0  0  0  0  0  0  0  0  0
  141.4240   78.5500  218.5120 C   0  0  0  0  0  0  0  0  0  0  0  0
  142.3860   77.3820  218.4100 C   0  0  0  0  0  0  0  0  0  0  0  0
  141.8750   76.2230  219.2240 C   0  0  1  0  0  0  0  0  0  0  0  0
  142.8120   75.1430  219.4670 C   0  0  0  0  0  0  0  0  0  0  0  0
  144.0280   75.4690  220.0890 C   0  0  0  0  0  0  0  0  0  0  0  0
  144.9840   74.5120  220.3570 C   0  0  0  0  0  0  0  0  0  0  0  0
  144.7870   73.1870  220.0220 C   0  0  0  0  0  0  0  0  0  0  0  0
  145.7210   72.1910  220.2730 O   0  0  0  0  0  0  0  0  0  0  0  0
  143.5990   72.8440  219.4110 C   0  0  0  0  0  0  0  0  0  0  0  0
  142.6470   73.8180  219.1490 C   0  0  0  0  0  0  0  0  0  0  0  0
  140.1670   71.7050  223.0640 C   0  0  0  0  0  0  0  0  0  0  0  0
  139.6180   70.4660  222.8690 C   0  0  0  0  0  0  0  0  0  0  0  0
  139.5750   69.5600  223.9110 C   0  0  0  0  0  0  0  0  0  0  0  0
  140.0770   69.8880  225.1440 C   0  0  0  0  0  0  0  0  0  0  0  0
  140.0190   68.9650  226.1620 C   0  0  0  0  0  0  0  0  0  0  0  0
  140.5290   69.3170  227.3850 C   0  0  0  0  0  0  0  0  0  0  0  0
  140.4940   68.1980  228.7350 Cl  0  0  0  0  0  0  0  0  0  0  0  0
  141.0800   70.5660  227.5790 C   0  0  0  0  0  0  0  0  0  0  0  0
  141.1260   71.4830  226.5310 C   0  0  0  0  0  0  0  0  0  0  0  0
  140.6240   71.1430  225.3110 C   0  0  0  0  0  0  0  0  0  0  0  0
  140.6570   72.0100  224.2880 N   0  0  0  0  0  0  0  0  0  0  0  0
  139.2120   74.1290  223.0280 H   0  0  0  0  0  0  0  0  0  0  0  0
  140.3541   74.2531  220.2551 H   0  0  0  0  0  0  0  0  0  0  0  0
  138.6453   74.9490  220.7314 H   0  0  0  0  0  0  0  0  0  0  0  0
  141.6391   78.2852  221.8952 H   0  0  0  0  0  0  0  0  0  0  0  0
  142.9965   77.9919  220.8035 H   0  0  0  0  0  0  0  0  0  0  0  0
  140.2950   79.3236  220.1680 H   0  0  0  0  0  0  0  0  0  0  0  0
  141.9165   80.0395  219.9925 H   0  0  0  0  0  0  0  0  0  0  0  0
  140.4230   78.2111  218.2069 H   0  0  0  0  0  0  0  0  0  0  0  0
  141.7958   79.3498  217.8547 H   0  0  0  0  0  0  0  0  0  0  0  0
  142.4774   77.0759  217.3574 H   0  0  0  0  0  0  0  0  0  0  0  0
  143.3695   77.6889  218.7955 H   0  0  0  0  0  0  0  0  0  0  0  0
  141.1208   75.6786  218.6368 H   0  0  0  0  0  0  0  0  0  0  0  0
  144.2230   76.5146  220.3697 H   0  0  0  0  0  0  0  0  0  0  0  0
  145.9224   74.8101  220.8475 H   0  0  0  0  0  0  0  0  0  0  0  0
  145.6980   71.6200  221.1090 H   0  0  0  0  0  0  0  0  0  0  0  0
  143.4065   71.7977  219.1314 H   0  0  0  0  0  0  0  0  0  0  0  0
  141.7100   73.5124  218.6604 H   0  0  0  0  0  0  0  0  0  0  0  0
  139.2117   70.1924  221.8841 H   0  0  0  0  0  0  0  0  0  0  0  0
  139.1336   68.5654  223.7499 H   0  0  0  0  0  0  0  0  0  0  0  0
  139.5756   67.9716  225.9994 H   0  0  0  0  0  0  0  0  0  0  0  0
  141.4847   70.8394  228.5646 H   0  0  0  0  0  0  0  0  0  0  0  0
  141.5664   72.4787  226.6882 H   0  0  0  0  0  0  0  0  0  0  0  0
  1  2  2  0
  2  3  1  0
  3  4  1  0
  4  5  1  0
  5  6  2  0
  5  7  1  0
  7  8  1  0
  8  9  1  0
  9 10  1  0
 10 11  1  0
 11 12  1  0
 12 13  1  0
 13 14  2  0
 14 15  1  0
 15 16  2  0
 16 17  1  0
 16 18  1  0
 18 19  2  0
  2 20  1  0
 20 21  2  0
 21 22  1  0
 22 23  2  0
 23 24  1  0
 24 25  2  0
 25 26  1  0
 25 27  1  0
 27 28  2  0
 28 29  1  0
 29 30  2  0
 12  7  1  0
 19 13  1  0
 30 20  1  0
 29 23  1  0
  3 31  1  0
  4 32  1  0
  4 33  1  0
  8 34  1  0
  8 35  1  0
  9 36  1  0
  9 37  1  0
 10 38  1  0
 10 39  1  0
 11 40  1  0
 11 41  1  0
 12 42  1  6
 14 43  1  0
 15 44  1  0
 17 45  1  0
 18 46  1  0
 19 47  1  0
 21 48  1  0
 22 49  1  0
 24 50  1  0
 27 51  1  0
 28 52  1  0
M  END
>  <smiles>  (99) 
O=C(NCC(=O)N1CCCCC1c1ccc(O)cc1)c1ccc2cc(Cl)ccc2n1

>  <score_type>  (99) 
oracle

>  <origin>  (99) 
autodockgpu

>  <m_score__min__energy>  (99) 
-8.5800000000000001

>  <m_primary>  (99) 
energy

>  <rmsd>  (99) 
2.4702839184788288

>  <m_score__min__rmsd>  (99) 
2.4702839184788288

>  <meeko>  (99) 
{"free_energy": -8.42, "intermolecular_energy": -10.21, "internal_energy": -1.59, "cluster_size": 20, "cluster_id": 1, "rank_in_cluster": 7}

>  <energy>  (99) 
-7.18

>  <cluster_rmsd>  (99) 
0.86

>  <cluster>  (99) 
6

$$$$

     RDKit          3D

 52 55  0  0  0  0  0  0  0  0999 V2000
  139.2750   74.4130  221.7520 O   0  0  0  0  0  0  0  0  0  0  0  0
  140.5270   74.6020  221.6320 C   0  0  0  0  0  0  0  0  0  0  0  0
  141.0430   75.9150  222.0340 N   0  0  0  0  0  0  0  0  0  0  0  0
  140.0820   76.8230  222.5100 C   0  0  0  0  0  0  0  0  0  0  0  0
  140.1940   78.2500  222.3410 C   0  0  0  0  0  0  0  0  0  0  0  0
  139.0460   78.8700  222.6030 O   0  0  0  0  0  0  0  0  0  0  0  0
  141.2120   79.1100  221.9730 N   0  0  0  0  0  0  0  0  0  0  0  0
  142.2110   79.7520  222.8010 C   0  0  0  0  0  0  0  0  0  0  0  0
  141.7050   81.1720  223.0100 C   0  0  0  0  0  0  0  0  0  0  0  0
  141.2710   81.6980  221.6670 C   0  0  0  0  0  0  0  0  0  0  0  0
  141.8480   80.8940  220.5180 C   0  0  0  0  0  0  0  0  0  0  0  0
  141.2990   79.4920  220.5460 C   0  0  1  0  0  0  0  0  0  0  0  0
  141.9670   78.5210  219.7000 C   0  0  0  0  0  0  0  0  0  0  0  0
  142.0780   78.8210  218.3340 C   0  0  0  0  0  0  0  0  0  0  0  0
  142.6910   77.9580  217.4500 C   0  0  0  0  0  0  0  0  0  0  0  0
  143.2230   76.7560  217.8730 C   0  0  0  0  0  0  0  0  0  0  0  0
  143.8490   75.8570  217.0190 O   0  0  0  0  0  0  0  0  0  0  0  0
  143.1250   76.4410  219.2110 C   0  0  0  0  0  0  0  0  0  0  0  0
  142.5060   77.3190  220.0870 C   0  0  0  0  0  0  0  0  0  0  0  0
  141.4220   73.5940  221.1300 C   0  0  0  0  0  0  0  0  0  0  0  0
  140.9500   72.3220  220.9530 C   0  0  0  0  0  0  0  0  0  0  0  0
  141.7880   71.3360  220.4720 C   0  0  0  0  0  0  0  0  0  0  0  0
  143.0950   71.6170  220.1680 C   0  0  0  0  0  0  0  0  0  0  0  0
  143.9060   70.6140  219.6910 C   0  0  0  0  0  0  0  0  0  0  0  0
  145.2100   70.9200  219.3940 C   0  0  0  0  0  0  0  0  0  0  0  0
  146.3090   69.6990  218.7810 Cl  0  0  0  0  0  0  0  0  0  0  0  0
  145.6840   72.2020  219.5740 C   0  0  0  0  0  0  0  0  0  0  0  0
  144.8410   73.2010  220.0590 C   0  0  0  0  0  0  0  0  0  0  0  0
  143.5440   72.9070  220.3560 C   0  0  0  0  0  0  0  0  0  0  0  0
  142.7150   73.8520  220.8250 N   0  0  0  0  0  0  0  0  0  0  0  0
  142.0580   75.9920  221.9260 H   0  0  0  0  0  0  0  0  0  0  0  0
  139.1328   76.5358  222.0340 H   0  0  0  0  0  0  0  0  0  0  0  0
  140.2060   76.7216  223.5983 H   0  0  0  0  0  0  0  0  0  0  0  0
  142.3058   79.2307  223.7650 H   0  0  0  0  0  0  0  0  0  0  0  0
  143.2058   79.7354  222.3318 H   0  0  0  0  0  0  0  0  0  0  0  0
  140.8530   81.1689  223.7057 H   0  0  0  0  0  0  0  0  0  0  0  0
  142.4947   81.8064  223.4388 H   0  0  0  0  0  0  0  0  0  0  0  0
  140.1732   81.6583  221.6099 H   0  0  0  0  0  0  0  0  0  0  0  0
  141.6420   82.7294  221.5746 H   0  0  0  0  0  0  0  0  0  0  0  0
  141.5768   81.3728  219.5655 H   0  0  0  0  0  0  0  0  0  0  0  0
  142.9429   80.8559  220.6169 H   0  0  0  0  0  0  0  0  0  0  0  0
  140.3047   79.4874  220.0755 H   0  0  0  0  0  0  0  0  0  0  0  0
  141.6655   79.7690  217.9584 H   0  0  0  0  0  0  0  0  0  0  0  0
  142.7574   78.2326  216.3869 H   0  0  0  0  0  0  0  0  0  0  0  0
  144.8360   75.6390  217.0850 H   0  0  0  0  0  0  0  0  0  0  0  0
  143.5382   75.4923  219.5841 H   0  0  0  0  0  0  0  0  0  0  0  0
  142.4433   77.0378  221.1486 H   0  0  0  0  0  0  0  0  0  0  0  0
  139.9032   72.0851  221.1939 H   0  0  0  0  0  0  0  0  0  0  0  0
  141.4034   70.3151  220.3313 H   0  0  0  0  0  0  0  0  0  0  0  0
  143.5195   69.5937  219.5513 H   0  0  0  0  0  0  0  0  0  0  0  0
  146.7313   72.4376  219.3341 H   0  0  0  0  0  0  0  0  0  0  0  0
  145.2217   74.2232  220.2014 H   0  0  0  0  0  0  0  0  0  0  0  0
  1  2  2  0
  2  3  1  0
  3  4  1  0
  4  5  1  0
  5  6  2  0
  5  7  1  0
  7  8  1  0
  8  9  1  0
  9 10  1  0
 10 11  1  0
 11 12  1  0
 12 13  1  0
 13 14  2  0
 14 15  1  0
 15 16  2  0
 16 17  1  0
 16 18  1  0
 18 19  2  0
  2 20  1  0
 20 21  2  0
 21 22  1  0
 22 23  2  0
 23 24  1  0
 24 25  2  0
 25 26  1  0
 25 27  1  0
 27 28  2  0
 28 29  1  0
 29 30  2  0
 12  7  1  0
 19 13  1  0
 30 20  1  0
 29 23  1  0
  3 31  1  0
  4 32  1  0
  4 33  1  0
  8 34  1  0
  8 35  1  0
  9 36  1  0
  9 37  1  0
 10 38  1  0
 10 39  1  0
 11 40  1  0
 11 41  1  0
 12 42  1  6
 14 43  1  0
 15 44  1  0
 17 45  1  0
 18 46  1  0
 19 47  1  0
 21 48  1  0
 22 49  1  0
 24 50  1  0
 27 51  1  0
 28 52  1  0
M  END
>  <smiles>  (100) 
O=C(NCC(=O)N1CCCCC1c1ccc(O)cc1)c1ccc2cc(Cl)ccc2n1

>  <score_type>  (100) 
oracle

>  <origin>  (100) 
autodockgpu

>  <m_score__min__energy>  (100) 
-8.5800000000000001

>  <m_primary>  (100) 
energy

>  <rmsd>  (100) 
6.198457406261308

>  <m_score__min__rmsd>  (100) 
6.198457406261308

>  <meeko>  (100) 
{"free_energy": -7.54, "intermolecular_energy": -9.33, "internal_energy": -1.94, "cluster_size": 4, "cluster_id": 3, "rank_in_cluster": 3}

>  <energy>  (100) 
-7.12

>  <cluster_rmsd>  (100) 
0.7

>  <cluster>  (100) 
6

$$$$
