
     RDKit          3D

 53 56  0  0  0  0  0  0  0  0999 V2000
  139.5520   73.5470  222.4080 O   0  0  0  0  0  0  0  0  0  0  0  0
  140.2960   72.5150  222.4440 C   0  0  0  0  0  0  0  0  0  0  0  0
  141.2400   72.2210  221.4220 N   0  0  0  0  0  0  0  0  0  0  0  0
  141.3890   73.1190  220.2740 C   0  0  0  0  0  0  0  0  0  0  0  0
  142.5990   73.9820  220.5090 C   0  0  0  0  0  0  0  0  0  0  0  0
  143.5150   73.4490  221.1770 O   0  0  0  0  0  0  0  0  0  0  0  0
  142.6440   75.3000  219.9880 N   0  0  0  0  0  0  0  0  0  0  0  0
  143.6860   75.7730  219.0750 C   0  0  0  0  0  0  0  0  0  0  0  0
  142.8610   76.5010  218.0520 C   0  0  0  0  0  0  0  0  0  0  0  0
  141.7950   77.1780  218.8610 C   0  0  0  0  0  0  0  0  0  0  0  0
  141.7870   76.4370  220.1690 C   0  0  1  0  0  0  0  0  0  0  0  0
  140.4090   75.9950  220.5500 C   0  0  0  0  0  0  0  0  0  0  0  0
  140.1200   76.3210  221.9560 N   0  0  0  0  0  0  0  0  0  0  0  0
  140.5930   77.6050  222.3950 C   0  0  0  0  0  0  0  0  0  0  0  0
  140.1510   78.7330  221.7590 C   0  0  0  0  0  0  0  0  0  0  0  0
  140.6340   79.9620  222.2200 C   0  0  0  0  0  0  0  0  0  0  0  0
  141.5170   80.0580  223.2660 C   0  0  0  0  0  0  0  0  0  0  0  0
  142.1350   81.5910  223.8570 Cl  0  0  0  0  0  0  0  0  0  0  0  0
  141.9520   78.9150  223.8950 C   0  0  0  0  0  0  0  0  0  0  0  0
  141.4790   77.6950  223.4460 C   0  0  0  0  0  0  0  0  0  0  0  0
  140.1780   71.5890  223.5880 C   0  0  0  0  0  0  0  0  0  0  0  0
  139.4990   70.3900  223.4220 C   0  0  0  0  0  0  0  0  0  0  0  0
  139.3530   69.4850  224.4520 C   0  0  0  0  0  0  0  0  0  0  0  0
  139.9050   69.8000  225.6710 C   0  0  0  0  0  0  0  0  0  0  0  0
  139.7820   68.9310  226.7170 C   0  0  0  0  0  0  0  0  0  0  0  0
  140.3450   69.2710  227.9350 C   0  0  0  0  0  0  0  0  0  0  0  0
  140.2390   68.4310  228.9890 F   0  0  0  0  0  0  0  0  0  0  0  0
  141.0160   70.4730  228.0720 C   0  0  0  0  0  0  0  0  0  0  0  0
  141.1460   71.3660  227.0070 C   0  0  0  0  0  0  0  0  0  0  0  0
  140.5720   71.0050  225.7910 C   0  0  0  0  0  0  0  0  0  0  0  0
  140.7080   71.8780  224.7870 N   0  0  0  0  0  0  0  0  0  0  0  0
  141.8350   71.3430  221.5030 H   0  0  0  0  0  0  0  0  0  0  0  0
  141.5241   72.5299  219.3550 H   0  0  0  0  0  0  0  0  0  0  0  0
  140.4913   73.7445  220.1606 H   0  0  0  0  0  0  0  0  0  0  0  0
  144.3905   76.4492  219.5814 H   0  0  0  0  0  0  0  0  0  0  0  0
  144.3225   74.9768  218.6614 H   0  0  0  0  0  0  0  0  0  0  0  0
  143.4708   77.2403  217.5120 H   0  0  0  0  0  0  0  0  0  0  0  0
  142.4481   75.8292  217.2851 H   0  0  0  0  0  0  0  0  0  0  0  0
  142.0401   78.2390  219.0167 H   0  0  0  0  0  0  0  0  0  0  0  0
  140.8148   77.1567  218.3623 H   0  0  0  0  0  0  0  0  0  0  0  0
  142.1364   77.0895  220.9827 H   0  0  0  0  0  0  0  0  0  0  0  0
  139.6771   76.5034  219.9052 H   0  0  0  0  0  0  0  0  0  0  0  0
  140.3432   74.9044  220.4226 H   0  0  0  0  0  0  0  0  0  0  0  0
  139.6130   75.6760  222.5860 H   0  0  0  0  0  0  0  0  0  0  0  0
  139.4438   78.6755  220.9184 H   0  0  0  0  0  0  0  0  0  0  0  0
  140.2940   80.8844  221.7265 H   0  0  0  0  0  0  0  0  0  0  0  0
  142.6595   78.9696  224.7355 H   0  0  0  0  0  0  0  0  0  0  0  0
  141.8190   76.7733  223.9408 H   0  0  0  0  0  0  0  0  0  0  0  0
  139.0643   70.1546  222.4393 H   0  0  0  0  0  0  0  0  0  0  0  0
  138.8111   68.5394  224.3028 H   0  0  0  0  0  0  0  0  0  0  0  0
  139.2456   67.9786  226.5941 H   0  0  0  0  0  0  0  0  0  0  0  0
  141.4585   70.7317  229.0453 H   0  0  0  0  0  0  0  0  0  0  0  0
  141.6820   72.3194  227.1241 H   0  0  0  0  0  0  0  0  0  0  0  0
  1  2  2  0
  2  3  1  0
  3  4  1  0
  4  5  1  0
  5  6  2  0
  5  7  1  0
  7  8  1  0
  8  9  1  0
  9 10  1  0
 10 11  1  0
 11 12  1  0
 12 13  1  0
 13 14  1  0
 14 15  2  0
 15 16  1  0
 16 17  2  0
 17 18  1  0
 17 19  1  0
 19 20  2  0
  2 21  1  0
 21 22  2  0
 22 23  1  0
 23 24  2  0
 24 25  1  0
 25 26  2  0
 26 27  1  0
 26 28  1  0
 28 29  2  0
 29 30  1  0
 30 31  2  0
 11  7  1  0
 20 14  1  0
 31 21  1  0
 30 24  1  0
  3 32  1  0
  4 33  1  0
  4 34  1  0
  8 35  1  0
  8 36  1  0
  9 37  1  0
  9 38  1  0
 10 39  1  0
 10 40  1  0
 11 41  1  1
 12 42  1  0
 12 43  1  0
 13 44  1  0
 15 45  1  0
 16 46  1  0
 19 47  1  0
 20 48  1  0
 22 49  1  0
 23 50  1  0
 25 51  1  0
 28 52  1  0
 29 53  1  0
M  END
>  <smiles>  (1) 
O=C(NCC(=O)N1CCC[C@H]1CNc1ccc(Cl)cc1)c1ccc2cc(F)ccc2n1

>  <score_type>  (1) 
oracle

>  <origin>  (1) 
autodockgpu

>  <m_score__min__energy>  (1) 
-9

>  <m_primary>  (1) 
energy

>  <rmsd>  (1) 
2.7146136212212646

>  <m_score__min__rmsd>  (1) 
2.7146136212212646

>  <meeko>  (1) 
{"free_energy": -8.45, "intermolecular_energy": -10.53, "internal_energy": -2.31, "cluster_size": 20, "cluster_id": 1, "rank_in_cluster": 4}

>  <energy>  (1) 
-9.0

>  <cluster_rmsd>  (1) 
0.0

>  <cluster>  (1) 
1

$$$$

     RDKit          3D

 53 56  0  0  0  0  0  0  0  0999 V2000
  138.0070   70.7030  221.8900 O   0  0  0  0  0  0  0  0  0  0  0  0
  138.7110   71.2560  222.7950 C   0  0  0  0  0  0  0  0  0  0  0  0
  139.1310   72.6120  222.7100 N   0  0  0  0  0  0  0  0  0  0  0  0
  138.7540   73.4310  221.5550 C   0  0  0  0  0  0  0  0  0  0  0  0
  139.7820   74.5190  221.3970 C   0  0  0  0  0  0  0  0  0  0  0  0
  140.7750   74.4310  222.1570 O   0  0  0  0  0  0  0  0  0  0  0  0
  139.5870   75.5470  220.4410 N   0  0  0  0  0  0  0  0  0  0  0  0
  138.4880   75.5540  219.4750 C   0  0  0  0  0  0  0  0  0  0  0  0
  138.0240   76.9790  219.5800 C   0  0  0  0  0  0  0  0  0  0  0  0
  139.2940   77.7630  219.7220 C   0  0  0  0  0  0  0  0  0  0  0  0
  140.3150   76.7510  220.1590 C   0  0  1  0  0  0  0  0  0  0  0  0
  141.0630   77.2040  221.3740 C   0  0  0  0  0  0  0  0  0  0  0  0
  140.2290   77.0860  222.5820 N   0  0  0  0  0  0  0  0  0  0  0  0
  139.5450   78.2880  222.9720 C   0  0  0  0  0  0  0  0  0  0  0  0
  140.2680   79.3330  223.4810 C   0  0  0  0  0  0  0  0  0  0  0  0
  139.5630   80.4850  223.8450 C   0  0  0  0  0  0  0  0  0  0  0  0
  138.2010   80.5860  223.7090 C   0  0  0  0  0  0  0  0  0  0  0  0
  137.3000   82.0230  224.1620 Cl  0  0  0  0  0  0  0  0  0  0  0  0
  137.4890   79.5270  223.1960 C   0  0  0  0  0  0  0  0  0  0  0  0
  138.1780   78.3840  222.8320 C   0  0  0  0  0  0  0  0  0  0  0  0
  139.1070   70.4630  223.9760 C   0  0  0  0  0  0  0  0  0  0  0  0
  138.8350   69.1020  224.0020 C   0  0  0  0  0  0  0  0  0  0  0  0
  139.1780   68.3090  225.0750 C   0  0  0  0  0  0  0  0  0  0  0  0
  139.8090   68.9050  226.1420 C   0  0  0  0  0  0  0  0  0  0  0  0
  140.1640   68.1540  227.2260 C   0  0  0  0  0  0  0  0  0  0  0  0
  140.7980   68.7760  228.2880 C   0  0  0  0  0  0  0  0  0  0  0  0
  141.1610   68.0590  229.3750 F   0  0  0  0  0  0  0  0  0  0  0  0
  141.0570   70.1340  228.2350 C   0  0  0  0  0  0  0  0  0  0  0  0
  140.6960   70.9070  227.1310 C   0  0  0  0  0  0  0  0  0  0  0  0
  140.0600   70.2620  226.0740 C   0  0  0  0  0  0  0  0  0  0  0  0
  139.7230   71.0250  225.0280 N   0  0  0  0  0  0  0  0  0  0  0  0
  139.7210   73.0220  223.4950 H   0  0  0  0  0  0  0  0  0  0  0  0
  138.7283   72.8080  220.6488 H   0  0  0  0  0  0  0  0  0  0  0  0
  137.7565   73.8688  221.7079 H   0  0  0  0  0  0  0  0  0  0  0  0
  138.8405   75.3176  218.4602 H   0  0  0  0  0  0  0  0  0  0  0  0
  137.7056   74.8064  219.6725 H   0  0  0  0  0  0  0  0  0  0  0  0
  137.4775   77.2802  218.6742 H   0  0  0  0  0  0  0  0  0  0  0  0
  137.3313   77.1385  220.4194 H   0  0  0  0  0  0  0  0  0  0  0  0
  139.5813   78.2149  218.7612 H   0  0  0  0  0  0  0  0  0  0  0  0
  139.1952   78.5927  220.4374 H   0  0  0  0  0  0  0  0  0  0  0  0
  141.0688   76.6006  219.3721 H   0  0  0  0  0  0  0  0  0  0  0  0
  141.9621   76.5820  221.4955 H   0  0  0  0  0  0  0  0  0  0  0  0
  141.3400   78.2603  221.2413 H   0  0  0  0  0  0  0  0  0  0  0  0
  140.1380   76.2040  223.1140 H   0  0  0  0  0  0  0  0  0  0  0  0
  141.3598   79.2694  223.5991 H   0  0  0  0  0  0  0  0  0  0  0  0
  140.1200   81.3404  224.2548 H   0  0  0  0  0  0  0  0  0  0  0  0
  136.3970   79.5875  223.0779 H   0  0  0  0  0  0  0  0  0  0  0  0
  137.6201   77.5301  222.4203 H   0  0  0  0  0  0  0  0  0  0  0  0
  138.3301   68.6426  223.1394 H   0  0  0  0  0  0  0  0  0  0  0  0
  138.9541   67.2320  225.0783 H   0  0  0  0  0  0  0  0  0  0  0  0
  139.9502   67.0754  227.2548 H   0  0  0  0  0  0  0  0  0  0  0  0
  141.5607   70.6169  229.0854 H   0  0  0  0  0  0  0  0  0  0  0  0
  140.9062   71.9862  227.0971 H   0  0  0  0  0  0  0  0  0  0  0  0
  1  2  2  0
  2  3  1  0
  3  4  1  0
  4  5  1  0
  5  6  2  0
  5  7  1  0
  7  8  1  0
  8  9  1  0
  9 10  1  0
 10 11  1  0
 11 12  1  0
 12 13  1  0
 13 14  1  0
 14 15  2  0
 15 16  1  0
 16 17  2  0
 17 18  1  0
 17 19  1  0
 19 20  2  0
  2 21  1  0
 21 22  2  0
 22 23  1  0
 23 24  2  0
 24 25  1  0
 25 26  2  0
 26 27  1  0
 26 28  1  0
 28 29  2  0
 29 30  1  0
 30 31  2  0
 11  7  1  0
 20 14  1  0
 31 21  1  0
 30 24  1  0
  3 32  1  0
  4 33  1  0
  4 34  1  0
  8 35  1  0
  8 36  1  0
  9 37  1  0
  9 38  1  0
 10 39  1  0
 10 40  1  0
 11 41  1  6
 12 42  1  0
 12 43  1  0
 13 44  1  0
 15 45  1  0
 16 46  1  0
 19 47  1  0
 20 48  1  0
 22 49  1  0
 23 50  1  0
 25 51  1  0
 28 52  1  0
 29 53  1  0
M  END
>  <smiles>  (2) 
O=C(NCC(=O)N1CCC[C@H]1CNc1ccc(Cl)cc1)c1ccc2cc(F)ccc2n1

>  <score_type>  (2) 
oracle

>  <origin>  (2) 
autodockgpu

>  <m_score__min__energy>  (2) 
-9

>  <m_primary>  (2) 
energy

>  <rmsd>  (2) 
2.159446254369594

>  <m_score__min__rmsd>  (2) 
2.159446254369594

>  <meeko>  (2) 
{"free_energy": -7.28, "intermolecular_energy": -9.37, "internal_energy": -2.87, "cluster_size": 20, "cluster_id": 1, "rank_in_cluster": 20}

>  <energy>  (2) 
-8.97

>  <cluster_rmsd>  (2) 
0.15

>  <cluster>  (2) 
1

$$$$

     RDKit          3D

 53 56  0  0  0  0  0  0  0  0999 V2000
  140.2390   71.6300  221.1080 O   0  0  0  0  0  0  0  0  0  0  0  0
  139.9690   72.1750  222.2260 C   0  0  0  0  0  0  0  0  0  0  0  0
  139.6400   73.5540  222.3400 N   0  0  0  0  0  0  0  0  0  0  0  0
  139.5980   74.4040  221.1480 C   0  0  0  0  0  0  0  0  0  0  0  0
  140.7470   75.3740  221.2250 C   0  0  0  0  0  0  0  0  0  0  0  0
  140.8760   75.9650  222.3220 O   0  0  0  0  0  0  0  0  0  0  0  0
  141.5920   75.5650  220.1030 N   0  0  0  0  0  0  0  0  0  0  0  0
  141.3920   76.6220  219.1110 C   0  0  0  0  0  0  0  0  0  0  0  0
  142.7940   77.1400  218.9580 C   0  0  0  0  0  0  0  0  0  0  0  0
  143.6430   75.9050  219.0100 C   0  0  0  0  0  0  0  0  0  0  0  0
  142.7610   74.8680  219.6480 C   0  0  1  0  0  0  0  0  0  0  0  0
  143.4410   74.1880  220.7940 C   0  0  0  0  0  0  0  0  0  0  0  0
  142.9010   72.8340  221.0000 N   0  0  0  0  0  0  0  0  0  0  0  0
  143.6240   71.7800  220.3440 C   0  0  0  0  0  0  0  0  0  0  0  0
  142.9950   70.5900  220.0990 C   0  0  0  0  0  0  0  0  0  0  0  0
  143.7350   69.5920  219.4560 C   0  0  0  0  0  0  0  0  0  0  0  0
  145.0410   69.7750  219.0780 C   0  0  0  0  0  0  0  0  0  0  0  0
  145.9850   68.5340  218.2710 Cl  0  0  0  0  0  0  0  0  0  0  0  0
  145.6600   70.9770  219.3320 C   0  0  0  0  0  0  0  0  0  0  0  0
  144.9350   71.9700  219.9670 C   0  0  0  0  0  0  0  0  0  0  0  0
  139.9970   71.3480  223.4490 C   0  0  0  0  0  0  0  0  0  0  0  0
  139.5210   70.0450  223.3970 C   0  0  0  0  0  0  0  0  0  0  0  0
  139.5190   69.2240  224.5040 C   0  0  0  0  0  0  0  0  0  0  0  0
  140.0080   69.7320  225.6850 C   0  0  0  0  0  0  0  0  0  0  0  0
  140.0230   68.9510  226.8050 C   0  0  0  0  0  0  0  0  0  0  0  0
  140.5200   69.4840  227.9820 C   0  0  0  0  0  0  0  0  0  0  0  0
  140.5460   68.7370  229.1070 F   0  0  0  0  0  0  0  0  0  0  0  0
  140.9880   70.7860  228.0040 C   0  0  0  0  0  0  0  0  0  0  0  0
  140.9760   71.5900  226.8630 C   0  0  0  0  0  0  0  0  0  0  0  0
  140.4720   71.0340  225.6900 C   0  0  0  0  0  0  0  0  0  0  0  0
  140.4700   71.8240  224.6110 N   0  0  0  0  0  0  0  0  0  0  0  0
  139.4250   73.9570  223.3010 H   0  0  0  0  0  0  0  0  0  0  0  0
  139.6933   73.7840  220.2443 H   0  0  0  0  0  0  0  0  0  0  0  0
  138.6428   74.9474  221.1007 H   0  0  0  0  0  0  0  0  0  0  0  0
  141.0045   76.2190  218.1637 H   0  0  0  0  0  0  0  0  0  0  0  0
  140.6558   77.3852  219.4035 H   0  0  0  0  0  0  0  0  0  0  0  0
  142.9166   77.6589  217.9958 H   0  0  0  0  0  0  0  0  0  0  0  0
  143.0626   77.8721  219.7338 H   0  0  0  0  0  0  0  0  0  0  0  0
  143.9390   75.5938  217.9973 H   0  0  0  0  0  0  0  0  0  0  0  0
  144.5762   76.0624  219.5707 H   0  0  0  0  0  0  0  0  0  0  0  0
  142.5124   74.0770  218.9252 H   0  0  0  0  0  0  0  0  0  0  0  0
  144.5181   74.1173  220.5825 H   0  0  0  0  0  0  0  0  0  0  0  0
  143.2651   74.7778  221.7057 H   0  0  0  0  0  0  0  0  0  0  0  0
  142.0610   72.6500  221.5750 H   0  0  0  0  0  0  0  0  0  0  0  0
  141.9488   70.4245  220.3959 H   0  0  0  0  0  0  0  0  0  0  0  0
  143.2525   68.6261  219.2460 H   0  0  0  0  0  0  0  0  0  0  0  0
  146.7064   71.1448  219.0373 H   0  0  0  0  0  0  0  0  0  0  0  0
  145.4181   72.9359  220.1760 H   0  0  0  0  0  0  0  0  0  0  0  0
  139.1338   69.6561  222.4437 H   0  0  0  0  0  0  0  0  0  0  0  0
  139.1379   68.1938  224.4449 H   0  0  0  0  0  0  0  0  0  0  0  0
  139.6472   67.9177  226.7726 H   0  0  0  0  0  0  0  0  0  0  0  0
  141.3799   71.1983  228.9455 H   0  0  0  0  0  0  0  0  0  0  0  0
  141.3506   72.6239  226.8895 H   0  0  0  0  0  0  0  0  0  0  0  0
  1  2  2  0
  2  3  1  0
  3  4  1  0
  4  5  1  0
  5  6  2  0
  5  7  1  0
  7  8  1  0
  8  9  1  0
  9 10  1  0
 10 11  1  0
 11 12  1  0
 12 13  1  0
 13 14  1  0
 14 15  2  0
 15 16  1  0
 16 17  2  0
 17 18  1  0
 17 19  1  0
 19 20  2  0
  2 21  1  0
 21 22  2  0
 22 23  1  0
 23 24  2  0
 24 25  1  0
 25 26  2  0
 26 27  1  0
 26 28  1  0
 28 29  2  0
 29 30  1  0
 30 31  2  0
 11  7  1  0
 20 14  1  0
 31 21  1  0
 30 24  1  0
  3 32  1  0
  4 33  1  0
  4 34  1  0
  8 35  1  0
  8 36  1  0
  9 37  1  0
  9 38  1  0
 10 39  1  0
 10 40  1  0
 11 41  1  6
 12 42  1  0
 12 43  1  0
 13 44  1  0
 15 45  1  0
 16 46  1  0
 19 47  1  0
 20 48  1  0
 22 49  1  0
 23 50  1  0
 25 51  1  0
 28 52  1  0
 29 53  1  0
M  END
>  <smiles>  (3) 
O=C(NCC(=O)N1CCC[C@H]1CNc1ccc(Cl)cc1)c1ccc2cc(F)ccc2n1

>  <score_type>  (3) 
oracle

>  <origin>  (3) 
autodockgpu

>  <m_score__min__energy>  (3) 
-9

>  <m_primary>  (3) 
energy

>  <rmsd>  (3) 
5.098722195786173

>  <m_score__min__rmsd>  (3) 
5.098722195786173

>  <meeko>  (3) 
{"free_energy": -7.59, "intermolecular_energy": -9.67, "internal_energy": -2.75, "cluster_size": 6, "cluster_id": 5, "rank_in_cluster": 6}

>  <energy>  (3) 
-8.47

>  <cluster_rmsd>  (3) 
1.52

>  <cluster>  (3) 
1

$$$$

     RDKit          3D

 53 56  0  0  0  0  0  0  0  0999 V2000
  140.0620   73.9850  222.3010 O   0  0  0  0  0  0  0  0  0  0  0  0
  140.4440   72.7810  222.1470 C   0  0  0  0  0  0  0  0  0  0  0  0
  141.0560   72.3240  220.9460 N   0  0  0  0  0  0  0  0  0  0  0  0
  141.2700   73.2480  219.8300 C   0  0  0  0  0  0  0  0  0  0  0  0
  142.5450   74.0060  220.0880 C   0  0  0  0  0  0  0  0  0  0  0  0
  143.0630   73.8140  221.2130 O   0  0  0  0  0  0  0  0  0  0  0  0
  143.0760   74.8630  219.0920 N   0  0  0  0  0  0  0  0  0  0  0  0
  143.8930   74.3920  217.9720 C   0  0  0  0  0  0  0  0  0  0  0  0
  143.2730   75.1450  216.8290 C   0  0  0  0  0  0  0  0  0  0  0  0
  142.9720   76.4960  217.4070 C   0  0  0  0  0  0  0  0  0  0  0  0
  142.9870   76.2810  218.8940 C   0  0  1  0  0  0  0  0  0  0  0  0
  141.7530   76.8220  219.5470 C   0  0  0  0  0  0  0  0  0  0  0  0
  141.7980   76.6250  221.0050 N   0  0  0  0  0  0  0  0  0  0  0  0
  141.0460   77.5770  221.7740 C   0  0  0  0  0  0  0  0  0  0  0  0
  141.6710   78.7040  222.2370 C   0  0  0  0  0  0  0  0  0  0  0  0
  140.9020   79.6060  222.9800 C   0  0  0  0  0  0  0  0  0  0  0  0
  139.5740   79.3920  223.2470 C   0  0  0  0  0  0  0  0  0  0  0  0
  138.5930   80.5130  224.1770 Cl  0  0  0  0  0  0  0  0  0  0  0  0
  138.9600   78.2550  222.7750 C   0  0  0  0  0  0  0  0  0  0  0  0
  139.7130   77.3570  222.0390 C   0  0  0  0  0  0  0  0  0  0  0  0
  140.2480   71.8220  223.2520 C   0  0  0  0  0  0  0  0  0  0  0  0
  139.5870   70.6270  223.0040 C   0  0  0  0  0  0  0  0  0  0  0  0
  139.3720   69.6920  223.9940 C   0  0  0  0  0  0  0  0  0  0  0  0
  139.8360   69.9720  225.2580 C   0  0  0  0  0  0  0  0  0  0  0  0
  139.6420   69.0730  226.2670 C   0  0  0  0  0  0  0  0  0  0  0  0
  140.1170   69.3780  227.5310 C   0  0  0  0  0  0  0  0  0  0  0  0
  139.9400   68.5080  228.5500 F   0  0  0  0  0  0  0  0  0  0  0  0
  140.7720   70.5760  227.7490 C   0  0  0  0  0  0  0  0  0  0  0  0
  140.9740   71.5000  226.7230 C   0  0  0  0  0  0  0  0  0  0  0  0
  140.4880   71.1740  225.4600 C   0  0  0  0  0  0  0  0  0  0  0  0
  140.6920   72.0760  224.4930 N   0  0  0  0  0  0  0  0  0  0  0  0
  141.3540   71.3060  220.8710 H   0  0  0  0  0  0  0  0  0  0  0  0
  141.3556   72.6835  218.8898 H   0  0  0  0  0  0  0  0  0  0  0  0
  140.4231   73.9448  219.7445 H   0  0  0  0  0  0  0  0  0  0  0  0
  144.9520   74.6584  218.1043 H   0  0  0  0  0  0  0  0  0  0  0  0
  143.9011   73.2995  217.8443 H   0  0  0  0  0  0  0  0  0  0  0  0
  143.9765   75.2274  215.9874 H   0  0  0  0  0  0  0  0  0  0  0  0
  142.3780   74.6463  216.4286 H   0  0  0  0  0  0  0  0  0  0  0  0
  143.7408   77.2252  217.1118 H   0  0  0  0  0  0  0  0  0  0  0  0
  142.0116   76.8981  217.0522 H   0  0  0  0  0  0  0  0  0  0  0  0
  143.8350   76.8126  219.3503 H   0  0  0  0  0  0  0  0  0  0  0  0
  141.6743   77.8978  219.3317 H   0  0  0  0  0  0  0  0  0  0  0  0
  140.8806   76.2841  219.1475 H   0  0  0  0  0  0  0  0  0  0  0  0
  142.3310   75.8570  221.4490 H   0  0  0  0  0  0  0  0  0  0  0  0
  142.7353   78.8926  222.0328 H   0  0  0  0  0  0  0  0  0  0  0  0
  141.3796   80.5196  223.3638 H   0  0  0  0  0  0  0  0  0  0  0  0
  137.8958   78.0642  222.9778 H   0  0  0  0  0  0  0  0  0  0  0  0
  139.2341   76.4438  221.6558 H   0  0  0  0  0  0  0  0  0  0  0  0
  139.2237   70.4197  221.9866 H   0  0  0  0  0  0  0  0  0  0  0  0
  138.8452   68.7505  223.7794 H   0  0  0  0  0  0  0  0  0  0  0  0
  139.1181   68.1242  226.0791 H   0  0  0  0  0  0  0  0  0  0  0  0
  141.1438   70.8069  228.7582 H   0  0  0  0  0  0  0  0  0  0  0  0
  141.4975   72.4501  226.9054 H   0  0  0  0  0  0  0  0  0  0  0  0
  1  2  2  0
  2  3  1  0
  3  4  1  0
  4  5  1  0
  5  6  2  0
  5  7  1  0
  7  8  1  0
  8  9  1  0
  9 10  1  0
 10 11  1  0
 11 12  1  0
 12 13  1  0
 13 14  1  0
 14 15  2  0
 15 16  1  0
 16 17  2  0
 17 18  1  0
 17 19  1  0
 19 20  2  0
  2 21  1  0
 21 22  2  0
 22 23  1  0
 23 24  2  0
 24 25  1  0
 25 26  2  0
 26 27  1  0
 26 28  1  0
 28 29  2  0
 29 30  1  0
 30 31  2  0
 11  7  1  0
 20 14  1  0
 31 21  1  0
 30 24  1  0
  3 32  1  0
  4 33  1  0
  4 34  1  0
  8 35  1  0
  8 36  1  0
  9 37  1  0
  9 38  1  0
 10 39  1  0
 10 40  1  0
 11 41  1  1
 12 42  1  0
 12 43  1  0
 13 44  1  0
 15 45  1  0
 16 46  1  0
 19 47  1  0
 20 48  1  0
 22 49  1  0
 23 50  1  0
 25 51  1  0
 28 52  1  0
 29 53  1  0
M  END
>  <smiles>  (4) 
O=C(NCC(=O)N1CCC[C@H]1CNc1ccc(Cl)cc1)c1ccc2cc(F)ccc2n1

>  <score_type>  (4) 
oracle

>  <origin>  (4) 
autodockgpu

>  <m_score__min__energy>  (4) 
-9

>  <m_primary>  (4) 
energy

>  <rmsd>  (4) 
2.9288598456864015

>  <m_score__min__rmsd>  (4) 
2.9288598456864015

>  <meeko>  (4) 
{"free_energy": -8.08, "intermolecular_energy": -10.17, "internal_energy": -2.16, "cluster_size": 7, "cluster_id": 3, "rank_in_cluster": 5}

>  <energy>  (4) 
-8.45

>  <cluster_rmsd>  (4) 
1.96

>  <cluster>  (4) 
1

$$$$

     RDKit          3D

 53 56  0  0  0  0  0  0  0  0999 V2000
  140.5340   71.5550  221.0530 O   0  0  0  0  0  0  0  0  0  0  0  0
  140.1620   72.1510  222.1150 C   0  0  0  0  0  0  0  0  0  0  0  0
  139.8770   73.5440  222.1450 N   0  0  0  0  0  0  0  0  0  0  0  0
  140.0010   74.3500  220.9280 C   0  0  0  0  0  0  0  0  0  0  0  0
  141.1120   75.3440  221.1380 C   0  0  0  0  0  0  0  0  0  0  0  0
  141.3370   75.6520  222.3310 O   0  0  0  0  0  0  0  0  0  0  0  0
  141.8200   75.8630  220.0240 N   0  0  0  0  0  0  0  0  0  0  0  0
  142.3220   75.0340  218.9280 C   0  0  0  0  0  0  0  0  0  0  0  0
  141.9060   75.8510  217.7370 C   0  0  0  0  0  0  0  0  0  0  0  0
  142.1450   77.2670  218.1700 C   0  0  0  0  0  0  0  0  0  0  0  0
  142.2130   77.1970  219.6690 C   0  0  1  0  0  0  0  0  0  0  0  0
  141.3050   78.1960  220.3150 C   0  0  0  0  0  0  0  0  0  0  0  0
  141.4570   78.1790  221.7790 N   0  0  0  0  0  0  0  0  0  0  0  0
  140.5030   78.9720  222.5030 C   0  0  0  0  0  0  0  0  0  0  0  0
  140.9270   80.1010  223.1510 C   0  0  0  0  0  0  0  0  0  0  0  0
  139.9640   80.8450  223.8410 C   0  0  0  0  0  0  0  0  0  0  0  0
  138.6430   80.4780  223.8820 C   0  0  0  0  0  0  0  0  0  0  0  0
  137.4220   81.4000  224.7440 Cl  0  0  0  0  0  0  0  0  0  0  0  0
  138.2320   79.3410  223.2250 C   0  0  0  0  0  0  0  0  0  0  0  0
  139.1780   78.5990  222.5390 C   0  0  0  0  0  0  0  0  0  0  0  0
  140.0210   71.3700  223.3600 C   0  0  0  0  0  0  0  0  0  0  0  0
  139.4260   70.1180  223.3120 C   0  0  0  0  0  0  0  0  0  0  0  0
  139.2640   69.3420  224.4390 C   0  0  0  0  0  0  0  0  0  0  0  0
  139.7140   69.8430  225.6380 C   0  0  0  0  0  0  0  0  0  0  0  0
  139.5720   69.1060  226.7780 C   0  0  0  0  0  0  0  0  0  0  0  0
  140.0320   69.6330  227.9730 C   0  0  0  0  0  0  0  0  0  0  0  0
  139.9050   68.9270  229.1190 F   0  0  0  0  0  0  0  0  0  0  0  0
  140.6220   70.8840  227.9920 C   0  0  0  0  0  0  0  0  0  0  0  0
  140.7710   71.6430  226.8300 C   0  0  0  0  0  0  0  0  0  0  0  0
  140.3010   71.0950  225.6400 C   0  0  0  0  0  0  0  0  0  0  0  0
  140.4530   71.8420  224.5410 N   0  0  0  0  0  0  0  0  0  0  0  0
  139.5720   73.9910  223.0620 H   0  0  0  0  0  0  0  0  0  0  0  0
  140.2385   73.7002  220.0728 H   0  0  0  0  0  0  0  0  0  0  0  0
  139.0560   74.8725  220.7184 H   0  0  0  0  0  0  0  0  0  0  0  0
  143.4148   74.9183  218.9768 H   0  0  0  0  0  0  0  0  0  0  0  0
  141.9388   74.0029  218.9269 H   0  0  0  0  0  0  0  0  0  0  0  0
  142.5187   75.6018  216.8581 H   0  0  0  0  0  0  0  0  0  0  0  0
  140.8626   75.6683  217.4406 H   0  0  0  0  0  0  0  0  0  0  0  0
  143.0909   77.6457  217.7554 H   0  0  0  0  0  0  0  0  0  0  0  0
  141.3572   77.9498  217.8190 H   0  0  0  0  0  0  0  0  0  0  0  0
  143.2288   77.4332  220.0189 H   0  0  0  0  0  0  0  0  0  0  0  0
  141.5504   79.2004  219.9397 H   0  0  0  0  0  0  0  0  0  0  0  0
  140.2653   77.9352  220.0679 H   0  0  0  0  0  0  0  0  0  0  0  0
  142.1970   77.6360  222.2570 H   0  0  0  0  0  0  0  0  0  0  0  0
  141.9823   80.4106  223.1299 H   0  0  0  0  0  0  0  0  0  0  0  0
  140.2775   81.7572  224.3697 H   0  0  0  0  0  0  0  0  0  0  0  0
  137.1773   79.0293  223.2445 H   0  0  0  0  0  0  0  0  0  0  0  0
  138.8632   77.6880  222.0090 H   0  0  0  0  0  0  0  0  0  0  0  0
  139.0725   69.7326  222.3442 H   0  0  0  0  0  0  0  0  0  0  0  0
  138.7890   68.3515  224.3814 H   0  0  0  0  0  0  0  0  0  0  0  0
  139.1011   68.1123  226.7480 H   0  0  0  0  0  0  0  0  0  0  0  0
  140.9832   71.2914  228.9478 H   0  0  0  0  0  0  0  0  0  0  0  0
  141.2421   72.6367  226.8539 H   0  0  0  0  0  0  0  0  0  0  0  0
  1  2  2  0
  2  3  1  0
  3  4  1  0
  4  5  1  0
  5  6  2  0
  5  7  1  0
  7  8  1  0
  8  9  1  0
  9 10  1  0
 10 11  1  0
 11 12  1  0
 12 13  1  0
 13 14  1  0
 14 15  2  0
 15 16  1  0
 16 17  2  0
 17 18  1  0
 17 19  1  0
 19 20  2  0
  2 21  1  0
 21 22  2  0
 22 23  1  0
 23 24  2  0
 24 25  1  0
 25 26  2  0
 26 27  1  0
 26 28  1  0
 28 29  2  0
 29 30  1  0
 30 31  2  0
 11  7  1  0
 20 14  1  0
 31 21  1  0
 30 24  1  0
  3 32  1  0
  4 33  1  0
  4 34  1  0
  8 35  1  0
  8 36  1  0
  9 37  1  0
  9 38  1  0
 10 39  1  0
 10 40  1  0
 11 41  1  6
 12 42  1  0
 12 43  1  0
 13 44  1  0
 15 45  1  0
 16 46  1  0
 19 47  1  0
 20 48  1  0
 22 49  1  0
 23 50  1  0
 25 51  1  0
 28 52  1  0
 29 53  1  0
M  END
>  <smiles>  (5) 
O=C(NCC(=O)N1CCC[C@H]1CNc1ccc(Cl)cc1)c1ccc2cc(F)ccc2n1

>  <score_type>  (5) 
oracle

>  <origin>  (5) 
autodockgpu

>  <m_score__min__energy>  (5) 
-9

>  <m_primary>  (5) 
energy

>  <rmsd>  (5) 
2.181522305560332

>  <m_score__min__rmsd>  (5) 
2.181522305560332

>  <meeko>  (5) 
{"free_energy": -8.5, "intermolecular_energy": -10.59, "internal_energy": -2.24, "cluster_size": 7, "cluster_id": 3, "rank_in_cluster": 2}

>  <energy>  (5) 
-8.41

>  <cluster_rmsd>  (5) 
1.99

>  <cluster>  (5) 
1

$$$$

     RDKit          3D

 53 56  0  0  0  0  0  0  0  0999 V2000
  137.9330   70.0750  221.9290 O   0  0  0  0  0  0  0  0  0  0  0  0
  138.5440   70.7410  222.8250 C   0  0  0  0  0  0  0  0  0  0  0  0
  138.7770   72.1400  222.7070 N   0  0  0  0  0  0  0  0  0  0  0  0
  138.3060   72.8690  221.5270 C   0  0  0  0  0  0  0  0  0  0  0  0
  139.1690   74.0920  221.3580 C   0  0  0  0  0  0  0  0  0  0  0  0
  140.0510   74.2490  222.2340 O   0  0  0  0  0  0  0  0  0  0  0  0
  138.9510   74.9690  220.2670 N   0  0  0  0  0  0  0  0  0  0  0  0
  139.0260   74.5520  218.8660 C   0  0  0  0  0  0  0  0  0  0  0  0
  137.7950   75.2070  218.3060 C   0  0  0  0  0  0  0  0  0  0  0  0
  137.7470   76.5370  218.9980 C   0  0  0  0  0  0  0  0  0  0  0  0
  138.6280   76.3660  220.2040 C   0  0  1  0  0  0  0  0  0  0  0  0
  137.9400   76.7990  221.4610 C   0  0  0  0  0  0  0  0  0  0  0  0
  138.8170   76.6220  222.6300 N   0  0  0  0  0  0  0  0  0  0  0  0
  139.6900   77.7270  222.9120 C   0  0  0  0  0  0  0  0  0  0  0  0
  141.0400   77.5690  222.7510 C   0  0  0  0  0  0  0  0  0  0  0  0
  141.8550   78.6700  223.0340 C   0  0  0  0  0  0  0  0  0  0  0  0
  141.3440   79.8710  223.4580 C   0  0  0  0  0  0  0  0  0  0  0  0
  142.3510   81.2630  223.8180 Cl  0  0  0  0  0  0  0  0  0  0  0  0
  139.9850   80.0140  223.6150 C   0  0  0  0  0  0  0  0  0  0  0  0
  139.1720   78.9300  223.3370 C   0  0  0  0  0  0  0  0  0  0  0  0
  139.0290   70.0400  224.0300 C   0  0  0  0  0  0  0  0  0  0  0  0
  138.8550   68.6670  224.1330 C   0  0  0  0  0  0  0  0  0  0  0  0
  139.2840   67.9570  225.2330 C   0  0  0  0  0  0  0  0  0  0  0  0
  139.9020   68.6490  226.2470 C   0  0  0  0  0  0  0  0  0  0  0  0
  140.3410   67.9820  227.3550 C   0  0  0  0  0  0  0  0  0  0  0  0
  140.9600   68.7010  228.3640 C   0  0  0  0  0  0  0  0  0  0  0  0
  141.4040   68.0690  229.4730 F   0  0  0  0  0  0  0  0  0  0  0  0
  141.1200   70.0690  228.2350 C   0  0  0  0  0  0  0  0  0  0  0  0
  140.6740   70.7570  227.1060 C   0  0  0  0  0  0  0  0  0  0  0  0
  140.0550   70.0160  226.1030 C   0  0  0  0  0  0  0  0  0  0  0  0
  139.6340   70.6980  225.0330 N   0  0  0  0  0  0  0  0  0  0  0  0
  139.2960   72.6460  223.4860 H   0  0  0  0  0  0  0  0  0  0  0  0
  138.3875   72.2290  220.6361 H   0  0  0  0  0  0  0  0  0  0  0  0
  137.2528   73.1600  221.6537 H   0  0  0  0  0  0  0  0  0  0  0  0
  139.9393   74.9271  218.3811 H   0  0  0  0  0  0  0  0  0  0  0  0
  139.0672   73.4627  218.7185 H   0  0  0  0  0  0  0  0  0  0  0  0
  137.8811   75.3354  217.2169 H   0  0  0  0  0  0  0  0  0  0  0  0
  136.8854   74.6106  218.4700 H   0  0  0  0  0  0  0  0  0  0  0  0
  138.1350   77.3306  218.3425 H   0  0  0  0  0  0  0  0  0  0  0  0
  136.7220   76.8316  219.2673 H   0  0  0  0  0  0  0  0  0  0  0  0
  139.5283   76.9917  220.1147 H   0  0  0  0  0  0  0  0  0  0  0  0
  137.6665   77.8609  221.3739 H   0  0  0  0  0  0  0  0  0  0  0  0
  137.0415   76.1799  221.5999 H   0  0  0  0  0  0  0  0  0  0  0  0
  138.8080   75.7650  223.2100 H   0  0  0  0  0  0  0  0  0  0  0  0
  141.4673   76.6136  222.4123 H   0  0  0  0  0  0  0  0  0  0  0  0
  142.9436   78.5697  222.9124 H   0  0  0  0  0  0  0  0  0  0  0  0
  139.5548   80.9680  223.9537 H   0  0  0  0  0  0  0  0  0  0  0  0
  138.0835   79.0316  223.4586 H   0  0  0  0  0  0  0  0  0  0  0  0
  138.3594   68.1292  223.3113 H   0  0  0  0  0  0  0  0  0  0  0  0
  139.1363   66.8689  225.2978 H   0  0  0  0  0  0  0  0  0  0  0  0
  140.2055   66.8940  227.4444 H   0  0  0  0  0  0  0  0  0  0  0  0
  141.6118   70.6292  229.0439 H   0  0  0  0  0  0  0  0  0  0  0  0
  140.8066   71.8449  227.0119 H   0  0  0  0  0  0  0  0  0  0  0  0
  1  2  2  0
  2  3  1  0
  3  4  1  0
  4  5  1  0
  5  6  2  0
  5  7  1  0
  7  8  1  0
  8  9  1  0
  9 10  1  0
 10 11  1  0
 11 12  1  0
 12 13  1  0
 13 14  1  0
 14 15  2  0
 15 16  1  0
 16 17  2  0
 17 18  1  0
 17 19  1  0
 19 20  2  0
  2 21  1  0
 21 22  2  0
 22 23  1  0
 23 24  2  0
 24 25  1  0
 25 26  2  0
 26 27  1  0
 26 28  1  0
 28 29  2  0
 29 30  1  0
 30 31  2  0
 11  7  1  0
 20 14  1  0
 31 21  1  0
 30 24  1  0
  3 32  1  0
  4 33  1  0
  4 34  1  0
  8 35  1  0
  8 36  1  0
  9 37  1  0
  9 38  1  0
 10 39  1  0
 10 40  1  0
 11 41  1  6
 12 42  1  0
 12 43  1  0
 13 44  1  0
 15 45  1  0
 16 46  1  0
 19 47  1  0
 20 48  1  0
 22 49  1  0
 23 50  1  0
 25 51  1  0
 28 52  1  0
 29 53  1  0
M  END
>  <smiles>  (6) 
O=C(NCC(=O)N1CCC[C@H]1CNc1ccc(Cl)cc1)c1ccc2cc(F)ccc2n1

>  <score_type>  (6) 
oracle

>  <origin>  (6) 
autodockgpu

>  <m_score__min__energy>  (6) 
-9

>  <m_primary>  (6) 
energy

>  <rmsd>  (6) 
2.302535098758526

>  <m_score__min__rmsd>  (6) 
2.302535098758526

>  <meeko>  (6) 
{"free_energy": -8.17, "intermolecular_energy": -10.26, "internal_energy": -2.76, "cluster_size": 20, "cluster_id": 1, "rank_in_cluster": 9}

>  <energy>  (6) 
-8.28

>  <cluster_rmsd>  (6) 
1.71

>  <cluster>  (6) 
1

$$$$

     RDKit          3D

 53 56  0  0  0  0  0  0  0  0999 V2000
  139.6710   70.9250  221.0410 O   0  0  0  0  0  0  0  0  0  0  0  0
  139.9420   71.5380  222.1230 C   0  0  0  0  0  0  0  0  0  0  0  0
  140.3200   72.9090  222.1470 N   0  0  0  0  0  0  0  0  0  0  0  0
  140.4060   73.6730  220.9010 C   0  0  0  0  0  0  0  0  0  0  0  0
  141.1740   74.9370  221.1800 C   0  0  0  0  0  0  0  0  0  0  0  0
  141.0410   75.4000  222.3360 O   0  0  0  0  0  0  0  0  0  0  0  0
  141.9740   75.5210  220.1650 N   0  0  0  0  0  0  0  0  0  0  0  0
  142.6120   74.7510  219.0960 C   0  0  0  0  0  0  0  0  0  0  0  0
  142.2930   75.6040  217.9000 C   0  0  0  0  0  0  0  0  0  0  0  0
  142.4400   77.0080  218.4080 C   0  0  0  0  0  0  0  0  0  0  0  0
  142.3570   76.8780  219.9030 C   0  0  1  0  0  0  0  0  0  0  0  0
  141.3570   77.8250  220.4880 C   0  0  0  0  0  0  0  0  0  0  0  0
  141.4460   77.8450  221.9580 N   0  0  0  0  0  0  0  0  0  0  0  0
  140.5150   78.7190  222.6150 C   0  0  0  0  0  0  0  0  0  0  0  0
  140.9780   79.8570  223.2180 C   0  0  0  0  0  0  0  0  0  0  0  0
  140.0380   80.6810  223.8440 C   0  0  0  0  0  0  0  0  0  0  0  0
  138.6990   80.3820  223.8680 C   0  0  0  0  0  0  0  0  0  0  0  0
  137.5050   81.4040  224.6500 Cl  0  0  0  0  0  0  0  0  0  0  0  0
  138.2480   79.2340  223.2570 C   0  0  0  0  0  0  0  0  0  0  0  0
  139.1720   78.4130  222.6350 C   0  0  0  0  0  0  0  0  0  0  0  0
  139.8610   70.8010  223.4000 C   0  0  0  0  0  0  0  0  0  0  0  0
  139.2750   69.5430  223.4220 C   0  0  0  0  0  0  0  0  0  0  0  0
  139.1680   68.8070  224.5820 C   0  0  0  0  0  0  0  0  0  0  0  0
  139.6650   69.3540  225.7410 C   0  0  0  0  0  0  0  0  0  0  0  0
  139.5780   68.6570  226.9120 C   0  0  0  0  0  0  0  0  0  0  0  0
  140.0850   69.2290  228.0670 C   0  0  0  0  0  0  0  0  0  0  0  0
  140.0130   68.5640  229.2410 F   0  0  0  0  0  0  0  0  0  0  0  0
  140.6650   70.4840  228.0160 C   0  0  0  0  0  0  0  0  0  0  0  0
  140.7570   71.2020  226.8230 C   0  0  0  0  0  0  0  0  0  0  0  0
  140.2410   70.6090  225.6740 C   0  0  0  0  0  0  0  0  0  0  0  0
  140.3400   71.3170  224.5430 N   0  0  0  0  0  0  0  0  0  0  0  0
  140.5370   73.3700  223.0810 H   0  0  0  0  0  0  0  0  0  0  0  0
  140.9285   73.0805  220.1356 H   0  0  0  0  0  0  0  0  0  0  0  0
  139.3984   73.9130  220.5307 H   0  0  0  0  0  0  0  0  0  0  0  0
  143.6973   74.6644  219.2527 H   0  0  0  0  0  0  0  0  0  0  0  0
  142.2647   73.7103  219.0169 H   0  0  0  0  0  0  0  0  0  0  0  0
  142.9999   75.4085  217.0802 H   0  0  0  0  0  0  0  0  0  0  0  0
  141.2916   75.4036  217.4912 H   0  0  0  0  0  0  0  0  0  0  0  0
  143.4102   77.4305  218.1078 H   0  0  0  0  0  0  0  0  0  0  0  0
  141.6705   77.6819  218.0034 H   0  0  0  0  0  0  0  0  0  0  0  0
  143.3235   77.1271  220.3654 H   0  0  0  0  0  0  0  0  0  0  0  0
  141.5510   78.8366  220.1021 H   0  0  0  0  0  0  0  0  0  0  0  0
  140.3488   77.4904  220.2025 H   0  0  0  0  0  0  0  0  0  0  0  0
  142.1280   77.2710  222.4830 H   0  0  0  0  0  0  0  0  0  0  0  0
  142.0477   80.1133  223.2104 H   0  0  0  0  0  0  0  0  0  0  0  0
  140.3843   81.6024  224.3351 H   0  0  0  0  0  0  0  0  0  0  0  0
  137.1788   78.9755  223.2630 H   0  0  0  0  0  0  0  0  0  0  0  0
  138.8251   77.4920  222.1437 H   0  0  0  0  0  0  0  0  0  0  0  0
  138.8840   69.1206  222.4846 H   0  0  0  0  0  0  0  0  0  0  0  0
  138.6991   67.8119  224.5806 H   0  0  0  0  0  0  0  0  0  0  0  0
  139.1140   67.6600  226.9375 H   0  0  0  0  0  0  0  0  0  0  0  0
  141.0641   70.9275  228.9401 H   0  0  0  0  0  0  0  0  0  0  0  0
  141.2200   72.1993  226.7916 H   0  0  0  0  0  0  0  0  0  0  0  0
  1  2  2  0
  2  3  1  0
  3  4  1  0
  4  5  1  0
  5  6  2  0
  5  7  1  0
  7  8  1  0
  8  9  1  0
  9 10  1  0
 10 11  1  0
 11 12  1  0
 12 13  1  0
 13 14  1  0
 14 15  2  0
 15 16  1  0
 16 17  2  0
 17 18  1  0
 17 19  1  0
 19 20  2  0
  2 21  1  0
 21 22  2  0
 22 23  1  0
 23 24  2  0
 24 25  1  0
 25 26  2  0
 26 27  1  0
 26 28  1  0
 28 29  2  0
 29 30  1  0
 30 31  2  0
 11  7  1  0
 20 14  1  0
 31 21  1  0
 30 24  1  0
  3 32  1  0
  4 33  1  0
  4 34  1  0
  8 35  1  0
  8 36  1  0
  9 37  1  0
  9 38  1  0
 10 39  1  0
 10 40  1  0
 11 41  1  1
 12 42  1  0
 12 43  1  0
 13 44  1  0
 15 45  1  0
 16 46  1  0
 19 47  1  0
 20 48  1  0
 22 49  1  0
 23 50  1  0
 25 51  1  0
 28 52  1  0
 29 53  1  0
M  END
>  <smiles>  (7) 
O=C(NCC(=O)N1CCC[C@H]1CNc1ccc(Cl)cc1)c1ccc2cc(F)ccc2n1

>  <score_type>  (7) 
oracle

>  <origin>  (7) 
autodockgpu

>  <m_score__min__energy>  (7) 
-9

>  <m_primary>  (7) 
energy

>  <rmsd>  (7) 
2.2530505872044264

>  <m_score__min__rmsd>  (7) 
2.2530505872044264

>  <meeko>  (7) 
{"free_energy": -8.12, "intermolecular_energy": -10.2, "internal_energy": -2.56, "cluster_size": 7, "cluster_id": 3, "rank_in_cluster": 4}

>  <energy>  (7) 
-8.26

>  <cluster_rmsd>  (7) 
1.7

>  <cluster>  (7) 
1

$$$$

     RDKit          3D

 53 56  0  0  0  0  0  0  0  0999 V2000
  135.9110   76.5170  221.8440 O   0  0  0  0  0  0  0  0  0  0  0  0
  137.0830   76.2700  222.2750 C   0  0  0  0  0  0  0  0  0  0  0  0
  137.5640   74.9430  222.4540 N   0  0  0  0  0  0  0  0  0  0  0  0
  136.7070   73.7980  222.1360 C   0  0  0  0  0  0  0  0  0  0  0  0
  137.5550   72.7530  221.4620 C   0  0  0  0  0  0  0  0  0  0  0  0
  136.9790   71.6640  221.2310 O   0  0  0  0  0  0  0  0  0  0  0  0
  138.9050   73.0350  221.1350 N   0  0  0  0  0  0  0  0  0  0  0  0
  139.3360   74.2680  220.4750 C   0  0  0  0  0  0  0  0  0  0  0  0
  140.5380   74.6310  221.3010 C   0  0  0  0  0  0  0  0  0  0  0  0
  141.1940   73.3110  221.5810 C   0  0  0  0  0  0  0  0  0  0  0  0
  140.1180   72.2940  221.3280 C   0  0  1  0  0  0  0  0  0  0  0  0
  139.9710   71.3430  222.4740 C   0  0  0  0  0  0  0  0  0  0  0  0
  140.0180   72.0560  223.7610 N   0  0  0  0  0  0  0  0  0  0  0  0
  140.2230   71.2250  224.9140 C   0  0  0  0  0  0  0  0  0  0  0  0
  140.8620   71.7450  226.0070 C   0  0  0  0  0  0  0  0  0  0  0  0
  141.0390   70.9020  227.1090 C   0  0  0  0  0  0  0  0  0  0  0  0
  140.6000   69.6020  227.1180 C   0  0  0  0  0  0  0  0  0  0  0  0
  140.8140   68.5300  228.4910 Cl  0  0  0  0  0  0  0  0  0  0  0  0
  139.9590   69.0940  226.0110 C   0  0  0  0  0  0  0  0  0  0  0  0
  139.7790   69.9210  224.9170 C   0  0  0  0  0  0  0  0  0  0  0  0
  137.9770   77.3990  222.6020 C   0  0  0  0  0  0  0  0  0  0  0  0
  137.4300   78.6560  222.8150 C   0  0  0  0  0  0  0  0  0  0  0  0
  138.2110   79.7500  223.1230 C   0  0  0  0  0  0  0  0  0  0  0  0
  139.5710   79.5660  223.2150 C   0  0  0  0  0  0  0  0  0  0  0  0
  140.3800   80.6240  223.5160 C   0  0  0  0  0  0  0  0  0  0  0  0
  141.7460   80.4140  223.6030 C   0  0  0  0  0  0  0  0  0  0  0  0
  142.5720   81.4420  223.8990 F   0  0  0  0  0  0  0  0  0  0  0  0
  142.2630   79.1490  223.3860 C   0  0  0  0  0  0  0  0  0  0  0  0
  141.4420   78.0640  223.0780 C   0  0  0  0  0  0  0  0  0  0  0  0
  140.0720   78.2960  222.9950 C   0  0  0  0  0  0  0  0  0  0  0  0
  139.3060   77.2410  222.6970 N   0  0  0  0  0  0  0  0  0  0  0  0
  138.5520   74.7950  222.8190 H   0  0  0  0  0  0  0  0  0  0  0  0
  136.2743   73.3879  223.0604 H   0  0  0  0  0  0  0  0  0  0  0  0
  135.8860   74.1086  221.4731 H   0  0  0  0  0  0  0  0  0  0  0  0
  139.6071   74.0900  219.4239 H   0  0  0  0  0  0  0  0  0  0  0  0
  138.5646   75.0508  220.4288 H   0  0  0  0  0  0  0  0  0  0  0  0
  141.2137   75.2927  220.7393 H   0  0  0  0  0  0  0  0  0  0  0  0
  140.2735   75.1769  222.2186 H   0  0  0  0  0  0  0  0  0  0  0  0
  142.0473   73.1501  220.9058 H   0  0  0  0  0  0  0  0  0  0  0  0
  141.5931   73.2514  222.6043 H   0  0  0  0  0  0  0  0  0  0  0  0
  140.3679   71.6809  220.4496 H   0  0  0  0  0  0  0  0  0  0  0  0
  139.0065   70.8212  222.3869 H   0  0  0  0  0  0  0  0  0  0  0  0
  140.8027   70.6239  222.4413 H   0  0  0  0  0  0  0  0  0  0  0  0
  139.9110   73.0830  223.8340 H   0  0  0  0  0  0  0  0  0  0  0  0
  141.2220   72.7844  226.0183 H   0  0  0  0  0  0  0  0  0  0  0  0
  141.5487   71.2955  228.0009 H   0  0  0  0  0  0  0  0  0  0  0  0
  139.5984   68.0549  225.9967 H   0  0  0  0  0  0  0  0  0  0  0  0
  139.2680   69.5271  224.0261 H   0  0  0  0  0  0  0  0  0  0  0  0
  136.3403   78.7839  222.7358 H   0  0  0  0  0  0  0  0  0  0  0  0
  137.7602   80.7394  223.2900 H   0  0  0  0  0  0  0  0  0  0  0  0
  139.9547   81.6241  223.6862 H   0  0  0  0  0  0  0  0  0  0  0  0
  143.3497   78.9949  223.4582 H   0  0  0  0  0  0  0  0  0  0  0  0
  141.8619   77.0618  222.9070 H   0  0  0  0  0  0  0  0  0  0  0  0
  1  2  2  0
  2  3  1  0
  3  4  1  0
  4  5  1  0
  5  6  2  0
  5  7  1  0
  7  8  1  0
  8  9  1  0
  9 10  1  0
 10 11  1  0
 11 12  1  0
 12 13  1  0
 13 14  1  0
 14 15  2  0
 15 16  1  0
 16 17  2  0
 17 18  1  0
 17 19  1  0
 19 20  2  0
  2 21  1  0
 21 22  2  0
 22 23  1  0
 23 24  2  0
 24 25  1  0
 25 26  2  0
 26 27  1  0
 26 28  1  0
 28 29  2  0
 29 30  1  0
 30 31  2  0
 11  7  1  0
 20 14  1  0
 31 21  1  0
 30 24  1  0
  3 32  1  0
  4 33  1  0
  4 34  1  0
  8 35  1  0
  8 36  1  0
  9 37  1  0
  9 38  1  0
 10 39  1  0
 10 40  1  0
 11 41  1  6
 12 42  1  0
 12 43  1  0
 13 44  1  0
 15 45  1  0
 16 46  1  0
 19 47  1  0
 20 48  1  0
 22 49  1  0
 23 50  1  0
 25 51  1  0
 28 52  1  0
 29 53  1  0
M  END
>  <smiles>  (8) 
O=C(NCC(=O)N1CCC[C@H]1CNc1ccc(Cl)cc1)c1ccc2cc(F)ccc2n1

>  <score_type>  (8) 
oracle

>  <origin>  (8) 
autodockgpu

>  <m_score__min__energy>  (8) 
-9

>  <m_primary>  (8) 
energy

>  <rmsd>  (8) 
8.465336504819389

>  <m_score__min__rmsd>  (8) 
8.465336504819389

>  <meeko>  (8) 
{"free_energy": -8.08, "intermolecular_energy": -10.17, "internal_energy": -1.91, "cluster_size": 12, "cluster_id": 2, "rank_in_cluster": 3}

>  <energy>  (8) 
-8.18

>  <cluster_rmsd>  (8) 
1.65

>  <cluster>  (8) 
1

$$$$

     RDKit          3D

 53 56  0  0  0  0  0  0  0  0999 V2000
  141.1420   72.2160  221.6500 O   0  0  0  0  0  0  0  0  0  0  0  0
  140.1940   72.3960  222.4800 C   0  0  0  0  0  0  0  0  0  0  0  0
  139.2340   73.4340  222.3260 N   0  0  0  0  0  0  0  0  0  0  0  0
  139.3090   74.3440  221.1800 C   0  0  0  0  0  0  0  0  0  0  0  0
  140.3920   75.3530  221.4550 C   0  0  0  0  0  0  0  0  0  0  0  0
  141.4460   74.8860  221.9450 O   0  0  0  0  0  0  0  0  0  0  0  0
  140.1780   76.7230  221.1600 N   0  0  0  0  0  0  0  0  0  0  0  0
  140.4490   77.8050  222.1060 C   0  0  0  0  0  0  0  0  0  0  0  0
  141.1610   78.7880  221.2210 C   0  0  0  0  0  0  0  0  0  0  0  0
  140.4230   78.7010  219.9180 C   0  0  0  0  0  0  0  0  0  0  0  0
  139.6910   77.3910  219.9870 C   0  0  1  0  0  0  0  0  0  0  0  0
  139.9330   76.5520  218.7710 C   0  0  0  0  0  0  0  0  0  0  0  0
  141.3110   76.7190  218.2810 N   0  0  0  0  0  0  0  0  0  0  0  0
  142.2800   75.8350  218.8680 C   0  0  0  0  0  0  0  0  0  0  0  0
  143.3480   76.3660  219.5400 C   0  0  0  0  0  0  0  0  0  0  0  0
  144.2660   75.4700  220.0980 C   0  0  0  0  0  0  0  0  0  0  0  0
  144.1230   74.1090  219.9870 C   0  0  0  0  0  0  0  0  0  0  0  0
  145.2660   72.9700  220.6800 Cl  0  0  0  0  0  0  0  0  0  0  0  0
  143.0450   73.5920  219.3090 C   0  0  0  0  0  0  0  0  0  0  0  0
  142.1310   74.4710  218.7540 C   0  0  0  0  0  0  0  0  0  0  0  0
  140.0840   71.4950  223.6450 C   0  0  0  0  0  0  0  0  0  0  0  0
  139.4310   70.2790  223.5030 C   0  0  0  0  0  0  0  0  0  0  0  0
  139.2940   69.3960  224.5520 C   0  0  0  0  0  0  0  0  0  0  0  0
  139.8300   69.7510  225.7680 C   0  0  0  0  0  0  0  0  0  0  0  0
  139.7150   68.9050  226.8330 C   0  0  0  0  0  0  0  0  0  0  0  0
  140.2610   69.2850  228.0480 C   0  0  0  0  0  0  0  0  0  0  0  0
  140.1630   68.4690  229.1200 F   0  0  0  0  0  0  0  0  0  0  0  0
  140.9070   70.5040  228.1610 C   0  0  0  0  0  0  0  0  0  0  0  0
  141.0280   71.3730  227.0760 C   0  0  0  0  0  0  0  0  0  0  0  0
  140.4710   70.9720  225.8640 C   0  0  0  0  0  0  0  0  0  0  0  0
  140.5990   71.8230  224.8410 N   0  0  0  0  0  0  0  0  0  0  0  0
  138.4630   73.5400  223.0520 H   0  0  0  0  0  0  0  0  0  0  0  0
  139.5501   73.7771  220.2687 H   0  0  0  0  0  0  0  0  0  0  0  0
  138.3441   74.8510  221.0318 H   0  0  0  0  0  0  0  0  0  0  0  0
  139.5188   78.2280  222.5132 H   0  0  0  0  0  0  0  0  0  0  0  0
  141.0205   77.4980  222.9944 H   0  0  0  0  0  0  0  0  0  0  0  0
  141.1012   79.8043  221.6375 H   0  0  0  0  0  0  0  0  0  0  0  0
  142.2332   78.5657  221.1168 H   0  0  0  0  0  0  0  0  0  0  0  0
  139.7153   79.5369  219.8154 H   0  0  0  0  0  0  0  0  0  0  0  0
  141.0973   78.7582  219.0508 H   0  0  0  0  0  0  0  0  0  0  0  0
  138.6050   77.5601  220.0318 H   0  0  0  0  0  0  0  0  0  0  0  0
  139.7670   75.4946  219.0246 H   0  0  0  0  0  0  0  0  0  0  0  0
  139.2385   76.8721  217.9803 H   0  0  0  0  0  0  0  0  0  0  0  0
  141.5690   77.4210  217.5660 H   0  0  0  0  0  0  0  0  0  0  0  0
  143.4791   77.4538  219.6373 H   0  0  0  0  0  0  0  0  0  0  0  0
  145.1327   75.8698  220.6448 H   0  0  0  0  0  0  0  0  0  0  0  0
  142.9116   72.5046  219.2097 H   0  0  0  0  0  0  0  0  0  0  0  0
  141.2642   74.0698  218.2084 H   0  0  0  0  0  0  0  0  0  0  0  0
  139.0096   70.0116  222.5227 H   0  0  0  0  0  0  0  0  0  0  0  0
  138.7720   68.4367  224.4209 H   0  0  0  0  0  0  0  0  0  0  0  0
  139.1984   67.9395  226.7283 H   0  0  0  0  0  0  0  0  0  0  0  0
  141.3360   70.7952  229.1311 H   0  0  0  0  0  0  0  0  0  0  0  0
  141.5443   72.3393  227.1743 H   0  0  0  0  0  0  0  0  0  0  0  0
  1  2  2  0
  2  3  1  0
  3  4  1  0
  4  5  1  0
  5  6  2  0
  5  7  1  0
  7  8  1  0
  8  9  1  0
  9 10  1  0
 10 11  1  0
 11 12  1  0
 12 13  1  0
 13 14  1  0
 14 15  2  0
 15 16  1  0
 16 17  2  0
 17 18  1  0
 17 19  1  0
 19 20  2  0
  2 21  1  0
 21 22  2  0
 22 23  1  0
 23 24  2  0
 24 25  1  0
 25 26  2  0
 26 27  1  0
 26 28  1  0
 28 29  2  0
 29 30  1  0
 30 31  2  0
 11  7  1  0
 20 14  1  0
 31 21  1  0
 30 24  1  0
  3 32  1  0
  4 33  1  0
  4 34  1  0
  8 35  1  0
  8 36  1  0
  9 37  1  0
  9 38  1  0
 10 39  1  0
 10 40  1  0
 11 41  1  1
 12 42  1  0
 12 43  1  0
 13 44  1  0
 15 45  1  0
 16 46  1  0
 19 47  1  0
 20 48  1  0
 22 49  1  0
 23 50  1  0
 25 51  1  0
 28 52  1  0
 29 53  1  0
M  END
>  <smiles>  (9) 
O=C(NCC(=O)N1CCC[C@H]1CNc1ccc(Cl)cc1)c1ccc2cc(F)ccc2n1

>  <score_type>  (9) 
oracle

>  <origin>  (9) 
autodockgpu

>  <m_score__min__energy>  (9) 
-9

>  <m_primary>  (9) 
energy

>  <rmsd>  (9) 
3.8415195473964276

>  <m_score__min__rmsd>  (9) 
3.8415195473964276

>  <meeko>  (9) 
{"free_energy": -7.84, "intermolecular_energy": -9.93, "internal_energy": -2.15, "cluster_size": 1, "cluster_id": 6, "rank_in_cluster": 1}

>  <energy>  (9) 
-8.17

>  <cluster_rmsd>  (9) 
1.47

>  <cluster>  (9) 
1

$$$$

     RDKit          3D

 53 56  0  0  0  0  0  0  0  0999 V2000
  137.9060   70.7250  222.0470 O   0  0  0  0  0  0  0  0  0  0  0  0
  138.7160   71.2090  222.9010 C   0  0  0  0  0  0  0  0  0  0  0  0
  139.2430   72.5260  222.7890 N   0  0  0  0  0  0  0  0  0  0  0  0
  138.8560   73.3830  221.6660 C   0  0  0  0  0  0  0  0  0  0  0  0
  139.4170   74.7580  221.9120 C   0  0  0  0  0  0  0  0  0  0  0  0
  140.6210   74.7910  222.2570 O   0  0  0  0  0  0  0  0  0  0  0  0
  138.5940   75.9000  221.7510 N   0  0  0  0  0  0  0  0  0  0  0  0
  137.1470   75.8300  221.5400 C   0  0  0  0  0  0  0  0  0  0  0  0
  136.6680   76.8930  222.4880 C   0  0  0  0  0  0  0  0  0  0  0  0
  137.6910   77.9820  222.3570 C   0  0  0  0  0  0  0  0  0  0  0  0
  138.8850   77.3050  221.7450 C   0  0  1  0  0  0  0  0  0  0  0  0
  140.1370   77.5800  222.5180 C   0  0  0  0  0  0  0  0  0  0  0  0
  141.3320   77.3170  221.6990 N   0  0  0  0  0  0  0  0  0  0  0  0
  141.6240   78.3140  220.7070 C   0  0  0  0  0  0  0  0  0  0  0  0
  141.5180   79.6380  221.0390 C   0  0  0  0  0  0  0  0  0  0  0  0
  141.8140   80.5760  220.0440 C   0  0  0  0  0  0  0  0  0  0  0  0
  142.1960   80.2080  218.7780 C   0  0  0  0  0  0  0  0  0  0  0  0
  142.5700   81.3710  217.5180 Cl  0  0  0  0  0  0  0  0  0  0  0  0
  142.2970   78.8740  218.4600 C   0  0  0  0  0  0  0  0  0  0  0  0
  142.0070   77.9390  219.4380 C   0  0  0  0  0  0  0  0  0  0  0  0
  139.1260   70.3760  224.0490 C   0  0  0  0  0  0  0  0  0  0  0  0
  138.8800   69.0100  224.0180 C   0  0  0  0  0  0  0  0  0  0  0  0
  139.2370   68.1800  225.0580 C   0  0  0  0  0  0  0  0  0  0  0  0
  139.8540   68.7430  226.1510 C   0  0  0  0  0  0  0  0  0  0  0  0
  140.2220   67.9550  227.2030 C   0  0  0  0  0  0  0  0  0  0  0  0
  140.8420   68.5450  228.2920 C   0  0  0  0  0  0  0  0  0  0  0  0
  141.2170   67.7910  229.3490 F   0  0  0  0  0  0  0  0  0  0  0  0
  141.0740   69.9090  228.2960 C   0  0  0  0  0  0  0  0  0  0  0  0
  140.7000   70.7200  227.2240 C   0  0  0  0  0  0  0  0  0  0  0  0
  140.0790   70.1070  226.1390 C   0  0  0  0  0  0  0  0  0  0  0  0
  139.7290   70.9060  225.1250 N   0  0  0  0  0  0  0  0  0  0  0  0
  139.9190   72.8780  223.5320 H   0  0  0  0  0  0  0  0  0  0  0  0
  139.2636   72.9762  220.7288 H   0  0  0  0  0  0  0  0  0  0  0  0
  137.7602   73.4281  221.5810 H   0  0  0  0  0  0  0  0  0  0  0  0
  136.8785   76.0656  220.4996 H   0  0  0  0  0  0  0  0  0  0  0  0
  136.7105   74.8356  221.7152 H   0  0  0  0  0  0  0  0  0  0  0  0
  135.6710   77.2558  222.1976 H   0  0  0  0  0  0  0  0  0  0  0  0
  136.5687   76.5267  223.5205 H   0  0  0  0  0  0  0  0  0  0  0  0
  137.3219   78.7855  221.7027 H   0  0  0  0  0  0  0  0  0  0  0  0
  137.9266   78.4530  223.3228 H   0  0  0  0  0  0  0  0  0  0  0  0
  139.0615   77.6834  220.7273 H   0  0  0  0  0  0  0  0  0  0  0  0
  140.1413   78.6341  222.8323 H   0  0  0  0  0  0  0  0  0  0  0  0
  140.1602   76.9160  223.3947 H   0  0  0  0  0  0  0  0  0  0  0  0
  141.9220   76.4770  221.8250 H   0  0  0  0  0  0  0  0  0  0  0  0
  141.2123   79.9518  222.0480 H   0  0  0  0  0  0  0  0  0  0  0  0
  141.7379   81.6466  220.2849 H   0  0  0  0  0  0  0  0  0  0  0  0
  142.6013   78.5574  217.4514 H   0  0  0  0  0  0  0  0  0  0  0  0
  142.0843   76.8688  219.1959 H   0  0  0  0  0  0  0  0  0  0  0  0
  138.3850   68.5772  223.1362 H   0  0  0  0  0  0  0  0  0  0  0  0
  139.0347   67.0996  225.0157 H   0  0  0  0  0  0  0  0  0  0  0  0
  140.0298   66.8720  227.1863 H   0  0  0  0  0  0  0  0  0  0  0  0
  141.5662   70.3660  229.1671 H   0  0  0  0  0  0  0  0  0  0  0  0
  140.8888   71.8036  227.2356 H   0  0  0  0  0  0  0  0  0  0  0  0
  1  2  2  0
  2  3  1  0
  3  4  1  0
  4  5  1  0
  5  6  2  0
  5  7  1  0
  7  8  1  0
  8  9  1  0
  9 10  1  0
 10 11  1  0
 11 12  1  0
 12 13  1  0
 13 14  1  0
 14 15  2  0
 15 16  1  0
 16 17  2  0
 17 18  1  0
 17 19  1  0
 19 20  2  0
  2 21  1  0
 21 22  2  0
 22 23  1  0
 23 24  2  0
 24 25  1  0
 25 26  2  0
 26 27  1  0
 26 28  1  0
 28 29  2  0
 29 30  1  0
 30 31  2  0
 11  7  1  0
 20 14  1  0
 31 21  1  0
 30 24  1  0
  3 32  1  0
  4 33  1  0
  4 34  1  0
  8 35  1  0
  8 36  1  0
  9 37  1  0
  9 38  1  0
 10 39  1  0
 10 40  1  0
 11 41  1  6
 12 42  1  0
 12 43  1  0
 13 44  1  0
 15 45  1  0
 16 46  1  0
 19 47  1  0
 20 48  1  0
 22 49  1  0
 23 50  1  0
 25 51  1  0
 28 52  1  0
 29 53  1  0
M  END
>  <smiles>  (10) 
O=C(NCC(=O)N1CCC[C@H]1CNc1ccc(Cl)cc1)c1ccc2cc(F)ccc2n1

>  <score_type>  (10) 
oracle

>  <origin>  (10) 
autodockgpu

>  <m_score__min__energy>  (10) 
-9

>  <m_primary>  (10) 
energy

>  <rmsd>  (10) 
2.814389681338908

>  <m_score__min__rmsd>  (10) 
2.814389681338908

>  <meeko>  (10) 
{"free_energy": -8.26, "intermolecular_energy": -10.35, "internal_energy": -2.49, "cluster_size": 20, "cluster_id": 1, "rank_in_cluster": 7}

>  <energy>  (10) 
-8.17

>  <cluster_rmsd>  (10) 
1.7

>  <cluster>  (10) 
1

$$$$

     RDKit          3D

 53 56  0  0  0  0  0  0  0  0999 V2000
  140.0710   70.9870  220.8400 O   0  0  0  0  0  0  0  0  0  0  0  0
  140.4180   71.5960  221.9020 C   0  0  0  0  0  0  0  0  0  0  0  0
  141.0520   72.8690  221.8770 N   0  0  0  0  0  0  0  0  0  0  0  0
  141.3280   73.5310  220.6000 C   0  0  0  0  0  0  0  0  0  0  0  0
  141.6850   74.9650  220.8840 C   0  0  0  0  0  0  0  0  0  0  0  0
  141.3520   75.3860  222.0160 O   0  0  0  0  0  0  0  0  0  0  0  0
  142.3520   75.7390  219.9010 N   0  0  0  0  0  0  0  0  0  0  0  0
  143.1080   75.1580  218.7910 C   0  0  0  0  0  0  0  0  0  0  0  0
  142.6240   75.9980  217.6430 C   0  0  0  0  0  0  0  0  0  0  0  0
  142.5150   77.3770  218.2250 C   0  0  0  0  0  0  0  0  0  0  0  0
  142.4750   77.1560  219.7110 C   0  0  1  0  0  0  0  0  0  0  0  0
  141.3240   77.8690  220.3490 C   0  0  0  0  0  0  0  0  0  0  0  0
  141.4600   77.8850  221.8140 N   0  0  0  0  0  0  0  0  0  0  0  0
  140.4970   78.6930  222.5090 C   0  0  0  0  0  0  0  0  0  0  0  0
  139.1830   78.3100  222.5140 C   0  0  0  0  0  0  0  0  0  0  0  0
  138.2790   79.1240  223.2040 C   0  0  0  0  0  0  0  0  0  0  0  0
  138.6690   80.2660  223.8570 C   0  0  0  0  0  0  0  0  0  0  0  0
  137.5490   81.3000  224.7270 Cl  0  0  0  0  0  0  0  0  0  0  0  0
  139.9940   80.6380  223.8420 C   0  0  0  0  0  0  0  0  0  0  0  0
  140.8950   79.8380  223.1630 C   0  0  0  0  0  0  0  0  0  0  0  0
  140.1520   70.9620  223.2090 C   0  0  0  0  0  0  0  0  0  0  0  0
  139.4170   69.7850  223.2540 C   0  0  0  0  0  0  0  0  0  0  0  0
  139.1350   69.1460  224.4420 C   0  0  0  0  0  0  0  0  0  0  0  0
  139.6050   69.7090  225.6060 C   0  0  0  0  0  0  0  0  0  0  0  0
  139.3460   69.1070  226.8040 C   0  0  0  0  0  0  0  0  0  0  0  0
  139.8290   69.6930  227.9620 C   0  0  0  0  0  0  0  0  0  0  0  0
  139.5880   69.1220  229.1620 F   0  0  0  0  0  0  0  0  0  0  0  0
  140.5580   70.8670  227.8860 C   0  0  0  0  0  0  0  0  0  0  0  0
  140.8270   71.4870  226.6650 C   0  0  0  0  0  0  0  0  0  0  0  0
  140.3320   70.8810  225.5140 C   0  0  0  0  0  0  0  0  0  0  0  0
  140.6010   71.4950  224.3560 N   0  0  0  0  0  0  0  0  0  0  0  0
  141.3220   73.3320  222.7960 H   0  0  0  0  0  0  0  0  0  0  0  0
  142.1674   73.0309  220.0946 H   0  0  0  0  0  0  0  0  0  0  0  0
  140.4449   73.4806  219.9461 H   0  0  0  0  0  0  0  0  0  0  0  0
  144.1924   75.2654  218.9410 H   0  0  0  0  0  0  0  0  0  0  0  0
  142.9571   74.0767  218.6567 H   0  0  0  0  0  0  0  0  0  0  0  0
  143.3457   75.9795  216.8130 H   0  0  0  0  0  0  0  0  0  0  0  0
  141.6723   75.6375  217.2255 H   0  0  0  0  0  0  0  0  0  0  0  0
  143.3869   77.9869  217.9459 H   0  0  0  0  0  0  0  0  0  0  0  0
  141.6296   77.9170  217.8584 H   0  0  0  0  0  0  0  0  0  0  0  0
  143.3844   77.5558  220.1833 H   0  0  0  0  0  0  0  0  0  0  0  0
  141.2929   78.9046  219.9793 H   0  0  0  0  0  0  0  0  0  0  0  0
  140.3959   77.3388  220.0891 H   0  0  0  0  0  0  0  0  0  0  0  0
  142.1940   77.3530  222.3130 H   0  0  0  0  0  0  0  0  0  0  0  0
  138.8512   77.3982  221.9959 H   0  0  0  0  0  0  0  0  0  0  0  0
  137.2169   78.8384  223.2239 H   0  0  0  0  0  0  0  0  0  0  0  0
  140.3285   81.5501  224.3579 H   0  0  0  0  0  0  0  0  0  0  0  0
  141.9571   80.1236  223.1448 H   0  0  0  0  0  0  0  0  0  0  0  0
  139.0488   69.3495  222.3134 H   0  0  0  0  0  0  0  0  0  0  0  0
  138.5515   68.2137  224.4591 H   0  0  0  0  0  0  0  0  0  0  0  0
  138.7647   68.1742  226.8484 H   0  0  0  0  0  0  0  0  0  0  0  0
  140.9355   71.3236  228.8128 H   0  0  0  0  0  0  0  0  0  0  0  0
  141.4083   72.4195  226.6142 H   0  0  0  0  0  0  0  0  0  0  0  0
  1  2  2  0
  2  3  1  0
  3  4  1  0
  4  5  1  0
  5  6  2  0
  5  7  1  0
  7  8  1  0
  8  9  1  0
  9 10  1  0
 10 11  1  0
 11 12  1  0
 12 13  1  0
 13 14  1  0
 14 15  2  0
 15 16  1  0
 16 17  2  0
 17 18  1  0
 17 19  1  0
 19 20  2  0
  2 21  1  0
 21 22  2  0
 22 23  1  0
 23 24  2  0
 24 25  1  0
 25 26  2  0
 26 27  1  0
 26 28  1  0
 28 29  2  0
 29 30  1  0
 30 31  2  0
 11  7  1  0
 20 14  1  0
 31 21  1  0
 30 24  1  0
  3 32  1  0
  4 33  1  0
  4 34  1  0
  8 35  1  0
  8 36  1  0
  9 37  1  0
  9 38  1  0
 10 39  1  0
 10 40  1  0
 11 41  1  1
 12 42  1  0
 12 43  1  0
 13 44  1  0
 15 45  1  0
 16 46  1  0
 19 47  1  0
 20 48  1  0
 22 49  1  0
 23 50  1  0
 25 51  1  0
 28 52  1  0
 29 53  1  0
M  END
>  <smiles>  (11) 
O=C(NCC(=O)N1CCC[C@H]1CNc1ccc(Cl)cc1)c1ccc2cc(F)ccc2n1

>  <score_type>  (11) 
oracle

>  <origin>  (11) 
autodockgpu

>  <m_score__min__energy>  (11) 
-9

>  <m_primary>  (11) 
energy

>  <rmsd>  (11) 
2.441442100711123

>  <m_score__min__rmsd>  (11) 
2.441442100711123

>  <meeko>  (11) 
{"free_energy": -8.0, "intermolecular_energy": -10.08, "internal_energy": -2.55, "cluster_size": 7, "cluster_id": 3, "rank_in_cluster": 6}

>  <energy>  (11) 
-8.14

>  <cluster_rmsd>  (11) 
1.41

>  <cluster>  (11) 
1

$$$$

     RDKit          3D

 53 56  0  0  0  0  0  0  0  0999 V2000
  139.5840   74.1770  222.6150 O   0  0  0  0  0  0  0  0  0  0  0  0
  139.3440   75.0540  221.7250 C   0  0  0  0  0  0  0  0  0  0  0  0
  138.4410   74.8210  220.6500 N   0  0  0  0  0  0  0  0  0  0  0  0
  137.7450   73.5370  220.5360 C   0  0  0  0  0  0  0  0  0  0  0  0
  138.6210   72.5990  219.7490 C   0  0  0  0  0  0  0  0  0  0  0  0
  138.1230   72.1690  218.6840 O   0  0  0  0  0  0  0  0  0  0  0  0
  139.9110   72.2610  220.2300 N   0  0  0  0  0  0  0  0  0  0  0  0
  141.1400   72.9160  219.7770 C   0  0  0  0  0  0  0  0  0  0  0  0
  141.8400   73.1460  221.0860 C   0  0  0  0  0  0  0  0  0  0  0  0
  141.5490   71.9040  221.8750 C   0  0  0  0  0  0  0  0  0  0  0  0
  140.3580   71.2940  221.1900 C   0  0  1  0  0  0  0  0  0  0  0  0
  139.2620   70.9760  222.1580 C   0  0  0  0  0  0  0  0  0  0  0  0
  139.4060   71.7610  223.3950 N   0  0  0  0  0  0  0  0  0  0  0  0
  139.7610   71.0030  224.5630 C   0  0  0  0  0  0  0  0  0  0  0  0
  140.6780   71.5160  225.4390 C   0  0  0  0  0  0  0  0  0  0  0  0
  140.9930   70.7470  226.5640 C   0  0  0  0  0  0  0  0  0  0  0  0
  140.4200   69.5230  226.8000 C   0  0  0  0  0  0  0  0  0  0  0  0
  140.8040   68.5440  228.2060 Cl  0  0  0  0  0  0  0  0  0  0  0  0
  139.5000   69.0200  225.9100 C   0  0  0  0  0  0  0  0  0  0  0  0
  139.1820   69.7750  224.7950 C   0  0  0  0  0  0  0  0  0  0  0  0
  140.0230   76.3630  221.8100 C   0  0  0  0  0  0  0  0  0  0  0  0
  141.0840   76.6320  220.9560 C   0  0  0  0  0  0  0  0  0  0  0  0
  141.7590   77.8330  220.9860 C   0  0  0  0  0  0  0  0  0  0  0  0
  141.3530   78.7780  221.8990 C   0  0  0  0  0  0  0  0  0  0  0  0
  141.9970   79.9810  221.9620 C   0  0  0  0  0  0  0  0  0  0  0  0
  141.5710   80.9170  222.8900 C   0  0  0  0  0  0  0  0  0  0  0  0
  142.1880   82.1150  222.9770 F   0  0  0  0  0  0  0  0  0  0  0  0
  140.5110   80.6210  223.7280 C   0  0  0  0  0  0  0  0  0  0  0  0
  139.8480   79.3940  223.6690 C   0  0  0  0  0  0  0  0  0  0  0  0
  140.2930   78.4670  222.7300 C   0  0  0  0  0  0  0  0  0  0  0  0
  139.6430   77.2990  222.6930 N   0  0  0  0  0  0  0  0  0  0  0  0
  138.2790   75.5910  219.9330 H   0  0  0  0  0  0  0  0  0  0  0  0
  137.5605   73.1225  221.5381 H   0  0  0  0  0  0  0  0  0  0  0  0
  136.7780   73.6711  220.0292 H   0  0  0  0  0  0  0  0  0  0  0  0
  141.7261   72.2619  219.1147 H   0  0  0  0  0  0  0  0  0  0  0  0
  140.9763   73.8276  219.1835 H   0  0  0  0  0  0  0  0  0  0  0  0
  142.9226   73.2685  220.9344 H   0  0  0  0  0  0  0  0  0  0  0  0
  141.4992   74.0603  221.5939 H   0  0  0  0  0  0  0  0  0  0  0  0
  142.4072   71.2164  221.8485 H   0  0  0  0  0  0  0  0  0  0  0  0
  141.3569   72.1181  222.9367 H   0  0  0  0  0  0  0  0  0  0  0  0
  140.6345   70.3414  220.7145 H   0  0  0  0  0  0  0  0  0  0  0  0
  138.2928   71.2108  221.6938 H   0  0  0  0  0  0  0  0  0  0  0  0
  139.3187   69.9074  222.4127 H   0  0  0  0  0  0  0  0  0  0  0  0
  139.2630   72.7850  223.4260 H   0  0  0  0  0  0  0  0  0  0  0  0
  141.1491   72.4948  225.2654 H   0  0  0  0  0  0  0  0  0  0  0  0
  141.7262   71.1374  227.2851 H   0  0  0  0  0  0  0  0  0  0  0  0
  139.0283   68.0410  226.0805 H   0  0  0  0  0  0  0  0  0  0  0  0
  138.4477   69.3844  224.0751 H   0  0  0  0  0  0  0  0  0  0  0  0
  141.3953   75.8632  220.2335 H   0  0  0  0  0  0  0  0  0  0  0  0
  142.5967   78.0298  220.3008 H   0  0  0  0  0  0  0  0  0  0  0  0
  142.8381   80.2023  221.2885 H   0  0  0  0  0  0  0  0  0  0  0  0
  140.1817   81.3727  224.4605 H   0  0  0  0  0  0  0  0  0  0  0  0
  139.0056   79.1678  224.3392 H   0  0  0  0  0  0  0  0  0  0  0  0
  1  2  2  0
  2  3  1  0
  3  4  1  0
  4  5  1  0
  5  6  2  0
  5  7  1  0
  7  8  1  0
  8  9  1  0
  9 10  1  0
 10 11  1  0
 11 12  1  0
 12 13  1  0
 13 14  1  0
 14 15  2  0
 15 16  1  0
 16 17  2  0
 17 18  1  0
 17 19  1  0
 19 20  2  0
  2 21  1  0
 21 22  2  0
 22 23  1  0
 23 24  2  0
 24 25  1  0
 25 26  2  0
 26 27  1  0
 26 28  1  0
 28 29  2  0
 29 30  1  0
 30 31  2  0
 11  7  1  0
 20 14  1  0
 31 21  1  0
 30 24  1  0
  3 32  1  0
  4 33  1  0
  4 34  1  0
  8 35  1  0
  8 36  1  0
  9 37  1  0
  9 38  1  0
 10 39  1  0
 10 40  1  0
 11 41  1  6
 12 42  1  0
 12 43  1  0
 13 44  1  0
 15 45  1  0
 16 46  1  0
 19 47  1  0
 20 48  1  0
 22 49  1  0
 23 50  1  0
 25 51  1  0
 28 52  1  0
 29 53  1  0
M  END
>  <smiles>  (12) 
O=C(NCC(=O)N1CCC[C@H]1CNc1ccc(Cl)cc1)c1ccc2cc(F)ccc2n1

>  <score_type>  (12) 
oracle

>  <origin>  (12) 
autodockgpu

>  <m_score__min__energy>  (12) 
-9

>  <m_primary>  (12) 
energy

>  <rmsd>  (12) 
8.569875213489235

>  <m_score__min__rmsd>  (12) 
8.569875213489235

>  <meeko>  (12) 
{"free_energy": -7.56, "intermolecular_energy": -9.65, "internal_energy": -2.5, "cluster_size": 12, "cluster_id": 2, "rank_in_cluster": 10}

>  <energy>  (12) 
-7.99

>  <cluster_rmsd>  (12) 
1.74

>  <cluster>  (12) 
1

$$$$

     RDKit          3D

 53 56  0  0  0  0  0  0  0  0999 V2000
  140.6980   71.5360  221.1510 O   0  0  0  0  0  0  0  0  0  0  0  0
  140.2760   72.0750  222.2240 C   0  0  0  0  0  0  0  0  0  0  0  0
  139.9140   73.4490  222.2930 N   0  0  0  0  0  0  0  0  0  0  0  0
  140.0160   74.3000  221.1060 C   0  0  0  0  0  0  0  0  0  0  0  0
  141.1550   75.2610  221.3160 C   0  0  0  0  0  0  0  0  0  0  0  0
  141.0660   75.9830  222.3360 O   0  0  0  0  0  0  0  0  0  0  0  0
  142.2280   75.3040  220.3910 N   0  0  0  0  0  0  0  0  0  0  0  0
  142.8550   74.1090  219.8240 C   0  0  0  0  0  0  0  0  0  0  0  0
  142.9460   74.4920  218.3740 C   0  0  0  0  0  0  0  0  0  0  0  0
  143.3100   75.9470  218.4070 C   0  0  0  0  0  0  0  0  0  0  0  0
  142.9430   76.3960  219.7940 C   0  0  1  0  0  0  0  0  0  0  0  0
  142.0910   77.6260  219.7720 C   0  0  0  0  0  0  0  0  0  0  0  0
  142.0510   78.2630  221.0990 N   0  0  0  0  0  0  0  0  0  0  0  0
  141.7150   79.6600  221.0970 C   0  0  0  0  0  0  0  0  0  0  0  0
  141.4980   80.2920  219.9030 C   0  0  0  0  0  0  0  0  0  0  0  0
  141.1710   81.6520  219.9460 C   0  0  0  0  0  0  0  0  0  0  0  0
  141.0690   82.3450  221.1260 C   0  0  0  0  0  0  0  0  0  0  0  0
  140.6610   84.0510  221.1990 Cl  0  0  0  0  0  0  0  0  0  0  0  0
  141.2900   81.6950  222.3180 C   0  0  0  0  0  0  0  0  0  0  0  0
  141.6130   80.3500  222.2840 C   0  0  0  0  0  0  0  0  0  0  0  0
  140.1560   71.2470  223.4400 C   0  0  0  0  0  0  0  0  0  0  0  0
  139.5610   69.9960  223.3530 C   0  0  0  0  0  0  0  0  0  0  0  0
  139.4180   69.1770  224.4520 C   0  0  0  0  0  0  0  0  0  0  0  0
  139.8870   69.6330  225.6620 C   0  0  0  0  0  0  0  0  0  0  0  0
  139.7640   68.8520  226.7750 C   0  0  0  0  0  0  0  0  0  0  0  0
  140.2430   69.3330  227.9820 C   0  0  0  0  0  0  0  0  0  0  0  0
  140.1350   68.5840  229.1020 F   0  0  0  0  0  0  0  0  0  0  0  0
  140.8320   70.5840  228.0400 C   0  0  0  0  0  0  0  0  0  0  0  0
  140.9610   71.3870  226.9060 C   0  0  0  0  0  0  0  0  0  0  0  0
  140.4730   70.8850  225.7030 C   0  0  0  0  0  0  0  0  0  0  0  0
  140.6060   71.6730  224.6310 N   0  0  0  0  0  0  0  0  0  0  0  0
  139.5690   73.8480  223.2180 H   0  0  0  0  0  0  0  0  0  0  0  0
  140.2101   73.6800  220.2183 H   0  0  0  0  0  0  0  0  0  0  0  0
  139.0766   74.8507  220.9501 H   0  0  0  0  0  0  0  0  0  0  0  0
  143.8500   73.9307  220.2577 H   0  0  0  0  0  0  0  0  0  0  0  0
  142.3040   73.1757  220.0123 H   0  0  0  0  0  0  0  0  0  0  0  0
  143.7235   73.9056  217.8624 H   0  0  0  0  0  0  0  0  0  0  0  0
  142.0119   74.3008  217.8254 H   0  0  0  0  0  0  0  0  0  0  0  0
  144.3866   76.0825  218.2267 H   0  0  0  0  0  0  0  0  0  0  0  0
  142.7904   76.5257  217.6291 H   0  0  0  0  0  0  0  0  0  0  0  0
  143.8459   76.6565  220.3657 H   0  0  0  0  0  0  0  0  0  0  0  0
  142.5057   78.3381  219.0433 H   0  0  0  0  0  0  0  0  0  0  0  0
  141.0674   77.3387  219.4897 H   0  0  0  0  0  0  0  0  0  0  0  0
  142.2490   77.7460  221.9730 H   0  0  0  0  0  0  0  0  0  0  0  0
  141.5774   79.7527  218.9476 H   0  0  0  0  0  0  0  0  0  0  0  0
  140.9893   82.1842  219.0006 H   0  0  0  0  0  0  0  0  0  0  0  0
  141.2118   82.2315  223.2751 H   0  0  0  0  0  0  0  0  0  0  0  0
  141.7930   79.8182  223.2299 H   0  0  0  0  0  0  0  0  0  0  0  0
  139.1923   69.6477  222.3769 H   0  0  0  0  0  0  0  0  0  0  0  0
  138.9432   68.1886  224.3643 H   0  0  0  0  0  0  0  0  0  0  0  0
  139.2934   67.8596  226.7141 H   0  0  0  0  0  0  0  0  0  0  0  0
  141.2082   70.9549  229.0048 H   0  0  0  0  0  0  0  0  0  0  0  0
  141.4310   72.3800  226.9608 H   0  0  0  0  0  0  0  0  0  0  0  0
  1  2  2  0
  2  3  1  0
  3  4  1  0
  4  5  1  0
  5  6  2  0
  5  7  1  0
  7  8  1  0
  8  9  1  0
  9 10  1  0
 10 11  1  0
 11 12  1  0
 12 13  1  0
 13 14  1  0
 14 15  2  0
 15 16  1  0
 16 17  2  0
 17 18  1  0
 17 19  1  0
 19 20  2  0
  2 21  1  0
 21 22  2  0
 22 23  1  0
 23 24  2  0
 24 25  1  0
 25 26  2  0
 26 27  1  0
 26 28  1  0
 28 29  2  0
 29 30  1  0
 30 31  2  0
 11  7  1  0
 20 14  1  0
 31 21  1  0
 30 24  1  0
  3 32  1  0
  4 33  1  0
  4 34  1  0
  8 35  1  0
  8 36  1  0
  9 37  1  0
  9 38  1  0
 10 39  1  0
 10 40  1  0
 11 41  1  1
 12 42  1  0
 12 43  1  0
 13 44  1  0
 15 45  1  0
 16 46  1  0
 19 47  1  0
 20 48  1  0
 22 49  1  0
 23 50  1  0
 25 51  1  0
 28 52  1  0
 29 53  1  0
M  END
>  <smiles>  (13) 
O=C(NCC(=O)N1CCC[C@H]1CNc1ccc(Cl)cc1)c1ccc2cc(F)ccc2n1

>  <score_type>  (13) 
oracle

>  <origin>  (13) 
autodockgpu

>  <m_score__min__energy>  (13) 
-9

>  <m_primary>  (13) 
energy

>  <rmsd>  (13) 
2.054831689472898

>  <m_score__min__rmsd>  (13) 
2.054831689472898

>  <meeko>  (13) 
{"free_energy": -8.53, "intermolecular_energy": -10.62, "internal_energy": -2.17, "cluster_size": 7, "cluster_id": 3, "rank_in_cluster": 1}

>  <energy>  (13) 
-7.99

>  <cluster_rmsd>  (13) 
1.48

>  <cluster>  (13) 
1

$$$$

     RDKit          3D

 53 56  0  0  0  0  0  0  0  0999 V2000
  140.4950   77.2200  218.2520 O   0  0  0  0  0  0  0  0  0  0  0  0
  141.6800   77.2330  218.7150 C   0  0  0  0  0  0  0  0  0  0  0  0
  142.2960   78.4210  219.1970 N   0  0  0  0  0  0  0  0  0  0  0  0
  141.5660   79.6910  219.1770 C   0  0  0  0  0  0  0  0  0  0  0  0
  140.8280   79.8280  220.4820 C   0  0  0  0  0  0  0  0  0  0  0  0
  139.5920   80.0030  220.3820 O   0  0  0  0  0  0  0  0  0  0  0  0
  141.5350   79.7560  221.7080 N   0  0  0  0  0  0  0  0  0  0  0  0
  142.1450   80.9160  222.3590 C   0  0  0  0  0  0  0  0  0  0  0  0
  141.7130   80.7050  223.7830 C   0  0  0  0  0  0  0  0  0  0  0  0
  141.8210   79.2220  223.9780 C   0  0  0  0  0  0  0  0  0  0  0  0
  141.8350   78.6590  222.5840 C   0  0  1  0  0  0  0  0  0  0  0  0
  140.8270   77.5660  222.4150 C   0  0  0  0  0  0  0  0  0  0  0  0
  141.4090   76.4160  221.7060 N   0  0  0  0  0  0  0  0  0  0  0  0
  140.6120   75.2210  221.7200 C   0  0  0  0  0  0  0  0  0  0  0  0
  139.2630   75.3210  221.9250 C   0  0  0  0  0  0  0  0  0  0  0  0
  138.5240   74.1330  221.9290 C   0  0  0  0  0  0  0  0  0  0  0  0
  139.1060   72.9050  221.7390 C   0  0  0  0  0  0  0  0  0  0  0  0
  138.1950   71.4050  221.7420 Cl  0  0  0  0  0  0  0  0  0  0  0  0
  140.4640   72.8210  221.5350 C   0  0  0  0  0  0  0  0  0  0  0  0
  141.2020   73.9920  221.5290 C   0  0  0  0  0  0  0  0  0  0  0  0
  142.4450   75.9710  218.7550 C   0  0  0  0  0  0  0  0  0  0  0  0
  142.0910   74.9360  217.9010 C   0  0  0  0  0  0  0  0  0  0  0  0
  142.7650   73.7340  217.8920 C   0  0  0  0  0  0  0  0  0  0  0  0
  143.8170   73.5770  218.7640 C   0  0  0  0  0  0  0  0  0  0  0  0
  144.5090   72.4000  218.7870 C   0  0  0  0  0  0  0  0  0  0  0  0
  145.5640   72.2660  219.6740 C   0  0  0  0  0  0  0  0  0  0  0  0
  146.2680   71.1130  219.7200 F   0  0  0  0  0  0  0  0  0  0  0  0
  145.8950   73.3140  220.5140 C   0  0  0  0  0  0  0  0  0  0  0  0
  145.1910   74.5190  220.4960 C   0  0  0  0  0  0  0  0  0  0  0  0
  144.1340   74.6330  219.5970 C   0  0  0  0  0  0  0  0  0  0  0  0
  143.4740   75.7970  219.5990 N   0  0  0  0  0  0  0  0  0  0  0  0
  143.2900   78.3740  219.5720 H   0  0  0  0  0  0  0  0  0  0  0  0
  142.2730   80.5254  219.0593 H   0  0  0  0  0  0  0  0  0  0  0  0
  140.8579   79.7098  218.3354 H   0  0  0  0  0  0  0  0  0  0  0  0
  143.2407   80.9034  222.2631 H   0  0  0  0  0  0  0  0  0  0  0  0
  141.8456   81.8849  221.9329 H   0  0  0  0  0  0  0  0  0  0  0  0
  142.3779   81.2402  224.4769 H   0  0  0  0  0  0  0  0  0  0  0  0
  140.6997   81.0855  223.9792 H   0  0  0  0  0  0  0  0  0  0  0  0
  142.7493   78.9664  224.5099 H   0  0  0  0  0  0  0  0  0  0  0  0
  140.9961   78.8186  224.5837 H   0  0  0  0  0  0  0  0  0  0  0  0
  142.8143   78.2108  222.3600 H   0  0  0  0  0  0  0  0  0  0  0  0
  140.4811   77.2394  223.4068 H   0  0  0  0  0  0  0  0  0  0  0  0
  139.9860   77.9541  221.8216 H   0  0  0  0  0  0  0  0  0  0  0  0
  142.3260   76.4600  221.2290 H   0  0  0  0  0  0  0  0  0  0  0  0
  138.7788   76.2964  222.0805 H   0  0  0  0  0  0  0  0  0  0  0  0
  137.4371   74.1853  222.0903 H   0  0  0  0  0  0  0  0  0  0  0  0
  140.9514   71.8470  221.3804 H   0  0  0  0  0  0  0  0  0  0  0  0
  142.2888   73.9391  221.3673 H   0  0  0  0  0  0  0  0  0  0  0  0
  141.2469   75.0794  217.2104 H   0  0  0  0  0  0  0  0  0  0  0  0
  142.4705   72.9245  217.2080 H   0  0  0  0  0  0  0  0  0  0  0  0
  144.2338   71.5745  218.1141 H   0  0  0  0  0  0  0  0  0  0  0  0
  146.7348   73.1946  221.2143 H   0  0  0  0  0  0  0  0  0  0  0  0
  145.4612   75.3477  221.1670 H   0  0  0  0  0  0  0  0  0  0  0  0
  1  2  2  0
  2  3  1  0
  3  4  1  0
  4  5  1  0
  5  6  2  0
  5  7  1  0
  7  8  1  0
  8  9  1  0
  9 10  1  0
 10 11  1  0
 11 12  1  0
 12 13  1  0
 13 14  1  0
 14 15  2  0
 15 16  1  0
 16 17  2  0
 17 18  1  0
 17 19  1  0
 19 20  2  0
  2 21  1  0
 21 22  2  0
 22 23  1  0
 23 24  2  0
 24 25  1  0
 25 26  2  0
 26 27  1  0
 26 28  1  0
 28 29  2  0
 29 30  1  0
 30 31  2  0
 11  7  1  0
 20 14  1  0
 31 21  1  0
 30 24  1  0
  3 32  1  0
  4 33  1  0
  4 34  1  0
  8 35  1  0
  8 36  1  0
  9 37  1  0
  9 38  1  0
 10 39  1  0
 10 40  1  0
 11 41  1  6
 12 42  1  0
 12 43  1  0
 13 44  1  0
 15 45  1  0
 16 46  1  0
 19 47  1  0
 20 48  1  0
 22 49  1  0
 23 50  1  0
 25 51  1  0
 28 52  1  0
 29 53  1  0
M  END
>  <smiles>  (14) 
O=C(NCC(=O)N1CCC[C@H]1CNc1ccc(Cl)cc1)c1ccc2cc(F)ccc2n1

>  <score_type>  (14) 
oracle

>  <origin>  (14) 
autodockgpu

>  <m_score__min__energy>  (14) 
-9

>  <m_primary>  (14) 
energy

>  <rmsd>  (14) 
7.677158739890235

>  <m_score__min__rmsd>  (14) 
7.677158739890235

>  <meeko>  (14) 
{"free_energy": -6.64, "intermolecular_energy": -8.73, "internal_energy": -3.5, "cluster_size": 2, "cluster_id": 8, "rank_in_cluster": 2}

>  <energy>  (14) 
-7.97

>  <cluster_rmsd>  (14) 
1.42

>  <cluster>  (14) 
1

$$$$

     RDKit          3D

 53 56  0  0  0  0  0  0  0  0999 V2000
  140.4560   71.4530  221.8650 O   0  0  0  0  0  0  0  0  0  0  0  0
  139.5520   71.4790  222.7610 C   0  0  0  0  0  0  0  0  0  0  0  0
  138.4070   72.3180  222.6620 N   0  0  0  0  0  0  0  0  0  0  0  0
  138.2300   73.1910  221.5000 C   0  0  0  0  0  0  0  0  0  0  0  0
  139.0860   74.4140  221.7000 C   0  0  0  0  0  0  0  0  0  0  0  0
  140.3000   74.1880  221.9150 O   0  0  0  0  0  0  0  0  0  0  0  0
  138.5050   75.7050  221.6390 N   0  0  0  0  0  0  0  0  0  0  0  0
  137.4450   76.1580  222.5410 C   0  0  0  0  0  0  0  0  0  0  0  0
  137.9450   77.5270  222.9050 C   0  0  0  0  0  0  0  0  0  0  0  0
  138.5230   78.0540  221.6250 C   0  0  0  0  0  0  0  0  0  0  0  0
  138.7460   76.8300  220.7820 C   0  0  1  0  0  0  0  0  0  0  0  0
  140.1380   76.7790  220.2330 C   0  0  0  0  0  0  0  0  0  0  0  0
  141.1270   76.6410  221.3150 N   0  0  0  0  0  0  0  0  0  0  0  0
  141.4630   77.8610  221.9950 C   0  0  0  0  0  0  0  0  0  0  0  0
  141.8020   78.9640  221.2590 C   0  0  0  0  0  0  0  0  0  0  0  0
  142.1200   80.1310  221.9610 C   0  0  0  0  0  0  0  0  0  0  0  0
  142.1010   80.1920  223.3320 C   0  0  0  0  0  0  0  0  0  0  0  0
  142.4980   81.6480  224.2290 Cl  0  0  0  0  0  0  0  0  0  0  0  0
  141.7590   79.0750  224.0570 C   0  0  0  0  0  0  0  0  0  0  0  0
  141.4420   77.9160  223.3710 C   0  0  0  0  0  0  0  0  0  0  0  0
  139.6950   70.6090  223.9450 C   0  0  0  0  0  0  0  0  0  0  0  0
  139.1800   69.3200  223.9050 C   0  0  0  0  0  0  0  0  0  0  0  0
  139.2810   68.4610  224.9780 C   0  0  0  0  0  0  0  0  0  0  0  0
  139.9140   68.9140  226.1110 C   0  0  0  0  0  0  0  0  0  0  0  0
  140.0330   68.0940  227.1960 C   0  0  0  0  0  0  0  0  0  0  0  0
  140.6740   68.5730  228.3270 C   0  0  0  0  0  0  0  0  0  0  0  0
  140.8070   67.7850  229.4160 F   0  0  0  0  0  0  0  0  0  0  0  0
  141.1770   69.8620  228.3380 C   0  0  0  0  0  0  0  0  0  0  0  0
  141.0590   70.7050  227.2330 C   0  0  0  0  0  0  0  0  0  0  0  0
  140.4110   70.2040  226.1070 C   0  0  0  0  0  0  0  0  0  0  0  0
  140.3090   71.0320  225.0610 N   0  0  0  0  0  0  0  0  0  0  0  0
  137.6840   72.3010  223.4430 H   0  0  0  0  0  0  0  0  0  0  0  0
  138.5410   72.6634  220.5863 H   0  0  0  0  0  0  0  0  0  0  0  0
  137.1732   73.4779  221.3959 H   0  0  0  0  0  0  0  0  0  0  0  0
  136.4723   76.2058  222.0296 H   0  0  0  0  0  0  0  0  0  0  0  0
  137.2678   75.4960  223.4015 H   0  0  0  0  0  0  0  0  0  0  0  0
  137.1194   78.1651  223.2532 H   0  0  0  0  0  0  0  0  0  0  0  0
  138.6790   77.5059  223.7241 H   0  0  0  0  0  0  0  0  0  0  0  0
  137.8184   78.7414  221.1340 H   0  0  0  0  0  0  0  0  0  0  0  0
  139.4491   78.6249  221.7875 H   0  0  0  0  0  0  0  0  0  0  0  0
  138.0723   76.8342  219.9125 H   0  0  0  0  0  0  0  0  0  0  0  0
  140.2255   75.9183  219.5537 H   0  0  0  0  0  0  0  0  0  0  0  0
  140.3368   77.7170  219.6939 H   0  0  0  0  0  0  0  0  0  0  0  0
  141.5510   75.7330  221.5720 H   0  0  0  0  0  0  0  0  0  0  0  0
  141.8235   78.9338  220.1596 H   0  0  0  0  0  0  0  0  0  0  0  0
  142.3953   81.0325  221.3939 H   0  0  0  0  0  0  0  0  0  0  0  0
  141.7379   79.1021  225.1565 H   0  0  0  0  0  0  0  0  0  0  0  0
  141.1661   77.0154  223.9392 H   0  0  0  0  0  0  0  0  0  0  0  0
  138.6766   68.9744  222.9900 H   0  0  0  0  0  0  0  0  0  0  0  0
  138.8673   67.4429  224.9292 H   0  0  0  0  0  0  0  0  0  0  0  0
  139.6274   67.0718  227.1727 H   0  0  0  0  0  0  0  0  0  0  0  0
  141.6832   70.2316  229.2419 H   0  0  0  0  0  0  0  0  0  0  0  0
  141.4630   71.7280  227.2505 H   0  0  0  0  0  0  0  0  0  0  0  0
  1  2  2  0
  2  3  1  0
  3  4  1  0
  4  5  1  0
  5  6  2  0
  5  7  1  0
  7  8  1  0
  8  9  1  0
  9 10  1  0
 10 11  1  0
 11 12  1  0
 12 13  1  0
 13 14  1  0
 14 15  2  0
 15 16  1  0
 16 17  2  0
 17 18  1  0
 17 19  1  0
 19 20  2  0
  2 21  1  0
 21 22  2  0
 22 23  1  0
 23 24  2  0
 24 25  1  0
 25 26  2  0
 26 27  1  0
 26 28  1  0
 28 29  2  0
 29 30  1  0
 30 31  2  0
 11  7  1  0
 20 14  1  0
 31 21  1  0
 30 24  1  0
  3 32  1  0
  4 33  1  0
  4 34  1  0
  8 35  1  0
  8 36  1  0
  9 37  1  0
  9 38  1  0
 10 39  1  0
 10 40  1  0
 11 41  1  6
 12 42  1  0
 12 43  1  0
 13 44  1  0
 15 45  1  0
 16 46  1  0
 19 47  1  0
 20 48  1  0
 22 49  1  0
 23 50  1  0
 25 51  1  0
 28 52  1  0
 29 53  1  0
M  END
>  <smiles>  (15) 
O=C(NCC(=O)N1CCC[C@H]1CNc1ccc(Cl)cc1)c1ccc2cc(F)ccc2n1

>  <score_type>  (15) 
oracle

>  <origin>  (15) 
autodockgpu

>  <m_score__min__energy>  (15) 
-9

>  <m_primary>  (15) 
energy

>  <rmsd>  (15) 
2.7638244325515595

>  <m_score__min__rmsd>  (15) 
2.7638244325515595

>  <meeko>  (15) 
{"free_energy": -8.97, "intermolecular_energy": -11.06, "internal_energy": -2.03, "cluster_size": 20, "cluster_id": 1, "rank_in_cluster": 2}

>  <energy>  (15) 
-7.96

>  <cluster_rmsd>  (15) 
1.77

>  <cluster>  (15) 
1

$$$$

     RDKit          3D

 53 56  0  0  0  0  0  0  0  0999 V2000
  135.8670   76.6290  221.9590 O   0  0  0  0  0  0  0  0  0  0  0  0
  137.0470   76.3860  222.3680 C   0  0  0  0  0  0  0  0  0  0  0  0
  137.5350   75.0610  222.5400 N   0  0  0  0  0  0  0  0  0  0  0  0
  136.6750   73.9130  222.2420 C   0  0  0  0  0  0  0  0  0  0  0  0
  137.5590   72.7390  221.9130 C   0  0  0  0  0  0  0  0  0  0  0  0
  137.0430   71.6130  222.0980 O   0  0  0  0  0  0  0  0  0  0  0  0
  138.8750   72.9540  221.4330 N   0  0  0  0  0  0  0  0  0  0  0  0
  139.1810   73.7430  220.2390 C   0  0  0  0  0  0  0  0  0  0  0  0
  140.3310   74.5750  220.7330 C   0  0  0  0  0  0  0  0  0  0  0  0
  141.1190   73.6290  221.5900 C   0  0  0  0  0  0  0  0  0  0  0  0
  140.1570   72.5200  221.9100 C   0  0  1  0  0  0  0  0  0  0  0  0
  140.0990   72.2400  223.3790 C   0  0  0  0  0  0  0  0  0  0  0  0
  139.3970   70.9740  223.6470 N   0  0  0  0  0  0  0  0  0  0  0  0
  139.7810   70.3080  224.8600 C   0  0  0  0  0  0  0  0  0  0  0  0
  139.5170   68.9720  225.0010 C   0  0  0  0  0  0  0  0  0  0  0  0
  139.9100   68.3620  226.1970 C   0  0  0  0  0  0  0  0  0  0  0  0
  140.5350   69.0530  227.2030 C   0  0  0  0  0  0  0  0  0  0  0  0
  141.0340   68.3040  228.7100 Cl  0  0  0  0  0  0  0  0  0  0  0  0
  140.7930   70.3950  227.0470 C   0  0  0  0  0  0  0  0  0  0  0  0
  140.4090   71.0070  225.8670 C   0  0  0  0  0  0  0  0  0  0  0  0
  137.9440   77.5180  222.6750 C   0  0  0  0  0  0  0  0  0  0  0  0
  137.3970   78.7700  222.9190 C   0  0  0  0  0  0  0  0  0  0  0  0
  138.1810   79.8650  223.2100 C   0  0  0  0  0  0  0  0  0  0  0  0
  139.5440   79.6900  223.2530 C   0  0  0  0  0  0  0  0  0  0  0  0
  140.3560   80.7500  223.5360 C   0  0  0  0  0  0  0  0  0  0  0  0
  141.7260   80.5490  223.5740 C   0  0  0  0  0  0  0  0  0  0  0  0
  142.5550   81.5800  223.8510 F   0  0  0  0  0  0  0  0  0  0  0  0
  142.2440   79.2900  223.3260 C   0  0  0  0  0  0  0  0  0  0  0  0
  141.4200   78.2020  223.0360 C   0  0  0  0  0  0  0  0  0  0  0  0
  140.0460   78.4260  223.0030 C   0  0  0  0  0  0  0  0  0  0  0  0
  139.2780   77.3680  222.7220 N   0  0  0  0  0  0  0  0  0  0  0  0
  138.5310   74.9160  222.8870 H   0  0  0  0  0  0  0  0  0  0  0  0
  136.0519   73.6768  223.1172 H   0  0  0  0  0  0  0  0  0  0  0  0
  136.0142   74.1421  221.3930 H   0  0  0  0  0  0  0  0  0  0  0  0
  139.4788   73.1018  219.3963 H   0  0  0  0  0  0  0  0  0  0  0  0
  138.3329   74.3261  219.8508 H   0  0  0  0  0  0  0  0  0  0  0  0
  140.9391   74.9405  219.8924 H   0  0  0  0  0  0  0  0  0  0  0  0
  140.0022   75.4702  221.2811 H   0  0  0  0  0  0  0  0  0  0  0  0
  141.9903   73.2416  221.0416 H   0  0  0  0  0  0  0  0  0  0  0  0
  141.5134   74.1144  222.4949 H   0  0  0  0  0  0  0  0  0  0  0  0
  140.4774   71.5830  221.4311 H   0  0  0  0  0  0  0  0  0  0  0  0
  141.1237   72.1737  223.7734 H   0  0  0  0  0  0  0  0  0  0  0  0
  139.5494   73.0565  223.8702 H   0  0  0  0  0  0  0  0  0  0  0  0
  138.6780   70.5890  223.0110 H   0  0  0  0  0  0  0  0  0  0  0  0
  139.0158   68.4010  224.2055 H   0  0  0  0  0  0  0  0  0  0  0  0
  139.7104   67.2892  226.3354 H   0  0  0  0  0  0  0  0  0  0  0  0
  141.2929   70.9682  227.8417 H   0  0  0  0  0  0  0  0  0  0  0  0
  140.6105   72.0796  225.7296 H   0  0  0  0  0  0  0  0  0  0  0  0
  136.3045   78.8918  222.8789 H   0  0  0  0  0  0  0  0  0  0  0  0
  137.7299   80.8497  223.4022 H   0  0  0  0  0  0  0  0  0  0  0  0
  139.9303   81.7455  223.7303 H   0  0  0  0  0  0  0  0  0  0  0  0
  143.3337   79.1431  223.3583 H   0  0  0  0  0  0  0  0  0  0  0  0
  141.8401   77.2043  222.8407 H   0  0  0  0  0  0  0  0  0  0  0  0
  1  2  2  0
  2  3  1  0
  3  4  1  0
  4  5  1  0
  5  6  2  0
  5  7  1  0
  7  8  1  0
  8  9  1  0
  9 10  1  0
 10 11  1  0
 11 12  1  0
 12 13  1  0
 13 14  1  0
 14 15  2  0
 15 16  1  0
 16 17  2  0
 17 18  1  0
 17 19  1  0
 19 20  2  0
  2 21  1  0
 21 22  2  0
 22 23  1  0
 23 24  2  0
 24 25  1  0
 25 26  2  0
 26 27  1  0
 26 28  1  0
 28 29  2  0
 29 30  1  0
 30 31  2  0
 11  7  1  0
 20 14  1  0
 31 21  1  0
 30 24  1  0
  3 32  1  0
  4 33  1  0
  4 34  1  0
  8 35  1  0
  8 36  1  0
  9 37  1  0
  9 38  1  0
 10 39  1  0
 10 40  1  0
 11 41  1  6
 12 42  1  0
 12 43  1  0
 13 44  1  0
 15 45  1  0
 16 46  1  0
 19 47  1  0
 20 48  1  0
 22 49  1  0
 23 50  1  0
 25 51  1  0
 28 52  1  0
 29 53  1  0
M  END
>  <smiles>  (16) 
O=C(NCC(=O)N1CCC[C@H]1CNc1ccc(Cl)cc1)c1ccc2cc(F)ccc2n1

>  <score_type>  (16) 
oracle

>  <origin>  (16) 
autodockgpu

>  <m_score__min__energy>  (16) 
-9

>  <m_primary>  (16) 
energy

>  <rmsd>  (16) 
8.697549869679058

>  <m_score__min__rmsd>  (16) 
8.697549869679058

>  <meeko>  (16) 
{"free_energy": -7.61, "intermolecular_energy": -9.7, "internal_energy": -2.6, "cluster_size": 12, "cluster_id": 2, "rank_in_cluster": 9}

>  <energy>  (16) 
-7.92

>  <cluster_rmsd>  (16) 
1.23

>  <cluster>  (16) 
1

$$$$

     RDKit          3D

 53 56  0  0  0  0  0  0  0  0999 V2000
  138.0760   70.0550  222.0100 O   0  0  0  0  0  0  0  0  0  0  0  0
  138.7330   70.6800  222.9030 C   0  0  0  0  0  0  0  0  0  0  0  0
  139.0280   72.0680  222.7990 N   0  0  0  0  0  0  0  0  0  0  0  0
  138.5710   72.8350  221.6380 C   0  0  0  0  0  0  0  0  0  0  0  0
  139.3740   74.1060  221.5720 C   0  0  0  0  0  0  0  0  0  0  0  0
  140.3740   74.1480  222.3250 O   0  0  0  0  0  0  0  0  0  0  0  0
  138.9780   75.1520  220.7000 N   0  0  0  0  0  0  0  0  0  0  0  0
  137.6010   75.6380  220.5940 C   0  0  0  0  0  0  0  0  0  0  0  0
  137.8210   77.1240  220.6070 C   0  0  0  0  0  0  0  0  0  0  0  0
  139.0620   77.3140  219.7860 C   0  0  0  0  0  0  0  0  0  0  0  0
  139.7120   75.9590  219.7680 C   0  0  1  0  0  0  0  0  0  0  0  0
  141.1540   76.0290  220.1620 C   0  0  0  0  0  0  0  0  0  0  0  0
  141.3040   76.5720  221.5220 N   0  0  0  0  0  0  0  0  0  0  0  0
  141.3510   78.0050  221.6060 C   0  0  0  0  0  0  0  0  0  0  0  0
  141.8270   78.7210  220.5410 C   0  0  0  0  0  0  0  0  0  0  0  0
  141.8540   80.1140  220.6630 C   0  0  0  0  0  0  0  0  0  0  0  0
  141.4270   80.7600  221.7960 C   0  0  0  0  0  0  0  0  0  0  0  0
  141.4550   82.5070  221.9670 Cl  0  0  0  0  0  0  0  0  0  0  0  0
  140.9520   80.0270  222.8580 C   0  0  0  0  0  0  0  0  0  0  0  0
  140.9210   78.6480  222.7460 C   0  0  0  0  0  0  0  0  0  0  0  0
  139.2070   69.9410  224.0910 C   0  0  0  0  0  0  0  0  0  0  0  0
  139.0650   68.5610  224.1320 C   0  0  0  0  0  0  0  0  0  0  0  0
  139.4850   67.8160  225.2120 C   0  0  0  0  0  0  0  0  0  0  0  0
  140.0600   68.4800  226.2700 C   0  0  0  0  0  0  0  0  0  0  0  0
  140.4890   67.7770  227.3600 C   0  0  0  0  0  0  0  0  0  0  0  0
  141.0640   68.4680  228.4130 C   0  0  0  0  0  0  0  0  0  0  0  0
  141.4970   67.8010  229.5050 F   0  0  0  0  0  0  0  0  0  0  0  0
  141.1920   69.8440  228.3450 C   0  0  0  0  0  0  0  0  0  0  0  0
  140.7560   70.5680  227.2350 C   0  0  0  0  0  0  0  0  0  0  0  0
  140.1810   69.8540  226.1870 C   0  0  0  0  0  0  0  0  0  0  0  0
  139.7700   70.5700  225.1350 N   0  0  0  0  0  0  0  0  0  0  0  0
  139.5830   72.5390  223.5750 H   0  0  0  0  0  0  0  0  0  0  0  0
  138.7245   72.2488  220.7199 H   0  0  0  0  0  0  0  0  0  0  0  0
  137.4995   73.0655  221.7313 H   0  0  0  0  0  0  0  0  0  0  0  0
  137.1268   75.3078  219.6580 H   0  0  0  0  0  0  0  0  0  0  0  0
  136.9283   75.2718  221.3836 H   0  0  0  0  0  0  0  0  0  0  0  0
  136.9678   77.6496  220.1534 H   0  0  0  0  0  0  0  0  0  0  0  0
  137.9207   77.5285  221.6251 H   0  0  0  0  0  0  0  0  0  0  0  0
  138.8076   77.6368  218.7657 H   0  0  0  0  0  0  0  0  0  0  0  0
  139.7230   78.0897  220.2001 H   0  0  0  0  0  0  0  0  0  0  0  0
  139.6906   75.5355  218.7530 H   0  0  0  0  0  0  0  0  0  0  0  0
  141.5853   75.0176  220.1290 H   0  0  0  0  0  0  0  0  0  0  0  0
  141.6771   76.6945  219.4595 H   0  0  0  0  0  0  0  0  0  0  0  0
  141.3690   75.9690  222.3610 H   0  0  0  0  0  0  0  0  0  0  0  0
  142.1746   78.2205  219.6252 H   0  0  0  0  0  0  0  0  0  0  0  0
  142.2309   80.7131  219.8209 H   0  0  0  0  0  0  0  0  0  0  0  0
  140.6047   80.5251  223.7752 H   0  0  0  0  0  0  0  0  0  0  0  0
  140.5435   78.0501  223.5886 H   0  0  0  0  0  0  0  0  0  0  0  0
  138.6032   68.0466  223.2764 H   0  0  0  0  0  0  0  0  0  0  0  0
  139.3640   66.7228  225.2276 H   0  0  0  0  0  0  0  0  0  0  0  0
  140.3797   66.6832  227.4003 H   0  0  0  0  0  0  0  0  0  0  0  0
  141.6497   70.3814  229.1886 H   0  0  0  0  0  0  0  0  0  0  0  0
  140.8625   71.6619  227.1895 H   0  0  0  0  0  0  0  0  0  0  0  0
  1  2  2  0
  2  3  1  0
  3  4  1  0
  4  5  1  0
  5  6  2  0
  5  7  1  0
  7  8  1  0
  8  9  1  0
  9 10  1  0
 10 11  1  0
 11 12  1  0
 12 13  1  0
 13 14  1  0
 14 15  2  0
 15 16  1  0
 16 17  2  0
 17 18  1  0
 17 19  1  0
 19 20  2  0
  2 21  1  0
 21 22  2  0
 22 23  1  0
 23 24  2  0
 24 25  1  0
 25 26  2  0
 26 27  1  0
 26 28  1  0
 28 29  2  0
 29 30  1  0
 30 31  2  0
 11  7  1  0
 20 14  1  0
 31 21  1  0
 30 24  1  0
  3 32  1  0
  4 33  1  0
  4 34  1  0
  8 35  1  0
  8 36  1  0
  9 37  1  0
  9 38  1  0
 10 39  1  0
 10 40  1  0
 11 41  1  6
 12 42  1  0
 12 43  1  0
 13 44  1  0
 15 45  1  0
 16 46  1  0
 19 47  1  0
 20 48  1  0
 22 49  1  0
 23 50  1  0
 25 51  1  0
 28 52  1  0
 29 53  1  0
M  END
>  <smiles>  (17) 
O=C(NCC(=O)N1CCC[C@H]1CNc1ccc(Cl)cc1)c1ccc2cc(F)ccc2n1

>  <score_type>  (17) 
oracle

>  <origin>  (17) 
autodockgpu

>  <m_score__min__energy>  (17) 
-9

>  <m_primary>  (17) 
energy

>  <rmsd>  (17) 
1.998124798829136

>  <m_score__min__rmsd>  (17) 
1.998124798829136

>  <meeko>  (17) 
{"free_energy": -7.66, "intermolecular_energy": -9.75, "internal_energy": -2.81, "cluster_size": 20, "cluster_id": 1, "rank_in_cluster": 18}

>  <energy>  (17) 
-7.91

>  <cluster_rmsd>  (17) 
1.29

>  <cluster>  (17) 
1

$$$$

     RDKit          3D

 53 56  0  0  0  0  0  0  0  0999 V2000
  140.2580   70.8740  221.1080 O   0  0  0  0  0  0  0  0  0  0  0  0
  140.0130   71.5300  222.1700 C   0  0  0  0  0  0  0  0  0  0  0  0
  139.8160   72.9390  222.1660 N   0  0  0  0  0  0  0  0  0  0  0  0
  139.8880   73.6910  220.9110 C   0  0  0  0  0  0  0  0  0  0  0  0
  140.4340   75.0600  221.2170 C   0  0  0  0  0  0  0  0  0  0  0  0
  140.1500   75.5080  222.3520 O   0  0  0  0  0  0  0  0  0  0  0  0
  141.2080   75.7480  220.2490 N   0  0  0  0  0  0  0  0  0  0  0  0
  140.8290   77.0440  219.6840 C   0  0  0  0  0  0  0  0  0  0  0  0
  142.1380   77.7790  219.7490 C   0  0  0  0  0  0  0  0  0  0  0  0
  143.1550   76.7380  219.3860 C   0  0  0  0  0  0  0  0  0  0  0  0
  142.4490   75.4290  219.6040 C   0  0  1  0  0  0  0  0  0  0  0  0
  143.2540   74.4980  220.4560 C   0  0  0  0  0  0  0  0  0  0  0  0
  144.4240   73.9890  219.7210 N   0  0  0  0  0  0  0  0  0  0  0  0
  144.5030   72.5590  219.6110 C   0  0  0  0  0  0  0  0  0  0  0  0
  145.5610   71.9970  218.9500 C   0  0  0  0  0  0  0  0  0  0  0  0
  145.6000   70.6010  218.8690 C   0  0  0  0  0  0  0  0  0  0  0  0
  144.6270   69.8060  219.4210 C   0  0  0  0  0  0  0  0  0  0  0  0
  144.6600   68.0530  219.3280 Cl  0  0  0  0  0  0  0  0  0  0  0  0
  143.5700   70.3860  220.0830 C   0  0  0  0  0  0  0  0  0  0  0  0
  143.5240   71.7660  220.1690 C   0  0  0  0  0  0  0  0  0  0  0  0
  139.9280   70.8060  223.4540 C   0  0  0  0  0  0  0  0  0  0  0  0
  139.3460   69.5460  223.4850 C   0  0  0  0  0  0  0  0  0  0  0  0
  139.2360   68.8210  224.6510 C   0  0  0  0  0  0  0  0  0  0  0  0
  139.7260   69.3810  225.8080 C   0  0  0  0  0  0  0  0  0  0  0  0
  139.6350   68.6950  226.9850 C   0  0  0  0  0  0  0  0  0  0  0  0
  140.1350   69.2790  228.1370 C   0  0  0  0  0  0  0  0  0  0  0  0
  140.0590   68.6250  229.3170 F   0  0  0  0  0  0  0  0  0  0  0  0
  140.7100   70.5360  228.0770 C   0  0  0  0  0  0  0  0  0  0  0  0
  140.8050   71.2430  226.8770 C   0  0  0  0  0  0  0  0  0  0  0  0
  140.2970   70.6370  225.7310 C   0  0  0  0  0  0  0  0  0  0  0  0
  140.3990   71.3350  224.5950 N   0  0  0  0  0  0  0  0  0  0  0  0
  139.6160   73.4370  223.0850 H   0  0  0  0  0  0  0  0  0  0  0  0
  140.5532   73.1737  220.2040 H   0  0  0  0  0  0  0  0  0  0  0  0
  138.8892   73.7717  220.4571 H   0  0  0  0  0  0  0  0  0  0  0  0
  140.4726   76.9444  218.6481 H   0  0  0  0  0  0  0  0  0  0  0  0
  140.0019   77.5435  220.2098 H   0  0  0  0  0  0  0  0  0  0  0  0
  142.1558   78.6110  219.0296 H   0  0  0  0  0  0  0  0  0  0  0  0
  142.3240   78.2275  220.7360 H   0  0  0  0  0  0  0  0  0  0  0  0
  143.4616   76.8440  218.3349 H   0  0  0  0  0  0  0  0  0  0  0  0
  144.0728   76.8230  219.9864 H   0  0  0  0  0  0  0  0  0  0  0  0
  142.2929   74.9121  218.6456 H   0  0  0  0  0  0  0  0  0  0  0  0
  143.5980   75.0364  221.3514 H   0  0  0  0  0  0  0  0  0  0  0  0
  142.6197   73.6451  220.7392 H   0  0  0  0  0  0  0  0  0  0  0  0
  145.1400   74.6130  219.3110 H   0  0  0  0  0  0  0  0  0  0  0  0
  146.3495   72.6182  218.5002 H   0  0  0  0  0  0  0  0  0  0  0  0
  146.4405   70.1234  218.3442 H   0  0  0  0  0  0  0  0  0  0  0  0
  142.7799   69.7672  220.5334 H   0  0  0  0  0  0  0  0  0  0  0  0
  142.6844   72.2424  220.6964 H   0  0  0  0  0  0  0  0  0  0  0  0
  138.9609   69.1134  222.5498 H   0  0  0  0  0  0  0  0  0  0  0  0
  138.7704   67.8244  224.6568 H   0  0  0  0  0  0  0  0  0  0  0  0
  139.1732   67.6972  227.0177 H   0  0  0  0  0  0  0  0  0  0  0  0
  141.1025   70.9901  228.9988 H   0  0  0  0  0  0  0  0  0  0  0  0
  141.2642   72.2418  226.8383 H   0  0  0  0  0  0  0  0  0  0  0  0
  1  2  2  0
  2  3  1  0
  3  4  1  0
  4  5  1  0
  5  6  2  0
  5  7  1  0
  7  8  1  0
  8  9  1  0
  9 10  1  0
 10 11  1  0
 11 12  1  0
 12 13  1  0
 13 14  1  0
 14 15  2  0
 15 16  1  0
 16 17  2  0
 17 18  1  0
 17 19  1  0
 19 20  2  0
  2 21  1  0
 21 22  2  0
 22 23  1  0
 23 24  2  0
 24 25  1  0
 25 26  2  0
 26 27  1  0
 26 28  1  0
 28 29  2  0
 29 30  1  0
 30 31  2  0
 11  7  1  0
 20 14  1  0
 31 21  1  0
 30 24  1  0
  3 32  1  0
  4 33  1  0
  4 34  1  0
  8 35  1  0
  8 36  1  0
  9 37  1  0
  9 38  1  0
 10 39  1  0
 10 40  1  0
 11 41  1  6
 12 42  1  0
 12 43  1  0
 13 44  1  0
 15 45  1  0
 16 46  1  0
 19 47  1  0
 20 48  1  0
 22 49  1  0
 23 50  1  0
 25 51  1  0
 28 52  1  0
 29 53  1  0
M  END
>  <smiles>  (18) 
O=C(NCC(=O)N1CCC[C@H]1CNc1ccc(Cl)cc1)c1ccc2cc(F)ccc2n1

>  <score_type>  (18) 
oracle

>  <origin>  (18) 
autodockgpu

>  <m_score__min__energy>  (18) 
-9

>  <m_primary>  (18) 
energy

>  <rmsd>  (18) 
4.954097383572947

>  <m_score__min__rmsd>  (18) 
4.954097383572947

>  <meeko>  (18) 
{"free_energy": -8.16, "intermolecular_energy": -10.25, "internal_energy": -2.23, "cluster_size": 6, "cluster_id": 5, "rank_in_cluster": 1}

>  <energy>  (18) 
-7.66

>  <cluster_rmsd>  (18) 
1.11

>  <cluster>  (18) 
1

$$$$

     RDKit          3D

 53 56  0  0  0  0  0  0  0  0999 V2000
  137.5530   70.0340  222.1920 O   0  0  0  0  0  0  0  0  0  0  0  0
  138.2740   70.7260  222.9800 C   0  0  0  0  0  0  0  0  0  0  0  0
  138.5210   72.1110  222.7690 N   0  0  0  0  0  0  0  0  0  0  0  0
  137.9370   72.7970  221.6140 C   0  0  0  0  0  0  0  0  0  0  0  0
  138.8660   73.9110  221.2140 C   0  0  0  0  0  0  0  0  0  0  0  0
  139.8470   74.0900  221.9740 O   0  0  0  0  0  0  0  0  0  0  0  0
  138.6010   74.6730  220.0490 N   0  0  0  0  0  0  0  0  0  0  0  0
  137.8420   74.1640  218.9050 C   0  0  0  0  0  0  0  0  0  0  0  0
  136.9320   75.3260  218.6240 C   0  0  0  0  0  0  0  0  0  0  0  0
  137.8010   76.5280  218.8490 C   0  0  0  0  0  0  0  0  0  0  0  0
  138.9470   76.0150  219.6750 C   0  0  1  0  0  0  0  0  0  0  0  0
  139.1740   76.8530  220.8940 C   0  0  0  0  0  0  0  0  0  0  0  0
  140.5380   76.6670  221.4160 N   0  0  0  0  0  0  0  0  0  0  0  0
  141.0830   77.7950  222.1180 C   0  0  0  0  0  0  0  0  0  0  0  0
  141.2990   77.7020  223.4660 C   0  0  0  0  0  0  0  0  0  0  0  0
  141.8330   78.8230  224.1110 C   0  0  0  0  0  0  0  0  0  0  0  0
  142.1360   79.9800  223.4400 C   0  0  0  0  0  0  0  0  0  0  0  0
  142.8060   81.3960  224.2320 Cl  0  0  0  0  0  0  0  0  0  0  0  0
  141.9140   80.0590  222.0850 C   0  0  0  0  0  0  0  0  0  0  0  0
  141.3860   78.9540  221.4390 C   0  0  0  0  0  0  0  0  0  0  0  0
  138.8760   70.0690  224.1580 C   0  0  0  0  0  0  0  0  0  0  0  0
  138.8250   68.6860  224.2630 C   0  0  0  0  0  0  0  0  0  0  0  0
  139.3680   68.0150  225.3380 C   0  0  0  0  0  0  0  0  0  0  0  0
  139.9730   68.7580  226.3240 C   0  0  0  0  0  0  0  0  0  0  0  0
  140.5210   68.1310  227.4060 C   0  0  0  0  0  0  0  0  0  0  0  0
  141.1240   68.9010  228.3870 C   0  0  0  0  0  0  0  0  0  0  0  0
  141.6750   68.3090  229.4700 F   0  0  0  0  0  0  0  0  0  0  0  0
  141.1600   70.2770  228.2560 C   0  0  0  0  0  0  0  0  0  0  0  0
  140.6010   70.9250  227.1530 C   0  0  0  0  0  0  0  0  0  0  0  0
  140.0000   70.1320  226.1790 C   0  0  0  0  0  0  0  0  0  0  0  0
  139.4710   70.7760  225.1320 N   0  0  0  0  0  0  0  0  0  0  0  0
  139.1340   72.6390  223.4600 H   0  0  0  0  0  0  0  0  0  0  0  0
  137.8215   72.0899  220.7794 H   0  0  0  0  0  0  0  0  0  0  0  0
  136.9463   73.2002  221.8707 H   0  0  0  0  0  0  0  0  0  0  0  0
  138.4980   73.9485  218.0487 H   0  0  0  0  0  0  0  0  0  0  0  0
  137.3196   73.2146  219.0940 H   0  0  0  0  0  0  0  0  0  0  0  0
  136.5673   75.2955  217.5867 H   0  0  0  0  0  0  0  0  0  0  0  0
  136.0351   75.3259  219.2609 H   0  0  0  0  0  0  0  0  0  0  0  0
  138.1620   76.9315  217.8914 H   0  0  0  0  0  0  0  0  0  0  0  0
  137.2609   77.3472  219.3463 H   0  0  0  0  0  0  0  0  0  0  0  0
  139.8827   76.0519  219.0978 H   0  0  0  0  0  0  0  0  0  0  0  0
  139.0296   77.9121  220.6344 H   0  0  0  0  0  0  0  0  0  0  0  0
  138.4571   76.5449  221.6694 H   0  0  0  0  0  0  0  0  0  0  0  0
  141.0700   75.7880  221.2890 H   0  0  0  0  0  0  0  0  0  0  0  0
  141.0621   76.7821  224.0208 H   0  0  0  0  0  0  0  0  0  0  0  0
  142.0162   78.7745  225.1945 H   0  0  0  0  0  0  0  0  0  0  0  0
  142.1502   80.9777  221.5280 H   0  0  0  0  0  0  0  0  0  0  0  0
  141.2039   79.0033  220.3553 H   0  0  0  0  0  0  0  0  0  0  0  0
  138.3367   68.1080  223.4646 H   0  0  0  0  0  0  0  0  0  0  0  0
  139.3187   66.9181  225.4048 H   0  0  0  0  0  0  0  0  0  0  0  0
  140.4844   67.0354  227.4970 H   0  0  0  0  0  0  0  0  0  0  0  0
  141.6420   70.8771  229.0418 H   0  0  0  0  0  0  0  0  0  0  0  0
  140.6341   72.0203  227.0570 H   0  0  0  0  0  0  0  0  0  0  0  0
  1  2  2  0
  2  3  1  0
  3  4  1  0
  4  5  1  0
  5  6  2  0
  5  7  1  0
  7  8  1  0
  8  9  1  0
  9 10  1  0
 10 11  1  0
 11 12  1  0
 12 13  1  0
 13 14  1  0
 14 15  2  0
 15 16  1  0
 16 17  2  0
 17 18  1  0
 17 19  1  0
 19 20  2  0
  2 21  1  0
 21 22  2  0
 22 23  1  0
 23 24  2  0
 24 25  1  0
 25 26  2  0
 26 27  1  0
 26 28  1  0
 28 29  2  0
 29 30  1  0
 30 31  2  0
 11  7  1  0
 20 14  1  0
 31 21  1  0
 30 24  1  0
  3 32  1  0
  4 33  1  0
  4 34  1  0
  8 35  1  0
  8 36  1  0
  9 37  1  0
  9 38  1  0
 10 39  1  0
 10 40  1  0
 11 41  1  6
 12 42  1  0
 12 43  1  0
 13 44  1  0
 15 45  1  0
 16 46  1  0
 19 47  1  0
 20 48  1  0
 22 49  1  0
 23 50  1  0
 25 51  1  0
 28 52  1  0
 29 53  1  0
M  END
>  <smiles>  (19) 
O=C(NCC(=O)N1CCC[C@H]1CNc1ccc(Cl)cc1)c1ccc2cc(F)ccc2n1

>  <score_type>  (19) 
oracle

>  <origin>  (19) 
autodockgpu

>  <m_score__min__energy>  (19) 
-9

>  <m_primary>  (19) 
energy

>  <rmsd>  (19) 
2.2964883533296483

>  <m_score__min__rmsd>  (19) 
2.2964883533296483

>  <meeko>  (19) 
{"free_energy": -7.47, "intermolecular_energy": -9.56, "internal_energy": -2.63, "cluster_size": 20, "cluster_id": 1, "rank_in_cluster": 19}

>  <energy>  (19) 
-7.47

>  <cluster_rmsd>  (19) 
1.24

>  <cluster>  (19) 
1

$$$$

     RDKit          3D

 53 56  0  0  0  0  0  0  0  0999 V2000
  139.6410   75.9100  220.0680 O   0  0  0  0  0  0  0  0  0  0  0  0
  139.4030   76.0560  221.3100 C   0  0  0  0  0  0  0  0  0  0  0  0
  138.7570   75.0520  222.0840 N   0  0  0  0  0  0  0  0  0  0  0  0
  138.3410   73.7930  221.4620 C   0  0  0  0  0  0  0  0  0  0  0  0
  139.2600   72.7050  221.9480 C   0  0  0  0  0  0  0  0  0  0  0  0
  140.3810   73.0920  222.3520 O   0  0  0  0  0  0  0  0  0  0  0  0
  138.8340   71.3530  221.9260 N   0  0  0  0  0  0  0  0  0  0  0  0
  139.2170   70.4010  220.8820 C   0  0  0  0  0  0  0  0  0  0  0  0
  139.5750   69.1990  221.7090 C   0  0  0  0  0  0  0  0  0  0  0  0
  138.5470   69.1930  222.8020 C   0  0  0  0  0  0  0  0  0  0  0  0
  138.0000   70.5920  222.8120 C   0  0  1  0  0  0  0  0  0  0  0  0
  138.0180   71.1870  224.1850 C   0  0  0  0  0  0  0  0  0  0  0  0
  139.3940   71.5020  224.6050 N   0  0  0  0  0  0  0  0  0  0  0  0
  139.8980   70.7080  225.6910 C   0  0  0  0  0  0  0  0  0  0  0  0
  140.5530   71.3260  226.7220 C   0  0  0  0  0  0  0  0  0  0  0  0
  141.0260   70.5160  227.7600 C   0  0  0  0  0  0  0  0  0  0  0  0
  140.8520   69.1550  227.7670 C   0  0  0  0  0  0  0  0  0  0  0  0
  141.4390   68.1240  229.0610 Cl  0  0  0  0  0  0  0  0  0  0  0  0
  140.1910   68.5490  226.7240 C   0  0  0  0  0  0  0  0  0  0  0  0
  139.7200   69.3420  225.6930 C   0  0  0  0  0  0  0  0  0  0  0  0
  139.8120   77.3100  221.9730 C   0  0  0  0  0  0  0  0  0  0  0  0
  138.8490   78.0960  222.5900 C   0  0  0  0  0  0  0  0  0  0  0  0
  139.1670   79.2770  223.2250 C   0  0  0  0  0  0  0  0  0  0  0  0
  140.4850   79.6700  223.2340 C   0  0  0  0  0  0  0  0  0  0  0  0
  140.8420   80.8350  223.8500 C   0  0  0  0  0  0  0  0  0  0  0  0
  142.1750   81.2100  223.8450 C   0  0  0  0  0  0  0  0  0  0  0  0
  142.5580   82.3580  224.4470 F   0  0  0  0  0  0  0  0  0  0  0  0
  143.1130   80.4070  223.2220 C   0  0  0  0  0  0  0  0  0  0  0  0
  142.7560   79.2160  222.5900 C   0  0  0  0  0  0  0  0  0  0  0  0
  141.4110   78.8570  222.6060 C   0  0  0  0  0  0  0  0  0  0  0  0
  141.0930   77.7120  221.9920 N   0  0  0  0  0  0  0  0  0  0  0  0
  138.5820   75.2290  223.1190 H   0  0  0  0  0  0  0  0  0  0  0  0
  137.3045   73.5607  221.7477 H   0  0  0  0  0  0  0  0  0  0  0  0
  138.3927   73.8741  220.3662 H   0  0  0  0  0  0  0  0  0  0  0  0
  138.3791   70.1885  220.2017 H   0  0  0  0  0  0  0  0  0  0  0  0
  140.0222   70.7528  220.2202 H   0  0  0  0  0  0  0  0  0  0  0  0
  139.5136   68.2790  221.1091 H   0  0  0  0  0  0  0  0  0  0  0  0
  140.6041   69.2413  222.0951 H   0  0  0  0  0  0  0  0  0  0  0  0
  137.7511   68.4659  222.5831 H   0  0  0  0  0  0  0  0  0  0  0  0
  138.9721   68.9033  223.7743 H   0  0  0  0  0  0  0  0  0  0  0  0
  136.9483   70.5958  222.4896 H   0  0  0  0  0  0  0  0  0  0  0  0
  137.4214   72.1112  224.1845 H   0  0  0  0  0  0  0  0  0  0  0  0
  137.5949   70.4559  224.8896 H   0  0  0  0  0  0  0  0  0  0  0  0
  139.9600   72.2400  224.1540 H   0  0  0  0  0  0  0  0  0  0  0  0
  140.7015   72.4159  226.7339 H   0  0  0  0  0  0  0  0  0  0  0  0
  141.5564   70.9871  228.6007 H   0  0  0  0  0  0  0  0  0  0  0  0
  140.0404   67.4594  226.7101 H   0  0  0  0  0  0  0  0  0  0  0  0
  139.1896   68.8696  224.8530 H   0  0  0  0  0  0  0  0  0  0  0  0
  137.7997   77.7663  222.5716 H   0  0  0  0  0  0  0  0  0  0  0  0
  138.3904   79.8868  223.7099 H   0  0  0  0  0  0  0  0  0  0  0  0
  140.0849   81.4640  224.3411 H   0  0  0  0  0  0  0  0  0  0  0  0
  144.1688   80.7159  223.2250 H   0  0  0  0  0  0  0  0  0  0  0  0
  143.5093   78.5838  222.0972 H   0  0  0  0  0  0  0  0  0  0  0  0
  1  2  2  0
  2  3  1  0
  3  4  1  0
  4  5  1  0
  5  6  2  0
  5  7  1  0
  7  8  1  0
  8  9  1  0
  9 10  1  0
 10 11  1  0
 11 12  1  0
 12 13  1  0
 13 14  1  0
 14 15  2  0
 15 16  1  0
 16 17  2  0
 17 18  1  0
 17 19  1  0
 19 20  2  0
  2 21  1  0
 21 22  2  0
 22 23  1  0
 23 24  2  0
 24 25  1  0
 25 26  2  0
 26 27  1  0
 26 28  1  0
 28 29  2  0
 29 30  1  0
 30 31  2  0
 11  7  1  0
 20 14  1  0
 31 21  1  0
 30 24  1  0
  3 32  1  0
  4 33  1  0
  4 34  1  0
  8 35  1  0
  8 36  1  0
  9 37  1  0
  9 38  1  0
 10 39  1  0
 10 40  1  0
 11 41  1  6
 12 42  1  0
 12 43  1  0
 13 44  1  0
 15 45  1  0
 16 46  1  0
 19 47  1  0
 20 48  1  0
 22 49  1  0
 23 50  1  0
 25 51  1  0
 28 52  1  0
 29 53  1  0
M  END
>  <smiles>  (20) 
O=C(NCC(=O)N1CCC[C@H]1CNc1ccc(Cl)cc1)c1ccc2cc(F)ccc2n1

>  <score_type>  (20) 
oracle

>  <origin>  (20) 
autodockgpu

>  <m_score__min__energy>  (20) 
-9

>  <m_primary>  (20) 
energy

>  <rmsd>  (20) 
9.29789572085653

>  <m_score__min__rmsd>  (20) 
9.29789572085653

>  <meeko>  (20) 
{"free_energy": -8.66, "intermolecular_energy": -10.75, "internal_energy": -2.06, "cluster_size": 12, "cluster_id": 2, "rank_in_cluster": 1}

>  <energy>  (20) 
-7.28

>  <cluster_rmsd>  (20) 
1.9

>  <cluster>  (20) 
1

$$$$

     RDKit          3D

 53 56  0  0  0  0  0  0  0  0999 V2000
  139.8240   70.8910  221.1190 O   0  0  0  0  0  0  0  0  0  0  0  0
  139.7400   71.5070  222.2300 C   0  0  0  0  0  0  0  0  0  0  0  0
  139.6140   72.9220  222.3080 N   0  0  0  0  0  0  0  0  0  0  0  0
  139.5740   73.7280  221.0850 C   0  0  0  0  0  0  0  0  0  0  0  0
  140.5230   74.8840  221.2560 C   0  0  0  0  0  0  0  0  0  0  0  0
  140.4270   75.4990  222.3430 O   0  0  0  0  0  0  0  0  0  0  0  0
  141.4390   75.2080  220.2240 N   0  0  0  0  0  0  0  0  0  0  0  0
  141.4830   76.5140  219.5640 C   0  0  0  0  0  0  0  0  0  0  0  0
  142.9620   76.7780  219.5500 C   0  0  0  0  0  0  0  0  0  0  0  0
  143.5660   75.4370  219.2540 C   0  0  0  0  0  0  0  0  0  0  0  0
  142.4800   74.4540  219.5870 C   0  0  1  0  0  0  0  0  0  0  0  0
  142.9690   73.3710  220.4970 C   0  0  0  0  0  0  0  0  0  0  0  0
  144.3860   73.0660  220.2390 N   0  0  0  0  0  0  0  0  0  0  0  0
  144.6630   71.7010  219.8860 C   0  0  0  0  0  0  0  0  0  0  0  0
  145.8860   71.3830  219.3600 C   0  0  0  0  0  0  0  0  0  0  0  0
  146.1150   70.0420  219.0320 C   0  0  0  0  0  0  0  0  0  0  0  0
  145.1680   69.0680  219.2200 C   0  0  0  0  0  0  0  0  0  0  0  0
  145.4380   67.3810  218.8140 Cl  0  0  0  0  0  0  0  0  0  0  0  0
  143.9440   69.4040  219.7500 C   0  0  0  0  0  0  0  0  0  0  0  0
  143.7090   70.7280  220.0780 C   0  0  0  0  0  0  0  0  0  0  0  0
  139.7720   70.7280  223.4840 C   0  0  0  0  0  0  0  0  0  0  0  0
  139.2130   69.4580  223.5070 C   0  0  0  0  0  0  0  0  0  0  0  0
  139.2110   68.6820  224.6460 C   0  0  0  0  0  0  0  0  0  0  0  0
  139.7860   69.2010  225.7820 C   0  0  0  0  0  0  0  0  0  0  0  0
  139.8030   68.4650  226.9320 C   0  0  0  0  0  0  0  0  0  0  0  0
  140.3870   69.0090  228.0630 C   0  0  0  0  0  0  0  0  0  0  0  0
  140.4190   68.3050  229.2160 F   0  0  0  0  0  0  0  0  0  0  0  0
  140.9370   70.2780  228.0100 C   0  0  0  0  0  0  0  0  0  0  0  0
  140.9230   71.0360  226.8390 C   0  0  0  0  0  0  0  0  0  0  0  0
  140.3310   70.4700  225.7130 C   0  0  0  0  0  0  0  0  0  0  0  0
  140.3280   71.2160  224.6040 N   0  0  0  0  0  0  0  0  0  0  0  0
  139.5490   73.3850  223.2640 H   0  0  0  0  0  0  0  0  0  0  0  0
  139.8830   73.1160  220.2248 H   0  0  0  0  0  0  0  0  0  0  0  0
  138.5533   74.0962  220.9042 H   0  0  0  0  0  0  0  0  0  0  0  0
  141.0715   76.4658  218.5450 H   0  0  0  0  0  0  0  0  0  0  0  0
  140.8877   77.2939  220.0614 H   0  0  0  0  0  0  0  0  0  0  0  0
  143.2221   77.5056  218.7671 H   0  0  0  0  0  0  0  0  0  0  0  0
  143.3250   77.2069  220.4957 H   0  0  0  0  0  0  0  0  0  0  0  0
  143.8461   75.3623  218.1929 H   0  0  0  0  0  0  0  0  0  0  0  0
  144.4854   75.2558  219.8301 H   0  0  0  0  0  0  0  0  0  0  0  0
  142.1241   73.9527  218.6749 H   0  0  0  0  0  0  0  0  0  0  0  0
  142.8558   73.6995  221.5407 H   0  0  0  0  0  0  0  0  0  0  0  0
  142.3756   72.4633  220.3126 H   0  0  0  0  0  0  0  0  0  0  0  0
  145.1320   73.7790  220.3060 H   0  0  0  0  0  0  0  0  0  0  0  0
  146.6578   72.1506  219.2015 H   0  0  0  0  0  0  0  0  0  0  0  0
  147.0898   69.7589  218.6081 H   0  0  0  0  0  0  0  0  0  0  0  0
  143.1702   68.6386  219.9094 H   0  0  0  0  0  0  0  0  0  0  0  0
  142.7344   71.0098  220.5032 H   0  0  0  0  0  0  0  0  0  0  0  0
  138.7578   69.0587  222.5886 H   0  0  0  0  0  0  0  0  0  0  0  0
  138.7628   67.6775  224.6462 H   0  0  0  0  0  0  0  0  0  0  0  0
  139.3607   67.4582  226.9592 H   0  0  0  0  0  0  0  0  0  0  0  0
  141.3974   70.7001  228.9154 H   0  0  0  0  0  0  0  0  0  0  0  0
  141.3633   72.0435  226.8064 H   0  0  0  0  0  0  0  0  0  0  0  0
  1  2  2  0
  2  3  1  0
  3  4  1  0
  4  5  1  0
  5  6  2  0
  5  7  1  0
  7  8  1  0
  8  9  1  0
  9 10  1  0
 10 11  1  0
 11 12  1  0
 12 13  1  0
 13 14  1  0
 14 15  2  0
 15 16  1  0
 16 17  2  0
 17 18  1  0
 17 19  1  0
 19 20  2  0
  2 21  1  0
 21 22  2  0
 22 23  1  0
 23 24  2  0
 24 25  1  0
 25 26  2  0
 26 27  1  0
 26 28  1  0
 28 29  2  0
 29 30  1  0
 30 31  2  0
 11  7  1  0
 20 14  1  0
 31 21  1  0
 30 24  1  0
  3 32  1  0
  4 33  1  0
  4 34  1  0
  8 35  1  0
  8 36  1  0
  9 37  1  0
  9 38  1  0
 10 39  1  0
 10 40  1  0
 11 41  1  6
 12 42  1  0
 12 43  1  0
 13 44  1  0
 15 45  1  0
 16 46  1  0
 19 47  1  0
 20 48  1  0
 22 49  1  0
 23 50  1  0
 25 51  1  0
 28 52  1  0
 29 53  1  0
M  END
>  <smiles>  (21) 
O=C(NCC(=O)N1CCC[C@H]1CNc1ccc(Cl)cc1)c1ccc2cc(F)ccc2n1

>  <score_type>  (21) 
oracle

>  <origin>  (21) 
autodockgpu

>  <m_score__min__energy>  (21) 
-9

>  <m_primary>  (21) 
energy

>  <rmsd>  (21) 
5.341895090687089

>  <m_score__min__rmsd>  (21) 
5.341895090687089

>  <meeko>  (21) 
{"free_energy": -8.03, "intermolecular_energy": -10.12, "internal_energy": -1.92, "cluster_size": 6, "cluster_id": 5, "rank_in_cluster": 2}

>  <energy>  (21) 
-8.66

>  <cluster_rmsd>  (21) 
0.0

>  <cluster>  (21) 
2

$$$$

     RDKit          3D

 53 56  0  0  0  0  0  0  0  0999 V2000
  138.6760   75.0420  222.5450 O   0  0  0  0  0  0  0  0  0  0  0  0
  139.3730   75.8090  221.8060 C   0  0  0  0  0  0  0  0  0  0  0  0
  139.7710   75.4430  220.4900 N   0  0  0  0  0  0  0  0  0  0  0  0
  139.3770   74.1460  219.9340 C   0  0  0  0  0  0  0  0  0  0  0  0
  139.9850   73.0670  220.7900 C   0  0  0  0  0  0  0  0  0  0  0  0
  140.8170   73.4620  221.6390 O   0  0  0  0  0  0  0  0  0  0  0  0
  139.6050   71.7140  220.6030 N   0  0  0  0  0  0  0  0  0  0  0  0
  140.4140   70.7420  219.8650 C   0  0  0  0  0  0  0  0  0  0  0  0
  140.3480   69.5570  220.7870 C   0  0  0  0  0  0  0  0  0  0  0  0
  138.9360   69.5710  221.2930 C   0  0  0  0  0  0  0  0  0  0  0  0
  138.4540   70.9690  221.0260 C   0  0  1  0  0  0  0  0  0  0  0  0
  137.8510   71.5920  222.2460 C   0  0  0  0  0  0  0  0  0  0  0  0
  138.8950   72.0810  223.1610 N   0  0  0  0  0  0  0  0  0  0  0  0
  139.3100   71.1470  224.1700 C   0  0  0  0  0  0  0  0  0  0  0  0
  138.4640   70.1350  224.5320 C   0  0  0  0  0  0  0  0  0  0  0  0
  138.9080   69.2460  225.5170 C   0  0  0  0  0  0  0  0  0  0  0  0
  140.1390   69.3660  226.1120 C   0  0  0  0  0  0  0  0  0  0  0  0
  140.7130   68.2610  227.3500 Cl  0  0  0  0  0  0  0  0  0  0  0  0
  140.9790   70.3890  225.7370 C   0  0  0  0  0  0  0  0  0  0  0  0
  140.5470   71.2720  224.7630 C   0  0  0  0  0  0  0  0  0  0  0  0
  139.7850   77.1260  222.3310 C   0  0  0  0  0  0  0  0  0  0  0  0
  138.8190   77.9920  222.8240 C   0  0  0  0  0  0  0  0  0  0  0  0
  139.1400   79.2340  223.3270 C   0  0  0  0  0  0  0  0  0  0  0  0
  140.4640   79.6070  223.3300 C   0  0  0  0  0  0  0  0  0  0  0  0
  140.8230   80.8310  223.8170 C   0  0  0  0  0  0  0  0  0  0  0  0
  142.1620   81.1840  223.8100 C   0  0  0  0  0  0  0  0  0  0  0  0
  142.5490   82.3880  224.2850 F   0  0  0  0  0  0  0  0  0  0  0  0
  143.1040   80.3010  223.3120 C   0  0  0  0  0  0  0  0  0  0  0  0
  142.7430   79.0490  222.8120 C   0  0  0  0  0  0  0  0  0  0  0  0
  141.3920   78.7130  222.8290 C   0  0  0  0  0  0  0  0  0  0  0  0
  141.0720   77.5090  222.3430 N   0  0  0  0  0  0  0  0  0  0  0  0
  140.3560   76.1220  219.9180 H   0  0  0  0  0  0  0  0  0  0  0  0
  138.2808   74.0545  219.9412 H   0  0  0  0  0  0  0  0  0  0  0  0
  139.7290   74.0531  218.8960 H   0  0  0  0  0  0  0  0  0  0  0  0
  139.9755   70.5144  218.8822 H   0  0  0  0  0  0  0  0  0  0  0  0
  141.4346   71.0821  219.6352 H   0  0  0  0  0  0  0  0  0  0  0  0
  140.5591   68.6251  220.2421 H   0  0  0  0  0  0  0  0  0  0  0  0
  141.0895   69.6089  221.5979 H   0  0  0  0  0  0  0  0  0  0  0  0
  138.3214   68.8376  220.7504 H   0  0  0  0  0  0  0  0  0  0  0  0
  138.8707   69.3025  222.3577 H   0  0  0  0  0  0  0  0  0  0  0  0
  137.6642   70.9634  220.2604 H   0  0  0  0  0  0  0  0  0  0  0  0
  137.2154   72.4366  221.9416 H   0  0  0  0  0  0  0  0  0  0  0  0
  137.2554   70.8300  222.7700 H   0  0  0  0  0  0  0  0  0  0  0  0
  139.3040   73.0280  223.0850 H   0  0  0  0  0  0  0  0  0  0  0  0
  137.4733   70.0244  224.0669 H   0  0  0  0  0  0  0  0  0  0  0  0
  138.2475   68.4222  225.8253 H   0  0  0  0  0  0  0  0  0  0  0  0
  141.9702   70.5023  226.2003 H   0  0  0  0  0  0  0  0  0  0  0  0
  141.2085   72.0949  224.4544 H   0  0  0  0  0  0  0  0  0  0  0  0
  137.7650   77.6773  222.8129 H   0  0  0  0  0  0  0  0  0  0  0  0
  138.3609   79.9070  223.7145 H   0  0  0  0  0  0  0  0  0  0  0  0
  140.0629   81.5236  224.2075 H   0  0  0  0  0  0  0  0  0  0  0  0
  144.1644   80.5934  223.3102 H   0  0  0  0  0  0  0  0  0  0  0  0
  143.4985   78.3529  222.4187 H   0  0  0  0  0  0  0  0  0  0  0  0
  1  2  2  0
  2  3  1  0
  3  4  1  0
  4  5  1  0
  5  6  2  0
  5  7  1  0
  7  8  1  0
  8  9  1  0
  9 10  1  0
 10 11  1  0
 11 12  1  0
 12 13  1  0
 13 14  1  0
 14 15  2  0
 15 16  1  0
 16 17  2  0
 17 18  1  0
 17 19  1  0
 19 20  2  0
  2 21  1  0
 21 22  2  0
 22 23  1  0
 23 24  2  0
 24 25  1  0
 25 26  2  0
 26 27  1  0
 26 28  1  0
 28 29  2  0
 29 30  1  0
 30 31  2  0
 11  7  1  0
 20 14  1  0
 31 21  1  0
 30 24  1  0
  3 32  1  0
  4 33  1  0
  4 34  1  0
  8 35  1  0
  8 36  1  0
  9 37  1  0
  9 38  1  0
 10 39  1  0
 10 40  1  0
 11 41  1  6
 12 42  1  0
 12 43  1  0
 13 44  1  0
 15 45  1  0
 16 46  1  0
 19 47  1  0
 20 48  1  0
 22 49  1  0
 23 50  1  0
 25 51  1  0
 28 52  1  0
 29 53  1  0
M  END
>  <smiles>  (22) 
O=C(NCC(=O)N1CCC[C@H]1CNc1ccc(Cl)cc1)c1ccc2cc(F)ccc2n1

>  <score_type>  (22) 
oracle

>  <origin>  (22) 
autodockgpu

>  <m_score__min__energy>  (22) 
-9

>  <m_primary>  (22) 
energy

>  <rmsd>  (22) 
8.886053664568067

>  <m_score__min__rmsd>  (22) 
8.886053664568067

>  <meeko>  (22) 
{"free_energy": -7.31, "intermolecular_energy": -9.4, "internal_energy": -2.95, "cluster_size": 12, "cluster_id": 2, "rank_in_cluster": 12}

>  <energy>  (22) 
-8.28

>  <cluster_rmsd>  (22) 
0.75

>  <cluster>  (22) 
2

$$$$

     RDKit          3D

 53 56  0  0  0  0  0  0  0  0999 V2000
  138.2640   70.1500  221.7000 O   0  0  0  0  0  0  0  0  0  0  0  0
  138.7370   70.8310  222.6660 C   0  0  0  0  0  0  0  0  0  0  0  0
  138.8810   72.2450  222.6020 N   0  0  0  0  0  0  0  0  0  0  0  0
  138.4790   72.9740  221.3970 C   0  0  0  0  0  0  0  0  0  0  0  0
  139.2370   74.2740  221.3610 C   0  0  0  0  0  0  0  0  0  0  0  0
  140.0370   74.4530  222.3090 O   0  0  0  0  0  0  0  0  0  0  0  0
  139.0210   75.1930  220.3040 N   0  0  0  0  0  0  0  0  0  0  0  0
  139.1390   74.8400  218.8890 C   0  0  0  0  0  0  0  0  0  0  0  0
  137.9050   75.4880  218.3280 C   0  0  0  0  0  0  0  0  0  0  0  0
  137.8060   76.7840  219.0770 C   0  0  0  0  0  0  0  0  0  0  0  0
  138.6630   76.5820  220.2940 C   0  0  1  0  0  0  0  0  0  0  0  0
  137.9350   76.9410  221.5520 C   0  0  0  0  0  0  0  0  0  0  0  0
  138.8010   76.7690  222.7300 N   0  0  0  0  0  0  0  0  0  0  0  0
  139.6880   77.8660  223.0030 C   0  0  0  0  0  0  0  0  0  0  0  0
  139.1670   79.0510  223.4470 C   0  0  0  0  0  0  0  0  0  0  0  0
  140.0660   80.0920  223.7030 C   0  0  0  0  0  0  0  0  0  0  0  0
  141.4190   79.9560  223.5210 C   0  0  0  0  0  0  0  0  0  0  0  0
  142.5610   81.2510  223.8360 Cl  0  0  0  0  0  0  0  0  0  0  0  0
  141.9270   78.7580  223.0730 C   0  0  0  0  0  0  0  0  0  0  0  0
  141.0450   77.7230  222.8190 C   0  0  0  0  0  0  0  0  0  0  0  0
  139.1500   70.1310  223.8990 C   0  0  0  0  0  0  0  0  0  0  0  0
  138.9210   68.7670  224.0130 C   0  0  0  0  0  0  0  0  0  0  0  0
  139.2820   68.0580  225.1380 C   0  0  0  0  0  0  0  0  0  0  0  0
  139.8860   68.7420  226.1670 C   0  0  0  0  0  0  0  0  0  0  0  0
  140.2580   68.0760  227.2990 C   0  0  0  0  0  0  0  0  0  0  0  0
  140.8630   68.7870  228.3210 C   0  0  0  0  0  0  0  0  0  0  0  0
  141.2420   68.1560  229.4550 F   0  0  0  0  0  0  0  0  0  0  0  0
  141.0790   70.1470  228.1800 C   0  0  0  0  0  0  0  0  0  0  0  0
  140.7010   70.8340  227.0260 C   0  0  0  0  0  0  0  0  0  0  0  0
  140.0940   70.1000  226.0100 C   0  0  0  0  0  0  0  0  0  0  0  0
  139.7400   70.7810  224.9150 N   0  0  0  0  0  0  0  0  0  0  0  0
  139.2850   72.7630  223.4390 H   0  0  0  0  0  0  0  0  0  0  0  0
  138.7183   72.3782  220.5038 H   0  0  0  0  0  0  0  0  0  0  0  0
  137.3958   73.1652  221.4113 H   0  0  0  0  0  0  0  0  0  0  0  0
  140.0533   75.2585  218.4431 H   0  0  0  0  0  0  0  0  0  0  0  0
  139.2116   73.7595  218.6957 H   0  0  0  0  0  0  0  0  0  0  0  0
  138.0135   75.6673  217.2482 H   0  0  0  0  0  0  0  0  0  0  0  0
  137.0077   74.8621  218.4425 H   0  0  0  0  0  0  0  0  0  0  0  0
  138.1875   77.6158  218.4666 H   0  0  0  0  0  0  0  0  0  0  0  0
  136.7676   77.0397  219.3346 H   0  0  0  0  0  0  0  0  0  0  0  0
  139.5483   77.2336  220.2534 H   0  0  0  0  0  0  0  0  0  0  0  0
  137.6117   77.9908  221.4934 H   0  0  0  0  0  0  0  0  0  0  0  0
  137.0655   76.2752  221.6560 H   0  0  0  0  0  0  0  0  0  0  0  0
  138.7770   75.9210  223.3220 H   0  0  0  0  0  0  0  0  0  0  0  0
  138.0849   79.1799  223.5966 H   0  0  0  0  0  0  0  0  0  0  0  0
  139.6738   81.0545  224.0633 H   0  0  0  0  0  0  0  0  0  0  0  0
  143.0084   78.6266  222.9205 H   0  0  0  0  0  0  0  0  0  0  0  0
  141.4382   76.7603  222.4605 H   0  0  0  0  0  0  0  0  0  0  0  0
  138.4368   68.2359  223.1803 H   0  0  0  0  0  0  0  0  0  0  0  0
  139.0927   66.9769  225.2109 H   0  0  0  0  0  0  0  0  0  0  0  0
  140.0804   66.9949  227.3972 H   0  0  0  0  0  0  0  0  0  0  0  0
  141.5612   70.7005  228.9992 H   0  0  0  0  0  0  0  0  0  0  0  0
  140.8759   71.9151  226.9225 H   0  0  0  0  0  0  0  0  0  0  0  0
  1  2  2  0
  2  3  1  0
  3  4  1  0
  4  5  1  0
  5  6  2  0
  5  7  1  0
  7  8  1  0
  8  9  1  0
  9 10  1  0
 10 11  1  0
 11 12  1  0
 12 13  1  0
 13 14  1  0
 14 15  2  0
 15 16  1  0
 16 17  2  0
 17 18  1  0
 17 19  1  0
 19 20  2  0
  2 21  1  0
 21 22  2  0
 22 23  1  0
 23 24  2  0
 24 25  1  0
 25 26  2  0
 26 27  1  0
 26 28  1  0
 28 29  2  0
 29 30  1  0
 30 31  2  0
 11  7  1  0
 20 14  1  0
 31 21  1  0
 30 24  1  0
  3 32  1  0
  4 33  1  0
  4 34  1  0
  8 35  1  0
  8 36  1  0
  9 37  1  0
  9 38  1  0
 10 39  1  0
 10 40  1  0
 11 41  1  6
 12 42  1  0
 12 43  1  0
 13 44  1  0
 15 45  1  0
 16 46  1  0
 19 47  1  0
 20 48  1  0
 22 49  1  0
 23 50  1  0
 25 51  1  0
 28 52  1  0
 29 53  1  0
M  END
>  <smiles>  (23) 
O=C(NCC(=O)N1CCC[C@H]1CNc1ccc(Cl)cc1)c1ccc2cc(F)ccc2n1

>  <score_type>  (23) 
oracle

>  <origin>  (23) 
autodockgpu

>  <m_score__min__energy>  (23) 
-9

>  <m_primary>  (23) 
energy

>  <rmsd>  (23) 
2.2746982290141418

>  <m_score__min__rmsd>  (23) 
2.2746982290141418

>  <meeko>  (23) 
{"free_energy": -8.14, "intermolecular_energy": -10.23, "internal_energy": -2.78, "cluster_size": 20, "cluster_id": 1, "rank_in_cluster": 11}

>  <energy>  (23) 
-8.08

>  <cluster_rmsd>  (23) 
1.6

>  <cluster>  (23) 
2

$$$$

     RDKit          3D

 53 56  0  0  0  0  0  0  0  0999 V2000
  137.2790   76.6070  221.1570 O   0  0  0  0  0  0  0  0  0  0  0  0
  138.2650   76.4970  221.9540 C   0  0  0  0  0  0  0  0  0  0  0  0
  138.7560   75.2350  222.3890 N   0  0  0  0  0  0  0  0  0  0  0  0
  138.1270   73.9980  221.9200 C   0  0  0  0  0  0  0  0  0  0  0  0
  139.1420   72.8900  222.0230 C   0  0  0  0  0  0  0  0  0  0  0  0
  140.2880   73.2460  222.3820 O   0  0  0  0  0  0  0  0  0  0  0  0
  138.7690   71.5560  221.7230 N   0  0  0  0  0  0  0  0  0  0  0  0
  139.2470   70.8290  220.5460 C   0  0  0  0  0  0  0  0  0  0  0  0
  139.6030   69.5010  221.1550 C   0  0  0  0  0  0  0  0  0  0  0  0
  138.5150   69.2620  222.1600 C   0  0  0  0  0  0  0  0  0  0  0  0
  137.9150   70.6190  222.3960 C   0  0  1  0  0  0  0  0  0  0  0  0
  137.8320   70.9450  223.8540 C   0  0  0  0  0  0  0  0  0  0  0  0
  139.1310   71.4100  224.3660 N   0  0  0  0  0  0  0  0  0  0  0  0
  139.6710   70.6420  225.4540 C   0  0  0  0  0  0  0  0  0  0  0  0
  140.5230   71.2460  226.3390 C   0  0  0  0  0  0  0  0  0  0  0  0
  141.0230   70.4620  227.3840 C   0  0  0  0  0  0  0  0  0  0  0  0
  140.6880   69.1400  227.5360 C   0  0  0  0  0  0  0  0  0  0  0  0
  141.3070   68.1420  228.8420 Cl  0  0  0  0  0  0  0  0  0  0  0  0
  139.8310   68.5480  226.6380 C   0  0  0  0  0  0  0  0  0  0  0  0
  139.3310   69.3160  225.6010 C   0  0  0  0  0  0  0  0  0  0  0  0
  138.9270   77.7230  222.4440 C   0  0  0  0  0  0  0  0  0  0  0  0
  138.1510   78.8230  222.7830 C   0  0  0  0  0  0  0  0  0  0  0  0
  138.7090   79.9950  223.2450 C   0  0  0  0  0  0  0  0  0  0  0  0
  140.0770   80.0550  223.3660 C   0  0  0  0  0  0  0  0  0  0  0  0
  140.6690   81.1990  223.8190 C   0  0  0  0  0  0  0  0  0  0  0  0
  142.0490   81.2360  223.9320 C   0  0  0  0  0  0  0  0  0  0  0  0
  142.6640   82.3540  224.3770 F   0  0  0  0  0  0  0  0  0  0  0  0
  142.7970   80.1240  223.5860 C   0  0  0  0  0  0  0  0  0  0  0  0
  142.1990   78.9520  223.1230 C   0  0  0  0  0  0  0  0  0  0  0  0
  140.8110   78.9360  223.0170 C   0  0  0  0  0  0  0  0  0  0  0  0
  140.2610   77.8020  222.5690 N   0  0  0  0  0  0  0  0  0  0  0  0
  139.5830   75.2030  223.0580 H   0  0  0  0  0  0  0  0  0  0  0  0
  137.2535   73.7631  222.5459 H   0  0  0  0  0  0  0  0  0  0  0  0
  137.7908   74.1119  220.8788 H   0  0  0  0  0  0  0  0  0  0  0  0
  138.4581   70.7267  219.7863 H   0  0  0  0  0  0  0  0  0  0  0  0
  140.0748   71.3208  220.0142 H   0  0  0  0  0  0  0  0  0  0  0  0
  139.6109   68.7096  220.3911 H   0  0  0  0  0  0  0  0  0  0  0  0
  140.6061   69.4964  221.6064 H   0  0  0  0  0  0  0  0  0  0  0  0
  137.7613   68.5681  221.7593 H   0  0  0  0  0  0  0  0  0  0  0  0
  138.8945   68.8060  223.0863 H   0  0  0  0  0  0  0  0  0  0  0  0
  136.8843   70.6547  222.0135 H   0  0  0  0  0  0  0  0  0  0  0  0
  137.0825   71.7362  224.0035 H   0  0  0  0  0  0  0  0  0  0  0  0
  137.5459   70.0343  224.4006 H   0  0  0  0  0  0  0  0  0  0  0  0
  139.6240   72.2310  223.9740 H   0  0  0  0  0  0  0  0  0  0  0  0
  140.8029   72.3045  226.2327 H   0  0  0  0  0  0  0  0  0  0  0  0
  141.7095   70.9218  228.1101 H   0  0  0  0  0  0  0  0  0  0  0  0
  139.5497   67.4896  226.7415 H   0  0  0  0  0  0  0  0  0  0  0  0
  138.6443   68.8552  224.8756 H   0  0  0  0  0  0  0  0  0  0  0  0
  137.0579   78.7570  222.6797 H   0  0  0  0  0  0  0  0  0  0  0  0
  138.0786   80.8569  223.5091 H   0  0  0  0  0  0  0  0  0  0  0  0
  140.0612   82.0751  224.0892 H   0  0  0  0  0  0  0  0  0  0  0  0
  143.8923   80.1656  223.6786 H   0  0  0  0  0  0  0  0  0  0  0  0
  142.8019   78.0728  222.8516 H   0  0  0  0  0  0  0  0  0  0  0  0
  1  2  2  0
  2  3  1  0
  3  4  1  0
  4  5  1  0
  5  6  2  0
  5  7  1  0
  7  8  1  0
  8  9  1  0
  9 10  1  0
 10 11  1  0
 11 12  1  0
 12 13  1  0
 13 14  1  0
 14 15  2  0
 15 16  1  0
 16 17  2  0
 17 18  1  0
 17 19  1  0
 19 20  2  0
  2 21  1  0
 21 22  2  0
 22 23  1  0
 23 24  2  0
 24 25  1  0
 25 26  2  0
 26 27  1  0
 26 28  1  0
 28 29  2  0
 29 30  1  0
 30 31  2  0
 11  7  1  0
 20 14  1  0
 31 21  1  0
 30 24  1  0
  3 32  1  0
  4 33  1  0
  4 34  1  0
  8 35  1  0
  8 36  1  0
  9 37  1  0
  9 38  1  0
 10 39  1  0
 10 40  1  0
 11 41  1  6
 12 42  1  0
 12 43  1  0
 13 44  1  0
 15 45  1  0
 16 46  1  0
 19 47  1  0
 20 48  1  0
 22 49  1  0
 23 50  1  0
 25 51  1  0
 28 52  1  0
 29 53  1  0
M  END
>  <smiles>  (24) 
O=C(NCC(=O)N1CCC[C@H]1CNc1ccc(Cl)cc1)c1ccc2cc(F)ccc2n1

>  <score_type>  (24) 
oracle

>  <origin>  (24) 
autodockgpu

>  <m_score__min__energy>  (24) 
-9

>  <m_primary>  (24) 
energy

>  <rmsd>  (24) 
9.306295181947142

>  <m_score__min__rmsd>  (24) 
9.306295181947142

>  <meeko>  (24) 
{"free_energy": -8.28, "intermolecular_energy": -10.37, "internal_energy": -2.59, "cluster_size": 12, "cluster_id": 2, "rank_in_cluster": 2}

>  <energy>  (24) 
-8.01

>  <cluster_rmsd>  (24) 
1.61

>  <cluster>  (24) 
2

$$$$

     RDKit          3D

 53 56  0  0  0  0  0  0  0  0999 V2000
  140.9260   72.0780  221.3400 O   0  0  0  0  0  0  0  0  0  0  0  0
  140.1400   72.4200  222.2810 C   0  0  0  0  0  0  0  0  0  0  0  0
  139.3380   73.5930  222.2150 N   0  0  0  0  0  0  0  0  0  0  0  0
  139.3940   74.4600  221.0360 C   0  0  0  0  0  0  0  0  0  0  0  0
  140.6020   75.3490  221.1660 C   0  0  0  0  0  0  0  0  0  0  0  0
  141.1070   75.4020  222.3110 O   0  0  0  0  0  0  0  0  0  0  0  0
  141.0890   76.0530  220.0370 N   0  0  0  0  0  0  0  0  0  0  0  0
  140.3670   77.1530  219.3960 C   0  0  0  0  0  0  0  0  0  0  0  0
  141.4740   78.1520  219.2090 C   0  0  0  0  0  0  0  0  0  0  0  0
  142.6560   77.3130  218.8210 C   0  0  0  0  0  0  0  0  0  0  0  0
  142.2940   75.9240  219.2670 C   0  0  1  0  0  0  0  0  0  0  0  0
  143.3770   75.3050  220.0940 C   0  0  0  0  0  0  0  0  0  0  0  0
  142.9710   73.9790  220.5880 N   0  0  0  0  0  0  0  0  0  0  0  0
  143.8010   72.8870  220.1620 C   0  0  0  0  0  0  0  0  0  0  0  0
  145.1610   73.0430  220.1620 C   0  0  0  0  0  0  0  0  0  0  0  0
  145.9330   71.9540  219.7430 C   0  0  0  0  0  0  0  0  0  0  0  0
  145.3720   70.7680  219.3420 C   0  0  0  0  0  0  0  0  0  0  0  0
  146.3250   69.3920  218.8120 Cl  0  0  0  0  0  0  0  0  0  0  0  0
  144.0040   70.6270  219.3480 C   0  0  0  0  0  0  0  0  0  0  0  0
  143.2330   71.6980  219.7620 C   0  0  0  0  0  0  0  0  0  0  0  0
  140.0540   71.5680  223.4840 C   0  0  0  0  0  0  0  0  0  0  0  0
  139.3930   70.3500  223.4070 C   0  0  0  0  0  0  0  0  0  0  0  0
  139.2780   69.5110  224.4940 C   0  0  0  0  0  0  0  0  0  0  0  0
  139.8430   69.9130  225.6820 C   0  0  0  0  0  0  0  0  0  0  0  0
  139.7500   69.1120  226.7830 C   0  0  0  0  0  0  0  0  0  0  0  0
  140.3260   69.5380  227.9680 C   0  0  0  0  0  0  0  0  0  0  0  0
  140.2500   68.7670  229.0750 F   0  0  0  0  0  0  0  0  0  0  0  0
  140.9780   70.7570  228.0160 C   0  0  0  0  0  0  0  0  0  0  0  0
  141.0770   71.5820  226.8940 C   0  0  0  0  0  0  0  0  0  0  0  0
  140.4910   71.1340  225.7130 C   0  0  0  0  0  0  0  0  0  0  0  0
  140.5980   71.9420  224.6530 N   0  0  0  0  0  0  0  0  0  0  0  0
  138.7000   73.8310  223.0330 H   0  0  0  0  0  0  0  0  0  0  0  0
  139.4782   73.8473  220.1263 H   0  0  0  0  0  0  0  0  0  0  0  0
  138.4796   75.0675  220.9659 H   0  0  0  0  0  0  0  0  0  0  0  0
  139.9338   76.8450  218.4329 H   0  0  0  0  0  0  0  0  0  0  0  0
  139.5091   77.5293  219.9726 H   0  0  0  0  0  0  0  0  0  0  0  0
  141.2242   78.8683  218.4124 H   0  0  0  0  0  0  0  0  0  0  0  0
  141.6589   78.7539  220.1110 H   0  0  0  0  0  0  0  0  0  0  0  0
  142.8139   77.3432  217.7328 H   0  0  0  0  0  0  0  0  0  0  0  0
  143.5904   77.6693  219.2792 H   0  0  0  0  0  0  0  0  0  0  0  0
  142.1565   75.2648  218.3972 H   0  0  0  0  0  0  0  0  0  0  0  0
  144.2826   75.1979  219.4789 H   0  0  0  0  0  0  0  0  0  0  0  0
  143.5732   75.9561  220.9586 H   0  0  0  0  0  0  0  0  0  0  0  0
  142.1470   73.8380  221.1980 H   0  0  0  0  0  0  0  0  0  0  0  0
  145.6283   73.9870  220.4788 H   0  0  0  0  0  0  0  0  0  0  0  0
  147.0286   72.0522  219.7348 H   0  0  0  0  0  0  0  0  0  0  0  0
  143.5340   69.6844  219.0309 H   0  0  0  0  0  0  0  0  0  0  0  0
  142.1377   71.5974  219.7720 H   0  0  0  0  0  0  0  0  0  0  0  0
  138.9472   70.0451  222.4487 H   0  0  0  0  0  0  0  0  0  0  0  0
  138.7504   68.5491  224.4142 H   0  0  0  0  0  0  0  0  0  0  0  0
  139.2271   68.1457  226.7301 H   0  0  0  0  0  0  0  0  0  0  0  0
  141.4305   71.0851  228.9634 H   0  0  0  0  0  0  0  0  0  0  0  0
  141.5983   72.5495  226.9412 H   0  0  0  0  0  0  0  0  0  0  0  0
  1  2  2  0
  2  3  1  0
  3  4  1  0
  4  5  1  0
  5  6  2  0
  5  7  1  0
  7  8  1  0
  8  9  1  0
  9 10  1  0
 10 11  1  0
 11 12  1  0
 12 13  1  0
 13 14  1  0
 14 15  2  0
 15 16  1  0
 16 17  2  0
 17 18  1  0
 17 19  1  0
 19 20  2  0
  2 21  1  0
 21 22  2  0
 22 23  1  0
 23 24  2  0
 24 25  1  0
 25 26  2  0
 26 27  1  0
 26 28  1  0
 28 29  2  0
 29 30  1  0
 30 31  2  0
 11  7  1  0
 20 14  1  0
 31 21  1  0
 30 24  1  0
  3 32  1  0
  4 33  1  0
  4 34  1  0
  8 35  1  0
  8 36  1  0
  9 37  1  0
  9 38  1  0
 10 39  1  0
 10 40  1  0
 11 41  1  6
 12 42  1  0
 12 43  1  0
 13 44  1  0
 15 45  1  0
 16 46  1  0
 19 47  1  0
 20 48  1  0
 22 49  1  0
 23 50  1  0
 25 51  1  0
 28 52  1  0
 29 53  1  0
M  END
>  <smiles>  (25) 
O=C(NCC(=O)N1CCC[C@H]1CNc1ccc(Cl)cc1)c1ccc2cc(F)ccc2n1

>  <score_type>  (25) 
oracle

>  <origin>  (25) 
autodockgpu

>  <m_score__min__energy>  (25) 
-9

>  <m_primary>  (25) 
energy

>  <rmsd>  (25) 
4.672884874596286

>  <m_score__min__rmsd>  (25) 
4.672884874596286

>  <meeko>  (25) 
{"free_energy": -8.02, "intermolecular_energy": -10.11, "internal_energy": -2.82, "cluster_size": 6, "cluster_id": 5, "rank_in_cluster": 3}

>  <energy>  (25) 
-8.0

>  <cluster_rmsd>  (25) 
0.95

>  <cluster>  (25) 
2

$$$$

     RDKit          3D

 53 56  0  0  0  0  0  0  0  0999 V2000
  137.3960   71.0490  222.5150 O   0  0  0  0  0  0  0  0  0  0  0  0
  138.4860   71.3560  223.0970 C   0  0  0  0  0  0  0  0  0  0  0  0
  139.2480   72.5000  222.7310 N   0  0  0  0  0  0  0  0  0  0  0  0
  138.7890   73.3790  221.6520 C   0  0  0  0  0  0  0  0  0  0  0  0
  139.4030   74.7370  221.8630 C   0  0  0  0  0  0  0  0  0  0  0  0
  140.6270   74.7360  222.1290 O   0  0  0  0  0  0  0  0  0  0  0  0
  138.6020   75.9020  221.7560 N   0  0  0  0  0  0  0  0  0  0  0  0
  137.1600   75.8720  221.5070 C   0  0  0  0  0  0  0  0  0  0  0  0
  136.6760   76.8800  222.5110 C   0  0  0  0  0  0  0  0  0  0  0  0
  137.7200   77.9570  222.4740 C   0  0  0  0  0  0  0  0  0  0  0  0
  138.9170   77.2990  221.8490 C   0  0  1  0  0  0  0  0  0  0  0  0
  140.1540   77.5010  222.6670 C   0  0  0  0  0  0  0  0  0  0  0  0
  141.3640   77.2660  221.8620 N   0  0  0  0  0  0  0  0  0  0  0  0
  141.6510   78.2750  220.8810 C   0  0  0  0  0  0  0  0  0  0  0  0
  141.6250   79.5930  221.2510 C   0  0  0  0  0  0  0  0  0  0  0  0
  141.9130   80.5430  220.2650 C   0  0  0  0  0  0  0  0  0  0  0  0
  142.2100   80.1920  218.9720 C   0  0  0  0  0  0  0  0  0  0  0  0
  142.5730   81.3700  217.7220 Cl  0  0  0  0  0  0  0  0  0  0  0  0
  142.2310   78.8640  218.6160 C   0  0  0  0  0  0  0  0  0  0  0  0
  141.9490   77.9170  219.5850 C   0  0  0  0  0  0  0  0  0  0  0  0
  138.9780   70.4960  224.1910 C   0  0  0  0  0  0  0  0  0  0  0  0
  138.7960   69.1230  224.1090 C   0  0  0  0  0  0  0  0  0  0  0  0
  139.2310   68.2670  225.0980 C   0  0  0  0  0  0  0  0  0  0  0  0
  139.8630   68.8130  226.1900 C   0  0  0  0  0  0  0  0  0  0  0  0
  140.3090   68.0000  227.1930 C   0  0  0  0  0  0  0  0  0  0  0  0
  140.9420   68.5720  228.2830 C   0  0  0  0  0  0  0  0  0  0  0  0
  141.3930   67.7940  229.2910 F   0  0  0  0  0  0  0  0  0  0  0  0
  141.1100   69.9440  228.3390 C   0  0  0  0  0  0  0  0  0  0  0  0
  140.6570   70.7810  227.3180 C   0  0  0  0  0  0  0  0  0  0  0  0
  140.0230   70.1850  226.2310 C   0  0  0  0  0  0  0  0  0  0  0  0
  139.5970   71.0080  225.2670 N   0  0  0  0  0  0  0  0  0  0  0  0
  140.1540   72.7070  223.2500 H   0  0  0  0  0  0  0  0  0  0  0  0
  139.1061   72.9732  220.6800 H   0  0  0  0  0  0  0  0  0  0  0  0
  137.6914   73.4513  221.6598 H   0  0  0  0  0  0  0  0  0  0  0  0
  136.9210   76.1794  220.4782 H   0  0  0  0  0  0  0  0  0  0  0  0
  136.7027   74.8765  221.6065 H   0  0  0  0  0  0  0  0  0  0  0  0
  135.6923   77.2786  222.2222 H   0  0  0  0  0  0  0  0  0  0  0  0
  136.5461   76.4497  223.5150 H   0  0  0  0  0  0  0  0  0  0  0  0
  137.3805   78.8068  221.8636 H   0  0  0  0  0  0  0  0  0  0  0  0
  137.9392   78.3617  223.4731 H   0  0  0  0  0  0  0  0  0  0  0  0
  139.1256   77.7390  220.8626 H   0  0  0  0  0  0  0  0  0  0  0  0
  140.1695   78.5333  223.0465 H   0  0  0  0  0  0  0  0  0  0  0  0
  140.1434   76.7836  223.5008 H   0  0  0  0  0  0  0  0  0  0  0  0
  141.9680   76.4360  221.9910 H   0  0  0  0  0  0  0  0  0  0  0  0
  141.3872   79.8930  222.2822 H   0  0  0  0  0  0  0  0  0  0  0  0
  141.9009   81.6091  220.5358 H   0  0  0  0  0  0  0  0  0  0  0  0
  142.4665   78.5614  217.5850 H   0  0  0  0  0  0  0  0  0  0  0  0
  141.9633   76.8512  219.3131 H   0  0  0  0  0  0  0  0  0  0  0  0
  138.2888   68.7045  223.2272 H   0  0  0  0  0  0  0  0  0  0  0  0
  139.0772   67.1809  225.0161 H   0  0  0  0  0  0  0  0  0  0  0  0
  140.1677   66.9106  227.1355 H   0  0  0  0  0  0  0  0  0  0  0  0
  141.6137   70.3869  229.2109 H   0  0  0  0  0  0  0  0  0  0  0  0
  140.7957   71.8710  227.3702 H   0  0  0  0  0  0  0  0  0  0  0  0
  1  2  2  0
  2  3  1  0
  3  4  1  0
  4  5  1  0
  5  6  2  0
  5  7  1  0
  7  8  1  0
  8  9  1  0
  9 10  1  0
 10 11  1  0
 11 12  1  0
 12 13  1  0
 13 14  1  0
 14 15  2  0
 15 16  1  0
 16 17  2  0
 17 18  1  0
 17 19  1  0
 19 20  2  0
  2 21  1  0
 21 22  2  0
 22 23  1  0
 23 24  2  0
 24 25  1  0
 25 26  2  0
 26 27  1  0
 26 28  1  0
 28 29  2  0
 29 30  1  0
 30 31  2  0
 11  7  1  0
 20 14  1  0
 31 21  1  0
 30 24  1  0
  3 32  1  0
  4 33  1  0
  4 34  1  0
  8 35  1  0
  8 36  1  0
  9 37  1  0
  9 38  1  0
 10 39  1  0
 10 40  1  0
 11 41  1  6
 12 42  1  0
 12 43  1  0
 13 44  1  0
 15 45  1  0
 16 46  1  0
 19 47  1  0
 20 48  1  0
 22 49  1  0
 23 50  1  0
 25 51  1  0
 28 52  1  0
 29 53  1  0
M  END
>  <smiles>  (26) 
O=C(NCC(=O)N1CCC[C@H]1CNc1ccc(Cl)cc1)c1ccc2cc(F)ccc2n1

>  <score_type>  (26) 
oracle

>  <origin>  (26) 
autodockgpu

>  <m_score__min__energy>  (26) 
-9

>  <m_primary>  (26) 
energy

>  <rmsd>  (26) 
2.835329091243949

>  <m_score__min__rmsd>  (26) 
2.835329091243949

>  <meeko>  (26) 
{"free_energy": -8.17, "intermolecular_energy": -10.26, "internal_energy": -2.45, "cluster_size": 20, "cluster_id": 1, "rank_in_cluster": 10}

>  <energy>  (26) 
-7.94

>  <cluster_rmsd>  (26) 
1.17

>  <cluster>  (26) 
2

$$$$

     RDKit          3D

 53 56  0  0  0  0  0  0  0  0999 V2000
  139.9690   73.0600  222.7040 O   0  0  0  0  0  0  0  0  0  0  0  0
  139.4780   71.9240  223.0040 C   0  0  0  0  0  0  0  0  0  0  0  0
  138.5670   71.2400  222.1530 N   0  0  0  0  0  0  0  0  0  0  0  0
  138.1610   71.8330  220.8770 C   0  0  0  0  0  0  0  0  0  0  0  0
  137.8320   73.2820  221.1190 C   0  0  0  0  0  0  0  0  0  0  0  0
  138.6090   74.1050  220.5810 O   0  0  0  0  0  0  0  0  0  0  0  0
  136.7100   73.6330  221.9100 N   0  0  0  0  0  0  0  0  0  0  0  0
  135.9540   72.6700  222.7130 C   0  0  0  0  0  0  0  0  0  0  0  0
  135.8030   73.4280  224.0020 C   0  0  0  0  0  0  0  0  0  0  0  0
  135.5590   74.8420  223.5630 C   0  0  0  0  0  0  0  0  0  0  0  0
  136.0490   74.8850  222.1430 C   0  0  1  0  0  0  0  0  0  0  0  0
  136.9930   76.0230  221.9150 C   0  0  0  0  0  0  0  0  0  0  0  0
  138.3180   75.7330  222.4880 N   0  0  0  0  0  0  0  0  0  0  0  0
  139.1570   76.8790  222.6990 C   0  0  0  0  0  0  0  0  0  0  0  0
  138.5860   78.0640  223.0780 C   0  0  0  0  0  0  0  0  0  0  0  0
  139.4400   79.1540  223.2760 C   0  0  0  0  0  0  0  0  0  0  0  0
  140.7980   79.0640  223.1030 C   0  0  0  0  0  0  0  0  0  0  0  0
  141.8850   80.4220  223.3460 Cl  0  0  0  0  0  0  0  0  0  0  0  0
  141.3570   77.8660  222.7220 C   0  0  0  0  0  0  0  0  0  0  0  0
  140.5200   76.7820  222.5250 C   0  0  0  0  0  0  0  0  0  0  0  0
  139.8680   71.2930  224.2810 C   0  0  0  0  0  0  0  0  0  0  0  0
  140.7150   71.9750  225.1440 C   0  0  0  0  0  0  0  0  0  0  0  0
  141.1150   71.4390  226.3490 C   0  0  0  0  0  0  0  0  0  0  0  0
  140.6500   70.1890  226.6860 C   0  0  0  0  0  0  0  0  0  0  0  0
  141.0240   69.6220  227.8710 C   0  0  0  0  0  0  0  0  0  0  0  0
  140.5430   68.3630  228.1880 C   0  0  0  0  0  0  0  0  0  0  0  0
  140.8960   67.7760  229.3520 F   0  0  0  0  0  0  0  0  0  0  0  0
  139.7010   67.7070  227.3080 C   0  0  0  0  0  0  0  0  0  0  0  0
  139.3140   68.2800  226.0960 C   0  0  0  0  0  0  0  0  0  0  0  0
  139.8090   69.5470  225.7970 C   0  0  0  0  0  0  0  0  0  0  0  0
  139.4250   70.0740  224.6290 N   0  0  0  0  0  0  0  0  0  0  0  0
  138.1870   70.2930  222.4560 H   0  0  0  0  0  0  0  0  0  0  0  0
  138.9831   71.7535  220.1504 H   0  0  0  0  0  0  0  0  0  0  0  0
  137.2845   71.3053  220.4730 H   0  0  0  0  0  0  0  0  0  0  0  0
  134.9773   72.4447  222.2600 H   0  0  0  0  0  0  0  0  0  0  0  0
  136.4383   71.6880  222.8183 H   0  0  0  0  0  0  0  0  0  0  0  0
  134.9506   73.0460  224.5830 H   0  0  0  0  0  0  0  0  0  0  0  0
  136.6826   73.3326  224.6556 H   0  0  0  0  0  0  0  0  0  0  0  0
  134.4873   75.0849  223.6120 H   0  0  0  0  0  0  0  0  0  0  0  0
  136.0718   75.5736  224.2048 H   0  0  0  0  0  0  0  0  0  0  0  0
  135.2081   75.0393  221.4509 H   0  0  0  0  0  0  0  0  0  0  0  0
  137.0982   76.1918  220.8331 H   0  0  0  0  0  0  0  0  0  0  0  0
  136.5869   76.9189  222.4074 H   0  0  0  0  0  0  0  0  0  0  0  0
  138.6260   74.7740  222.7230 H   0  0  0  0  0  0  0  0  0  0  0  0
  137.4992   78.1554  223.2211 H   0  0  0  0  0  0  0  0  0  0  0  0
  139.0072   80.1180  223.5814 H   0  0  0  0  0  0  0  0  0  0  0  0
  142.4434   77.7722  222.5775 H   0  0  0  0  0  0  0  0  0  0  0  0
  140.9542   75.8179  222.2216 H   0  0  0  0  0  0  0  0  0  0  0  0
  141.0777   72.9731  224.8574 H   0  0  0  0  0  0  0  0  0  0  0  0
  141.7860   71.9941  227.0211 H   0  0  0  0  0  0  0  0  0  0  0  0
  141.6947   70.1556  228.5605 H   0  0  0  0  0  0  0  0  0  0  0  0
  139.3265   66.7067  227.5708 H   0  0  0  0  0  0  0  0  0  0  0  0
  138.6433   67.7510  225.4029 H   0  0  0  0  0  0  0  0  0  0  0  0
  1  2  2  0
  2  3  1  0
  3  4  1  0
  4  5  1  0
  5  6  2  0
  5  7  1  0
  7  8  1  0
  8  9  1  0
  9 10  1  0
 10 11  1  0
 11 12  1  0
 12 13  1  0
 13 14  1  0
 14 15  2  0
 15 16  1  0
 16 17  2  0
 17 18  1  0
 17 19  1  0
 19 20  2  0
  2 21  1  0
 21 22  2  0
 22 23  1  0
 23 24  2  0
 24 25  1  0
 25 26  2  0
 26 27  1  0
 26 28  1  0
 28 29  2  0
 29 30  1  0
 30 31  2  0
 11  7  1  0
 20 14  1  0
 31 21  1  0
 30 24  1  0
  3 32  1  0
  4 33  1  0
  4 34  1  0
  8 35  1  0
  8 36  1  0
  9 37  1  0
  9 38  1  0
 10 39  1  0
 10 40  1  0
 11 41  1  6
 12 42  1  0
 12 43  1  0
 13 44  1  0
 15 45  1  0
 16 46  1  0
 19 47  1  0
 20 48  1  0
 22 49  1  0
 23 50  1  0
 25 51  1  0
 28 52  1  0
 29 53  1  0
M  END
>  <smiles>  (27) 
O=C(NCC(=O)N1CCC[C@H]1CNc1ccc(Cl)cc1)c1ccc2cc(F)ccc2n1

>  <score_type>  (27) 
oracle

>  <origin>  (27) 
autodockgpu

>  <m_score__min__energy>  (27) 
-9

>  <m_primary>  (27) 
energy

>  <rmsd>  (27) 
4.645786487855035

>  <m_score__min__rmsd>  (27) 
4.645786487855035

>  <meeko>  (27) 
{"free_energy": -7.96, "intermolecular_energy": -10.05, "internal_energy": -2.96, "cluster_size": 20, "cluster_id": 1, "rank_in_cluster": 15}

>  <energy>  (27) 
-7.79

>  <cluster_rmsd>  (27) 
1.14

>  <cluster>  (27) 
2

$$$$

     RDKit          3D

 53 56  0  0  0  0  0  0  0  0999 V2000
  139.9410   72.9630  222.7340 O   0  0  0  0  0  0  0  0  0  0  0  0
  140.0720   71.7020  222.8480 C   0  0  0  0  0  0  0  0  0  0  0  0
  140.0130   70.8270  221.7280 N   0  0  0  0  0  0  0  0  0  0  0  0
  139.8010   71.3640  220.3820 C   0  0  0  0  0  0  0  0  0  0  0  0
  140.5470   72.6670  220.2750 C   0  0  0  0  0  0  0  0  0  0  0  0
  139.8410   73.6680  220.0110 O   0  0  0  0  0  0  0  0  0  0  0  0
  141.9500   72.6990  220.4690 N   0  0  0  0  0  0  0  0  0  0  0  0
  142.8110   71.5220  220.3470 C   0  0  0  0  0  0  0  0  0  0  0  0
  143.9460   72.0790  219.5360 C   0  0  0  0  0  0  0  0  0  0  0  0
  144.1400   73.4610  220.0870 C   0  0  0  0  0  0  0  0  0  0  0  0
  142.8530   73.7650  220.8010 C   0  0  1  0  0  0  0  0  0  0  0  0
  142.2810   75.0820  220.3810 C   0  0  0  0  0  0  0  0  0  0  0  0
  141.2450   75.5330  221.3250 N   0  0  0  0  0  0  0  0  0  0  0  0
  141.3530   76.9040  221.7420 C   0  0  0  0  0  0  0  0  0  0  0  0
  141.0780   77.2290  223.0430 C   0  0  0  0  0  0  0  0  0  0  0  0
  141.1980   78.5750  223.4070 C   0  0  0  0  0  0  0  0  0  0  0  0
  141.5730   79.5470  222.5150 C   0  0  0  0  0  0  0  0  0  0  0  0
  141.7280   81.2390  222.9540 Cl  0  0  0  0  0  0  0  0  0  0  0  0
  141.8460   79.2030  221.2110 C   0  0  0  0  0  0  0  0  0  0  0  0
  141.7300   77.8750  220.8420 C   0  0  0  0  0  0  0  0  0  0  0  0
  140.2920   71.1240  224.1890 C   0  0  0  0  0  0  0  0  0  0  0  0
  140.7900   71.9320  225.2010 C   0  0  0  0  0  0  0  0  0  0  0  0
  141.0180   71.4520  226.4730 C   0  0  0  0  0  0  0  0  0  0  0  0
  140.7360   70.1300  226.7240 C   0  0  0  0  0  0  0  0  0  0  0  0
  140.9490   69.6150  227.9700 C   0  0  0  0  0  0  0  0  0  0  0  0
  140.6580   68.2810  228.1990 C   0  0  0  0  0  0  0  0  0  0  0  0
  140.8590   67.7420  229.4220 F   0  0  0  0  0  0  0  0  0  0  0  0
  140.1620   67.4990  227.1710 C   0  0  0  0  0  0  0  0  0  0  0  0
  139.9420   68.0180  225.8940 C   0  0  0  0  0  0  0  0  0  0  0  0
  140.2410   69.3620  225.6860 C   0  0  0  0  0  0  0  0  0  0  0  0
  140.0230   69.8360  224.4550 N   0  0  0  0  0  0  0  0  0  0  0  0
  140.1270   69.7800  221.8820 H   0  0  0  0  0  0  0  0  0  0  0  0
  140.1817   70.6539  219.6331 H   0  0  0  0  0  0  0  0  0  0  0  0
  138.7279   71.5234  220.2002 H   0  0  0  0  0  0  0  0  0  0  0  0
  143.1531   71.1682  221.3308 H   0  0  0  0  0  0  0  0  0  0  0  0
  142.3202   70.6461  219.8977 H   0  0  0  0  0  0  0  0  0  0  0  0
  144.8551   71.4740  219.6681 H   0  0  0  0  0  0  0  0  0  0  0  0
  143.7357   72.0788  218.4563 H   0  0  0  0  0  0  0  0  0  0  0  0
  144.9882   73.4850  220.7870 H   0  0  0  0  0  0  0  0  0  0  0  0
  144.3666   74.1968  219.3013 H   0  0  0  0  0  0  0  0  0  0  0  0
  143.0231   73.8356  221.8855 H   0  0  0  0  0  0  0  0  0  0  0  0
  143.0870   75.8298  220.3474 H   0  0  0  0  0  0  0  0  0  0  0  0
  141.8227   74.9641  219.3880 H   0  0  0  0  0  0  0  0  0  0  0  0
  140.4920   74.9120  221.6660 H   0  0  0  0  0  0  0  0  0  0  0  0
  140.7751   76.4635  223.7725 H   0  0  0  0  0  0  0  0  0  0  0  0
  140.9837   78.8639  224.4465 H   0  0  0  0  0  0  0  0  0  0  0  0
  142.1494   79.9662  220.4792 H   0  0  0  0  0  0  0  0  0  0  0  0
  141.9446   77.5873  219.8022 H   0  0  0  0  0  0  0  0  0  0  0  0
  141.0095   72.9873  224.9818 H   0  0  0  0  0  0  0  0  0  0  0  0
  141.4136   72.1069  227.2633 H   0  0  0  0  0  0  0  0  0  0  0  0
  141.3447   70.2484  228.7776 H   0  0  0  0  0  0  0  0  0  0  0  0
  139.9350   66.4403  227.3652 H   0  0  0  0  0  0  0  0  0  0  0  0
  139.5473   67.3889  225.0825 H   0  0  0  0  0  0  0  0  0  0  0  0
  1  2  2  0
  2  3  1  0
  3  4  1  0
  4  5  1  0
  5  6  2  0
  5  7  1  0
  7  8  1  0
  8  9  1  0
  9 10  1  0
 10 11  1  0
 11 12  1  0
 12 13  1  0
 13 14  1  0
 14 15  2  0
 15 16  1  0
 16 17  2  0
 17 18  1  0
 17 19  1  0
 19 20  2  0
  2 21  1  0
 21 22  2  0
 22 23  1  0
 23 24  2  0
 24 25  1  0
 25 26  2  0
 26 27  1  0
 26 28  1  0
 28 29  2  0
 29 30  1  0
 30 31  2  0
 11  7  1  0
 20 14  1  0
 31 21  1  0
 30 24  1  0
  3 32  1  0
  4 33  1  0
  4 34  1  0
  8 35  1  0
  8 36  1  0
  9 37  1  0
  9 38  1  0
 10 39  1  0
 10 40  1  0
 11 41  1  1
 12 42  1  0
 12 43  1  0
 13 44  1  0
 15 45  1  0
 16 46  1  0
 19 47  1  0
 20 48  1  0
 22 49  1  0
 23 50  1  0
 25 51  1  0
 28 52  1  0
 29 53  1  0
M  END
>  <smiles>  (28) 
O=C(NCC(=O)N1CCC[C@H]1CNc1ccc(Cl)cc1)c1ccc2cc(F)ccc2n1

>  <score_type>  (28) 
oracle

>  <origin>  (28) 
autodockgpu

>  <m_score__min__energy>  (28) 
-9

>  <m_primary>  (28) 
energy

>  <rmsd>  (28) 
3.9768990236295134

>  <m_score__min__rmsd>  (28) 
3.9768990236295134

>  <meeko>  (28) 
{"free_energy": -7.93, "intermolecular_energy": -10.02, "internal_energy": -2.61, "cluster_size": 7, "cluster_id": 3, "rank_in_cluster": 7}

>  <energy>  (28) 
-7.73

>  <cluster_rmsd>  (28) 
1.34

>  <cluster>  (28) 
2

$$$$

     RDKit          3D

 53 56  0  0  0  0  0  0  0  0999 V2000
  138.5630   70.1840  221.5560 O   0  0  0  0  0  0  0  0  0  0  0  0
  138.9960   70.8500  222.5500 C   0  0  0  0  0  0  0  0  0  0  0  0
  139.1750   72.2610  222.5010 N   0  0  0  0  0  0  0  0  0  0  0  0
  138.8570   73.0030  221.2790 C   0  0  0  0  0  0  0  0  0  0  0  0
  138.7090   74.4570  221.6400 C   0  0  0  0  0  0  0  0  0  0  0  0
  139.6140   74.9210  222.3730 O   0  0  0  0  0  0  0  0  0  0  0  0
  137.6030   75.1990  221.1570 N   0  0  0  0  0  0  0  0  0  0  0  0
  136.6170   74.6620  220.2170 C   0  0  0  0  0  0  0  0  0  0  0  0
  135.3360   75.1260  220.8510 C   0  0  0  0  0  0  0  0  0  0  0  0
  135.6590   76.5020  221.3530 C   0  0  0  0  0  0  0  0  0  0  0  0
  137.1600   76.5410  221.4080 C   0  0  1  0  0  0  0  0  0  0  0  0
  137.6570   77.0130  222.7380 C   0  0  0  0  0  0  0  0  0  0  0  0
  137.8130   78.4770  222.7540 N   0  0  0  0  0  0  0  0  0  0  0  0
  139.1570   78.9470  222.9380 C   0  0  0  0  0  0  0  0  0  0  0  0
  140.2010   78.0900  222.7130 C   0  0  0  0  0  0  0  0  0  0  0  0
  141.4940   78.5890  222.9020 C   0  0  0  0  0  0  0  0  0  0  0  0
  141.7320   79.8810  223.2980 C   0  0  0  0  0  0  0  0  0  0  0  0
  143.3480   80.5240  223.5400 Cl  0  0  0  0  0  0  0  0  0  0  0  0
  140.6730   80.7300  223.5200 C   0  0  0  0  0  0  0  0  0  0  0  0
  139.3900   80.2450  223.3350 C   0  0  0  0  0  0  0  0  0  0  0  0
  139.3230   70.1360  223.8010 C   0  0  0  0  0  0  0  0  0  0  0  0
  139.0240   68.7860  223.9090 C   0  0  0  0  0  0  0  0  0  0  0  0
  139.3030   68.0650  225.0500 C   0  0  0  0  0  0  0  0  0  0  0  0
  139.8970   68.7240  226.1000 C   0  0  0  0  0  0  0  0  0  0  0  0
  140.1890   68.0450  227.2490 C   0  0  0  0  0  0  0  0  0  0  0  0
  140.7870   68.7310  228.2930 C   0  0  0  0  0  0  0  0  0  0  0  0
  141.0870   68.0870  229.4430 F   0  0  0  0  0  0  0  0  0  0  0  0
  141.0740   70.0770  228.1580 C   0  0  0  0  0  0  0  0  0  0  0  0
  140.7780   70.7770  226.9870 C   0  0  0  0  0  0  0  0  0  0  0  0
  140.1780   70.0690  225.9490 C   0  0  0  0  0  0  0  0  0  0  0  0
  139.9030   70.7610  224.8380 N   0  0  0  0  0  0  0  0  0  0  0  0
  139.5430   72.7670  223.3620 H   0  0  0  0  0  0  0  0  0  0  0  0
  139.6690   72.8813  220.5469 H   0  0  0  0  0  0  0  0  0  0  0  0
  137.9249   72.6239  220.8346 H   0  0  0  0  0  0  0  0  0  0  0  0
  136.7461   75.0855  219.2100 H   0  0  0  0  0  0  0  0  0  0  0  0
  136.6803   73.5744  220.0648 H   0  0  0  0  0  0  0  0  0  0  0  0
  134.5231   75.1604  220.1107 H   0  0  0  0  0  0  0  0  0  0  0  0
  134.9904   74.4535  221.6499 H   0  0  0  0  0  0  0  0  0  0  0  0
  135.2754   77.2675  220.6625 H   0  0  0  0  0  0  0  0  0  0  0  0
  135.1996   76.7085  222.3309 H   0  0  0  0  0  0  0  0  0  0  0  0
  137.5533   77.2497  220.6643 H   0  0  0  0  0  0  0  0  0  0  0  0
  136.9368   76.7195  223.5159 H   0  0  0  0  0  0  0  0  0  0  0  0
  138.6384   76.5540  222.9283 H   0  0  0  0  0  0  0  0  0  0  0  0
  137.0140   79.1250  222.6400 H   0  0  0  0  0  0  0  0  0  0  0  0
  140.0297   77.0506  222.3963 H   0  0  0  0  0  0  0  0  0  0  0  0
  142.3508   77.9217  222.7269 H   0  0  0  0  0  0  0  0  0  0  0  0
  140.8417   81.7697  223.8370 H   0  0  0  0  0  0  0  0  0  0  0  0
  138.5342   80.9136  223.5096 H   0  0  0  0  0  0  0  0  0  0  0  0
  138.5497   68.2752  223.0581 H   0  0  0  0  0  0  0  0  0  0  0  0
  139.0578   66.9949  225.1183 H   0  0  0  0  0  0  0  0  0  0  0  0
  139.9538   66.9746  227.3431 H   0  0  0  0  0  0  0  0  0  0  0  0
  141.5480   70.6101  228.9953 H   0  0  0  0  0  0  0  0  0  0  0  0
  141.0101   71.8477  226.8881 H   0  0  0  0  0  0  0  0  0  0  0  0
  1  2  2  0
  2  3  1  0
  3  4  1  0
  4  5  1  0
  5  6  2  0
  5  7  1  0
  7  8  1  0
  8  9  1  0
  9 10  1  0
 10 11  1  0
 11 12  1  0
 12 13  1  0
 13 14  1  0
 14 15  2  0
 15 16  1  0
 16 17  2  0
 17 18  1  0
 17 19  1  0
 19 20  2  0
  2 21  1  0
 21 22  2  0
 22 23  1  0
 23 24  2  0
 24 25  1  0
 25 26  2  0
 26 27  1  0
 26 28  1  0
 28 29  2  0
 29 30  1  0
 30 31  2  0
 11  7  1  0
 20 14  1  0
 31 21  1  0
 30 24  1  0
  3 32  1  0
  4 33  1  0
  4 34  1  0
  8 35  1  0
  8 36  1  0
  9 37  1  0
  9 38  1  0
 10 39  1  0
 10 40  1  0
 11 41  1  6
 12 42  1  0
 12 43  1  0
 13 44  1  0
 15 45  1  0
 16 46  1  0
 19 47  1  0
 20 48  1  0
 22 49  1  0
 23 50  1  0
 25 51  1  0
 28 52  1  0
 29 53  1  0
M  END
>  <smiles>  (29) 
O=C(NCC(=O)N1CCC[C@H]1CNc1ccc(Cl)cc1)c1ccc2cc(F)ccc2n1

>  <score_type>  (29) 
oracle

>  <origin>  (29) 
autodockgpu

>  <m_score__min__energy>  (29) 
-9

>  <m_primary>  (29) 
energy

>  <rmsd>  (29) 
3.0888848097282886

>  <m_score__min__rmsd>  (29) 
3.0888848097282886

>  <meeko>  (29) 
{"free_energy": -7.99, "intermolecular_energy": -10.08, "internal_energy": -1.93, "cluster_size": 20, "cluster_id": 1, "rank_in_cluster": 12}

>  <energy>  (29) 
-7.61

>  <cluster_rmsd>  (29) 
1.63

>  <cluster>  (29) 
2

$$$$

     RDKit          3D

 53 56  0  0  0  0  0  0  0  0999 V2000
  137.8700   70.0180  221.8440 O   0  0  0  0  0  0  0  0  0  0  0  0
  138.4830   70.7180  222.7120 C   0  0  0  0  0  0  0  0  0  0  0  0
  138.7000   72.1140  222.5500 N   0  0  0  0  0  0  0  0  0  0  0  0
  138.2100   72.8030  221.3530 C   0  0  0  0  0  0  0  0  0  0  0  0
  138.9790   74.0890  221.2070 C   0  0  0  0  0  0  0  0  0  0  0  0
  139.9630   74.2150  221.9720 O   0  0  0  0  0  0  0  0  0  0  0  0
  138.5700   75.0560  220.2540 N   0  0  0  0  0  0  0  0  0  0  0  0
  138.4200   74.7700  218.8270 C   0  0  0  0  0  0  0  0  0  0  0  0
  137.1040   75.4360  218.5390 C   0  0  0  0  0  0  0  0  0  0  0  0
  137.1500   76.6950  219.3520 C   0  0  0  0  0  0  0  0  0  0  0  0
  138.2200   76.4420  220.3770 C   0  0  1  0  0  0  0  0  0  0  0  0
  137.7420   76.7370  221.7650 C   0  0  0  0  0  0  0  0  0  0  0  0
  138.8190   76.5340  222.7480 N   0  0  0  0  0  0  0  0  0  0  0  0
  139.6840   77.6640  222.9490 C   0  0  0  0  0  0  0  0  0  0  0  0
  141.0250   77.5290  222.7110 C   0  0  0  0  0  0  0  0  0  0  0  0
  141.8300   78.6540  222.9170 C   0  0  0  0  0  0  0  0  0  0  0  0
  141.3200   79.8550  223.3410 C   0  0  0  0  0  0  0  0  0  0  0  0
  142.3150   81.2760  223.6060 Cl  0  0  0  0  0  0  0  0  0  0  0  0
  139.9700   79.9740  223.5760 C   0  0  0  0  0  0  0  0  0  0  0  0
  139.1650   78.8660  223.3740 C   0  0  0  0  0  0  0  0  0  0  0  0
  138.9870   70.0590  223.9340 C   0  0  0  0  0  0  0  0  0  0  0  0
  138.8350   68.6860  224.0760 C   0  0  0  0  0  0  0  0  0  0  0  0
  139.2830   68.0140  225.1920 C   0  0  0  0  0  0  0  0  0  0  0  0
  139.8970   68.7440  226.1820 C   0  0  0  0  0  0  0  0  0  0  0  0
  140.3540   68.1150  227.3050 C   0  0  0  0  0  0  0  0  0  0  0  0
  140.9680   68.8710  228.2890 C   0  0  0  0  0  0  0  0  0  0  0  0
  141.4300   68.2770  229.4110 F   0  0  0  0  0  0  0  0  0  0  0  0
  141.1070   70.2370  228.1200 C   0  0  0  0  0  0  0  0  0  0  0  0
  140.6420   70.8870  226.9750 C   0  0  0  0  0  0  0  0  0  0  0  0
  140.0280   70.1080  225.9990 C   0  0  0  0  0  0  0  0  0  0  0  0
  139.5890   70.7530  224.9120 N   0  0  0  0  0  0  0  0  0  0  0  0
  139.2210   72.6490  223.3080 H   0  0  0  0  0  0  0  0  0  0  0  0
  138.3691   72.1706  220.4671 H   0  0  0  0  0  0  0  0  0  0  0  0
  137.1338   73.0105  221.4460 H   0  0  0  0  0  0  0  0  0  0  0  0
  139.2355   75.2147  218.2378 H   0  0  0  0  0  0  0  0  0  0  0  0
  138.4526   73.7003  218.5726 H   0  0  0  0  0  0  0  0  0  0  0  0
  137.0080   75.6656  217.4675 H   0  0  0  0  0  0  0  0  0  0  0  0
  136.2429   74.7998  218.7915 H   0  0  0  0  0  0  0  0  0  0  0  0
  137.4125   77.5564  218.7203 H   0  0  0  0  0  0  0  0  0  0  0  0
  136.1789   76.9324  219.8108 H   0  0  0  0  0  0  0  0  0  0  0  0
  139.0834   77.1008  220.2022 H   0  0  0  0  0  0  0  0  0  0  0  0
  137.4025   77.7821  221.8140 H   0  0  0  0  0  0  0  0  0  0  0  0
  136.9154   76.0517  222.0041 H   0  0  0  0  0  0  0  0  0  0  0  0
  138.9480   75.6450  223.2590 H   0  0  0  0  0  0  0  0  0  0  0  0
  141.4525   76.5741  222.3713 H   0  0  0  0  0  0  0  0  0  0  0  0
  142.9114   78.5729  222.7324 H   0  0  0  0  0  0  0  0  0  0  0  0
  139.5400   80.9275  223.9166 H   0  0  0  0  0  0  0  0  0  0  0  0
  138.0836   78.9482  223.5577 H   0  0  0  0  0  0  0  0  0  0  0  0
  138.3421   68.1180  223.2733 H   0  0  0  0  0  0  0  0  0  0  0  0
  139.1533   66.9259  225.2881 H   0  0  0  0  0  0  0  0  0  0  0  0
  140.2364   67.0279  227.4253 H   0  0  0  0  0  0  0  0  0  0  0  0
  141.5969   70.8269  228.9087 H   0  0  0  0  0  0  0  0  0  0  0  0
  140.7567   71.9738  226.8493 H   0  0  0  0  0  0  0  0  0  0  0  0
  1  2  2  0
  2  3  1  0
  3  4  1  0
  4  5  1  0
  5  6  2  0
  5  7  1  0
  7  8  1  0
  8  9  1  0
  9 10  1  0
 10 11  1  0
 11 12  1  0
 12 13  1  0
 13 14  1  0
 14 15  2  0
 15 16  1  0
 16 17  2  0
 17 18  1  0
 17 19  1  0
 19 20  2  0
  2 21  1  0
 21 22  2  0
 22 23  1  0
 23 24  2  0
 24 25  1  0
 25 26  2  0
 26 27  1  0
 26 28  1  0
 28 29  2  0
 29 30  1  0
 30 31  2  0
 11  7  1  0
 20 14  1  0
 31 21  1  0
 30 24  1  0
  3 32  1  0
  4 33  1  0
  4 34  1  0
  8 35  1  0
  8 36  1  0
  9 37  1  0
  9 38  1  0
 10 39  1  0
 10 40  1  0
 11 41  1  6
 12 42  1  0
 12 43  1  0
 13 44  1  0
 15 45  1  0
 16 46  1  0
 19 47  1  0
 20 48  1  0
 22 49  1  0
 23 50  1  0
 25 51  1  0
 28 52  1  0
 29 53  1  0
M  END
>  <smiles>  (30) 
O=C(NCC(=O)N1CCC[C@H]1CNc1ccc(Cl)cc1)c1ccc2cc(F)ccc2n1

>  <score_type>  (30) 
oracle

>  <origin>  (30) 
autodockgpu

>  <m_score__min__energy>  (30) 
-9

>  <m_primary>  (30) 
energy

>  <rmsd>  (30) 
2.4196731362320447

>  <m_score__min__rmsd>  (30) 
2.4196731362320447

>  <meeko>  (30) 
{"free_energy": -7.99, "intermolecular_energy": -10.08, "internal_energy": -2.77, "cluster_size": 20, "cluster_id": 1, "rank_in_cluster": 13}

>  <energy>  (30) 
-7.56

>  <cluster_rmsd>  (30) 
1.73

>  <cluster>  (30) 
2

$$$$

     RDKit          3D

 53 56  0  0  0  0  0  0  0  0999 V2000
  137.8010   70.8530  222.0850 O   0  0  0  0  0  0  0  0  0  0  0  0
  138.6480   71.3270  222.9090 C   0  0  0  0  0  0  0  0  0  0  0  0
  139.2000   72.6300  222.7670 N   0  0  0  0  0  0  0  0  0  0  0  0
  138.7980   73.4840  221.6470 C   0  0  0  0  0  0  0  0  0  0  0  0
  139.3520   74.8630  221.8890 C   0  0  0  0  0  0  0  0  0  0  0  0
  140.5450   74.9020  222.2690 O   0  0  0  0  0  0  0  0  0  0  0  0
  138.5340   76.0020  221.6860 N   0  0  0  0  0  0  0  0  0  0  0  0
  137.1250   75.9270  221.2970 C   0  0  0  0  0  0  0  0  0  0  0  0
  136.5160   76.9330  222.2320 C   0  0  0  0  0  0  0  0  0  0  0  0
  137.5270   78.0390  222.2810 C   0  0  0  0  0  0  0  0  0  0  0  0
  138.7990   77.4090  221.7870 C   0  0  1  0  0  0  0  0  0  0  0  0
  139.9430   77.6580  222.7200 C   0  0  0  0  0  0  0  0  0  0  0  0
  141.2310   77.4170  222.0510 N   0  0  0  0  0  0  0  0  0  0  0  0
  141.5600   78.3440  221.0040 C   0  0  0  0  0  0  0  0  0  0  0  0
  141.8840   77.8640  219.7640 C   0  0  0  0  0  0  0  0  0  0  0  0
  142.1940   78.8020  218.7730 C   0  0  0  0  0  0  0  0  0  0  0  0
  142.1830   80.1530  219.0110 C   0  0  0  0  0  0  0  0  0  0  0  0
  142.5700   81.3430  217.7800 Cl  0  0  0  0  0  0  0  0  0  0  0  0
  141.8550   80.6200  220.2630 C   0  0  0  0  0  0  0  0  0  0  0  0
  141.5460   79.6990  221.2490 C   0  0  0  0  0  0  0  0  0  0  0  0
  139.0740   70.4960  224.0530 C   0  0  0  0  0  0  0  0  0  0  0  0
  138.8520   69.1260  224.0150 C   0  0  0  0  0  0  0  0  0  0  0  0
  139.2250   68.2980  225.0520 C   0  0  0  0  0  0  0  0  0  0  0  0
  139.8340   68.8660  226.1460 C   0  0  0  0  0  0  0  0  0  0  0  0
  140.2180   68.0800  227.1940 C   0  0  0  0  0  0  0  0  0  0  0  0
  140.8290   68.6760  228.2850 C   0  0  0  0  0  0  0  0  0  0  0  0
  141.2190   67.9240  229.3370 F   0  0  0  0  0  0  0  0  0  0  0  0
  141.0370   70.0440  228.2940 C   0  0  0  0  0  0  0  0  0  0  0  0
  140.6470   70.8530  227.2260 C   0  0  0  0  0  0  0  0  0  0  0  0
  140.0350   70.2340  226.1400 C   0  0  0  0  0  0  0  0  0  0  0  0
  139.6690   71.0310  225.1300 N   0  0  0  0  0  0  0  0  0  0  0  0
  139.9070   72.9740  223.4850 H   0  0  0  0  0  0  0  0  0  0  0  0
  139.2008   73.0799  220.7065 H   0  0  0  0  0  0  0  0  0  0  0  0
  137.7013   73.5215  221.5704 H   0  0  0  0  0  0  0  0  0  0  0  0
  136.9805   76.2139  220.2450 H   0  0  0  0  0  0  0  0  0  0  0  0
  136.6881   74.9199  221.3670 H   0  0  0  0  0  0  0  0  0  0  0  0
  135.5549   77.2985  221.8413 H   0  0  0  0  0  0  0  0  0  0  0  0
  136.2996   76.5122  223.2250 H   0  0  0  0  0  0  0  0  0  0  0  0
  137.2255   78.8705  221.6270 H   0  0  0  0  0  0  0  0  0  0  0  0
  137.6348   78.4624  223.2905 H   0  0  0  0  0  0  0  0  0  0  0  0
  139.0919   77.8424  220.8193 H   0  0  0  0  0  0  0  0  0  0  0  0
  139.9061   78.7022  223.0638 H   0  0  0  0  0  0  0  0  0  0  0  0
  139.8564   76.9683  223.5725 H   0  0  0  0  0  0  0  0  0  0  0  0
  141.8590   76.6370  222.3120 H   0  0  0  0  0  0  0  0  0  0  0  0
  141.9001   76.7842  219.5548 H   0  0  0  0  0  0  0  0  0  0  0  0
  142.4560   78.4431  217.7667 H   0  0  0  0  0  0  0  0  0  0  0  0
  141.8387   81.6992  220.4752 H   0  0  0  0  0  0  0  0  0  0  0  0
  141.2824   80.0588  222.2545 H   0  0  0  0  0  0  0  0  0  0  0  0
  138.3642   68.6885  223.1315 H   0  0  0  0  0  0  0  0  0  0  0  0
  139.0408   67.2145  225.0056 H   0  0  0  0  0  0  0  0  0  0  0  0
  140.0455   66.9938  227.1725 H   0  0  0  0  0  0  0  0  0  0  0  0
  141.5227   70.5060  229.1662 H   0  0  0  0  0  0  0  0  0  0  0  0
  140.8170   71.9397  227.2418 H   0  0  0  0  0  0  0  0  0  0  0  0
  1  2  2  0
  2  3  1  0
  3  4  1  0
  4  5  1  0
  5  6  2  0
  5  7  1  0
  7  8  1  0
  8  9  1  0
  9 10  1  0
 10 11  1  0
 11 12  1  0
 12 13  1  0
 13 14  1  0
 14 15  2  0
 15 16  1  0
 16 17  2  0
 17 18  1  0
 17 19  1  0
 19 20  2  0
  2 21  1  0
 21 22  2  0
 22 23  1  0
 23 24  2  0
 24 25  1  0
 25 26  2  0
 26 27  1  0
 26 28  1  0
 28 29  2  0
 29 30  1  0
 30 31  2  0
 11  7  1  0
 20 14  1  0
 31 21  1  0
 30 24  1  0
  3 32  1  0
  4 33  1  0
  4 34  1  0
  8 35  1  0
  8 36  1  0
  9 37  1  0
  9 38  1  0
 10 39  1  0
 10 40  1  0
 11 41  1  6
 12 42  1  0
 12 43  1  0
 13 44  1  0
 15 45  1  0
 16 46  1  0
 19 47  1  0
 20 48  1  0
 22 49  1  0
 23 50  1  0
 25 51  1  0
 28 52  1  0
 29 53  1  0
M  END
>  <smiles>  (31) 
O=C(NCC(=O)N1CCC[C@H]1CNc1ccc(Cl)cc1)c1ccc2cc(F)ccc2n1

>  <score_type>  (31) 
oracle

>  <origin>  (31) 
autodockgpu

>  <m_score__min__energy>  (31) 
-9

>  <m_primary>  (31) 
energy

>  <rmsd>  (31) 
2.6745088205867

>  <m_score__min__rmsd>  (31) 
2.6745088205867

>  <meeko>  (31) 
{"free_energy": -8.18, "intermolecular_energy": -10.27, "internal_energy": -2.53, "cluster_size": 20, "cluster_id": 1, "rank_in_cluster": 8}

>  <energy>  (31) 
-7.54

>  <cluster_rmsd>  (31) 
1.59

>  <cluster>  (31) 
2

$$$$

     RDKit          3D

 53 56  0  0  0  0  0  0  0  0999 V2000
  140.4160   73.8590  222.3390 O   0  0  0  0  0  0  0  0  0  0  0  0
  140.6040   72.6040  222.2470 C   0  0  0  0  0  0  0  0  0  0  0  0
  141.1030   71.9930  221.0630 N   0  0  0  0  0  0  0  0  0  0  0  0
  141.4260   72.8100  219.8910 C   0  0  0  0  0  0  0  0  0  0  0  0
  142.6880   73.5750  220.1870 C   0  0  0  0  0  0  0  0  0  0  0  0
  143.3480   73.1590  221.1680 O   0  0  0  0  0  0  0  0  0  0  0  0
  143.0550   74.6800  219.3790 N   0  0  0  0  0  0  0  0  0  0  0  0
  144.0050   74.5900  218.2690 C   0  0  0  0  0  0  0  0  0  0  0  0
  143.2820   75.3720  217.2090 C   0  0  0  0  0  0  0  0  0  0  0  0
  142.6590   76.5100  217.9620 C   0  0  0  0  0  0  0  0  0  0  0  0
  142.6580   76.0590  219.3950 C   0  0  1  0  0  0  0  0  0  0  0  0
  141.3070   76.2040  220.0230 C   0  0  0  0  0  0  0  0  0  0  0  0
  141.4020   76.1830  221.4910 N   0  0  0  0  0  0  0  0  0  0  0  0
  140.7190   77.2530  222.1640 C   0  0  0  0  0  0  0  0  0  0  0  0
  141.4520   78.2480  222.7530 C   0  0  0  0  0  0  0  0  0  0  0  0
  140.7480   79.2720  223.3950 C   0  0  0  0  0  0  0  0  0  0  0  0
  139.3770   79.2990  223.4460 C   0  0  0  0  0  0  0  0  0  0  0  0
  138.4760   80.5750  224.2470 Cl  0  0  0  0  0  0  0  0  0  0  0  0
  138.6540   78.2920  222.8490 C   0  0  0  0  0  0  0  0  0  0  0  0
  139.3430   77.2760  222.2110 C   0  0  0  0  0  0  0  0  0  0  0  0
  140.2940   71.7480  223.4100 C   0  0  0  0  0  0  0  0  0  0  0  0
  139.5030   70.6220  223.2320 C   0  0  0  0  0  0  0  0  0  0  0  0
  139.1780   69.7850  224.2770 C   0  0  0  0  0  0  0  0  0  0  0  0
  139.6620   70.0950  225.5270 C   0  0  0  0  0  0  0  0  0  0  0  0
  139.3610   69.2920  226.5890 C   0  0  0  0  0  0  0  0  0  0  0  0
  139.8590   69.6250  227.8380 C   0  0  0  0  0  0  0  0  0  0  0  0
  139.5790   68.8500  228.9080 F   0  0  0  0  0  0  0  0  0  0  0  0
  140.6450   70.7540  227.9860 C   0  0  0  0  0  0  0  0  0  0  0  0
  140.9560   71.5790  226.9050 C   0  0  0  0  0  0  0  0  0  0  0  0
  140.4450   71.2260  225.6580 C   0  0  0  0  0  0  0  0  0  0  0  0
  140.7560   72.0330  224.6380 N   0  0  0  0  0  0  0  0  0  0  0  0
  141.2390   70.9380  221.0420 H   0  0  0  0  0  0  0  0  0  0  0  0
  141.5797   72.1618  219.0157 H   0  0  0  0  0  0  0  0  0  0  0  0
  140.6018   73.5049  219.6723 H   0  0  0  0  0  0  0  0  0  0  0  0
  144.9699   75.0522  218.5246 H   0  0  0  0  0  0  0  0  0  0  0  0
  144.2646   73.5619  217.9764 H   0  0  0  0  0  0  0  0  0  0  0  0
  143.9850   75.7438  216.4490 H   0  0  0  0  0  0  0  0  0  0  0  0
  142.5412   74.7665  216.6662 H   0  0  0  0  0  0  0  0  0  0  0  0
  143.2551   77.4269  217.8436 H   0  0  0  0  0  0  0  0  0  0  0  0
  141.6485   76.7480  217.5983 H   0  0  0  0  0  0  0  0  0  0  0  0
  143.3436   76.6772  219.9931 H   0  0  0  0  0  0  0  0  0  0  0  0
  140.8633   77.1590  219.7050 H   0  0  0  0  0  0  0  0  0  0  0  0
  140.6788   75.3605  219.7007 H   0  0  0  0  0  0  0  0  0  0  0  0
  141.9230   75.4530  222.0070 H   0  0  0  0  0  0  0  0  0  0  0  0
  142.5516   78.2424  222.7226 H   0  0  0  0  0  0  0  0  0  0  0  0
  141.3131   80.0841  223.8758 H   0  0  0  0  0  0  0  0  0  0  0  0
  137.5544   78.2947  222.8783 H   0  0  0  0  0  0  0  0  0  0  0  0
  138.7769   76.4655  221.7287 H   0  0  0  0  0  0  0  0  0  0  0  0
  139.1238   70.3905  222.2257 H   0  0  0  0  0  0  0  0  0  0  0  0
  138.5505   68.8958  224.1168 H   0  0  0  0  0  0  0  0  0  0  0  0
  138.7349   68.3975  226.4556 H   0  0  0  0  0  0  0  0  0  0  0  0
  141.0351   71.0078  228.9827 H   0  0  0  0  0  0  0  0  0  0  0  0
  141.5814   72.4749  227.0325 H   0  0  0  0  0  0  0  0  0  0  0  0
  1  2  2  0
  2  3  1  0
  3  4  1  0
  4  5  1  0
  5  6  2  0
  5  7  1  0
  7  8  1  0
  8  9  1  0
  9 10  1  0
 10 11  1  0
 11 12  1  0
 12 13  1  0
 13 14  1  0
 14 15  2  0
 15 16  1  0
 16 17  2  0
 17 18  1  0
 17 19  1  0
 19 20  2  0
  2 21  1  0
 21 22  2  0
 22 23  1  0
 23 24  2  0
 24 25  1  0
 25 26  2  0
 26 27  1  0
 26 28  1  0
 28 29  2  0
 29 30  1  0
 30 31  2  0
 11  7  1  0
 20 14  1  0
 31 21  1  0
 30 24  1  0
  3 32  1  0
  4 33  1  0
  4 34  1  0
  8 35  1  0
  8 36  1  0
  9 37  1  0
  9 38  1  0
 10 39  1  0
 10 40  1  0
 11 41  1  1
 12 42  1  0
 12 43  1  0
 13 44  1  0
 15 45  1  0
 16 46  1  0
 19 47  1  0
 20 48  1  0
 22 49  1  0
 23 50  1  0
 25 51  1  0
 28 52  1  0
 29 53  1  0
M  END
>  <smiles>  (32) 
O=C(NCC(=O)N1CCC[C@H]1CNc1ccc(Cl)cc1)c1ccc2cc(F)ccc2n1

>  <score_type>  (32) 
oracle

>  <origin>  (32) 
autodockgpu

>  <m_score__min__energy>  (32) 
-9

>  <m_primary>  (32) 
energy

>  <rmsd>  (32) 
3.021753035116005

>  <m_score__min__rmsd>  (32) 
3.021753035116005

>  <meeko>  (32) 
{"free_energy": -8.24, "intermolecular_energy": -10.33, "internal_energy": -2.25, "cluster_size": 1, "cluster_id": 4, "rank_in_cluster": 1}

>  <energy>  (32) 
-7.31

>  <cluster_rmsd>  (32) 
1.34

>  <cluster>  (32) 
2

$$$$

     RDKit          3D

 53 56  0  0  0  0  0  0  0  0999 V2000
  136.8250   76.6310  222.4070 O   0  0  0  0  0  0  0  0  0  0  0  0
  138.0860   76.6590  222.2360 C   0  0  0  0  0  0  0  0  0  0  0  0
  138.8010   75.5680  221.6680 N   0  0  0  0  0  0  0  0  0  0  0  0
  138.0910   74.3570  221.2520 C   0  0  0  0  0  0  0  0  0  0  0  0
  138.7920   73.1720  221.8610 C   0  0  0  0  0  0  0  0  0  0  0  0
  139.9340   73.4040  222.3210 O   0  0  0  0  0  0  0  0  0  0  0  0
  138.1570   71.9050  221.8830 N   0  0  0  0  0  0  0  0  0  0  0  0
  136.9850   71.5740  221.0710 C   0  0  0  0  0  0  0  0  0  0  0  0
  137.3730   70.2220  220.5450 C   0  0  0  0  0  0  0  0  0  0  0  0
  138.0580   69.5650  221.7060 C   0  0  0  0  0  0  0  0  0  0  0  0
  138.4320   70.7020  222.6150 C   0  0  1  0  0  0  0  0  0  0  0  0
  139.8750   70.6490  223.0070 C   0  0  0  0  0  0  0  0  0  0  0  0
  140.1210   71.4420  224.2230 N   0  0  0  0  0  0  0  0  0  0  0  0
  140.4210   70.6770  225.4010 C   0  0  0  0  0  0  0  0  0  0  0  0
  140.7640   71.3310  226.5530 C   0  0  0  0  0  0  0  0  0  0  0  0
  141.0460   70.5480  227.6780 C   0  0  0  0  0  0  0  0  0  0  0  0
  140.9890   69.1780  227.6510 C   0  0  0  0  0  0  0  0  0  0  0  0
  141.3410   68.1790  229.0520 Cl  0  0  0  0  0  0  0  0  0  0  0  0
  140.6430   68.5340  226.4850 C   0  0  0  0  0  0  0  0  0  0  0  0
  140.3620   69.3010  225.3690 C   0  0  0  0  0  0  0  0  0  0  0  0
  138.8350   77.8660  222.6400 C   0  0  0  0  0  0  0  0  0  0  0  0
  138.1370   79.0240  222.9520 C   0  0  0  0  0  0  0  0  0  0  0  0
  138.7780   80.1820  223.3350 C   0  0  0  0  0  0  0  0  0  0  0  0
  140.1510   80.1680  223.4020 C   0  0  0  0  0  0  0  0  0  0  0  0
  140.8250   81.2950  223.7750 C   0  0  0  0  0  0  0  0  0  0  0  0
  142.2080   81.2560  223.8350 C   0  0  0  0  0  0  0  0  0  0  0  0
  142.9020   82.3560  224.2010 F   0  0  0  0  0  0  0  0  0  0  0  0
  142.8770   80.0880  223.5180 C   0  0  0  0  0  0  0  0  0  0  0  0
  142.1950   78.9320  223.1360 C   0  0  0  0  0  0  0  0  0  0  0  0
  140.8060   78.9920  223.0820 C   0  0  0  0  0  0  0  0  0  0  0  0
  140.1750   77.8730  222.7120 N   0  0  0  0  0  0  0  0  0  0  0  0
  139.8560   75.6460  221.5500 H   0  0  0  0  0  0  0  0  0  0  0  0
  137.0496   74.3957  221.6041 H   0  0  0  0  0  0  0  0  0  0  0  0
  138.0868   74.2752  220.1550 H   0  0  0  0  0  0  0  0  0  0  0  0
  136.0717   71.5228  221.6820 H   0  0  0  0  0  0  0  0  0  0  0  0
  136.7502   72.3135  220.2912 H   0  0  0  0  0  0  0  0  0  0  0  0
  136.4836   69.6505  220.2411 H   0  0  0  0  0  0  0  0  0  0  0  0
  138.0144   70.2823  219.6534 H   0  0  0  0  0  0  0  0  0  0  0  0
  137.3767   68.8678  222.2156 H   0  0  0  0  0  0  0  0  0  0  0  0
  138.9316   68.9729  221.3957 H   0  0  0  0  0  0  0  0  0  0  0  0
  137.8569   70.6509  223.5513 H   0  0  0  0  0  0  0  0  0  0  0  0
  140.1581   69.6031  223.1963 H   0  0  0  0  0  0  0  0  0  0  0  0
  140.4765   71.0688  222.1872 H   0  0  0  0  0  0  0  0  0  0  0  0
  140.0820   72.4750  224.2330 H   0  0  0  0  0  0  0  0  0  0  0  0
  140.8160   72.4290  226.5931 H   0  0  0  0  0  0  0  0  0  0  0  0
  141.3232   71.0491  228.6172 H   0  0  0  0  0  0  0  0  0  0  0  0
  140.5912   67.4361  226.4417 H   0  0  0  0  0  0  0  0  0  0  0  0
  140.0839   68.7989  224.4306 H   0  0  0  0  0  0  0  0  0  0  0  0
  137.0387   79.0173  222.8917 H   0  0  0  0  0  0  0  0  0  0  0  0
  138.2082   81.0905  223.5798 H   0  0  0  0  0  0  0  0  0  0  0  0
  140.2795   82.2173  224.0234 H   0  0  0  0  0  0  0  0  0  0  0  0
  143.9757   80.0696  223.5683 H   0  0  0  0  0  0  0  0  0  0  0  0
  142.7358   78.0071  222.8867 H   0  0  0  0  0  0  0  0  0  0  0  0
  1  2  2  0
  2  3  1  0
  3  4  1  0
  4  5  1  0
  5  6  2  0
  5  7  1  0
  7  8  1  0
  8  9  1  0
  9 10  1  0
 10 11  1  0
 11 12  1  0
 12 13  1  0
 13 14  1  0
 14 15  2  0
 15 16  1  0
 16 17  2  0
 17 18  1  0
 17 19  1  0
 19 20  2  0
  2 21  1  0
 21 22  2  0
 22 23  1  0
 23 24  2  0
 24 25  1  0
 25 26  2  0
 26 27  1  0
 26 28  1  0
 28 29  2  0
 29 30  1  0
 30 31  2  0
 11  7  1  0
 20 14  1  0
 31 21  1  0
 30 24  1  0
  3 32  1  0
  4 33  1  0
  4 34  1  0
  8 35  1  0
  8 36  1  0
  9 37  1  0
  9 38  1  0
 10 39  1  0
 10 40  1  0
 11 41  1  1
 12 42  1  0
 12 43  1  0
 13 44  1  0
 15 45  1  0
 16 46  1  0
 19 47  1  0
 20 48  1  0
 22 49  1  0
 23 50  1  0
 25 51  1  0
 28 52  1  0
 29 53  1  0
M  END
>  <smiles>  (33) 
O=C(NCC(=O)N1CCC[C@H]1CNc1ccc(Cl)cc1)c1ccc2cc(F)ccc2n1

>  <score_type>  (33) 
oracle

>  <origin>  (33) 
autodockgpu

>  <m_score__min__energy>  (33) 
-9

>  <m_primary>  (33) 
energy

>  <rmsd>  (33) 
9.30884865945812

>  <m_score__min__rmsd>  (33) 
9.30884865945812

>  <meeko>  (33) 
{"free_energy": -7.94, "intermolecular_energy": -10.03, "internal_energy": -2.47, "cluster_size": 12, "cluster_id": 2, "rank_in_cluster": 6}

>  <energy>  (33) 
-8.53

>  <cluster_rmsd>  (33) 
0.0

>  <cluster>  (33) 
3

$$$$

     RDKit          3D

 53 56  0  0  0  0  0  0  0  0999 V2000
  140.4710   77.0140  218.4790 O   0  0  0  0  0  0  0  0  0  0  0  0
  141.6970   77.1320  218.8010 C   0  0  0  0  0  0  0  0  0  0  0  0
  142.2830   78.3900  219.1150 N   0  0  0  0  0  0  0  0  0  0  0  0
  141.4740   79.6100  219.0800 C   0  0  0  0  0  0  0  0  0  0  0  0
  140.7890   79.7570  220.4130 C   0  0  0  0  0  0  0  0  0  0  0  0
  139.5380   79.7050  220.3800 O   0  0  0  0  0  0  0  0  0  0  0  0
  141.5580   79.9380  221.5890 N   0  0  0  0  0  0  0  0  0  0  0  0
  142.1300   81.2240  221.9900 C   0  0  0  0  0  0  0  0  0  0  0  0
  141.7800   81.2500  223.4510 C   0  0  0  0  0  0  0  0  0  0  0  0
  141.9830   79.8320  223.8970 C   0  0  0  0  0  0  0  0  0  0  0  0
  141.9620   79.0320  222.6250 C   0  0  1  0  0  0  0  0  0  0  0  0
  141.0110   77.8790  222.7090 C   0  0  0  0  0  0  0  0  0  0  0  0
  141.4160   76.7930  221.8020 N   0  0  0  0  0  0  0  0  0  0  0  0
  140.5430   75.6530  221.7840 C   0  0  0  0  0  0  0  0  0  0  0  0
  141.0740   74.4080  221.5780 C   0  0  0  0  0  0  0  0  0  0  0  0
  140.1890   73.3250  221.5710 C   0  0  0  0  0  0  0  0  0  0  0  0
  138.8390   73.4790  221.7600 C   0  0  0  0  0  0  0  0  0  0  0  0
  137.7130   72.1320  221.7540 Cl  0  0  0  0  0  0  0  0  0  0  0  0
  138.3200   74.7370  221.9670 C   0  0  0  0  0  0  0  0  0  0  0  0
  139.1890   75.8140  221.9760 C   0  0  0  0  0  0  0  0  0  0  0  0
  142.5420   75.9230  218.8510 C   0  0  0  0  0  0  0  0  0  0  0  0
  142.3500   74.9220  217.9090 C   0  0  0  0  0  0  0  0  0  0  0  0
  143.1060   73.7690  217.9040 C   0  0  0  0  0  0  0  0  0  0  0  0
  144.0740   73.6280  218.8710 C   0  0  0  0  0  0  0  0  0  0  0  0
  144.8440   72.5010  218.9010 C   0  0  0  0  0  0  0  0  0  0  0  0
  145.8120   72.3810  219.8840 C   0  0  0  0  0  0  0  0  0  0  0  0
  146.5890   71.2770  219.9400 F   0  0  0  0  0  0  0  0  0  0  0  0
  145.9810   73.3950  220.8100 C   0  0  0  0  0  0  0  0  0  0  0  0
  145.1980   74.5500  220.7850 C   0  0  0  0  0  0  0  0  0  0  0  0
  144.2310   74.6500  219.7880 C   0  0  0  0  0  0  0  0  0  0  0  0
  143.4920   75.7650  219.7860 N   0  0  0  0  0  0  0  0  0  0  0  0
  143.3130   78.4310  219.3760 H   0  0  0  0  0  0  0  0  0  0  0  0
  142.1205   80.4806  218.8952 H   0  0  0  0  0  0  0  0  0  0  0  0
  140.7283   79.5492  218.2736 H   0  0  0  0  0  0  0  0  0  0  0  0
  143.2188   81.2479  221.8349 H   0  0  0  0  0  0  0  0  0  0  0  0
  141.7545   82.0855  221.4182 H   0  0  0  0  0  0  0  0  0  0  0  0
  142.4454   81.9320  224.0006 H   0  0  0  0  0  0  0  0  0  0  0  0
  140.7570   81.6100  223.6354 H   0  0  0  0  0  0  0  0  0  0  0  0
  142.9492   79.7204  224.4109 H   0  0  0  0  0  0  0  0  0  0  0  0
  141.2135   79.5034  224.6111 H   0  0  0  0  0  0  0  0  0  0  0  0
  142.9538   78.5995  222.4270 H   0  0  0  0  0  0  0  0  0  0  0  0
  140.9969   77.4990  223.7412 H   0  0  0  0  0  0  0  0  0  0  0  0
  140.0108   78.2279  222.4127 H   0  0  0  0  0  0  0  0  0  0  0  0
  142.2680   76.8440  221.2160 H   0  0  0  0  0  0  0  0  0  0  0  0
  142.1538   74.2651  221.4241 H   0  0  0  0  0  0  0  0  0  0  0  0
  140.5898   72.3136  221.4081 H   0  0  0  0  0  0  0  0  0  0  0  0
  137.2407   74.8827  222.1215 H   0  0  0  0  0  0  0  0  0  0  0  0
  138.7877   76.8248  222.1408 H   0  0  0  0  0  0  0  0  0  0  0  0
  141.5712   75.0525  217.1432 H   0  0  0  0  0  0  0  0  0  0  0  0
  142.9401   72.9857  217.1497 H   0  0  0  0  0  0  0  0  0  0  0  0
  144.6982   71.7030  218.1581 H   0  0  0  0  0  0  0  0  0  0  0  0
  146.7529   73.2880  221.5864 H   0  0  0  0  0  0  0  0  0  0  0  0
  145.3394   75.3514  221.5252 H   0  0  0  0  0  0  0  0  0  0  0  0
  1  2  2  0
  2  3  1  0
  3  4  1  0
  4  5  1  0
  5  6  2  0
  5  7  1  0
  7  8  1  0
  8  9  1  0
  9 10  1  0
 10 11  1  0
 11 12  1  0
 12 13  1  0
 13 14  1  0
 14 15  2  0
 15 16  1  0
 16 17  2  0
 17 18  1  0
 17 19  1  0
 19 20  2  0
  2 21  1  0
 21 22  2  0
 22 23  1  0
 23 24  2  0
 24 25  1  0
 25 26  2  0
 26 27  1  0
 26 28  1  0
 28 29  2  0
 29 30  1  0
 30 31  2  0
 11  7  1  0
 20 14  1  0
 31 21  1  0
 30 24  1  0
  3 32  1  0
  4 33  1  0
  4 34  1  0
  8 35  1  0
  8 36  1  0
  9 37  1  0
  9 38  1  0
 10 39  1  0
 10 40  1  0
 11 41  1  6
 12 42  1  0
 12 43  1  0
 13 44  1  0
 15 45  1  0
 16 46  1  0
 19 47  1  0
 20 48  1  0
 22 49  1  0
 23 50  1  0
 25 51  1  0
 28 52  1  0
 29 53  1  0
M  END
>  <smiles>  (34) 
O=C(NCC(=O)N1CCC[C@H]1CNc1ccc(Cl)cc1)c1ccc2cc(F)ccc2n1

>  <score_type>  (34) 
oracle

>  <origin>  (34) 
autodockgpu

>  <m_score__min__energy>  (34) 
-9

>  <m_primary>  (34) 
energy

>  <rmsd>  (34) 
7.608944679183153

>  <m_score__min__rmsd>  (34) 
7.608944679183153

>  <meeko>  (34) 
{"free_energy": -6.76, "intermolecular_energy": -8.85, "internal_energy": -3.41, "cluster_size": 2, "cluster_id": 8, "rank_in_cluster": 1}

>  <energy>  (34) 
-8.5

>  <cluster_rmsd>  (34) 
1.59

>  <cluster>  (34) 
3

$$$$

     RDKit          3D

 53 56  0  0  0  0  0  0  0  0999 V2000
  139.9440   73.6640  222.4710 O   0  0  0  0  0  0  0  0  0  0  0  0
  139.9520   72.4030  222.2960 C   0  0  0  0  0  0  0  0  0  0  0  0
  139.9170   71.8140  221.0010 N   0  0  0  0  0  0  0  0  0  0  0  0
  139.8730   72.6600  219.8070 C   0  0  0  0  0  0  0  0  0  0  0  0
  141.2440   72.6660  219.1870 C   0  0  0  0  0  0  0  0  0  0  0  0
  141.2750   72.4560  217.9520 O   0  0  0  0  0  0  0  0  0  0  0  0
  142.3870   72.8970  219.9930 N   0  0  0  0  0  0  0  0  0  0  0  0
  143.5050   71.9580  220.0990 C   0  0  0  0  0  0  0  0  0  0  0  0
  144.6760   72.8920  219.9770 C   0  0  0  0  0  0  0  0  0  0  0  0
  144.2530   74.1050  220.7520 C   0  0  0  0  0  0  0  0  0  0  0  0
  142.7580   73.9880  220.8480 C   0  0  1  0  0  0  0  0  0  0  0  0
  142.0730   75.2460  220.4140 C   0  0  0  0  0  0  0  0  0  0  0  0
  141.1870   75.7570  221.4730 N   0  0  0  0  0  0  0  0  0  0  0  0
  141.3220   77.1580  221.7600 C   0  0  0  0  0  0  0  0  0  0  0  0
  141.6620   78.0170  220.7500 C   0  0  0  0  0  0  0  0  0  0  0  0
  141.7800   79.3730  221.0730 C   0  0  0  0  0  0  0  0  0  0  0  0
  141.5710   79.8460  222.3430 C   0  0  0  0  0  0  0  0  0  0  0  0
  141.7150   81.5440  222.7660 Cl  0  0  0  0  0  0  0  0  0  0  0  0
  141.2300   78.9700  223.3480 C   0  0  0  0  0  0  0  0  0  0  0  0
  141.1100   77.6270  223.0370 C   0  0  0  0  0  0  0  0  0  0  0  0
  140.0010   71.5190  223.4770 C   0  0  0  0  0  0  0  0  0  0  0  0
  139.5220   70.2200  223.3720 C   0  0  0  0  0  0  0  0  0  0  0  0
  139.5390   69.3470  224.4380 C   0  0  0  0  0  0  0  0  0  0  0  0
  140.0500   69.7970  225.6330 C   0  0  0  0  0  0  0  0  0  0  0  0
  140.0830   68.9640  226.7140 C   0  0  0  0  0  0  0  0  0  0  0  0
  140.6020   69.4400  227.9060 C   0  0  0  0  0  0  0  0  0  0  0  0
  140.6480   68.6390  228.9940 F   0  0  0  0  0  0  0  0  0  0  0  0
  141.0730   70.7390  227.9820 C   0  0  0  0  0  0  0  0  0  0  0  0
  141.0420   71.5960  226.8810 C   0  0  0  0  0  0  0  0  0  0  0  0
  140.5160   71.0980  225.6920 C   0  0  0  0  0  0  0  0  0  0  0  0
  140.4960   71.9380  224.6530 N   0  0  0  0  0  0  0  0  0  0  0  0
  139.9240   70.7540  220.9150 H   0  0  0  0  0  0  0  0  0  0  0  0
  139.1419   72.2565  219.0910 H   0  0  0  0  0  0  0  0  0  0  0  0
  139.5722   73.6833  220.0761 H   0  0  0  0  0  0  0  0  0  0  0  0
  143.5038   71.4359  221.0672 H   0  0  0  0  0  0  0  0  0  0  0  0
  143.4903   71.1492  219.3536 H   0  0  0  0  0  0  0  0  0  0  0  0
  145.5807   72.4443  220.4141 H   0  0  0  0  0  0  0  0  0  0  0  0
  144.9268   73.1232  218.9312 H   0  0  0  0  0  0  0  0  0  0  0  0
  144.7081   74.1047  221.7534 H   0  0  0  0  0  0  0  0  0  0  0  0
  144.5690   75.0412  220.2687 H   0  0  0  0  0  0  0  0  0  0  0  0
  142.4521   73.8145  221.8903 H   0  0  0  0  0  0  0  0  0  0  0  0
  142.8323   76.0073  220.1819 H   0  0  0  0  0  0  0  0  0  0  0  0
  141.4646   75.0247  219.5247 H   0  0  0  0  0  0  0  0  0  0  0  0
  140.5140   75.1540  221.9770 H   0  0  0  0  0  0  0  0  0  0  0  0
  141.8355   77.6556  219.7256 H   0  0  0  0  0  0  0  0  0  0  0  0
  142.0502   80.0855  220.2796 H   0  0  0  0  0  0  0  0  0  0  0  0
  141.0570   79.3286  224.3734 H   0  0  0  0  0  0  0  0  0  0  0  0
  140.8382   76.9156  223.8307 H   0  0  0  0  0  0  0  0  0  0  0  0
  139.1166   69.8774  222.4085 H   0  0  0  0  0  0  0  0  0  0  0  0
  139.1554   68.3211  224.3363 H   0  0  0  0  0  0  0  0  0  0  0  0
  139.7043   67.9339  226.6394 H   0  0  0  0  0  0  0  0  0  0  0  0
  141.4824   71.1056  228.9349 H   0  0  0  0  0  0  0  0  0  0  0  0
  141.4193   72.6270  226.9500 H   0  0  0  0  0  0  0  0  0  0  0  0
  1  2  2  0
  2  3  1  0
  3  4  1  0
  4  5  1  0
  5  6  2  0
  5  7  1  0
  7  8  1  0
  8  9  1  0
  9 10  1  0
 10 11  1  0
 11 12  1  0
 12 13  1  0
 13 14  1  0
 14 15  2  0
 15 16  1  0
 16 17  2  0
 17 18  1  0
 17 19  1  0
 19 20  2  0
  2 21  1  0
 21 22  2  0
 22 23  1  0
 23 24  2  0
 24 25  1  0
 25 26  2  0
 26 27  1  0
 26 28  1  0
 28 29  2  0
 29 30  1  0
 30 31  2  0
 11  7  1  0
 20 14  1  0
 31 21  1  0
 30 24  1  0
  3 32  1  0
  4 33  1  0
  4 34  1  0
  8 35  1  0
  8 36  1  0
  9 37  1  0
  9 38  1  0
 10 39  1  0
 10 40  1  0
 11 41  1  1
 12 42  1  0
 12 43  1  0
 13 44  1  0
 15 45  1  0
 16 46  1  0
 19 47  1  0
 20 48  1  0
 22 49  1  0
 23 50  1  0
 25 51  1  0
 28 52  1  0
 29 53  1  0
M  END
>  <smiles>  (35) 
O=C(NCC(=O)N1CCC[C@H]1CNc1ccc(Cl)cc1)c1ccc2cc(F)ccc2n1

>  <score_type>  (35) 
oracle

>  <origin>  (35) 
autodockgpu

>  <m_score__min__energy>  (35) 
-9

>  <m_primary>  (35) 
energy

>  <rmsd>  (35) 
3.326952654247634

>  <m_score__min__rmsd>  (35) 
3.326952654247634

>  <meeko>  (35) 
{"free_energy": -8.18, "intermolecular_energy": -10.27, "internal_energy": -2.3, "cluster_size": 7, "cluster_id": 3, "rank_in_cluster": 3}

>  <energy>  (35) 
-8.18

>  <cluster_rmsd>  (35) 
1.81

>  <cluster>  (35) 
3

$$$$

     RDKit          3D

 53 56  0  0  0  0  0  0  0  0999 V2000
  136.2260   76.9000  221.7910 O   0  0  0  0  0  0  0  0  0  0  0  0
  137.3350   76.6240  222.3510 C   0  0  0  0  0  0  0  0  0  0  0  0
  137.7290   75.2880  222.6420 N   0  0  0  0  0  0  0  0  0  0  0  0
  136.8510   74.1680  222.2950 C   0  0  0  0  0  0  0  0  0  0  0  0
  137.6860   73.1100  221.6240 C   0  0  0  0  0  0  0  0  0  0  0  0
  137.1680   71.9700  221.5750 O   0  0  0  0  0  0  0  0  0  0  0  0
  138.9630   73.4380  221.1030 N   0  0  0  0  0  0  0  0  0  0  0  0
  139.1680   74.3670  219.9900 C   0  0  0  0  0  0  0  0  0  0  0  0
  140.3090   75.1920  220.5140 C   0  0  0  0  0  0  0  0  0  0  0  0
  141.1830   74.1970  221.2180 C   0  0  0  0  0  0  0  0  0  0  0  0
  140.2860   73.0150  221.4610 C   0  0  1  0  0  0  0  0  0  0  0  0
  140.3240   72.5740  222.8900 C   0  0  0  0  0  0  0  0  0  0  0  0
  139.5720   71.3210  223.0760 N   0  0  0  0  0  0  0  0  0  0  0  0
  139.8260   70.6320  224.3100 C   0  0  0  0  0  0  0  0  0  0  0  0
  139.3010   69.3820  224.4980 C   0  0  0  0  0  0  0  0  0  0  0  0
  139.5750   68.7460  225.7130 C   0  0  0  0  0  0  0  0  0  0  0  0
  140.3360   69.3320  226.6930 C   0  0  0  0  0  0  0  0  0  0  0  0
  140.6890   68.5490  228.2240 Cl  0  0  0  0  0  0  0  0  0  0  0  0
  140.8560   70.5890  226.4900 C   0  0  0  0  0  0  0  0  0  0  0  0
  140.5910   71.2250  225.2900 C   0  0  0  0  0  0  0  0  0  0  0  0
  138.2480   77.7270  222.7120 C   0  0  0  0  0  0  0  0  0  0  0  0
  137.7170   78.9650  223.0440 C   0  0  0  0  0  0  0  0  0  0  0  0
  138.5160   80.0340  223.3890 C   0  0  0  0  0  0  0  0  0  0  0  0
  139.8780   79.8450  223.3970 C   0  0  0  0  0  0  0  0  0  0  0  0
  140.7050   80.8790  223.7310 C   0  0  0  0  0  0  0  0  0  0  0  0
  142.0730   80.6650  223.7330 C   0  0  0  0  0  0  0  0  0  0  0  0
  142.9160   81.6690  224.0590 F   0  0  0  0  0  0  0  0  0  0  0  0
  142.5740   79.4200  223.3970 C   0  0  0  0  0  0  0  0  0  0  0  0
  141.7350   78.3590  223.0550 C   0  0  0  0  0  0  0  0  0  0  0  0
  140.3630   78.5950  223.0600 C   0  0  0  0  0  0  0  0  0  0  0  0
  139.5810   77.5640  222.7260 N   0  0  0  0  0  0  0  0  0  0  0  0
  138.6670   75.1150  223.1140 H   0  0  0  0  0  0  0  0  0  0  0  0
  136.3916   73.7580  223.2065 H   0  0  0  0  0  0  0  0  0  0  0  0
  136.0502   74.5060  221.6209 H   0  0  0  0  0  0  0  0  0  0  0  0
  139.4432   73.8368  219.0663 H   0  0  0  0  0  0  0  0  0  0  0  0
  138.2762   74.9488  219.7139 H   0  0  0  0  0  0  0  0  0  0  0  0
  140.8529   75.6756  219.6892 H   0  0  0  0  0  0  0  0  0  0  0  0
  139.9749   76.0048  221.1757 H   0  0  0  0  0  0  0  0  0  0  0  0
  142.0372   73.9135  220.5856 H   0  0  0  0  0  0  0  0  0  0  0  0
  141.6081   74.5985  222.1497 H   0  0  0  0  0  0  0  0  0  0  0  0
  140.6157   72.1520  220.8639 H   0  0  0  0  0  0  0  0  0  0  0  0
  141.3703   72.4134  223.1892 H   0  0  0  0  0  0  0  0  0  0  0  0
  139.8614   73.3557  223.5104 H   0  0  0  0  0  0  0  0  0  0  0  0
  138.9070   70.9600  222.3700 H   0  0  0  0  0  0  0  0  0  0  0  0
  138.6879   68.8970  223.7242 H   0  0  0  0  0  0  0  0  0  0  0  0
  139.1659   67.7402  225.8893 H   0  0  0  0  0  0  0  0  0  0  0  0
  141.4678   71.0770  227.2630 H   0  0  0  0  0  0  0  0  0  0  0  0
  141.0019   72.2301  225.1141 H   0  0  0  0  0  0  0  0  0  0  0  0
  136.6251   79.0976  223.0316 H   0  0  0  0  0  0  0  0  0  0  0  0
  138.0775   81.0085  223.6499 H   0  0  0  0  0  0  0  0  0  0  0  0
  140.2919   81.8641  223.9937 H   0  0  0  0  0  0  0  0  0  0  0  0
  143.6627   79.2624  223.3996 H   0  0  0  0  0  0  0  0  0  0  0  0
  142.1427   77.3720  222.7910 H   0  0  0  0  0  0  0  0  0  0  0  0
  1  2  2  0
  2  3  1  0
  3  4  1  0
  4  5  1  0
  5  6  2  0
  5  7  1  0
  7  8  1  0
  8  9  1  0
  9 10  1  0
 10 11  1  0
 11 12  1  0
 12 13  1  0
 13 14  1  0
 14 15  2  0
 15 16  1  0
 16 17  2  0
 17 18  1  0
 17 19  1  0
 19 20  2  0
  2 21  1  0
 21 22  2  0
 22 23  1  0
 23 24  2  0
 24 25  1  0
 25 26  2  0
 26 27  1  0
 26 28  1  0
 28 29  2  0
 29 30  1  0
 30 31  2  0
 11  7  1  0
 20 14  1  0
 31 21  1  0
 30 24  1  0
  3 32  1  0
  4 33  1  0
  4 34  1  0
  8 35  1  0
  8 36  1  0
  9 37  1  0
  9 38  1  0
 10 39  1  0
 10 40  1  0
 11 41  1  6
 12 42  1  0
 12 43  1  0
 13 44  1  0
 15 45  1  0
 16 46  1  0
 19 47  1  0
 20 48  1  0
 22 49  1  0
 23 50  1  0
 25 51  1  0
 28 52  1  0
 29 53  1  0
M  END
>  <smiles>  (36) 
O=C(NCC(=O)N1CCC[C@H]1CNc1ccc(Cl)cc1)c1ccc2cc(F)ccc2n1

>  <score_type>  (36) 
oracle

>  <origin>  (36) 
autodockgpu

>  <m_score__min__energy>  (36) 
-9

>  <m_primary>  (36) 
energy

>  <rmsd>  (36) 
8.553364912034938

>  <m_score__min__rmsd>  (36) 
8.553364912034938

>  <meeko>  (36) 
{"free_energy": -7.54, "intermolecular_energy": -9.63, "internal_energy": -2.67, "cluster_size": 12, "cluster_id": 2, "rank_in_cluster": 11}

>  <energy>  (36) 
-8.12

>  <cluster_rmsd>  (36) 
1.63

>  <cluster>  (36) 
3

$$$$

     RDKit          3D

 53 56  0  0  0  0  0  0  0  0999 V2000
  138.0880   70.7270  221.9210 O   0  0  0  0  0  0  0  0  0  0  0  0
  138.8270   71.2290  222.8280 C   0  0  0  0  0  0  0  0  0  0  0  0
  139.3010   72.5690  222.7690 N   0  0  0  0  0  0  0  0  0  0  0  0
  138.9420   73.4300  221.6390 C   0  0  0  0  0  0  0  0  0  0  0  0
  139.4960   74.8040  221.9040 C   0  0  0  0  0  0  0  0  0  0  0  0
  140.6950   74.8370  222.2670 O   0  0  0  0  0  0  0  0  0  0  0  0
  138.6720   75.9460  221.7400 N   0  0  0  0  0  0  0  0  0  0  0  0
  137.2200   75.8770  221.5720 C   0  0  0  0  0  0  0  0  0  0  0  0
  136.7720   76.9640  222.5080 C   0  0  0  0  0  0  0  0  0  0  0  0
  137.7950   78.0450  222.3230 C   0  0  0  0  0  0  0  0  0  0  0  0
  138.9690   77.3490  221.6940 C   0  0  1  0  0  0  0  0  0  0  0  0
  140.2430   77.6360  222.4240 C   0  0  0  0  0  0  0  0  0  0  0  0
  141.4130   77.3340  221.5840 N   0  0  0  0  0  0  0  0  0  0  0  0
  141.7170   78.3170  220.5820 C   0  0  0  0  0  0  0  0  0  0  0  0
  142.1690   77.9050  219.3570 C   0  0  0  0  0  0  0  0  0  0  0  0
  142.4500   78.8950  218.4100 C   0  0  0  0  0  0  0  0  0  0  0  0
  142.2890   80.2320  218.6750 C   0  0  0  0  0  0  0  0  0  0  0  0
  142.6380   81.4880  217.4980 Cl  0  0  0  0  0  0  0  0  0  0  0  0
  141.8340   80.6300  219.9100 C   0  0  0  0  0  0  0  0  0  0  0  0
  141.5530   79.6570  220.8530 C   0  0  0  0  0  0  0  0  0  0  0  0
  139.2060   70.3920  223.9840 C   0  0  0  0  0  0  0  0  0  0  0  0
  138.9290   69.0330  223.9570 C   0  0  0  0  0  0  0  0  0  0  0  0
  139.2570   68.2000  225.0050 C   0  0  0  0  0  0  0  0  0  0  0  0
  139.8770   68.7540  226.1000 C   0  0  0  0  0  0  0  0  0  0  0  0
  140.2170   67.9630  227.1600 C   0  0  0  0  0  0  0  0  0  0  0  0
  140.8410   68.5430  228.2510 C   0  0  0  0  0  0  0  0  0  0  0  0
  141.1890   67.7860  229.3150 F   0  0  0  0  0  0  0  0  0  0  0  0
  141.1050   69.9010  228.2500 C   0  0  0  0  0  0  0  0  0  0  0  0
  140.7610   70.7160  227.1710 C   0  0  0  0  0  0  0  0  0  0  0  0
  140.1340   70.1120  226.0840 C   0  0  0  0  0  0  0  0  0  0  0  0
  139.8120   70.9130  225.0630 N   0  0  0  0  0  0  0  0  0  0  0  0
  139.9180   72.9350  223.5540 H   0  0  0  0  0  0  0  0  0  0  0  0
  139.3734   73.0266  220.7110 H   0  0  0  0  0  0  0  0  0  0  0  0
  137.8487   73.4750  221.5263 H   0  0  0  0  0  0  0  0  0  0  0  0
  136.9227   76.0892  220.5344 H   0  0  0  0  0  0  0  0  0  0  0  0
  136.7852   74.8888  221.7829 H   0  0  0  0  0  0  0  0  0  0  0  0
  135.7686   77.3245  222.2372 H   0  0  0  0  0  0  0  0  0  0  0  0
  136.7005   76.6222  223.5511 H   0  0  0  0  0  0  0  0  0  0  0  0
  137.4107   78.8347  221.6606 H   0  0  0  0  0  0  0  0  0  0  0  0
  138.0593   78.5371  223.2706 H   0  0  0  0  0  0  0  0  0  0  0  0
  139.1190   77.7035  220.6635 H   0  0  0  0  0  0  0  0  0  0  0  0
  140.2657   78.6998  222.7030 H   0  0  0  0  0  0  0  0  0  0  0  0
  140.2830   77.0008  223.3212 H   0  0  0  0  0  0  0  0  0  0  0  0
  141.9790   76.4760  221.7030 H   0  0  0  0  0  0  0  0  0  0  0  0
  142.3057   76.8380  219.1269 H   0  0  0  0  0  0  0  0  0  0  0  0
  142.8131   78.5912  217.4171 H   0  0  0  0  0  0  0  0  0  0  0  0
  141.6967   81.6963  220.1428 H   0  0  0  0  0  0  0  0  0  0  0  0
  141.1890   79.9621  221.8452 H   0  0  0  0  0  0  0  0  0  0  0  0
  138.4326   68.6073  223.0725 H   0  0  0  0  0  0  0  0  0  0  0  0
  139.0296   67.1244  224.9665 H   0  0  0  0  0  0  0  0  0  0  0  0
  139.9990   66.8849  227.1471 H   0  0  0  0  0  0  0  0  0  0  0  0
  141.5996   70.3505  229.1237 H   0  0  0  0  0  0  0  0  0  0  0  0
  140.9768   71.7946  227.1786 H   0  0  0  0  0  0  0  0  0  0  0  0
  1  2  2  0
  2  3  1  0
  3  4  1  0
  4  5  1  0
  5  6  2  0
  5  7  1  0
  7  8  1  0
  8  9  1  0
  9 10  1  0
 10 11  1  0
 11 12  1  0
 12 13  1  0
 13 14  1  0
 14 15  2  0
 15 16  1  0
 16 17  2  0
 17 18  1  0
 17 19  1  0
 19 20  2  0
  2 21  1  0
 21 22  2  0
 22 23  1  0
 23 24  2  0
 24 25  1  0
 25 26  2  0
 26 27  1  0
 26 28  1  0
 28 29  2  0
 29 30  1  0
 30 31  2  0
 11  7  1  0
 20 14  1  0
 31 21  1  0
 30 24  1  0
  3 32  1  0
  4 33  1  0
  4 34  1  0
  8 35  1  0
  8 36  1  0
  9 37  1  0
  9 38  1  0
 10 39  1  0
 10 40  1  0
 11 41  1  6
 12 42  1  0
 12 43  1  0
 13 44  1  0
 15 45  1  0
 16 46  1  0
 19 47  1  0
 20 48  1  0
 22 49  1  0
 23 50  1  0
 25 51  1  0
 28 52  1  0
 29 53  1  0
M  END
>  <smiles>  (37) 
O=C(NCC(=O)N1CCC[C@H]1CNc1ccc(Cl)cc1)c1ccc2cc(F)ccc2n1

>  <score_type>  (37) 
oracle

>  <origin>  (37) 
autodockgpu

>  <m_score__min__energy>  (37) 
-9

>  <m_primary>  (37) 
energy

>  <rmsd>  (37) 
2.712525166015282

>  <m_score__min__rmsd>  (37) 
2.712525166015282

>  <meeko>  (37) 
{"free_energy": -8.28, "intermolecular_energy": -10.36, "internal_energy": -2.49, "cluster_size": 20, "cluster_id": 1, "rank_in_cluster": 6}

>  <energy>  (37) 
-8.08

>  <cluster_rmsd>  (37) 
1.9

>  <cluster>  (37) 
3

$$$$

     RDKit          3D

 53 56  0  0  0  0  0  0  0  0999 V2000
  136.9630   76.4600  222.2510 O   0  0  0  0  0  0  0  0  0  0  0  0
  138.2350   76.4720  222.2830 C   0  0  0  0  0  0  0  0  0  0  0  0
  139.0160   75.3330  221.9400 N   0  0  0  0  0  0  0  0  0  0  0  0
  138.3630   74.0880  221.5290 C   0  0  0  0  0  0  0  0  0  0  0  0
  139.2820   72.9450  221.8690 C   0  0  0  0  0  0  0  0  0  0  0  0
  140.3410   73.2660  222.4570 O   0  0  0  0  0  0  0  0  0  0  0  0
  138.9230   71.6180  221.5230 N   0  0  0  0  0  0  0  0  0  0  0  0
  139.2460   71.0030  220.2350 C   0  0  0  0  0  0  0  0  0  0  0  0
  139.7430   69.6560  220.6780 C   0  0  0  0  0  0  0  0  0  0  0  0
  138.8310   69.2890  221.8110 C   0  0  0  0  0  0  0  0  0  0  0  0
  138.2190   70.5930  222.2390 C   0  0  1  0  0  0  0  0  0  0  0  0
  138.3440   70.8080  223.7150 C   0  0  0  0  0  0  0  0  0  0  0  0
  139.7530   70.9900  224.1040 N   0  0  0  0  0  0  0  0  0  0  0  0
  140.1430   70.3270  225.3170 C   0  0  0  0  0  0  0  0  0  0  0  0
  140.6710   71.0650  226.3410 C   0  0  0  0  0  0  0  0  0  0  0  0
  141.0350   70.3810  227.5060 C   0  0  0  0  0  0  0  0  0  0  0  0
  140.8790   69.0240  227.6390 C   0  0  0  0  0  0  0  0  0  0  0  0
  141.3310   68.1480  229.0920 Cl  0  0  0  0  0  0  0  0  0  0  0  0
  140.3470   68.2960  226.6000 C   0  0  0  0  0  0  0  0  0  0  0  0
  139.9840   68.9650  225.4450 C   0  0  0  0  0  0  0  0  0  0  0  0
  138.9280   77.7120  222.6880 C   0  0  0  0  0  0  0  0  0  0  0  0
  138.1770   78.8270  223.0320 C   0  0  0  0  0  0  0  0  0  0  0  0
  138.7640   80.0120  223.4180 C   0  0  0  0  0  0  0  0  0  0  0  0
  140.1380   80.0700  223.4560 C   0  0  0  0  0  0  0  0  0  0  0  0
  140.7590   81.2260  223.8310 C   0  0  0  0  0  0  0  0  0  0  0  0
  142.1430   81.2600  223.8610 C   0  0  0  0  0  0  0  0  0  0  0  0
  142.7860   82.3900  224.2280 F   0  0  0  0  0  0  0  0  0  0  0  0
  142.8660   80.1330  223.5130 C   0  0  0  0  0  0  0  0  0  0  0  0
  142.2380   78.9480  223.1290 C   0  0  0  0  0  0  0  0  0  0  0  0
  140.8460   78.9350  223.1050 C   0  0  0  0  0  0  0  0  0  0  0  0
  140.2680   77.7890  222.7320 N   0  0  0  0  0  0  0  0  0  0  0  0
  140.0770   75.3990  221.9870 H   0  0  0  0  0  0  0  0  0  0  0  0
  137.4095   73.9722  222.0651 H   0  0  0  0  0  0  0  0  0  0  0  0
  138.1571   74.1037  220.4486 H   0  0  0  0  0  0  0  0  0  0  0  0
  138.3559   70.9148  219.5948 H   0  0  0  0  0  0  0  0  0  0  0  0
  139.9632   71.5737  219.6268 H   0  0  0  0  0  0  0  0  0  0  0  0
  139.6670   68.9230  219.8614 H   0  0  0  0  0  0  0  0  0  0  0  0
  140.8022   69.6713  220.9743 H   0  0  0  0  0  0  0  0  0  0  0  0
  138.0542   68.5873  221.4732 H   0  0  0  0  0  0  0  0  0  0  0  0
  139.3647   68.7880  222.6321 H   0  0  0  0  0  0  0  0  0  0  0  0
  137.1417   70.6038  222.0169 H   0  0  0  0  0  0  0  0  0  0  0  0
  137.7740   71.7054  223.9974 H   0  0  0  0  0  0  0  0  0  0  0  0
  137.9488   69.9218  224.2332 H   0  0  0  0  0  0  0  0  0  0  0  0
  140.4170   71.5540  223.5470 H   0  0  0  0  0  0  0  0  0  0  0  0
  140.8041   72.1533  226.2519 H   0  0  0  0  0  0  0  0  0  0  0  0
  141.4612   70.9509  228.3448 H   0  0  0  0  0  0  0  0  0  0  0  0
  140.2134   67.2075  226.6857 H   0  0  0  0  0  0  0  0  0  0  0  0
  139.5572   68.3943  224.6070 H   0  0  0  0  0  0  0  0  0  0  0  0
  137.0795   78.7627  222.9953 H   0  0  0  0  0  0  0  0  0  0  0  0
  138.1525   80.8856  223.6877 H   0  0  0  0  0  0  0  0  0  0  0  0
  140.1709   82.1145  224.1044 H   0  0  0  0  0  0  0  0  0  0  0  0
  143.9650   80.1724  223.5398 H   0  0  0  0  0  0  0  0  0  0  0  0
  142.8213   78.0565  222.8552 H   0  0  0  0  0  0  0  0  0  0  0  0
  1  2  2  0
  2  3  1  0
  3  4  1  0
  4  5  1  0
  5  6  2  0
  5  7  1  0
  7  8  1  0
  8  9  1  0
  9 10  1  0
 10 11  1  0
 11 12  1  0
 12 13  1  0
 13 14  1  0
 14 15  2  0
 15 16  1  0
 16 17  2  0
 17 18  1  0
 17 19  1  0
 19 20  2  0
  2 21  1  0
 21 22  2  0
 22 23  1  0
 23 24  2  0
 24 25  1  0
 25 26  2  0
 26 27  1  0
 26 28  1  0
 28 29  2  0
 29 30  1  0
 30 31  2  0
 11  7  1  0
 20 14  1  0
 31 21  1  0
 30 24  1  0
  3 32  1  0
  4 33  1  0
  4 34  1  0
  8 35  1  0
  8 36  1  0
  9 37  1  0
  9 38  1  0
 10 39  1  0
 10 40  1  0
 11 41  1  6
 12 42  1  0
 12 43  1  0
 13 44  1  0
 15 45  1  0
 16 46  1  0
 19 47  1  0
 20 48  1  0
 22 49  1  0
 23 50  1  0
 25 51  1  0
 28 52  1  0
 29 53  1  0
M  END
>  <smiles>  (38) 
O=C(NCC(=O)N1CCC[C@H]1CNc1ccc(Cl)cc1)c1ccc2cc(F)ccc2n1

>  <score_type>  (38) 
oracle

>  <origin>  (38) 
autodockgpu

>  <m_score__min__energy>  (38) 
-9

>  <m_primary>  (38) 
energy

>  <rmsd>  (38) 
9.317182317076943

>  <m_score__min__rmsd>  (38) 
9.317182317076943

>  <meeko>  (38) 
{"free_energy": -8.0, "intermolecular_energy": -10.09, "internal_energy": -2.86, "cluster_size": 12, "cluster_id": 2, "rank_in_cluster": 5}

>  <energy>  (38) 
-8.0

>  <cluster_rmsd>  (38) 
1.69

>  <cluster>  (38) 
3

$$$$

     RDKit          3D

 53 56  0  0  0  0  0  0  0  0999 V2000
  141.4170   72.1480  221.9220 O   0  0  0  0  0  0  0  0  0  0  0  0
  140.3560   72.1960  222.6230 C   0  0  0  0  0  0  0  0  0  0  0  0
  139.2870   73.0860  222.3270 N   0  0  0  0  0  0  0  0  0  0  0  0
  139.3770   73.9910  221.1800 C   0  0  0  0  0  0  0  0  0  0  0  0
  140.2050   75.1810  221.5870 C   0  0  0  0  0  0  0  0  0  0  0  0
  139.9350   75.6610  222.7120 O   0  0  0  0  0  0  0  0  0  0  0  0
  141.2050   75.6810  220.7160 N   0  0  0  0  0  0  0  0  0  0  0  0
  142.5210   75.0610  220.5550 C   0  0  0  0  0  0  0  0  0  0  0  0
  142.6650   75.0780  219.0590 C   0  0  0  0  0  0  0  0  0  0  0  0
  142.0760   76.3970  218.6550 C   0  0  0  0  0  0  0  0  0  0  0  0
  141.2340   76.8100  219.8300 C   0  0  1  0  0  0  0  0  0  0  0  0
  139.8450   77.1840  219.4160 C   0  0  0  0  0  0  0  0  0  0  0  0
  139.2600   78.1580  220.3510 N   0  0  0  0  0  0  0  0  0  0  0  0
  140.1970   78.7990  221.2320 C   0  0  0  0  0  0  0  0  0  0  0  0
  140.2140   78.4510  222.5560 C   0  0  0  0  0  0  0  0  0  0  0  0
  141.1430   79.0970  223.3780 C   0  0  0  0  0  0  0  0  0  0  0  0
  142.0120   80.0450  222.9000 C   0  0  0  0  0  0  0  0  0  0  0  0
  143.1840   80.8670  223.9170 Cl  0  0  0  0  0  0  0  0  0  0  0  0
  141.9830   80.3840  221.5670 C   0  0  0  0  0  0  0  0  0  0  0  0
  141.0670   79.7490  220.7470 C   0  0  0  0  0  0  0  0  0  0  0  0
  140.2280   71.2940  223.7860 C   0  0  0  0  0  0  0  0  0  0  0  0
  139.5930   70.0700  223.6280 C   0  0  0  0  0  0  0  0  0  0  0  0
  139.4410   69.1860  224.6750 C   0  0  0  0  0  0  0  0  0  0  0  0
  139.9420   69.5490  225.9030 C   0  0  0  0  0  0  0  0  0  0  0  0
  139.8100   68.7020  226.9660 C   0  0  0  0  0  0  0  0  0  0  0  0
  140.3220   69.0890  228.1940 C   0  0  0  0  0  0  0  0  0  0  0  0
  140.2060   68.2720  229.2640 F   0  0  0  0  0  0  0  0  0  0  0  0
  140.9500   70.3150  228.3210 C   0  0  0  0  0  0  0  0  0  0  0  0
  141.0870   71.1850  227.2400 C   0  0  0  0  0  0  0  0  0  0  0  0
  140.5660   70.7770  226.0150 C   0  0  0  0  0  0  0  0  0  0  0  0
  140.7090   71.6290  224.9940 N   0  0  0  0  0  0  0  0  0  0  0  0
  138.4240   73.0840  222.9500 H   0  0  0  0  0  0  0  0  0  0  0  0
  139.8559   73.4751  220.3347 H   0  0  0  0  0  0  0  0  0  0  0  0
  138.3723   74.3139  220.8696 H   0  0  0  0  0  0  0  0  0  0  0  0
  143.3090   75.6531  221.0434 H   0  0  0  0  0  0  0  0  0  0  0  0
  142.6103   74.0625  221.0078 H   0  0  0  0  0  0  0  0  0  0  0  0
  143.7237   75.0162  218.7670 H   0  0  0  0  0  0  0  0  0  0  0  0
  142.1669   74.2249  218.5751 H   0  0  0  0  0  0  0  0  0  0  0  0
  142.8692   77.1355  218.4666 H   0  0  0  0  0  0  0  0  0  0  0  0
  141.4912   76.3266  217.7260 H   0  0  0  0  0  0  0  0  0  0  0  0
  141.6602   77.7010  220.3142 H   0  0  0  0  0  0  0  0  0  0  0  0
  139.8765   77.6260  218.4092 H   0  0  0  0  0  0  0  0  0  0  0  0
  139.2223   76.2773  219.4196 H   0  0  0  0  0  0  0  0  0  0  0  0
  138.2480   78.3700  220.3760 H   0  0  0  0  0  0  0  0  0  0  0  0
  139.5246   77.6936  222.9572 H   0  0  0  0  0  0  0  0  0  0  0  0
  141.1782   78.8357  224.4459 H   0  0  0  0  0  0  0  0  0  0  0  0
  142.6711   81.1412  221.1630 H   0  0  0  0  0  0  0  0  0  0  0  0
  141.0332   80.0104  219.6790 H   0  0  0  0  0  0  0  0  0  0  0  0
  139.1992   69.7971  222.6378 H   0  0  0  0  0  0  0  0  0  0  0  0
  138.9345   68.2200  224.5324 H   0  0  0  0  0  0  0  0  0  0  0  0
  139.3067   67.7308  226.8496 H   0  0  0  0  0  0  0  0  0  0  0  0
  141.3520   70.6115  229.3010 H   0  0  0  0  0  0  0  0  0  0  0  0
  141.5883   72.1578  227.3509 H   0  0  0  0  0  0  0  0  0  0  0  0
  1  2  2  0
  2  3  1  0
  3  4  1  0
  4  5  1  0
  5  6  2  0
  5  7  1  0
  7  8  1  0
  8  9  1  0
  9 10  1  0
 10 11  1  0
 11 12  1  0
 12 13  1  0
 13 14  1  0
 14 15  2  0
 15 16  1  0
 16 17  2  0
 17 18  1  0
 17 19  1  0
 19 20  2  0
  2 21  1  0
 21 22  2  0
 22 23  1  0
 23 24  2  0
 24 25  1  0
 25 26  2  0
 26 27  1  0
 26 28  1  0
 28 29  2  0
 29 30  1  0
 30 31  2  0
 11  7  1  0
 20 14  1  0
 31 21  1  0
 30 24  1  0
  3 32  1  0
  4 33  1  0
  4 34  1  0
  8 35  1  0
  8 36  1  0
  9 37  1  0
  9 38  1  0
 10 39  1  0
 10 40  1  0
 11 41  1  1
 12 42  1  0
 12 43  1  0
 13 44  1  0
 15 45  1  0
 16 46  1  0
 19 47  1  0
 20 48  1  0
 22 49  1  0
 23 50  1  0
 25 51  1  0
 28 52  1  0
 29 53  1  0
M  END
>  <smiles>  (39) 
O=C(NCC(=O)N1CCC[C@H]1CNc1ccc(Cl)cc1)c1ccc2cc(F)ccc2n1

>  <score_type>  (39) 
oracle

>  <origin>  (39) 
autodockgpu

>  <m_score__min__energy>  (39) 
-9

>  <m_primary>  (39) 
energy

>  <rmsd>  (39) 
2.3887260384687434

>  <m_score__min__rmsd>  (39) 
2.3887260384687434

>  <meeko>  (39) 
{"free_energy": -8.47, "intermolecular_energy": -10.56, "internal_energy": -1.74, "cluster_size": 20, "cluster_id": 1, "rank_in_cluster": 3}

>  <energy>  (39) 
-7.93

>  <cluster_rmsd>  (39) 
1.99

>  <cluster>  (39) 
3

$$$$

     RDKit          3D

 53 56  0  0  0  0  0  0  0  0999 V2000
  140.5140   74.0440  222.1130 O   0  0  0  0  0  0  0  0  0  0  0  0
  139.7070   75.0140  221.9500 C   0  0  0  0  0  0  0  0  0  0  0  0
  138.3030   74.8230  221.8200 N   0  0  0  0  0  0  0  0  0  0  0  0
  137.7340   73.4750  221.8750 C   0  0  0  0  0  0  0  0  0  0  0  0
  138.2850   72.6870  220.7170 C   0  0  0  0  0  0  0  0  0  0  0  0
  138.5990   73.3640  219.7100 O   0  0  0  0  0  0  0  0  0  0  0  0
  138.4160   71.2790  220.8140 N   0  0  0  0  0  0  0  0  0  0  0  0
  137.7520   70.3410  219.9080 C   0  0  0  0  0  0  0  0  0  0  0  0
  138.8760   69.3910  219.6050 C   0  0  0  0  0  0  0  0  0  0  0  0
  139.5910   69.2480  220.9150 C   0  0  0  0  0  0  0  0  0  0  0  0
  139.1500   70.4400  221.7170 C   0  0  1  0  0  0  0  0  0  0  0  0
  140.3140   71.1860  222.2910 C   0  0  0  0  0  0  0  0  0  0  0  0
  139.9460   71.8460  223.5550 N   0  0  0  0  0  0  0  0  0  0  0  0
  140.1510   71.0580  224.7380 C   0  0  0  0  0  0  0  0  0  0  0  0
  140.8820   71.5810  225.7700 C   0  0  0  0  0  0  0  0  0  0  0  0
  141.0550   70.7820  226.9050 C   0  0  0  0  0  0  0  0  0  0  0  0
  140.5240   69.5200  227.0020 C   0  0  0  0  0  0  0  0  0  0  0  0
  140.7320   68.5030  228.4180 Cl  0  0  0  0  0  0  0  0  0  0  0  0
  139.7920   69.0080  225.9560 C   0  0  0  0  0  0  0  0  0  0  0  0
  139.6160   69.7930  224.8300 C   0  0  0  0  0  0  0  0  0  0  0  0
  140.2450   76.3880  221.8940 C   0  0  0  0  0  0  0  0  0  0  0  0
  141.2300   76.6940  220.9650 C   0  0  0  0  0  0  0  0  0  0  0  0
  141.7720   77.9570  220.8640 C   0  0  0  0  0  0  0  0  0  0  0  0
  141.3080   78.9280  221.7190 C   0  0  0  0  0  0  0  0  0  0  0  0
  141.8210   80.1920  221.6530 C   0  0  0  0  0  0  0  0  0  0  0  0
  141.3380   81.1530  222.5250 C   0  0  0  0  0  0  0  0  0  0  0  0
  141.8260   82.4130  222.4830 F   0  0  0  0  0  0  0  0  0  0  0  0
  140.3560   80.8210  223.4400 C   0  0  0  0  0  0  0  0  0  0  0  0
  139.8280   79.5310  223.5140 C   0  0  0  0  0  0  0  0  0  0  0  0
  140.3270   78.5800  222.6290 C   0  0  0  0  0  0  0  0  0  0  0  0
  139.8060   77.3510  222.7200 N   0  0  0  0  0  0  0  0  0  0  0  0
  137.6760   75.6710  221.6830 H   0  0  0  0  0  0  0  0  0  0  0  0
  138.0136   72.9907  222.8222 H   0  0  0  0  0  0  0  0  0  0  0  0
  136.6366   73.5220  221.8161 H   0  0  0  0  0  0  0  0  0  0  0  0
  136.9122   69.8292  220.4008 H   0  0  0  0  0  0  0  0  0  0  0  0
  137.3023   70.8094  219.0201 H   0  0  0  0  0  0  0  0  0  0  0  0
  138.4867   68.4204  219.2637 H   0  0  0  0  0  0  0  0  0  0  0  0
  139.5329   69.7541  218.8008 H   0  0  0  0  0  0  0  0  0  0  0  0
  139.3004   68.3130  221.4164 H   0  0  0  0  0  0  0  0  0  0  0  0
  140.6834   69.2073  220.7928 H   0  0  0  0  0  0  0  0  0  0  0  0
  138.5362   70.1218  222.5725 H   0  0  0  0  0  0  0  0  0  0  0  0
  141.1361   70.4799  222.4798 H   0  0  0  0  0  0  0  0  0  0  0  0
  140.6260   71.9568  221.5709 H   0  0  0  0  0  0  0  0  0  0  0  0
  139.5680   72.8080  223.5920 H   0  0  0  0  0  0  0  0  0  0  0  0
  141.3163   72.5898  225.7093 H   0  0  0  0  0  0  0  0  0  0  0  0
  141.6371   71.1791  227.7497 H   0  0  0  0  0  0  0  0  0  0  0  0
  139.3572   67.9992  226.0131 H   0  0  0  0  0  0  0  0  0  0  0  0
  139.0331   69.3956  223.9861 H   0  0  0  0  0  0  0  0  0  0  0  0
  141.5889   75.9042  220.2887 H   0  0  0  0  0  0  0  0  0  0  0  0
  142.5522   78.1812  220.1217 H   0  0  0  0  0  0  0  0  0  0  0  0
  142.6031   80.4419  220.9210 H   0  0  0  0  0  0  0  0  0  0  0  0
  139.9811   81.5935  224.1275 H   0  0  0  0  0  0  0  0  0  0  0  0
  139.0465   79.2756  224.2448 H   0  0  0  0  0  0  0  0  0  0  0  0
  1  2  2  0
  2  3  1  0
  3  4  1  0
  4  5  1  0
  5  6  2  0
  5  7  1  0
  7  8  1  0
  8  9  1  0
  9 10  1  0
 10 11  1  0
 11 12  1  0
 12 13  1  0
 13 14  1  0
 14 15  2  0
 15 16  1  0
 16 17  2  0
 17 18  1  0
 17 19  1  0
 19 20  2  0
  2 21  1  0
 21 22  2  0
 22 23  1  0
 23 24  2  0
 24 25  1  0
 25 26  2  0
 26 27  1  0
 26 28  1  0
 28 29  2  0
 29 30  1  0
 30 31  2  0
 11  7  1  0
 20 14  1  0
 31 21  1  0
 30 24  1  0
  3 32  1  0
  4 33  1  0
  4 34  1  0
  8 35  1  0
  8 36  1  0
  9 37  1  0
  9 38  1  0
 10 39  1  0
 10 40  1  0
 11 41  1  1
 12 42  1  0
 12 43  1  0
 13 44  1  0
 15 45  1  0
 16 46  1  0
 19 47  1  0
 20 48  1  0
 22 49  1  0
 23 50  1  0
 25 51  1  0
 28 52  1  0
 29 53  1  0
M  END
>  <smiles>  (40) 
O=C(NCC(=O)N1CCC[C@H]1CNc1ccc(Cl)cc1)c1ccc2cc(F)ccc2n1

>  <score_type>  (40) 
oracle

>  <origin>  (40) 
autodockgpu

>  <m_score__min__energy>  (40) 
-9

>  <m_primary>  (40) 
energy

>  <rmsd>  (40) 
8.931105830643322

>  <m_score__min__rmsd>  (40) 
8.931105830643322

>  <meeko>  (40) 
{"free_energy": -7.73, "intermolecular_energy": -9.82, "internal_energy": -2.26, "cluster_size": 12, "cluster_id": 2, "rank_in_cluster": 8}

>  <energy>  (40) 
-8.24

>  <cluster_rmsd>  (40) 
0.0

>  <cluster>  (40) 
4

$$$$

     RDKit          3D

 53 56  0  0  0  0  0  0  0  0999 V2000
  139.9770   71.4710  220.9680 O   0  0  0  0  0  0  0  0  0  0  0  0
  139.8420   72.0850  222.0750 C   0  0  0  0  0  0  0  0  0  0  0  0
  139.6790   73.4960  222.1480 N   0  0  0  0  0  0  0  0  0  0  0  0
  139.6570   74.3010  220.9240 C   0  0  0  0  0  0  0  0  0  0  0  0
  140.7200   75.3600  221.0410 C   0  0  0  0  0  0  0  0  0  0  0  0
  141.0720   75.6380  222.2110 O   0  0  0  0  0  0  0  0  0  0  0  0
  141.2480   75.9680  219.8750 N   0  0  0  0  0  0  0  0  0  0  0  0
  140.5460   77.0020  219.1130 C   0  0  0  0  0  0  0  0  0  0  0  0
  141.6530   77.9910  218.8830 C   0  0  0  0  0  0  0  0  0  0  0  0
  142.8550   77.1320  218.6180 C   0  0  0  0  0  0  0  0  0  0  0  0
  142.4830   75.7840  219.1680 C   0  0  1  0  0  0  0  0  0  0  0  0
  143.5360   75.2500  220.0890 C   0  0  0  0  0  0  0  0  0  0  0  0
  143.0800   74.0180  220.7530 N   0  0  0  0  0  0  0  0  0  0  0  0
  143.6880   72.8060  220.2780 C   0  0  0  0  0  0  0  0  0  0  0  0
  142.9770   71.6380  220.3280 C   0  0  0  0  0  0  0  0  0  0  0  0
  143.6070   70.4820  219.8530 C   0  0  0  0  0  0  0  0  0  0  0  0
  144.8850   70.4940  219.3560 C   0  0  0  0  0  0  0  0  0  0  0  0
  145.6910   69.0530  218.7570 Cl  0  0  0  0  0  0  0  0  0  0  0  0
  145.5870   71.6760  219.3130 C   0  0  0  0  0  0  0  0  0  0  0  0
  144.9720   72.8240  219.7800 C   0  0  0  0  0  0  0  0  0  0  0  0
  139.8550   71.3070  223.3300 C   0  0  0  0  0  0  0  0  0  0  0  0
  139.3430   70.0170  223.3330 C   0  0  0  0  0  0  0  0  0  0  0  0
  139.3250   69.2410  224.4720 C   0  0  0  0  0  0  0  0  0  0  0  0
  139.8370   69.7810  225.6280 C   0  0  0  0  0  0  0  0  0  0  0  0
  139.8370   69.0450  226.7780 C   0  0  0  0  0  0  0  0  0  0  0  0
  140.3570   69.6100  227.9310 C   0  0  0  0  0  0  0  0  0  0  0  0
  140.3700   68.9070  229.0850 F   0  0  0  0  0  0  0  0  0  0  0  0
  140.8610   70.8980  227.8980 C   0  0  0  0  0  0  0  0  0  0  0  0
  140.8640   71.6560  226.7270 C   0  0  0  0  0  0  0  0  0  0  0  0
  140.3370   71.0690  225.5790 C   0  0  0  0  0  0  0  0  0  0  0  0
  140.3490   71.8150  224.4700 N   0  0  0  0  0  0  0  0  0  0  0  0
  139.5730   73.9570  223.1010 H   0  0  0  0  0  0  0  0  0  0  0  0
  139.8626   73.6611  220.0532 H   0  0  0  0  0  0  0  0  0  0  0  0
  138.6690   74.7661  220.7918 H   0  0  0  0  0  0  0  0  0  0  0  0
  140.1531   76.6077  218.1642 H   0  0  0  0  0  0  0  0  0  0  0  0
  139.6640   77.4191  219.6211 H   0  0  0  0  0  0  0  0  0  0  0  0
  141.4314   78.6320  218.0170 H   0  0  0  0  0  0  0  0  0  0  0  0
  141.7975   78.6718  219.7348 H   0  0  0  0  0  0  0  0  0  0  0  0
  143.0575   77.0691  217.5386 H   0  0  0  0  0  0  0  0  0  0  0  0
  143.7676   77.5353  219.0812 H   0  0  0  0  0  0  0  0  0  0  0  0
  142.3842   75.0504  218.3543 H   0  0  0  0  0  0  0  0  0  0  0  0
  144.4443   75.0308  219.5085 H   0  0  0  0  0  0  0  0  0  0  0  0
  143.7446   76.0069  220.8594 H   0  0  0  0  0  0  0  0  0  0  0  0
  142.3720   74.0190  221.5070 H   0  0  0  0  0  0  0  0  0  0  0  0
  141.9517   71.6088  220.7255 H   0  0  0  0  0  0  0  0  0  0  0  0
  143.0572   69.5296  219.8793 H   0  0  0  0  0  0  0  0  0  0  0  0
  146.6127   71.7078  218.9169 H   0  0  0  0  0  0  0  0  0  0  0  0
  145.5228   73.7758  219.7528 H   0  0  0  0  0  0  0  0  0  0  0  0
  138.9393   69.6013  222.3980 H   0  0  0  0  0  0  0  0  0  0  0  0
  138.9136   68.2209  224.4565 H   0  0  0  0  0  0  0  0  0  0  0  0
  139.4317   68.0225  226.7887 H   0  0  0  0  0  0  0  0  0  0  0  0
  141.2704   71.3362  228.8201 H   0  0  0  0  0  0  0  0  0  0  0  0
  141.2675   72.6792  226.7108 H   0  0  0  0  0  0  0  0  0  0  0  0
  1  2  2  0
  2  3  1  0
  3  4  1  0
  4  5  1  0
  5  6  2  0
  5  7  1  0
  7  8  1  0
  8  9  1  0
  9 10  1  0
 10 11  1  0
 11 12  1  0
 12 13  1  0
 13 14  1  0
 14 15  2  0
 15 16  1  0
 16 17  2  0
 17 18  1  0
 17 19  1  0
 19 20  2  0
  2 21  1  0
 21 22  2  0
 22 23  1  0
 23 24  2  0
 24 25  1  0
 25 26  2  0
 26 27  1  0
 26 28  1  0
 28 29  2  0
 29 30  1  0
 30 31  2  0
 11  7  1  0
 20 14  1  0
 31 21  1  0
 30 24  1  0
  3 32  1  0
  4 33  1  0
  4 34  1  0
  8 35  1  0
  8 36  1  0
  9 37  1  0
  9 38  1  0
 10 39  1  0
 10 40  1  0
 11 41  1  6
 12 42  1  0
 12 43  1  0
 13 44  1  0
 15 45  1  0
 16 46  1  0
 19 47  1  0
 20 48  1  0
 22 49  1  0
 23 50  1  0
 25 51  1  0
 28 52  1  0
 29 53  1  0
M  END
>  <smiles>  (41) 
O=C(NCC(=O)N1CCC[C@H]1CNc1ccc(Cl)cc1)c1ccc2cc(F)ccc2n1

>  <score_type>  (41) 
oracle

>  <origin>  (41) 
autodockgpu

>  <m_score__min__energy>  (41) 
-9

>  <m_primary>  (41) 
energy

>  <rmsd>  (41) 
4.655677555700844

>  <m_score__min__rmsd>  (41) 
4.655677555700844

>  <meeko>  (41) 
{"free_energy": -7.77, "intermolecular_energy": -9.86, "internal_energy": -2.7, "cluster_size": 6, "cluster_id": 5, "rank_in_cluster": 5}

>  <energy>  (41) 
-8.16

>  <cluster_rmsd>  (41) 
0.0

>  <cluster>  (41) 
5

$$$$

     RDKit          3D

 53 56  0  0  0  0  0  0  0  0999 V2000
  140.4780   71.3080  221.7350 O   0  0  0  0  0  0  0  0  0  0  0  0
  139.6370   71.4630  222.6780 C   0  0  0  0  0  0  0  0  0  0  0  0
  138.5990   72.4340  222.6200 N   0  0  0  0  0  0  0  0  0  0  0  0
  138.4640   73.3000  221.4460 C   0  0  0  0  0  0  0  0  0  0  0  0
  139.2240   74.5720  221.7130 C   0  0  0  0  0  0  0  0  0  0  0  0
  140.4230   74.4190  222.0440 O   0  0  0  0  0  0  0  0  0  0  0  0
  138.5760   75.8260  221.5850 N   0  0  0  0  0  0  0  0  0  0  0  0
  137.4800   76.2620  222.4510 C   0  0  0  0  0  0  0  0  0  0  0  0
  137.9010   77.6710  222.7600 C   0  0  0  0  0  0  0  0  0  0  0  0
  138.4710   78.1700  221.4650 C   0  0  0  0  0  0  0  0  0  0  0  0
  138.7720   76.9230  220.6810 C   0  0  1  0  0  0  0  0  0  0  0  0
  140.1730   76.9210  220.1550 C   0  0  0  0  0  0  0  0  0  0  0  0
  141.1450   76.7250  221.2430 N   0  0  0  0  0  0  0  0  0  0  0  0
  141.4800   77.9090  221.9840 C   0  0  0  0  0  0  0  0  0  0  0  0
  141.4520   77.8710  223.3510 C   0  0  0  0  0  0  0  0  0  0  0  0
  141.7880   79.0450  224.0340 C   0  0  0  0  0  0  0  0  0  0  0  0
  142.1350   80.2010  223.3800 C   0  0  0  0  0  0  0  0  0  0  0  0
  142.5590   81.6830  224.2200 Cl  0  0  0  0  0  0  0  0  0  0  0  0
  142.1590   80.2230  222.0050 C   0  0  0  0  0  0  0  0  0  0  0  0
  141.8280   79.0660  221.3220 C   0  0  0  0  0  0  0  0  0  0  0  0
  139.7400   70.6050  223.8760 C   0  0  0  0  0  0  0  0  0  0  0  0
  139.2090   69.3230  223.8390 C   0  0  0  0  0  0  0  0  0  0  0  0
  139.2720   68.4750  224.9240 C   0  0  0  0  0  0  0  0  0  0  0  0
  139.8840   68.9340  226.0660 C   0  0  0  0  0  0  0  0  0  0  0  0
  139.9660   68.1260  227.1640 C   0  0  0  0  0  0  0  0  0  0  0  0
  140.5870   68.6100  228.3030 C   0  0  0  0  0  0  0  0  0  0  0  0
  140.6830   67.8340  229.4050 F   0  0  0  0  0  0  0  0  0  0  0  0
  141.1070   69.8920  228.3110 C   0  0  0  0  0  0  0  0  0  0  0  0
  141.0260   70.7240  227.1930 C   0  0  0  0  0  0  0  0  0  0  0  0
  140.3990   70.2180  226.0580 C   0  0  0  0  0  0  0  0  0  0  0  0
  140.3320   71.0340  225.0010 N   0  0  0  0  0  0  0  0  0  0  0  0
  137.9250   72.5220  223.4390 H   0  0  0  0  0  0  0  0  0  0  0  0
  138.8799   72.7960  220.5611 H   0  0  0  0  0  0  0  0  0  0  0  0
  137.4035   73.5224  221.2565 H   0  0  0  0  0  0  0  0  0  0  0  0
  136.5144   76.2352  221.9248 H   0  0  0  0  0  0  0  0  0  0  0  0
  137.3247   75.6305  223.3382 H   0  0  0  0  0  0  0  0  0  0  0  0
  137.0373   78.2789  223.0674 H   0  0  0  0  0  0  0  0  0  0  0  0
  138.6213   77.7261  223.5895 H   0  0  0  0  0  0  0  0  0  0  0  0
  137.7391   78.7962  220.9337 H   0  0  0  0  0  0  0  0  0  0  0  0
  139.3632   78.7959  221.6142 H   0  0  0  0  0  0  0  0  0  0  0  0
  138.1138   76.8531  219.8025 H   0  0  0  0  0  0  0  0  0  0  0  0
  140.2817   76.1059  219.4244 H   0  0  0  0  0  0  0  0  0  0  0  0
  140.3702   77.8933  219.6800 H   0  0  0  0  0  0  0  0  0  0  0  0
  141.5590   75.8030  221.4620 H   0  0  0  0  0  0  0  0  0  0  0  0
  141.1762   76.9538  223.8920 H   0  0  0  0  0  0  0  0  0  0  0  0
  141.7736   79.0415  225.1339 H   0  0  0  0  0  0  0  0  0  0  0  0
  142.4348   81.1386  221.4612 H   0  0  0  0  0  0  0  0  0  0  0  0
  141.8431   79.0702  220.2221 H   0  0  0  0  0  0  0  0  0  0  0  0
  138.7233   68.9732  222.9161 H   0  0  0  0  0  0  0  0  0  0  0  0
  138.8456   67.4621  224.8773 H   0  0  0  0  0  0  0  0  0  0  0  0
  139.5464   67.1094  227.1439 H   0  0  0  0  0  0  0  0  0  0  0  0
  141.5971   70.2655  229.2222 H   0  0  0  0  0  0  0  0  0  0  0  0
  141.4424   71.7420  227.2084 H   0  0  0  0  0  0  0  0  0  0  0  0
  1  2  2  0
  2  3  1  0
  3  4  1  0
  4  5  1  0
  5  6  2  0
  5  7  1  0
  7  8  1  0
  8  9  1  0
  9 10  1  0
 10 11  1  0
 11 12  1  0
 12 13  1  0
 13 14  1  0
 14 15  2  0
 15 16  1  0
 16 17  2  0
 17 18  1  0
 17 19  1  0
 19 20  2  0
  2 21  1  0
 21 22  2  0
 22 23  1  0
 23 24  2  0
 24 25  1  0
 25 26  2  0
 26 27  1  0
 26 28  1  0
 28 29  2  0
 29 30  1  0
 30 31  2  0
 11  7  1  0
 20 14  1  0
 31 21  1  0
 30 24  1  0
  3 32  1  0
  4 33  1  0
  4 34  1  0
  8 35  1  0
  8 36  1  0
  9 37  1  0
  9 38  1  0
 10 39  1  0
 10 40  1  0
 11 41  1  6
 12 42  1  0
 12 43  1  0
 13 44  1  0
 15 45  1  0
 16 46  1  0
 19 47  1  0
 20 48  1  0
 22 49  1  0
 23 50  1  0
 25 51  1  0
 28 52  1  0
 29 53  1  0
M  END
>  <smiles>  (42) 
O=C(NCC(=O)N1CCC[C@H]1CNc1ccc(Cl)cc1)c1ccc2cc(F)ccc2n1

>  <score_type>  (42) 
oracle

>  <origin>  (42) 
autodockgpu

>  <m_score__min__energy>  (42) 
-9

>  <m_primary>  (42) 
energy

>  <rmsd>  (42) 
2.8350901187955375

>  <m_score__min__rmsd>  (42) 
2.8350901187955375

>  <meeko>  (42) 
{"free_energy": -9.0, "intermolecular_energy": -11.09, "internal_energy": -2.09, "cluster_size": 20, "cluster_id": 1, "rank_in_cluster": 1}

>  <energy>  (42) 
-8.03

>  <cluster_rmsd>  (42) 
0.66

>  <cluster>  (42) 
5

$$$$

     RDKit          3D

 53 56  0  0  0  0  0  0  0  0999 V2000
  140.0990   71.3300  221.0100 O   0  0  0  0  0  0  0  0  0  0  0  0
  139.8880   71.9180  222.1190 C   0  0  0  0  0  0  0  0  0  0  0  0
  139.6460   73.3170  222.2050 N   0  0  0  0  0  0  0  0  0  0  0  0
  139.6280   74.1380  220.9920 C   0  0  0  0  0  0  0  0  0  0  0  0
  140.6060   75.2680  221.1770 C   0  0  0  0  0  0  0  0  0  0  0  0
  140.6700   75.7350  222.3380 O   0  0  0  0  0  0  0  0  0  0  0  0
  141.3730   75.7310  220.0790 N   0  0  0  0  0  0  0  0  0  0  0  0
  141.1040   76.9870  219.3780 C   0  0  0  0  0  0  0  0  0  0  0  0
  142.4920   77.5520  219.2600 C   0  0  0  0  0  0  0  0  0  0  0  0
  143.3450   76.3540  218.9660 C   0  0  0  0  0  0  0  0  0  0  0  0
  142.5100   75.1810  219.3990 C   0  0  1  0  0  0  0  0  0  0  0  0
  143.2670   74.2640  220.3070 C   0  0  0  0  0  0  0  0  0  0  0  0
  142.6090   72.9510  220.3990 N   0  0  0  0  0  0  0  0  0  0  0  0
  143.4250   71.8290  220.0260 C   0  0  0  0  0  0  0  0  0  0  0  0
  144.7370   72.0390  219.6960 C   0  0  0  0  0  0  0  0  0  0  0  0
  145.4970   70.9200  219.3410 C   0  0  0  0  0  0  0  0  0  0  0  0
  144.9710   69.6530  219.3160 C   0  0  0  0  0  0  0  0  0  0  0  0
  145.9090   68.2370  218.8720 Cl  0  0  0  0  0  0  0  0  0  0  0  0
  143.6510   69.4580  219.6500 C   0  0  0  0  0  0  0  0  0  0  0  0
  142.8920   70.5600  220.0030 C   0  0  0  0  0  0  0  0  0  0  0  0
  139.8950   71.1220  223.3630 C   0  0  0  0  0  0  0  0  0  0  0  0
  139.4190   69.8190  223.3360 C   0  0  0  0  0  0  0  0  0  0  0  0
  139.3980   69.0250  224.4630 C   0  0  0  0  0  0  0  0  0  0  0  0
  139.8670   69.5620  225.6380 C   0  0  0  0  0  0  0  0  0  0  0  0
  139.8620   68.8090  226.7780 C   0  0  0  0  0  0  0  0  0  0  0  0
  140.3400   69.3720  227.9500 C   0  0  0  0  0  0  0  0  0  0  0  0
  140.3470   68.6520  229.0930 F   0  0  0  0  0  0  0  0  0  0  0  0
  140.8080   70.6730  227.9470 C   0  0  0  0  0  0  0  0  0  0  0  0
  140.8170   71.4480  226.7860 C   0  0  0  0  0  0  0  0  0  0  0  0
  140.3320   70.8640  225.6190 C   0  0  0  0  0  0  0  0  0  0  0  0
  140.3490   71.6270  224.5210 N   0  0  0  0  0  0  0  0  0  0  0  0
  139.4780   73.7570  223.1590 H   0  0  0  0  0  0  0  0  0  0  0  0
  139.9223   73.5285  220.1249 H   0  0  0  0  0  0  0  0  0  0  0  0
  138.6172   74.5341  220.8151 H   0  0  0  0  0  0  0  0  0  0  0  0
  140.6545   76.8099  218.3898 H   0  0  0  0  0  0  0  0  0  0  0  0
  140.3874   77.6471  219.8887 H   0  0  0  0  0  0  0  0  0  0  0  0
  142.5485   78.2834  218.4403 H   0  0  0  0  0  0  0  0  0  0  0  0
  142.8106   78.0876  220.1664 H   0  0  0  0  0  0  0  0  0  0  0  0
  143.5729   76.2934  217.8916 H   0  0  0  0  0  0  0  0  0  0  0  0
  144.3134   76.3925  219.4864 H   0  0  0  0  0  0  0  0  0  0  0  0
  142.2150   74.5765  218.5286 H   0  0  0  0  0  0  0  0  0  0  0  0
  144.2856   74.1291  219.9142 H   0  0  0  0  0  0  0  0  0  0  0  0
  143.2972   74.7118  221.3113 H   0  0  0  0  0  0  0  0  0  0  0  0
  141.6280   72.8380  220.7100 H   0  0  0  0  0  0  0  0  0  0  0  0
  145.1758   73.0476  219.7095 H   0  0  0  0  0  0  0  0  0  0  0  0
  146.5543   71.0606  219.0722 H   0  0  0  0  0  0  0  0  0  0  0  0
  143.2094   68.4506  219.6368 H   0  0  0  0  0  0  0  0  0  0  0  0
  141.8349   70.4182  220.2723 H   0  0  0  0  0  0  0  0  0  0  0  0
  139.0470   69.4068  222.3864 H   0  0  0  0  0  0  0  0  0  0  0  0
  139.0176   67.9936  224.4230 H   0  0  0  0  0  0  0  0  0  0  0  0
  139.4856   67.7755  226.7655 H   0  0  0  0  0  0  0  0  0  0  0  0
  141.1833   71.1090  228.8846 H   0  0  0  0  0  0  0  0  0  0  0  0
  141.1933   72.4816  226.7929 H   0  0  0  0  0  0  0  0  0  0  0  0
  1  2  2  0
  2  3  1  0
  3  4  1  0
  4  5  1  0
  5  6  2  0
  5  7  1  0
  7  8  1  0
  8  9  1  0
  9 10  1  0
 10 11  1  0
 11 12  1  0
 12 13  1  0
 13 14  1  0
 14 15  2  0
 15 16  1  0
 16 17  2  0
 17 18  1  0
 17 19  1  0
 19 20  2  0
  2 21  1  0
 21 22  2  0
 22 23  1  0
 23 24  2  0
 24 25  1  0
 25 26  2  0
 26 27  1  0
 26 28  1  0
 28 29  2  0
 29 30  1  0
 30 31  2  0
 11  7  1  0
 20 14  1  0
 31 21  1  0
 30 24  1  0
  3 32  1  0
  4 33  1  0
  4 34  1  0
  8 35  1  0
  8 36  1  0
  9 37  1  0
  9 38  1  0
 10 39  1  0
 10 40  1  0
 11 41  1  6
 12 42  1  0
 12 43  1  0
 13 44  1  0
 15 45  1  0
 16 46  1  0
 19 47  1  0
 20 48  1  0
 22 49  1  0
 23 50  1  0
 25 51  1  0
 28 52  1  0
 29 53  1  0
M  END
>  <smiles>  (43) 
O=C(NCC(=O)N1CCC[C@H]1CNc1ccc(Cl)cc1)c1ccc2cc(F)ccc2n1

>  <score_type>  (43) 
oracle

>  <origin>  (43) 
autodockgpu

>  <m_score__min__energy>  (43) 
-9

>  <m_primary>  (43) 
energy

>  <rmsd>  (43) 
5.0795822610043

>  <m_score__min__rmsd>  (43) 
5.0795822610043

>  <meeko>  (43) 
{"free_energy": -7.81, "intermolecular_energy": -9.89, "internal_energy": -2.84, "cluster_size": 6, "cluster_id": 5, "rank_in_cluster": 4}

>  <energy>  (43) 
-8.02

>  <cluster_rmsd>  (43) 
1.03

>  <cluster>  (43) 
5

$$$$

     RDKit          3D

 53 56  0  0  0  0  0  0  0  0999 V2000
  136.7420   76.7950  222.1340 O   0  0  0  0  0  0  0  0  0  0  0  0
  138.0070   76.7010  222.2370 C   0  0  0  0  0  0  0  0  0  0  0  0
  138.7050   75.4910  221.9660 N   0  0  0  0  0  0  0  0  0  0  0  0
  137.9720   74.2940  221.5480 C   0  0  0  0  0  0  0  0  0  0  0  0
  138.8800   73.1060  221.7200 C   0  0  0  0  0  0  0  0  0  0  0  0
  139.9640   73.3410  222.3020 O   0  0  0  0  0  0  0  0  0  0  0  0
  138.4840   71.8340  221.2350 N   0  0  0  0  0  0  0  0  0  0  0  0
  137.7240   71.6400  219.9990 C   0  0  0  0  0  0  0  0  0  0  0  0
  138.4770   70.5000  219.3750 C   0  0  0  0  0  0  0  0  0  0  0  0
  138.8240   69.6170  220.5370 C   0  0  0  0  0  0  0  0  0  0  0  0
  138.6830   70.5060  221.7410 C   0  0  1  0  0  0  0  0  0  0  0  0
  139.8970   70.4580  222.6140 C   0  0  0  0  0  0  0  0  0  0  0  0
  139.6600   71.1560  223.8880 N   0  0  0  0  0  0  0  0  0  0  0  0
  139.9960   70.4080  225.0670 C   0  0  0  0  0  0  0  0  0  0  0  0
  139.6310   69.0910  225.1490 C   0  0  0  0  0  0  0  0  0  0  0  0
  139.9800   68.3990  226.3130 C   0  0  0  0  0  0  0  0  0  0  0  0
  140.6590   68.9950  227.3460 C   0  0  0  0  0  0  0  0  0  0  0  0
  141.1030   68.1420  228.8150 Cl  0  0  0  0  0  0  0  0  0  0  0  0
  141.0170   70.3190  227.2490 C   0  0  0  0  0  0  0  0  0  0  0  0
  140.6770   71.0110  226.1010 C   0  0  0  0  0  0  0  0  0  0  0  0
  138.7800   77.8880  222.6520 C   0  0  0  0  0  0  0  0  0  0  0  0
  138.1050   79.0550  222.9820 C   0  0  0  0  0  0  0  0  0  0  0  0
  138.7700   80.1970  223.3760 C   0  0  0  0  0  0  0  0  0  0  0  0
  140.1430   80.1560  223.4360 C   0  0  0  0  0  0  0  0  0  0  0  0
  140.8390   81.2660  223.8200 C   0  0  0  0  0  0  0  0  0  0  0  0
  142.2220   81.2000  223.8730 C   0  0  0  0  0  0  0  0  0  0  0  0
  142.9380   82.2820  224.2490 F   0  0  0  0  0  0  0  0  0  0  0  0
  142.8680   80.0240  223.5380 C   0  0  0  0  0  0  0  0  0  0  0  0
  142.1630   78.8850  223.1450 C   0  0  0  0  0  0  0  0  0  0  0  0
  140.7740   78.9730  223.0990 C   0  0  0  0  0  0  0  0  0  0  0  0
  140.1210   77.8690  222.7170 N   0  0  0  0  0  0  0  0  0  0  0  0
  139.7630   75.4690  222.0700 H   0  0  0  0  0  0  0  0  0  0  0  0
  137.0739   74.1702  222.1710 H   0  0  0  0  0  0  0  0  0  0  0  0
  137.6595   74.3859  220.4973 H   0  0  0  0  0  0  0  0  0  0  0  0
  136.6785   71.3681  220.2062 H   0  0  0  0  0  0  0  0  0  0  0  0
  137.6522   72.5365  219.3656 H   0  0  0  0  0  0  0  0  0  0  0  0
  137.8458   69.9639  218.6510 H   0  0  0  0  0  0  0  0  0  0  0  0
  139.3639   70.8332  218.8160 H   0  0  0  0  0  0  0  0  0  0  0  0
  138.1303   68.7656  220.5990 H   0  0  0  0  0  0  0  0  0  0  0  0
  139.8333   69.1883  220.4497 H   0  0  0  0  0  0  0  0  0  0  0  0
  137.8413   70.1744  222.3668 H   0  0  0  0  0  0  0  0  0  0  0  0
  140.1495   69.4076  222.8211 H   0  0  0  0  0  0  0  0  0  0  0  0
  140.7249   70.9579  222.0899 H   0  0  0  0  0  0  0  0  0  0  0  0
  139.2790   72.1170  223.9350 H   0  0  0  0  0  0  0  0  0  0  0  0
  139.0850   68.5969  224.3319 H   0  0  0  0  0  0  0  0  0  0  0  0
  139.7003   67.3391  226.4039 H   0  0  0  0  0  0  0  0  0  0  0  0
  141.5612   70.8162  228.0655 H   0  0  0  0  0  0  0  0  0  0  0  0
  140.9578   72.0708  226.0114 H   0  0  0  0  0  0  0  0  0  0  0  0
  137.0064   79.0694  222.9276 H   0  0  0  0  0  0  0  0  0  0  0  0
  138.2187   81.1131  223.6345 H   0  0  0  0  0  0  0  0  0  0  0  0
  140.3118   82.1951  224.0824 H   0  0  0  0  0  0  0  0  0  0  0  0
  143.9664   79.9851  223.5824 H   0  0  0  0  0  0  0  0  0  0  0  0
  142.6849   77.9532  222.8816 H   0  0  0  0  0  0  0  0  0  0  0  0
  1  2  2  0
  2  3  1  0
  3  4  1  0
  4  5  1  0
  5  6  2  0
  5  7  1  0
  7  8  1  0
  8  9  1  0
  9 10  1  0
 10 11  1  0
 11 12  1  0
 12 13  1  0
 13 14  1  0
 14 15  2  0
 15 16  1  0
 16 17  2  0
 17 18  1  0
 17 19  1  0
 19 20  2  0
  2 21  1  0
 21 22  2  0
 22 23  1  0
 23 24  2  0
 24 25  1  0
 25 26  2  0
 26 27  1  0
 26 28  1  0
 28 29  2  0
 29 30  1  0
 30 31  2  0
 11  7  1  0
 20 14  1  0
 31 21  1  0
 30 24  1  0
  3 32  1  0
  4 33  1  0
  4 34  1  0
  8 35  1  0
  8 36  1  0
  9 37  1  0
  9 38  1  0
 10 39  1  0
 10 40  1  0
 11 41  1  1
 12 42  1  0
 12 43  1  0
 13 44  1  0
 15 45  1  0
 16 46  1  0
 19 47  1  0
 20 48  1  0
 22 49  1  0
 23 50  1  0
 25 51  1  0
 28 52  1  0
 29 53  1  0
M  END
>  <smiles>  (44) 
O=C(NCC(=O)N1CCC[C@H]1CNc1ccc(Cl)cc1)c1ccc2cc(F)ccc2n1

>  <score_type>  (44) 
oracle

>  <origin>  (44) 
autodockgpu

>  <m_score__min__energy>  (44) 
-9

>  <m_primary>  (44) 
energy

>  <rmsd>  (44) 
9.194608077588207

>  <m_score__min__rmsd>  (44) 
9.194608077588207

>  <meeko>  (44) 
{"free_energy": -7.79, "intermolecular_energy": -9.88, "internal_energy": -2.65, "cluster_size": 12, "cluster_id": 2, "rank_in_cluster": 7}

>  <energy>  (44) 
-7.81

>  <cluster_rmsd>  (44) 
0.83

>  <cluster>  (44) 
5

$$$$

     RDKit          3D

 53 56  0  0  0  0  0  0  0  0999 V2000
  137.8890   70.3020  221.9610 O   0  0  0  0  0  0  0  0  0  0  0  0
  138.5790   70.9180  222.8350 C   0  0  0  0  0  0  0  0  0  0  0  0
  138.9200   72.2930  222.7040 N   0  0  0  0  0  0  0  0  0  0  0  0
  138.4740   73.0570  221.5370 C   0  0  0  0  0  0  0  0  0  0  0  0
  139.5100   74.1080  221.2410 C   0  0  0  0  0  0  0  0  0  0  0  0
  140.2740   74.3890  222.1930 O   0  0  0  0  0  0  0  0  0  0  0  0
  139.5700   74.7040  219.9560 N   0  0  0  0  0  0  0  0  0  0  0  0
  138.5230   74.5530  218.9450 C   0  0  0  0  0  0  0  0  0  0  0  0
  138.3830   75.9690  218.4640 C   0  0  0  0  0  0  0  0  0  0  0  0
  139.7930   76.4830  218.4390 C   0  0  0  0  0  0  0  0  0  0  0  0
  140.5530   75.5380  219.3270 C   0  0  1  0  0  0  0  0  0  0  0  0
  141.3540   76.2690  220.3590 C   0  0  0  0  0  0  0  0  0  0  0  0
  140.4830   76.8270  221.4060 N   0  0  0  0  0  0  0  0  0  0  0  0
  141.0000   77.9870  222.0770 C   0  0  0  0  0  0  0  0  0  0  0  0
  142.0540   78.6640  221.5250 C   0  0  0  0  0  0  0  0  0  0  0  0
  142.5250   79.7890  222.2100 C   0  0  0  0  0  0  0  0  0  0  0  0
  141.9700   80.2150  223.3900 C   0  0  0  0  0  0  0  0  0  0  0  0
  142.5490   81.6240  224.2640 Cl  0  0  0  0  0  0  0  0  0  0  0  0
  140.9120   79.5240  223.9330 C   0  0  0  0  0  0  0  0  0  0  0  0
  140.4390   78.4100  223.2610 C   0  0  0  0  0  0  0  0  0  0  0  0
  139.0440   70.1820  224.0280 C   0  0  0  0  0  0  0  0  0  0  0  0
  138.8610   68.8080  224.0900 C   0  0  0  0  0  0  0  0  0  0  0  0
  139.2710   68.0650  225.1760 C   0  0  0  0  0  0  0  0  0  0  0  0
  139.8780   68.7260  226.2180 C   0  0  0  0  0  0  0  0  0  0  0  0
  140.2980   68.0270  227.3130 C   0  0  0  0  0  0  0  0  0  0  0  0
  140.9060   68.7150  228.3500 C   0  0  0  0  0  0  0  0  0  0  0  0
  141.3310   68.0500  229.4470 F   0  0  0  0  0  0  0  0  0  0  0  0
  141.0750   70.0850  228.2600 C   0  0  0  0  0  0  0  0  0  0  0  0
  140.6480   70.8060  227.1440 C   0  0  0  0  0  0  0  0  0  0  0  0
  140.0400   70.0950  226.1130 C   0  0  0  0  0  0  0  0  0  0  0  0
  139.6380   70.8090  225.0560 N   0  0  0  0  0  0  0  0  0  0  0  0
  139.5020   72.7570  223.4650 H   0  0  0  0  0  0  0  0  0  0  0  0
  138.3656   72.3864  220.6718 H   0  0  0  0  0  0  0  0  0  0  0  0
  137.5009   73.5282  221.7397 H   0  0  0  0  0  0  0  0  0  0  0  0
  138.8385   73.8802  218.1340 H   0  0  0  0  0  0  0  0  0  0  0  0
  137.5902   74.1075  219.3211 H   0  0  0  0  0  0  0  0  0  0  0  0
  137.9378   75.9985  217.4586 H   0  0  0  0  0  0  0  0  0  0  0  0
  137.7232   76.5716  219.1055 H   0  0  0  0  0  0  0  0  0  0  0  0
  140.1958   76.4639  217.4156 H   0  0  0  0  0  0  0  0  0  0  0  0
  139.8643   77.5264  218.7798 H   0  0  0  0  0  0  0  0  0  0  0  0
  141.2725   74.9505  218.7378 H   0  0  0  0  0  0  0  0  0  0  0  0
  142.0688   75.5714  220.8199 H   0  0  0  0  0  0  0  0  0  0  0  0
  141.8856   77.0972  219.8676 H   0  0  0  0  0  0  0  0  0  0  0  0
  139.5630   76.4180  221.6440 H   0  0  0  0  0  0  0  0  0  0  0  0
  142.5124   78.3363  220.5803 H   0  0  0  0  0  0  0  0  0  0  0  0
  143.3703   80.3520  221.7875 H   0  0  0  0  0  0  0  0  0  0  0  0
  140.4528   79.8487  224.8784 H   0  0  0  0  0  0  0  0  0  0  0  0
  139.5931   77.8483  223.6839 H   0  0  0  0  0  0  0  0  0  0  0  0
  138.3739   68.2962  223.2469 H   0  0  0  0  0  0  0  0  0  0  0  0
  139.1173   66.9763  225.2083 H   0  0  0  0  0  0  0  0  0  0  0  0
  140.1562   66.9377  227.3706 H   0  0  0  0  0  0  0  0  0  0  0  0
  141.5588   70.6204  229.0902 H   0  0  0  0  0  0  0  0  0  0  0  0
  140.7867   71.8954  227.0813 H   0  0  0  0  0  0  0  0  0  0  0  0
  1  2  2  0
  2  3  1  0
  3  4  1  0
  4  5  1  0
  5  6  2  0
  5  7  1  0
  7  8  1  0
  8  9  1  0
  9 10  1  0
 10 11  1  0
 11 12  1  0
 12 13  1  0
 13 14  1  0
 14 15  2  0
 15 16  1  0
 16 17  2  0
 17 18  1  0
 17 19  1  0
 19 20  2  0
  2 21  1  0
 21 22  2  0
 22 23  1  0
 23 24  2  0
 24 25  1  0
 25 26  2  0
 26 27  1  0
 26 28  1  0
 28 29  2  0
 29 30  1  0
 30 31  2  0
 11  7  1  0
 20 14  1  0
 31 21  1  0
 30 24  1  0
  3 32  1  0
  4 33  1  0
  4 34  1  0
  8 35  1  0
  8 36  1  0
  9 37  1  0
  9 38  1  0
 10 39  1  0
 10 40  1  0
 11 41  1  6
 12 42  1  0
 12 43  1  0
 13 44  1  0
 15 45  1  0
 16 46  1  0
 19 47  1  0
 20 48  1  0
 22 49  1  0
 23 50  1  0
 25 51  1  0
 28 52  1  0
 29 53  1  0
M  END
>  <smiles>  (45) 
O=C(NCC(=O)N1CCC[C@H]1CNc1ccc(Cl)cc1)c1ccc2cc(F)ccc2n1

>  <score_type>  (45) 
oracle

>  <origin>  (45) 
autodockgpu

>  <m_score__min__energy>  (45) 
-9

>  <m_primary>  (45) 
energy

>  <rmsd>  (45) 
1.805825336490909

>  <m_score__min__rmsd>  (45) 
1.805825336490909

>  <meeko>  (45) 
{"free_energy": -7.92, "intermolecular_energy": -10.0, "internal_energy": -2.56, "cluster_size": 20, "cluster_id": 1, "rank_in_cluster": 16}

>  <energy>  (45) 
-7.77

>  <cluster_rmsd>  (45) 
0.91

>  <cluster>  (45) 
5

$$$$

     RDKit          3D

 53 56  0  0  0  0  0  0  0  0999 V2000
  139.1890   70.6440  221.5400 O   0  0  0  0  0  0  0  0  0  0  0  0
  139.4530   71.2270  222.6400 C   0  0  0  0  0  0  0  0  0  0  0  0
  139.6020   72.6390  222.7370 N   0  0  0  0  0  0  0  0  0  0  0  0
  139.4490   73.4800  221.5480 C   0  0  0  0  0  0  0  0  0  0  0  0
  140.5570   74.5000  221.5520 C   0  0  0  0  0  0  0  0  0  0  0  0
  140.2860   75.5830  222.1210 O   0  0  0  0  0  0  0  0  0  0  0  0
  141.7990   74.2010  220.9370 N   0  0  0  0  0  0  0  0  0  0  0  0
  142.4210   72.8770  220.9730 C   0  0  0  0  0  0  0  0  0  0  0  0
  142.8460   72.7210  219.5400 C   0  0  0  0  0  0  0  0  0  0  0  0
  143.3240   74.0900  219.1540 C   0  0  0  0  0  0  0  0  0  0  0  0
  142.7170   75.0040  220.1810 C   0  0  1  0  0  0  0  0  0  0  0  0
  142.0020   76.1560  219.5460 C   0  0  0  0  0  0  0  0  0  0  0  0
  142.5250   77.4390  220.0410 N   0  0  0  0  0  0  0  0  0  0  0  0
  141.6570   78.1480  220.9400 C   0  0  0  0  0  0  0  0  0  0  0  0
  140.3090   78.1470  220.7050 C   0  0  0  0  0  0  0  0  0  0  0  0
  139.4990   78.8470  221.6060 C   0  0  0  0  0  0  0  0  0  0  0  0
  140.0130   79.5170  222.6880 C   0  0  0  0  0  0  0  0  0  0  0  0
  139.0130   80.4020  223.8280 Cl  0  0  0  0  0  0  0  0  0  0  0  0
  141.3710   79.5090  222.9100 C   0  0  0  0  0  0  0  0  0  0  0  0
  142.1790   78.8180  222.0240 C   0  0  0  0  0  0  0  0  0  0  0  0
  139.6110   70.4110  223.8610 C   0  0  0  0  0  0  0  0  0  0  0  0
  139.1520   69.1020  223.8650 C   0  0  0  0  0  0  0  0  0  0  0  0
  139.2680   68.2900  224.9730 C   0  0  0  0  0  0  0  0  0  0  0  0
  139.8610   68.8150  226.0970 C   0  0  0  0  0  0  0  0  0  0  0  0
  139.9940   68.0440  227.2170 C   0  0  0  0  0  0  0  0  0  0  0  0
  140.5930   68.5950  228.3370 C   0  0  0  0  0  0  0  0  0  0  0  0
  140.7390   67.8570  229.4600 F   0  0  0  0  0  0  0  0  0  0  0  0
  141.0410   69.9030  228.3040 C   0  0  0  0  0  0  0  0  0  0  0  0
  140.9080   70.6970  227.1640 C   0  0  0  0  0  0  0  0  0  0  0  0
  140.3030   70.1240  226.0490 C   0  0  0  0  0  0  0  0  0  0  0  0
  140.1850   70.9050  224.9690 N   0  0  0  0  0  0  0  0  0  0  0  0
  139.8260   73.0720  223.6830 H   0  0  0  0  0  0  0  0  0  0  0  0
  139.5157   72.8603  220.6416 H   0  0  0  0  0  0  0  0  0  0  0  0
  138.4696   73.9806  221.5582 H   0  0  0  0  0  0  0  0  0  0  0  0
  143.2838   72.8544  221.6550 H   0  0  0  0  0  0  0  0  0  0  0  0
  141.7623   72.0763  221.3404 H   0  0  0  0  0  0  0  0  0  0  0  0
  143.6573   71.9836  219.4505 H   0  0  0  0  0  0  0  0  0  0  0  0
  142.0334   72.3577  218.8938 H   0  0  0  0  0  0  0  0  0  0  0  0
  144.4222   74.1422  219.1877 H   0  0  0  0  0  0  0  0  0  0  0  0
  143.0327   74.3610  218.1285 H   0  0  0  0  0  0  0  0  0  0  0  0
  143.4999   75.4411  220.8182 H   0  0  0  0  0  0  0  0  0  0  0  0
  142.1398   76.1080  218.4557 H   0  0  0  0  0  0  0  0  0  0  0  0
  140.9344   76.0903  219.8029 H   0  0  0  0  0  0  0  0  0  0  0  0
  143.4520   77.8080  219.7650 H   0  0  0  0  0  0  0  0  0  0  0  0
  139.8793   77.6170  219.8422 H   0  0  0  0  0  0  0  0  0  0  0  0
  138.4115   78.8608  221.4413 H   0  0  0  0  0  0  0  0  0  0  0  0
  141.8040   80.0392  223.7711 H   0  0  0  0  0  0  0  0  0  0  0  0
  143.2663   78.8036  222.1900 H   0  0  0  0  0  0  0  0  0  0  0  0
  138.6809   68.6995  222.9561 H   0  0  0  0  0  0  0  0  0  0  0  0
  138.8977   67.2543  224.9584 H   0  0  0  0  0  0  0  0  0  0  0  0
  139.6321   67.0053  227.2287 H   0  0  0  0  0  0  0  0  0  0  0  0
  141.5150   70.3291  229.2006 H   0  0  0  0  0  0  0  0  0  0  0  0
  141.2677   71.7364  227.1472 H   0  0  0  0  0  0  0  0  0  0  0  0
  1  2  2  0
  2  3  1  0
  3  4  1  0
  4  5  1  0
  5  6  2  0
  5  7  1  0
  7  8  1  0
  8  9  1  0
  9 10  1  0
 10 11  1  0
 11 12  1  0
 12 13  1  0
 13 14  1  0
 14 15  2  0
 15 16  1  0
 16 17  2  0
 17 18  1  0
 17 19  1  0
 19 20  2  0
  2 21  1  0
 21 22  2  0
 22 23  1  0
 23 24  2  0
 24 25  1  0
 25 26  2  0
 26 27  1  0
 26 28  1  0
 28 29  2  0
 29 30  1  0
 30 31  2  0
 11  7  1  0
 20 14  1  0
 31 21  1  0
 30 24  1  0
  3 32  1  0
  4 33  1  0
  4 34  1  0
  8 35  1  0
  8 36  1  0
  9 37  1  0
  9 38  1  0
 10 39  1  0
 10 40  1  0
 11 41  1  1
 12 42  1  0
 12 43  1  0
 13 44  1  0
 15 45  1  0
 16 46  1  0
 19 47  1  0
 20 48  1  0
 22 49  1  0
 23 50  1  0
 25 51  1  0
 28 52  1  0
 29 53  1  0
M  END
>  <smiles>  (46) 
O=C(NCC(=O)N1CCC[C@H]1CNc1ccc(Cl)cc1)c1ccc2cc(F)ccc2n1

>  <score_type>  (46) 
oracle

>  <origin>  (46) 
autodockgpu

>  <m_score__min__energy>  (46) 
-9

>  <m_primary>  (46) 
energy

>  <rmsd>  (46) 
2.6364326605616895

>  <m_score__min__rmsd>  (46) 
2.6364326605616895

>  <meeko>  (46) 
{"free_energy": -8.41, "intermolecular_energy": -10.5, "internal_energy": -1.89, "cluster_size": 20, "cluster_id": 1, "rank_in_cluster": 5}

>  <energy>  (46) 
-7.59

>  <cluster_rmsd>  (46) 
0.94

>  <cluster>  (46) 
5

$$$$

     RDKit          3D

 53 56  0  0  0  0  0  0  0  0999 V2000
  139.9540   74.2750  222.3400 O   0  0  0  0  0  0  0  0  0  0  0  0
  139.0160   75.1360  222.3340 C   0  0  0  0  0  0  0  0  0  0  0  0
  137.6580   74.7790  222.1100 N   0  0  0  0  0  0  0  0  0  0  0  0
  137.2910   73.3800  221.8760 C   0  0  0  0  0  0  0  0  0  0  0  0
  136.2760   72.9840  222.9150 C   0  0  0  0  0  0  0  0  0  0  0  0
  135.4470   73.8720  223.2200 O   0  0  0  0  0  0  0  0  0  0  0  0
  136.3050   71.6820  223.4760 N   0  0  0  0  0  0  0  0  0  0  0  0
  135.1030   70.8980  223.7620 C   0  0  0  0  0  0  0  0  0  0  0  0
  135.5010   69.5550  223.2180 C   0  0  0  0  0  0  0  0  0  0  0  0
  136.9460   69.4260  223.5970 C   0  0  0  0  0  0  0  0  0  0  0  0
  137.3870   70.8330  223.8840 C   0  0  1  0  0  0  0  0  0  0  0  0
  138.6370   71.1880  223.1400 C   0  0  0  0  0  0  0  0  0  0  0  0
  139.6330   71.7940  224.0390 N   0  0  0  0  0  0  0  0  0  0  0  0
  139.9880   71.0000  225.1820 C   0  0  0  0  0  0  0  0  0  0  0  0
  140.3420   71.6260  226.3460 C   0  0  0  0  0  0  0  0  0  0  0  0
  140.6780   70.8160  227.4360 C   0  0  0  0  0  0  0  0  0  0  0  0
  140.6630   69.4460  227.3630 C   0  0  0  0  0  0  0  0  0  0  0  0
  141.0830   68.4130  228.7190 Cl  0  0  0  0  0  0  0  0  0  0  0  0
  140.3060   68.8310  226.1860 C   0  0  0  0  0  0  0  0  0  0  0  0
  139.9710   69.6250  225.1030 C   0  0  0  0  0  0  0  0  0  0  0  0
  139.3480   76.5550  222.5700 C   0  0  0  0  0  0  0  0  0  0  0  0
  138.3200   77.4800  222.6930 C   0  0  0  0  0  0  0  0  0  0  0  0
  138.5650   78.8190  222.9120 C   0  0  0  0  0  0  0  0  0  0  0  0
  139.8740   79.2280  223.0080 C   0  0  0  0  0  0  0  0  0  0  0  0
  140.1590   80.5460  223.2240 C   0  0  0  0  0  0  0  0  0  0  0  0
  141.4850   80.9340  223.3170 C   0  0  0  0  0  0  0  0  0  0  0  0
  141.7980   82.2310  223.5290 F   0  0  0  0  0  0  0  0  0  0  0  0
  142.4890   79.9900  223.1900 C   0  0  0  0  0  0  0  0  0  0  0  0
  142.2050   78.6420  222.9700 C   0  0  0  0  0  0  0  0  0  0  0  0
  140.8660   78.2730  222.8790 C   0  0  0  0  0  0  0  0  0  0  0  0
  140.6190   76.9760  222.6660 N   0  0  0  0  0  0  0  0  0  0  0  0
  136.9150   75.5410  222.1140 H   0  0  0  0  0  0  0  0  0  0  0  0
  136.8579   73.2710  220.8708 H   0  0  0  0  0  0  0  0  0  0  0  0
  138.1797   72.7355  221.9456 H   0  0  0  0  0  0  0  0  0  0  0  0
  134.8981   70.8520  224.8418 H   0  0  0  0  0  0  0  0  0  0  0  0
  134.1797   71.3082  223.3269 H   0  0  0  0  0  0  0  0  0  0  0  0
  134.9030   68.7540  223.6771 H   0  0  0  0  0  0  0  0  0  0  0  0
  135.3379   69.4714  222.1334 H   0  0  0  0  0  0  0  0  0  0  0  0
  137.0587   68.7935  224.4899 H   0  0  0  0  0  0  0  0  0  0  0  0
  137.5454   68.9533  222.8050 H   0  0  0  0  0  0  0  0  0  0  0  0
  137.6210   70.9514  224.9523 H   0  0  0  0  0  0  0  0  0  0  0  0
  139.0619   70.2761  222.6951 H   0  0  0  0  0  0  0  0  0  0  0  0
  138.3830   71.9172  222.3566 H   0  0  0  0  0  0  0  0  0  0  0  0
  140.0490   72.7250  223.8640 H   0  0  0  0  0  0  0  0  0  0  0  0
  140.3616   72.7232  226.4218 H   0  0  0  0  0  0  0  0  0  0  0  0
  140.9641   71.2941  228.3845 H   0  0  0  0  0  0  0  0  0  0  0  0
  140.2871   67.7340  226.1071 H   0  0  0  0  0  0  0  0  0  0  0  0
  139.6839   69.1459  224.1553 H   0  0  0  0  0  0  0  0  0  0  0  0
  137.2788   77.1342  222.6133 H   0  0  0  0  0  0  0  0  0  0  0  0
  137.7382   79.5382  223.0070 H   0  0  0  0  0  0  0  0  0  0  0  0
  139.3505   81.2854  223.3222 H   0  0  0  0  0  0  0  0  0  0  0  0
  143.5385   80.3110  223.2645 H   0  0  0  0  0  0  0  0  0  0  0  0
  143.0095   77.8982  222.8721 H   0  0  0  0  0  0  0  0  0  0  0  0
  1  2  2  0
  2  3  1  0
  3  4  1  0
  4  5  1  0
  5  6  2  0
  5  7  1  0
  7  8  1  0
  8  9  1  0
  9 10  1  0
 10 11  1  0
 11 12  1  0
 12 13  1  0
 13 14  1  0
 14 15  2  0
 15 16  1  0
 16 17  2  0
 17 18  1  0
 17 19  1  0
 19 20  2  0
  2 21  1  0
 21 22  2  0
 22 23  1  0
 23 24  2  0
 24 25  1  0
 25 26  2  0
 26 27  1  0
 26 28  1  0
 28 29  2  0
 29 30  1  0
 30 31  2  0
 11  7  1  0
 20 14  1  0
 31 21  1  0
 30 24  1  0
  3 32  1  0
  4 33  1  0
  4 34  1  0
  8 35  1  0
  8 36  1  0
  9 37  1  0
  9 38  1  0
 10 39  1  0
 10 40  1  0
 11 41  1  1
 12 42  1  0
 12 43  1  0
 13 44  1  0
 15 45  1  0
 16 46  1  0
 19 47  1  0
 20 48  1  0
 22 49  1  0
 23 50  1  0
 25 51  1  0
 28 52  1  0
 29 53  1  0
M  END
>  <smiles>  (47) 
O=C(NCC(=O)N1CCC[C@H]1CNc1ccc(Cl)cc1)c1ccc2cc(F)ccc2n1

>  <score_type>  (47) 
oracle

>  <origin>  (47) 
autodockgpu

>  <m_score__min__energy>  (47) 
-9

>  <m_primary>  (47) 
energy

>  <rmsd>  (47) 
9.343330627077341

>  <m_score__min__rmsd>  (47) 
9.343330627077341

>  <meeko>  (47) 
{"free_energy": -8.01, "intermolecular_energy": -10.1, "internal_energy": -2.12, "cluster_size": 12, "cluster_id": 2, "rank_in_cluster": 4}

>  <energy>  (47) 
-7.84

>  <cluster_rmsd>  (47) 
0.0

>  <cluster>  (47) 
6

$$$$

     RDKit          3D

 53 56  0  0  0  0  0  0  0  0999 V2000
  138.3560   72.2010  221.8240 O   0  0  0  0  0  0  0  0  0  0  0  0
  139.4100   72.2330  222.5360 C   0  0  0  0  0  0  0  0  0  0  0  0
  140.5060   73.0880  222.2350 N   0  0  0  0  0  0  0  0  0  0  0  0
  140.4510   73.9780  221.0730 C   0  0  0  0  0  0  0  0  0  0  0  0
  139.2290   74.8470  221.2070 C   0  0  0  0  0  0  0  0  0  0  0  0
  138.2120   74.4390  220.6010 O   0  0  0  0  0  0  0  0  0  0  0  0
  139.2850   76.0350  221.9790 N   0  0  0  0  0  0  0  0  0  0  0  0
  140.4110   76.9690  221.9450 C   0  0  0  0  0  0  0  0  0  0  0  0
  139.6900   78.2840  221.8580 C   0  0  0  0  0  0  0  0  0  0  0  0
  138.5060   78.1080  222.7620 C   0  0  0  0  0  0  0  0  0  0  0  0
  138.3670   76.6190  222.9140 C   0  0  1  0  0  0  0  0  0  0  0  0
  136.9710   76.1590  222.6320 C   0  0  0  0  0  0  0  0  0  0  0  0
  136.8040   74.7380  222.9800 N   0  0  0  0  0  0  0  0  0  0  0  0
  135.7650   74.4600  223.9320 C   0  0  0  0  0  0  0  0  0  0  0  0
  135.6150   75.2810  225.0160 C   0  0  0  0  0  0  0  0  0  0  0  0
  134.5890   74.9750  225.9170 C   0  0  0  0  0  0  0  0  0  0  0  0
  133.7550   73.9000  225.7420 C   0  0  0  0  0  0  0  0  0  0  0  0
  132.4630   73.5010  226.8620 Cl  0  0  0  0  0  0  0  0  0  0  0  0
  133.9190   73.0830  224.6470 C   0  0  0  0  0  0  0  0  0  0  0  0
  134.9310   73.3790  223.7510 C   0  0  0  0  0  0  0  0  0  0  0  0
  139.5000   71.3530  223.7190 C   0  0  0  0  0  0  0  0  0  0  0  0
  138.8130   70.1480  223.7200 C   0  0  0  0  0  0  0  0  0  0  0  0
  138.8560   69.2840  224.7940 C   0  0  0  0  0  0  0  0  0  0  0  0
  139.6100   69.6480  225.8850 C   0  0  0  0  0  0  0  0  0  0  0  0
  139.6770   68.8210  226.9690 C   0  0  0  0  0  0  0  0  0  0  0  0
  140.4420   69.2090  228.0570 C   0  0  0  0  0  0  0  0  0  0  0  0
  140.5280   68.4120  229.1440 F   0  0  0  0  0  0  0  0  0  0  0  0
  141.1160   70.4170  228.0270 C   0  0  0  0  0  0  0  0  0  0  0  0
  141.0510   71.2670  226.9230 C   0  0  0  0  0  0  0  0  0  0  0  0
  140.2770   70.8580  225.8400 C   0  0  0  0  0  0  0  0  0  0  0  0
  140.2290   71.6900  224.7950 N   0  0  0  0  0  0  0  0  0  0  0  0
  141.3640   73.0720  222.8640 H   0  0  0  0  0  0  0  0  0  0  0  0
  141.3535   74.6061  221.0413 H   0  0  0  0  0  0  0  0  0  0  0  0
  140.4006   73.3901  220.1447 H   0  0  0  0  0  0  0  0  0  0  0  0
  141.0195   76.9016  222.8589 H   0  0  0  0  0  0  0  0  0  0  0  0
  141.1253   76.7886  221.1282 H   0  0  0  0  0  0  0  0  0  0  0  0
  140.3314   79.1058  222.2090 H   0  0  0  0  0  0  0  0  0  0  0  0
  139.4022   78.5422  220.8282 H   0  0  0  0  0  0  0  0  0  0  0  0
  138.6874   78.5832  223.7373 H   0  0  0  0  0  0  0  0  0  0  0  0
  137.5962   78.5738  222.3554 H   0  0  0  0  0  0  0  0  0  0  0  0
  138.5872   76.3156  223.9482 H   0  0  0  0  0  0  0  0  0  0  0  0
  136.2671   76.7601  223.2262 H   0  0  0  0  0  0  0  0  0  0  0  0
  136.7712   76.2828  221.5574 H   0  0  0  0  0  0  0  0  0  0  0  0
  137.3900   73.9900  222.5700 H   0  0  0  0  0  0  0  0  0  0  0  0
  136.2746   76.1471  225.1731 H   0  0  0  0  0  0  0  0  0  0  0  0
  134.4461   75.6194  226.7970 H   0  0  0  0  0  0  0  0  0  0  0  0
  133.2615   72.2156  224.4878 H   0  0  0  0  0  0  0  0  0  0  0  0
  135.0731   72.7342  222.8712 H   0  0  0  0  0  0  0  0  0  0  0  0
  138.2161   69.8734  222.8378 H   0  0  0  0  0  0  0  0  0  0  0  0
  138.3040   68.3326  224.7785 H   0  0  0  0  0  0  0  0  0  0  0  0
  139.1338   67.8645  226.9785 H   0  0  0  0  0  0  0  0  0  0  0  0
  141.7193   70.7150  228.8972 H   0  0  0  0  0  0  0  0  0  0  0  0
  141.5912   72.2251  226.9084 H   0  0  0  0  0  0  0  0  0  0  0  0
  1  2  2  0
  2  3  1  0
  3  4  1  0
  4  5  1  0
  5  6  2  0
  5  7  1  0
  7  8  1  0
  8  9  1  0
  9 10  1  0
 10 11  1  0
 11 12  1  0
 12 13  1  0
 13 14  1  0
 14 15  2  0
 15 16  1  0
 16 17  2  0
 17 18  1  0
 17 19  1  0
 19 20  2  0
  2 21  1  0
 21 22  2  0
 22 23  1  0
 23 24  2  0
 24 25  1  0
 25 26  2  0
 26 27  1  0
 26 28  1  0
 28 29  2  0
 29 30  1  0
 30 31  2  0
 11  7  1  0
 20 14  1  0
 31 21  1  0
 30 24  1  0
  3 32  1  0
  4 33  1  0
  4 34  1  0
  8 35  1  0
  8 36  1  0
  9 37  1  0
  9 38  1  0
 10 39  1  0
 10 40  1  0
 11 41  1  1
 12 42  1  0
 12 43  1  0
 13 44  1  0
 15 45  1  0
 16 46  1  0
 19 47  1  0
 20 48  1  0
 22 49  1  0
 23 50  1  0
 25 51  1  0
 28 52  1  0
 29 53  1  0
M  END
>  <smiles>  (48) 
O=C(NCC(=O)N1CCC[C@H]1CNc1ccc(Cl)cc1)c1ccc2cc(F)ccc2n1

>  <score_type>  (48) 
oracle

>  <origin>  (48) 
autodockgpu

>  <m_score__min__energy>  (48) 
-9

>  <m_primary>  (48) 
energy

>  <rmsd>  (48) 
5.210777954036698

>  <m_score__min__rmsd>  (48) 
5.210777954036698

>  <meeko>  (48) 
{"free_energy": -6.88, "intermolecular_energy": -8.97, "internal_energy": -3.07, "cluster_size": 1, "cluster_id": 7, "rank_in_cluster": 1}

>  <energy>  (48) 
-6.88

>  <cluster_rmsd>  (48) 
0.0

>  <cluster>  (48) 
7

$$$$

     RDKit          3D

 53 56  0  0  0  0  0  0  0  0999 V2000
  138.2110   70.5250  221.7260 O   0  0  0  0  0  0  0  0  0  0  0  0
  138.7930   71.1260  222.6860 C   0  0  0  0  0  0  0  0  0  0  0  0
  139.0910   72.5170  222.6440 N   0  0  0  0  0  0  0  0  0  0  0  0
  138.7250   73.3150  221.4710 C   0  0  0  0  0  0  0  0  0  0  0  0
  139.7410   74.4160  221.3200 C   0  0  0  0  0  0  0  0  0  0  0  0
  140.4680   74.6140  222.3210 O   0  0  0  0  0  0  0  0  0  0  0  0
  139.8230   75.1440  220.1070 N   0  0  0  0  0  0  0  0  0  0  0  0
  138.6510   75.6020  219.3590 C   0  0  0  0  0  0  0  0  0  0  0  0
  139.0530   77.0130  219.0340 C   0  0  0  0  0  0  0  0  0  0  0  0
  140.5160   76.9100  218.7220 C   0  0  0  0  0  0  0  0  0  0  0  0
  140.9400   75.6040  219.3330 C   0  0  1  0  0  0  0  0  0  0  0  0
  142.1470   75.7630  220.2040 C   0  0  0  0  0  0  0  0  0  0  0  0
  142.5740   77.1710  220.2620 N   0  0  0  0  0  0  0  0  0  0  0  0
  141.7860   78.0150  221.1160 C   0  0  0  0  0  0  0  0  0  0  0  0
  141.7620   79.3630  220.8850 C   0  0  0  0  0  0  0  0  0  0  0  0
  140.9790   80.1480  221.7380 C   0  0  0  0  0  0  0  0  0  0  0  0
  140.2570   79.6110  222.7730 C   0  0  0  0  0  0  0  0  0  0  0  0
  139.2700   80.5800  223.8540 Cl  0  0  0  0  0  0  0  0  0  0  0  0
  140.2910   78.2530  222.9930 C   0  0  0  0  0  0  0  0  0  0  0  0
  141.0620   77.4690  222.1530 C   0  0  0  0  0  0  0  0  0  0  0  0
  139.1730   70.3550  223.8860 C   0  0  0  0  0  0  0  0  0  0  0  0
  138.9020   68.9950  223.9320 C   0  0  0  0  0  0  0  0  0  0  0  0
  139.2310   68.2210  225.0240 C   0  0  0  0  0  0  0  0  0  0  0  0
  139.8440   68.8360  226.0890 C   0  0  0  0  0  0  0  0  0  0  0  0
  140.1850   68.1050  227.1910 C   0  0  0  0  0  0  0  0  0  0  0  0
  140.8020   68.7470  228.2520 C   0  0  0  0  0  0  0  0  0  0  0  0
  141.1500   68.0500  229.3560 F   0  0  0  0  0  0  0  0  0  0  0  0
  141.0590   70.1040  228.1790 C   0  0  0  0  0  0  0  0  0  0  0  0
  140.7140   70.8570  227.0560 C   0  0  0  0  0  0  0  0  0  0  0  0
  140.0950   70.1930  226.0010 C   0  0  0  0  0  0  0  0  0  0  0  0
  139.7720   70.9360  224.9380 N   0  0  0  0  0  0  0  0  0  0  0  0
  139.5810   72.9670  223.4740 H   0  0  0  0  0  0  0  0  0  0  0  0
  138.7266   72.6802  220.5727 H   0  0  0  0  0  0  0  0  0  0  0  0
  137.7182   73.7397  221.5975 H   0  0  0  0  0  0  0  0  0  0  0  0
  138.4950   75.0061  218.4476 H   0  0  0  0  0  0  0  0  0  0  0  0
  137.7009   75.5154  219.9065 H   0  0  0  0  0  0  0  0  0  0  0  0
  138.4932   77.3888  218.1648 H   0  0  0  0  0  0  0  0  0  0  0  0
  138.8434   77.7132  219.8561 H   0  0  0  0  0  0  0  0  0  0  0  0
  140.6821   76.9027  217.6346 H   0  0  0  0  0  0  0  0  0  0  0  0
  141.0889   77.7620  219.1168 H   0  0  0  0  0  0  0  0  0  0  0  0
  141.2192   74.8854  218.5483 H   0  0  0  0  0  0  0  0  0  0  0  0
  141.9052   75.4183  221.2202 H   0  0  0  0  0  0  0  0  0  0  0  0
  142.9669   75.1653  219.7792 H   0  0  0  0  0  0  0  0  0  0  0  0
  143.3840   77.5310  219.7290 H   0  0  0  0  0  0  0  0  0  0  0  0
  142.3358   79.8121  220.0609 H   0  0  0  0  0  0  0  0  0  0  0  0
  140.9411   81.2348  221.5727 H   0  0  0  0  0  0  0  0  0  0  0  0
  139.7189   77.8015  223.8169 H   0  0  0  0  0  0  0  0  0  0  0  0
  141.0977   76.3820  222.3175 H   0  0  0  0  0  0  0  0  0  0  0  0
  138.4095   68.5200  223.0707 H   0  0  0  0  0  0  0  0  0  0  0  0
  139.0096   67.1437  225.0424 H   0  0  0  0  0  0  0  0  0  0  0  0
  139.9736   67.0264  227.2352 H   0  0  0  0  0  0  0  0  0  0  0  0
  141.5483   70.6028  229.0286 H   0  0  0  0  0  0  0  0  0  0  0  0
  140.9236   71.9357  227.0064 H   0  0  0  0  0  0  0  0  0  0  0  0
  1  2  2  0
  2  3  1  0
  3  4  1  0
  4  5  1  0
  5  6  2  0
  5  7  1  0
  7  8  1  0
  8  9  1  0
  9 10  1  0
 10 11  1  0
 11 12  1  0
 12 13  1  0
 13 14  1  0
 14 15  2  0
 15 16  1  0
 16 17  2  0
 17 18  1  0
 17 19  1  0
 19 20  2  0
  2 21  1  0
 21 22  2  0
 22 23  1  0
 23 24  2  0
 24 25  1  0
 25 26  2  0
 26 27  1  0
 26 28  1  0
 28 29  2  0
 29 30  1  0
 30 31  2  0
 11  7  1  0
 20 14  1  0
 31 21  1  0
 30 24  1  0
  3 32  1  0
  4 33  1  0
  4 34  1  0
  8 35  1  0
  8 36  1  0
  9 37  1  0
  9 38  1  0
 10 39  1  0
 10 40  1  0
 11 41  1  6
 12 42  1  0
 12 43  1  0
 13 44  1  0
 15 45  1  0
 16 46  1  0
 19 47  1  0
 20 48  1  0
 22 49  1  0
 23 50  1  0
 25 51  1  0
 28 52  1  0
 29 53  1  0
M  END
>  <smiles>  (49) 
O=C(NCC(=O)N1CCC[C@H]1CNc1ccc(Cl)cc1)c1ccc2cc(F)ccc2n1

>  <score_type>  (49) 
oracle

>  <origin>  (49) 
autodockgpu

>  <m_score__min__energy>  (49) 
-9

>  <m_primary>  (49) 
energy

>  <rmsd>  (49) 
1.7378674125974634

>  <m_score__min__rmsd>  (49) 
1.7378674125974634

>  <meeko>  (49) 
{"free_energy": -7.97, "intermolecular_energy": -10.06, "internal_energy": -2.33, "cluster_size": 20, "cluster_id": 1, "rank_in_cluster": 14}

>  <energy>  (49) 
-6.76

>  <cluster_rmsd>  (49) 
0.0

>  <cluster>  (49) 
8

$$$$

     RDKit          3D

 53 56  0  0  0  0  0  0  0  0999 V2000
  137.8240   70.0070  221.9890 O   0  0  0  0  0  0  0  0  0  0  0  0
  138.4180   70.6920  222.8820 C   0  0  0  0  0  0  0  0  0  0  0  0
  138.5840   72.1010  222.7770 N   0  0  0  0  0  0  0  0  0  0  0  0
  138.0600   72.8200  221.6140 C   0  0  0  0  0  0  0  0  0  0  0  0
  138.8710   74.0760  221.4380 C   0  0  0  0  0  0  0  0  0  0  0  0
  139.7040   74.3070  222.3440 O   0  0  0  0  0  0  0  0  0  0  0  0
  138.6630   74.9030  220.3060 N   0  0  0  0  0  0  0  0  0  0  0  0
  137.4130   74.9300  219.5430 C   0  0  0  0  0  0  0  0  0  0  0  0
  137.2120   76.4090  219.3750 C   0  0  0  0  0  0  0  0  0  0  0  0
  138.5950   76.9380  219.1330 C   0  0  0  0  0  0  0  0  0  0  0  0
  139.5050   75.8540  219.6390 C   0  0  1  0  0  0  0  0  0  0  0  0
  140.5360   76.3890  220.5830 C   0  0  0  0  0  0  0  0  0  0  0  0
  139.9130   76.8580  221.8330 N   0  0  0  0  0  0  0  0  0  0  0  0
  140.5220   78.0180  222.4210 C   0  0  0  0  0  0  0  0  0  0  0  0
  139.7970   78.7820  223.2960 C   0  0  0  0  0  0  0  0  0  0  0  0
  140.4290   79.9010  223.8480 C   0  0  0  0  0  0  0  0  0  0  0  0
  141.7220   80.2410  223.5390 C   0  0  0  0  0  0  0  0  0  0  0  0
  142.5300   81.6420  224.2220 Cl  0  0  0  0  0  0  0  0  0  0  0  0
  142.4370   79.4640  222.6580 C   0  0  0  0  0  0  0  0  0  0  0  0
  141.8200   78.3540  222.1080 C   0  0  0  0  0  0  0  0  0  0  0  0
  138.9550   70.0010  224.0720 C   0  0  0  0  0  0  0  0  0  0  0  0
  138.8560   68.6190  224.1560 C   0  0  0  0  0  0  0  0  0  0  0  0
  139.3370   67.9170  225.2400 C   0  0  0  0  0  0  0  0  0  0  0  0
  139.9290   68.6270  226.2580 C   0  0  0  0  0  0  0  0  0  0  0  0
  140.4170   67.9690  227.3500 C   0  0  0  0  0  0  0  0  0  0  0  0
  141.0080   68.7060  228.3630 C   0  0  0  0  0  0  0  0  0  0  0  0
  141.5000   68.0830  229.4560 F   0  0  0  0  0  0  0  0  0  0  0  0
  141.0930   70.0820  228.2520 C   0  0  0  0  0  0  0  0  0  0  0  0
  140.5960   70.7610  227.1390 C   0  0  0  0  0  0  0  0  0  0  0  0
  140.0060   70.0020  226.1320 C   0  0  0  0  0  0  0  0  0  0  0  0
  139.5360   70.6750  225.0770 N   0  0  0  0  0  0  0  0  0  0  0  0
  139.0910   72.6220  223.5540 H   0  0  0  0  0  0  0  0  0  0  0  0
  138.1471   72.1907  220.7160 H   0  0  0  0  0  0  0  0  0  0  0  0
  136.9992   73.0687  221.7652 H   0  0  0  0  0  0  0  0  0  0  0  0
  137.5212   74.4241  218.5722 H   0  0  0  0  0  0  0  0  0  0  0  0
  136.5738   74.4105  220.0287 H   0  0  0  0  0  0  0  0  0  0  0  0
  136.5571   76.6196  218.5167 H   0  0  0  0  0  0  0  0  0  0  0  0
  136.7281   76.8723  220.2475 H   0  0  0  0  0  0  0  0  0  0  0  0
  138.7612   77.1162  218.0603 H   0  0  0  0  0  0  0  0  0  0  0  0
  138.7694   77.9003  219.6366 H   0  0  0  0  0  0  0  0  0  0  0  0
  140.0582   75.3972  218.8052 H   0  0  0  0  0  0  0  0  0  0  0  0
  141.2574   75.5924  220.8172 H   0  0  0  0  0  0  0  0  0  0  0  0
  141.0435   77.2389  220.1034 H   0  0  0  0  0  0  0  0  0  0  0  0
  139.0960   76.3890  222.2590 H   0  0  0  0  0  0  0  0  0  0  0  0
  138.7589   78.5259  223.5545 H   0  0  0  0  0  0  0  0  0  0  0  0
  139.8695   80.5310  224.5551 H   0  0  0  0  0  0  0  0  0  0  0  0
  143.4747   79.7187  222.3967 H   0  0  0  0  0  0  0  0  0  0  0  0
  142.3812   77.7238  221.4024 H   0  0  0  0  0  0  0  0  0  0  0  0
  138.3792   68.0674  223.3324 H   0  0  0  0  0  0  0  0  0  0  0  0
  139.2500   66.8216  225.2894 H   0  0  0  0  0  0  0  0  0  0  0  0
  140.3423   66.8740  227.4241 H   0  0  0  0  0  0  0  0  0  0  0  0
  141.5650   70.6564  229.0628 H   0  0  0  0  0  0  0  0  0  0  0  0
  140.6677   71.8558  227.0601 H   0  0  0  0  0  0  0  0  0  0  0  0
  1  2  2  0
  2  3  1  0
  3  4  1  0
  4  5  1  0
  5  6  2  0
  5  7  1  0
  7  8  1  0
  8  9  1  0
  9 10  1  0
 10 11  1  0
 11 12  1  0
 12 13  1  0
 13 14  1  0
 14 15  2  0
 15 16  1  0
 16 17  2  0
 17 18  1  0
 17 19  1  0
 19 20  2  0
  2 21  1  0
 21 22  2  0
 22 23  1  0
 23 24  2  0
 24 25  1  0
 25 26  2  0
 26 27  1  0
 26 28  1  0
 28 29  2  0
 29 30  1  0
 30 31  2  0
 11  7  1  0
 20 14  1  0
 31 21  1  0
 30 24  1  0
  3 32  1  0
  4 33  1  0
  4 34  1  0
  8 35  1  0
  8 36  1  0
  9 37  1  0
  9 38  1  0
 10 39  1  0
 10 40  1  0
 11 41  1  6
 12 42  1  0
 12 43  1  0
 13 44  1  0
 15 45  1  0
 16 46  1  0
 19 47  1  0
 20 48  1  0
 22 49  1  0
 23 50  1  0
 25 51  1  0
 28 52  1  0
 29 53  1  0
M  END
>  <smiles>  (50) 
O=C(NCC(=O)N1CCC[C@H]1CNc1ccc(Cl)cc1)c1ccc2cc(F)ccc2n1

>  <score_type>  (50) 
oracle

>  <origin>  (50) 
autodockgpu

>  <m_score__min__energy>  (50) 
-9

>  <m_primary>  (50) 
energy

>  <rmsd>  (50) 
2.205089440314856

>  <m_score__min__rmsd>  (50) 
2.205089440314856

>  <meeko>  (50) 
{"free_energy": -7.91, "intermolecular_energy": -10.0, "internal_energy": -2.7, "cluster_size": 20, "cluster_id": 1, "rank_in_cluster": 17}

>  <energy>  (50) 
-6.64

>  <cluster_rmsd>  (50) 
0.41

>  <cluster>  (50) 
8

$$$$
