
     RDKit          3D

 42 44  0  0  0  0  0  0  0  0999 V2000
  141.0980   71.8440  228.0270 C   0  0  0  0  0  0  0  0  0  0  0  0
  141.3060   70.9120  226.9880 O   0  0  0  0  0  0  0  0  0  0  0  0
  140.4640   70.7840  225.8860 C   0  0  0  0  0  0  0  0  0  0  0  0
  139.5440   69.7520  225.7740 C   0  0  0  0  0  0  0  0  0  0  0  0
  138.7550   69.7150  224.6400 C   0  0  0  0  0  0  0  0  0  0  0  0
  138.8620   70.6680  223.6330 C   0  0  0  0  0  0  0  0  0  0  0  0
  139.7890   71.6800  223.7770 C   0  0  0  0  0  0  0  0  0  0  0  0
  139.9570   72.7050  222.7730 N   0  0  0  0  0  0  0  0  0  0  0  0
  141.0120   72.6680  221.8310 C   0  0  0  0  0  0  0  0  0  0  0  0
  141.8110   71.6760  221.9270 O   0  0  0  0  0  0  0  0  0  0  0  0
  141.2540   73.6600  220.7770 C   0  0  0  0  0  0  0  0  0  0  0  0
  141.2720   74.9850  221.3160 N   0  0  0  0  0  0  0  0  0  0  0  0
  140.0930   75.6860  221.7160 C   0  0  0  0  0  0  0  0  0  0  0  0
  138.9320   75.1640  221.6080 O   0  0  0  0  0  0  0  0  0  0  0  0
  140.2150   77.0510  222.2720 C   0  0  0  0  0  0  0  0  0  0  0  0
  139.0800   77.7260  222.6640 C   0  0  0  0  0  0  0  0  0  0  0  0
  139.1900   79.0150  223.1890 C   0  0  0  0  0  0  0  0  0  0  0  0
  140.4340   79.6060  223.3120 C   0  0  0  0  0  0  0  0  0  0  0  0
  140.5240   80.8780  223.8310 C   0  0  0  0  0  0  0  0  0  0  0  0
  141.8020   81.4270  223.9340 C   0  0  0  0  0  0  0  0  0  0  0  0
  142.9200   80.7460  223.5410 C   0  0  0  0  0  0  0  0  0  0  0  0
  142.7770   79.4660  223.0230 C   0  0  0  0  0  0  0  0  0  0  0  0
  141.5340   78.8750  222.8990 C   0  0  0  0  0  0  0  0  0  0  0  0
  141.4290   77.6380  222.3960 N   0  0  0  0  0  0  0  0  0  0  0  0
  140.5990   71.7500  224.9020 C   0  0  0  0  0  0  0  0  0  0  0  0
  141.2103   71.3409  228.9987 H   0  0  0  0  0  0  0  0  0  0  0  0
  141.8374   72.6544  227.9461 H   0  0  0  0  0  0  0  0  0  0  0  0
  140.0842   72.2632  227.9461 H   0  0  0  0  0  0  0  0  0  0  0  0
  139.4458   68.9894  226.5606 H   0  0  0  0  0  0  0  0  0  0  0  0
  138.0184   68.9054  224.5304 H   0  0  0  0  0  0  0  0  0  0  0  0
  138.2212   70.6162  222.7404 H   0  0  0  0  0  0  0  0  0  0  0  0
  139.2780   73.4660  222.7880 H   0  0  0  0  0  0  0  0  0  0  0  0
  142.2241   73.4514  220.3022 H   0  0  0  0  0  0  0  0  0  0  0  0
  140.4417   73.5926  220.0384 H   0  0  0  0  0  0  0  0  0  0  0  0
  142.1840   75.5190  221.4440 H   0  0  0  0  0  0  0  0  0  0  0  0
  138.0924   77.2520  222.5639 H   0  0  0  0  0  0  0  0  0  0  0  0
  138.2880   79.5598  223.5044 H   0  0  0  0  0  0  0  0  0  0  0  0
  139.6304   81.4349  224.1493 H   0  0  0  0  0  0  0  0  0  0  0  0
  141.9138   82.4412  224.3450 H   0  0  0  0  0  0  0  0  0  0  0  0
  143.9157   81.2042  223.6336 H   0  0  0  0  0  0  0  0  0  0  0  0
  143.6716   78.9107  222.7047 H   0  0  0  0  0  0  0  0  0  0  0  0
  141.3361   72.5593  225.0105 H   0  0  0  0  0  0  0  0  0  0  0  0
  1  2  1  0
  2  3  1  0
  3  4  2  0
  4  5  1  0
  5  6  2  0
  6  7  1  0
  7  8  1  0
  8  9  1  0
  9 10  2  0
  9 11  1  0
 11 12  1  0
 12 13  1  0
 13 14  2  0
 13 15  1  0
 15 16  2  0
 16 17  1  0
 17 18  2  0
 18 19  1  0
 19 20  2  0
 20 21  1  0
 21 22  2  0
 22 23  1  0
 23 24  2  0
  7 25  2  0
 25  3  1  0
 24 15  1  0
 23 18  1  0
  1 26  1  0
  1 27  1  0
  1 28  1  0
  4 29  1  0
  5 30  1  0
  6 31  1  0
  8 32  1  0
 11 33  1  0
 11 34  1  0
 12 35  1  0
 16 36  1  0
 17 37  1  0
 19 38  1  0
 20 39  1  0
 21 40  1  0
 22 41  1  0
 25 42  1  0
M  END
>  <smiles>  (1) 
COc1cccc(NC(=O)CNC(=O)c2ccc3ccccc3n2)c1

>  <score_type>  (1) 
oracle

>  <origin>  (1) 
autodockgpu

>  <m_score__min__energy>  (1) 
-8.5299999999999994

>  <m_primary>  (1) 
energy

>  <rmsd>  (1) 
10.74082510176089

>  <m_score__min__rmsd>  (1) 
10.74082510176089

>  <meeko>  (1) 
{"free_energy": -7.78, "intermolecular_energy": -9.27, "internal_energy": -1.93, "cluster_size": 43, "cluster_id": 2, "rank_in_cluster": 10}

>  <energy>  (1) 
-8.53

>  <cluster_rmsd>  (1) 
0.0

>  <cluster>  (1) 
1

$$$$

     RDKit          3D

 42 44  0  0  0  0  0  0  0  0999 V2000
  141.0050   71.8440  228.3200 C   0  0  0  0  0  0  0  0  0  0  0  0
  141.3560   71.0260  227.2240 O   0  0  0  0  0  0  0  0  0  0  0  0
  140.5600   70.8710  226.0910 C   0  0  0  0  0  0  0  0  0  0  0  0
  139.6720   69.8160  225.9480 C   0  0  0  0  0  0  0  0  0  0  0  0
  138.9280   69.7540  224.7840 C   0  0  0  0  0  0  0  0  0  0  0  0
  139.0500   70.7060  223.7790 C   0  0  0  0  0  0  0  0  0  0  0  0
  139.9440   71.7430  223.9530 C   0  0  0  0  0  0  0  0  0  0  0  0
  140.1240   72.7670  222.9520 N   0  0  0  0  0  0  0  0  0  0  0  0
  141.0440   72.6240  221.8870 C   0  0  0  0  0  0  0  0  0  0  0  0
  141.7110   71.5350  221.8690 O   0  0  0  0  0  0  0  0  0  0  0  0
  141.2870   73.6090  220.8270 C   0  0  0  0  0  0  0  0  0  0  0  0
  141.3010   74.9380  221.3550 N   0  0  0  0  0  0  0  0  0  0  0  0
  140.1210   75.6360  221.7570 C   0  0  0  0  0  0  0  0  0  0  0  0
  138.9620   75.1070  221.6590 O   0  0  0  0  0  0  0  0  0  0  0  0
  140.2390   77.0050  222.3020 C   0  0  0  0  0  0  0  0  0  0  0  0
  139.1010   77.6810  222.6850 C   0  0  0  0  0  0  0  0  0  0  0  0
  139.2080   78.9750  223.2000 C   0  0  0  0  0  0  0  0  0  0  0  0
  140.4500   79.5680  223.3220 C   0  0  0  0  0  0  0  0  0  0  0  0
  140.5360   80.8450  223.8310 C   0  0  0  0  0  0  0  0  0  0  0  0
  141.8130   81.3980  223.9340 C   0  0  0  0  0  0  0  0  0  0  0  0
  142.9340   80.7150  223.5500 C   0  0  0  0  0  0  0  0  0  0  0  0
  142.7940   79.4310  223.0420 C   0  0  0  0  0  0  0  0  0  0  0  0
  141.5520   78.8360  222.9190 C   0  0  0  0  0  0  0  0  0  0  0  0
  141.4510   77.5950  222.4250 N   0  0  0  0  0  0  0  0  0  0  0  0
  140.7080   71.8380  225.1090 C   0  0  0  0  0  0  0  0  0  0  0  0
  141.2313   71.3166  229.2584 H   0  0  0  0  0  0  0  0  0  0  0  0
  141.5805   72.7805  228.2777 H   0  0  0  0  0  0  0  0  0  0  0  0
  139.9298   72.0722  228.2777 H   0  0  0  0  0  0  0  0  0  0  0  0
  139.5629   69.0540  226.7338 H   0  0  0  0  0  0  0  0  0  0  0  0
  138.2174   68.9252  224.6494 H   0  0  0  0  0  0  0  0  0  0  0  0
  138.4458   70.6345  222.8626 H   0  0  0  0  0  0  0  0  0  0  0  0
  139.5590   73.6090  223.0620 H   0  0  0  0  0  0  0  0  0  0  0  0
  142.2588   73.3987  220.3566 H   0  0  0  0  0  0  0  0  0  0  0  0
  140.4763   73.5346  220.0872 H   0  0  0  0  0  0  0  0  0  0  0  0
  142.2110   75.4770  221.4740 H   0  0  0  0  0  0  0  0  0  0  0  0
  138.1145   77.2046  222.5858 H   0  0  0  0  0  0  0  0  0  0  0  0
  138.3044   79.5214  223.5081 H   0  0  0  0  0  0  0  0  0  0  0  0
  139.6402   81.4027  224.1417 H   0  0  0  0  0  0  0  0  0  0  0  0
  141.9215   82.4158  224.3369 H   0  0  0  0  0  0  0  0  0  0  0  0
  143.9289   81.1751  223.6421 H   0  0  0  0  0  0  0  0  0  0  0  0
  143.6904   78.8748  222.7305 H   0  0  0  0  0  0  0  0  0  0  0  0
  141.4187   72.6668  225.2430 H   0  0  0  0  0  0  0  0  0  0  0  0
  1  2  1  0
  2  3  1  0
  3  4  2  0
  4  5  1  0
  5  6  2  0
  6  7  1  0
  7  8  1  0
  8  9  1  0
  9 10  2  0
  9 11  1  0
 11 12  1  0
 12 13  1  0
 13 14  2  0
 13 15  1  0
 15 16  2  0
 16 17  1  0
 17 18  2  0
 18 19  1  0
 19 20  2  0
 20 21  1  0
 21 22  2  0
 22 23  1  0
 23 24  2  0
  7 25  2  0
 25  3  1  0
 24 15  1  0
 23 18  1  0
  1 26  1  0
  1 27  1  0
  1 28  1  0
  4 29  1  0
  5 30  1  0
  6 31  1  0
  8 32  1  0
 11 33  1  0
 11 34  1  0
 12 35  1  0
 16 36  1  0
 17 37  1  0
 19 38  1  0
 20 39  1  0
 21 40  1  0
 22 41  1  0
 25 42  1  0
M  END
>  <smiles>  (2) 
COc1cccc(NC(=O)CNC(=O)c2ccc3ccccc3n2)c1

>  <score_type>  (2) 
oracle

>  <origin>  (2) 
autodockgpu

>  <m_score__min__energy>  (2) 
-8.5299999999999994

>  <m_primary>  (2) 
energy

>  <rmsd>  (2) 
10.758668733225289

>  <m_score__min__rmsd>  (2) 
10.758668733225289

>  <meeko>  (2) 
{"free_energy": -7.77, "intermolecular_energy": -9.26, "internal_energy": -1.92, "cluster_size": 43, "cluster_id": 2, "rank_in_cluster": 12}

>  <energy>  (2) 
-8.48

>  <cluster_rmsd>  (2) 
0.42

>  <cluster>  (2) 
1

$$$$

     RDKit          3D

 42 44  0  0  0  0  0  0  0  0999 V2000
  138.6740   67.8190  223.1500 C   0  0  0  0  0  0  0  0  0  0  0  0
  138.8630   68.2570  224.4780 O   0  0  0  0  0  0  0  0  0  0  0  0
  139.4930   69.4540  224.8130 C   0  0  0  0  0  0  0  0  0  0  0  0
  140.0830   69.6590  226.0510 C   0  0  0  0  0  0  0  0  0  0  0  0
  140.6810   70.8840  226.2830 C   0  0  0  0  0  0  0  0  0  0  0  0
  140.7030   71.8890  225.3240 C   0  0  0  0  0  0  0  0  0  0  0  0
  140.1050   71.6520  224.1030 C   0  0  0  0  0  0  0  0  0  0  0  0
  140.0880   72.6490  223.0580 N   0  0  0  0  0  0  0  0  0  0  0  0
  141.0040   72.6240  221.9800 C   0  0  0  0  0  0  0  0  0  0  0  0
  141.8530   71.6690  221.9920 O   0  0  0  0  0  0  0  0  0  0  0  0
  141.0550   73.5900  220.8770 C   0  0  0  0  0  0  0  0  0  0  0  0
  141.1130   74.9310  221.3720 N   0  0  0  0  0  0  0  0  0  0  0  0
  139.9760   75.6270  221.8880 C   0  0  0  0  0  0  0  0  0  0  0  0
  138.8200   75.0860  221.9320 O   0  0  0  0  0  0  0  0  0  0  0  0
  140.1390   77.0100  222.3870 C   0  0  0  0  0  0  0  0  0  0  0  0
  139.0250   77.7310  222.7560 C   0  0  0  0  0  0  0  0  0  0  0  0
  139.1740   79.0370  223.2270 C   0  0  0  0  0  0  0  0  0  0  0  0
  140.4340   79.5970  223.3210 C   0  0  0  0  0  0  0  0  0  0  0  0
  140.5620   80.8870  223.7870 C   0  0  0  0  0  0  0  0  0  0  0  0
  141.8540   81.4050  223.8620 C   0  0  0  0  0  0  0  0  0  0  0  0
  142.9510   80.6770  223.4930 C   0  0  0  0  0  0  0  0  0  0  0  0
  142.7700   79.3810  223.0290 C   0  0  0  0  0  0  0  0  0  0  0  0
  141.5110   78.8200  222.9340 C   0  0  0  0  0  0  0  0  0  0  0  0
  141.3700   77.5670  222.4820 N   0  0  0  0  0  0  0  0  0  0  0  0
  139.4950   70.4350  223.8330 C   0  0  0  0  0  0  0  0  0  0  0  0
  138.2382   66.8090  223.1555 H   0  0  0  0  0  0  0  0  0  0  0  0
  137.9936   68.5091  222.6296 H   0  0  0  0  0  0  0  0  0  0  0  0
  139.6429   67.7974  222.6296 H   0  0  0  0  0  0  0  0  0  0  0  0
  140.0756   68.8743  226.8218 H   0  0  0  0  0  0  0  0  0  0  0  0
  141.1546   71.0688  227.2585 H   0  0  0  0  0  0  0  0  0  0  0  0
  141.1873   72.8541  225.5337 H   0  0  0  0  0  0  0  0  0  0  0  0
  139.3840   73.3820  223.1460 H   0  0  0  0  0  0  0  0  0  0  0  0
  141.9489   73.3927  220.2671 H   0  0  0  0  0  0  0  0  0  0  0  0
  140.1432   73.4791  220.2717 H   0  0  0  0  0  0  0  0  0  0  0  0
  142.0240   75.4810  221.3770 H   0  0  0  0  0  0  0  0  0  0  0  0
  138.0242   77.2808  222.6801 H   0  0  0  0  0  0  0  0  0  0  0  0
  138.2892   79.6197  223.5230 H   0  0  0  0  0  0  0  0  0  0  0  0
  139.6855   81.4807  224.0860 H   0  0  0  0  0  0  0  0  0  0  0  0
  141.9955   82.4320  224.2297 H   0  0  0  0  0  0  0  0  0  0  0  0
  143.9595   81.1106  223.5625 H   0  0  0  0  0  0  0  0  0  0  0  0
  143.6474   78.7884  222.7308 H   0  0  0  0  0  0  0  0  0  0  0  0
  139.0208   70.2516  222.8575 H   0  0  0  0  0  0  0  0  0  0  0  0
  1  2  1  0
  2  3  1  0
  3  4  2  0
  4  5  1  0
  5  6  2  0
  6  7  1  0
  7  8  1  0
  8  9  1  0
  9 10  2  0
  9 11  1  0
 11 12  1  0
 12 13  1  0
 13 14  2  0
 13 15  1  0
 15 16  2  0
 16 17  1  0
 17 18  2  0
 18 19  1  0
 19 20  2  0
 20 21  1  0
 21 22  2  0
 22 23  1  0
 23 24  2  0
  7 25  2  0
 25  3  1  0
 24 15  1  0
 23 18  1  0
  1 26  1  0
  1 27  1  0
  1 28  1  0
  4 29  1  0
  5 30  1  0
  6 31  1  0
  8 32  1  0
 11 33  1  0
 11 34  1  0
 12 35  1  0
 16 36  1  0
 17 37  1  0
 19 38  1  0
 20 39  1  0
 21 40  1  0
 22 41  1  0
 25 42  1  0
M  END
>  <smiles>  (3) 
COc1cccc(NC(=O)CNC(=O)c2ccc3ccccc3n2)c1

>  <score_type>  (3) 
oracle

>  <origin>  (3) 
autodockgpu

>  <m_score__min__energy>  (3) 
-8.5299999999999994

>  <m_primary>  (3) 
energy

>  <rmsd>  (3) 
11.070294564500474

>  <m_score__min__rmsd>  (3) 
11.070294564500474

>  <meeko>  (3) 
{"free_energy": -7.77, "intermolecular_energy": -9.26, "internal_energy": -1.93, "cluster_size": 43, "cluster_id": 2, "rank_in_cluster": 17}

>  <energy>  (3) 
-8.46

>  <cluster_rmsd>  (3) 
0.2

>  <cluster>  (3) 
1

$$$$

     RDKit          3D

 42 44  0  0  0  0  0  0  0  0999 V2000
  140.9260   71.8500  228.3700 C   0  0  0  0  0  0  0  0  0  0  0  0
  141.3490   71.0710  227.2710 O   0  0  0  0  0  0  0  0  0  0  0  0
  140.5820   70.8720  226.1250 C   0  0  0  0  0  0  0  0  0  0  0  0
  139.7450   69.7760  225.9760 C   0  0  0  0  0  0  0  0  0  0  0  0
  139.0260   69.6710  224.8000 C   0  0  0  0  0  0  0  0  0  0  0  0
  139.1230   70.6190  223.7880 C   0  0  0  0  0  0  0  0  0  0  0  0
  139.9660   71.6970  223.9690 C   0  0  0  0  0  0  0  0  0  0  0  0
  140.1180   72.7200  222.9620 N   0  0  0  0  0  0  0  0  0  0  0  0
  141.0600   72.6080  221.9120 C   0  0  0  0  0  0  0  0  0  0  0  0
  141.7730   71.5480  221.9140 O   0  0  0  0  0  0  0  0  0  0  0  0
  141.2780   73.5940  220.8480 C   0  0  0  0  0  0  0  0  0  0  0  0
  141.2900   74.9240  221.3750 N   0  0  0  0  0  0  0  0  0  0  0  0
  140.1090   75.6220  221.7730 C   0  0  0  0  0  0  0  0  0  0  0  0
  138.9500   75.0930  221.6730 O   0  0  0  0  0  0  0  0  0  0  0  0
  140.2260   76.9920  222.3170 C   0  0  0  0  0  0  0  0  0  0  0  0
  139.0860   77.6720  222.6880 C   0  0  0  0  0  0  0  0  0  0  0  0
  139.1920   78.9660  223.2020 C   0  0  0  0  0  0  0  0  0  0  0  0
  140.4340   79.5560  223.3360 C   0  0  0  0  0  0  0  0  0  0  0  0
  140.5200   80.8330  223.8440 C   0  0  0  0  0  0  0  0  0  0  0  0
  141.7970   81.3810  223.9590 C   0  0  0  0  0  0  0  0  0  0  0  0
  142.9190   80.6950  223.5880 C   0  0  0  0  0  0  0  0  0  0  0  0
  142.7810   79.4100  223.0810 C   0  0  0  0  0  0  0  0  0  0  0  0
  141.5390   78.8190  222.9450 C   0  0  0  0  0  0  0  0  0  0  0  0
  141.4390   77.5780  222.4520 N   0  0  0  0  0  0  0  0  0  0  0  0
  140.7040   71.8360  225.1370 C   0  0  0  0  0  0  0  0  0  0  0  0
  141.2014   71.3429  229.3065 H   0  0  0  0  0  0  0  0  0  0  0  0
  141.4128   72.8356  228.3298 H   0  0  0  0  0  0  0  0  0  0  0  0
  139.8343   71.9784  228.3298 H   0  0  0  0  0  0  0  0  0  0  0  0
  139.6564   69.0163  226.7666 H   0  0  0  0  0  0  0  0  0  0  0  0
  138.3558   68.8099  224.6606 H   0  0  0  0  0  0  0  0  0  0  0  0
  138.5397   70.5123  222.8615 H   0  0  0  0  0  0  0  0  0  0  0  0
  139.5150   73.5370  223.0560 H   0  0  0  0  0  0  0  0  0  0  0  0
  142.2438   73.3911  220.3621 H   0  0  0  0  0  0  0  0  0  0  0  0
  140.4560   73.5127  220.1216 H   0  0  0  0  0  0  0  0  0  0  0  0
  142.1990   75.4630  221.4960 H   0  0  0  0  0  0  0  0  0  0  0  0
  138.0991   77.1984  222.5799 H   0  0  0  0  0  0  0  0  0  0  0  0
  138.2869   79.5154  223.5001 H   0  0  0  0  0  0  0  0  0  0  0  0
  139.6233   81.3945  224.1450 H   0  0  0  0  0  0  0  0  0  0  0  0
  141.9047   82.3990  224.3616 H   0  0  0  0  0  0  0  0  0  0  0  0
  143.9140   81.1529  223.6893 H   0  0  0  0  0  0  0  0  0  0  0  0
  143.6792   78.8503  222.7811 H   0  0  0  0  0  0  0  0  0  0  0  0
  141.3743   72.6970  225.2757 H   0  0  0  0  0  0  0  0  0  0  0  0
  1  2  1  0
  2  3  1  0
  3  4  2  0
  4  5  1  0
  5  6  2  0
  6  7  1  0
  7  8  1  0
  8  9  1  0
  9 10  2  0
  9 11  1  0
 11 12  1  0
 12 13  1  0
 13 14  2  0
 13 15  1  0
 15 16  2  0
 16 17  1  0
 17 18  2  0
 18 19  1  0
 19 20  2  0
 20 21  1  0
 21 22  2  0
 22 23  1  0
 23 24  2  0
  7 25  2  0
 25  3  1  0
 24 15  1  0
 23 18  1  0
  1 26  1  0
  1 27  1  0
  1 28  1  0
  4 29  1  0
  5 30  1  0
  6 31  1  0
  8 32  1  0
 11 33  1  0
 11 34  1  0
 12 35  1  0
 16 36  1  0
 17 37  1  0
 19 38  1  0
 20 39  1  0
 21 40  1  0
 22 41  1  0
 25 42  1  0
M  END
>  <smiles>  (4) 
COc1cccc(NC(=O)CNC(=O)c2ccc3ccccc3n2)c1

>  <score_type>  (4) 
oracle

>  <origin>  (4) 
autodockgpu

>  <m_score__min__energy>  (4) 
-8.5299999999999994

>  <m_primary>  (4) 
energy

>  <rmsd>  (4) 
10.769499079577018

>  <m_score__min__rmsd>  (4) 
10.769499079577018

>  <meeko>  (4) 
{"free_energy": -7.79, "intermolecular_energy": -9.28, "internal_energy": -1.92, "cluster_size": 43, "cluster_id": 2, "rank_in_cluster": 8}

>  <energy>  (4) 
-8.41

>  <cluster_rmsd>  (4) 
1.35

>  <cluster>  (4) 
1

$$$$

     RDKit          3D

 42 44  0  0  0  0  0  0  0  0999 V2000
  141.0860   71.8310  228.1140 C   0  0  0  0  0  0  0  0  0  0  0  0
  141.4090   71.0210  227.0050 O   0  0  0  0  0  0  0  0  0  0  0  0
  140.5600   70.8280  225.9170 C   0  0  0  0  0  0  0  0  0  0  0  0
  139.6970   69.7460  225.8340 C   0  0  0  0  0  0  0  0  0  0  0  0
  138.8960   69.6470  224.7120 C   0  0  0  0  0  0  0  0  0  0  0  0
  138.9360   70.5880  223.6900 C   0  0  0  0  0  0  0  0  0  0  0  0
  139.8070   71.6520  223.8040 C   0  0  0  0  0  0  0  0  0  0  0  0
  139.9050   72.6680  222.7830 N   0  0  0  0  0  0  0  0  0  0  0  0
  140.9630   72.6920  221.8440 C   0  0  0  0  0  0  0  0  0  0  0  0
  141.8320   71.7630  221.9620 O   0  0  0  0  0  0  0  0  0  0  0  0
  141.1370   73.6810  220.7740 C   0  0  0  0  0  0  0  0  0  0  0  0
  141.1880   75.0080  221.3050 N   0  0  0  0  0  0  0  0  0  0  0  0
  140.0350   75.7100  221.7760 C   0  0  0  0  0  0  0  0  0  0  0  0
  138.8700   75.1870  221.7420 O   0  0  0  0  0  0  0  0  0  0  0  0
  140.1910   77.0770  222.3170 C   0  0  0  0  0  0  0  0  0  0  0  0
  139.0730   77.7810  222.7080 C   0  0  0  0  0  0  0  0  0  0  0  0
  139.2160   79.0730  223.2190 C   0  0  0  0  0  0  0  0  0  0  0  0
  140.4730   79.6350  223.3320 C   0  0  0  0  0  0  0  0  0  0  0  0
  140.5940   80.9100  223.8380 C   0  0  0  0  0  0  0  0  0  0  0  0
  141.8840   81.4310  223.9310 C   0  0  0  0  0  0  0  0  0  0  0  0
  142.9850   80.7210  223.5400 C   0  0  0  0  0  0  0  0  0  0  0  0
  142.8110   79.4390  223.0350 C   0  0  0  0  0  0  0  0  0  0  0  0
  141.5540   78.8750  222.9220 C   0  0  0  0  0  0  0  0  0  0  0  0
  141.4190   77.6370  222.4310 N   0  0  0  0  0  0  0  0  0  0  0  0
  140.6270   71.7850  224.9170 C   0  0  0  0  0  0  0  0  0  0  0  0
  141.3040   71.2843  229.0433 H   0  0  0  0  0  0  0  0  0  0  0  0
  141.6853   72.7528  228.0817 H   0  0  0  0  0  0  0  0  0  0  0  0
  140.0168   72.0875  228.0817 H   0  0  0  0  0  0  0  0  0  0  0  0
  139.6514   68.9921  226.6338 H   0  0  0  0  0  0  0  0  0  0  0  0
  138.2045   68.7960  224.6251 H   0  0  0  0  0  0  0  0  0  0  0  0
  138.2864   70.4866  222.8081 H   0  0  0  0  0  0  0  0  0  0  0  0
  139.1720   73.3770  222.7810 H   0  0  0  0  0  0  0  0  0  0  0  0
  142.0753   73.4712  220.2396 H   0  0  0  0  0  0  0  0  0  0  0  0
  140.2790   73.6106  220.0892 H   0  0  0  0  0  0  0  0  0  0  0  0
  142.1050   75.5420  221.3740 H   0  0  0  0  0  0  0  0  0  0  0  0
  138.0744   77.3285  222.6183 H   0  0  0  0  0  0  0  0  0  0  0  0
  138.3283   79.6427  223.5313 H   0  0  0  0  0  0  0  0  0  0  0  0
  139.7144   81.4901  224.1539 H   0  0  0  0  0  0  0  0  0  0  0  0
  142.0203   82.4462  224.3320 H   0  0  0  0  0  0  0  0  0  0  0  0
  143.9912   81.1576  223.6239 H   0  0  0  0  0  0  0  0  0  0  0  0
  143.6915   78.8606  222.7185 H   0  0  0  0  0  0  0  0  0  0  0  0
  141.3184   72.6362  225.0034 H   0  0  0  0  0  0  0  0  0  0  0  0
  1  2  1  0
  2  3  1  0
  3  4  2  0
  4  5  1  0
  5  6  2  0
  6  7  1  0
  7  8  1  0
  8  9  1  0
  9 10  2  0
  9 11  1  0
 11 12  1  0
 12 13  1  0
 13 14  2  0
 13 15  1  0
 15 16  2  0
 16 17  1  0
 17 18  2  0
 18 19  1  0
 19 20  2  0
 20 21  1  0
 21 22  2  0
 22 23  1  0
 23 24  2  0
  7 25  2  0
 25  3  1  0
 24 15  1  0
 23 18  1  0
  1 26  1  0
  1 27  1  0
  1 28  1  0
  4 29  1  0
  5 30  1  0
  6 31  1  0
  8 32  1  0
 11 33  1  0
 11 34  1  0
 12 35  1  0
 16 36  1  0
 17 37  1  0
 19 38  1  0
 20 39  1  0
 21 40  1  0
 22 41  1  0
 25 42  1  0
M  END
>  <smiles>  (5) 
COc1cccc(NC(=O)CNC(=O)c2ccc3ccccc3n2)c1

>  <score_type>  (5) 
oracle

>  <origin>  (5) 
autodockgpu

>  <m_score__min__energy>  (5) 
-8.5299999999999994

>  <m_primary>  (5) 
energy

>  <rmsd>  (5) 
10.764052641347044

>  <m_score__min__rmsd>  (5) 
10.764052641347044

>  <meeko>  (5) 
{"free_energy": -7.79, "intermolecular_energy": -9.28, "internal_energy": -1.92, "cluster_size": 43, "cluster_id": 2, "rank_in_cluster": 7}

>  <energy>  (5) 
-8.4

>  <cluster_rmsd>  (5) 
1.33

>  <cluster>  (5) 
1

$$$$

     RDKit          3D

 42 44  0  0  0  0  0  0  0  0999 V2000
  140.7570   82.4130  220.4080 C   0  0  0  0  0  0  0  0  0  0  0  0
  141.7160   81.3950  220.6030 O   0  0  0  0  0  0  0  0  0  0  0  0
  141.6220   80.4270  221.6010 C   0  0  0  0  0  0  0  0  0  0  0  0
  141.6180   80.7520  222.9490 C   0  0  0  0  0  0  0  0  0  0  0  0
  141.5210   79.7170  223.8600 C   0  0  0  0  0  0  0  0  0  0  0  0
  141.4300   78.3890  223.4610 C   0  0  0  0  0  0  0  0  0  0  0  0
  141.4370   78.1000  222.1110 C   0  0  0  0  0  0  0  0  0  0  0  0
  141.3460   76.7450  221.6230 N   0  0  0  0  0  0  0  0  0  0  0  0
  140.1510   75.9930  221.7090 C   0  0  0  0  0  0  0  0  0  0  0  0
  139.1580   76.5860  222.2530 O   0  0  0  0  0  0  0  0  0  0  0  0
  139.9680   74.6170  221.2350 C   0  0  0  0  0  0  0  0  0  0  0  0
  139.8510   73.7080  222.3330 N   0  0  0  0  0  0  0  0  0  0  0  0
  140.2900   72.3490  222.2780 C   0  0  0  0  0  0  0  0  0  0  0  0
  140.8160   71.8550  221.2240 O   0  0  0  0  0  0  0  0  0  0  0  0
  140.1350   71.4890  223.4710 C   0  0  0  0  0  0  0  0  0  0  0  0
  139.5370   70.2540  223.3410 C   0  0  0  0  0  0  0  0  0  0  0  0
  139.3890   69.4390  224.4660 C   0  0  0  0  0  0  0  0  0  0  0  0
  139.8400   69.8730  225.6980 C   0  0  0  0  0  0  0  0  0  0  0  0
  139.6850   69.0560  226.7950 C   0  0  0  0  0  0  0  0  0  0  0  0
  140.1570   69.5410  228.0140 C   0  0  0  0  0  0  0  0  0  0  0  0
  140.7490   70.7680  228.1280 C   0  0  0  0  0  0  0  0  0  0  0  0
  140.8820   71.5550  226.9920 C   0  0  0  0  0  0  0  0  0  0  0  0
  140.4310   71.1230  225.7600 C   0  0  0  0  0  0  0  0  0  0  0  0
  140.5740   71.9060  224.6830 N   0  0  0  0  0  0  0  0  0  0  0  0
  141.5330   79.1140  221.1670 C   0  0  0  0  0  0  0  0  0  0  0  0
  140.4098   82.7816  221.3845 H   0  0  0  0  0  0  0  0  0  0  0  0
  141.2108   83.2411  219.8438 H   0  0  0  0  0  0  0  0  0  0  0  0
  139.9033   82.0094  219.8438 H   0  0  0  0  0  0  0  0  0  0  0  0
  141.6896   81.7979  223.2820 H   0  0  0  0  0  0  0  0  0  0  0  0
  141.5157   79.9519  224.9346 H   0  0  0  0  0  0  0  0  0  0  0  0
  141.3538   77.5836  224.2064 H   0  0  0  0  0  0  0  0  0  0  0  0
  142.1970   76.3530  221.2210 H   0  0  0  0  0  0  0  0  0  0  0  0
  139.0535   74.5650  220.6259 H   0  0  0  0  0  0  0  0  0  0  0  0
  140.8462   74.3327  220.6367 H   0  0  0  0  0  0  0  0  0  0  0  0
  139.4220   74.0100  223.2590 H   0  0  0  0  0  0  0  0  0  0  0  0
  139.1789   69.9125  222.3586 H   0  0  0  0  0  0  0  0  0  0  0  0
  138.9134   68.4517  224.3711 H   0  0  0  0  0  0  0  0  0  0  0  0
  139.2109   68.0667  226.7137 H   0  0  0  0  0  0  0  0  0  0  0  0
  140.0496   68.9162  228.9130 H   0  0  0  0  0  0  0  0  0  0  0  0
  141.1134   71.1254  229.1024 H   0  0  0  0  0  0  0  0  0  0  0  0
  141.3568   72.5438  227.0749 H   0  0  0  0  0  0  0  0  0  0  0  0
  141.5383   78.8788  220.0925 H   0  0  0  0  0  0  0  0  0  0  0  0
  1  2  1  0
  2  3  1  0
  3  4  2  0
  4  5  1  0
  5  6  2  0
  6  7  1  0
  7  8  1  0
  8  9  1  0
  9 10  2  0
  9 11  1  0
 11 12  1  0
 12 13  1  0
 13 14  2  0
 13 15  1  0
 15 16  2  0
 16 17  1  0
 17 18  2  0
 18 19  1  0
 19 20  2  0
 20 21  1  0
 21 22  2  0
 22 23  1  0
 23 24  2  0
  7 25  2  0
 25  3  1  0
 24 15  1  0
 23 18  1  0
  1 26  1  0
  1 27  1  0
  1 28  1  0
  4 29  1  0
  5 30  1  0
  6 31  1  0
  8 32  1  0
 11 33  1  0
 11 34  1  0
 12 35  1  0
 16 36  1  0
 17 37  1  0
 19 38  1  0
 20 39  1  0
 21 40  1  0
 22 41  1  0
 25 42  1  0
M  END
>  <smiles>  (6) 
COc1cccc(NC(=O)CNC(=O)c2ccc3ccccc3n2)c1

>  <score_type>  (6) 
oracle

>  <origin>  (6) 
autodockgpu

>  <m_score__min__energy>  (6) 
-8.5299999999999994

>  <m_primary>  (6) 
energy

>  <rmsd>  (6) 
3.8527424617481696

>  <m_score__min__rmsd>  (6) 
3.8527424617481696

>  <meeko>  (6) 
{"free_energy": -8.46, "intermolecular_energy": -9.95, "internal_energy": -0.99, "cluster_size": 7, "cluster_id": 1, "rank_in_cluster": 3}

>  <energy>  (6) 
-8.34

>  <cluster_rmsd>  (6) 
1.49

>  <cluster>  (6) 
1

$$$$

     RDKit          3D

 42 44  0  0  0  0  0  0  0  0999 V2000
  141.0600   71.8730  228.0420 C   0  0  0  0  0  0  0  0  0  0  0  0
  141.1820   70.8530  227.0750 O   0  0  0  0  0  0  0  0  0  0  0  0
  140.3930   70.7780  225.9290 C   0  0  0  0  0  0  0  0  0  0  0  0
  139.4500   69.7790  225.7440 C   0  0  0  0  0  0  0  0  0  0  0  0
  138.7180   69.7940  224.5710 C   0  0  0  0  0  0  0  0  0  0  0  0
  138.9060   70.7670  223.5960 C   0  0  0  0  0  0  0  0  0  0  0  0
  139.8540   71.7470  223.8120 C   0  0  0  0  0  0  0  0  0  0  0  0
  140.1030   72.7890  222.8460 N   0  0  0  0  0  0  0  0  0  0  0  0
  141.0020   72.6160  221.7670 C   0  0  0  0  0  0  0  0  0  0  0  0
  141.5860   71.4810  221.7060 O   0  0  0  0  0  0  0  0  0  0  0  0
  141.3120   73.6160  220.7390 C   0  0  0  0  0  0  0  0  0  0  0  0
  141.3010   74.9360  221.2890 N   0  0  0  0  0  0  0  0  0  0  0  0
  140.1040   75.6210  221.6650 C   0  0  0  0  0  0  0  0  0  0  0  0
  138.9520   75.0870  221.5230 O   0  0  0  0  0  0  0  0  0  0  0  0
  140.1970   76.9820  222.2360 C   0  0  0  0  0  0  0  0  0  0  0  0
  139.0460   77.6330  222.6230 C   0  0  0  0  0  0  0  0  0  0  0  0
  139.1290   78.9190  223.1620 C   0  0  0  0  0  0  0  0  0  0  0  0
  140.3610   79.5290  223.3040 C   0  0  0  0  0  0  0  0  0  0  0  0
  140.4230   80.7970  223.8370 C   0  0  0  0  0  0  0  0  0  0  0  0
  141.6900   81.3670  223.9590 C   0  0  0  0  0  0  0  0  0  0  0  0
  142.8240   80.7090  223.5710 C   0  0  0  0  0  0  0  0  0  0  0  0
  142.7080   79.4320  223.0390 C   0  0  0  0  0  0  0  0  0  0  0  0
  141.4770   78.8210  222.8960 C   0  0  0  0  0  0  0  0  0  0  0  0
  141.3990   77.5880  222.3790 N   0  0  0  0  0  0  0  0  0  0  0  0
  140.6070   71.7640  224.9790 C   0  0  0  0  0  0  0  0  0  0  0  0
  141.1127   71.4323  229.0485 H   0  0  0  0  0  0  0  0  0  0  0  0
  141.8779   72.5977  227.9158 H   0  0  0  0  0  0  0  0  0  0  0  0
  140.0943   72.3843  227.9158 H   0  0  0  0  0  0  0  0  0  0  0  0
  139.2894   69.0007  226.5046 H   0  0  0  0  0  0  0  0  0  0  0  0
  137.9632   69.0114  224.4041 H   0  0  0  0  0  0  0  0  0  0  0  0
  138.3112   70.7562  222.6708 H   0  0  0  0  0  0  0  0  0  0  0  0
  139.6030   73.6660  222.9890 H   0  0  0  0  0  0  0  0  0  0  0  0
  142.3089   73.4077  220.3234 H   0  0  0  0  0  0  0  0  0  0  0  0
  140.5465   73.5580  219.9512 H   0  0  0  0  0  0  0  0  0  0  0  0
  142.2030   75.4780  221.4460 H   0  0  0  0  0  0  0  0  0  0  0  0
  138.0678   77.1431  222.5082 H   0  0  0  0  0  0  0  0  0  0  0  0
  138.2147   79.4456  223.4731 H   0  0  0  0  0  0  0  0  0  0  0  0
  139.5165   81.3348  224.1516 H   0  0  0  0  0  0  0  0  0  0  0  0
  141.7799   82.3788  224.3811 H   0  0  0  0  0  0  0  0  0  0  0  0
  143.8108   81.1831  223.6785 H   0  0  0  0  0  0  0  0  0  0  0  0
  143.6152   78.8952  222.7247 H   0  0  0  0  0  0  0  0  0  0  0  0
  141.3609   72.5473  225.1464 H   0  0  0  0  0  0  0  0  0  0  0  0
  1  2  1  0
  2  3  1  0
  3  4  2  0
  4  5  1  0
  5  6  2  0
  6  7  1  0
  7  8  1  0
  8  9  1  0
  9 10  2  0
  9 11  1  0
 11 12  1  0
 12 13  1  0
 13 14  2  0
 13 15  1  0
 15 16  2  0
 16 17  1  0
 17 18  2  0
 18 19  1  0
 19 20  2  0
 20 21  1  0
 21 22  2  0
 22 23  1  0
 23 24  2  0
  7 25  2  0
 25  3  1  0
 24 15  1  0
 23 18  1  0
  1 26  1  0
  1 27  1  0
  1 28  1  0
  4 29  1  0
  5 30  1  0
  6 31  1  0
  8 32  1  0
 11 33  1  0
 11 34  1  0
 12 35  1  0
 16 36  1  0
 17 37  1  0
 19 38  1  0
 20 39  1  0
 21 40  1  0
 22 41  1  0
 25 42  1  0
M  END
>  <smiles>  (7) 
COc1cccc(NC(=O)CNC(=O)c2ccc3ccccc3n2)c1

>  <score_type>  (7) 
oracle

>  <origin>  (7) 
autodockgpu

>  <m_score__min__energy>  (7) 
-8.5299999999999994

>  <m_primary>  (7) 
energy

>  <rmsd>  (7) 
10.699915293239272

>  <m_score__min__rmsd>  (7) 
10.699915293239272

>  <meeko>  (7) 
{"free_energy": -7.65, "intermolecular_energy": -9.14, "internal_energy": -1.91, "cluster_size": 43, "cluster_id": 2, "rank_in_cluster": 36}

>  <energy>  (7) 
-7.87

>  <cluster_rmsd>  (7) 
0.9

>  <cluster>  (7) 
1

$$$$

     RDKit          3D

 42 44  0  0  0  0  0  0  0  0999 V2000
  138.7300   67.7560  223.2050 C   0  0  0  0  0  0  0  0  0  0  0  0
  138.8460   68.2230  224.5320 O   0  0  0  0  0  0  0  0  0  0  0  0
  139.4760   69.4170  224.8770 C   0  0  0  0  0  0  0  0  0  0  0  0
  140.0680   69.6100  226.1160 C   0  0  0  0  0  0  0  0  0  0  0  0
  140.6670   70.8320  226.3590 C   0  0  0  0  0  0  0  0  0  0  0  0
  140.6870   71.8470  225.4100 C   0  0  0  0  0  0  0  0  0  0  0  0
  140.0870   71.6220  224.1870 C   0  0  0  0  0  0  0  0  0  0  0  0
  140.0680   72.6280  223.1530 N   0  0  0  0  0  0  0  0  0  0  0  0
  140.7850   72.4770  221.9420 C   0  0  0  0  0  0  0  0  0  0  0  0
  141.4570   71.3960  221.8250 O   0  0  0  0  0  0  0  0  0  0  0  0
  140.8180   73.4430  220.8390 C   0  0  0  0  0  0  0  0  0  0  0  0
  140.8830   74.7840  221.3330 N   0  0  0  0  0  0  0  0  0  0  0  0
  139.7660   75.4620  221.9120 C   0  0  0  0  0  0  0  0  0  0  0  0
  138.6210   74.9040  222.0160 O   0  0  0  0  0  0  0  0  0  0  0  0
  139.9350   76.8460  222.4050 C   0  0  0  0  0  0  0  0  0  0  0  0
  138.8240   77.5780  222.7600 C   0  0  0  0  0  0  0  0  0  0  0  0
  138.9790   78.8860  223.2260 C   0  0  0  0  0  0  0  0  0  0  0  0
  140.2430   79.4370  223.3270 C   0  0  0  0  0  0  0  0  0  0  0  0
  140.3770   80.7270  223.7880 C   0  0  0  0  0  0  0  0  0  0  0  0
  141.6730   81.2350  223.8710 C   0  0  0  0  0  0  0  0  0  0  0  0
  142.7670   80.4970  223.5150 C   0  0  0  0  0  0  0  0  0  0  0  0
  142.5800   79.2000  223.0560 C   0  0  0  0  0  0  0  0  0  0  0  0
  141.3170   78.6480  222.9530 C   0  0  0  0  0  0  0  0  0  0  0  0
  141.1690   77.3950  222.5070 N   0  0  0  0  0  0  0  0  0  0  0  0
  139.4760   70.4060  223.9070 C   0  0  0  0  0  0  0  0  0  0  0  0
  138.4648   66.6885  223.2138 H   0  0  0  0  0  0  0  0  0  0  0  0
  137.9457   68.3243  222.6835 H   0  0  0  0  0  0  0  0  0  0  0  0
  139.6890   67.8913  222.6835 H   0  0  0  0  0  0  0  0  0  0  0  0
  140.0612   68.8180  226.8793 H   0  0  0  0  0  0  0  0  0  0  0  0
  141.1432   71.0066  227.3351 H   0  0  0  0  0  0  0  0  0  0  0  0
  141.1711   72.8102  225.6288 H   0  0  0  0  0  0  0  0  0  0  0  0
  139.5160   73.4630  223.3470 H   0  0  0  0  0  0  0  0  0  0  0  0
  141.7023   73.2463  220.2151 H   0  0  0  0  0  0  0  0  0  0  0  0
  139.8968   73.3317  220.2483 H   0  0  0  0  0  0  0  0  0  0  0  0
  141.7850   75.3460  221.2910 H   0  0  0  0  0  0  0  0  0  0  0  0
  137.8203   77.1355  222.6772 H   0  0  0  0  0  0  0  0  0  0  0  0
  138.0964   79.4768  223.5122 H   0  0  0  0  0  0  0  0  0  0  0  0
  139.5029   81.3289  224.0773 H   0  0  0  0  0  0  0  0  0  0  0  0
  141.8196   82.2627  224.2347 H   0  0  0  0  0  0  0  0  0  0  0  0
  143.7782   80.9233  223.5908 H   0  0  0  0  0  0  0  0  0  0  0  0
  143.4553   78.5992  222.7683 H   0  0  0  0  0  0  0  0  0  0  0  0
  138.9999   70.2314  222.9308 H   0  0  0  0  0  0  0  0  0  0  0  0
  1  2  1  0
  2  3  1  0
  3  4  2  0
  4  5  1  0
  5  6  2  0
  6  7  1  0
  7  8  1  0
  8  9  1  0
  9 10  2  0
  9 11  1  0
 11 12  1  0
 12 13  1  0
 13 14  2  0
 13 15  1  0
 15 16  2  0
 16 17  1  0
 17 18  2  0
 18 19  1  0
 19 20  2  0
 20 21  1  0
 21 22  2  0
 22 23  1  0
 23 24  2  0
  7 25  2  0
 25  3  1  0
 24 15  1  0
 23 18  1  0
  1 26  1  0
  1 27  1  0
  1 28  1  0
  4 29  1  0
  5 30  1  0
  6 31  1  0
  8 32  1  0
 11 33  1  0
 11 34  1  0
 12 35  1  0
 16 36  1  0
 17 37  1  0
 19 38  1  0
 20 39  1  0
 21 40  1  0
 22 41  1  0
 25 42  1  0
M  END
>  <smiles>  (8) 
COc1cccc(NC(=O)CNC(=O)c2ccc3ccccc3n2)c1

>  <score_type>  (8) 
oracle

>  <origin>  (8) 
autodockgpu

>  <m_score__min__energy>  (8) 
-8.5299999999999994

>  <m_primary>  (8) 
energy

>  <rmsd>  (8) 
11.050505109866062

>  <m_score__min__rmsd>  (8) 
11.050505109866062

>  <meeko>  (8) 
{"free_energy": -7.55, "intermolecular_energy": -9.04, "internal_energy": -1.92, "cluster_size": 43, "cluster_id": 2, "rank_in_cluster": 39}

>  <energy>  (8) 
-7.82

>  <cluster_rmsd>  (8) 
0.0

>  <cluster>  (8) 
2

$$$$

     RDKit          3D

 42 44  0  0  0  0  0  0  0  0999 V2000
  138.7700   67.6520  223.1280 C   0  0  0  0  0  0  0  0  0  0  0  0
  138.8230   68.2130  224.4220 O   0  0  0  0  0  0  0  0  0  0  0  0
  139.4720   69.4100  224.7180 C   0  0  0  0  0  0  0  0  0  0  0  0
  140.1370   69.6150  225.9170 C   0  0  0  0  0  0  0  0  0  0  0  0
  140.7480   70.8390  226.1130 C   0  0  0  0  0  0  0  0  0  0  0  0
  140.7110   71.8450  225.1540 C   0  0  0  0  0  0  0  0  0  0  0  0
  140.0390   71.6080  223.9720 C   0  0  0  0  0  0  0  0  0  0  0  0
  139.9580   72.6050  222.9310 N   0  0  0  0  0  0  0  0  0  0  0  0
  140.9290   72.7040  221.9060 C   0  0  0  0  0  0  0  0  0  0  0  0
  141.8870   71.8610  221.9640 O   0  0  0  0  0  0  0  0  0  0  0  0
  140.9220   73.6790  220.8100 C   0  0  0  0  0  0  0  0  0  0  0  0
  141.0020   75.0160  221.3130 N   0  0  0  0  0  0  0  0  0  0  0  0
  139.8960   75.6980  221.9080 C   0  0  0  0  0  0  0  0  0  0  0  0
  138.7490   75.1460  222.0220 O   0  0  0  0  0  0  0  0  0  0  0  0
  140.0800   77.0770  222.4080 C   0  0  0  0  0  0  0  0  0  0  0  0
  138.9780   77.8100  222.7900 C   0  0  0  0  0  0  0  0  0  0  0  0
  139.1470   79.1140  223.2620 C   0  0  0  0  0  0  0  0  0  0  0  0
  140.4140   79.6590  223.3450 C   0  0  0  0  0  0  0  0  0  0  0  0
  140.5620   80.9460  223.8130 C   0  0  0  0  0  0  0  0  0  0  0  0
  141.8610   81.4480  223.8760 C   0  0  0  0  0  0  0  0  0  0  0  0
  142.9460   80.7080  223.4940 C   0  0  0  0  0  0  0  0  0  0  0  0
  142.7450   79.4160  223.0290 C   0  0  0  0  0  0  0  0  0  0  0  0
  141.4780   78.8700  222.9460 C   0  0  0  0  0  0  0  0  0  0  0  0
  141.3180   77.6200  222.4920 N   0  0  0  0  0  0  0  0  0  0  0  0
  139.4140   70.3900  223.7400 C   0  0  0  0  0  0  0  0  0  0  0  0
  138.6668   66.5596  223.2059 H   0  0  0  0  0  0  0  0  0  0  0  0
  137.9068   68.0640  222.5848 H   0  0  0  0  0  0  0  0  0  0  0  0
  139.6951   67.8951  222.5848 H   0  0  0  0  0  0  0  0  0  0  0  0
  140.1770   68.8299  226.6864 H   0  0  0  0  0  0  0  0  0  0  0  0
  141.2805   71.0232  227.0577 H   0  0  0  0  0  0  0  0  0  0  0  0
  141.2072   72.8101  225.3337 H   0  0  0  0  0  0  0  0  0  0  0  0
  139.1650   73.2440  222.9800 H   0  0  0  0  0  0  0  0  0  0  0  0
  141.7844   73.4892  220.1541 H   0  0  0  0  0  0  0  0  0  0  0  0
  139.9812   73.5707  220.2504 H   0  0  0  0  0  0  0  0  0  0  0  0
  141.9060   75.5730  221.2640 H   0  0  0  0  0  0  0  0  0  0  0  0
  137.9714   77.3714  222.7238 H   0  0  0  0  0  0  0  0  0  0  0  0
  138.2720   79.7065  223.5674 H   0  0  0  0  0  0  0  0  0  0  0  0
  139.6959   81.5493  224.1225 H   0  0  0  0  0  0  0  0  0  0  0  0
  142.0185   82.4723  224.2448 H   0  0  0  0  0  0  0  0  0  0  0  0
  143.9602   81.1296  223.5543 H   0  0  0  0  0  0  0  0  0  0  0  0
  143.6122   78.8139  222.7200 H   0  0  0  0  0  0  0  0  0  0  0  0
  138.8815   70.2060  222.7952 H   0  0  0  0  0  0  0  0  0  0  0  0
  1  2  1  0
  2  3  1  0
  3  4  2  0
  4  5  1  0
  5  6  2  0
  6  7  1  0
  7  8  1  0
  8  9  1  0
  9 10  2  0
  9 11  1  0
 11 12  1  0
 12 13  1  0
 13 14  2  0
 13 15  1  0
 15 16  2  0
 16 17  1  0
 17 18  2  0
 18 19  1  0
 19 20  2  0
 20 21  1  0
 21 22  2  0
 22 23  1  0
 23 24  2  0
  7 25  2  0
 25  3  1  0
 24 15  1  0
 23 18  1  0
  1 26  1  0
  1 27  1  0
  1 28  1  0
  4 29  1  0
  5 30  1  0
  6 31  1  0
  8 32  1  0
 11 33  1  0
 11 34  1  0
 12 35  1  0
 16 36  1  0
 17 37  1  0
 19 38  1  0
 20 39  1  0
 21 40  1  0
 22 41  1  0
 25 42  1  0
M  END
>  <smiles>  (9) 
COc1cccc(NC(=O)CNC(=O)c2ccc3ccccc3n2)c1

>  <score_type>  (9) 
oracle

>  <origin>  (9) 
autodockgpu

>  <m_score__min__energy>  (9) 
-8.5299999999999994

>  <m_primary>  (9) 
energy

>  <rmsd>  (9) 
11.112012916019404

>  <m_score__min__rmsd>  (9) 
11.112012916019404

>  <meeko>  (9) 
{"free_energy": -7.67, "intermolecular_energy": -9.16, "internal_energy": -1.92, "cluster_size": 43, "cluster_id": 2, "rank_in_cluster": 35}

>  <energy>  (9) 
-7.82

>  <cluster_rmsd>  (9) 
0.04

>  <cluster>  (9) 
2

$$$$

     RDKit          3D

 42 44  0  0  0  0  0  0  0  0999 V2000
  141.1330   71.8810  228.0510 C   0  0  0  0  0  0  0  0  0  0  0  0
  141.2640   70.8620  227.0830 O   0  0  0  0  0  0  0  0  0  0  0  0
  140.4390   70.7480  225.9650 C   0  0  0  0  0  0  0  0  0  0  0  0
  139.5080   69.7300  225.8330 C   0  0  0  0  0  0  0  0  0  0  0  0
  138.7390   69.7070  224.6850 C   0  0  0  0  0  0  0  0  0  0  0  0
  138.8760   70.6620  223.6840 C   0  0  0  0  0  0  0  0  0  0  0  0
  139.8130   71.6620  223.8480 C   0  0  0  0  0  0  0  0  0  0  0  0
  140.0130   72.6870  222.8510 N   0  0  0  0  0  0  0  0  0  0  0  0
  141.0330   72.6000  221.8750 C   0  0  0  0  0  0  0  0  0  0  0  0
  141.7730   71.5600  221.9350 O   0  0  0  0  0  0  0  0  0  0  0  0
  141.3030   73.5890  220.8260 C   0  0  0  0  0  0  0  0  0  0  0  0
  141.3140   74.9150  221.3630 N   0  0  0  0  0  0  0  0  0  0  0  0
  140.1270   75.6260  221.7240 C   0  0  0  0  0  0  0  0  0  0  0  0
  138.9660   75.1120  221.5780 O   0  0  0  0  0  0  0  0  0  0  0  0
  140.2410   76.9900  222.2810 C   0  0  0  0  0  0  0  0  0  0  0  0
  139.1020   77.6580  222.6730 C   0  0  0  0  0  0  0  0  0  0  0  0
  139.2050   78.9480  223.2000 C   0  0  0  0  0  0  0  0  0  0  0  0
  140.4450   79.5450  223.3250 C   0  0  0  0  0  0  0  0  0  0  0  0
  140.5280   80.8170  223.8450 C   0  0  0  0  0  0  0  0  0  0  0  0
  141.8030   81.3730  223.9500 C   0  0  0  0  0  0  0  0  0  0  0  0
  142.9250   80.6990  223.5560 C   0  0  0  0  0  0  0  0  0  0  0  0
  142.7890   79.4190  223.0370 C   0  0  0  0  0  0  0  0  0  0  0  0
  141.5500   78.8200  222.9110 C   0  0  0  0  0  0  0  0  0  0  0  0
  141.4520   77.5840  222.4060 N   0  0  0  0  0  0  0  0  0  0  0  0
  140.6040   71.7170  224.9880 C   0  0  0  0  0  0  0  0  0  0  0  0
  141.1897   71.4403  229.0573 H   0  0  0  0  0  0  0  0  0  0  0  0
  141.9444   72.6129  227.9250 H   0  0  0  0  0  0  0  0  0  0  0  0
  140.1628   72.3839  227.9250 H   0  0  0  0  0  0  0  0  0  0  0  0
  139.3853   68.9664  226.6152 H   0  0  0  0  0  0  0  0  0  0  0  0
  137.9944   68.9072  224.5592 H   0  0  0  0  0  0  0  0  0  0  0  0
  138.2506   70.6215  222.7800 H   0  0  0  0  0  0  0  0  0  0  0  0
  139.3820   73.4880  222.8960 H   0  0  0  0  0  0  0  0  0  0  0  0
  142.2829   73.3757  220.3739 H   0  0  0  0  0  0  0  0  0  0  0  0
  140.5074   73.5237  220.0692 H   0  0  0  0  0  0  0  0  0  0  0  0
  142.2240   75.4420  221.5200 H   0  0  0  0  0  0  0  0  0  0  0  0
  138.1171   77.1787  222.5718 H   0  0  0  0  0  0  0  0  0  0  0  0
  138.2998   79.4878  223.5151 H   0  0  0  0  0  0  0  0  0  0  0  0
  139.6311   81.3689  224.1627 H   0  0  0  0  0  0  0  0  0  0  0  0
  141.9090   82.3869  224.3633 H   0  0  0  0  0  0  0  0  0  0  0  0
  143.9181   81.1629  223.6486 H   0  0  0  0  0  0  0  0  0  0  0  0
  143.6871   78.8692  222.7190 H   0  0  0  0  0  0  0  0  0  0  0  0
  141.3492   72.5164  225.1135 H   0  0  0  0  0  0  0  0  0  0  0  0
  1  2  1  0
  2  3  1  0
  3  4  2  0
  4  5  1  0
  5  6  2  0
  6  7  1  0
  7  8  1  0
  8  9  1  0
  9 10  2  0
  9 11  1  0
 11 12  1  0
 12 13  1  0
 13 14  2  0
 13 15  1  0
 15 16  2  0
 16 17  1  0
 17 18  2  0
 18 19  1  0
 19 20  2  0
 20 21  1  0
 21 22  2  0
 22 23  1  0
 23 24  2  0
  7 25  2  0
 25  3  1  0
 24 15  1  0
 23 18  1  0
  1 26  1  0
  1 27  1  0
  1 28  1  0
  4 29  1  0
  5 30  1  0
  6 31  1  0
  8 32  1  0
 11 33  1  0
 11 34  1  0
 12 35  1  0
 16 36  1  0
 17 37  1  0
 19 38  1  0
 20 39  1  0
 21 40  1  0
 22 41  1  0
 25 42  1  0
M  END
>  <smiles>  (10) 
COc1cccc(NC(=O)CNC(=O)c2ccc3ccccc3n2)c1

>  <score_type>  (10) 
oracle

>  <origin>  (10) 
autodockgpu

>  <m_score__min__energy>  (10) 
-8.5299999999999994

>  <m_primary>  (10) 
energy

>  <rmsd>  (10) 
10.73590442445991

>  <m_score__min__rmsd>  (10) 
10.73590442445991

>  <meeko>  (10) 
{"free_energy": -7.76, "intermolecular_energy": -9.25, "internal_energy": -1.92, "cluster_size": 43, "cluster_id": 2, "rank_in_cluster": 23}

>  <energy>  (10) 
-7.81

>  <cluster_rmsd>  (10) 
0.1

>  <cluster>  (10) 
2

$$$$

     RDKit          3D

 42 44  0  0  0  0  0  0  0  0999 V2000
  138.7620   67.7410  223.1280 C   0  0  0  0  0  0  0  0  0  0  0  0
  138.8050   68.2510  224.4440 O   0  0  0  0  0  0  0  0  0  0  0  0
  139.4540   69.4330  224.7920 C   0  0  0  0  0  0  0  0  0  0  0  0
  140.0280   69.6230  226.0400 C   0  0  0  0  0  0  0  0  0  0  0  0
  140.6480   70.8340  226.2850 C   0  0  0  0  0  0  0  0  0  0  0  0
  140.7070   71.8410  225.3280 C   0  0  0  0  0  0  0  0  0  0  0  0
  140.1250   71.6190  224.0970 C   0  0  0  0  0  0  0  0  0  0  0  0
  140.1450   72.6180  223.0550 N   0  0  0  0  0  0  0  0  0  0  0  0
  141.0460   72.5500  221.9660 C   0  0  0  0  0  0  0  0  0  0  0  0
  141.8450   71.5530  221.9660 O   0  0  0  0  0  0  0  0  0  0  0  0
  141.1330   73.5150  220.8640 C   0  0  0  0  0  0  0  0  0  0  0  0
  141.1780   74.8560  221.3590 N   0  0  0  0  0  0  0  0  0  0  0  0
  140.0280   75.5530  221.8440 C   0  0  0  0  0  0  0  0  0  0  0  0
  138.8700   75.0130  221.8560 O   0  0  0  0  0  0  0  0  0  0  0  0
  140.1780   76.9360  222.3460 C   0  0  0  0  0  0  0  0  0  0  0  0
  139.0560   77.6500  222.7060 C   0  0  0  0  0  0  0  0  0  0  0  0
  139.1930   78.9570  223.1800 C   0  0  0  0  0  0  0  0  0  0  0  0
  140.4490   79.5240  223.2870 C   0  0  0  0  0  0  0  0  0  0  0  0
  140.5650   80.8140  223.7560 C   0  0  0  0  0  0  0  0  0  0  0  0
  141.8530   81.3390  223.8440 C   0  0  0  0  0  0  0  0  0  0  0  0
  142.9580   80.6180  223.4830 C   0  0  0  0  0  0  0  0  0  0  0  0
  142.7890   79.3220  223.0150 C   0  0  0  0  0  0  0  0  0  0  0  0
  141.5340   78.7540  222.9080 C   0  0  0  0  0  0  0  0  0  0  0  0
  141.4040   77.5010  222.4530 N   0  0  0  0  0  0  0  0  0  0  0  0
  139.4930   70.4150  223.8150 C   0  0  0  0  0  0  0  0  0  0  0  0
  138.6696   66.6454  223.1622 H   0  0  0  0  0  0  0  0  0  0  0  0
  137.8965   68.1656  222.5983 H   0  0  0  0  0  0  0  0  0  0  0  0
  139.6864   68.0147  222.5983 H   0  0  0  0  0  0  0  0  0  0  0  0
  139.9912   68.8370  226.8087 H   0  0  0  0  0  0  0  0  0  0  0  0
  141.1094   71.0065  227.2685 H   0  0  0  0  0  0  0  0  0  0  0  0
  141.2076   72.7954  225.5480 H   0  0  0  0  0  0  0  0  0  0  0  0
  139.4810   73.3850  223.1530 H   0  0  0  0  0  0  0  0  0  0  0  0
  142.0451   73.3155  220.2824 H   0  0  0  0  0  0  0  0  0  0  0  0
  140.2403   73.4051  220.2308 H   0  0  0  0  0  0  0  0  0  0  0  0
  142.0880   75.4050  221.3900 H   0  0  0  0  0  0  0  0  0  0  0  0
  138.0587   77.1938  222.6207 H   0  0  0  0  0  0  0  0  0  0  0  0
  138.3020   79.5344  223.4678 H   0  0  0  0  0  0  0  0  0  0  0  0
  139.6824   81.4022  224.0474 H   0  0  0  0  0  0  0  0  0  0  0  0
  141.9852   82.3659  224.2156 H   0  0  0  0  0  0  0  0  0  0  0  0
  143.9632   81.0576  223.5622 H   0  0  0  0  0  0  0  0  0  0  0  0
  143.6725   78.7352  222.7233 H   0  0  0  0  0  0  0  0  0  0  0  0
  139.0307   70.2435  222.8317 H   0  0  0  0  0  0  0  0  0  0  0  0
  1  2  1  0
  2  3  1  0
  3  4  2  0
  4  5  1  0
  5  6  2  0
  6  7  1  0
  7  8  1  0
  8  9  1  0
  9 10  2  0
  9 11  1  0
 11 12  1  0
 12 13  1  0
 13 14  2  0
 13 15  1  0
 15 16  2  0
 16 17  1  0
 17 18  2  0
 18 19  1  0
 19 20  2  0
 20 21  1  0
 21 22  2  0
 22 23  1  0
 23 24  2  0
  7 25  2  0
 25  3  1  0
 24 15  1  0
 23 18  1  0
  1 26  1  0
  1 27  1  0
  1 28  1  0
  4 29  1  0
  5 30  1  0
  6 31  1  0
  8 32  1  0
 11 33  1  0
 11 34  1  0
 12 35  1  0
 16 36  1  0
 17 37  1  0
 19 38  1  0
 20 39  1  0
 21 40  1  0
 22 41  1  0
 25 42  1  0
M  END
>  <smiles>  (11) 
COc1cccc(NC(=O)CNC(=O)c2ccc3ccccc3n2)c1

>  <score_type>  (11) 
oracle

>  <origin>  (11) 
autodockgpu

>  <m_score__min__energy>  (11) 
-8.5299999999999994

>  <m_primary>  (11) 
energy

>  <rmsd>  (11) 
11.078856487119587

>  <m_score__min__rmsd>  (11) 
11.078856487119587

>  <meeko>  (11) 
{"free_energy": -7.77, "intermolecular_energy": -9.26, "internal_energy": -1.93, "cluster_size": 43, "cluster_id": 2, "rank_in_cluster": 15}

>  <energy>  (11) 
-7.81

>  <cluster_rmsd>  (11) 
0.07

>  <cluster>  (11) 
2

$$$$

     RDKit          3D

 42 44  0  0  0  0  0  0  0  0999 V2000
  141.4440   81.5390  219.6230 C   0  0  0  0  0  0  0  0  0  0  0  0
  141.3790   81.6940  221.0240 O   0  0  0  0  0  0  0  0  0  0  0  0
  141.5140   80.6400  221.9250 C   0  0  0  0  0  0  0  0  0  0  0  0
  141.7300   80.8460  223.2790 C   0  0  0  0  0  0  0  0  0  0  0  0
  141.8500   79.7310  224.0880 C   0  0  0  0  0  0  0  0  0  0  0  0
  141.7610   78.4390  223.5840 C   0  0  0  0  0  0  0  0  0  0  0  0
  141.5460   78.2700  222.2310 C   0  0  0  0  0  0  0  0  0  0  0  0
  141.4430   76.9590  221.6350 N   0  0  0  0  0  0  0  0  0  0  0  0
  140.3340   76.1120  221.8680 C   0  0  0  0  0  0  0  0  0  0  0  0
  139.4320   76.5780  222.6450 O   0  0  0  0  0  0  0  0  0  0  0  0
  140.1450   74.7720  221.3020 C   0  0  0  0  0  0  0  0  0  0  0  0
  139.9100   73.8090  222.3330 N   0  0  0  0  0  0  0  0  0  0  0  0
  140.5990   72.5590  222.4120 C   0  0  0  0  0  0  0  0  0  0  0  0
  141.4760   72.2200  221.5470 O   0  0  0  0  0  0  0  0  0  0  0  0
  140.2940   71.6330  223.5230 C   0  0  0  0  0  0  0  0  0  0  0  0
  139.5610   70.4940  223.2720 C   0  0  0  0  0  0  0  0  0  0  0  0
  139.2700   69.6160  224.3180 C   0  0  0  0  0  0  0  0  0  0  0  0
  139.7170   69.8930  225.5960 C   0  0  0  0  0  0  0  0  0  0  0  0
  139.4200   69.0170  226.6160 C   0  0  0  0  0  0  0  0  0  0  0  0
  139.8950   69.3430  227.8860 C   0  0  0  0  0  0  0  0  0  0  0  0
  140.6210   70.4770  228.1210 C   0  0  0  0  0  0  0  0  0  0  0  0
  140.8940   71.3300  227.0600 C   0  0  0  0  0  0  0  0  0  0  0  0
  140.4470   71.0540  225.7820 C   0  0  0  0  0  0  0  0  0  0  0  0
  140.7270   71.8960  224.7790 N   0  0  0  0  0  0  0  0  0  0  0  0
  141.4200   79.3660  221.3870 C   0  0  0  0  0  0  0  0  0  0  0  0
  141.8591   80.5491  219.3825 H   0  0  0  0  0  0  0  0  0  0  0  0
  140.4335   81.6262  219.1972 H   0  0  0  0  0  0  0  0  0  0  0  0
  142.0900   82.3209  219.1972 H   0  0  0  0  0  0  0  0  0  0  0  0
  141.8034   81.8615  223.6954 H   0  0  0  0  0  0  0  0  0  0  0  0
  142.0215   79.8713  225.1655 H   0  0  0  0  0  0  0  0  0  0  0  0
  141.8599   77.5688  224.2496 H   0  0  0  0  0  0  0  0  0  0  0  0
  142.2220   76.6700  221.0440 H   0  0  0  0  0  0  0  0  0  0  0  0
  139.2815   74.7877  220.6207 H   0  0  0  0  0  0  0  0  0  0  0  0
  141.0588   74.4886  220.7592 H   0  0  0  0  0  0  0  0  0  0  0  0
  139.1970   73.9840  223.1030 H   0  0  0  0  0  0  0  0  0  0  0  0
  139.2069   70.2774  222.2533 H   0  0  0  0  0  0  0  0  0  0  0  0
  138.6854   68.7045  224.1249 H   0  0  0  0  0  0  0  0  0  0  0  0
  138.8353   68.1026  226.4374 H   0  0  0  0  0  0  0  0  0  0  0  0
  139.6785   68.6659  228.7254 H   0  0  0  0  0  0  0  0  0  0  0  0
  140.9828   70.7098  229.1334 H   0  0  0  0  0  0  0  0  0  0  0  0
  141.4782   72.2444  227.2406 H   0  0  0  0  0  0  0  0  0  0  0  0
  141.2485   79.2253  220.3096 H   0  0  0  0  0  0  0  0  0  0  0  0
  1  2  1  0
  2  3  1  0
  3  4  2  0
  4  5  1  0
  5  6  2  0
  6  7  1  0
  7  8  1  0
  8  9  1  0
  9 10  2  0
  9 11  1  0
 11 12  1  0
 12 13  1  0
 13 14  2  0
 13 15  1  0
 15 16  2  0
 16 17  1  0
 17 18  2  0
 18 19  1  0
 19 20  2  0
 20 21  1  0
 21 22  2  0
 22 23  1  0
 23 24  2  0
  7 25  2  0
 25  3  1  0
 24 15  1  0
 23 18  1  0
  1 26  1  0
  1 27  1  0
  1 28  1  0
  4 29  1  0
  5 30  1  0
  6 31  1  0
  8 32  1  0
 11 33  1  0
 11 34  1  0
 12 35  1  0
 16 36  1  0
 17 37  1  0
 19 38  1  0
 20 39  1  0
 21 40  1  0
 22 41  1  0
 25 42  1  0
M  END
>  <smiles>  (12) 
COc1cccc(NC(=O)CNC(=O)c2ccc3ccccc3n2)c1

>  <score_type>  (12) 
oracle

>  <origin>  (12) 
autodockgpu

>  <m_score__min__energy>  (12) 
-8.5299999999999994

>  <m_primary>  (12) 
energy

>  <rmsd>  (12) 
3.944519697556591

>  <m_score__min__rmsd>  (12) 
3.944519697556591

>  <meeko>  (12) 
{"free_energy": -8.48, "intermolecular_energy": -9.97, "internal_energy": -1.0, "cluster_size": 7, "cluster_id": 1, "rank_in_cluster": 2}

>  <energy>  (12) 
-7.8

>  <cluster_rmsd>  (12) 
0.19

>  <cluster>  (12) 
2

$$$$

     RDKit          3D

 42 44  0  0  0  0  0  0  0  0999 V2000
  141.4620   72.2650  227.6020 C   0  0  0  0  0  0  0  0  0  0  0  0
  141.2410   70.9890  227.0390 O   0  0  0  0  0  0  0  0  0  0  0  0
  140.4180   70.7640  225.9380 C   0  0  0  0  0  0  0  0  0  0  0  0
  139.5810   69.6620  225.8520 C   0  0  0  0  0  0  0  0  0  0  0  0
  138.8040   69.5310  224.7160 C   0  0  0  0  0  0  0  0  0  0  0  0
  138.8440   70.4600  223.6830 C   0  0  0  0  0  0  0  0  0  0  0  0
  139.6900   71.5440  223.8000 C   0  0  0  0  0  0  0  0  0  0  0  0
  139.7850   72.5480  222.7670 N   0  0  0  0  0  0  0  0  0  0  0  0
  140.8940   72.6240  221.8920 C   0  0  0  0  0  0  0  0  0  0  0  0
  141.8100   71.7530  222.0770 O   0  0  0  0  0  0  0  0  0  0  0  0
  141.0710   73.6050  220.8150 C   0  0  0  0  0  0  0  0  0  0  0  0
  141.1460   74.9340  221.3390 N   0  0  0  0  0  0  0  0  0  0  0  0
  140.0070   75.6580  221.8100 C   0  0  0  0  0  0  0  0  0  0  0  0
  138.8330   75.1550  221.7820 O   0  0  0  0  0  0  0  0  0  0  0  0
  140.1880   77.0250  222.3440 C   0  0  0  0  0  0  0  0  0  0  0  0
  139.0820   77.7560  222.7190 C   0  0  0  0  0  0  0  0  0  0  0  0
  139.2480   79.0480  223.2240 C   0  0  0  0  0  0  0  0  0  0  0  0
  140.5160   79.5830  223.3450 C   0  0  0  0  0  0  0  0  0  0  0  0
  140.6610   80.8590  223.8440 C   0  0  0  0  0  0  0  0  0  0  0  0
  141.9620   81.3520  223.9460 C   0  0  0  0  0  0  0  0  0  0  0  0
  143.0500   80.6140  223.5700 C   0  0  0  0  0  0  0  0  0  0  0  0
  142.8520   79.3340  223.0720 C   0  0  0  0  0  0  0  0  0  0  0  0
  141.5840   78.7970  222.9500 C   0  0  0  0  0  0  0  0  0  0  0  0
  141.4260   77.5590  222.4660 N   0  0  0  0  0  0  0  0  0  0  0  0
  140.4850   71.7090  224.9260 C   0  0  0  0  0  0  0  0  0  0  0  0
  141.4488   72.1889  228.6993 H   0  0  0  0  0  0  0  0  0  0  0  0
  142.4396   72.6468  227.2726 H   0  0  0  0  0  0  0  0  0  0  0  0
  140.6697   72.9533  227.2726 H   0  0  0  0  0  0  0  0  0  0  0  0
  139.5367   68.9172  226.6603 H   0  0  0  0  0  0  0  0  0  0  0  0
  138.1329   68.6640  224.6269 H   0  0  0  0  0  0  0  0  0  0  0  0
  138.2140   70.3338  222.7902 H   0  0  0  0  0  0  0  0  0  0  0  0
  139.0110   73.2100  222.7090 H   0  0  0  0  0  0  0  0  0  0  0  0
  142.0008   73.3794  220.2722 H   0  0  0  0  0  0  0  0  0  0  0  0
  140.2054   73.5432  220.1391 H   0  0  0  0  0  0  0  0  0  0  0  0
  142.0720   75.4530  221.4040 H   0  0  0  0  0  0  0  0  0  0  0  0
  138.0746   77.3251  222.6214 H   0  0  0  0  0  0  0  0  0  0  0  0
  138.3701   79.6386  223.5249 H   0  0  0  0  0  0  0  0  0  0  0  0
  139.7917   81.4608  224.1477 H   0  0  0  0  0  0  0  0  0  0  0  0
  142.1176   82.3666  224.3414 H   0  0  0  0  0  0  0  0  0  0  0  0
  144.0651   81.0280  223.6608 H   0  0  0  0  0  0  0  0  0  0  0  0
  143.7224   78.7340  222.7679 H   0  0  0  0  0  0  0  0  0  0  0  0
  141.1571   72.5754  225.0137 H   0  0  0  0  0  0  0  0  0  0  0  0
  1  2  1  0
  2  3  1  0
  3  4  2  0
  4  5  1  0
  5  6  2  0
  6  7  1  0
  7  8  1  0
  8  9  1  0
  9 10  2  0
  9 11  1  0
 11 12  1  0
 12 13  1  0
 13 14  2  0
 13 15  1  0
 15 16  2  0
 16 17  1  0
 17 18  2  0
 18 19  1  0
 19 20  2  0
 20 21  1  0
 21 22  2  0
 22 23  1  0
 23 24  2  0
  7 25  2  0
 25  3  1  0
 24 15  1  0
 23 18  1  0
  1 26  1  0
  1 27  1  0
  1 28  1  0
  4 29  1  0
  5 30  1  0
  6 31  1  0
  8 32  1  0
 11 33  1  0
 11 34  1  0
 12 35  1  0
 16 36  1  0
 17 37  1  0
 19 38  1  0
 20 39  1  0
 21 40  1  0
 22 41  1  0
 25 42  1  0
M  END
>  <smiles>  (13) 
COc1cccc(NC(=O)CNC(=O)c2ccc3ccccc3n2)c1

>  <score_type>  (13) 
oracle

>  <origin>  (13) 
autodockgpu

>  <m_score__min__energy>  (13) 
-8.5299999999999994

>  <m_primary>  (13) 
energy

>  <rmsd>  (13) 
10.664326821122188

>  <m_score__min__rmsd>  (13) 
10.664326821122188

>  <meeko>  (13) 
{"free_energy": -7.63, "intermolecular_energy": -9.12, "internal_energy": -1.92, "cluster_size": 43, "cluster_id": 2, "rank_in_cluster": 38}

>  <energy>  (13) 
-7.8

>  <cluster_rmsd>  (13) 
0.09

>  <cluster>  (13) 
2

$$$$

     RDKit          3D

 42 44  0  0  0  0  0  0  0  0999 V2000
  138.7660   67.7340  223.1640 C   0  0  0  0  0  0  0  0  0  0  0  0
  138.8140   68.2410  224.4800 O   0  0  0  0  0  0  0  0  0  0  0  0
  139.4670   69.4220  224.8280 C   0  0  0  0  0  0  0  0  0  0  0  0
  140.0400   69.6110  226.0760 C   0  0  0  0  0  0  0  0  0  0  0  0
  140.6640   70.8200  226.3210 C   0  0  0  0  0  0  0  0  0  0  0  0
  140.7270   71.8260  225.3650 C   0  0  0  0  0  0  0  0  0  0  0  0
  140.1450   71.6060  224.1330 C   0  0  0  0  0  0  0  0  0  0  0  0
  140.1700   72.6040  223.0900 N   0  0  0  0  0  0  0  0  0  0  0  0
  141.0640   72.5270  221.9970 C   0  0  0  0  0  0  0  0  0  0  0  0
  141.8550   71.5230  221.9940 O   0  0  0  0  0  0  0  0  0  0  0  0
  141.1550   73.4910  220.8940 C   0  0  0  0  0  0  0  0  0  0  0  0
  141.1940   74.8330  221.3880 N   0  0  0  0  0  0  0  0  0  0  0  0
  140.0420   75.5250  221.8740 C   0  0  0  0  0  0  0  0  0  0  0  0
  138.8870   74.9790  221.8890 O   0  0  0  0  0  0  0  0  0  0  0  0
  140.1860   76.9090  222.3740 C   0  0  0  0  0  0  0  0  0  0  0  0
  139.0620   77.6150  222.7430 C   0  0  0  0  0  0  0  0  0  0  0  0
  139.1940   78.9230  223.2160 C   0  0  0  0  0  0  0  0  0  0  0  0
  140.4460   79.4990  223.3110 C   0  0  0  0  0  0  0  0  0  0  0  0
  140.5570   80.7900  223.7790 C   0  0  0  0  0  0  0  0  0  0  0  0
  141.8430   81.3240  223.8560 C   0  0  0  0  0  0  0  0  0  0  0  0
  142.9500   80.6120  223.4870 C   0  0  0  0  0  0  0  0  0  0  0  0
  142.7860   79.3140  223.0210 C   0  0  0  0  0  0  0  0  0  0  0  0
  141.5340   78.7370  222.9240 C   0  0  0  0  0  0  0  0  0  0  0  0
  141.4090   77.4830  222.4710 N   0  0  0  0  0  0  0  0  0  0  0  0
  139.5090   70.4040  223.8500 C   0  0  0  0  0  0  0  0  0  0  0  0
  138.6624   66.6394  223.1963 H   0  0  0  0  0  0  0  0  0  0  0  0
  137.9050   68.1683  222.6349 H   0  0  0  0  0  0  0  0  0  0  0  0
  139.6933   67.9991  222.6349 H   0  0  0  0  0  0  0  0  0  0  0  0
  139.9995   68.8257  226.8452 H   0  0  0  0  0  0  0  0  0  0  0  0
  141.1256   70.9910  227.3047 H   0  0  0  0  0  0  0  0  0  0  0  0
  141.2306   72.7788  225.5855 H   0  0  0  0  0  0  0  0  0  0  0  0
  139.5120   73.3770  223.1910 H   0  0  0  0  0  0  0  0  0  0  0  0
  142.0709   73.2930  220.3178 H   0  0  0  0  0  0  0  0  0  0  0  0
  140.2663   73.3782  220.2557 H   0  0  0  0  0  0  0  0  0  0  0  0
  142.1020   75.3860  221.4160 H   0  0  0  0  0  0  0  0  0  0  0  0
  138.0672   77.1520  222.6657 H   0  0  0  0  0  0  0  0  0  0  0  0
  138.3016   79.4937  223.5125 H   0  0  0  0  0  0  0  0  0  0  0  0
  139.6729   81.3722  224.0779 H   0  0  0  0  0  0  0  0  0  0  0  0
  141.9707   82.3520  224.2259 H   0  0  0  0  0  0  0  0  0  0  0  0
  143.9526   81.0590  223.5579 H   0  0  0  0  0  0  0  0  0  0  0  0
  143.6712   78.7330  222.7229 H   0  0  0  0  0  0  0  0  0  0  0  0
  139.0464   70.2340  222.8666 H   0  0  0  0  0  0  0  0  0  0  0  0
  1  2  1  0
  2  3  1  0
  3  4  2  0
  4  5  1  0
  5  6  2  0
  6  7  1  0
  7  8  1  0
  8  9  1  0
  9 10  2  0
  9 11  1  0
 11 12  1  0
 12 13  1  0
 13 14  2  0
 13 15  1  0
 15 16  2  0
 16 17  1  0
 17 18  2  0
 18 19  1  0
 19 20  2  0
 20 21  1  0
 21 22  2  0
 22 23  1  0
 23 24  2  0
  7 25  2  0
 25  3  1  0
 24 15  1  0
 23 18  1  0
  1 26  1  0
  1 27  1  0
  1 28  1  0
  4 29  1  0
  5 30  1  0
  6 31  1  0
  8 32  1  0
 11 33  1  0
 11 34  1  0
 12 35  1  0
 16 36  1  0
 17 37  1  0
 19 38  1  0
 20 39  1  0
 21 40  1  0
 22 41  1  0
 25 42  1  0
M  END
>  <smiles>  (14) 
COc1cccc(NC(=O)CNC(=O)c2ccc3ccccc3n2)c1

>  <score_type>  (14) 
oracle

>  <origin>  (14) 
autodockgpu

>  <m_score__min__energy>  (14) 
-8.5299999999999994

>  <m_primary>  (14) 
energy

>  <rmsd>  (14) 
11.082393691554978

>  <m_score__min__rmsd>  (14) 
11.082393691554978

>  <meeko>  (14) 
{"free_energy": -7.74, "intermolecular_energy": -9.24, "internal_energy": -1.94, "cluster_size": 43, "cluster_id": 2, "rank_in_cluster": 28}

>  <energy>  (14) 
-7.79

>  <cluster_rmsd>  (14) 
0.16

>  <cluster>  (14) 
2

$$$$

     RDKit          3D

 42 44  0  0  0  0  0  0  0  0999 V2000
  141.0300   71.8980  228.1020 C   0  0  0  0  0  0  0  0  0  0  0  0
  141.2950   70.9880  227.0570 O   0  0  0  0  0  0  0  0  0  0  0  0
  140.4670   70.8230  225.9480 C   0  0  0  0  0  0  0  0  0  0  0  0
  139.5770   69.7660  225.8390 C   0  0  0  0  0  0  0  0  0  0  0  0
  138.8010   69.6940  224.6970 C   0  0  0  0  0  0  0  0  0  0  0  0
  138.8920   70.6380  223.6810 C   0  0  0  0  0  0  0  0  0  0  0  0
  139.7890   71.6770  223.8220 C   0  0  0  0  0  0  0  0  0  0  0  0
  139.9390   72.6940  222.8080 N   0  0  0  0  0  0  0  0  0  0  0  0
  141.0020   72.6760  221.8760 C   0  0  0  0  0  0  0  0  0  0  0  0
  141.8270   71.7070  221.9910 O   0  0  0  0  0  0  0  0  0  0  0  0
  141.2280   73.6630  220.8130 C   0  0  0  0  0  0  0  0  0  0  0  0
  141.2600   74.9900  221.3450 N   0  0  0  0  0  0  0  0  0  0  0  0
  140.0900   75.6980  221.7600 C   0  0  0  0  0  0  0  0  0  0  0  0
  138.9250   75.1810  221.6710 O   0  0  0  0  0  0  0  0  0  0  0  0
  140.2270   77.0650  222.3070 C   0  0  0  0  0  0  0  0  0  0  0  0
  139.0980   77.7560  222.6910 C   0  0  0  0  0  0  0  0  0  0  0  0
  139.2220   79.0470  223.2080 C   0  0  0  0  0  0  0  0  0  0  0  0
  140.4730   79.6240  223.3310 C   0  0  0  0  0  0  0  0  0  0  0  0
  140.5760   80.8980  223.8430 C   0  0  0  0  0  0  0  0  0  0  0  0
  141.8600   81.4330  223.9460 C   0  0  0  0  0  0  0  0  0  0  0  0
  142.9710   80.7360  223.5610 C   0  0  0  0  0  0  0  0  0  0  0  0
  142.8140   79.4550  223.0510 C   0  0  0  0  0  0  0  0  0  0  0  0
  141.5650   78.8770  222.9270 C   0  0  0  0  0  0  0  0  0  0  0  0
  141.4470   77.6390  222.4310 N   0  0  0  0  0  0  0  0  0  0  0  0
  140.5850   71.7820  224.9540 C   0  0  0  0  0  0  0  0  0  0  0  0
  141.1759   71.3970  229.0703 H   0  0  0  0  0  0  0  0  0  0  0  0
  141.7161   72.7544  228.0252 H   0  0  0  0  0  0  0  0  0  0  0  0
  139.9914   72.2522  228.0252 H   0  0  0  0  0  0  0  0  0  0  0  0
  139.4910   69.0104  226.6338 H   0  0  0  0  0  0  0  0  0  0  0  0
  138.0886   68.8628  224.5891 H   0  0  0  0  0  0  0  0  0  0  0  0
  138.2619   70.5585  222.7829 H   0  0  0  0  0  0  0  0  0  0  0  0
  139.2390   73.4370  222.8080 H   0  0  0  0  0  0  0  0  0  0  0  0
  142.1886   73.4491  220.3216 H   0  0  0  0  0  0  0  0  0  0  0  0
  140.4020   73.5949  220.0898 H   0  0  0  0  0  0  0  0  0  0  0  0
  142.1760   75.5200  221.4570 H   0  0  0  0  0  0  0  0  0  0  0  0
  138.1052   77.2931  222.5907 H   0  0  0  0  0  0  0  0  0  0  0  0
  138.3257   79.6047  223.5172 H   0  0  0  0  0  0  0  0  0  0  0  0
  139.6880   81.4668  224.1559 H   0  0  0  0  0  0  0  0  0  0  0  0
  141.9825   82.4487  224.3501 H   0  0  0  0  0  0  0  0  0  0  0  0
  143.9719   81.1827  223.6538 H   0  0  0  0  0  0  0  0  0  0  0  0
  143.7030   78.8874  222.7387 H   0  0  0  0  0  0  0  0  0  0  0  0
  141.2980   72.6128  225.0607 H   0  0  0  0  0  0  0  0  0  0  0  0
  1  2  1  0
  2  3  1  0
  3  4  2  0
  4  5  1  0
  5  6  2  0
  6  7  1  0
  7  8  1  0
  8  9  1  0
  9 10  2  0
  9 11  1  0
 11 12  1  0
 12 13  1  0
 13 14  2  0
 13 15  1  0
 15 16  2  0
 16 17  1  0
 17 18  2  0
 18 19  1  0
 19 20  2  0
 20 21  1  0
 21 22  2  0
 22 23  1  0
 23 24  2  0
  7 25  2  0
 25  3  1  0
 24 15  1  0
 23 18  1  0
  1 26  1  0
  1 27  1  0
  1 28  1  0
  4 29  1  0
  5 30  1  0
  6 31  1  0
  8 32  1  0
 11 33  1  0
 11 34  1  0
 12 35  1  0
 16 36  1  0
 17 37  1  0
 19 38  1  0
 20 39  1  0
 21 40  1  0
 22 41  1  0
 25 42  1  0
M  END
>  <smiles>  (15) 
COc1cccc(NC(=O)CNC(=O)c2ccc3ccccc3n2)c1

>  <score_type>  (15) 
oracle

>  <origin>  (15) 
autodockgpu

>  <m_score__min__energy>  (15) 
-8.5299999999999994

>  <m_primary>  (15) 
energy

>  <rmsd>  (15) 
10.746718351011383

>  <m_score__min__rmsd>  (15) 
10.746718351011383

>  <meeko>  (15) 
{"free_energy": -7.8, "intermolecular_energy": -9.29, "internal_energy": -1.93, "cluster_size": 43, "cluster_id": 2, "rank_in_cluster": 5}

>  <energy>  (15) 
-7.79

>  <cluster_rmsd>  (15) 
0.14

>  <cluster>  (15) 
2

$$$$

     RDKit          3D

 42 44  0  0  0  0  0  0  0  0999 V2000
  138.7400   67.7650  223.0870 C   0  0  0  0  0  0  0  0  0  0  0  0
  138.8060   68.2640  224.4060 O   0  0  0  0  0  0  0  0  0  0  0  0
  139.4540   69.4480  224.7520 C   0  0  0  0  0  0  0  0  0  0  0  0
  140.0380   69.6360  225.9950 C   0  0  0  0  0  0  0  0  0  0  0  0
  140.6560   70.8490  226.2380 C   0  0  0  0  0  0  0  0  0  0  0  0
  140.7030   71.8580  225.2840 C   0  0  0  0  0  0  0  0  0  0  0  0
  140.1100   71.6380  224.0580 C   0  0  0  0  0  0  0  0  0  0  0  0
  140.1170   72.6400  223.0180 N   0  0  0  0  0  0  0  0  0  0  0  0
  141.0230   72.5900  221.9320 C   0  0  0  0  0  0  0  0  0  0  0  0
  141.8390   71.6070  221.9320 O   0  0  0  0  0  0  0  0  0  0  0  0
  141.0970   73.5600  220.8330 C   0  0  0  0  0  0  0  0  0  0  0  0
  141.1490   74.8990  221.3340 N   0  0  0  0  0  0  0  0  0  0  0  0
  140.0040   75.5960  221.8310 C   0  0  0  0  0  0  0  0  0  0  0  0
  138.8460   75.0570  221.8510 O   0  0  0  0  0  0  0  0  0  0  0  0
  140.1600   76.9760  222.3370 C   0  0  0  0  0  0  0  0  0  0  0  0
  139.0410   77.6940  222.6990 C   0  0  0  0  0  0  0  0  0  0  0  0
  139.1840   78.9990  223.1780 C   0  0  0  0  0  0  0  0  0  0  0  0
  140.4430   79.5600  223.2850 C   0  0  0  0  0  0  0  0  0  0  0  0
  140.5640   80.8480  223.7580 C   0  0  0  0  0  0  0  0  0  0  0  0
  141.8560   81.3670  223.8460 C   0  0  0  0  0  0  0  0  0  0  0  0
  142.9570   80.6430  223.4830 C   0  0  0  0  0  0  0  0  0  0  0  0
  142.7820   79.3490  223.0110 C   0  0  0  0  0  0  0  0  0  0  0  0
  141.5240   78.7860  222.9030 C   0  0  0  0  0  0  0  0  0  0  0  0
  141.3890   77.5360  222.4450 N   0  0  0  0  0  0  0  0  0  0  0  0
  139.4800   70.4330  223.7770 C   0  0  0  0  0  0  0  0  0  0  0  0
  138.5958   66.6748  223.1142 H   0  0  0  0  0  0  0  0  0  0  0  0
  137.8960   68.2334  222.5596 H   0  0  0  0  0  0  0  0  0  0  0  0
  139.6768   67.9979  222.5596 H   0  0  0  0  0  0  0  0  0  0  0  0
  140.0108   68.8476  226.7616 H   0  0  0  0  0  0  0  0  0  0  0  0
  141.1254   71.0205  227.2179 H   0  0  0  0  0  0  0  0  0  0  0  0
  141.2031   72.8132  225.5019 H   0  0  0  0  0  0  0  0  0  0  0  0
  139.4390   73.3960  223.1160 H   0  0  0  0  0  0  0  0  0  0  0  0
  142.0017   73.3626  220.2392 H   0  0  0  0  0  0  0  0  0  0  0  0
  140.1966   73.4535  220.2101 H   0  0  0  0  0  0  0  0  0  0  0  0
  142.0600   75.4460  221.3580 H   0  0  0  0  0  0  0  0  0  0  0  0
  138.0416   77.2429  222.6115 H   0  0  0  0  0  0  0  0  0  0  0  0
  138.2960   79.5791  223.4695 H   0  0  0  0  0  0  0  0  0  0  0  0
  139.6842   81.4390  224.0522 H   0  0  0  0  0  0  0  0  0  0  0  0
  141.9931   82.3924  224.2197 H   0  0  0  0  0  0  0  0  0  0  0  0
  143.9642   81.0779  223.5634 H   0  0  0  0  0  0  0  0  0  0  0  0
  143.6628   78.7594  222.7168 H   0  0  0  0  0  0  0  0  0  0  0  0
  139.0095   70.2629  222.7973 H   0  0  0  0  0  0  0  0  0  0  0  0
  1  2  1  0
  2  3  1  0
  3  4  2  0
  4  5  1  0
  5  6  2  0
  6  7  1  0
  7  8  1  0
  8  9  1  0
  9 10  2  0
  9 11  1  0
 11 12  1  0
 12 13  1  0
 13 14  2  0
 13 15  1  0
 15 16  2  0
 16 17  1  0
 17 18  2  0
 18 19  1  0
 19 20  2  0
 20 21  1  0
 21 22  2  0
 22 23  1  0
 23 24  2  0
  7 25  2  0
 25  3  1  0
 24 15  1  0
 23 18  1  0
  1 26  1  0
  1 27  1  0
  1 28  1  0
  4 29  1  0
  5 30  1  0
  6 31  1  0
  8 32  1  0
 11 33  1  0
 11 34  1  0
 12 35  1  0
 16 36  1  0
 17 37  1  0
 19 38  1  0
 20 39  1  0
 21 40  1  0
 22 41  1  0
 25 42  1  0
M  END
>  <smiles>  (16) 
COc1cccc(NC(=O)CNC(=O)c2ccc3ccccc3n2)c1

>  <score_type>  (16) 
oracle

>  <origin>  (16) 
autodockgpu

>  <m_score__min__energy>  (16) 
-8.5299999999999994

>  <m_primary>  (16) 
energy

>  <rmsd>  (16) 
11.070787558343282

>  <m_score__min__rmsd>  (16) 
11.070787558343282

>  <meeko>  (16) 
{"free_energy": -7.77, "intermolecular_energy": -9.26, "internal_energy": -1.93, "cluster_size": 43, "cluster_id": 2, "rank_in_cluster": 16}

>  <energy>  (16) 
-7.78

>  <cluster_rmsd>  (16) 
1.42

>  <cluster>  (16) 
2

$$$$

     RDKit          3D

 42 44  0  0  0  0  0  0  0  0999 V2000
  137.9590   80.8920  224.2030 C   0  0  0  0  0  0  0  0  0  0  0  0
  138.8920   81.0630  223.1570 O   0  0  0  0  0  0  0  0  0  0  0  0
  140.1360   80.4360  223.1240 C   0  0  0  0  0  0  0  0  0  0  0  0
  141.2710   81.0130  223.6730 C   0  0  0  0  0  0  0  0  0  0  0  0
  142.4570   80.3090  223.5860 C   0  0  0  0  0  0  0  0  0  0  0  0
  142.5340   79.0630  222.9740 C   0  0  0  0  0  0  0  0  0  0  0  0
  141.3850   78.5180  222.4370 C   0  0  0  0  0  0  0  0  0  0  0  0
  141.3880   77.2290  221.7860 N   0  0  0  0  0  0  0  0  0  0  0  0
  140.3550   76.2830  221.9880 C   0  0  0  0  0  0  0  0  0  0  0  0
  139.4240   76.6370  222.7880 O   0  0  0  0  0  0  0  0  0  0  0  0
  140.2750   74.9570  221.3650 C   0  0  0  0  0  0  0  0  0  0  0  0
  139.9830   73.9510  222.3390 N   0  0  0  0  0  0  0  0  0  0  0  0
  140.6370   72.6800  222.3750 C   0  0  0  0  0  0  0  0  0  0  0  0
  141.5290   72.3590  221.5190 O   0  0  0  0  0  0  0  0  0  0  0  0
  140.2730   71.7080  223.4280 C   0  0  0  0  0  0  0  0  0  0  0  0
  139.5120   70.6070  223.0990 C   0  0  0  0  0  0  0  0  0  0  0  0
  139.1660   69.6870  224.0920 C   0  0  0  0  0  0  0  0  0  0  0  0
  139.5880   69.8840  225.3930 C   0  0  0  0  0  0  0  0  0  0  0  0
  139.2370   68.9670  226.3580 C   0  0  0  0  0  0  0  0  0  0  0  0
  139.6870   69.2130  227.6550 C   0  0  0  0  0  0  0  0  0  0  0  0
  140.4420   70.3090  227.9670 C   0  0  0  0  0  0  0  0  0  0  0  0
  140.7690   71.2060  226.9580 C   0  0  0  0  0  0  0  0  0  0  0  0
  140.3480   71.0100  225.6560 C   0  0  0  0  0  0  0  0  0  0  0  0
  140.6810   71.8930  224.7060 N   0  0  0  0  0  0  0  0  0  0  0  0
  140.1750   79.1960  222.5050 C   0  0  0  0  0  0  0  0  0  0  0  0
  138.4724   80.9861  225.1713 H   0  0  0  0  0  0  0  0  0  0  0  0
  137.1770   81.6618  224.1263 H   0  0  0  0  0  0  0  0  0  0  0  0
  137.5008   79.8949  224.1263 H   0  0  0  0  0  0  0  0  0  0  0  0
  141.2288   81.9978  224.1613 H   0  0  0  0  0  0  0  0  0  0  0  0
  143.3696   80.7487  224.0148 H   0  0  0  0  0  0  0  0  0  0  0  0
  143.4906   78.5227  222.9189 H   0  0  0  0  0  0  0  0  0  0  0  0
  142.1830   77.0330  221.1790 H   0  0  0  0  0  0  0  0  0  0  0  0
  139.4798   74.9638  220.6050 H   0  0  0  0  0  0  0  0  0  0  0  0
  141.2465   74.7270  220.9033 H   0  0  0  0  0  0  0  0  0  0  0  0
  139.2520   74.1070  223.0960 H   0  0  0  0  0  0  0  0  0  0  0  0
  139.1793   70.4536  222.0618 H   0  0  0  0  0  0  0  0  0  0  0  0
  138.5579   68.8062  223.8382 H   0  0  0  0  0  0  0  0  0  0  0  0
  138.6300   68.0817  226.1174 H   0  0  0  0  0  0  0  0  0  0  0  0
  139.4259   68.5020  228.4527 H   0  0  0  0  0  0  0  0  0  0  0  0
  140.7845   70.4776  228.9986 H   0  0  0  0  0  0  0  0  0  0  0  0
  141.3758   72.0910  227.2002 H   0  0  0  0  0  0  0  0  0  0  0  0
  139.2628   78.7567  222.0750 H   0  0  0  0  0  0  0  0  0  0  0  0
  1  2  1  0
  2  3  1  0
  3  4  2  0
  4  5  1  0
  5  6  2  0
  6  7  1  0
  7  8  1  0
  8  9  1  0
  9 10  2  0
  9 11  1  0
 11 12  1  0
 12 13  1  0
 13 14  2  0
 13 15  1  0
 15 16  2  0
 16 17  1  0
 17 18  2  0
 18 19  1  0
 19 20  2  0
 20 21  1  0
 21 22  2  0
 22 23  1  0
 23 24  2  0
  7 25  2  0
 25  3  1  0
 24 15  1  0
 23 18  1  0
  1 26  1  0
  1 27  1  0
  1 28  1  0
  4 29  1  0
  5 30  1  0
  6 31  1  0
  8 32  1  0
 11 33  1  0
 11 34  1  0
 12 35  1  0
 16 36  1  0
 17 37  1  0
 19 38  1  0
 20 39  1  0
 21 40  1  0
 22 41  1  0
 25 42  1  0
M  END
>  <smiles>  (17) 
COc1cccc(NC(=O)CNC(=O)c2ccc3ccccc3n2)c1

>  <score_type>  (17) 
oracle

>  <origin>  (17) 
autodockgpu

>  <m_score__min__energy>  (17) 
-8.5299999999999994

>  <m_primary>  (17) 
energy

>  <rmsd>  (17) 
4.233778517319386

>  <m_score__min__rmsd>  (17) 
4.233778517319386

>  <meeko>  (17) 
{"free_energy": -8.41, "intermolecular_energy": -9.9, "internal_energy": -0.91, "cluster_size": 7, "cluster_id": 1, "rank_in_cluster": 4}

>  <energy>  (17) 
-7.78

>  <cluster_rmsd>  (17) 
0.22

>  <cluster>  (17) 
2

$$$$

     RDKit          3D

 42 44  0  0  0  0  0  0  0  0999 V2000
  138.7910   67.7220  223.1010 C   0  0  0  0  0  0  0  0  0  0  0  0
  138.8290   68.2230  224.4200 O   0  0  0  0  0  0  0  0  0  0  0  0
  139.4690   69.4080  224.7770 C   0  0  0  0  0  0  0  0  0  0  0  0
  140.0340   69.5950  226.0300 C   0  0  0  0  0  0  0  0  0  0  0  0
  140.6470   70.8080  226.2840 C   0  0  0  0  0  0  0  0  0  0  0  0
  140.7060   71.8200  225.3330 C   0  0  0  0  0  0  0  0  0  0  0  0
  140.1320   71.6000  224.0970 C   0  0  0  0  0  0  0  0  0  0  0  0
  140.1540   72.6040  223.0590 N   0  0  0  0  0  0  0  0  0  0  0  0
  141.0390   72.5280  221.9580 C   0  0  0  0  0  0  0  0  0  0  0  0
  141.8240   71.5200  221.9430 O   0  0  0  0  0  0  0  0  0  0  0  0
  141.1260   73.4980  220.8600 C   0  0  0  0  0  0  0  0  0  0  0  0
  141.1630   74.8370  221.3600 N   0  0  0  0  0  0  0  0  0  0  0  0
  140.0090   75.5250  221.8490 C   0  0  0  0  0  0  0  0  0  0  0  0
  138.8560   74.9770  221.8610 O   0  0  0  0  0  0  0  0  0  0  0  0
  140.1510   76.9070  222.3560 C   0  0  0  0  0  0  0  0  0  0  0  0
  139.0250   77.6120  222.7190 C   0  0  0  0  0  0  0  0  0  0  0  0
  139.1540   78.9180  223.1980 C   0  0  0  0  0  0  0  0  0  0  0  0
  140.4060   79.4930  223.3050 C   0  0  0  0  0  0  0  0  0  0  0  0
  140.5150   80.7820  223.7790 C   0  0  0  0  0  0  0  0  0  0  0  0
  141.8000   81.3150  223.8670 C   0  0  0  0  0  0  0  0  0  0  0  0
  142.9090   80.6030  223.5030 C   0  0  0  0  0  0  0  0  0  0  0  0
  142.7480   79.3070  223.0310 C   0  0  0  0  0  0  0  0  0  0  0  0
  141.4960   78.7310  222.9230 C   0  0  0  0  0  0  0  0  0  0  0  0
  141.3740   77.4790  222.4640 N   0  0  0  0  0  0  0  0  0  0  0  0
  139.5090   70.3940  223.8050 C   0  0  0  0  0  0  0  0  0  0  0  0
  138.7078   66.6255  223.1275 H   0  0  0  0  0  0  0  0  0  0  0  0
  137.9222   68.1430  222.5738 H   0  0  0  0  0  0  0  0  0  0  0  0
  139.7133   68.0071  222.5738 H   0  0  0  0  0  0  0  0  0  0  0  0
  139.9957   68.8056  226.7951 H   0  0  0  0  0  0  0  0  0  0  0  0
  141.1028   70.9777  227.2706 H   0  0  0  0  0  0  0  0  0  0  0  0
  141.1998   72.7762  225.5606 H   0  0  0  0  0  0  0  0  0  0  0  0
  139.5020   73.3800  223.1690 H   0  0  0  0  0  0  0  0  0  0  0  0
  142.0413   73.3049  220.2813 H   0  0  0  0  0  0  0  0  0  0  0  0
  140.2361   73.3866  220.2230 H   0  0  0  0  0  0  0  0  0  0  0  0
  142.0700   75.3920  221.3910 H   0  0  0  0  0  0  0  0  0  0  0  0
  138.0306   77.1498  222.6323 H   0  0  0  0  0  0  0  0  0  0  0  0
  138.2597   79.4881  223.4898 H   0  0  0  0  0  0  0  0  0  0  0  0
  139.6292   81.3635  224.0743 H   0  0  0  0  0  0  0  0  0  0  0  0
  141.9259   82.3416  224.2414 H   0  0  0  0  0  0  0  0  0  0  0  0
  143.9114   81.0490  223.5827 H   0  0  0  0  0  0  0  0  0  0  0  0
  143.6350   78.7267  222.7370 H   0  0  0  0  0  0  0  0  0  0  0  0
  139.0546   70.2243  222.8177 H   0  0  0  0  0  0  0  0  0  0  0  0
  1  2  1  0
  2  3  1  0
  3  4  2  0
  4  5  1  0
  5  6  2  0
  6  7  1  0
  7  8  1  0
  8  9  1  0
  9 10  2  0
  9 11  1  0
 11 12  1  0
 12 13  1  0
 13 14  2  0
 13 15  1  0
 15 16  2  0
 16 17  1  0
 17 18  2  0
 18 19  1  0
 19 20  2  0
 20 21  1  0
 21 22  2  0
 22 23  1  0
 23 24  2  0
  7 25  2  0
 25  3  1  0
 24 15  1  0
 23 18  1  0
  1 26  1  0
  1 27  1  0
  1 28  1  0
  4 29  1  0
  5 30  1  0
  6 31  1  0
  8 32  1  0
 11 33  1  0
 11 34  1  0
 12 35  1  0
 16 36  1  0
 17 37  1  0
 19 38  1  0
 20 39  1  0
 21 40  1  0
 22 41  1  0
 25 42  1  0
M  END
>  <smiles>  (18) 
COc1cccc(NC(=O)CNC(=O)c2ccc3ccccc3n2)c1

>  <score_type>  (18) 
oracle

>  <origin>  (18) 
autodockgpu

>  <m_score__min__energy>  (18) 
-8.5299999999999994

>  <m_primary>  (18) 
energy

>  <rmsd>  (18) 
11.077022500895641

>  <m_score__min__rmsd>  (18) 
11.077022500895641

>  <meeko>  (18) 
{"free_energy": -7.76, "intermolecular_energy": -9.25, "internal_energy": -1.94, "cluster_size": 43, "cluster_id": 2, "rank_in_cluster": 20}

>  <energy>  (18) 
-7.77

>  <cluster_rmsd>  (18) 
1.42

>  <cluster>  (18) 
2

$$$$

     RDKit          3D

 42 44  0  0  0  0  0  0  0  0999 V2000
  138.7560   67.7600  223.1230 C   0  0  0  0  0  0  0  0  0  0  0  0
  138.8600   68.2250  224.4510 O   0  0  0  0  0  0  0  0  0  0  0  0
  139.4960   69.4130  224.8050 C   0  0  0  0  0  0  0  0  0  0  0  0
  140.0600   69.6060  226.0570 C   0  0  0  0  0  0  0  0  0  0  0  0
  140.6680   70.8220  226.3070 C   0  0  0  0  0  0  0  0  0  0  0  0
  140.7240   71.8310  225.3530 C   0  0  0  0  0  0  0  0  0  0  0  0
  140.1510   71.6060  224.1180 C   0  0  0  0  0  0  0  0  0  0  0  0
  140.1700   72.6070  223.0770 N   0  0  0  0  0  0  0  0  0  0  0  0
  141.0600   72.5340  221.9790 C   0  0  0  0  0  0  0  0  0  0  0  0
  141.8510   71.5310  221.9700 O   0  0  0  0  0  0  0  0  0  0  0  0
  141.1430   73.5000  220.8790 C   0  0  0  0  0  0  0  0  0  0  0  0
  141.1810   74.8410  221.3750 N   0  0  0  0  0  0  0  0  0  0  0  0
  140.0270   75.5300  221.8630 C   0  0  0  0  0  0  0  0  0  0  0  0
  138.8730   74.9820  221.8780 O   0  0  0  0  0  0  0  0  0  0  0  0
  140.1690   76.9130  222.3660 C   0  0  0  0  0  0  0  0  0  0  0  0
  139.0440   77.6160  222.7380 C   0  0  0  0  0  0  0  0  0  0  0  0
  139.1730   78.9230  223.2140 C   0  0  0  0  0  0  0  0  0  0  0  0
  140.4250   79.5020  223.3080 C   0  0  0  0  0  0  0  0  0  0  0  0
  140.5330   80.7920  223.7780 C   0  0  0  0  0  0  0  0  0  0  0  0
  141.8180   81.3290  223.8540 C   0  0  0  0  0  0  0  0  0  0  0  0
  142.9260   80.6200  223.4810 C   0  0  0  0  0  0  0  0  0  0  0  0
  142.7640   79.3230  223.0130 C   0  0  0  0  0  0  0  0  0  0  0  0
  141.5130   78.7430  222.9180 C   0  0  0  0  0  0  0  0  0  0  0  0
  141.3910   77.4900  222.4620 N   0  0  0  0  0  0  0  0  0  0  0  0
  139.5320   70.3970  223.8290 C   0  0  0  0  0  0  0  0  0  0  0  0
  138.5159   66.6865  223.1281 H   0  0  0  0  0  0  0  0  0  0  0  0
  137.9590   68.3115  222.6028 H   0  0  0  0  0  0  0  0  0  0  0  0
  139.7120   67.9194  222.6028 H   0  0  0  0  0  0  0  0  0  0  0  0
  140.0248   68.8188  226.8246 H   0  0  0  0  0  0  0  0  0  0  0  0
  141.1224   70.9967  227.2934 H   0  0  0  0  0  0  0  0  0  0  0  0
  141.2150   72.7893  225.5777 H   0  0  0  0  0  0  0  0  0  0  0  0
  139.5120   73.3780  223.1820 H   0  0  0  0  0  0  0  0  0  0  0  0
  142.0565   73.3056  220.2979 H   0  0  0  0  0  0  0  0  0  0  0  0
  140.2511   73.3863  220.2453 H   0  0  0  0  0  0  0  0  0  0  0  0
  142.0870   75.3960  221.4030 H   0  0  0  0  0  0  0  0  0  0  0  0
  138.0502   77.1509  222.6607 H   0  0  0  0  0  0  0  0  0  0  0  0
  138.2797   79.4907  223.5136 H   0  0  0  0  0  0  0  0  0  0  0  0
  139.6478   81.3714  224.0792 H   0  0  0  0  0  0  0  0  0  0  0  0
  141.9441   82.3564  224.2262 H   0  0  0  0  0  0  0  0  0  0  0  0
  143.9277   81.0692  223.5505 H   0  0  0  0  0  0  0  0  0  0  0  0
  143.6499   78.7448  222.7115 H   0  0  0  0  0  0  0  0  0  0  0  0
  139.0779   70.2230  222.8423 H   0  0  0  0  0  0  0  0  0  0  0  0
  1  2  1  0
  2  3  1  0
  3  4  2  0
  4  5  1  0
  5  6  2  0
  6  7  1  0
  7  8  1  0
  8  9  1  0
  9 10  2  0
  9 11  1  0
 11 12  1  0
 12 13  1  0
 13 14  2  0
 13 15  1  0
 15 16  2  0
 16 17  1  0
 17 18  2  0
 18 19  1  0
 19 20  2  0
 20 21  1  0
 21 22  2  0
 22 23  1  0
 23 24  2  0
  7 25  2  0
 25  3  1  0
 24 15  1  0
 23 18  1  0
  1 26  1  0
  1 27  1  0
  1 28  1  0
  4 29  1  0
  5 30  1  0
  6 31  1  0
  8 32  1  0
 11 33  1  0
 11 34  1  0
 12 35  1  0
 16 36  1  0
 17 37  1  0
 19 38  1  0
 20 39  1  0
 21 40  1  0
 22 41  1  0
 25 42  1  0
M  END
>  <smiles>  (19) 
COc1cccc(NC(=O)CNC(=O)c2ccc3ccccc3n2)c1

>  <score_type>  (19) 
oracle

>  <origin>  (19) 
autodockgpu

>  <m_score__min__energy>  (19) 
-8.5299999999999994

>  <m_primary>  (19) 
energy

>  <rmsd>  (19) 
11.073594577750809

>  <m_score__min__rmsd>  (19) 
11.073594577750809

>  <meeko>  (19) 
{"free_energy": -7.76, "intermolecular_energy": -9.25, "internal_energy": -1.94, "cluster_size": 43, "cluster_id": 2, "rank_in_cluster": 21}

>  <energy>  (19) 
-7.77

>  <cluster_rmsd>  (19) 
0.17

>  <cluster>  (19) 
2

$$$$

     RDKit          3D

 42 44  0  0  0  0  0  0  0  0999 V2000
  141.0680   69.9160  228.1150 C   0  0  0  0  0  0  0  0  0  0  0  0
  141.1660   70.8380  227.0510 O   0  0  0  0  0  0  0  0  0  0  0  0
  140.3580   70.7960  225.9170 C   0  0  0  0  0  0  0  0  0  0  0  0
  139.3780   69.8310  225.7410 C   0  0  0  0  0  0  0  0  0  0  0  0
  138.6300   69.8770  224.5790 C   0  0  0  0  0  0  0  0  0  0  0  0
  138.8360   70.8480  223.6070 C   0  0  0  0  0  0  0  0  0  0  0  0
  139.8210   71.7930  223.8120 C   0  0  0  0  0  0  0  0  0  0  0  0
  140.0930   72.8310  222.8470 N   0  0  0  0  0  0  0  0  0  0  0  0
  141.0050   72.6470  221.7810 C   0  0  0  0  0  0  0  0  0  0  0  0
  141.5790   71.5070  221.7300 O   0  0  0  0  0  0  0  0  0  0  0  0
  141.3360   73.6420  220.7550 C   0  0  0  0  0  0  0  0  0  0  0  0
  141.3350   74.9630  221.3030 N   0  0  0  0  0  0  0  0  0  0  0  0
  140.1430   75.6640  221.6610 C   0  0  0  0  0  0  0  0  0  0  0  0
  138.9860   75.1450  221.5040 O   0  0  0  0  0  0  0  0  0  0  0  0
  140.2460   77.0240  222.2310 C   0  0  0  0  0  0  0  0  0  0  0  0
  139.1010   77.6780  222.6330 C   0  0  0  0  0  0  0  0  0  0  0  0
  139.1940   78.9630  223.1720 C   0  0  0  0  0  0  0  0  0  0  0  0
  140.4290   79.5710  223.2980 C   0  0  0  0  0  0  0  0  0  0  0  0
  140.5010   80.8390  223.8310 C   0  0  0  0  0  0  0  0  0  0  0  0
  141.7710   81.4060  223.9370 C   0  0  0  0  0  0  0  0  0  0  0  0
  142.8980   80.7460  223.5330 C   0  0  0  0  0  0  0  0  0  0  0  0
  142.7730   79.4700  223.0020 C   0  0  0  0  0  0  0  0  0  0  0  0
  141.5390   78.8610  222.8750 C   0  0  0  0  0  0  0  0  0  0  0  0
  141.4510   77.6290  222.3590 N   0  0  0  0  0  0  0  0  0  0  0  0
  140.5920   71.7780  224.9680 C   0  0  0  0  0  0  0  0  0  0  0  0
  141.1252   70.4540  229.0728 H   0  0  0  0  0  0  0  0  0  0  0  0
  140.1081   69.3826  228.0508 H   0  0  0  0  0  0  0  0  0  0  0  0
  141.8943   69.1928  228.0508 H   0  0  0  0  0  0  0  0  0  0  0  0
  139.2015   69.0549  226.5003 H   0  0  0  0  0  0  0  0  0  0  0  0
  137.8472   69.1209  224.4192 H   0  0  0  0  0  0  0  0  0  0  0  0
  138.2260   70.8634  222.6918 H   0  0  0  0  0  0  0  0  0  0  0  0
  139.5980   73.7120  222.9810 H   0  0  0  0  0  0  0  0  0  0  0  0
  142.3343   73.4217  220.3491 H   0  0  0  0  0  0  0  0  0  0  0  0
  140.5771   73.5917  219.9603 H   0  0  0  0  0  0  0  0  0  0  0  0
  142.2420   75.4930  221.4710 H   0  0  0  0  0  0  0  0  0  0  0  0
  138.1202   77.1908  222.5299 H   0  0  0  0  0  0  0  0  0  0  0  0
  138.2850   79.4910  223.4961 H   0  0  0  0  0  0  0  0  0  0  0  0
  139.5999   81.3788  224.1575 H   0  0  0  0  0  0  0  0  0  0  0  0
  141.8689   82.4170  224.3593 H   0  0  0  0  0  0  0  0  0  0  0  0
  143.8870   81.2183  223.6272 H   0  0  0  0  0  0  0  0  0  0  0  0
  143.6751   78.9320  222.6753 H   0  0  0  0  0  0  0  0  0  0  0  0
  141.3754   72.5336  225.1271 H   0  0  0  0  0  0  0  0  0  0  0  0
  1  2  1  0
  2  3  1  0
  3  4  2  0
  4  5  1  0
  5  6  2  0
  6  7  1  0
  7  8  1  0
  8  9  1  0
  9 10  2  0
  9 11  1  0
 11 12  1  0
 12 13  1  0
 13 14  2  0
 13 15  1  0
 15 16  2  0
 16 17  1  0
 17 18  2  0
 18 19  1  0
 19 20  2  0
 20 21  1  0
 21 22  2  0
 22 23  1  0
 23 24  2  0
  7 25  2  0
 25  3  1  0
 24 15  1  0
 23 18  1  0
  1 26  1  0
  1 27  1  0
  1 28  1  0
  4 29  1  0
  5 30  1  0
  6 31  1  0
  8 32  1  0
 11 33  1  0
 11 34  1  0
 12 35  1  0
 16 36  1  0
 17 37  1  0
 19 38  1  0
 20 39  1  0
 21 40  1  0
 22 41  1  0
 25 42  1  0
M  END
>  <smiles>  (20) 
COc1cccc(NC(=O)CNC(=O)c2ccc3ccccc3n2)c1

>  <score_type>  (20) 
oracle

>  <origin>  (20) 
autodockgpu

>  <m_score__min__energy>  (20) 
-8.5299999999999994

>  <m_primary>  (20) 
energy

>  <rmsd>  (20) 
11.034376043971367

>  <m_score__min__rmsd>  (20) 
11.034376043971367

>  <meeko>  (20) 
{"free_energy": -7.45, "intermolecular_energy": -8.94, "internal_energy": -1.91, "cluster_size": 43, "cluster_id": 2, "rank_in_cluster": 43}

>  <energy>  (20) 
-7.77

>  <cluster_rmsd>  (20) 
1.42

>  <cluster>  (20) 
2

$$$$

     RDKit          3D

 42 44  0  0  0  0  0  0  0  0999 V2000
  140.8820   71.8400  228.3400 C   0  0  0  0  0  0  0  0  0  0  0  0
  141.3910   71.1690  227.2080 O   0  0  0  0  0  0  0  0  0  0  0  0
  140.6390   70.9010  226.0660 C   0  0  0  0  0  0  0  0  0  0  0  0
  139.8820   69.7470  225.9320 C   0  0  0  0  0  0  0  0  0  0  0  0
  139.1710   69.5770  224.7580 C   0  0  0  0  0  0  0  0  0  0  0  0
  139.2000   70.5170  223.7340 C   0  0  0  0  0  0  0  0  0  0  0  0
  139.9650   71.6530  223.9000 C   0  0  0  0  0  0  0  0  0  0  0  0
  140.0430   72.6720  222.8810 N   0  0  0  0  0  0  0  0  0  0  0  0
  141.0280   72.6460  221.8650 C   0  0  0  0  0  0  0  0  0  0  0  0
  141.8480   71.6680  221.9110 O   0  0  0  0  0  0  0  0  0  0  0  0
  141.1770   73.6340  220.7910 C   0  0  0  0  0  0  0  0  0  0  0  0
  141.2150   74.9630  221.3180 N   0  0  0  0  0  0  0  0  0  0  0  0
  140.0570   75.6530  221.7920 C   0  0  0  0  0  0  0  0  0  0  0  0
  138.8980   75.1170  221.7650 O   0  0  0  0  0  0  0  0  0  0  0  0
  140.2000   77.0230  222.3290 C   0  0  0  0  0  0  0  0  0  0  0  0
  139.0740   77.7230  222.7050 C   0  0  0  0  0  0  0  0  0  0  0  0
  139.2040   79.0180  223.2130 C   0  0  0  0  0  0  0  0  0  0  0  0
  140.4570   79.5880  223.3350 C   0  0  0  0  0  0  0  0  0  0  0  0
  140.5660   80.8660  223.8370 C   0  0  0  0  0  0  0  0  0  0  0  0
  141.8530   81.3940  223.9400 C   0  0  0  0  0  0  0  0  0  0  0  0
  142.9610   80.6890  223.5630 C   0  0  0  0  0  0  0  0  0  0  0  0
  142.7990   79.4040  223.0620 C   0  0  0  0  0  0  0  0  0  0  0  0
  141.5460   78.8320  222.9390 C   0  0  0  0  0  0  0  0  0  0  0  0
  141.4230   77.5910  222.4520 N   0  0  0  0  0  0  0  0  0  0  0  0
  140.6910   71.8590  225.0660 C   0  0  0  0  0  0  0  0  0  0  0  0
  141.2526   71.3515  229.2532 H   0  0  0  0  0  0  0  0  0  0  0  0
  141.2139   72.8886  228.3246 H   0  0  0  0  0  0  0  0  0  0  0  0
  139.7827   71.8030  228.3246 H   0  0  0  0  0  0  0  0  0  0  0  0
  139.8481   68.9927  226.7319 H   0  0  0  0  0  0  0  0  0  0  0  0
  138.5632   68.6691  224.6303 H   0  0  0  0  0  0  0  0  0  0  0  0
  138.6246   70.3581  222.8101 H   0  0  0  0  0  0  0  0  0  0  0  0
  139.3540   73.4220  222.9390 H   0  0  0  0  0  0  0  0  0  0  0  0
  142.1125   73.4359  220.2474 H   0  0  0  0  0  0  0  0  0  0  0  0
  140.3130   73.5498  220.1154 H   0  0  0  0  0  0  0  0  0  0  0  0
  142.1270   75.5080  221.3810 H   0  0  0  0  0  0  0  0  0  0  0  0
  138.0789   77.2649  222.6058 H   0  0  0  0  0  0  0  0  0  0  0  0
  138.3101   79.5832  223.5155 H   0  0  0  0  0  0  0  0  0  0  0  0
  139.6804   81.4427  224.1421 H   0  0  0  0  0  0  0  0  0  0  0  0
  141.9801   82.4116  224.3379 H   0  0  0  0  0  0  0  0  0  0  0  0
  143.9639   81.1316  223.6547 H   0  0  0  0  0  0  0  0  0  0  0  0
  143.6858   78.8292  222.7566 H   0  0  0  0  0  0  0  0  0  0  0  0
  141.2974   72.7678  225.1936 H   0  0  0  0  0  0  0  0  0  0  0  0
  1  2  1  0
  2  3  1  0
  3  4  2  0
  4  5  1  0
  5  6  2  0
  6  7  1  0
  7  8  1  0
  8  9  1  0
  9 10  2  0
  9 11  1  0
 11 12  1  0
 12 13  1  0
 13 14  2  0
 13 15  1  0
 15 16  2  0
 16 17  1  0
 17 18  2  0
 18 19  1  0
 19 20  2  0
 20 21  1  0
 21 22  2  0
 22 23  1  0
 23 24  2  0
  7 25  2  0
 25  3  1  0
 24 15  1  0
 23 18  1  0
  1 26  1  0
  1 27  1  0
  1 28  1  0
  4 29  1  0
  5 30  1  0
  6 31  1  0
  8 32  1  0
 11 33  1  0
 11 34  1  0
 12 35  1  0
 16 36  1  0
 17 37  1  0
 19 38  1  0
 20 39  1  0
 21 40  1  0
 22 41  1  0
 25 42  1  0
M  END
>  <smiles>  (21) 
COc1cccc(NC(=O)CNC(=O)c2ccc3ccccc3n2)c1

>  <score_type>  (21) 
oracle

>  <origin>  (21) 
autodockgpu

>  <m_score__min__energy>  (21) 
-8.5299999999999994

>  <m_primary>  (21) 
energy

>  <rmsd>  (21) 
10.773744493879638

>  <m_score__min__rmsd>  (21) 
10.773744493879638

>  <meeko>  (21) 
{"free_energy": -7.82, "intermolecular_energy": -9.31, "internal_energy": -1.91, "cluster_size": 43, "cluster_id": 2, "rank_in_cluster": 2}

>  <energy>  (21) 
-7.77

>  <cluster_rmsd>  (21) 
1.43

>  <cluster>  (21) 
2

$$$$

     RDKit          3D

 42 44  0  0  0  0  0  0  0  0999 V2000
  141.0240   71.8880  228.0400 C   0  0  0  0  0  0  0  0  0  0  0  0
  141.1460   70.8530  227.0880 O   0  0  0  0  0  0  0  0  0  0  0  0
  140.3420   70.7470  225.9550 C   0  0  0  0  0  0  0  0  0  0  0  0
  139.4060   69.7360  225.8040 C   0  0  0  0  0  0  0  0  0  0  0  0
  138.6590   69.7210  224.6410 C   0  0  0  0  0  0  0  0  0  0  0  0
  138.8220   70.6760  223.6450 C   0  0  0  0  0  0  0  0  0  0  0  0
  139.7640   71.6680  223.8270 C   0  0  0  0  0  0  0  0  0  0  0  0
  139.9900   72.6940  222.8370 N   0  0  0  0  0  0  0  0  0  0  0  0
  141.0170   72.5920  221.8690 C   0  0  0  0  0  0  0  0  0  0  0  0
  141.7380   71.5390  221.9320 O   0  0  0  0  0  0  0  0  0  0  0  0
  141.3130   73.5800  220.8260 C   0  0  0  0  0  0  0  0  0  0  0  0
  141.3160   74.9060  221.3630 N   0  0  0  0  0  0  0  0  0  0  0  0
  140.1250   75.6160  221.7090 C   0  0  0  0  0  0  0  0  0  0  0  0
  138.9660   75.1010  221.5510 O   0  0  0  0  0  0  0  0  0  0  0  0
  140.2310   76.9810  222.2680 C   0  0  0  0  0  0  0  0  0  0  0  0
  139.0880   77.6410  222.6600 C   0  0  0  0  0  0  0  0  0  0  0  0
  139.1840   78.9310  223.1880 C   0  0  0  0  0  0  0  0  0  0  0  0
  140.4200   79.5350  223.3130 C   0  0  0  0  0  0  0  0  0  0  0  0
  140.4960   80.8080  223.8350 C   0  0  0  0  0  0  0  0  0  0  0  0
  141.7670   81.3710  223.9400 C   0  0  0  0  0  0  0  0  0  0  0  0
  142.8930   80.7030  223.5470 C   0  0  0  0  0  0  0  0  0  0  0  0
  142.7650   79.4230  223.0260 C   0  0  0  0  0  0  0  0  0  0  0  0
  141.5290   78.8170  222.9000 C   0  0  0  0  0  0  0  0  0  0  0  0
  141.4380   77.5810  222.3940 N   0  0  0  0  0  0  0  0  0  0  0  0
  140.5330   71.7160  224.9830 C   0  0  0  0  0  0  0  0  0  0  0  0
  141.0742   71.4622  229.0530 H   0  0  0  0  0  0  0  0  0  0  0  0
  141.8433   72.6093  227.9044 H   0  0  0  0  0  0  0  0  0  0  0  0
  140.0594   72.3991  227.9044 H   0  0  0  0  0  0  0  0  0  0  0  0
  139.2626   68.9722  226.5825 H   0  0  0  0  0  0  0  0  0  0  0  0
  137.9110   68.9270  224.4994 H   0  0  0  0  0  0  0  0  0  0  0  0
  138.2125   70.6420  222.7299 H   0  0  0  0  0  0  0  0  0  0  0  0
  139.3730   73.5050  222.8790 H   0  0  0  0  0  0  0  0  0  0  0  0
  142.3020   73.3638  220.3957 H   0  0  0  0  0  0  0  0  0  0  0  0
  140.5342   73.5168  220.0518 H   0  0  0  0  0  0  0  0  0  0  0  0
  142.2240   75.4340  221.5310 H   0  0  0  0  0  0  0  0  0  0  0  0
  138.1060   77.1560  222.5582 H   0  0  0  0  0  0  0  0  0  0  0  0
  138.2759   79.4653  223.5040 H   0  0  0  0  0  0  0  0  0  0  0  0
  139.5961   81.3543  224.1539 H   0  0  0  0  0  0  0  0  0  0  0  0
  141.8670   82.3858  224.3525 H   0  0  0  0  0  0  0  0  0  0  0  0
  143.8835   81.1719  223.6420 H   0  0  0  0  0  0  0  0  0  0  0  0
  143.6662   78.8792  222.7066 H   0  0  0  0  0  0  0  0  0  0  0  0
  141.2811   72.5100  225.1244 H   0  0  0  0  0  0  0  0  0  0  0  0
  1  2  1  0
  2  3  1  0
  3  4  2  0
  4  5  1  0
  5  6  2  0
  6  7  1  0
  7  8  1  0
  8  9  1  0
  9 10  2  0
  9 11  1  0
 11 12  1  0
 12 13  1  0
 13 14  2  0
 13 15  1  0
 15 16  2  0
 16 17  1  0
 17 18  2  0
 18 19  1  0
 19 20  2  0
 20 21  1  0
 21 22  2  0
 22 23  1  0
 23 24  2  0
  7 25  2  0
 25  3  1  0
 24 15  1  0
 23 18  1  0
  1 26  1  0
  1 27  1  0
  1 28  1  0
  4 29  1  0
  5 30  1  0
  6 31  1  0
  8 32  1  0
 11 33  1  0
 11 34  1  0
 12 35  1  0
 16 36  1  0
 17 37  1  0
 19 38  1  0
 20 39  1  0
 21 40  1  0
 22 41  1  0
 25 42  1  0
M  END
>  <smiles>  (22) 
COc1cccc(NC(=O)CNC(=O)c2ccc3ccccc3n2)c1

>  <score_type>  (22) 
oracle

>  <origin>  (22) 
autodockgpu

>  <m_score__min__energy>  (22) 
-8.5299999999999994

>  <m_primary>  (22) 
energy

>  <rmsd>  (22) 
10.724540229594906

>  <m_score__min__rmsd>  (22) 
10.724540229594906

>  <meeko>  (22) 
{"free_energy": -7.74, "intermolecular_energy": -9.23, "internal_energy": -1.92, "cluster_size": 43, "cluster_id": 2, "rank_in_cluster": 29}

>  <energy>  (22) 
-7.77

>  <cluster_rmsd>  (22) 
1.42

>  <cluster>  (22) 
2

$$$$

     RDKit          3D

 42 44  0  0  0  0  0  0  0  0999 V2000
  140.8730   71.8650  228.3450 C   0  0  0  0  0  0  0  0  0  0  0  0
  141.3390   71.1120  227.2460 O   0  0  0  0  0  0  0  0  0  0  0  0
  140.5880   70.8790  226.0960 C   0  0  0  0  0  0  0  0  0  0  0  0
  139.7900   69.7540  225.9480 C   0  0  0  0  0  0  0  0  0  0  0  0
  139.0850   69.6170  224.7680 C   0  0  0  0  0  0  0  0  0  0  0  0
  139.1570   70.5610  223.7500 C   0  0  0  0  0  0  0  0  0  0  0  0
  139.9610   71.6680  223.9300 C   0  0  0  0  0  0  0  0  0  0  0  0
  140.0860   72.6900  222.9170 N   0  0  0  0  0  0  0  0  0  0  0  0
  141.0430   72.6060  221.8780 C   0  0  0  0  0  0  0  0  0  0  0  0
  141.7950   71.5730  221.8960 O   0  0  0  0  0  0  0  0  0  0  0  0
  141.2360   73.5920  220.8090 C   0  0  0  0  0  0  0  0  0  0  0  0
  141.2630   74.9210  221.3370 N   0  0  0  0  0  0  0  0  0  0  0  0
  140.0910   75.6230  221.7580 C   0  0  0  0  0  0  0  0  0  0  0  0
  138.9290   75.0980  221.6800 O   0  0  0  0  0  0  0  0  0  0  0  0
  140.2230   76.9930  222.3000 C   0  0  0  0  0  0  0  0  0  0  0  0
  139.0910   77.6820  222.6770 C   0  0  0  0  0  0  0  0  0  0  0  0
  139.2110   78.9760  223.1890 C   0  0  0  0  0  0  0  0  0  0  0  0
  140.4600   79.5560  223.3150 C   0  0  0  0  0  0  0  0  0  0  0  0
  140.5590   80.8320  223.8210 C   0  0  0  0  0  0  0  0  0  0  0  0
  141.8410   81.3700  223.9280 C   0  0  0  0  0  0  0  0  0  0  0  0
  142.9550   80.6740  223.5500 C   0  0  0  0  0  0  0  0  0  0  0  0
  142.8030   79.3900  223.0440 C   0  0  0  0  0  0  0  0  0  0  0  0
  141.5550   78.8100  222.9170 C   0  0  0  0  0  0  0  0  0  0  0  0
  141.4420   77.5690  222.4260 N   0  0  0  0  0  0  0  0  0  0  0  0
  140.6850   71.8400  225.1030 C   0  0  0  0  0  0  0  0  0  0  0  0
  141.1769   71.3739  229.2812 H   0  0  0  0  0  0  0  0  0  0  0  0
  141.3032   72.8766  228.3052 H   0  0  0  0  0  0  0  0  0  0  0  0
  139.7757   71.9313  228.3052 H   0  0  0  0  0  0  0  0  0  0  0  0
  139.7210   68.9969  226.7431 H   0  0  0  0  0  0  0  0  0  0  0  0
  138.4460   68.7324  224.6294 H   0  0  0  0  0  0  0  0  0  0  0  0
  138.5847   70.4282  222.8200 H   0  0  0  0  0  0  0  0  0  0  0  0
  139.4520   73.4840  222.9980 H   0  0  0  0  0  0  0  0  0  0  0  0
  142.1891   73.3880  220.2991 H   0  0  0  0  0  0  0  0  0  0  0  0
  140.3965   73.5123  220.1026 H   0  0  0  0  0  0  0  0  0  0  0  0
  142.1760   75.4570  221.4400 H   0  0  0  0  0  0  0  0  0  0  0  0
  138.0996   77.2163  222.5755 H   0  0  0  0  0  0  0  0  0  0  0  0
  138.3124   79.5335  223.4918 H   0  0  0  0  0  0  0  0  0  0  0  0
  139.6685   81.4008  224.1267 H   0  0  0  0  0  0  0  0  0  0  0  0
  141.9596   82.3872  224.3295 H   0  0  0  0  0  0  0  0  0  0  0  0
  143.9545   81.1233  223.6450 H   0  0  0  0  0  0  0  0  0  0  0  0
  143.6943   78.8227  222.7379 H   0  0  0  0  0  0  0  0  0  0  0  0
  141.3245   72.7243  225.2410 H   0  0  0  0  0  0  0  0  0  0  0  0
  1  2  1  0
  2  3  1  0
  3  4  2  0
  4  5  1  0
  5  6  2  0
  6  7  1  0
  7  8  1  0
  8  9  1  0
  9 10  2  0
  9 11  1  0
 11 12  1  0
 12 13  1  0
 13 14  2  0
 13 15  1  0
 15 16  2  0
 16 17  1  0
 17 18  2  0
 18 19  1  0
 19 20  2  0
 20 21  1  0
 21 22  2  0
 22 23  1  0
 23 24  2  0
  7 25  2  0
 25  3  1  0
 24 15  1  0
 23 18  1  0
  1 26  1  0
  1 27  1  0
  1 28  1  0
  4 29  1  0
  5 30  1  0
  6 31  1  0
  8 32  1  0
 11 33  1  0
 11 34  1  0
 12 35  1  0
 16 36  1  0
 17 37  1  0
 19 38  1  0
 20 39  1  0
 21 40  1  0
 22 41  1  0
 25 42  1  0
M  END
>  <smiles>  (23) 
COc1cccc(NC(=O)CNC(=O)c2ccc3ccccc3n2)c1

>  <score_type>  (23) 
oracle

>  <origin>  (23) 
autodockgpu

>  <m_score__min__energy>  (23) 
-8.5299999999999994

>  <m_primary>  (23) 
energy

>  <rmsd>  (23) 
10.764757324163117

>  <m_score__min__rmsd>  (23) 
10.764757324163117

>  <meeko>  (23) 
{"free_energy": -7.81, "intermolecular_energy": -9.3, "internal_energy": -1.92, "cluster_size": 43, "cluster_id": 2, "rank_in_cluster": 3}

>  <energy>  (23) 
-7.77

>  <cluster_rmsd>  (23) 
1.42

>  <cluster>  (23) 
2

$$$$

     RDKit          3D

 42 44  0  0  0  0  0  0  0  0999 V2000
  138.8150   67.6950  223.1440 C   0  0  0  0  0  0  0  0  0  0  0  0
  138.7480   68.2750  224.4280 O   0  0  0  0  0  0  0  0  0  0  0  0
  139.4140   69.4470  224.7810 C   0  0  0  0  0  0  0  0  0  0  0  0
  140.0140   69.6140  226.0200 C   0  0  0  0  0  0  0  0  0  0  0  0
  140.6500   70.8160  226.2710 C   0  0  0  0  0  0  0  0  0  0  0  0
  140.6990   71.8360  225.3280 C   0  0  0  0  0  0  0  0  0  0  0  0
  140.0910   71.6370  224.1050 C   0  0  0  0  0  0  0  0  0  0  0  0
  140.1010   72.6510  223.0770 N   0  0  0  0  0  0  0  0  0  0  0  0
  140.8450   72.5040  221.8830 C   0  0  0  0  0  0  0  0  0  0  0  0
  141.5150   71.4210  221.7740 O   0  0  0  0  0  0  0  0  0  0  0  0
  140.9090   73.4780  220.7880 C   0  0  0  0  0  0  0  0  0  0  0  0
  140.9510   74.8160  221.2920 N   0  0  0  0  0  0  0  0  0  0  0  0
  139.8130   75.4830  221.8440 C   0  0  0  0  0  0  0  0  0  0  0  0
  138.6700   74.9160  221.9120 O   0  0  0  0  0  0  0  0  0  0  0  0
  139.9590   76.8640  222.3500 C   0  0  0  0  0  0  0  0  0  0  0  0
  138.8370   77.5670  222.7310 C   0  0  0  0  0  0  0  0  0  0  0  0
  138.9700   78.8720  223.2090 C   0  0  0  0  0  0  0  0  0  0  0  0
  140.2220   79.4500  223.2990 C   0  0  0  0  0  0  0  0  0  0  0  0
  140.3340   80.7380  223.7720 C   0  0  0  0  0  0  0  0  0  0  0  0
  141.6200   81.2740  223.8430 C   0  0  0  0  0  0  0  0  0  0  0  0
  142.7250   80.5650  223.4620 C   0  0  0  0  0  0  0  0  0  0  0  0
  142.5590   79.2700  222.9900 C   0  0  0  0  0  0  0  0  0  0  0  0
  141.3080   78.6910  222.9000 C   0  0  0  0  0  0  0  0  0  0  0  0
  141.1820   77.4390  222.4410 N   0  0  0  0  0  0  0  0  0  0  0  0
  139.4430   70.4430  223.8170 C   0  0  0  0  0  0  0  0  0  0  0  0
  138.9408   66.6064  223.2395 H   0  0  0  0  0  0  0  0  0  0  0  0
  137.8860   67.9101  222.5956 H   0  0  0  0  0  0  0  0  0  0  0  0
  139.6705   68.1162  222.5956 H   0  0  0  0  0  0  0  0  0  0  0  0
  139.9850   68.8171  226.7777 H   0  0  0  0  0  0  0  0  0  0  0  0
  141.1323   70.9698  227.2476 H   0  0  0  0  0  0  0  0  0  0  0  0
  141.2121   72.7829  225.5520 H   0  0  0  0  0  0  0  0  0  0  0  0
  139.5490   73.4880  223.2640 H   0  0  0  0  0  0  0  0  0  0  0  0
  141.8142   73.2898  220.1920 H   0  0  0  0  0  0  0  0  0  0  0  0
  140.0078   73.3662  220.1672 H   0  0  0  0  0  0  0  0  0  0  0  0
  141.8490   75.3850  221.2790 H   0  0  0  0  0  0  0  0  0  0  0  0
  137.8423   77.1028  222.6590 H   0  0  0  0  0  0  0  0  0  0  0  0
  138.0786   79.4399  223.5138 H   0  0  0  0  0  0  0  0  0  0  0  0
  139.4509   81.3173  224.0795 H   0  0  0  0  0  0  0  0  0  0  0  0
  141.7490   82.3002  224.2176 H   0  0  0  0  0  0  0  0  0  0  0  0
  143.7277   81.0126  223.5282 H   0  0  0  0  0  0  0  0  0  0  0  0
  143.4427   78.6925  222.6810 H   0  0  0  0  0  0  0  0  0  0  0  0
  138.9607   70.2900  222.8403 H   0  0  0  0  0  0  0  0  0  0  0  0
  1  2  1  0
  2  3  1  0
  3  4  2  0
  4  5  1  0
  5  6  2  0
  6  7  1  0
  7  8  1  0
  8  9  1  0
  9 10  2  0
  9 11  1  0
 11 12  1  0
 12 13  1  0
 13 14  2  0
 13 15  1  0
 15 16  2  0
 16 17  1  0
 17 18  2  0
 18 19  1  0
 19 20  2  0
 20 21  1  0
 21 22  2  0
 22 23  1  0
 23 24  2  0
  7 25  2  0
 25  3  1  0
 24 15  1  0
 23 18  1  0
  1 26  1  0
  1 27  1  0
  1 28  1  0
  4 29  1  0
  5 30  1  0
  6 31  1  0
  8 32  1  0
 11 33  1  0
 11 34  1  0
 12 35  1  0
 16 36  1  0
 17 37  1  0
 19 38  1  0
 20 39  1  0
 21 40  1  0
 22 41  1  0
 25 42  1  0
M  END
>  <smiles>  (24) 
COc1cccc(NC(=O)CNC(=O)c2ccc3ccccc3n2)c1

>  <score_type>  (24) 
oracle

>  <origin>  (24) 
autodockgpu

>  <m_score__min__energy>  (24) 
-8.5299999999999994

>  <m_primary>  (24) 
energy

>  <rmsd>  (24) 
11.053068018453777

>  <m_score__min__rmsd>  (24) 
11.053068018453777

>  <meeko>  (24) 
{"free_energy": -7.53, "intermolecular_energy": -9.02, "internal_energy": -1.93, "cluster_size": 43, "cluster_id": 2, "rank_in_cluster": 40}

>  <energy>  (24) 
-7.77

>  <cluster_rmsd>  (24) 
1.41

>  <cluster>  (24) 
2

$$$$

     RDKit          3D

 42 44  0  0  0  0  0  0  0  0999 V2000
  140.8200   71.8470  228.3380 C   0  0  0  0  0  0  0  0  0  0  0  0
  141.3180   71.1160  227.2380 O   0  0  0  0  0  0  0  0  0  0  0  0
  140.5950   70.8930  226.0680 C   0  0  0  0  0  0  0  0  0  0  0  0
  139.8120   69.7640  225.8860 C   0  0  0  0  0  0  0  0  0  0  0  0
  139.1340   69.6380  224.6880 C   0  0  0  0  0  0  0  0  0  0  0  0
  139.2200   70.5980  223.6860 C   0  0  0  0  0  0  0  0  0  0  0  0
  140.0090   71.7090  223.9000 C   0  0  0  0  0  0  0  0  0  0  0  0
  140.1460   72.7470  222.9060 N   0  0  0  0  0  0  0  0  0  0  0  0
  141.0010   72.6080  221.7870 C   0  0  0  0  0  0  0  0  0  0  0  0
  141.6500   71.5100  221.7150 O   0  0  0  0  0  0  0  0  0  0  0  0
  141.1970   73.6060  220.7290 C   0  0  0  0  0  0  0  0  0  0  0  0
  141.2200   74.9300  221.2710 N   0  0  0  0  0  0  0  0  0  0  0  0
  140.0490   75.6130  221.7250 C   0  0  0  0  0  0  0  0  0  0  0  0
  138.8920   75.0750  221.6660 O   0  0  0  0  0  0  0  0  0  0  0  0
  140.1760   76.9770  222.2800 C   0  0  0  0  0  0  0  0  0  0  0  0
  139.0460   77.6450  222.7000 C   0  0  0  0  0  0  0  0  0  0  0  0
  139.1610   78.9340  223.2240 C   0  0  0  0  0  0  0  0  0  0  0  0
  140.4040   79.5310  223.3200 C   0  0  0  0  0  0  0  0  0  0  0  0
  140.4990   80.8030  223.8390 C   0  0  0  0  0  0  0  0  0  0  0  0
  141.7750   81.3600  223.9140 C   0  0  0  0  0  0  0  0  0  0  0  0
  142.8880   80.6860  223.4940 C   0  0  0  0  0  0  0  0  0  0  0  0
  142.7400   79.4060  222.9770 C   0  0  0  0  0  0  0  0  0  0  0  0
  141.4980   78.8070  222.8800 C   0  0  0  0  0  0  0  0  0  0  0  0
  141.3890   77.5710  222.3780 N   0  0  0  0  0  0  0  0  0  0  0  0
  140.7040   71.8700  225.0910 C   0  0  0  0  0  0  0  0  0  0  0  0
  141.1457   71.3689  229.2736 H   0  0  0  0  0  0  0  0  0  0  0  0
  141.2054   72.8765  228.2988 H   0  0  0  0  0  0  0  0  0  0  0  0
  139.7209   71.8652  228.2988 H   0  0  0  0  0  0  0  0  0  0  0  0
  139.7328   68.9946  226.6681 H   0  0  0  0  0  0  0  0  0  0  0  0
  138.5065   68.7499  224.5222 H   0  0  0  0  0  0  0  0  0  0  0  0
  138.6699   70.4740  222.7415 H   0  0  0  0  0  0  0  0  0  0  0  0
  139.6000   73.5940  223.0600 H   0  0  0  0  0  0  0  0  0  0  0  0
  142.1524   73.4087  220.2209 H   0  0  0  0  0  0  0  0  0  0  0  0
  140.3604   73.5326  220.0186 H   0  0  0  0  0  0  0  0  0  0  0  0
  142.1280   75.4760  221.3620 H   0  0  0  0  0  0  0  0  0  0  0  0
  138.0591   77.1653  222.6228 H   0  0  0  0  0  0  0  0  0  0  0  0
  138.2634   79.4739  223.5601 H   0  0  0  0  0  0  0  0  0  0  0  0
  139.6096   81.3540  224.1786 H   0  0  0  0  0  0  0  0  0  0  0  0
  141.8899   82.3742  224.3242 H   0  0  0  0  0  0  0  0  0  0  0  0
  143.8830   81.1497  223.5645 H   0  0  0  0  0  0  0  0  0  0  0  0
  143.6304   78.8566  222.6372 H   0  0  0  0  0  0  0  0  0  0  0  0
  141.3310   72.7585  225.2566 H   0  0  0  0  0  0  0  0  0  0  0  0
  1  2  1  0
  2  3  1  0
  3  4  2  0
  4  5  1  0
  5  6  2  0
  6  7  1  0
  7  8  1  0
  8  9  1  0
  9 10  2  0
  9 11  1  0
 11 12  1  0
 12 13  1  0
 13 14  2  0
 13 15  1  0
 15 16  2  0
 16 17  1  0
 17 18  2  0
 18 19  1  0
 19 20  2  0
 20 21  1  0
 21 22  2  0
 22 23  1  0
 23 24  2  0
  7 25  2  0
 25  3  1  0
 24 15  1  0
 23 18  1  0
  1 26  1  0
  1 27  1  0
  1 28  1  0
  4 29  1  0
  5 30  1  0
  6 31  1  0
  8 32  1  0
 11 33  1  0
 11 34  1  0
 12 35  1  0
 16 36  1  0
 17 37  1  0
 19 38  1  0
 20 39  1  0
 21 40  1  0
 22 41  1  0
 25 42  1  0
M  END
>  <smiles>  (25) 
COc1cccc(NC(=O)CNC(=O)c2ccc3ccccc3n2)c1

>  <score_type>  (25) 
oracle

>  <origin>  (25) 
autodockgpu

>  <m_score__min__energy>  (25) 
-8.5299999999999994

>  <m_primary>  (25) 
energy

>  <rmsd>  (25) 
10.739729982081212

>  <m_score__min__rmsd>  (25) 
10.739729982081212

>  <meeko>  (25) 
{"free_energy": -7.72, "intermolecular_energy": -9.21, "internal_energy": -1.91, "cluster_size": 43, "cluster_id": 2, "rank_in_cluster": 33}

>  <energy>  (25) 
-7.76

>  <cluster_rmsd>  (25) 
0.08

>  <cluster>  (25) 
2

$$$$

     RDKit          3D

 42 44  0  0  0  0  0  0  0  0999 V2000
  140.8850   71.8450  228.3530 C   0  0  0  0  0  0  0  0  0  0  0  0
  141.3650   71.1250  227.2380 O   0  0  0  0  0  0  0  0  0  0  0  0
  140.6120   70.8870  226.0900 C   0  0  0  0  0  0  0  0  0  0  0  0
  139.8190   69.7590  225.9460 C   0  0  0  0  0  0  0  0  0  0  0  0
  139.1100   69.6170  224.7680 C   0  0  0  0  0  0  0  0  0  0  0  0
  139.1750   70.5600  223.7480 C   0  0  0  0  0  0  0  0  0  0  0  0
  139.9750   71.6710  223.9240 C   0  0  0  0  0  0  0  0  0  0  0  0
  140.0920   72.6910  222.9100 N   0  0  0  0  0  0  0  0  0  0  0  0
  141.0630   72.6230  221.8830 C   0  0  0  0  0  0  0  0  0  0  0  0
  141.8350   71.6050  221.9130 O   0  0  0  0  0  0  0  0  0  0  0  0
  141.2490   73.6090  220.8130 C   0  0  0  0  0  0  0  0  0  0  0  0
  141.2760   74.9390  221.3400 N   0  0  0  0  0  0  0  0  0  0  0  0
  140.1040   75.6400  221.7620 C   0  0  0  0  0  0  0  0  0  0  0  0
  138.9420   75.1140  221.6840 O   0  0  0  0  0  0  0  0  0  0  0  0
  140.2350   77.0090  222.3030 C   0  0  0  0  0  0  0  0  0  0  0  0
  139.1020   77.7020  222.6720 C   0  0  0  0  0  0  0  0  0  0  0  0
  139.2210   78.9960  223.1830 C   0  0  0  0  0  0  0  0  0  0  0  0
  140.4700   79.5730  223.3170 C   0  0  0  0  0  0  0  0  0  0  0  0
  140.5690   80.8500  223.8230 C   0  0  0  0  0  0  0  0  0  0  0  0
  141.8510   81.3850  223.9380 C   0  0  0  0  0  0  0  0  0  0  0  0
  142.9670   80.6860  223.5690 C   0  0  0  0  0  0  0  0  0  0  0  0
  142.8150   79.4020  223.0630 C   0  0  0  0  0  0  0  0  0  0  0  0
  141.5670   78.8240  222.9280 C   0  0  0  0  0  0  0  0  0  0  0  0
  141.4540   77.5830  222.4380 N   0  0  0  0  0  0  0  0  0  0  0  0
  140.7010   71.8470  225.0950 C   0  0  0  0  0  0  0  0  0  0  0  0
  141.2148   71.3504  229.2785 H   0  0  0  0  0  0  0  0  0  0  0  0
  141.2804   72.8711  228.3247 H   0  0  0  0  0  0  0  0  0  0  0  0
  139.7858   71.8747  228.3247 H   0  0  0  0  0  0  0  0  0  0  0  0
  139.7562   69.0026  226.7422 H   0  0  0  0  0  0  0  0  0  0  0  0
  138.4740   68.7297  224.6330 H   0  0  0  0  0  0  0  0  0  0  0  0
  138.6006   70.4233  222.8199 H   0  0  0  0  0  0  0  0  0  0  0  0
  139.4420   73.4730  222.9810 H   0  0  0  0  0  0  0  0  0  0  0  0
  142.2000   73.4065  220.2987 H   0  0  0  0  0  0  0  0  0  0  0  0
  140.4061   73.5274  220.1110 H   0  0  0  0  0  0  0  0  0  0  0  0
  142.1880   75.4760  221.4430 H   0  0  0  0  0  0  0  0  0  0  0  0
  138.1102   77.2385  222.5646 H   0  0  0  0  0  0  0  0  0  0  0  0
  138.3215   79.5559  223.4787 H   0  0  0  0  0  0  0  0  0  0  0  0
  139.6779   81.4212  224.1225 H   0  0  0  0  0  0  0  0  0  0  0  0
  141.9689   82.4026  224.3386 H   0  0  0  0  0  0  0  0  0  0  0  0
  143.9669   81.1329  223.6712 H   0  0  0  0  0  0  0  0  0  0  0  0
  143.7071   78.8326  222.7632 H   0  0  0  0  0  0  0  0  0  0  0  0
  141.3366   72.7346  225.2303 H   0  0  0  0  0  0  0  0  0  0  0  0
  1  2  1  0
  2  3  1  0
  3  4  2  0
  4  5  1  0
  5  6  2  0
  6  7  1  0
  7  8  1  0
  8  9  1  0
  9 10  2  0
  9 11  1  0
 11 12  1  0
 12 13  1  0
 13 14  2  0
 13 15  1  0
 15 16  2  0
 16 17  1  0
 17 18  2  0
 18 19  1  0
 19 20  2  0
 20 21  1  0
 21 22  2  0
 22 23  1  0
 23 24  2  0
  7 25  2  0
 25  3  1  0
 24 15  1  0
 23 18  1  0
  1 26  1  0
  1 27  1  0
  1 28  1  0
  4 29  1  0
  5 30  1  0
  6 31  1  0
  8 32  1  0
 11 33  1  0
 11 34  1  0
 12 35  1  0
 16 36  1  0
 17 37  1  0
 19 38  1  0
 20 39  1  0
 21 40  1  0
 22 41  1  0
 25 42  1  0
M  END
>  <smiles>  (26) 
COc1cccc(NC(=O)CNC(=O)c2ccc3ccccc3n2)c1

>  <score_type>  (26) 
oracle

>  <origin>  (26) 
autodockgpu

>  <m_score__min__energy>  (26) 
-8.5299999999999994

>  <m_primary>  (26) 
energy

>  <rmsd>  (26) 
10.773117819171478

>  <m_score__min__rmsd>  (26) 
10.773117819171478

>  <meeko>  (26) 
{"free_energy": -7.8, "intermolecular_energy": -9.29, "internal_energy": -1.92, "cluster_size": 43, "cluster_id": 2, "rank_in_cluster": 6}

>  <energy>  (26) 
-7.76

>  <cluster_rmsd>  (26) 
1.42

>  <cluster>  (26) 
2

$$$$

     RDKit          3D

 42 44  0  0  0  0  0  0  0  0999 V2000
  138.7170   67.7740  223.1380 C   0  0  0  0  0  0  0  0  0  0  0  0
  138.8580   68.2450  224.4610 O   0  0  0  0  0  0  0  0  0  0  0  0
  139.4900   69.4420  224.7900 C   0  0  0  0  0  0  0  0  0  0  0  0
  140.0930   69.6470  226.0220 C   0  0  0  0  0  0  0  0  0  0  0  0
  140.6940   70.8710  226.2490 C   0  0  0  0  0  0  0  0  0  0  0  0
  140.7060   71.8770  225.2900 C   0  0  0  0  0  0  0  0  0  0  0  0
  140.0960   71.6400  224.0750 C   0  0  0  0  0  0  0  0  0  0  0  0
  140.0680   72.6380  223.0310 N   0  0  0  0  0  0  0  0  0  0  0  0
  140.9840   72.6240  221.9530 C   0  0  0  0  0  0  0  0  0  0  0  0
  141.8430   71.6780  221.9640 O   0  0  0  0  0  0  0  0  0  0  0  0
  141.0240   73.5910  220.8500 C   0  0  0  0  0  0  0  0  0  0  0  0
  141.0870   74.9310  221.3460 N   0  0  0  0  0  0  0  0  0  0  0  0
  139.9570   75.6260  221.8760 C   0  0  0  0  0  0  0  0  0  0  0  0
  138.8010   75.0850  221.9320 O   0  0  0  0  0  0  0  0  0  0  0  0
  140.1250   77.0080  222.3750 C   0  0  0  0  0  0  0  0  0  0  0  0
  139.0140   77.7310  222.7510 C   0  0  0  0  0  0  0  0  0  0  0  0
  139.1680   79.0370  223.2220 C   0  0  0  0  0  0  0  0  0  0  0  0
  140.4290   79.5950  223.3080 C   0  0  0  0  0  0  0  0  0  0  0  0
  140.5620   80.8840  223.7750 C   0  0  0  0  0  0  0  0  0  0  0  0
  141.8560   81.3990  223.8420 C   0  0  0  0  0  0  0  0  0  0  0  0
  142.9500   80.6700  223.4650 C   0  0  0  0  0  0  0  0  0  0  0  0
  142.7640   79.3750  223.0010 C   0  0  0  0  0  0  0  0  0  0  0  0
  141.5030   78.8160  222.9140 C   0  0  0  0  0  0  0  0  0  0  0  0
  141.3570   77.5640  222.4620 N   0  0  0  0  0  0  0  0  0  0  0  0
  139.4830   70.4230  223.8110 C   0  0  0  0  0  0  0  0  0  0  0  0
  138.4016   66.7203  223.1556 H   0  0  0  0  0  0  0  0  0  0  0  0
  137.9594   68.3749  222.6137 H   0  0  0  0  0  0  0  0  0  0  0  0
  139.6802   67.8597  222.6137 H   0  0  0  0  0  0  0  0  0  0  0  0
  140.0930   68.8620  226.7926 H   0  0  0  0  0  0  0  0  0  0  0  0
  141.1782   71.0547  227.2195 H   0  0  0  0  0  0  0  0  0  0  0  0
  141.1918   72.8423  225.4953 H   0  0  0  0  0  0  0  0  0  0  0  0
  139.3560   73.3630  223.1190 H   0  0  0  0  0  0  0  0  0  0  0  0
  141.9118   73.3943  220.2310 H   0  0  0  0  0  0  0  0  0  0  0  0
  140.1065   73.4806  220.2534 H   0  0  0  0  0  0  0  0  0  0  0  0
  141.9980   75.4810  221.3420 H   0  0  0  0  0  0  0  0  0  0  0  0
  138.0120   77.2826  222.6807 H   0  0  0  0  0  0  0  0  0  0  0  0
  138.2860   79.6207  223.5242 H   0  0  0  0  0  0  0  0  0  0  0  0
  139.6887   81.4789  224.0806 H   0  0  0  0  0  0  0  0  0  0  0  0
  142.0017   82.4253  224.2101 H   0  0  0  0  0  0  0  0  0  0  0  0
  143.9595   81.1022  223.5283 H   0  0  0  0  0  0  0  0  0  0  0  0
  143.6385   78.7813  222.6962 H   0  0  0  0  0  0  0  0  0  0  0  0
  138.9993   70.2400  222.8402 H   0  0  0  0  0  0  0  0  0  0  0  0
  1  2  1  0
  2  3  1  0
  3  4  2  0
  4  5  1  0
  5  6  2  0
  6  7  1  0
  7  8  1  0
  8  9  1  0
  9 10  2  0
  9 11  1  0
 11 12  1  0
 12 13  1  0
 13 14  2  0
 13 15  1  0
 15 16  2  0
 16 17  1  0
 17 18  2  0
 18 19  1  0
 19 20  2  0
 20 21  1  0
 21 22  2  0
 22 23  1  0
 23 24  2  0
  7 25  2  0
 25  3  1  0
 24 15  1  0
 23 18  1  0
  1 26  1  0
  1 27  1  0
  1 28  1  0
  4 29  1  0
  5 30  1  0
  6 31  1  0
  8 32  1  0
 11 33  1  0
 11 34  1  0
 12 35  1  0
 16 36  1  0
 17 37  1  0
 19 38  1  0
 20 39  1  0
 21 40  1  0
 22 41  1  0
 25 42  1  0
M  END
>  <smiles>  (27) 
COc1cccc(NC(=O)CNC(=O)c2ccc3ccccc3n2)c1

>  <score_type>  (27) 
oracle

>  <origin>  (27) 
autodockgpu

>  <m_score__min__energy>  (27) 
-8.5299999999999994

>  <m_primary>  (27) 
energy

>  <rmsd>  (27) 
11.077785170074526

>  <m_score__min__rmsd>  (27) 
11.077785170074526

>  <meeko>  (27) 
{"free_energy": -7.78, "intermolecular_energy": -9.27, "internal_energy": -1.94, "cluster_size": 43, "cluster_id": 2, "rank_in_cluster": 9}

>  <energy>  (27) 
-7.76

>  <cluster_rmsd>  (27) 
1.43

>  <cluster>  (27) 
2

$$$$

     RDKit          3D

 42 44  0  0  0  0  0  0  0  0999 V2000
  136.5290   69.2610  224.4700 C   0  0  0  0  0  0  0  0  0  0  0  0
  137.8450   68.8600  224.7830 O   0  0  0  0  0  0  0  0  0  0  0  0
  138.9060   69.7490  224.9440 C   0  0  0  0  0  0  0  0  0  0  0  0
  139.7910   69.6620  226.0080 C   0  0  0  0  0  0  0  0  0  0  0  0
  140.8100   70.5940  226.0750 C   0  0  0  0  0  0  0  0  0  0  0  0
  140.9620   71.5920  225.1200 C   0  0  0  0  0  0  0  0  0  0  0  0
  140.0630   71.6510  224.0740 C   0  0  0  0  0  0  0  0  0  0  0  0
  140.1570   72.6590  223.0460 N   0  0  0  0  0  0  0  0  0  0  0  0
  141.0710   72.5540  221.9710 C   0  0  0  0  0  0  0  0  0  0  0  0
  141.8140   71.5140  221.9710 O   0  0  0  0  0  0  0  0  0  0  0  0
  141.2310   73.5260  220.8830 C   0  0  0  0  0  0  0  0  0  0  0  0
  141.2560   74.8630  221.3900 N   0  0  0  0  0  0  0  0  0  0  0  0
  140.0880   75.5590  221.8300 C   0  0  0  0  0  0  0  0  0  0  0  0
  138.9300   75.0210  221.7870 O   0  0  0  0  0  0  0  0  0  0  0  0
  140.2180   76.9380  222.3480 C   0  0  0  0  0  0  0  0  0  0  0  0
  139.0860   77.6320  222.7150 C   0  0  0  0  0  0  0  0  0  0  0  0
  139.2040   78.9340  223.2050 C   0  0  0  0  0  0  0  0  0  0  0  0
  140.4520   79.5180  223.3190 C   0  0  0  0  0  0  0  0  0  0  0  0
  140.5490   80.8030  223.8040 C   0  0  0  0  0  0  0  0  0  0  0  0
  141.8310   81.3450  223.9000 C   0  0  0  0  0  0  0  0  0  0  0  0
  142.9460   80.6440  223.5320 C   0  0  0  0  0  0  0  0  0  0  0  0
  142.7950   79.3520  223.0490 C   0  0  0  0  0  0  0  0  0  0  0  0
  141.5480   78.7670  222.9330 C   0  0  0  0  0  0  0  0  0  0  0  0
  141.4360   77.5180  222.4640 N   0  0  0  0  0  0  0  0  0  0  0  0
  139.0270   70.7320  223.9740 C   0  0  0  0  0  0  0  0  0  0  0  0
  135.9669   69.4323  225.3999 H   0  0  0  0  0  0  0  0  0  0  0  0
  136.5588   70.1908  223.8830 H   0  0  0  0  0  0  0  0  0  0  0  0
  136.0353   68.4725  223.8830 H   0  0  0  0  0  0  0  0  0  0  0  0
  139.6859   68.8782  226.7726 H   0  0  0  0  0  0  0  0  0  0  0  0
  141.5232   70.5439  226.9110 H   0  0  0  0  0  0  0  0  0  0  0  0
  141.7825   72.3207  225.1960 H   0  0  0  0  0  0  0  0  0  0  0  0
  139.5350   73.4610  223.1420 H   0  0  0  0  0  0  0  0  0  0  0  0
  142.1749   73.3235  220.3556 H   0  0  0  0  0  0  0  0  0  0  0  0
  140.3772   73.4274  220.1964 H   0  0  0  0  0  0  0  0  0  0  0  0
  142.1660   75.4100  221.4640 H   0  0  0  0  0  0  0  0  0  0  0  0
  138.0952   77.1632  222.6225 H   0  0  0  0  0  0  0  0  0  0  0  0
  138.3048   79.4947  223.5001 H   0  0  0  0  0  0  0  0  0  0  0  0
  139.6579   81.3752  224.1017 H   0  0  0  0  0  0  0  0  0  0  0  0
  141.9486   82.3691  224.2840 H   0  0  0  0  0  0  0  0  0  0  0  0
  143.9450   81.0964  223.6174 H   0  0  0  0  0  0  0  0  0  0  0  0
  143.6870   78.7809  222.7520 H   0  0  0  0  0  0  0  0  0  0  0  0
  138.3135   70.7831  223.1383 H   0  0  0  0  0  0  0  0  0  0  0  0
  1  2  1  0
  2  3  1  0
  3  4  2  0
  4  5  1  0
  5  6  2  0
  6  7  1  0
  7  8  1  0
  8  9  1  0
  9 10  2  0
  9 11  1  0
 11 12  1  0
 12 13  1  0
 13 14  2  0
 13 15  1  0
 15 16  2  0
 16 17  1  0
 17 18  2  0
 18 19  1  0
 19 20  2  0
 20 21  1  0
 21 22  2  0
 22 23  1  0
 23 24  2  0
  7 25  2  0
 25  3  1  0
 24 15  1  0
 23 18  1  0
  1 26  1  0
  1 27  1  0
  1 28  1  0
  4 29  1  0
  5 30  1  0
  6 31  1  0
  8 32  1  0
 11 33  1  0
 11 34  1  0
 12 35  1  0
 16 36  1  0
 17 37  1  0
 19 38  1  0
 20 39  1  0
 21 40  1  0
 22 41  1  0
 25 42  1  0
M  END
>  <smiles>  (28) 
COc1cccc(NC(=O)CNC(=O)c2ccc3ccccc3n2)c1

>  <score_type>  (28) 
oracle

>  <origin>  (28) 
autodockgpu

>  <m_score__min__energy>  (28) 
-8.5299999999999994

>  <m_primary>  (28) 
energy

>  <rmsd>  (28) 
10.860902236427924

>  <m_score__min__rmsd>  (28) 
10.860902236427924

>  <meeko>  (28) 
{"free_energy": -7.5, "intermolecular_energy": -8.99, "internal_energy": -1.93, "cluster_size": 43, "cluster_id": 2, "rank_in_cluster": 42}

>  <energy>  (28) 
-7.76

>  <cluster_rmsd>  (28) 
1.42

>  <cluster>  (28) 
2

$$$$

     RDKit          3D

 42 44  0  0  0  0  0  0  0  0999 V2000
  142.2550   80.8460  218.3670 C   0  0  0  0  0  0  0  0  0  0  0  0
  141.8110   81.1600  219.6700 O   0  0  0  0  0  0  0  0  0  0  0  0
  141.7110   80.2240  220.6970 C   0  0  0  0  0  0  0  0  0  0  0  0
  141.8470   80.5730  222.0320 C   0  0  0  0  0  0  0  0  0  0  0  0
  141.7310   79.5680  222.9740 C   0  0  0  0  0  0  0  0  0  0  0  0
  141.4860   78.2470  222.6190 C   0  0  0  0  0  0  0  0  0  0  0  0
  141.3570   77.9340  221.2810 C   0  0  0  0  0  0  0  0  0  0  0  0
  141.1020   76.5840  220.8370 N   0  0  0  0  0  0  0  0  0  0  0  0
  140.3390   75.6720  221.6030 C   0  0  0  0  0  0  0  0  0  0  0  0
  139.8950   76.1140  222.7160 O   0  0  0  0  0  0  0  0  0  0  0  0
  140.0280   74.2880  221.2270 C   0  0  0  0  0  0  0  0  0  0  0  0
  139.9220   73.4540  222.3840 N   0  0  0  0  0  0  0  0  0  0  0  0
  140.2400   72.0610  222.3800 C   0  0  0  0  0  0  0  0  0  0  0  0
  140.6370   71.4660  221.3210 O   0  0  0  0  0  0  0  0  0  0  0  0
  140.1080   71.2840  223.6310 C   0  0  0  0  0  0  0  0  0  0  0  0
  139.5440   70.0270  223.5900 C   0  0  0  0  0  0  0  0  0  0  0  0
  139.4170   69.2900  224.7700 C   0  0  0  0  0  0  0  0  0  0  0  0
  139.8560   69.8230  225.9670 C   0  0  0  0  0  0  0  0  0  0  0  0
  139.7220   69.0820  227.1200 C   0  0  0  0  0  0  0  0  0  0  0  0
  140.1820   69.6650  228.3010 C   0  0  0  0  0  0  0  0  0  0  0  0
  140.7400   70.9130  228.3260 C   0  0  0  0  0  0  0  0  0  0  0  0
  140.8520   71.6200  227.1370 C   0  0  0  0  0  0  0  0  0  0  0  0
  140.4130   71.0890  225.9390 C   0  0  0  0  0  0  0  0  0  0  0  0
  140.5350   71.7970  224.8090 N   0  0  0  0  0  0  0  0  0  0  0  0
  141.4680   78.9170  220.3060 C   0  0  0  0  0  0  0  0  0  0  0  0
  143.1517   80.2118  218.4281 H   0  0  0  0  0  0  0  0  0  0  0  0
  141.4610   80.3075  217.8289 H   0  0  0  0  0  0  0  0  0  0  0  0
  142.4982   81.7741  217.8289 H   0  0  0  0  0  0  0  0  0  0  0  0
  142.0405   81.6137  222.3312 H   0  0  0  0  0  0  0  0  0  0  0  0
  141.8360   79.8222  224.0391 H   0  0  0  0  0  0  0  0  0  0  0  0
  141.3967   77.4665  223.3889 H   0  0  0  0  0  0  0  0  0  0  0  0
  141.5140   76.3190  219.9420 H   0  0  0  0  0  0  0  0  0  0  0  0
  139.0730   74.2694  220.6815 H   0  0  0  0  0  0  0  0  0  0  0  0
  140.8416   73.9059  220.5929 H   0  0  0  0  0  0  0  0  0  0  0  0
  139.5950   73.8430  223.3190 H   0  0  0  0  0  0  0  0  0  0  0  0
  139.1963   69.6070  222.6347 H   0  0  0  0  0  0  0  0  0  0  0  0
  138.9679   68.2861  224.7463 H   0  0  0  0  0  0  0  0  0  0  0  0
  139.2734   68.0777  227.1102 H   0  0  0  0  0  0  0  0  0  0  0  0
  140.0930   69.1027  229.2422 H   0  0  0  0  0  0  0  0  0  0  0  0
  141.0939   71.3490  229.2719 H   0  0  0  0  0  0  0  0  0  0  0  0
  141.2998   72.6246  227.1484 H   0  0  0  0  0  0  0  0  0  0  0  0
  141.3647   78.6621  219.2409 H   0  0  0  0  0  0  0  0  0  0  0  0
  1  2  1  0
  2  3  1  0
  3  4  2  0
  4  5  1  0
  5  6  2  0
  6  7  1  0
  7  8  1  0
  8  9  1  0
  9 10  2  0
  9 11  1  0
 11 12  1  0
 12 13  1  0
 13 14  2  0
 13 15  1  0
 15 16  2  0
 16 17  1  0
 17 18  2  0
 18 19  1  0
 19 20  2  0
 20 21  1  0
 21 22  2  0
 22 23  1  0
 23 24  2  0
  7 25  2  0
 25  3  1  0
 24 15  1  0
 23 18  1  0
  1 26  1  0
  1 27  1  0
  1 28  1  0
  4 29  1  0
  5 30  1  0
  6 31  1  0
  8 32  1  0
 11 33  1  0
 11 34  1  0
 12 35  1  0
 16 36  1  0
 17 37  1  0
 19 38  1  0
 20 39  1  0
 21 40  1  0
 22 41  1  0
 25 42  1  0
M  END
>  <smiles>  (29) 
COc1cccc(NC(=O)CNC(=O)c2ccc3ccccc3n2)c1

>  <score_type>  (29) 
oracle

>  <origin>  (29) 
autodockgpu

>  <m_score__min__energy>  (29) 
-8.5299999999999994

>  <m_primary>  (29) 
energy

>  <rmsd>  (29) 
4.169183574030878

>  <m_score__min__rmsd>  (29) 
4.169183574030878

>  <meeko>  (29) 
{"free_energy": -7.87, "intermolecular_energy": -9.37, "internal_energy": -1.16, "cluster_size": 7, "cluster_id": 1, "rank_in_cluster": 7}

>  <energy>  (29) 
-7.76

>  <cluster_rmsd>  (29) 
1.42

>  <cluster>  (29) 
2

$$$$

     RDKit          3D

 42 44  0  0  0  0  0  0  0  0999 V2000
  141.4690   72.2480  227.5720 C   0  0  0  0  0  0  0  0  0  0  0  0
  141.0360   70.9790  227.1310 O   0  0  0  0  0  0  0  0  0  0  0  0
  140.3040   70.7760  225.9630 C   0  0  0  0  0  0  0  0  0  0  0  0
  139.4750   69.6780  225.7900 C   0  0  0  0  0  0  0  0  0  0  0  0
  138.7930   69.5700  224.5920 C   0  0  0  0  0  0  0  0  0  0  0  0
  138.9190   70.5170  223.5820 C   0  0  0  0  0  0  0  0  0  0  0  0
  139.7540   71.5960  223.7870 C   0  0  0  0  0  0  0  0  0  0  0  0
  139.9360   72.6180  222.7830 N   0  0  0  0  0  0  0  0  0  0  0  0
  141.0060   72.5820  221.8580 C   0  0  0  0  0  0  0  0  0  0  0  0
  141.8060   71.5930  221.9710 O   0  0  0  0  0  0  0  0  0  0  0  0
  141.2620   73.5720  220.8060 C   0  0  0  0  0  0  0  0  0  0  0  0
  141.2790   74.8980  221.3430 N   0  0  0  0  0  0  0  0  0  0  0  0
  140.0950   75.6160  221.6990 C   0  0  0  0  0  0  0  0  0  0  0  0
  138.9320   75.1100  221.5480 O   0  0  0  0  0  0  0  0  0  0  0  0
  140.2160   76.9800  222.2560 C   0  0  0  0  0  0  0  0  0  0  0  0
  139.0810   77.6470  222.6620 C   0  0  0  0  0  0  0  0  0  0  0  0
  139.1900   78.9360  223.1900 C   0  0  0  0  0  0  0  0  0  0  0  0
  140.4310   79.5330  223.3010 C   0  0  0  0  0  0  0  0  0  0  0  0
  140.5200   80.8040  223.8230 C   0  0  0  0  0  0  0  0  0  0  0  0
  141.7950   81.3610  223.9130 C   0  0  0  0  0  0  0  0  0  0  0  0
  142.9140   80.6870  223.5070 C   0  0  0  0  0  0  0  0  0  0  0  0
  142.7720   79.4070  222.9870 C   0  0  0  0  0  0  0  0  0  0  0  0
  141.5310   78.8090  222.8750 C   0  0  0  0  0  0  0  0  0  0  0  0
  141.4280   77.5740  222.3690 N   0  0  0  0  0  0  0  0  0  0  0  0
  140.4550   71.7380  224.9770 C   0  0  0  0  0  0  0  0  0  0  0  0
  141.4768   72.2710  228.6717 H   0  0  0  0  0  0  0  0  0  0  0  0
  142.4838   72.4409  227.1940 H   0  0  0  0  0  0  0  0  0  0  0  0
  140.7838   73.0210  227.1940 H   0  0  0  0  0  0  0  0  0  0  0  0
  139.3638   68.9191  226.5785 H   0  0  0  0  0  0  0  0  0  0  0  0
  138.1295   68.7072  224.4330 H   0  0  0  0  0  0  0  0  0  0  0  0
  138.3642   70.4082  222.6384 H   0  0  0  0  0  0  0  0  0  0  0  0
  139.2540   73.3770  222.7840 H   0  0  0  0  0  0  0  0  0  0  0  0
  142.2362   73.3595  220.3414 H   0  0  0  0  0  0  0  0  0  0  0  0
  140.4566   73.5065  220.0596 H   0  0  0  0  0  0  0  0  0  0  0  0
  142.1920   75.4190  221.5040 H   0  0  0  0  0  0  0  0  0  0  0  0
  138.0951   77.1677  222.5711 H   0  0  0  0  0  0  0  0  0  0  0  0
  138.2886   79.4750  223.5170 H   0  0  0  0  0  0  0  0  0  0  0  0
  139.6268   81.3543  224.1536 H   0  0  0  0  0  0  0  0  0  0  0  0
  141.9047   82.3755  224.3239 H   0  0  0  0  0  0  0  0  0  0  0  0
  143.9081   81.1503  223.5909 H   0  0  0  0  0  0  0  0  0  0  0  0
  143.6661   78.8576  222.6573 H   0  0  0  0  0  0  0  0  0  0  0  0
  141.1196   72.6003  225.1346 H   0  0  0  0  0  0  0  0  0  0  0  0
  1  2  1  0
  2  3  1  0
  3  4  2  0
  4  5  1  0
  5  6  2  0
  6  7  1  0
  7  8  1  0
  8  9  1  0
  9 10  2  0
  9 11  1  0
 11 12  1  0
 12 13  1  0
 13 14  2  0
 13 15  1  0
 15 16  2  0
 16 17  1  0
 17 18  2  0
 18 19  1  0
 19 20  2  0
 20 21  1  0
 21 22  2  0
 22 23  1  0
 23 24  2  0
  7 25  2  0
 25  3  1  0
 24 15  1  0
 23 18  1  0
  1 26  1  0
  1 27  1  0
  1 28  1  0
  4 29  1  0
  5 30  1  0
  6 31  1  0
  8 32  1  0
 11 33  1  0
 11 34  1  0
 12 35  1  0
 16 36  1  0
 17 37  1  0
 19 38  1  0
 20 39  1  0
 21 40  1  0
 22 41  1  0
 25 42  1  0
M  END
>  <smiles>  (30) 
COc1cccc(NC(=O)CNC(=O)c2ccc3ccccc3n2)c1

>  <score_type>  (30) 
oracle

>  <origin>  (30) 
autodockgpu

>  <m_score__min__energy>  (30) 
-8.5299999999999994

>  <m_primary>  (30) 
energy

>  <rmsd>  (30) 
10.639038546121165

>  <m_score__min__rmsd>  (30) 
10.639038546121165

>  <meeko>  (30) 
{"free_energy": -7.69, "intermolecular_energy": -9.18, "internal_energy": -1.94, "cluster_size": 43, "cluster_id": 2, "rank_in_cluster": 34}

>  <energy>  (30) 
-7.76

>  <cluster_rmsd>  (30) 
0.23

>  <cluster>  (30) 
2

$$$$

     RDKit          3D

 42 44  0  0  0  0  0  0  0  0999 V2000
  138.7540   67.7450  223.1290 C   0  0  0  0  0  0  0  0  0  0  0  0
  138.8230   68.2470  224.4460 O   0  0  0  0  0  0  0  0  0  0  0  0
  139.4570   69.4400  224.7850 C   0  0  0  0  0  0  0  0  0  0  0  0
  140.0410   69.6420  226.0270 C   0  0  0  0  0  0  0  0  0  0  0  0
  140.6450   70.8620  226.2620 C   0  0  0  0  0  0  0  0  0  0  0  0
  140.6800   71.8670  225.3030 C   0  0  0  0  0  0  0  0  0  0  0  0
  140.0890   71.6340  224.0780 C   0  0  0  0  0  0  0  0  0  0  0  0
  140.0850   72.6300  223.0330 N   0  0  0  0  0  0  0  0  0  0  0  0
  140.9970   72.5910  221.9530 C   0  0  0  0  0  0  0  0  0  0  0  0
  141.8310   71.6220  221.9630 O   0  0  0  0  0  0  0  0  0  0  0  0
  141.0610   73.5550  220.8490 C   0  0  0  0  0  0  0  0  0  0  0  0
  141.1130   74.8970  221.3430 N   0  0  0  0  0  0  0  0  0  0  0  0
  139.9700   75.5940  221.8450 C   0  0  0  0  0  0  0  0  0  0  0  0
  138.8130   75.0530  221.8750 O   0  0  0  0  0  0  0  0  0  0  0  0
  140.1270   76.9770  222.3440 C   0  0  0  0  0  0  0  0  0  0  0  0
  139.0090   77.6980  222.6990 C   0  0  0  0  0  0  0  0  0  0  0  0
  139.1520   79.0050  223.1700 C   0  0  0  0  0  0  0  0  0  0  0  0
  140.4110   79.5660  223.2780 C   0  0  0  0  0  0  0  0  0  0  0  0
  140.5340   80.8560  223.7440 C   0  0  0  0  0  0  0  0  0  0  0  0
  141.8260   81.3730  223.8340 C   0  0  0  0  0  0  0  0  0  0  0  0
  142.9270   80.6450  223.4780 C   0  0  0  0  0  0  0  0  0  0  0  0
  142.7510   79.3490  223.0130 C   0  0  0  0  0  0  0  0  0  0  0  0
  141.4930   78.7870  222.9040 C   0  0  0  0  0  0  0  0  0  0  0  0
  141.3570   77.5340  222.4530 N   0  0  0  0  0  0  0  0  0  0  0  0
  139.4720   70.4200  223.8050 C   0  0  0  0  0  0  0  0  0  0  0  0
  138.6043   66.6557  223.1592 H   0  0  0  0  0  0  0  0  0  0  0  0
  137.9122   68.2163  222.6006 H   0  0  0  0  0  0  0  0  0  0  0  0
  139.6917   67.9717  222.6006 H   0  0  0  0  0  0  0  0  0  0  0  0
  140.0237   68.8578  226.7981 H   0  0  0  0  0  0  0  0  0  0  0  0
  141.1136   71.0438  227.2404 H   0  0  0  0  0  0  0  0  0  0  0  0
  141.1690   72.8290  225.5161 H   0  0  0  0  0  0  0  0  0  0  0  0
  139.3930   73.3740  223.1230 H   0  0  0  0  0  0  0  0  0  0  0  0
  141.9622   73.3569  220.2501 H   0  0  0  0  0  0  0  0  0  0  0  0
  140.1567   73.4430  220.2328 H   0  0  0  0  0  0  0  0  0  0  0  0
  142.0240   75.4460  221.3590 H   0  0  0  0  0  0  0  0  0  0  0  0
  138.0093   77.2473  222.6122 H   0  0  0  0  0  0  0  0  0  0  0  0
  138.2635   79.5877  223.4548 H   0  0  0  0  0  0  0  0  0  0  0  0
  139.6545   81.4507  224.0317 H   0  0  0  0  0  0  0  0  0  0  0  0
  141.9637   82.3999  224.2034 H   0  0  0  0  0  0  0  0  0  0  0  0
  143.9347   81.0786  223.5586 H   0  0  0  0  0  0  0  0  0  0  0  0
  143.6319   78.7564  222.7250 H   0  0  0  0  0  0  0  0  0  0  0  0
  139.0028   70.2392  222.8267 H   0  0  0  0  0  0  0  0  0  0  0  0
  1  2  1  0
  2  3  1  0
  3  4  2  0
  4  5  1  0
  5  6  2  0
  6  7  1  0
  7  8  1  0
  8  9  1  0
  9 10  2  0
  9 11  1  0
 11 12  1  0
 12 13  1  0
 13 14  2  0
 13 15  1  0
 15 16  2  0
 16 17  1  0
 17 18  2  0
 18 19  1  0
 19 20  2  0
 20 21  1  0
 21 22  2  0
 22 23  1  0
 23 24  2  0
  7 25  2  0
 25  3  1  0
 24 15  1  0
 23 18  1  0
  1 26  1  0
  1 27  1  0
  1 28  1  0
  4 29  1  0
  5 30  1  0
  6 31  1  0
  8 32  1  0
 11 33  1  0
 11 34  1  0
 12 35  1  0
 16 36  1  0
 17 37  1  0
 19 38  1  0
 20 39  1  0
 21 40  1  0
 22 41  1  0
 25 42  1  0
M  END
>  <smiles>  (31) 
COc1cccc(NC(=O)CNC(=O)c2ccc3ccccc3n2)c1

>  <score_type>  (31) 
oracle

>  <origin>  (31) 
autodockgpu

>  <m_score__min__energy>  (31) 
-8.5299999999999994

>  <m_primary>  (31) 
energy

>  <rmsd>  (31) 
11.08055339019315

>  <m_score__min__rmsd>  (31) 
11.08055339019315

>  <meeko>  (31) 
{"free_energy": -7.77, "intermolecular_energy": -9.26, "internal_energy": -1.93, "cluster_size": 43, "cluster_id": 2, "rank_in_cluster": 13}

>  <energy>  (31) 
-7.76

>  <cluster_rmsd>  (31) 
1.42

>  <cluster>  (31) 
2

$$$$

     RDKit          3D

 42 44  0  0  0  0  0  0  0  0999 V2000
  140.8050   71.8540  228.3570 C   0  0  0  0  0  0  0  0  0  0  0  0
  141.3600   71.1810  227.2480 O   0  0  0  0  0  0  0  0  0  0  0  0
  140.6490   70.8970  226.0830 C   0  0  0  0  0  0  0  0  0  0  0  0
  139.9310   69.7220  225.9220 C   0  0  0  0  0  0  0  0  0  0  0  0
  139.2600   69.5370  224.7280 C   0  0  0  0  0  0  0  0  0  0  0  0
  139.2900   70.4820  223.7090 C   0  0  0  0  0  0  0  0  0  0  0  0
  140.0160   71.6400  223.9020 C   0  0  0  0  0  0  0  0  0  0  0  0
  140.0930   72.6660  222.8900 N   0  0  0  0  0  0  0  0  0  0  0  0
  141.0440   72.6200  221.8430 C   0  0  0  0  0  0  0  0  0  0  0  0
  141.8360   71.6170  221.8550 O   0  0  0  0  0  0  0  0  0  0  0  0
  141.1900   73.6130  220.7740 C   0  0  0  0  0  0  0  0  0  0  0  0
  141.2240   74.9400  221.3070 N   0  0  0  0  0  0  0  0  0  0  0  0
  140.0610   75.6320  221.7660 C   0  0  0  0  0  0  0  0  0  0  0  0
  138.9010   75.0990  221.7200 O   0  0  0  0  0  0  0  0  0  0  0  0
  140.2000   76.9990  222.3120 C   0  0  0  0  0  0  0  0  0  0  0  0
  139.0750   77.6810  222.7200 C   0  0  0  0  0  0  0  0  0  0  0  0
  139.2010   78.9740  223.2350 C   0  0  0  0  0  0  0  0  0  0  0  0
  140.4490   79.5590  223.3330 C   0  0  0  0  0  0  0  0  0  0  0  0
  140.5550   80.8330  223.8430 C   0  0  0  0  0  0  0  0  0  0  0  0
  141.8370   81.3770  223.9200 C   0  0  0  0  0  0  0  0  0  0  0  0
  142.9450   80.6880  223.5110 C   0  0  0  0  0  0  0  0  0  0  0  0
  142.7860   79.4060  223.0030 C   0  0  0  0  0  0  0  0  0  0  0  0
  141.5380   78.8200  222.9050 C   0  0  0  0  0  0  0  0  0  0  0  0
  141.4190   77.5810  222.4110 N   0  0  0  0  0  0  0  0  0  0  0  0
  140.7020   71.8610  225.0890 C   0  0  0  0  0  0  0  0  0  0  0  0
  141.1794   71.4000  229.2864 H   0  0  0  0  0  0  0  0  0  0  0  0
  141.0944   72.9148  228.3246 H   0  0  0  0  0  0  0  0  0  0  0  0
  139.7085   71.7719  228.3246 H   0  0  0  0  0  0  0  0  0  0  0  0
  139.8966   68.9629  226.7174 H   0  0  0  0  0  0  0  0  0  0  0  0
  138.6835   68.6120  224.5792 H   0  0  0  0  0  0  0  0  0  0  0  0
  138.7464   70.3105  222.7682 H   0  0  0  0  0  0  0  0  0  0  0  0
  139.4300   73.4360  222.9760 H   0  0  0  0  0  0  0  0  0  0  0  0
  142.1261   73.4201  220.2295 H   0  0  0  0  0  0  0  0  0  0  0  0
  140.3262   73.5293  220.0981 H   0  0  0  0  0  0  0  0  0  0  0  0
  142.1360   75.4820  221.3860 H   0  0  0  0  0  0  0  0  0  0  0  0
  138.0837   77.2109  222.6410 H   0  0  0  0  0  0  0  0  0  0  0  0
  138.3073   79.5257  223.5621 H   0  0  0  0  0  0  0  0  0  0  0  0
  139.6699   81.3959  224.1744 H   0  0  0  0  0  0  0  0  0  0  0  0
  141.9607   82.3931  224.3228 H   0  0  0  0  0  0  0  0  0  0  0  0
  143.9445   81.1415  223.5832 H   0  0  0  0  0  0  0  0  0  0  0  0
  143.6719   78.8446  222.6714 H   0  0  0  0  0  0  0  0  0  0  0  0
  141.2781   72.7862  225.2378 H   0  0  0  0  0  0  0  0  0  0  0  0
  1  2  1  0
  2  3  1  0
  3  4  2  0
  4  5  1  0
  5  6  2  0
  6  7  1  0
  7  8  1  0
  8  9  1  0
  9 10  2  0
  9 11  1  0
 11 12  1  0
 12 13  1  0
 13 14  2  0
 13 15  1  0
 15 16  2  0
 16 17  1  0
 17 18  2  0
 18 19  1  0
 19 20  2  0
 20 21  1  0
 21 22  2  0
 22 23  1  0
 23 24  2  0
  7 25  2  0
 25  3  1  0
 24 15  1  0
 23 18  1  0
  1 26  1  0
  1 27  1  0
  1 28  1  0
  4 29  1  0
  5 30  1  0
  6 31  1  0
  8 32  1  0
 11 33  1  0
 11 34  1  0
 12 35  1  0
 16 36  1  0
 17 37  1  0
 19 38  1  0
 20 39  1  0
 21 40  1  0
 22 41  1  0
 25 42  1  0
M  END
>  <smiles>  (32) 
COc1cccc(NC(=O)CNC(=O)c2ccc3ccccc3n2)c1

>  <score_type>  (32) 
oracle

>  <origin>  (32) 
autodockgpu

>  <m_score__min__energy>  (32) 
-8.5299999999999994

>  <m_primary>  (32) 
energy

>  <rmsd>  (32) 
10.765836730554373

>  <m_score__min__rmsd>  (32) 
10.765836730554373

>  <meeko>  (32) 
{"free_energy": -7.81, "intermolecular_energy": -9.3, "internal_energy": -1.92, "cluster_size": 43, "cluster_id": 2, "rank_in_cluster": 4}

>  <energy>  (32) 
-7.75

>  <cluster_rmsd>  (32) 
1.42

>  <cluster>  (32) 
2

$$$$

     RDKit          3D

 42 44  0  0  0  0  0  0  0  0999 V2000
  138.7770   67.7730  223.0770 C   0  0  0  0  0  0  0  0  0  0  0  0
  138.8340   68.2540  224.4030 O   0  0  0  0  0  0  0  0  0  0  0  0
  139.4750   69.4360  224.7680 C   0  0  0  0  0  0  0  0  0  0  0  0
  140.0290   69.6200  226.0260 C   0  0  0  0  0  0  0  0  0  0  0  0
  140.6430   70.8300  226.2870 C   0  0  0  0  0  0  0  0  0  0  0  0
  140.7140   71.8430  225.3380 C   0  0  0  0  0  0  0  0  0  0  0  0
  140.1520   71.6270  224.0960 C   0  0  0  0  0  0  0  0  0  0  0  0
  140.1870   72.6320  223.0600 N   0  0  0  0  0  0  0  0  0  0  0  0
  141.0660   72.5430  221.9560 C   0  0  0  0  0  0  0  0  0  0  0  0
  141.8330   71.5210  221.9360 O   0  0  0  0  0  0  0  0  0  0  0  0
  141.1650   73.5120  220.8590 C   0  0  0  0  0  0  0  0  0  0  0  0
  141.1930   74.8520  221.3590 N   0  0  0  0  0  0  0  0  0  0  0  0
  140.0320   75.5350  221.8390 C   0  0  0  0  0  0  0  0  0  0  0  0
  138.8810   74.9820  221.8420 O   0  0  0  0  0  0  0  0  0  0  0  0
  140.1650   76.9170  222.3470 C   0  0  0  0  0  0  0  0  0  0  0  0
  139.0340   77.6130  222.7170 C   0  0  0  0  0  0  0  0  0  0  0  0
  139.1540   78.9190  223.1970 C   0  0  0  0  0  0  0  0  0  0  0  0
  140.4020   79.5050  223.2990 C   0  0  0  0  0  0  0  0  0  0  0  0
  140.5010   80.7930  223.7740 C   0  0  0  0  0  0  0  0  0  0  0  0
  141.7820   81.3380  223.8560 C   0  0  0  0  0  0  0  0  0  0  0  0
  142.8960   80.6360  223.4860 C   0  0  0  0  0  0  0  0  0  0  0  0
  142.7430   79.3400  223.0130 C   0  0  0  0  0  0  0  0  0  0  0  0
  141.4960   78.7520  222.9100 C   0  0  0  0  0  0  0  0  0  0  0  0
  141.3830   77.5000  222.4500 N   0  0  0  0  0  0  0  0  0  0  0  0
  139.5270   70.4230  223.7970 C   0  0  0  0  0  0  0  0  0  0  0  0
  138.6475   66.6807  223.0884 H   0  0  0  0  0  0  0  0  0  0  0  0
  137.9276   68.2375  222.5547 H   0  0  0  0  0  0  0  0  0  0  0  0
  139.7114   68.0260  222.5547 H   0  0  0  0  0  0  0  0  0  0  0  0
  139.9813   68.8298  226.7898 H   0  0  0  0  0  0  0  0  0  0  0  0
  141.0901   70.9970  227.2781 H   0  0  0  0  0  0  0  0  0  0  0  0
  141.2081   72.7975  225.5720 H   0  0  0  0  0  0  0  0  0  0  0  0
  139.5480   73.4190  223.1740 H   0  0  0  0  0  0  0  0  0  0  0  0
  142.0879   73.3203  220.2921 H   0  0  0  0  0  0  0  0  0  0  0  0
  140.2836   73.3984  220.2107 H   0  0  0  0  0  0  0  0  0  0  0  0
  142.0970   75.4100  221.3970 H   0  0  0  0  0  0  0  0  0  0  0  0
  138.0431   77.1426  222.6347 H   0  0  0  0  0  0  0  0  0  0  0  0
  138.2562   79.4810  223.4937 H   0  0  0  0  0  0  0  0  0  0  0  0
  139.6113   81.3657  224.0749 H   0  0  0  0  0  0  0  0  0  0  0  0
  141.9003   82.3656  224.2303 H   0  0  0  0  0  0  0  0  0  0  0  0
  143.8950   81.0902  223.5619 H   0  0  0  0  0  0  0  0  0  0  0  0
  143.6337   78.7681  222.7135 H   0  0  0  0  0  0  0  0  0  0  0  0
  139.0807   70.2559  222.8056 H   0  0  0  0  0  0  0  0  0  0  0  0
  1  2  1  0
  2  3  1  0
  3  4  2  0
  4  5  1  0
  5  6  2  0
  6  7  1  0
  7  8  1  0
  8  9  1  0
  9 10  2  0
  9 11  1  0
 11 12  1  0
 12 13  1  0
 13 14  2  0
 13 15  1  0
 15 16  2  0
 16 17  1  0
 17 18  2  0
 18 19  1  0
 19 20  2  0
 20 21  1  0
 21 22  2  0
 22 23  1  0
 23 24  2  0
  7 25  2  0
 25  3  1  0
 24 15  1  0
 23 18  1  0
  1 26  1  0
  1 27  1  0
  1 28  1  0
  4 29  1  0
  5 30  1  0
  6 31  1  0
  8 32  1  0
 11 33  1  0
 11 34  1  0
 12 35  1  0
 16 36  1  0
 17 37  1  0
 19 38  1  0
 20 39  1  0
 21 40  1  0
 22 41  1  0
 25 42  1  0
M  END
>  <smiles>  (33) 
COc1cccc(NC(=O)CNC(=O)c2ccc3ccccc3n2)c1

>  <score_type>  (33) 
oracle

>  <origin>  (33) 
autodockgpu

>  <m_score__min__energy>  (33) 
-8.5299999999999994

>  <m_primary>  (33) 
energy

>  <rmsd>  (33) 
11.062206493245762

>  <m_score__min__rmsd>  (33) 
11.062206493245762

>  <meeko>  (33) 
{"free_energy": -7.76, "intermolecular_energy": -9.25, "internal_energy": -1.94, "cluster_size": 43, "cluster_id": 2, "rank_in_cluster": 24}

>  <energy>  (33) 
-7.75

>  <cluster_rmsd>  (33) 
1.42

>  <cluster>  (33) 
2

$$$$

     RDKit          3D

 42 44  0  0  0  0  0  0  0  0999 V2000
  141.4240   72.2060  227.6170 C   0  0  0  0  0  0  0  0  0  0  0  0
  141.1640   70.9530  227.0210 O   0  0  0  0  0  0  0  0  0  0  0  0
  140.3650   70.7860  225.8920 C   0  0  0  0  0  0  0  0  0  0  0  0
  139.4830   69.7250  225.7590 C   0  0  0  0  0  0  0  0  0  0  0  0
  138.7350   69.6510  224.5990 C   0  0  0  0  0  0  0  0  0  0  0  0
  138.8480   70.5970  223.5860 C   0  0  0  0  0  0  0  0  0  0  0  0
  139.7360   71.6400  223.7500 C   0  0  0  0  0  0  0  0  0  0  0  0
  139.9070   72.6590  222.7420 N   0  0  0  0  0  0  0  0  0  0  0  0
  140.9930   72.6450  221.8350 C   0  0  0  0  0  0  0  0  0  0  0  0
  141.8180   71.6780  221.9690 O   0  0  0  0  0  0  0  0  0  0  0  0
  141.2410   73.6330  220.7800 C   0  0  0  0  0  0  0  0  0  0  0  0
  141.2710   74.9590  221.3160 N   0  0  0  0  0  0  0  0  0  0  0  0
  140.1000   75.6600  221.7420 C   0  0  0  0  0  0  0  0  0  0  0  0
  138.9370   75.1370  221.6600 O   0  0  0  0  0  0  0  0  0  0  0  0
  140.2340   77.0250  222.2920 C   0  0  0  0  0  0  0  0  0  0  0  0
  139.1050   77.7070  222.6920 C   0  0  0  0  0  0  0  0  0  0  0  0
  139.2270   78.9970  223.2130 C   0  0  0  0  0  0  0  0  0  0  0  0
  140.4750   79.5820  223.3240 C   0  0  0  0  0  0  0  0  0  0  0  0
  140.5760   80.8550  223.8390 C   0  0  0  0  0  0  0  0  0  0  0  0
  141.8570   81.3980  223.9300 C   0  0  0  0  0  0  0  0  0  0  0  0
  142.9680   80.7100  223.5290 C   0  0  0  0  0  0  0  0  0  0  0  0
  142.8140   79.4290  223.0160 C   0  0  0  0  0  0  0  0  0  0  0  0
  141.5670   78.8440  222.9040 C   0  0  0  0  0  0  0  0  0  0  0  0
  141.4520   77.6070  222.4050 N   0  0  0  0  0  0  0  0  0  0  0  0
  140.5040   71.7470  224.9030 C   0  0  0  0  0  0  0  0  0  0  0  0
  141.4026   72.1027  228.7119 H   0  0  0  0  0  0  0  0  0  0  0  0
  142.4154   72.5633  227.3017 H   0  0  0  0  0  0  0  0  0  0  0  0
  140.6566   72.9283  227.3017 H   0  0  0  0  0  0  0  0  0  0  0  0
  139.3817   68.9674  226.5500 H   0  0  0  0  0  0  0  0  0  0  0  0
  138.0281   68.8176  224.4732 H   0  0  0  0  0  0  0  0  0  0  0  0
  138.2414   70.5153  222.6720 H   0  0  0  0  0  0  0  0  0  0  0  0
  139.2060   73.3990  222.7250 H   0  0  0  0  0  0  0  0  0  0  0  0
  142.2084   73.4156  220.3038 H   0  0  0  0  0  0  0  0  0  0  0  0
  140.4263   73.5711  220.0435 H   0  0  0  0  0  0  0  0  0  0  0  0
  142.1840   75.4930  221.4230 H   0  0  0  0  0  0  0  0  0  0  0  0
  138.1140   77.2382  222.6014 H   0  0  0  0  0  0  0  0  0  0  0  0
  138.3307   79.5475  223.5349 H   0  0  0  0  0  0  0  0  0  0  0  0
  139.6879   81.4171  224.1634 H   0  0  0  0  0  0  0  0  0  0  0  0
  141.9774   82.4126  224.3375 H   0  0  0  0  0  0  0  0  0  0  0  0
  143.9668   81.1634  223.6113 H   0  0  0  0  0  0  0  0  0  0  0  0
  143.7031   78.8681  222.6920 H   0  0  0  0  0  0  0  0  0  0  0  0
  141.2106   72.5806  225.0288 H   0  0  0  0  0  0  0  0  0  0  0  0
  1  2  1  0
  2  3  1  0
  3  4  2  0
  4  5  1  0
  5  6  2  0
  6  7  1  0
  7  8  1  0
  8  9  1  0
  9 10  2  0
  9 11  1  0
 11 12  1  0
 12 13  1  0
 13 14  2  0
 13 15  1  0
 15 16  2  0
 16 17  1  0
 17 18  2  0
 18 19  1  0
 19 20  2  0
 20 21  1  0
 21 22  2  0
 22 23  1  0
 23 24  2  0
  7 25  2  0
 25  3  1  0
 24 15  1  0
 23 18  1  0
  1 26  1  0
  1 27  1  0
  1 28  1  0
  4 29  1  0
  5 30  1  0
  6 31  1  0
  8 32  1  0
 11 33  1  0
 11 34  1  0
 12 35  1  0
 16 36  1  0
 17 37  1  0
 19 38  1  0
 20 39  1  0
 21 40  1  0
 22 41  1  0
 25 42  1  0
M  END
>  <smiles>  (34) 
COc1cccc(NC(=O)CNC(=O)c2ccc3ccccc3n2)c1

>  <score_type>  (34) 
oracle

>  <origin>  (34) 
autodockgpu

>  <m_score__min__energy>  (34) 
-8.5299999999999994

>  <m_primary>  (34) 
energy

>  <rmsd>  (34) 
10.647798966391786

>  <m_score__min__rmsd>  (34) 
10.647798966391786

>  <meeko>  (34) 
{"free_energy": -7.73, "intermolecular_energy": -9.22, "internal_energy": -1.94, "cluster_size": 43, "cluster_id": 2, "rank_in_cluster": 32}

>  <energy>  (34) 
-7.75

>  <cluster_rmsd>  (34) 
1.44

>  <cluster>  (34) 
2

$$$$

     RDKit          3D

 42 44  0  0  0  0  0  0  0  0999 V2000
  137.9790   80.8580  224.2930 C   0  0  0  0  0  0  0  0  0  0  0  0
  139.0460   79.9490  224.4630 O   0  0  0  0  0  0  0  0  0  0  0  0
  140.0030   79.6910  223.4840 C   0  0  0  0  0  0  0  0  0  0  0  0
  140.7880   80.6940  222.9340 C   0  0  0  0  0  0  0  0  0  0  0  0
  141.7090   80.3320  221.9680 C   0  0  0  0  0  0  0  0  0  0  0  0
  141.8610   79.0160  221.5480 C   0  0  0  0  0  0  0  0  0  0  0  0
  141.0620   78.0440  222.1150 C   0  0  0  0  0  0  0  0  0  0  0  0
  141.1630   76.6570  221.7280 N   0  0  0  0  0  0  0  0  0  0  0  0
  140.0230   75.8310  221.5870 C   0  0  0  0  0  0  0  0  0  0  0  0
  138.8990   76.3870  221.8310 O   0  0  0  0  0  0  0  0  0  0  0  0
  140.0320   74.4170  221.1940 C   0  0  0  0  0  0  0  0  0  0  0  0
  139.8640   73.5680  222.3330 N   0  0  0  0  0  0  0  0  0  0  0  0
  140.4160   72.2520  222.4190 C   0  0  0  0  0  0  0  0  0  0  0  0
  141.0970   71.7450  221.4640 O   0  0  0  0  0  0  0  0  0  0  0  0
  140.1960   71.4530  223.6440 C   0  0  0  0  0  0  0  0  0  0  0  0
  139.5120   70.2600  223.5590 C   0  0  0  0  0  0  0  0  0  0  0  0
  139.3020   69.5030  224.7140 C   0  0  0  0  0  0  0  0  0  0  0  0
  139.7790   69.9520  225.9300 C   0  0  0  0  0  0  0  0  0  0  0  0
  139.5620   69.1920  227.0580 C   0  0  0  0  0  0  0  0  0  0  0  0
  140.0640   69.6910  228.2600 C   0  0  0  0  0  0  0  0  0  0  0  0
  140.7410   70.8770  228.3290 C   0  0  0  0  0  0  0  0  0  0  0  0
  140.9340   71.6060  227.1640 C   0  0  0  0  0  0  0  0  0  0  0  0
  140.4570   71.1580  225.9460 C   0  0  0  0  0  0  0  0  0  0  0  0
  140.6590   71.8850  224.8400 N   0  0  0  0  0  0  0  0  0  0  0  0
  140.1260   78.3690  223.0880 C   0  0  0  0  0  0  0  0  0  0  0  0
  137.6069   81.1750  225.2784 H   0  0  0  0  0  0  0  0  0  0  0  0
  138.3319   81.7373  223.7341 H   0  0  0  0  0  0  0  0  0  0  0  0
  137.1670   80.3699  223.7341 H   0  0  0  0  0  0  0  0  0  0  0  0
  140.6815   81.7407  223.2551 H   0  0  0  0  0  0  0  0  0  0  0  0
  142.3417   81.1109  221.5175 H   0  0  0  0  0  0  0  0  0  0  0  0
  142.6030   78.7544  220.7793 H   0  0  0  0  0  0  0  0  0  0  0  0
  142.1050   76.3000  221.5710 H   0  0  0  0  0  0  0  0  0  0  0  0
  139.2105   74.2352  220.4854 H   0  0  0  0  0  0  0  0  0  0  0  0
  141.0013   74.1890  220.7265 H   0  0  0  0  0  0  0  0  0  0  0  0
  139.3100   73.8850  223.1830 H   0  0  0  0  0  0  0  0  0  0  0  0
  139.1340   69.9062  222.5885 H   0  0  0  0  0  0  0  0  0  0  0  0
  138.7568   68.5494  224.6552 H   0  0  0  0  0  0  0  0  0  0  0  0
  139.0185   68.2367  227.0131 H   0  0  0  0  0  0  0  0  0  0  0  0
  139.9102   69.1116  229.1823 H   0  0  0  0  0  0  0  0  0  0  0  0
  141.1258   71.2467  229.2909 H   0  0  0  0  0  0  0  0  0  0  0  0
  141.4782   72.5608  227.2106 H   0  0  0  0  0  0  0  0  0  0  0  0
  139.4927   77.5897  223.5369 H   0  0  0  0  0  0  0  0  0  0  0  0
  1  2  1  0
  2  3  1  0
  3  4  2  0
  4  5  1  0
  5  6  2  0
  6  7  1  0
  7  8  1  0
  8  9  1  0
  9 10  2  0
  9 11  1  0
 11 12  1  0
 12 13  1  0
 13 14  2  0
 13 15  1  0
 15 16  2  0
 16 17  1  0
 17 18  2  0
 18 19  1  0
 19 20  2  0
 20 21  1  0
 21 22  2  0
 22 23  1  0
 23 24  2  0
  7 25  2  0
 25  3  1  0
 24 15  1  0
 23 18  1  0
  1 26  1  0
  1 27  1  0
  1 28  1  0
  4 29  1  0
  5 30  1  0
  6 31  1  0
  8 32  1  0
 11 33  1  0
 11 34  1  0
 12 35  1  0
 16 36  1  0
 17 37  1  0
 19 38  1  0
 20 39  1  0
 21 40  1  0
 22 41  1  0
 25 42  1  0
M  END
>  <smiles>  (35) 
COc1cccc(NC(=O)CNC(=O)c2ccc3ccccc3n2)c1

>  <score_type>  (35) 
oracle

>  <origin>  (35) 
autodockgpu

>  <m_score__min__energy>  (35) 
-8.5299999999999994

>  <m_primary>  (35) 
energy

>  <rmsd>  (35) 
4.3154114586657615

>  <m_score__min__rmsd>  (35) 
4.3154114586657615

>  <meeko>  (35) 
{"free_energy": -8.4, "intermolecular_energy": -9.89, "internal_energy": -0.73, "cluster_size": 7, "cluster_id": 1, "rank_in_cluster": 5}

>  <energy>  (35) 
-7.74

>  <cluster_rmsd>  (35) 
1.43

>  <cluster>  (35) 
2

$$$$

     RDKit          3D

 42 44  0  0  0  0  0  0  0  0999 V2000
  138.7640   67.7630  223.1560 C   0  0  0  0  0  0  0  0  0  0  0  0
  138.8210   68.2670  224.4730 O   0  0  0  0  0  0  0  0  0  0  0  0
  139.4610   69.4560  224.8180 C   0  0  0  0  0  0  0  0  0  0  0  0
  140.0380   69.6510  226.0640 C   0  0  0  0  0  0  0  0  0  0  0  0
  140.6490   70.8670  226.3060 C   0  0  0  0  0  0  0  0  0  0  0  0
  140.6950   71.8740  225.3480 C   0  0  0  0  0  0  0  0  0  0  0  0
  140.1090   71.6470  224.1200 C   0  0  0  0  0  0  0  0  0  0  0  0
  140.1180   72.6450  223.0770 N   0  0  0  0  0  0  0  0  0  0  0  0
  141.0260   72.5940  221.9940 C   0  0  0  0  0  0  0  0  0  0  0  0
  141.8440   71.6130  221.9990 O   0  0  0  0  0  0  0  0  0  0  0  0
  141.1010   73.5600  220.8920 C   0  0  0  0  0  0  0  0  0  0  0  0
  141.1460   74.9010  221.3870 N   0  0  0  0  0  0  0  0  0  0  0  0
  139.9980   75.5930  221.8840 C   0  0  0  0  0  0  0  0  0  0  0  0
  138.8430   75.0480  221.9080 O   0  0  0  0  0  0  0  0  0  0  0  0
  140.1480   76.9760  222.3860 C   0  0  0  0  0  0  0  0  0  0  0  0
  139.0260   77.6890  222.7470 C   0  0  0  0  0  0  0  0  0  0  0  0
  139.1630   78.9960  223.2210 C   0  0  0  0  0  0  0  0  0  0  0  0
  140.4180   79.5650  223.3250 C   0  0  0  0  0  0  0  0  0  0  0  0
  140.5340   80.8550  223.7930 C   0  0  0  0  0  0  0  0  0  0  0  0
  141.8220   81.3810  223.8790 C   0  0  0  0  0  0  0  0  0  0  0  0
  142.9270   80.6610  223.5170 C   0  0  0  0  0  0  0  0  0  0  0  0
  142.7580   79.3650  223.0500 C   0  0  0  0  0  0  0  0  0  0  0  0
  141.5030   78.7950  222.9450 C   0  0  0  0  0  0  0  0  0  0  0  0
  141.3740   77.5420  222.4910 N   0  0  0  0  0  0  0  0  0  0  0  0
  139.4870   70.4370  223.8400 C   0  0  0  0  0  0  0  0  0  0  0  0
  138.6405   66.6704  223.1866 H   0  0  0  0  0  0  0  0  0  0  0  0
  137.9111   68.2138  222.6275 H   0  0  0  0  0  0  0  0  0  0  0  0
  139.6960   68.0120  222.6275 H   0  0  0  0  0  0  0  0  0  0  0  0
  140.0103   68.8651  226.8331 H   0  0  0  0  0  0  0  0  0  0  0  0
  141.1135   71.0438  227.2873 H   0  0  0  0  0  0  0  0  0  0  0  0
  141.1889   72.8326  225.5652 H   0  0  0  0  0  0  0  0  0  0  0  0
  139.4370   73.3990  223.1700 H   0  0  0  0  0  0  0  0  0  0  0  0
  142.0089   73.3636  220.3028 H   0  0  0  0  0  0  0  0  0  0  0  0
  140.2032   73.4477  220.2664 H   0  0  0  0  0  0  0  0  0  0  0  0
  142.0550   75.4530  221.4080 H   0  0  0  0  0  0  0  0  0  0  0  0
  138.0289   77.2323  222.6626 H   0  0  0  0  0  0  0  0  0  0  0  0
  138.2720   79.5721  223.5114 H   0  0  0  0  0  0  0  0  0  0  0  0
  139.6514   81.4429  224.0853 H   0  0  0  0  0  0  0  0  0  0  0  0
  141.9539   82.4081  224.2499 H   0  0  0  0  0  0  0  0  0  0  0  0
  143.9320   81.1013  223.5946 H   0  0  0  0  0  0  0  0  0  0  0  0
  143.6416   78.7789  222.7572 H   0  0  0  0  0  0  0  0  0  0  0  0
  139.0229   70.2606  222.8584 H   0  0  0  0  0  0  0  0  0  0  0  0
  1  2  1  0
  2  3  1  0
  3  4  2  0
  4  5  1  0
  5  6  2  0
  6  7  1  0
  7  8  1  0
  8  9  1  0
  9 10  2  0
  9 11  1  0
 11 12  1  0
 12 13  1  0
 13 14  2  0
 13 15  1  0
 15 16  2  0
 16 17  1  0
 17 18  2  0
 18 19  1  0
 19 20  2  0
 20 21  1  0
 21 22  2  0
 22 23  1  0
 23 24  2  0
  7 25  2  0
 25  3  1  0
 24 15  1  0
 23 18  1  0
  1 26  1  0
  1 27  1  0
  1 28  1  0
  4 29  1  0
  5 30  1  0
  6 31  1  0
  8 32  1  0
 11 33  1  0
 11 34  1  0
 12 35  1  0
 16 36  1  0
 17 37  1  0
 19 38  1  0
 20 39  1  0
 21 40  1  0
 22 41  1  0
 25 42  1  0
M  END
>  <smiles>  (36) 
COc1cccc(NC(=O)CNC(=O)c2ccc3ccccc3n2)c1

>  <score_type>  (36) 
oracle

>  <origin>  (36) 
autodockgpu

>  <m_score__min__energy>  (36) 
-8.5299999999999994

>  <m_primary>  (36) 
energy

>  <rmsd>  (36) 
11.078691185039823

>  <m_score__min__rmsd>  (36) 
11.078691185039823

>  <meeko>  (36) 
{"free_energy": -7.76, "intermolecular_energy": -9.25, "internal_energy": -1.94, "cluster_size": 43, "cluster_id": 2, "rank_in_cluster": 19}

>  <energy>  (36) 
-7.74

>  <cluster_rmsd>  (36) 
0.27

>  <cluster>  (36) 
2

$$$$

     RDKit          3D

 42 44  0  0  0  0  0  0  0  0999 V2000
  138.7740   67.7000  223.1560 C   0  0  0  0  0  0  0  0  0  0  0  0
  138.8400   68.2250  224.4650 O   0  0  0  0  0  0  0  0  0  0  0  0
  139.4810   69.4200  224.7860 C   0  0  0  0  0  0  0  0  0  0  0  0
  140.0990   69.6230  226.0100 C   0  0  0  0  0  0  0  0  0  0  0  0
  140.7070   70.8450  226.2290 C   0  0  0  0  0  0  0  0  0  0  0  0
  140.7110   71.8500  225.2690 C   0  0  0  0  0  0  0  0  0  0  0  0
  140.0860   71.6150  224.0620 C   0  0  0  0  0  0  0  0  0  0  0  0
  140.0490   72.6120  223.0180 N   0  0  0  0  0  0  0  0  0  0  0  0
  140.9770   72.6170  221.9500 C   0  0  0  0  0  0  0  0  0  0  0  0
  141.8550   71.6880  221.9710 O   0  0  0  0  0  0  0  0  0  0  0  0
  141.0100   73.5850  220.8480 C   0  0  0  0  0  0  0  0  0  0  0  0
  141.0810   74.9240  221.3440 N   0  0  0  0  0  0  0  0  0  0  0  0
  139.9570   75.6220  221.8840 C   0  0  0  0  0  0  0  0  0  0  0  0
  138.8000   75.0840  221.9480 O   0  0  0  0  0  0  0  0  0  0  0  0
  140.1330   77.0030  222.3820 C   0  0  0  0  0  0  0  0  0  0  0  0
  139.0250   77.7350  222.7520 C   0  0  0  0  0  0  0  0  0  0  0  0
  139.1870   79.0400  223.2230 C   0  0  0  0  0  0  0  0  0  0  0  0
  140.4520   79.5880  223.3150 C   0  0  0  0  0  0  0  0  0  0  0  0
  140.5920   80.8770  223.7810 C   0  0  0  0  0  0  0  0  0  0  0  0
  141.8890   81.3830  223.8550 C   0  0  0  0  0  0  0  0  0  0  0  0
  142.9800   80.6450  223.4840 C   0  0  0  0  0  0  0  0  0  0  0  0
  142.7860   79.3510  223.0200 C   0  0  0  0  0  0  0  0  0  0  0  0
  141.5210   78.8010  222.9270 C   0  0  0  0  0  0  0  0  0  0  0  0
  141.3680   77.5500  222.4760 N   0  0  0  0  0  0  0  0  0  0  0  0
  139.4650   70.4000  223.8060 C   0  0  0  0  0  0  0  0  0  0  0  0
  138.6369   66.6097  223.2047 H   0  0  0  0  0  0  0  0  0  0  0  0
  137.9257   68.1527  222.6217 H   0  0  0  0  0  0  0  0  0  0  0  0
  139.7080   67.9286  222.6217 H   0  0  0  0  0  0  0  0  0  0  0  0
  140.1054   68.8384  226.7809 H   0  0  0  0  0  0  0  0  0  0  0  0
  141.2033   71.0277  227.1935 H   0  0  0  0  0  0  0  0  0  0  0  0
  141.2028   72.8137  225.4678 H   0  0  0  0  0  0  0  0  0  0  0  0
  139.3220   73.3220  223.0980 H   0  0  0  0  0  0  0  0  0  0  0  0
  141.8918   73.3864  220.2211 H   0  0  0  0  0  0  0  0  0  0  0  0
  140.0867   73.4778  220.2597 H   0  0  0  0  0  0  0  0  0  0  0  0
  141.9930   75.4720  221.3330 H   0  0  0  0  0  0  0  0  0  0  0  0
  138.0199   77.2943  222.6768 H   0  0  0  0  0  0  0  0  0  0  0  0
  138.3082   79.6309  223.5204 H   0  0  0  0  0  0  0  0  0  0  0  0
  139.7212   81.4787  224.0806 H   0  0  0  0  0  0  0  0  0  0  0  0
  142.0402   82.4084  224.2234 H   0  0  0  0  0  0  0  0  0  0  0  0
  143.9925   81.0694  223.5522 H   0  0  0  0  0  0  0  0  0  0  0  0
  143.6574   78.7505  222.7200 H   0  0  0  0  0  0  0  0  0  0  0  0
  138.9685   70.2181  222.8414 H   0  0  0  0  0  0  0  0  0  0  0  0
  1  2  1  0
  2  3  1  0
  3  4  2  0
  4  5  1  0
  5  6  2  0
  6  7  1  0
  7  8  1  0
  8  9  1  0
  9 10  2  0
  9 11  1  0
 11 12  1  0
 12 13  1  0
 13 14  2  0
 13 15  1  0
 15 16  2  0
 16 17  1  0
 17 18  2  0
 18 19  1  0
 19 20  2  0
 20 21  1  0
 21 22  2  0
 22 23  1  0
 23 24  2  0
  7 25  2  0
 25  3  1  0
 24 15  1  0
 23 18  1  0
  1 26  1  0
  1 27  1  0
  1 28  1  0
  4 29  1  0
  5 30  1  0
  6 31  1  0
  8 32  1  0
 11 33  1  0
 11 34  1  0
 12 35  1  0
 16 36  1  0
 17 37  1  0
 19 38  1  0
 20 39  1  0
 21 40  1  0
 22 41  1  0
 25 42  1  0
M  END
>  <smiles>  (37) 
COc1cccc(NC(=O)CNC(=O)c2ccc3ccccc3n2)c1

>  <score_type>  (37) 
oracle

>  <origin>  (37) 
autodockgpu

>  <m_score__min__energy>  (37) 
-8.5299999999999994

>  <m_primary>  (37) 
energy

>  <rmsd>  (37) 
11.09762858208218

>  <m_score__min__rmsd>  (37) 
11.09762858208218

>  <meeko>  (37) 
{"free_energy": -7.77, "intermolecular_energy": -9.26, "internal_energy": -1.93, "cluster_size": 43, "cluster_id": 2, "rank_in_cluster": 14}

>  <energy>  (37) 
-7.73

>  <cluster_rmsd>  (37) 
1.43

>  <cluster>  (37) 
2

$$$$

     RDKit          3D

 42 44  0  0  0  0  0  0  0  0999 V2000
  141.0820   70.1630  228.3080 C   0  0  0  0  0  0  0  0  0  0  0  0
  141.1550   71.0380  227.2020 O   0  0  0  0  0  0  0  0  0  0  0  0
  140.4060   70.8750  226.0390 C   0  0  0  0  0  0  0  0  0  0  0  0
  139.5350   69.8110  225.8620 C   0  0  0  0  0  0  0  0  0  0  0  0
  138.8380   69.7410  224.6700 C   0  0  0  0  0  0  0  0  0  0  0  0
  138.9890   70.6940  223.6690 C   0  0  0  0  0  0  0  0  0  0  0  0
  139.8650   71.7400  223.8780 C   0  0  0  0  0  0  0  0  0  0  0  0
  140.0740   72.7670  222.8850 N   0  0  0  0  0  0  0  0  0  0  0  0
  141.0540   72.6450  221.8720 C   0  0  0  0  0  0  0  0  0  0  0  0
  141.7490   71.5730  221.8960 O   0  0  0  0  0  0  0  0  0  0  0  0
  141.3300   73.6330  220.8230 C   0  0  0  0  0  0  0  0  0  0  0  0
  141.3300   74.9610  221.3570 N   0  0  0  0  0  0  0  0  0  0  0  0
  140.1380   75.6650  221.7110 C   0  0  0  0  0  0  0  0  0  0  0  0
  138.9810   75.1440  221.5610 O   0  0  0  0  0  0  0  0  0  0  0  0
  140.2420   77.0320  222.2650 C   0  0  0  0  0  0  0  0  0  0  0  0
  139.0960   77.6950  222.6480 C   0  0  0  0  0  0  0  0  0  0  0  0
  139.1890   78.9860  223.1710 C   0  0  0  0  0  0  0  0  0  0  0  0
  140.4260   79.5900  223.3030 C   0  0  0  0  0  0  0  0  0  0  0  0
  140.4990   80.8640  223.8210 C   0  0  0  0  0  0  0  0  0  0  0  0
  141.7700   81.4270  223.9330 C   0  0  0  0  0  0  0  0  0  0  0  0
  142.8980   80.7570  223.5500 C   0  0  0  0  0  0  0  0  0  0  0  0
  142.7720   79.4740  223.0320 C   0  0  0  0  0  0  0  0  0  0  0  0
  141.5360   78.8700  222.9000 C   0  0  0  0  0  0  0  0  0  0  0  0
  141.4480   77.6320  222.3970 N   0  0  0  0  0  0  0  0  0  0  0  0
  140.5820   71.8430  225.0630 C   0  0  0  0  0  0  0  0  0  0  0  0
  141.1306   70.7452  229.2400 H   0  0  0  0  0  0  0  0  0  0  0  0
  140.1342   69.6058  228.2728 H   0  0  0  0  0  0  0  0  0  0  0  0
  141.9243   69.4564  228.2728 H   0  0  0  0  0  0  0  0  0  0  0  0
  139.4029   69.0482  226.6435 H   0  0  0  0  0  0  0  0  0  0  0  0
  138.1419   68.9047  224.5085 H   0  0  0  0  0  0  0  0  0  0  0  0
  138.4219   70.6160  222.7297 H   0  0  0  0  0  0  0  0  0  0  0  0
  139.4810   73.5940  222.9600 H   0  0  0  0  0  0  0  0  0  0  0  0
  142.3152   73.4229  220.3811 H   0  0  0  0  0  0  0  0  0  0  0  0
  140.5421   73.5624  220.0587 H   0  0  0  0  0  0  0  0  0  0  0  0
  142.2370   75.4930  221.5170 H   0  0  0  0  0  0  0  0  0  0  0  0
  138.1144   77.2100  222.5422 H   0  0  0  0  0  0  0  0  0  0  0  0
  138.2790   79.5224  223.4779 H   0  0  0  0  0  0  0  0  0  0  0  0
  139.5971   81.4118  224.1318 H   0  0  0  0  0  0  0  0  0  0  0  0
  141.8678   82.4431  224.3428 H   0  0  0  0  0  0  0  0  0  0  0  0
  143.8883   81.2254  223.6501 H   0  0  0  0  0  0  0  0  0  0  0  0
  143.6746   78.9277  222.7206 H   0  0  0  0  0  0  0  0  0  0  0  0
  141.2782   72.6793  225.2242 H   0  0  0  0  0  0  0  0  0  0  0  0
  1  2  1  0
  2  3  1  0
  3  4  2  0
  4  5  1  0
  5  6  2  0
  6  7  1  0
  7  8  1  0
  8  9  1  0
  9 10  2  0
  9 11  1  0
 11 12  1  0
 12 13  1  0
 13 14  2  0
 13 15  1  0
 15 16  2  0
 16 17  1  0
 17 18  2  0
 18 19  1  0
 19 20  2  0
 20 21  1  0
 21 22  2  0
 22 23  1  0
 23 24  2  0
  7 25  2  0
 25  3  1  0
 24 15  1  0
 23 18  1  0
  1 26  1  0
  1 27  1  0
  1 28  1  0
  4 29  1  0
  5 30  1  0
  6 31  1  0
  8 32  1  0
 11 33  1  0
 11 34  1  0
 12 35  1  0
 16 36  1  0
 17 37  1  0
 19 38  1  0
 20 39  1  0
 21 40  1  0
 22 41  1  0
 25 42  1  0
M  END
>  <smiles>  (38) 
COc1cccc(NC(=O)CNC(=O)c2ccc3ccccc3n2)c1

>  <score_type>  (38) 
oracle

>  <origin>  (38) 
autodockgpu

>  <m_score__min__energy>  (38) 
-8.5299999999999994

>  <m_primary>  (38) 
energy

>  <rmsd>  (38) 
11.03382664023599

>  <m_score__min__rmsd>  (38) 
11.03382664023599

>  <meeko>  (38) 
{"free_energy": -7.51, "intermolecular_energy": -9.0, "internal_energy": -1.91, "cluster_size": 43, "cluster_id": 2, "rank_in_cluster": 41}

>  <energy>  (38) 
-7.73

>  <cluster_rmsd>  (38) 
1.42

>  <cluster>  (38) 
2

$$$$

     RDKit          3D

 42 44  0  0  0  0  0  0  0  0999 V2000
  141.0800   71.8900  228.0770 C   0  0  0  0  0  0  0  0  0  0  0  0
  141.2470   70.9060  227.0790 O   0  0  0  0  0  0  0  0  0  0  0  0
  140.4660   70.8340  225.9280 C   0  0  0  0  0  0  0  0  0  0  0  0
  139.5230   69.8360  225.7340 C   0  0  0  0  0  0  0  0  0  0  0  0
  138.7990   69.8550  224.5560 C   0  0  0  0  0  0  0  0  0  0  0  0
  138.9930   70.8310  223.5860 C   0  0  0  0  0  0  0  0  0  0  0  0
  139.9400   71.8090  223.8100 C   0  0  0  0  0  0  0  0  0  0  0  0
  140.1970   72.8540  222.8480 N   0  0  0  0  0  0  0  0  0  0  0  0
  141.0580   72.6630  221.7420 C   0  0  0  0  0  0  0  0  0  0  0  0
  141.6020   71.5100  221.6520 O   0  0  0  0  0  0  0  0  0  0  0  0
  141.3710   73.6640  220.7160 C   0  0  0  0  0  0  0  0  0  0  0  0
  141.3570   74.9840  221.2670 N   0  0  0  0  0  0  0  0  0  0  0  0
  140.1590   75.6590  221.6580 C   0  0  0  0  0  0  0  0  0  0  0  0
  139.0100   75.1170  221.5290 O   0  0  0  0  0  0  0  0  0  0  0  0
  140.2490   77.0210  222.2290 C   0  0  0  0  0  0  0  0  0  0  0  0
  139.0960   77.6670  222.6200 C   0  0  0  0  0  0  0  0  0  0  0  0
  139.1760   78.9530  223.1580 C   0  0  0  0  0  0  0  0  0  0  0  0
  140.4060   79.5680  223.2960 C   0  0  0  0  0  0  0  0  0  0  0  0
  140.4650   80.8370  223.8290 C   0  0  0  0  0  0  0  0  0  0  0  0
  141.7300   81.4120  223.9460 C   0  0  0  0  0  0  0  0  0  0  0  0
  142.8650   80.7590  223.5540 C   0  0  0  0  0  0  0  0  0  0  0  0
  142.7530   79.4820  223.0230 C   0  0  0  0  0  0  0  0  0  0  0  0
  141.5240   78.8650  222.8840 C   0  0  0  0  0  0  0  0  0  0  0  0
  141.4490   77.6320  222.3670 N   0  0  0  0  0  0  0  0  0  0  0  0
  140.6860   71.8230  224.9810 C   0  0  0  0  0  0  0  0  0  0  0  0
  141.1593   71.4227  229.0696 H   0  0  0  0  0  0  0  0  0  0  0  0
  141.8608   72.6574  227.9696 H   0  0  0  0  0  0  0  0  0  0  0  0
  140.0898   72.3568  227.9696 H   0  0  0  0  0  0  0  0  0  0  0  0
  139.3565   69.0558  226.4913 H   0  0  0  0  0  0  0  0  0  0  0  0
  138.0456   69.0728  224.3812 H   0  0  0  0  0  0  0  0  0  0  0  0
  138.4030   70.8240  222.6576 H   0  0  0  0  0  0  0  0  0  0  0  0
  139.7300   73.7450  223.0150 H   0  0  0  0  0  0  0  0  0  0  0  0
  142.3696   73.4567  220.3039 H   0  0  0  0  0  0  0  0  0  0  0  0
  140.6084   73.6060  219.9254 H   0  0  0  0  0  0  0  0  0  0  0  0
  142.2560   75.5330  221.4130 H   0  0  0  0  0  0  0  0  0  0  0  0
  138.1195   77.1729  222.5090 H   0  0  0  0  0  0  0  0  0  0  0  0
  138.2607   79.4763  223.4718 H   0  0  0  0  0  0  0  0  0  0  0  0
  139.5575   81.3712  224.1471 H   0  0  0  0  0  0  0  0  0  0  0  0
  141.8173   82.4243  224.3676 H   0  0  0  0  0  0  0  0  0  0  0  0
  143.8500   81.2375  223.6577 H   0  0  0  0  0  0  0  0  0  0  0  0
  143.6617   78.9493  222.7059 H   0  0  0  0  0  0  0  0  0  0  0  0
  141.4391   72.6057  225.1547 H   0  0  0  0  0  0  0  0  0  0  0  0
  1  2  1  0
  2  3  1  0
  3  4  2  0
  4  5  1  0
  5  6  2  0
  6  7  1  0
  7  8  1  0
  8  9  1  0
  9 10  2  0
  9 11  1  0
 11 12  1  0
 12 13  1  0
 13 14  2  0
 13 15  1  0
 15 16  2  0
 16 17  1  0
 17 18  2  0
 18 19  1  0
 19 20  2  0
 20 21  1  0
 21 22  2  0
 22 23  1  0
 23 24  2  0
  7 25  2  0
 25  3  1  0
 24 15  1  0
 23 18  1  0
  1 26  1  0
  1 27  1  0
  1 28  1  0
  4 29  1  0
  5 30  1  0
  6 31  1  0
  8 32  1  0
 11 33  1  0
 11 34  1  0
 12 35  1  0
 16 36  1  0
 17 37  1  0
 19 38  1  0
 20 39  1  0
 21 40  1  0
 22 41  1  0
 25 42  1  0
M  END
>  <smiles>  (39) 
COc1cccc(NC(=O)CNC(=O)c2ccc3ccccc3n2)c1

>  <score_type>  (39) 
oracle

>  <origin>  (39) 
autodockgpu

>  <m_score__min__energy>  (39) 
-8.5299999999999994

>  <m_primary>  (39) 
energy

>  <rmsd>  (39) 
10.696325780479606

>  <m_score__min__rmsd>  (39) 
10.696325780479606

>  <meeko>  (39) 
{"free_energy": -7.64, "intermolecular_energy": -9.13, "internal_energy": -1.9, "cluster_size": 43, "cluster_id": 2, "rank_in_cluster": 37}

>  <energy>  (39) 
-7.73

>  <cluster_rmsd>  (39) 
0.29

>  <cluster>  (39) 
2

$$$$

     RDKit          3D

 42 44  0  0  0  0  0  0  0  0999 V2000
  138.0150   81.0640  224.7300 C   0  0  0  0  0  0  0  0  0  0  0  0
  138.2740   80.1170  223.7150 O   0  0  0  0  0  0  0  0  0  0  0  0
  139.5550   79.7110  223.3470 C   0  0  0  0  0  0  0  0  0  0  0  0
  140.6220   80.5950  223.2830 C   0  0  0  0  0  0  0  0  0  0  0  0
  141.8530   80.0900  222.9070 C   0  0  0  0  0  0  0  0  0  0  0  0
  142.0380   78.7480  222.5990 C   0  0  0  0  0  0  0  0  0  0  0  0
  140.9550   77.8960  222.6720 C   0  0  0  0  0  0  0  0  0  0  0  0
  141.0710   76.4900  222.3660 N   0  0  0  0  0  0  0  0  0  0  0  0
  140.1840   75.8370  221.4780 C   0  0  0  0  0  0  0  0  0  0  0  0
  139.2680   76.5690  220.9690 O   0  0  0  0  0  0  0  0  0  0  0  0
  140.2310   74.4190  221.1080 C   0  0  0  0  0  0  0  0  0  0  0  0
  140.0420   73.5830  222.2530 N   0  0  0  0  0  0  0  0  0  0  0  0
  140.4710   72.2210  222.3110 C   0  0  0  0  0  0  0  0  0  0  0  0
  141.0520   71.6570  221.3230 O   0  0  0  0  0  0  0  0  0  0  0  0
  140.2390   71.4410  223.5450 C   0  0  0  0  0  0  0  0  0  0  0  0
  139.5460   70.2520  223.4730 C   0  0  0  0  0  0  0  0  0  0  0  0
  139.3240   69.5120  224.6370 C   0  0  0  0  0  0  0  0  0  0  0  0
  139.7990   69.9740  225.8500 C   0  0  0  0  0  0  0  0  0  0  0  0
  139.5700   69.2310  226.9870 C   0  0  0  0  0  0  0  0  0  0  0  0
  140.0700   69.7420  228.1840 C   0  0  0  0  0  0  0  0  0  0  0  0
  140.7560   70.9240  228.2410 C   0  0  0  0  0  0  0  0  0  0  0  0
  140.9600   71.6360  227.0670 C   0  0  0  0  0  0  0  0  0  0  0  0
  140.4860   71.1750  225.8530 C   0  0  0  0  0  0  0  0  0  0  0  0
  140.6990   71.8860  224.7390 N   0  0  0  0  0  0  0  0  0  0  0  0
  139.7030   78.3670  223.0460 C   0  0  0  0  0  0  0  0  0  0  0  0
  138.1444   80.5909  225.7146 H   0  0  0  0  0  0  0  0  0  0  0  0
  138.7158   81.9063  224.6330 H   0  0  0  0  0  0  0  0  0  0  0  0
  136.9831   81.4325  224.6330 H   0  0  0  0  0  0  0  0  0  0  0  0
  140.4933   81.6607  223.5230 H   0  0  0  0  0  0  0  0  0  0  0  0
  142.7135   80.7728  222.8499 H   0  0  0  0  0  0  0  0  0  0  0  0
  143.0284   78.3720  222.3027 H   0  0  0  0  0  0  0  0  0  0  0  0
  141.8240   75.9870  222.8360 H   0  0  0  0  0  0  0  0  0  0  0  0
  139.4361   74.2118  220.3764 H   0  0  0  0  0  0  0  0  0  0  0  0
  141.2191   74.2026  220.6759 H   0  0  0  0  0  0  0  0  0  0  0  0
  139.5630   73.9470  223.1310 H   0  0  0  0  0  0  0  0  0  0  0  0
  139.1701   69.8880  222.5054 H   0  0  0  0  0  0  0  0  0  0  0  0
  138.7714   68.5621  224.5881 H   0  0  0  0  0  0  0  0  0  0  0  0
  139.0188   68.2797  226.9523 H   0  0  0  0  0  0  0  0  0  0  0  0
  139.9075   69.1760  229.1131 H   0  0  0  0  0  0  0  0  0  0  0  0
  141.1391   71.3035  229.1998 H   0  0  0  0  0  0  0  0  0  0  0  0
  141.5107   72.5875  227.1035 H   0  0  0  0  0  0  0  0  0  0  0  0
  138.8428   77.6837  223.1023 H   0  0  0  0  0  0  0  0  0  0  0  0
  1  2  1  0
  2  3  1  0
  3  4  2  0
  4  5  1  0
  5  6  2  0
  6  7  1  0
  7  8  1  0
  8  9  1  0
  9 10  2  0
  9 11  1  0
 11 12  1  0
 12 13  1  0
 13 14  2  0
 13 15  1  0
 15 16  2  0
 16 17  1  0
 17 18  2  0
 18 19  1  0
 19 20  2  0
 20 21  1  0
 21 22  2  0
 22 23  1  0
 23 24  2  0
  7 25  2  0
 25  3  1  0
 24 15  1  0
 23 18  1  0
  1 26  1  0
  1 27  1  0
  1 28  1  0
  4 29  1  0
  5 30  1  0
  6 31  1  0
  8 32  1  0
 11 33  1  0
 11 34  1  0
 12 35  1  0
 16 36  1  0
 17 37  1  0
 19 38  1  0
 20 39  1  0
 21 40  1  0
 22 41  1  0
 25 42  1  0
M  END
>  <smiles>  (40) 
COc1cccc(NC(=O)CNC(=O)c2ccc3ccccc3n2)c1

>  <score_type>  (40) 
oracle

>  <origin>  (40) 
autodockgpu

>  <m_score__min__energy>  (40) 
-8.5299999999999994

>  <m_primary>  (40) 
energy

>  <rmsd>  (40) 
4.407405602698747

>  <m_score__min__rmsd>  (40) 
4.407405602698747

>  <meeko>  (40) 
{"free_energy": -8.34, "intermolecular_energy": -9.83, "internal_energy": -0.8, "cluster_size": 7, "cluster_id": 1, "rank_in_cluster": 6}

>  <energy>  (40) 
-7.72

>  <cluster_rmsd>  (40) 
0.14

>  <cluster>  (40) 
2

$$$$

     RDKit          3D

 42 44  0  0  0  0  0  0  0  0999 V2000
  138.4240   67.9350  223.0320 C   0  0  0  0  0  0  0  0  0  0  0  0
  138.8720   68.2080  224.3420 O   0  0  0  0  0  0  0  0  0  0  0  0
  139.4970   69.3970  224.7120 C   0  0  0  0  0  0  0  0  0  0  0  0
  140.0460   69.5840  225.9720 C   0  0  0  0  0  0  0  0  0  0  0  0
  140.6440   70.8020  226.2380 C   0  0  0  0  0  0  0  0  0  0  0  0
  140.7040   71.8180  225.2910 C   0  0  0  0  0  0  0  0  0  0  0  0
  140.1470   71.5980  224.0480 C   0  0  0  0  0  0  0  0  0  0  0  0
  140.1720   72.6060  223.0150 N   0  0  0  0  0  0  0  0  0  0  0  0
  141.0700   72.5430  221.9230 C   0  0  0  0  0  0  0  0  0  0  0  0
  141.8640   71.5420  221.9130 O   0  0  0  0  0  0  0  0  0  0  0  0
  141.1610   73.5170  220.8300 C   0  0  0  0  0  0  0  0  0  0  0  0
  141.2030   74.8540  221.3370 N   0  0  0  0  0  0  0  0  0  0  0  0
  140.0520   75.5450  221.8260 C   0  0  0  0  0  0  0  0  0  0  0  0
  138.8950   75.0030  221.8320 O   0  0  0  0  0  0  0  0  0  0  0  0
  140.1990   76.9240  222.3400 C   0  0  0  0  0  0  0  0  0  0  0  0
  139.0760   77.6300  222.7110 C   0  0  0  0  0  0  0  0  0  0  0  0
  139.2100   78.9330  223.1970 C   0  0  0  0  0  0  0  0  0  0  0  0
  140.4650   79.5040  223.3030 C   0  0  0  0  0  0  0  0  0  0  0  0
  140.5780   80.7900  223.7830 C   0  0  0  0  0  0  0  0  0  0  0  0
  141.8650   81.3190  223.8700 C   0  0  0  0  0  0  0  0  0  0  0  0
  142.9710   80.6060  223.4980 C   0  0  0  0  0  0  0  0  0  0  0  0
  142.8040   79.3140  223.0190 C   0  0  0  0  0  0  0  0  0  0  0  0
  141.5510   78.7410  222.9120 C   0  0  0  0  0  0  0  0  0  0  0  0
  141.4240   77.4920  222.4470 N   0  0  0  0  0  0  0  0  0  0  0  0
  139.5390   70.3880  223.7440 C   0  0  0  0  0  0  0  0  0  0  0  0
  137.4855   67.3631  223.0772 H   0  0  0  0  0  0  0  0  0  0  0  0
  138.2513   68.8815  222.4988 H   0  0  0  0  0  0  0  0  0  0  0  0
  139.1860   67.3476  222.4988 H   0  0  0  0  0  0  0  0  0  0  0  0
  140.0070   68.7909  226.7332 H   0  0  0  0  0  0  0  0  0  0  0  0
  141.0864   70.9725  227.2306 H   0  0  0  0  0  0  0  0  0  0  0  0
  141.1859   72.7780  225.5279 H   0  0  0  0  0  0  0  0  0  0  0  0
  139.5120   73.3760  223.1200 H   0  0  0  0  0  0  0  0  0  0  0  0
  142.0757   73.3231  220.2506 H   0  0  0  0  0  0  0  0  0  0  0  0
  140.2711   73.4119  220.1919 H   0  0  0  0  0  0  0  0  0  0  0  0
  142.1130   75.4040  221.3720 H   0  0  0  0  0  0  0  0  0  0  0  0
  138.0801   77.1709  222.6252 H   0  0  0  0  0  0  0  0  0  0  0  0
  138.3183   79.5040  223.4950 H   0  0  0  0  0  0  0  0  0  0  0  0
  139.6945   81.3723  224.0836 H   0  0  0  0  0  0  0  0  0  0  0  0
  141.9950   82.3430  224.2502 H   0  0  0  0  0  0  0  0  0  0  0  0
  143.9750   81.0484  223.5770 H   0  0  0  0  0  0  0  0  0  0  0  0
  143.6885   78.7334  222.7179 H   0  0  0  0  0  0  0  0  0  0  0  0
  139.0976   70.2183  222.7509 H   0  0  0  0  0  0  0  0  0  0  0  0
  1  2  1  0
  2  3  1  0
  3  4  2  0
  4  5  1  0
  5  6  2  0
  6  7  1  0
  7  8  1  0
  8  9  1  0
  9 10  2  0
  9 11  1  0
 11 12  1  0
 12 13  1  0
 13 14  2  0
 13 15  1  0
 15 16  2  0
 16 17  1  0
 17 18  2  0
 18 19  1  0
 19 20  2  0
 20 21  1  0
 21 22  2  0
 22 23  1  0
 23 24  2  0
  7 25  2  0
 25  3  1  0
 24 15  1  0
 23 18  1  0
  1 26  1  0
  1 27  1  0
  1 28  1  0
  4 29  1  0
  5 30  1  0
  6 31  1  0
  8 32  1  0
 11 33  1  0
 11 34  1  0
 12 35  1  0
 16 36  1  0
 17 37  1  0
 19 38  1  0
 20 39  1  0
 21 40  1  0
 22 41  1  0
 25 42  1  0
M  END
>  <smiles>  (41) 
COc1cccc(NC(=O)CNC(=O)c2ccc3ccccc3n2)c1

>  <score_type>  (41) 
oracle

>  <origin>  (41) 
autodockgpu

>  <m_score__min__energy>  (41) 
-8.5299999999999994

>  <m_primary>  (41) 
energy

>  <rmsd>  (41) 
11.02819367781665

>  <m_score__min__rmsd>  (41) 
11.02819367781665

>  <meeko>  (41) 
{"free_energy": -7.73, "intermolecular_energy": -9.23, "internal_energy": -1.94, "cluster_size": 43, "cluster_id": 2, "rank_in_cluster": 30}

>  <energy>  (41) 
-7.69

>  <cluster_rmsd>  (41) 
0.31

>  <cluster>  (41) 
2

$$$$

     RDKit          3D

 42 44  0  0  0  0  0  0  0  0999 V2000
  138.7960   67.7810  223.0720 C   0  0  0  0  0  0  0  0  0  0  0  0
  138.8540   68.2610  224.3970 O   0  0  0  0  0  0  0  0  0  0  0  0
  139.4940   69.4440  224.7630 C   0  0  0  0  0  0  0  0  0  0  0  0
  140.0480   69.6280  226.0200 C   0  0  0  0  0  0  0  0  0  0  0  0
  140.6610   70.8390  226.2820 C   0  0  0  0  0  0  0  0  0  0  0  0
  140.7320   71.8510  225.3330 C   0  0  0  0  0  0  0  0  0  0  0  0
  140.1700   71.6350  224.0910 C   0  0  0  0  0  0  0  0  0  0  0  0
  140.2040   72.6400  223.0550 N   0  0  0  0  0  0  0  0  0  0  0  0
  141.0870   72.5540  221.9530 C   0  0  0  0  0  0  0  0  0  0  0  0
  141.8570   71.5350  221.9350 O   0  0  0  0  0  0  0  0  0  0  0  0
  141.1850   73.5230  220.8560 C   0  0  0  0  0  0  0  0  0  0  0  0
  141.2130   74.8630  221.3570 N   0  0  0  0  0  0  0  0  0  0  0  0
  140.0520   75.5480  221.8310 C   0  0  0  0  0  0  0  0  0  0  0  0
  138.8990   74.9980  221.8270 O   0  0  0  0  0  0  0  0  0  0  0  0
  140.1840   76.9300  222.3400 C   0  0  0  0  0  0  0  0  0  0  0  0
  139.0530   77.6290  222.7000 C   0  0  0  0  0  0  0  0  0  0  0  0
  139.1730   78.9350  223.1810 C   0  0  0  0  0  0  0  0  0  0  0  0
  140.4210   79.5170  223.2930 C   0  0  0  0  0  0  0  0  0  0  0  0
  140.5210   80.8060  223.7680 C   0  0  0  0  0  0  0  0  0  0  0  0
  141.8030   81.3460  223.8620 C   0  0  0  0  0  0  0  0  0  0  0  0
  142.9170   80.6400  223.5010 C   0  0  0  0  0  0  0  0  0  0  0  0
  142.7640   79.3450  223.0260 C   0  0  0  0  0  0  0  0  0  0  0  0
  141.5170   78.7610  222.9130 C   0  0  0  0  0  0  0  0  0  0  0  0
  141.4030   77.5090  222.4520 N   0  0  0  0  0  0  0  0  0  0  0  0
  139.5460   70.4310  223.7920 C   0  0  0  0  0  0  0  0  0  0  0  0
  138.6641   66.6890  223.0831 H   0  0  0  0  0  0  0  0  0  0  0  0
  137.9477   68.2476  222.5498 H   0  0  0  0  0  0  0  0  0  0  0  0
  139.7310   68.0321  222.5498 H   0  0  0  0  0  0  0  0  0  0  0  0
  140.0015   68.8373  226.7833 H   0  0  0  0  0  0  0  0  0  0  0  0
  141.1068   71.0066  227.2736 H   0  0  0  0  0  0  0  0  0  0  0  0
  141.2263   72.8055  225.5667 H   0  0  0  0  0  0  0  0  0  0  0  0
  139.5630   73.4250  223.1670 H   0  0  0  0  0  0  0  0  0  0  0  0
  142.1076   73.3318  220.2883 H   0  0  0  0  0  0  0  0  0  0  0  0
  140.3035   73.4093  220.2079 H   0  0  0  0  0  0  0  0  0  0  0  0
  142.1190   75.4200  221.4000 H   0  0  0  0  0  0  0  0  0  0  0  0
  138.0614   77.1617  222.6093 H   0  0  0  0  0  0  0  0  0  0  0  0
  138.2744   79.4997  223.4704 H   0  0  0  0  0  0  0  0  0  0  0  0
  139.6308   81.3826  224.0596 H   0  0  0  0  0  0  0  0  0  0  0  0
  141.9221   82.3727  224.2385 H   0  0  0  0  0  0  0  0  0  0  0  0
  143.9169   81.0906  223.5856 H   0  0  0  0  0  0  0  0  0  0  0  0
  143.6553   78.7708  222.7330 H   0  0  0  0  0  0  0  0  0  0  0  0
  139.1003   70.2636  222.8004 H   0  0  0  0  0  0  0  0  0  0  0  0
  1  2  1  0
  2  3  1  0
  3  4  2  0
  4  5  1  0
  5  6  2  0
  6  7  1  0
  7  8  1  0
  8  9  1  0
  9 10  2  0
  9 11  1  0
 11 12  1  0
 12 13  1  0
 13 14  2  0
 13 15  1  0
 15 16  2  0
 16 17  1  0
 17 18  2  0
 18 19  1  0
 19 20  2  0
 20 21  1  0
 21 22  2  0
 22 23  1  0
 23 24  2  0
  7 25  2  0
 25  3  1  0
 24 15  1  0
 23 18  1  0
  1 26  1  0
  1 27  1  0
  1 28  1  0
  4 29  1  0
  5 30  1  0
  6 31  1  0
  8 32  1  0
 11 33  1  0
 11 34  1  0
 12 35  1  0
 16 36  1  0
 17 37  1  0
 19 38  1  0
 20 39  1  0
 21 40  1  0
 22 41  1  0
 25 42  1  0
M  END
>  <smiles>  (42) 
COc1cccc(NC(=O)CNC(=O)c2ccc3ccccc3n2)c1

>  <score_type>  (42) 
oracle

>  <origin>  (42) 
autodockgpu

>  <m_score__min__energy>  (42) 
-8.5299999999999994

>  <m_primary>  (42) 
energy

>  <rmsd>  (42) 
11.062035551363813

>  <m_score__min__rmsd>  (42) 
11.062035551363813

>  <meeko>  (42) 
{"free_energy": -7.75, "intermolecular_energy": -9.24, "internal_energy": -1.93, "cluster_size": 43, "cluster_id": 2, "rank_in_cluster": 26}

>  <energy>  (42) 
-7.67

>  <cluster_rmsd>  (42) 
1.44

>  <cluster>  (42) 
2

$$$$

     RDKit          3D

 42 44  0  0  0  0  0  0  0  0999 V2000
  138.5470   67.7720  223.1270 C   0  0  0  0  0  0  0  0  0  0  0  0
  138.8290   68.1850  224.4470 O   0  0  0  0  0  0  0  0  0  0  0  0
  139.4590   69.3870  224.7620 C   0  0  0  0  0  0  0  0  0  0  0  0
  140.0900   69.5960  225.9790 C   0  0  0  0  0  0  0  0  0  0  0  0
  140.6860   70.8260  226.1920 C   0  0  0  0  0  0  0  0  0  0  0  0
  140.6650   71.8320  225.2330 C   0  0  0  0  0  0  0  0  0  0  0  0
  140.0270   71.5910  224.0340 C   0  0  0  0  0  0  0  0  0  0  0  0
  139.9650   72.5890  222.9920 N   0  0  0  0  0  0  0  0  0  0  0  0
  140.9070   72.6360  221.9380 C   0  0  0  0  0  0  0  0  0  0  0  0
  141.8230   71.7460  221.9700 O   0  0  0  0  0  0  0  0  0  0  0  0
  140.9170   73.6080  220.8390 C   0  0  0  0  0  0  0  0  0  0  0  0
  140.9960   74.9460  221.3390 N   0  0  0  0  0  0  0  0  0  0  0  0
  139.8840   75.6390  221.9080 C   0  0  0  0  0  0  0  0  0  0  0  0
  138.7300   75.0980  221.9990 O   0  0  0  0  0  0  0  0  0  0  0  0
  140.0680   77.0190  222.4080 C   0  0  0  0  0  0  0  0  0  0  0  0
  138.9660   77.7530  222.7890 C   0  0  0  0  0  0  0  0  0  0  0  0
  139.1360   79.0570  223.2610 C   0  0  0  0  0  0  0  0  0  0  0  0
  140.4040   79.6010  223.3430 C   0  0  0  0  0  0  0  0  0  0  0  0
  140.5520   80.8880  223.8100 C   0  0  0  0  0  0  0  0  0  0  0  0
  141.8520   81.3900  223.8730 C   0  0  0  0  0  0  0  0  0  0  0  0
  142.9370   80.6490  223.4910 C   0  0  0  0  0  0  0  0  0  0  0  0
  142.7350   79.3570  223.0270 C   0  0  0  0  0  0  0  0  0  0  0  0
  141.4680   78.8110  222.9440 C   0  0  0  0  0  0  0  0  0  0  0  0
  141.3060   77.5610  222.4910 N   0  0  0  0  0  0  0  0  0  0  0  0
  139.4180   70.3690  223.7840 C   0  0  0  0  0  0  0  0  0  0  0  0
  137.9269   66.8638  223.1515 H   0  0  0  0  0  0  0  0  0  0  0  0
  138.0055   68.5716  222.6004 H   0  0  0  0  0  0  0  0  0  0  0  0
  139.4889   67.5587  222.6004 H   0  0  0  0  0  0  0  0  0  0  0  0
  140.1157   68.8106  226.7487 H   0  0  0  0  0  0  0  0  0  0  0  0
  141.1924   71.0139  227.1503 H   0  0  0  0  0  0  0  0  0  0  0  0
  141.1477   72.8013  225.4265 H   0  0  0  0  0  0  0  0  0  0  0  0
  139.2070   73.2680  223.0630 H   0  0  0  0  0  0  0  0  0  0  0  0
  141.7866   73.4130  220.1941 H   0  0  0  0  0  0  0  0  0  0  0  0
  139.9826   73.5016  220.2684 H   0  0  0  0  0  0  0  0  0  0  0  0
  141.9070   75.4960  221.3080 H   0  0  0  0  0  0  0  0  0  0  0  0
  137.9591   77.3153  222.7220 H   0  0  0  0  0  0  0  0  0  0  0  0
  138.2616   79.6501  223.5670 H   0  0  0  0  0  0  0  0  0  0  0  0
  139.6859   81.4918  224.1188 H   0  0  0  0  0  0  0  0  0  0  0  0
  142.0099   82.4143  224.2416 H   0  0  0  0  0  0  0  0  0  0  0  0
  143.9515   81.0701  223.5507 H   0  0  0  0  0  0  0  0  0  0  0  0
  143.6020   78.7543  222.7185 H   0  0  0  0  0  0  0  0  0  0  0  0
  138.9111   70.1827  222.8257 H   0  0  0  0  0  0  0  0  0  0  0  0
  1  2  1  0
  2  3  1  0
  3  4  2  0
  4  5  1  0
  5  6  2  0
  6  7  1  0
  7  8  1  0
  8  9  1  0
  9 10  2  0
  9 11  1  0
 11 12  1  0
 12 13  1  0
 13 14  2  0
 13 15  1  0
 15 16  2  0
 16 17  1  0
 17 18  2  0
 18 19  1  0
 19 20  2  0
 20 21  1  0
 21 22  2  0
 22 23  1  0
 23 24  2  0
  7 25  2  0
 25  3  1  0
 24 15  1  0
 23 18  1  0
  1 26  1  0
  1 27  1  0
  1 28  1  0
  4 29  1  0
  5 30  1  0
  6 31  1  0
  8 32  1  0
 11 33  1  0
 11 34  1  0
 12 35  1  0
 16 36  1  0
 17 37  1  0
 19 38  1  0
 20 39  1  0
 21 40  1  0
 22 41  1  0
 25 42  1  0
M  END
>  <smiles>  (43) 
COc1cccc(NC(=O)CNC(=O)c2ccc3ccccc3n2)c1

>  <score_type>  (43) 
oracle

>  <origin>  (43) 
autodockgpu

>  <m_score__min__energy>  (43) 
-8.5299999999999994

>  <m_primary>  (43) 
energy

>  <rmsd>  (43) 
11.082470642526376

>  <m_score__min__rmsd>  (43) 
11.082470642526376

>  <meeko>  (43) 
{"free_energy": -7.75, "intermolecular_energy": -9.24, "internal_energy": -1.93, "cluster_size": 43, "cluster_id": 2, "rank_in_cluster": 27}

>  <energy>  (43) 
-7.65

>  <cluster_rmsd>  (43) 
0.28

>  <cluster>  (43) 
2

$$$$

     RDKit          3D

 42 44  0  0  0  0  0  0  0  0999 V2000
  140.8650   82.6840  220.8040 C   0  0  0  0  0  0  0  0  0  0  0  0
  141.5110   81.4370  220.6610 O   0  0  0  0  0  0  0  0  0  0  0  0
  141.5100   80.4500  221.6450 C   0  0  0  0  0  0  0  0  0  0  0  0
  141.5580   80.7530  222.9970 C   0  0  0  0  0  0  0  0  0  0  0  0
  141.5520   79.7000  223.8930 C   0  0  0  0  0  0  0  0  0  0  0  0
  141.5000   78.3750  223.4750 C   0  0  0  0  0  0  0  0  0  0  0  0
  141.4540   78.1090  222.1220 C   0  0  0  0  0  0  0  0  0  0  0  0
  141.3990   76.7590  221.6130 N   0  0  0  0  0  0  0  0  0  0  0  0
  140.2450   75.9510  221.7490 C   0  0  0  0  0  0  0  0  0  0  0  0
  139.2580   76.4880  222.3560 O   0  0  0  0  0  0  0  0  0  0  0  0
  140.1010   74.5750  221.2600 C   0  0  0  0  0  0  0  0  0  0  0  0
  139.9060   73.6640  222.3440 N   0  0  0  0  0  0  0  0  0  0  0  0
  140.5290   72.3790  222.4120 C   0  0  0  0  0  0  0  0  0  0  0  0
  141.3040   71.9590  221.4880 O   0  0  0  0  0  0  0  0  0  0  0  0
  140.2720   71.5110  223.5810 C   0  0  0  0  0  0  0  0  0  0  0  0
  139.5980   70.3220  223.4060 C   0  0  0  0  0  0  0  0  0  0  0  0
  139.3530   69.4990  224.5080 C   0  0  0  0  0  0  0  0  0  0  0  0
  139.7880   69.8800  225.7630 C   0  0  0  0  0  0  0  0  0  0  0  0
  139.5370   69.0560  226.8380 C   0  0  0  0  0  0  0  0  0  0  0  0
  139.9970   69.4860  228.0820 C   0  0  0  0  0  0  0  0  0  0  0  0
  140.6650   70.6680  228.2420 C   0  0  0  0  0  0  0  0  0  0  0  0
  140.8930   71.4640  227.1270 C   0  0  0  0  0  0  0  0  0  0  0  0
  140.4580   71.0850  225.8710 C   0  0  0  0  0  0  0  0  0  0  0  0
  140.6940   71.8750  224.8160 N   0  0  0  0  0  0  0  0  0  0  0  0
  141.4580   79.1410  221.1930 C   0  0  0  0  0  0  0  0  0  0  0  0
  140.7455   82.9146  221.8729 H   0  0  0  0  0  0  0  0  0  0  0  0
  141.4705   83.4677  220.3253 H   0  0  0  0  0  0  0  0  0  0  0  0
  139.8756   82.6414  220.3253 H   0  0  0  0  0  0  0  0  0  0  0  0
  141.5994   81.7957  223.3450 H   0  0  0  0  0  0  0  0  0  0  0  0
  141.5896   79.9174  224.9706 H   0  0  0  0  0  0  0  0  0  0  0  0
  141.4956   77.5552  224.2084 H   0  0  0  0  0  0  0  0  0  0  0  0
  142.2440   76.4140  221.1590 H   0  0  0  0  0  0  0  0  0  0  0  0
  139.2340   74.5219  220.5851 H   0  0  0  0  0  0  0  0  0  0  0  0
  141.0216   74.2942  220.7274 H   0  0  0  0  0  0  0  0  0  0  0  0
  139.2750   73.9070  223.1660 H   0  0  0  0  0  0  0  0  0  0  0  0
  139.2549   70.0226  222.4047 H   0  0  0  0  0  0  0  0  0  0  0  0
  138.8145   68.5489  224.3768 H   0  0  0  0  0  0  0  0  0  0  0  0
  138.9991   68.1037  226.7205 H   0  0  0  0  0  0  0  0  0  0  0  0
  139.8165   68.8534  228.9636 H   0  0  0  0  0  0  0  0  0  0  0  0
  141.0156   70.9829  229.2359 H   0  0  0  0  0  0  0  0  0  0  0  0
  141.4311   72.4160  227.2459 H   0  0  0  0  0  0  0  0  0  0  0  0
  141.4205   78.9230  220.1155 H   0  0  0  0  0  0  0  0  0  0  0  0
  1  2  1  0
  2  3  1  0
  3  4  2  0
  4  5  1  0
  5  6  2  0
  6  7  1  0
  7  8  1  0
  8  9  1  0
  9 10  2  0
  9 11  1  0
 11 12  1  0
 12 13  1  0
 13 14  2  0
 13 15  1  0
 15 16  2  0
 16 17  1  0
 17 18  2  0
 18 19  1  0
 19 20  2  0
 20 21  1  0
 21 22  2  0
 22 23  1  0
 23 24  2  0
  7 25  2  0
 25  3  1  0
 24 15  1  0
 23 18  1  0
  1 26  1  0
  1 27  1  0
  1 28  1  0
  4 29  1  0
  5 30  1  0
  6 31  1  0
  8 32  1  0
 11 33  1  0
 11 34  1  0
 12 35  1  0
 16 36  1  0
 17 37  1  0
 19 38  1  0
 20 39  1  0
 21 40  1  0
 22 41  1  0
 25 42  1  0
M  END
>  <smiles>  (44) 
COc1cccc(NC(=O)CNC(=O)c2ccc3ccccc3n2)c1

>  <score_type>  (44) 
oracle

>  <origin>  (44) 
autodockgpu

>  <m_score__min__energy>  (44) 
-8.5299999999999994

>  <m_primary>  (44) 
energy

>  <rmsd>  (44) 
3.8720031507697454

>  <m_score__min__rmsd>  (44) 
3.8720031507697454

>  <meeko>  (44) 
{"free_energy": -8.53, "intermolecular_energy": -10.02, "internal_energy": -0.96, "cluster_size": 7, "cluster_id": 1, "rank_in_cluster": 1}

>  <energy>  (44) 
-7.64

>  <cluster_rmsd>  (44) 
0.28

>  <cluster>  (44) 
2

$$$$

     RDKit          3D

 42 44  0  0  0  0  0  0  0  0999 V2000
  138.8320   67.7600  223.1010 C   0  0  0  0  0  0  0  0  0  0  0  0
  138.9090   68.2370  224.4270 O   0  0  0  0  0  0  0  0  0  0  0  0
  139.5470   69.4230  224.7840 C   0  0  0  0  0  0  0  0  0  0  0  0
  140.1160   69.6100  226.0350 C   0  0  0  0  0  0  0  0  0  0  0  0
  140.7260   70.8240  226.2890 C   0  0  0  0  0  0  0  0  0  0  0  0
  140.7780   71.8380  225.3390 C   0  0  0  0  0  0  0  0  0  0  0  0
  140.2000   71.6190  224.1050 C   0  0  0  0  0  0  0  0  0  0  0  0
  140.2150   72.6250  223.0690 N   0  0  0  0  0  0  0  0  0  0  0  0
  141.0780   72.5410  221.9520 C   0  0  0  0  0  0  0  0  0  0  0  0
  141.8500   71.5230  221.9190 O   0  0  0  0  0  0  0  0  0  0  0  0
  141.1560   73.5110  220.8540 C   0  0  0  0  0  0  0  0  0  0  0  0
  141.1920   74.8500  221.3550 N   0  0  0  0  0  0  0  0  0  0  0  0
  140.0400   75.5340  221.8550 C   0  0  0  0  0  0  0  0  0  0  0  0
  138.8890   74.9810  221.8760 O   0  0  0  0  0  0  0  0  0  0  0  0
  140.1810   76.9150  222.3620 C   0  0  0  0  0  0  0  0  0  0  0  0
  139.0540   77.6210  222.7240 C   0  0  0  0  0  0  0  0  0  0  0  0
  139.1830   78.9270  223.2030 C   0  0  0  0  0  0  0  0  0  0  0  0
  140.4350   79.5020  223.3120 C   0  0  0  0  0  0  0  0  0  0  0  0
  140.5420   80.7900  223.7860 C   0  0  0  0  0  0  0  0  0  0  0  0
  141.8280   81.3230  223.8760 C   0  0  0  0  0  0  0  0  0  0  0  0
  142.9380   80.6110  223.5140 C   0  0  0  0  0  0  0  0  0  0  0  0
  142.7770   79.3160  223.0410 C   0  0  0  0  0  0  0  0  0  0  0  0
  141.5250   78.7400  222.9310 C   0  0  0  0  0  0  0  0  0  0  0  0
  141.4040   77.4880  222.4720 N   0  0  0  0  0  0  0  0  0  0  0  0
  139.5800   70.4120  223.8130 C   0  0  0  0  0  0  0  0  0  0  0  0
  138.6567   66.6741  223.1116 H   0  0  0  0  0  0  0  0  0  0  0  0
  138.0030   68.2602  222.5790 H   0  0  0  0  0  0  0  0  0  0  0  0
  139.7763   67.9739  222.5790 H   0  0  0  0  0  0  0  0  0  0  0  0
  140.0829   68.8192  226.7989 H   0  0  0  0  0  0  0  0  0  0  0  0
  141.1850   70.9934  227.2742 H   0  0  0  0  0  0  0  0  0  0  0  0
  141.2698   72.7953  225.5664 H   0  0  0  0  0  0  0  0  0  0  0  0
  139.5740   73.4090  223.1930 H   0  0  0  0  0  0  0  0  0  0  0  0
  142.0686   73.3207  220.2700 H   0  0  0  0  0  0  0  0  0  0  0  0
  140.2632   73.3972  220.2216 H   0  0  0  0  0  0  0  0  0  0  0  0
  142.0980   75.4090  221.3790 H   0  0  0  0  0  0  0  0  0  0  0  0
  138.0595   77.1592  222.6363 H   0  0  0  0  0  0  0  0  0  0  0  0
  138.2884   79.4974  223.4933 H   0  0  0  0  0  0  0  0  0  0  0  0
  139.6556   81.3713  224.0798 H   0  0  0  0  0  0  0  0  0  0  0  0
  141.9533   82.3497  224.2505 H   0  0  0  0  0  0  0  0  0  0  0  0
  143.9404   81.0565  223.5962 H   0  0  0  0  0  0  0  0  0  0  0  0
  143.6642   78.7358  222.7475 H   0  0  0  0  0  0  0  0  0  0  0  0
  139.1223   70.2429  222.8272 H   0  0  0  0  0  0  0  0  0  0  0  0
  1  2  1  0
  2  3  1  0
  3  4  2  0
  4  5  1  0
  5  6  2  0
  6  7  1  0
  7  8  1  0
  8  9  1  0
  9 10  2  0
  9 11  1  0
 11 12  1  0
 12 13  1  0
 13 14  2  0
 13 15  1  0
 15 16  2  0
 16 17  1  0
 17 18  2  0
 18 19  1  0
 19 20  2  0
 20 21  1  0
 21 22  2  0
 22 23  1  0
 23 24  2  0
  7 25  2  0
 25  3  1  0
 24 15  1  0
 23 18  1  0
  1 26  1  0
  1 27  1  0
  1 28  1  0
  4 29  1  0
  5 30  1  0
  6 31  1  0
  8 32  1  0
 11 33  1  0
 11 34  1  0
 12 35  1  0
 16 36  1  0
 17 37  1  0
 19 38  1  0
 20 39  1  0
 21 40  1  0
 22 41  1  0
 25 42  1  0
M  END
>  <smiles>  (45) 
COc1cccc(NC(=O)CNC(=O)c2ccc3ccccc3n2)c1

>  <score_type>  (45) 
oracle

>  <origin>  (45) 
autodockgpu

>  <m_score__min__energy>  (45) 
-8.5299999999999994

>  <m_primary>  (45) 
energy

>  <rmsd>  (45) 
11.067844176460772

>  <m_score__min__rmsd>  (45) 
11.067844176460772

>  <meeko>  (45) 
{"free_energy": -7.73, "intermolecular_energy": -9.22, "internal_energy": -1.94, "cluster_size": 43, "cluster_id": 2, "rank_in_cluster": 31}

>  <energy>  (45) 
-7.63

>  <cluster_rmsd>  (45) 
0.29

>  <cluster>  (45) 
2

$$$$

     RDKit          3D

 42 44  0  0  0  0  0  0  0  0999 V2000
  140.8940   71.8420  228.3530 C   0  0  0  0  0  0  0  0  0  0  0  0
  141.4250   71.2100  227.2070 O   0  0  0  0  0  0  0  0  0  0  0  0
  140.6750   70.9190  226.0700 C   0  0  0  0  0  0  0  0  0  0  0  0
  139.9490   69.7450  225.9430 C   0  0  0  0  0  0  0  0  0  0  0  0
  139.2380   69.5520  224.7730 C   0  0  0  0  0  0  0  0  0  0  0  0
  139.2370   70.4890  223.7460 C   0  0  0  0  0  0  0  0  0  0  0  0
  139.9720   71.6460  223.9050 C   0  0  0  0  0  0  0  0  0  0  0  0
  140.0200   72.6630  222.8810 N   0  0  0  0  0  0  0  0  0  0  0  0
  141.0000   72.6590  221.8620 C   0  0  0  0  0  0  0  0  0  0  0  0
  141.8470   71.7030  221.9070 O   0  0  0  0  0  0  0  0  0  0  0  0
  141.1190   73.6470  220.7830 C   0  0  0  0  0  0  0  0  0  0  0  0
  141.1760   74.9760  221.3090 N   0  0  0  0  0  0  0  0  0  0  0  0
  140.0290   75.6760  221.7980 C   0  0  0  0  0  0  0  0  0  0  0  0
  138.8650   75.1500  221.7860 O   0  0  0  0  0  0  0  0  0  0  0  0
  140.1910   77.0450  222.3330 C   0  0  0  0  0  0  0  0  0  0  0  0
  139.0760   77.7540  222.7250 C   0  0  0  0  0  0  0  0  0  0  0  0
  139.2240   79.0480  223.2300 C   0  0  0  0  0  0  0  0  0  0  0  0
  140.4830   79.6080  223.3340 C   0  0  0  0  0  0  0  0  0  0  0  0
  140.6100   80.8850  223.8340 C   0  0  0  0  0  0  0  0  0  0  0  0
  141.9020   81.4040  223.9180 C   0  0  0  0  0  0  0  0  0  0  0  0
  142.9990   80.6890  223.5250 C   0  0  0  0  0  0  0  0  0  0  0  0
  142.8190   79.4050  223.0270 C   0  0  0  0  0  0  0  0  0  0  0  0
  141.5610   78.8440  222.9220 C   0  0  0  0  0  0  0  0  0  0  0  0
  141.4200   77.6030  222.4380 N   0  0  0  0  0  0  0  0  0  0  0  0
  140.6980   71.8740  225.0660 C   0  0  0  0  0  0  0  0  0  0  0  0
  141.2975   71.3618  229.2567 H   0  0  0  0  0  0  0  0  0  0  0  0
  141.1731   72.9060  228.3474 H   0  0  0  0  0  0  0  0  0  0  0  0
  139.7978   71.7505  228.3474 H   0  0  0  0  0  0  0  0  0  0  0  0
  139.9389   68.9927  226.7455 H   0  0  0  0  0  0  0  0  0  0  0  0
  138.6545   68.6275  224.6509 H   0  0  0  0  0  0  0  0  0  0  0  0
  138.6619   70.3117  222.8252 H   0  0  0  0  0  0  0  0  0  0  0  0
  139.3110   73.3940  222.9400 H   0  0  0  0  0  0  0  0  0  0  0  0
  142.0372   73.4466  220.2114 H   0  0  0  0  0  0  0  0  0  0  0  0
  140.2351   73.5648  220.1334 H   0  0  0  0  0  0  0  0  0  0  0  0
  142.0920   75.5130  221.3610 H   0  0  0  0  0  0  0  0  0  0  0  0
  138.0759   77.3038  222.6408 H   0  0  0  0  0  0  0  0  0  0  0  0
  138.3391   79.6207  223.5446 H   0  0  0  0  0  0  0  0  0  0  0  0
  139.7335   81.4684  224.1523 H   0  0  0  0  0  0  0  0  0  0  0  0
  142.0427   82.4209  224.3130 H   0  0  0  0  0  0  0  0  0  0  0  0
  144.0068   81.1231  223.6019 H   0  0  0  0  0  0  0  0  0  0  0  0
  143.6965   78.8226  222.7095 H   0  0  0  0  0  0  0  0  0  0  0  0
  141.2823   72.7981  225.1872 H   0  0  0  0  0  0  0  0  0  0  0  0
  1  2  1  0
  2  3  1  0
  3  4  2  0
  4  5  1  0
  5  6  2  0
  6  7  1  0
  7  8  1  0
  8  9  1  0
  9 10  2  0
  9 11  1  0
 11 12  1  0
 12 13  1  0
 13 14  2  0
 13 15  1  0
 15 16  2  0
 16 17  1  0
 17 18  2  0
 18 19  1  0
 19 20  2  0
 20 21  1  0
 21 22  2  0
 22 23  1  0
 23 24  2  0
  7 25  2  0
 25  3  1  0
 24 15  1  0
 23 18  1  0
  1 26  1  0
  1 27  1  0
  1 28  1  0
  4 29  1  0
  5 30  1  0
  6 31  1  0
  8 32  1  0
 11 33  1  0
 11 34  1  0
 12 35  1  0
 16 36  1  0
 17 37  1  0
 19 38  1  0
 20 39  1  0
 21 40  1  0
 22 41  1  0
 25 42  1  0
M  END
>  <smiles>  (46) 
COc1cccc(NC(=O)CNC(=O)c2ccc3ccccc3n2)c1

>  <score_type>  (46) 
oracle

>  <origin>  (46) 
autodockgpu

>  <m_score__min__energy>  (46) 
-8.5299999999999994

>  <m_primary>  (46) 
energy

>  <rmsd>  (46) 
10.780889190139547

>  <m_score__min__rmsd>  (46) 
10.780889190139547

>  <meeko>  (46) 
{"free_energy": -7.82, "intermolecular_energy": -9.31, "internal_energy": -1.91, "cluster_size": 43, "cluster_id": 2, "rank_in_cluster": 1}

>  <energy>  (46) 
-7.55

>  <cluster_rmsd>  (46) 
1.45

>  <cluster>  (46) 
2

$$$$

     RDKit          3D

 42 44  0  0  0  0  0  0  0  0999 V2000
  138.4660   67.9240  223.0760 C   0  0  0  0  0  0  0  0  0  0  0  0
  138.8500   68.2370  224.3970 O   0  0  0  0  0  0  0  0  0  0  0  0
  139.4870   69.4230  224.7550 C   0  0  0  0  0  0  0  0  0  0  0  0
  140.0540   69.6110  226.0070 C   0  0  0  0  0  0  0  0  0  0  0  0
  140.6620   70.8260  226.2620 C   0  0  0  0  0  0  0  0  0  0  0  0
  140.7150   71.8390  225.3120 C   0  0  0  0  0  0  0  0  0  0  0  0
  140.1390   71.6200  224.0770 C   0  0  0  0  0  0  0  0  0  0  0  0
  140.1550   72.6250  223.0410 N   0  0  0  0  0  0  0  0  0  0  0  0
  141.0460   72.5610  221.9440 C   0  0  0  0  0  0  0  0  0  0  0  0
  141.8410   71.5610  221.9300 O   0  0  0  0  0  0  0  0  0  0  0  0
  141.1270   73.5330  220.8470 C   0  0  0  0  0  0  0  0  0  0  0  0
  141.1590   74.8710  221.3500 N   0  0  0  0  0  0  0  0  0  0  0  0
  140.0030   75.5540  221.8400 C   0  0  0  0  0  0  0  0  0  0  0  0
  138.8510   75.0030  221.8500 O   0  0  0  0  0  0  0  0  0  0  0  0
  140.1400   76.9360  222.3500 C   0  0  0  0  0  0  0  0  0  0  0  0
  139.0120   77.6330  222.7230 C   0  0  0  0  0  0  0  0  0  0  0  0
  139.1370   78.9390  223.2050 C   0  0  0  0  0  0  0  0  0  0  0  0
  140.3870   79.5210  223.3040 C   0  0  0  0  0  0  0  0  0  0  0  0
  140.4910   80.8090  223.7810 C   0  0  0  0  0  0  0  0  0  0  0  0
  141.7730   81.3490  223.8610 C   0  0  0  0  0  0  0  0  0  0  0  0
  142.8840   80.6450  223.4870 C   0  0  0  0  0  0  0  0  0  0  0  0
  142.7270   79.3500  223.0130 C   0  0  0  0  0  0  0  0  0  0  0  0
  141.4780   78.7660  222.9120 C   0  0  0  0  0  0  0  0  0  0  0  0
  141.3600   77.5150  222.4500 N   0  0  0  0  0  0  0  0  0  0  0  0
  139.5200   70.4120  223.7840 C   0  0  0  0  0  0  0  0  0  0  0  0
  137.6135   67.2291  223.0969 H   0  0  0  0  0  0  0  0  0  0  0  0
  138.1751   68.8456  222.5506 H   0  0  0  0  0  0  0  0  0  0  0  0
  139.3100   67.4532  222.5506 H   0  0  0  0  0  0  0  0  0  0  0  0
  140.0209   68.8202  226.7709 H   0  0  0  0  0  0  0  0  0  0  0  0
  141.1184   70.9965  227.2482 H   0  0  0  0  0  0  0  0  0  0  0  0
  141.2063   72.7964  225.5399 H   0  0  0  0  0  0  0  0  0  0  0  0
  139.4940   73.3940  223.1490 H   0  0  0  0  0  0  0  0  0  0  0  0
  142.0422   73.3449  220.2664 H   0  0  0  0  0  0  0  0  0  0  0  0
  140.2370   73.4187  220.2107 H   0  0  0  0  0  0  0  0  0  0  0  0
  142.0650   75.4290  221.3820 H   0  0  0  0  0  0  0  0  0  0  0  0
  138.0198   77.1651  222.6421 H   0  0  0  0  0  0  0  0  0  0  0  0
  138.2417   79.5031  223.5052 H   0  0  0  0  0  0  0  0  0  0  0  0
  139.6038   81.3842  224.0845 H   0  0  0  0  0  0  0  0  0  0  0  0
  141.8953   82.3753  224.2374 H   0  0  0  0  0  0  0  0  0  0  0  0
  143.8842   81.0969  223.5605 H   0  0  0  0  0  0  0  0  0  0  0  0
  143.6155   78.7760  222.7112 H   0  0  0  0  0  0  0  0  0  0  0  0
  139.0634   70.2426  222.7977 H   0  0  0  0  0  0  0  0  0  0  0  0
  1  2  1  0
  2  3  1  0
  3  4  2  0
  4  5  1  0
  5  6  2  0
  6  7  1  0
  7  8  1  0
  8  9  1  0
  9 10  2  0
  9 11  1  0
 11 12  1  0
 12 13  1  0
 13 14  2  0
 13 15  1  0
 15 16  2  0
 16 17  1  0
 17 18  2  0
 18 19  1  0
 19 20  2  0
 20 21  1  0
 21 22  2  0
 22 23  1  0
 23 24  2  0
  7 25  2  0
 25  3  1  0
 24 15  1  0
 23 18  1  0
  1 26  1  0
  1 27  1  0
  1 28  1  0
  4 29  1  0
  5 30  1  0
  6 31  1  0
  8 32  1  0
 11 33  1  0
 11 34  1  0
 12 35  1  0
 16 36  1  0
 17 37  1  0
 19 38  1  0
 20 39  1  0
 21 40  1  0
 22 41  1  0
 25 42  1  0
M  END
>  <smiles>  (47) 
COc1cccc(NC(=O)CNC(=O)c2ccc3ccccc3n2)c1

>  <score_type>  (47) 
oracle

>  <origin>  (47) 
autodockgpu

>  <m_score__min__energy>  (47) 
-8.5299999999999994

>  <m_primary>  (47) 
energy

>  <rmsd>  (47) 
11.031235058432419

>  <m_score__min__rmsd>  (47) 
11.031235058432419

>  <meeko>  (47) 
{"free_energy": -7.76, "intermolecular_energy": -9.25, "internal_energy": -1.93, "cluster_size": 43, "cluster_id": 2, "rank_in_cluster": 22}

>  <energy>  (47) 
-7.53

>  <cluster_rmsd>  (47) 
1.45

>  <cluster>  (47) 
2

$$$$

     RDKit          3D

 42 44  0  0  0  0  0  0  0  0999 V2000
  138.8080   67.7490  223.1330 C   0  0  0  0  0  0  0  0  0  0  0  0
  138.7920   68.2900  224.4360 O   0  0  0  0  0  0  0  0  0  0  0  0
  139.4450   69.4690  224.7900 C   0  0  0  0  0  0  0  0  0  0  0  0
  140.0130   69.6530  226.0410 C   0  0  0  0  0  0  0  0  0  0  0  0
  140.6380   70.8600  226.2920 C   0  0  0  0  0  0  0  0  0  0  0  0
  140.7080   71.8690  225.3380 C   0  0  0  0  0  0  0  0  0  0  0  0
  140.1310   71.6530  224.1030 C   0  0  0  0  0  0  0  0  0  0  0  0
  140.1630   72.6530  223.0630 N   0  0  0  0  0  0  0  0  0  0  0  0
  141.0590   72.5750  221.9710 C   0  0  0  0  0  0  0  0  0  0  0  0
  141.8440   71.5670  221.9670 O   0  0  0  0  0  0  0  0  0  0  0  0
  141.1560   73.5410  220.8710 C   0  0  0  0  0  0  0  0  0  0  0  0
  141.1840   74.8820  221.3680 N   0  0  0  0  0  0  0  0  0  0  0  0
  140.0230   75.5690  221.8390 C   0  0  0  0  0  0  0  0  0  0  0  0
  138.8700   75.0190  221.8370 O   0  0  0  0  0  0  0  0  0  0  0  0
  140.1550   76.9530  222.3430 C   0  0  0  0  0  0  0  0  0  0  0  0
  139.0240   77.6520  222.7040 C   0  0  0  0  0  0  0  0  0  0  0  0
  139.1450   78.9590  223.1810 C   0  0  0  0  0  0  0  0  0  0  0  0
  140.3930   79.5430  223.2880 C   0  0  0  0  0  0  0  0  0  0  0  0
  140.4930   80.8330  223.7590 C   0  0  0  0  0  0  0  0  0  0  0  0
  141.7750   81.3740  223.8480 C   0  0  0  0  0  0  0  0  0  0  0  0
  142.8890   80.6680  223.4860 C   0  0  0  0  0  0  0  0  0  0  0  0
  142.7360   79.3710  223.0160 C   0  0  0  0  0  0  0  0  0  0  0  0
  141.4880   78.7870  222.9080 C   0  0  0  0  0  0  0  0  0  0  0  0
  141.3740   77.5330  222.4510 N   0  0  0  0  0  0  0  0  0  0  0  0
  139.4940   70.4520  223.8150 C   0  0  0  0  0  0  0  0  0  0  0  0
  138.8405   66.6511  223.1922 H   0  0  0  0  0  0  0  0  0  0  0  0
  137.9003   68.0605  222.5955 H   0  0  0  0  0  0  0  0  0  0  0  0
  139.6958   68.1136  222.5955 H   0  0  0  0  0  0  0  0  0  0  0  0
  139.9679   68.8655  226.8077 H   0  0  0  0  0  0  0  0  0  0  0  0
  141.0948   71.0277  227.2785 H   0  0  0  0  0  0  0  0  0  0  0  0
  141.2129   72.8200  225.5629 H   0  0  0  0  0  0  0  0  0  0  0  0
  139.5100   73.4300  223.1650 H   0  0  0  0  0  0  0  0  0  0  0  0
  142.0783   73.3484  220.3033 H   0  0  0  0  0  0  0  0  0  0  0  0
  140.2741   73.4252  220.2239 H   0  0  0  0  0  0  0  0  0  0  0  0
  142.0900   75.4380  221.4090 H   0  0  0  0  0  0  0  0  0  0  0  0
  138.0324   77.1838  222.6171 H   0  0  0  0  0  0  0  0  0  0  0  0
  138.2469   79.5237  223.4716 H   0  0  0  0  0  0  0  0  0  0  0  0
  139.6031   81.4098  224.0514 H   0  0  0  0  0  0  0  0  0  0  0  0
  141.8942   82.4018  224.2214 H   0  0  0  0  0  0  0  0  0  0  0  0
  143.8886   81.1201  223.5659 H   0  0  0  0  0  0  0  0  0  0  0  0
  143.6268   78.7958  222.7233 H   0  0  0  0  0  0  0  0  0  0  0  0
  139.0361   70.2846  222.8289 H   0  0  0  0  0  0  0  0  0  0  0  0
  1  2  1  0
  2  3  1  0
  3  4  2  0
  4  5  1  0
  5  6  2  0
  6  7  1  0
  7  8  1  0
  8  9  1  0
  9 10  2  0
  9 11  1  0
 11 12  1  0
 12 13  1  0
 13 14  2  0
 13 15  1  0
 15 16  2  0
 16 17  1  0
 17 18  2  0
 18 19  1  0
 19 20  2  0
 20 21  1  0
 21 22  2  0
 22 23  1  0
 23 24  2  0
  7 25  2  0
 25  3  1  0
 24 15  1  0
 23 18  1  0
  1 26  1  0
  1 27  1  0
  1 28  1  0
  4 29  1  0
  5 30  1  0
  6 31  1  0
  8 32  1  0
 11 33  1  0
 11 34  1  0
 12 35  1  0
 16 36  1  0
 17 37  1  0
 19 38  1  0
 20 39  1  0
 21 40  1  0
 22 41  1  0
 25 42  1  0
M  END
>  <smiles>  (48) 
COc1cccc(NC(=O)CNC(=O)c2ccc3ccccc3n2)c1

>  <score_type>  (48) 
oracle

>  <origin>  (48) 
autodockgpu

>  <m_score__min__energy>  (48) 
-8.5299999999999994

>  <m_primary>  (48) 
energy

>  <rmsd>  (48) 
11.073657333681382

>  <m_score__min__rmsd>  (48) 
11.073657333681382

>  <meeko>  (48) 
{"free_energy": -7.75, "intermolecular_energy": -9.24, "internal_energy": -1.93, "cluster_size": 43, "cluster_id": 2, "rank_in_cluster": 25}

>  <energy>  (48) 
-7.51

>  <cluster_rmsd>  (48) 
0.38

>  <cluster>  (48) 
2

$$$$

     RDKit          3D

 42 44  0  0  0  0  0  0  0  0999 V2000
  140.7910   71.8870  228.3470 C   0  0  0  0  0  0  0  0  0  0  0  0
  141.3810   71.2680  227.2240 O   0  0  0  0  0  0  0  0  0  0  0  0
  140.6790   70.9440  226.0640 C   0  0  0  0  0  0  0  0  0  0  0  0
  140.0110   69.7390  225.9160 C   0  0  0  0  0  0  0  0  0  0  0  0
  139.3450   69.5150  224.7250 C   0  0  0  0  0  0  0  0  0  0  0  0
  139.3320   70.4520  223.6990 C   0  0  0  0  0  0  0  0  0  0  0  0
  140.0080   71.6410  223.8790 C   0  0  0  0  0  0  0  0  0  0  0  0
  140.0390   72.6610  222.8580 N   0  0  0  0  0  0  0  0  0  0  0  0
  140.9910   72.6490  221.8110 C   0  0  0  0  0  0  0  0  0  0  0  0
  141.8270   71.6830  221.8300 O   0  0  0  0  0  0  0  0  0  0  0  0
  141.0920   73.6390  220.7330 C   0  0  0  0  0  0  0  0  0  0  0  0
  141.1370   74.9680  221.2590 N   0  0  0  0  0  0  0  0  0  0  0  0
  139.9860   75.6570  221.7510 C   0  0  0  0  0  0  0  0  0  0  0  0
  138.8270   75.1200  221.7410 O   0  0  0  0  0  0  0  0  0  0  0  0
  140.1360   77.0280  222.2860 C   0  0  0  0  0  0  0  0  0  0  0  0
  139.0150   77.7270  222.6780 C   0  0  0  0  0  0  0  0  0  0  0  0
  139.1520   79.0220  223.1830 C   0  0  0  0  0  0  0  0  0  0  0  0
  140.4070   79.5920  223.2880 C   0  0  0  0  0  0  0  0  0  0  0  0
  140.5230   80.8700  223.7880 C   0  0  0  0  0  0  0  0  0  0  0  0
  141.8100   81.3990  223.8730 C   0  0  0  0  0  0  0  0  0  0  0  0
  142.9140   80.6940  223.4800 C   0  0  0  0  0  0  0  0  0  0  0  0
  142.7440   79.4090  222.9820 C   0  0  0  0  0  0  0  0  0  0  0  0
  141.4910   78.8370  222.8760 C   0  0  0  0  0  0  0  0  0  0  0  0
  141.3610   77.5960  222.3920 N   0  0  0  0  0  0  0  0  0  0  0  0
  140.6880   71.9010  225.0620 C   0  0  0  0  0  0  0  0  0  0  0  0
  141.2070   71.4505  229.2670 H   0  0  0  0  0  0  0  0  0  0  0  0
  141.0032   72.9661  228.3246 H   0  0  0  0  0  0  0  0  0  0  0  0
  139.7030   71.7268  228.3246 H   0  0  0  0  0  0  0  0  0  0  0  0
  140.0105   68.9865  226.7183 H   0  0  0  0  0  0  0  0  0  0  0  0
  138.8085   68.5649  224.5854 H   0  0  0  0  0  0  0  0  0  0  0  0
  138.7932   70.2496  222.7616 H   0  0  0  0  0  0  0  0  0  0  0  0
  139.3420   73.4010  222.9390 H   0  0  0  0  0  0  0  0  0  0  0  0
  142.0090   73.4496  220.1557 H   0  0  0  0  0  0  0  0  0  0  0  0
  140.2048   73.5472  220.0892 H   0  0  0  0  0  0  0  0  0  0  0  0
  142.0490   75.5130  221.3090 H   0  0  0  0  0  0  0  0  0  0  0  0
  138.0188   77.2681  222.5937 H   0  0  0  0  0  0  0  0  0  0  0  0
  138.2623   79.5877  223.4968 H   0  0  0  0  0  0  0  0  0  0  0  0
  139.6415   81.4463  224.1054 H   0  0  0  0  0  0  0  0  0  0  0  0
  141.9418   82.4167  224.2691 H   0  0  0  0  0  0  0  0  0  0  0  0
  143.9180   81.1367  223.5570 H   0  0  0  0  0  0  0  0  0  0  0  0
  143.6264   78.8339  222.6649 H   0  0  0  0  0  0  0  0  0  0  0  0
  141.2248   72.8510  225.2011 H   0  0  0  0  0  0  0  0  0  0  0  0
  1  2  1  0
  2  3  1  0
  3  4  2  0
  4  5  1  0
  5  6  2  0
  6  7  1  0
  7  8  1  0
  8  9  1  0
  9 10  2  0
  9 11  1  0
 11 12  1  0
 12 13  1  0
 13 14  2  0
 13 15  1  0
 15 16  2  0
 16 17  1  0
 17 18  2  0
 18 19  1  0
 19 20  2  0
 20 21  1  0
 21 22  2  0
 22 23  1  0
 23 24  2  0
  7 25  2  0
 25  3  1  0
 24 15  1  0
 23 18  1  0
  1 26  1  0
  1 27  1  0
  1 28  1  0
  4 29  1  0
  5 30  1  0
  6 31  1  0
  8 32  1  0
 11 33  1  0
 11 34  1  0
 12 35  1  0
 16 36  1  0
 17 37  1  0
 19 38  1  0
 20 39  1  0
 21 40  1  0
 22 41  1  0
 25 42  1  0
M  END
>  <smiles>  (49) 
COc1cccc(NC(=O)CNC(=O)c2ccc3ccccc3n2)c1

>  <score_type>  (49) 
oracle

>  <origin>  (49) 
autodockgpu

>  <m_score__min__energy>  (49) 
-8.5299999999999994

>  <m_primary>  (49) 
energy

>  <rmsd>  (49) 
10.761108322488361

>  <m_score__min__rmsd>  (49) 
10.761108322488361

>  <meeko>  (49) 
{"free_energy": -7.76, "intermolecular_energy": -9.25, "internal_energy": -1.91, "cluster_size": 43, "cluster_id": 2, "rank_in_cluster": 18}

>  <energy>  (49) 
-7.5

>  <cluster_rmsd>  (49) 
1.54

>  <cluster>  (49) 
2

$$$$

     RDKit          3D

 42 44  0  0  0  0  0  0  0  0999 V2000
  138.6740   67.7970  223.1220 C   0  0  0  0  0  0  0  0  0  0  0  0
  138.8460   68.2460  224.4490 O   0  0  0  0  0  0  0  0  0  0  0  0
  139.4830   69.4390  224.7840 C   0  0  0  0  0  0  0  0  0  0  0  0
  140.0760   69.6400  226.0210 C   0  0  0  0  0  0  0  0  0  0  0  0
  140.6830   70.8600  226.2530 C   0  0  0  0  0  0  0  0  0  0  0  0
  140.7110   71.8650  225.2940 C   0  0  0  0  0  0  0  0  0  0  0  0
  140.1100   71.6330  224.0730 C   0  0  0  0  0  0  0  0  0  0  0  0
  140.0990   72.6290  223.0290 N   0  0  0  0  0  0  0  0  0  0  0  0
  141.0140   72.5990  221.9500 C   0  0  0  0  0  0  0  0  0  0  0  0
  141.8560   71.6390  221.9620 O   0  0  0  0  0  0  0  0  0  0  0  0
  141.0700   73.5650  220.8470 C   0  0  0  0  0  0  0  0  0  0  0  0
  141.1270   74.9060  221.3420 N   0  0  0  0  0  0  0  0  0  0  0  0
  139.9890   75.6030  221.8550 C   0  0  0  0  0  0  0  0  0  0  0  0
  138.8320   75.0620  221.8940 O   0  0  0  0  0  0  0  0  0  0  0  0
  140.1500   76.9850  222.3540 C   0  0  0  0  0  0  0  0  0  0  0  0
  139.0350   77.7040  222.7270 C   0  0  0  0  0  0  0  0  0  0  0  0
  139.1830   79.0100  223.1980 C   0  0  0  0  0  0  0  0  0  0  0  0
  140.4430   79.5730  223.2890 C   0  0  0  0  0  0  0  0  0  0  0  0
  140.5690   80.8620  223.7550 C   0  0  0  0  0  0  0  0  0  0  0  0
  141.8610   81.3820  223.8270 C   0  0  0  0  0  0  0  0  0  0  0  0
  142.9590   80.6570  223.4530 C   0  0  0  0  0  0  0  0  0  0  0  0
  142.7780   79.3620  222.9880 C   0  0  0  0  0  0  0  0  0  0  0  0
  141.5200   78.7980  222.8970 C   0  0  0  0  0  0  0  0  0  0  0  0
  141.3800   77.5450  222.4450 N   0  0  0  0  0  0  0  0  0  0  0  0
  139.4910   70.4190  223.8040 C   0  0  0  0  0  0  0  0  0  0  0  0
  138.2805   66.7698  223.1306 H   0  0  0  0  0  0  0  0  0  0  0  0
  137.9650   68.4569  222.6006 H   0  0  0  0  0  0  0  0  0  0  0  0
  139.6424   67.8143  222.6006 H   0  0  0  0  0  0  0  0  0  0  0  0
  140.0639   68.8552  226.7917 H   0  0  0  0  0  0  0  0  0  0  0  0
  141.1591   71.0410  227.2280 H   0  0  0  0  0  0  0  0  0  0  0  0
  141.2024   72.8266  225.5035 H   0  0  0  0  0  0  0  0  0  0  0  0
  139.3990   73.3660  223.1170 H   0  0  0  0  0  0  0  0  0  0  0  0
  141.9662   73.3670  220.2407 H   0  0  0  0  0  0  0  0  0  0  0  0
  140.1605   73.4547  220.2382 H   0  0  0  0  0  0  0  0  0  0  0  0
  142.0370   75.4550  221.3510 H   0  0  0  0  0  0  0  0  0  0  0  0
  138.0349   77.2519  222.6541 H   0  0  0  0  0  0  0  0  0  0  0  0
  138.2979   79.5909  223.4966 H   0  0  0  0  0  0  0  0  0  0  0  0
  139.6922   81.4539  224.0564 H   0  0  0  0  0  0  0  0  0  0  0  0
  142.0017   82.4085  224.1965 H   0  0  0  0  0  0  0  0  0  0  0  0
  143.9669   81.0924  223.5196 H   0  0  0  0  0  0  0  0  0  0  0  0
  143.6554   78.7716  222.6852 H   0  0  0  0  0  0  0  0  0  0  0  0
  139.0149   70.2383  222.8290 H   0  0  0  0  0  0  0  0  0  0  0  0
  1  2  1  0
  2  3  1  0
  3  4  2  0
  4  5  1  0
  5  6  2  0
  6  7  1  0
  7  8  1  0
  8  9  1  0
  9 10  2  0
  9 11  1  0
 11 12  1  0
 12 13  1  0
 13 14  2  0
 13 15  1  0
 15 16  2  0
 16 17  1  0
 17 18  2  0
 18 19  1  0
 19 20  2  0
 20 21  1  0
 21 22  2  0
 22 23  1  0
 23 24  2  0
  7 25  2  0
 25  3  1  0
 24 15  1  0
 23 18  1  0
  1 26  1  0
  1 27  1  0
  1 28  1  0
  4 29  1  0
  5 30  1  0
  6 31  1  0
  8 32  1  0
 11 33  1  0
 11 34  1  0
 12 35  1  0
 16 36  1  0
 17 37  1  0
 19 38  1  0
 20 39  1  0
 21 40  1  0
 22 41  1  0
 25 42  1  0
M  END
>  <smiles>  (50) 
COc1cccc(NC(=O)CNC(=O)c2ccc3ccccc3n2)c1

>  <score_type>  (50) 
oracle

>  <origin>  (50) 
autodockgpu

>  <m_score__min__energy>  (50) 
-8.5299999999999994

>  <m_primary>  (50) 
energy

>  <rmsd>  (50) 
11.070522484410398

>  <m_score__min__rmsd>  (50) 
11.070522484410398

>  <meeko>  (50) 
{"free_energy": -7.77, "intermolecular_energy": -9.27, "internal_energy": -1.93, "cluster_size": 43, "cluster_id": 2, "rank_in_cluster": 11}

>  <energy>  (50) 
-7.45

>  <cluster_rmsd>  (50) 
0.48

>  <cluster>  (50) 
2

$$$$
