
     RDKit          3D

 42 45  0  0  0  0  0  0  0  0999 V2000
  139.2080   67.1140  226.4800 N   0  0  0  0  0  0  0  0  0  0  0  0
  139.5370   68.1480  226.0650 C   0  0  0  0  0  0  0  0  0  0  0  0
  139.9330   69.4250  225.5660 C   0  0  0  0  0  0  0  0  0  0  0  0
  140.4210   70.3440  226.4600 C   0  0  0  0  0  0  0  0  0  0  0  0
  140.8150   71.5950  226.0190 C   0  0  0  0  0  0  0  0  0  0  0  0
  140.7060   71.8930  224.6600 C   0  0  0  0  0  0  0  0  0  0  0  0
  140.2200   70.9890  223.7440 C   0  0  0  0  0  0  0  0  0  0  0  0
  140.1060   71.2890  222.3470 C   0  0  0  0  0  0  0  0  0  0  0  0
  141.0640   71.8060  221.5940 C   0  0  0  0  0  0  0  0  0  0  0  0
  141.1150   73.2650  221.3510 C   0  0  0  0  0  0  0  0  0  0  0  0
  140.3400   74.0870  222.0990 N   0  0  0  0  0  0  0  0  0  0  0  0
  140.3300   75.4350  221.9390 C   0  0  0  0  0  0  0  0  0  0  0  0
  139.5290   76.2430  222.7160 C   0  0  0  0  0  0  0  0  0  0  0  0
  139.5830   77.6020  222.4860 C   0  0  0  0  0  0  0  0  0  0  0  0
  140.4150   78.0970  221.5110 C   0  0  0  0  0  0  0  0  0  0  0  0
  141.2260   77.3060  220.7220 C   0  0  0  0  0  0  0  0  0  0  0  0
  141.1670   75.9280  220.9590 C   0  0  0  0  0  0  0  0  0  0  0  0
  141.9510   75.0810  220.2060 C   0  0  0  0  0  0  0  0  0  0  0  0
  142.7070   75.5510  219.3190 O   0  0  0  0  0  0  0  0  0  0  0  0
  141.9370   73.7270  220.3930 N   0  0  0  0  0  0  0  0  0  0  0  0
  142.7740   72.9200  219.5760 C   0  0  0  0  0  0  0  0  0  0  0  0
  144.2190   73.0620  219.8880 C   0  0  0  0  0  0  0  0  0  0  0  0
  144.8450   73.8260  220.8490 C   0  0  0  0  0  0  0  0  0  0  0  0
  146.2090   73.5890  220.7080 C   0  0  0  0  0  0  0  0  0  0  0  0
  146.4070   72.7390  219.7280 O   0  0  0  0  0  0  0  0  0  0  0  0
  145.2490   72.4060  219.2200 C   0  0  0  0  0  0  0  0  0  0  0  0
  139.8390   69.7550  224.2270 C   0  0  0  0  0  0  0  0  0  0  0  0
  140.4990   70.0866  227.5266 H   0  0  0  0  0  0  0  0  0  0  0  0
  141.2068   72.3407  226.7264 H   0  0  0  0  0  0  0  0  0  0  0  0
  141.0201   72.8869  224.3085 H   0  0  0  0  0  0  0  0  0  0  0  0
  139.1435   71.0718  221.8608 H   0  0  0  0  0  0  0  0  0  0  0  0
  141.8248   71.1490  221.1473 H   0  0  0  0  0  0  0  0  0  0  0  0
  138.8716   75.8205  223.4902 H   0  0  0  0  0  0  0  0  0  0  0  0
  138.9618   78.2874  223.0813 H   0  0  0  0  0  0  0  0  0  0  0  0
  140.4361   79.1850  221.3500 H   0  0  0  0  0  0  0  0  0  0  0  0
  141.8819   77.7349  219.9501 H   0  0  0  0  0  0  0  0  0  0  0  0
  142.4888   71.8671  219.7178 H   0  0  0  0  0  0  0  0  0  0  0  0
  142.6323   73.2537  218.5375 H   0  0  0  0  0  0  0  0  0  0  0  0
  144.3629   74.4904  221.5812 H   0  0  0  0  0  0  0  0  0  0  0  0
  146.9993   74.0440  221.3231 H   0  0  0  0  0  0  0  0  0  0  0  0
  145.1087   71.7063  218.3829 H   0  0  0  0  0  0  0  0  0  0  0  0
  139.4466   69.0071  223.5222 H   0  0  0  0  0  0  0  0  0  0  0  0
  1  2  3  0
  2  3  1  0
  3  4  2  0
  4  5  1  0
  5  6  2  0
  6  7  1  0
  7  8  1  0
  8  9  2  0
  9 10  1  0
 10 11  2  0
 11 12  1  0
 12 13  2  0
 13 14  1  0
 14 15  2  0
 15 16  1  0
 16 17  2  0
 17 18  1  0
 18 19  2  0
 18 20  1  0
 20 21  1  0
 21 22  1  0
 22 23  1  0
 23 24  2  0
 24 25  1  0
 25 26  1  0
  7 27  2  0
 27  3  1  0
 20 10  1  0
 26 22  2  0
 17 12  1  0
  4 28  1  0
  5 29  1  0
  6 30  1  0
  8 31  1  0
  9 32  1  0
 13 33  1  0
 14 34  1  0
 15 35  1  0
 16 36  1  0
 21 37  1  0
 21 38  1  0
 23 39  1  0
 24 40  1  0
 26 41  1  0
 27 42  1  0
M  END
>  <smiles>  (1) 
N#Cc1cccc(/C=C/c2nc3ccccc3c(=O)n2Cc2ccoc2)c1

>  <score_type>  (1) 
oracle

>  <origin>  (1) 
autodockgpu

>  <m_score__min__energy>  (1) 
-8.9199999999999999

>  <m_primary>  (1) 
energy

>  <rmsd>  (1) 
7.296732944668299

>  <m_score__min__rmsd>  (1) 
7.296732944668299

>  <meeko>  (1) 
{"free_energy": -8.23, "intermolecular_energy": -10.02, "internal_energy": -1.03, "cluster_size": 26, "cluster_id": 1, "rank_in_cluster": 18}

>  <energy>  (1) 
-8.92

>  <cluster_rmsd>  (1) 
0.0

>  <cluster>  (1) 
1

$$$$

     RDKit          3D

 42 45  0  0  0  0  0  0  0  0999 V2000
  145.1340   72.0500  219.9920 N   0  0  0  0  0  0  0  0  0  0  0  0
  144.1650   72.6180  220.2890 C   0  0  0  0  0  0  0  0  0  0  0  0
  142.9830   73.3240  220.6640 C   0  0  0  0  0  0  0  0  0  0  0  0
  142.9550   74.6830  220.4740 C   0  0  0  0  0  0  0  0  0  0  0  0
  141.8290   75.4060  220.8260 C   0  0  0  0  0  0  0  0  0  0  0  0
  140.7380   74.7270  221.3690 C   0  0  0  0  0  0  0  0  0  0  0  0
  140.7410   73.3660  221.5690 C   0  0  0  0  0  0  0  0  0  0  0  0
  139.6230   72.6640  222.1260 C   0  0  0  0  0  0  0  0  0  0  0  0
  139.5520   71.3530  222.3010 C   0  0  0  0  0  0  0  0  0  0  0  0
  139.7480   70.7690  223.6460 C   0  0  0  0  0  0  0  0  0  0  0  0
  140.3060   71.5270  224.6200 N   0  0  0  0  0  0  0  0  0  0  0  0
  140.5190   71.0660  225.8790 C   0  0  0  0  0  0  0  0  0  0  0  0
  141.0900   71.8620  226.8470 C   0  0  0  0  0  0  0  0  0  0  0  0
  141.2680   71.3120  228.1000 C   0  0  0  0  0  0  0  0  0  0  0  0
  140.8800   70.0150  228.3380 C   0  0  0  0  0  0  0  0  0  0  0  0
  140.3070   69.2000  227.3830 C   0  0  0  0  0  0  0  0  0  0  0  0
  140.1280   69.7630  226.1140 C   0  0  0  0  0  0  0  0  0  0  0  0
  139.5610   69.0030  225.1140 C   0  0  0  0  0  0  0  0  0  0  0  0
  139.2120   67.8190  225.3490 O   0  0  0  0  0  0  0  0  0  0  0  0
  139.3610   69.4980  223.8560 N   0  0  0  0  0  0  0  0  0  0  0  0
  138.7710   68.6530  222.8790 C   0  0  0  0  0  0  0  0  0  0  0  0
  137.2960   68.5340  223.0130 C   0  0  0  0  0  0  0  0  0  0  0  0
  136.4200   69.2500  223.7990 C   0  0  0  0  0  0  0  0  0  0  0  0
  135.1530   68.7330  223.5400 C   0  0  0  0  0  0  0  0  0  0  0  0
  135.2460   67.7670  222.6570 O   0  0  0  0  0  0  0  0  0  0  0  0
  136.5020   67.6220  222.3230 C   0  0  0  0  0  0  0  0  0  0  0  0
  141.8840   72.6850  221.2050 C   0  0  0  0  0  0  0  0  0  0  0  0
  143.8267   75.1968  220.0424 H   0  0  0  0  0  0  0  0  0  0  0  0
  141.7947   76.4958  220.6804 H   0  0  0  0  0  0  0  0  0  0  0  0
  139.8421   75.3012  221.6476 H   0  0  0  0  0  0  0  0  0  0  0  0
  138.7528   73.2626  222.4333 H   0  0  0  0  0  0  0  0  0  0  0  0
  139.3465   70.6960  221.4430 H   0  0  0  0  0  0  0  0  0  0  0  0
  141.3927   72.8969  226.6296 H   0  0  0  0  0  0  0  0  0  0  0  0
  141.7190   71.9096  228.9059 H   0  0  0  0  0  0  0  0  0  0  0  0
  141.0349   69.6035  229.3463 H   0  0  0  0  0  0  0  0  0  0  0  0
  140.0076   68.1654  227.6066 H   0  0  0  0  0  0  0  0  0  0  0  0
  138.9986   69.0603  221.8829 H   0  0  0  0  0  0  0  0  0  0  0  0
  139.1918   67.6470  223.0238 H   0  0  0  0  0  0  0  0  0  0  0  0
  136.6709   70.0664  224.4922 H   0  0  0  0  0  0  0  0  0  0  0  0
  134.2184   69.0809  224.0042 H   0  0  0  0  0  0  0  0  0  0  0  0
  136.8780   66.8839  221.5992 H   0  0  0  0  0  0  0  0  0  0  0  0
  141.9218   71.5953  221.3505 H   0  0  0  0  0  0  0  0  0  0  0  0
  1  2  3  0
  2  3  1  0
  3  4  2  0
  4  5  1  0
  5  6  2  0
  6  7  1  0
  7  8  1  0
  8  9  2  0
  9 10  1  0
 10 11  2  0
 11 12  1  0
 12 13  2  0
 13 14  1  0
 14 15  2  0
 15 16  1  0
 16 17  2  0
 17 18  1  0
 18 19  2  0
 18 20  1  0
 20 21  1  0
 21 22  1  0
 22 23  1  0
 23 24  2  0
 24 25  1  0
 25 26  1  0
  7 27  2  0
 27  3  1  0
 20 10  1  0
 26 22  2  0
 17 12  1  0
  4 28  1  0
  5 29  1  0
  6 30  1  0
  8 31  1  0
  9 32  1  0
 13 33  1  0
 14 34  1  0
 15 35  1  0
 16 36  1  0
 21 37  1  0
 21 38  1  0
 23 39  1  0
 24 40  1  0
 26 41  1  0
 27 42  1  0
M  END
>  <smiles>  (2) 
N#Cc1cccc(/C=C/c2nc3ccccc3c(=O)n2Cc2ccoc2)c1

>  <score_type>  (2) 
oracle

>  <origin>  (2) 
autodockgpu

>  <m_score__min__energy>  (2) 
-8.9199999999999999

>  <m_primary>  (2) 
energy

>  <rmsd>  (2) 
12.120416479266131

>  <m_score__min__rmsd>  (2) 
12.120416479266131

>  <meeko>  (2) 
{"free_energy": -7.48, "intermolecular_energy": -9.27, "internal_energy": -1.06, "cluster_size": 16, "cluster_id": 2, "rank_in_cluster": 16}

>  <energy>  (2) 
-8.91

>  <cluster_rmsd>  (2) 
0.08

>  <cluster>  (2) 
1

$$$$

     RDKit          3D

 42 45  0  0  0  0  0  0  0  0999 V2000
  141.0490   68.2310  228.2880 N   0  0  0  0  0  0  0  0  0  0  0  0
  140.6000   68.6520  227.3030 C   0  0  0  0  0  0  0  0  0  0  0  0
  140.0590   69.1630  226.0850 C   0  0  0  0  0  0  0  0  0  0  0  0
  138.9500   68.5460  225.5630 C   0  0  0  0  0  0  0  0  0  0  0  0
  138.3950   69.0090  224.3830 C   0  0  0  0  0  0  0  0  0  0  0  0
  138.9810   70.1040  223.7490 C   0  0  0  0  0  0  0  0  0  0  0  0
  140.0920   70.7410  224.2530 C   0  0  0  0  0  0  0  0  0  0  0  0
  140.6990   71.8660  223.6060 C   0  0  0  0  0  0  0  0  0  0  0  0
  140.7040   72.0890  222.3010 C   0  0  0  0  0  0  0  0  0  0  0  0
  141.0140   73.4370  221.7760 C   0  0  0  0  0  0  0  0  0  0  0  0
  140.3520   74.5080  222.2750 N   0  0  0  0  0  0  0  0  0  0  0  0
  140.5790   75.7770  221.8490 C   0  0  0  0  0  0  0  0  0  0  0  0
  139.8870   76.8450  222.3770 C   0  0  0  0  0  0  0  0  0  0  0  0
  140.1830   78.1000  221.8850 C   0  0  0  0  0  0  0  0  0  0  0  0
  141.1360   78.2430  220.9050 C   0  0  0  0  0  0  0  0  0  0  0  0
  141.8400   77.1870  220.3630 C   0  0  0  0  0  0  0  0  0  0  0  0
  141.5360   75.9160  220.8650 C   0  0  0  0  0  0  0  0  0  0  0  0
  142.2030   74.8170  220.3670 C   0  0  0  0  0  0  0  0  0  0  0  0
  143.0720   74.9670  219.4710 O   0  0  0  0  0  0  0  0  0  0  0  0
  141.9500   73.5530  220.8180 N   0  0  0  0  0  0  0  0  0  0  0  0
  142.6790   72.4710  220.2540 C   0  0  0  0  0  0  0  0  0  0  0  0
  144.1490   72.6860  220.2530 C   0  0  0  0  0  0  0  0  0  0  0  0
  144.9630   73.2340  221.2210 C   0  0  0  0  0  0  0  0  0  0  0  0
  146.2570   73.1950  220.7090 C   0  0  0  0  0  0  0  0  0  0  0  0
  146.2390   72.6600  219.5120 O   0  0  0  0  0  0  0  0  0  0  0  0
  145.0050   72.3460  219.2100 C   0  0  0  0  0  0  0  0  0  0  0  0
  140.6140   70.2460  225.4300 C   0  0  0  0  0  0  0  0  0  0  0  0
  138.5031   67.6850  226.0816 H   0  0  0  0  0  0  0  0  0  0  0  0
  137.5074   68.5220  223.9528 H   0  0  0  0  0  0  0  0  0  0  0  0
  138.5390   70.4722  222.8114 H   0  0  0  0  0  0  0  0  0  0  0  0
  141.2024   72.6054  224.2463 H   0  0  0  0  0  0  0  0  0  0  0  0
  140.4767   71.2687  221.6042 H   0  0  0  0  0  0  0  0  0  0  0  0
  139.1280   76.7029  223.1604 H   0  0  0  0  0  0  0  0  0  0  0  0
  139.6575   78.9836  222.2762 H   0  0  0  0  0  0  0  0  0  0  0  0
  141.3495   79.2555  220.5319 H   0  0  0  0  0  0  0  0  0  0  0  0
  142.5980   77.3357  219.5799 H   0  0  0  0  0  0  0  0  0  0  0  0
  142.4600   71.5628  220.8347 H   0  0  0  0  0  0  0  0  0  0  0  0
  142.3638   72.3797  219.2041 H   0  0  0  0  0  0  0  0  0  0  0  0
  144.6524   73.6240  222.2015 H   0  0  0  0  0  0  0  0  0  0  0  0
  147.1563   73.5573  221.2287 H   0  0  0  0  0  0  0  0  0  0  0  0
  144.6891   71.8793  218.2653 H   0  0  0  0  0  0  0  0  0  0  0  0
  141.5024   70.7298  225.8620 H   0  0  0  0  0  0  0  0  0  0  0  0
  1  2  3  0
  2  3  1  0
  3  4  2  0
  4  5  1  0
  5  6  2  0
  6  7  1  0
  7  8  1  0
  8  9  2  0
  9 10  1  0
 10 11  2  0
 11 12  1  0
 12 13  2  0
 13 14  1  0
 14 15  2  0
 15 16  1  0
 16 17  2  0
 17 18  1  0
 18 19  2  0
 18 20  1  0
 20 21  1  0
 21 22  1  0
 22 23  1  0
 23 24  2  0
 24 25  1  0
 25 26  1  0
  7 27  2  0
 27  3  1  0
 20 10  1  0
 26 22  2  0
 17 12  1  0
  4 28  1  0
  5 29  1  0
  6 30  1  0
  8 31  1  0
  9 32  1  0
 13 33  1  0
 14 34  1  0
 15 35  1  0
 16 36  1  0
 21 37  1  0
 21 38  1  0
 23 39  1  0
 24 40  1  0
 26 41  1  0
 27 42  1  0
M  END
>  <smiles>  (3) 
N#Cc1cccc(/C=C/c2nc3ccccc3c(=O)n2Cc2ccoc2)c1

>  <score_type>  (3) 
oracle

>  <origin>  (3) 
autodockgpu

>  <m_score__min__energy>  (3) 
-8.9199999999999999

>  <m_primary>  (3) 
energy

>  <rmsd>  (3) 
7.403616058385179

>  <m_score__min__rmsd>  (3) 
7.403616058385179

>  <meeko>  (3) 
{"free_energy": -8.15, "intermolecular_energy": -9.94, "internal_energy": -0.69, "cluster_size": 26, "cluster_id": 1, "rank_in_cluster": 21}

>  <energy>  (3) 
-8.68

>  <cluster_rmsd>  (3) 
0.29

>  <cluster>  (3) 
1

$$$$

     RDKit          3D

 42 45  0  0  0  0  0  0  0  0999 V2000
  133.3240   71.8480  227.2740 N   0  0  0  0  0  0  0  0  0  0  0  0
  133.9350   72.2770  226.3850 C   0  0  0  0  0  0  0  0  0  0  0  0
  134.7000   72.8030  225.3000 C   0  0  0  0  0  0  0  0  0  0  0  0
  134.6280   74.1520  225.0550 C   0  0  0  0  0  0  0  0  0  0  0  0
  135.3520   74.7030  224.0130 C   0  0  0  0  0  0  0  0  0  0  0  0
  136.1460   73.8650  223.2290 C   0  0  0  0  0  0  0  0  0  0  0  0
  136.2340   72.5100  223.4550 C   0  0  0  0  0  0  0  0  0  0  0  0
  137.0480   71.6440  222.6540 C   0  0  0  0  0  0  0  0  0  0  0  0
  138.3560   71.4870  222.7820 C   0  0  0  0  0  0  0  0  0  0  0  0
  138.9080   70.7600  223.9470 C   0  0  0  0  0  0  0  0  0  0  0  0
  139.5070   71.4620  224.9390 N   0  0  0  0  0  0  0  0  0  0  0  0
  140.0370   70.8710  226.0400 C   0  0  0  0  0  0  0  0  0  0  0  0
  140.6410   71.6130  227.0320 C   0  0  0  0  0  0  0  0  0  0  0  0
  141.1510   70.9290  228.1160 C   0  0  0  0  0  0  0  0  0  0  0  0
  141.0450   69.5600  228.1730 C   0  0  0  0  0  0  0  0  0  0  0  0
  140.4450   68.7980  227.1910 C   0  0  0  0  0  0  0  0  0  0  0  0
  139.9290   69.4960  226.0940 C   0  0  0  0  0  0  0  0  0  0  0  0
  139.3160   68.7950  225.0770 C   0  0  0  0  0  0  0  0  0  0  0  0
  139.2280   67.5430  225.1460 O   0  0  0  0  0  0  0  0  0  0  0  0
  138.7930   69.4210  223.9810 N   0  0  0  0  0  0  0  0  0  0  0  0
  138.1770   68.6290  222.9750 C   0  0  0  0  0  0  0  0  0  0  0  0
  136.7130   68.4670  223.1640 C   0  0  0  0  0  0  0  0  0  0  0  0
  135.7690   67.9130  222.3260 C   0  0  0  0  0  0  0  0  0  0  0  0
  134.5500   68.0140  222.9910 C   0  0  0  0  0  0  0  0  0  0  0  0
  134.7330   68.5900  224.1560 O   0  0  0  0  0  0  0  0  0  0  0  0
  136.0030   68.8720  224.2910 C   0  0  0  0  0  0  0  0  0  0  0  0
  135.4960   72.0030  224.5030 C   0  0  0  0  0  0  0  0  0  0  0  0
  133.9956   74.7936  225.6862 H   0  0  0  0  0  0  0  0  0  0  0  0
  135.3027   75.7823  223.8061 H   0  0  0  0  0  0  0  0  0  0  0  0
  136.7222   74.3029  222.4007 H   0  0  0  0  0  0  0  0  0  0  0  0
  136.5443   71.0619  221.8682 H   0  0  0  0  0  0  0  0  0  0  0  0
  139.0348   71.8981  222.0202 H   0  0  0  0  0  0  0  0  0  0  0  0
  140.7136   72.7084  226.9621 H   0  0  0  0  0  0  0  0  0  0  0  0
  141.6415   71.4783  228.9331 H   0  0  0  0  0  0  0  0  0  0  0  0
  141.4615   69.0428  229.0500 H   0  0  0  0  0  0  0  0  0  0  0  0
  140.3764   67.7028  227.2668 H   0  0  0  0  0  0  0  0  0  0  0  0
  138.3516   69.1069  221.9998 H   0  0  0  0  0  0  0  0  0  0  0  0
  138.6243   67.6257  223.0333 H   0  0  0  0  0  0  0  0  0  0  0  0
  135.9439   67.4781  221.3309 H   0  0  0  0  0  0  0  0  0  0  0  0
  133.5828   67.6649  222.6003 H   0  0  0  0  0  0  0  0  0  0  0  0
  136.4474   69.3603  225.1708 H   0  0  0  0  0  0  0  0  0  0  0  0
  135.5424   70.9240  224.7120 H   0  0  0  0  0  0  0  0  0  0  0  0
  1  2  3  0
  2  3  1  0
  3  4  2  0
  4  5  1  0
  5  6  2  0
  6  7  1  0
  7  8  1  0
  8  9  2  0
  9 10  1  0
 10 11  2  0
 11 12  1  0
 12 13  2  0
 13 14  1  0
 14 15  2  0
 15 16  1  0
 16 17  2  0
 17 18  1  0
 18 19  2  0
 18 20  1  0
 20 21  1  0
 21 22  1  0
 22 23  1  0
 23 24  2  0
 24 25  1  0
 25 26  1  0
  7 27  2  0
 27  3  1  0
 20 10  1  0
 26 22  2  0
 17 12  1  0
  4 28  1  0
  5 29  1  0
  6 30  1  0
  8 31  1  0
  9 32  1  0
 13 33  1  0
 14 34  1  0
 15 35  1  0
 16 36  1  0
 21 37  1  0
 21 38  1  0
 23 39  1  0
 24 40  1  0
 26 41  1  0
 27 42  1  0
M  END
>  <smiles>  (4) 
N#Cc1cccc(/C=C/c2nc3ccccc3c(=O)n2Cc2ccoc2)c1

>  <score_type>  (4) 
oracle

>  <origin>  (4) 
autodockgpu

>  <m_score__min__energy>  (4) 
-8.9199999999999999

>  <m_primary>  (4) 
energy

>  <rmsd>  (4) 
12.32419467814019

>  <m_score__min__rmsd>  (4) 
12.32419467814019

>  <meeko>  (4) 
{"free_energy": -6.84, "intermolecular_energy": -8.63, "internal_energy": -1.48, "cluster_size": 6, "cluster_id": 3, "rank_in_cluster": 3}

>  <energy>  (4) 
-8.65

>  <cluster_rmsd>  (4) 
0.37

>  <cluster>  (4) 
1

$$$$

     RDKit          3D

 42 45  0  0  0  0  0  0  0  0999 V2000
  146.3160   73.0610  219.5060 N   0  0  0  0  0  0  0  0  0  0  0  0
  145.2330   73.3080  219.8460 C   0  0  0  0  0  0  0  0  0  0  0  0
  143.9020   73.6240  220.2550 C   0  0  0  0  0  0  0  0  0  0  0  0
  143.4850   74.9270  220.1420 C   0  0  0  0  0  0  0  0  0  0  0  0
  142.2040   75.2760  220.5280 C   0  0  0  0  0  0  0  0  0  0  0  0
  141.3580   74.2850  221.0260 C   0  0  0  0  0  0  0  0  0  0  0  0
  141.7520   72.9720  221.1480 C   0  0  0  0  0  0  0  0  0  0  0  0
  140.8880   71.9500  221.6580 C   0  0  0  0  0  0  0  0  0  0  0  0
  139.8810   72.1440  222.4960 C   0  0  0  0  0  0  0  0  0  0  0  0
  139.7940   71.3650  223.7510 C   0  0  0  0  0  0  0  0  0  0  0  0
  140.4740   71.7910  224.8410 N   0  0  0  0  0  0  0  0  0  0  0  0
  140.4450   71.1350  226.0290 C   0  0  0  0  0  0  0  0  0  0  0  0
  141.1490   71.5940  227.1210 C   0  0  0  0  0  0  0  0  0  0  0  0
  141.0610   70.8640  228.2880 C   0  0  0  0  0  0  0  0  0  0  0  0
  140.2920   69.7260  228.3260 C   0  0  0  0  0  0  0  0  0  0  0  0
  139.5790   69.2480  227.2450 C   0  0  0  0  0  0  0  0  0  0  0  0
  139.6720   69.9920  226.0630 C   0  0  0  0  0  0  0  0  0  0  0  0
  138.9840   69.5700  224.9450 C   0  0  0  0  0  0  0  0  0  0  0  0
  138.2860   68.5270  224.9980 O   0  0  0  0  0  0  0  0  0  0  0  0
  139.0350   70.2550  223.7640 N   0  0  0  0  0  0  0  0  0  0  0  0
  138.2990   69.7560  222.6560 C   0  0  0  0  0  0  0  0  0  0  0  0
  138.9570   68.6100  221.9780 C   0  0  0  0  0  0  0  0  0  0  0  0
  139.8260   68.5960  220.9090 C   0  0  0  0  0  0  0  0  0  0  0  0
  140.1390   67.2590  220.6790 C   0  0  0  0  0  0  0  0  0  0  0  0
  139.5070   66.5050  221.5450 O   0  0  0  0  0  0  0  0  0  0  0  0
  138.7960   67.2730  222.3310 C   0  0  0  0  0  0  0  0  0  0  0  0
  143.0380   72.6680  220.7520 C   0  0  0  0  0  0  0  0  0  0  0  0
  144.1686   75.6919  219.7451 H   0  0  0  0  0  0  0  0  0  0  0  0
  141.8581   76.3168  220.4439 H   0  0  0  0  0  0  0  0  0  0  0  0
  140.3388   74.5631  221.3324 H   0  0  0  0  0  0  0  0  0  0  0  0
  141.0764   70.9183  221.3262 H   0  0  0  0  0  0  0  0  0  0  0  0
  139.1059   72.8874  222.2580 H   0  0  0  0  0  0  0  0  0  0  0  0
  141.7582   72.5081  227.0642 H   0  0  0  0  0  0  0  0  0  0  0  0
  141.6051   71.1921  229.1860 H   0  0  0  0  0  0  0  0  0  0  0  0
  140.2417   69.1645  229.2706 H   0  0  0  0  0  0  0  0  0  0  0  0
  138.9715   68.3332  227.3089 H   0  0  0  0  0  0  0  0  0  0  0  0
  137.3109   69.4295  223.0125 H   0  0  0  0  0  0  0  0  0  0  0  0
  138.2276   70.5708  221.9204 H   0  0  0  0  0  0  0  0  0  0  0  0
  140.1980   69.4668  220.3493 H   0  0  0  0  0  0  0  0  0  0  0  0
  140.8133   66.8918  219.8913 H   0  0  0  0  0  0  0  0  0  0  0  0
  138.1611   66.9130  223.1540 H   0  0  0  0  0  0  0  0  0  0  0  0
  143.3874   71.6283  220.8349 H   0  0  0  0  0  0  0  0  0  0  0  0
  1  2  3  0
  2  3  1  0
  3  4  2  0
  4  5  1  0
  5  6  2  0
  6  7  1  0
  7  8  1  0
  8  9  2  0
  9 10  1  0
 10 11  2  0
 11 12  1  0
 12 13  2  0
 13 14  1  0
 14 15  2  0
 15 16  1  0
 16 17  2  0
 17 18  1  0
 18 19  2  0
 18 20  1  0
 20 21  1  0
 21 22  1  0
 22 23  1  0
 23 24  2  0
 24 25  1  0
 25 26  1  0
  7 27  2  0
 27  3  1  0
 20 10  1  0
 26 22  2  0
 17 12  1  0
  4 28  1  0
  5 29  1  0
  6 30  1  0
  8 31  1  0
  9 32  1  0
 13 33  1  0
 14 34  1  0
 15 35  1  0
 16 36  1  0
 21 37  1  0
 21 38  1  0
 23 39  1  0
 24 40  1  0
 26 41  1  0
 27 42  1  0
M  END
>  <smiles>  (5) 
N#Cc1cccc(/C=C/c2nc3ccccc3c(=O)n2Cc2ccoc2)c1

>  <score_type>  (5) 
oracle

>  <origin>  (5) 
autodockgpu

>  <m_score__min__energy>  (5) 
-8.9199999999999999

>  <m_primary>  (5) 
energy

>  <rmsd>  (5) 
12.197808149409155

>  <m_score__min__rmsd>  (5) 
12.197808149409155

>  <meeko>  (5) 
{"free_energy": -7.66, "intermolecular_energy": -9.45, "internal_energy": -1.0, "cluster_size": 16, "cluster_id": 2, "rank_in_cluster": 14}

>  <energy>  (5) 
-8.64

>  <cluster_rmsd>  (5) 
1.38

>  <cluster>  (5) 
1

$$$$

     RDKit          3D

 42 45  0  0  0  0  0  0  0  0999 V2000
  139.1980   67.0170  226.5100 N   0  0  0  0  0  0  0  0  0  0  0  0
  139.6120   68.0700  226.2460 C   0  0  0  0  0  0  0  0  0  0  0  0
  140.1060   69.3690  225.9220 C   0  0  0  0  0  0  0  0  0  0  0  0
  140.9120   69.9980  226.8370 C   0  0  0  0  0  0  0  0  0  0  0  0
  141.4130   71.2590  226.5630 C   0  0  0  0  0  0  0  0  0  0  0  0
  141.0830   71.8640  225.3500 C   0  0  0  0  0  0  0  0  0  0  0  0
  140.2770   71.2530  224.4170 C   0  0  0  0  0  0  0  0  0  0  0  0
  139.9350   71.8690  223.1690 C   0  0  0  0  0  0  0  0  0  0  0  0
  140.7610   72.0470  222.1500 C   0  0  0  0  0  0  0  0  0  0  0  0
  141.0620   73.4120  221.6640 C   0  0  0  0  0  0  0  0  0  0  0  0
  140.3780   74.4620  222.1780 N   0  0  0  0  0  0  0  0  0  0  0  0
  140.5950   75.7430  221.7870 C   0  0  0  0  0  0  0  0  0  0  0  0
  139.8810   76.7900  222.3290 C   0  0  0  0  0  0  0  0  0  0  0  0
  140.1690   78.0600  221.8730 C   0  0  0  0  0  0  0  0  0  0  0  0
  141.1360   78.2380  220.9130 C   0  0  0  0  0  0  0  0  0  0  0  0
  141.8620   77.2050  220.3570 C   0  0  0  0  0  0  0  0  0  0  0  0
  141.5670   75.9190  220.8230 C   0  0  0  0  0  0  0  0  0  0  0  0
  142.2560   74.8410  220.3090 C   0  0  0  0  0  0  0  0  0  0  0  0
  143.1380   75.0240  219.4320 O   0  0  0  0  0  0  0  0  0  0  0  0
  142.0120   73.5630  220.7250 N   0  0  0  0  0  0  0  0  0  0  0  0
  142.7640   72.5050  220.1470 C   0  0  0  0  0  0  0  0  0  0  0  0
  144.2310   72.7380  220.1750 C   0  0  0  0  0  0  0  0  0  0  0  0
  145.0210   73.2770  221.1670 C   0  0  0  0  0  0  0  0  0  0  0  0
  146.3240   73.2650  220.6760 C   0  0  0  0  0  0  0  0  0  0  0  0
  146.3330   72.7540  219.4680 O   0  0  0  0  0  0  0  0  0  0  0  0
  145.1090   72.4310  219.1390 C   0  0  0  0  0  0  0  0  0  0  0  0
  139.8000   69.9980  224.7300 C   0  0  0  0  0  0  0  0  0  0  0  0
  141.1596   69.5011  227.7866 H   0  0  0  0  0  0  0  0  0  0  0  0
  142.0595   71.7746  227.2884 H   0  0  0  0  0  0  0  0  0  0  0  0
  141.4815   72.8657  225.1315 H   0  0  0  0  0  0  0  0  0  0  0  0
  138.9006   72.2232  223.0479 H   0  0  0  0  0  0  0  0  0  0  0  0
  141.2254   71.1770  221.6626 H   0  0  0  0  0  0  0  0  0  0  0  0
  139.1110   76.6196  223.0958 H   0  0  0  0  0  0  0  0  0  0  0  0
  139.6262   78.9274  222.2767 H   0  0  0  0  0  0  0  0  0  0  0  0
  141.3429   79.2619  220.5684 H   0  0  0  0  0  0  0  0  0  0  0  0
  142.6302   77.3825  219.5899 H   0  0  0  0  0  0  0  0  0  0  0  0
  142.5475   71.5801  220.7018 H   0  0  0  0  0  0  0  0  0  0  0  0
  142.4670   72.4361  219.0901 H   0  0  0  0  0  0  0  0  0  0  0  0
  144.6890   73.6433  222.1497 H   0  0  0  0  0  0  0  0  0  0  0  0
  147.2097   73.6282  221.2179 H   0  0  0  0  0  0  0  0  0  0  0  0
  144.8149   71.9805  218.1795 H   0  0  0  0  0  0  0  0  0  0  0  0
  139.1538   69.4796  224.0063 H   0  0  0  0  0  0  0  0  0  0  0  0
  1  2  3  0
  2  3  1  0
  3  4  2  0
  4  5  1  0
  5  6  2  0
  6  7  1  0
  7  8  1  0
  8  9  2  0
  9 10  1  0
 10 11  2  0
 11 12  1  0
 12 13  2  0
 13 14  1  0
 14 15  2  0
 15 16  1  0
 16 17  2  0
 17 18  1  0
 18 19  2  0
 18 20  1  0
 20 21  1  0
 21 22  1  0
 22 23  1  0
 23 24  2  0
 24 25  1  0
 25 26  1  0
  7 27  2  0
 27  3  1  0
 20 10  1  0
 26 22  2  0
 17 12  1  0
  4 28  1  0
  5 29  1  0
  6 30  1  0
  8 31  1  0
  9 32  1  0
 13 33  1  0
 14 34  1  0
 15 35  1  0
 16 36  1  0
 21 37  1  0
 21 38  1  0
 23 39  1  0
 24 40  1  0
 26 41  1  0
 27 42  1  0
M  END
>  <smiles>  (6) 
N#Cc1cccc(/C=C/c2nc3ccccc3c(=O)n2Cc2ccoc2)c1

>  <score_type>  (6) 
oracle

>  <origin>  (6) 
autodockgpu

>  <m_score__min__energy>  (6) 
-8.9199999999999999

>  <m_primary>  (6) 
energy

>  <rmsd>  (6) 
7.402318764673888

>  <m_score__min__rmsd>  (6) 
7.402318764673888

>  <meeko>  (6) 
{"free_energy": -8.91, "intermolecular_energy": -10.7, "internal_energy": -0.77, "cluster_size": 26, "cluster_id": 1, "rank_in_cluster": 2}

>  <energy>  (6) 
-8.63

>  <cluster_rmsd>  (6) 
1.4

>  <cluster>  (6) 
1

$$$$

     RDKit          3D

 42 45  0  0  0  0  0  0  0  0999 V2000
  141.4400   71.8540  228.3700 N   0  0  0  0  0  0  0  0  0  0  0  0
  140.9960   71.4160  227.3900 C   0  0  0  0  0  0  0  0  0  0  0  0
  140.4590   70.8660  226.1870 C   0  0  0  0  0  0  0  0  0  0  0  0
  139.9700   69.5840  226.2270 C   0  0  0  0  0  0  0  0  0  0  0  0
  139.4410   69.0120  225.0840 C   0  0  0  0  0  0  0  0  0  0  0  0
  139.4170   69.7610  223.9070 C   0  0  0  0  0  0  0  0  0  0  0  0
  139.9000   71.0470  223.8420 C   0  0  0  0  0  0  0  0  0  0  0  0
  139.8780   71.8220  222.6370 C   0  0  0  0  0  0  0  0  0  0  0  0
  140.9400   72.1580  221.9220 C   0  0  0  0  0  0  0  0  0  0  0  0
  141.1560   73.5670  221.5240 C   0  0  0  0  0  0  0  0  0  0  0  0
  140.5070   74.5490  222.1940 N   0  0  0  0  0  0  0  0  0  0  0  0
  140.6520   75.8640  221.8930 C   0  0  0  0  0  0  0  0  0  0  0  0
  139.9780   76.8390  222.5940 C   0  0  0  0  0  0  0  0  0  0  0  0
  140.1850   78.1510  222.2200 C   0  0  0  0  0  0  0  0  0  0  0  0
  141.0390   78.4380  221.1820 C   0  0  0  0  0  0  0  0  0  0  0  0
  141.7250   77.4780  220.4670 C   0  0  0  0  0  0  0  0  0  0  0  0
  141.5110   76.1490  220.8500 C   0  0  0  0  0  0  0  0  0  0  0  0
  142.1650   75.1390  220.1770 C   0  0  0  0  0  0  0  0  0  0  0  0
  142.9420   75.4210  219.2310 O   0  0  0  0  0  0  0  0  0  0  0  0
  141.9960   73.8240  220.5060 N   0  0  0  0  0  0  0  0  0  0  0  0
  142.7050   72.8410  219.7650 C   0  0  0  0  0  0  0  0  0  0  0  0
  144.1800   72.9560  219.8920 C   0  0  0  0  0  0  0  0  0  0  0  0
  144.9400   73.5230  220.8920 C   0  0  0  0  0  0  0  0  0  0  0  0
  146.2700   73.3560  220.5140 C   0  0  0  0  0  0  0  0  0  0  0  0
  146.3220   72.7300  219.3620 O   0  0  0  0  0  0  0  0  0  0  0  0
  145.1020   72.4780  218.9640 C   0  0  0  0  0  0  0  0  0  0  0  0
  140.4190   71.5780  225.0040 C   0  0  0  0  0  0  0  0  0  0  0  0
  139.9988   69.0125  227.1664 H   0  0  0  0  0  0  0  0  0  0  0  0
  139.0464   67.9854  225.1026 H   0  0  0  0  0  0  0  0  0  0  0  0
  138.9964   69.3063  222.9980 H   0  0  0  0  0  0  0  0  0  0  0  0
  138.8975   72.1662  222.2763 H   0  0  0  0  0  0  0  0  0  0  0  0
  141.6650   71.3869  221.6224 H   0  0  0  0  0  0  0  0  0  0  0  0
  139.3000   76.5816  223.4211 H   0  0  0  0  0  0  0  0  0  0  0  0
  139.6684   78.9643  222.7507 H   0  0  0  0  0  0  0  0  0  0  0  0
  141.1837   79.4929  220.9057 H   0  0  0  0  0  0  0  0  0  0  0  0
  142.4025   77.7424  219.6417 H   0  0  0  0  0  0  0  0  0  0  0  0
  142.4007   71.8469  220.1243 H   0  0  0  0  0  0  0  0  0  0  0  0
  142.4578   72.9936  218.7040 H   0  0  0  0  0  0  0  0  0  0  0  0
  144.5701   74.0102  221.8062 H   0  0  0  0  0  0  0  0  0  0  0  0
  147.1420   73.6963  221.0918 H   0  0  0  0  0  0  0  0  0  0  0  0
  144.8410   71.9615  218.0285 H   0  0  0  0  0  0  0  0  0  0  0  0
  140.8149   72.6042  224.9883 H   0  0  0  0  0  0  0  0  0  0  0  0
  1  2  3  0
  2  3  1  0
  3  4  2  0
  4  5  1  0
  5  6  2  0
  6  7  1  0
  7  8  1  0
  8  9  2  0
  9 10  1  0
 10 11  2  0
 11 12  1  0
 12 13  2  0
 13 14  1  0
 14 15  2  0
 15 16  1  0
 16 17  2  0
 17 18  1  0
 18 19  2  0
 18 20  1  0
 20 21  1  0
 21 22  1  0
 22 23  1  0
 23 24  2  0
 24 25  1  0
 25 26  1  0
  7 27  2  0
 27  3  1  0
 20 10  1  0
 26 22  2  0
 17 12  1  0
  4 28  1  0
  5 29  1  0
  6 30  1  0
  8 31  1  0
  9 32  1  0
 13 33  1  0
 14 34  1  0
 15 35  1  0
 16 36  1  0
 21 37  1  0
 21 38  1  0
 23 39  1  0
 24 40  1  0
 26 41  1  0
 27 42  1  0
M  END
>  <smiles>  (7) 
N#Cc1cccc(/C=C/c2nc3ccccc3c(=O)n2Cc2ccoc2)c1

>  <score_type>  (7) 
oracle

>  <origin>  (7) 
autodockgpu

>  <m_score__min__energy>  (7) 
-8.9199999999999999

>  <m_primary>  (7) 
energy

>  <rmsd>  (7) 
7.36888768351521

>  <m_score__min__rmsd>  (7) 
7.36888768351521

>  <meeko>  (7) 
{"free_energy": -8.51, "intermolecular_energy": -10.3, "internal_energy": -0.9, "cluster_size": 26, "cluster_id": 1, "rank_in_cluster": 12}

>  <energy>  (7) 
-8.6

>  <cluster_rmsd>  (7) 
1.4

>  <cluster>  (7) 
1

$$$$

     RDKit          3D

 42 45  0  0  0  0  0  0  0  0999 V2000
  145.9420   72.6520  219.4380 N   0  0  0  0  0  0  0  0  0  0  0  0
  144.8710   72.8790  219.8270 C   0  0  0  0  0  0  0  0  0  0  0  0
  143.5600   73.1560  220.3190 C   0  0  0  0  0  0  0  0  0  0  0  0
  143.1980   74.4700  220.4820 C   0  0  0  0  0  0  0  0  0  0  0  0
  141.9370   74.7830  220.9570 C   0  0  0  0  0  0  0  0  0  0  0  0
  141.0560   73.7450  221.2600 C   0  0  0  0  0  0  0  0  0  0  0  0
  141.3950   72.4200  221.1040 C   0  0  0  0  0  0  0  0  0  0  0  0
  140.4950   71.3500  221.4130 C   0  0  0  0  0  0  0  0  0  0  0  0
  139.5200   71.4020  222.3070 C   0  0  0  0  0  0  0  0  0  0  0  0
  139.7040   70.7990  223.6460 C   0  0  0  0  0  0  0  0  0  0  0  0
  140.2300   71.5500  224.6420 N   0  0  0  0  0  0  0  0  0  0  0  0
  140.4290   71.0730  225.8970 C   0  0  0  0  0  0  0  0  0  0  0  0
  140.9670   71.8630  226.8890 C   0  0  0  0  0  0  0  0  0  0  0  0
  141.1340   71.2950  228.1350 C   0  0  0  0  0  0  0  0  0  0  0  0
  140.7670   69.9880  228.3450 C   0  0  0  0  0  0  0  0  0  0  0  0
  140.2260   69.1780  227.3660 C   0  0  0  0  0  0  0  0  0  0  0  0
  140.0600   69.7590  226.1040 C   0  0  0  0  0  0  0  0  0  0  0  0
  139.5250   69.0060  225.0810 C   0  0  0  0  0  0  0  0  0  0  0  0
  139.1940   67.8110  225.2900 O   0  0  0  0  0  0  0  0  0  0  0  0
  139.3380   69.5180  223.8280 N   0  0  0  0  0  0  0  0  0  0  0  0
  138.7810   68.6780  222.8260 C   0  0  0  0  0  0  0  0  0  0  0  0
  137.3130   68.4960  222.9560 C   0  0  0  0  0  0  0  0  0  0  0  0
  136.4170   67.8960  222.0980 C   0  0  0  0  0  0  0  0  0  0  0  0
  135.1680   67.9980  222.7040 C   0  0  0  0  0  0  0  0  0  0  0  0
  135.2890   68.6180  223.8540 O   0  0  0  0  0  0  0  0  0  0  0  0
  136.5470   68.9280  224.0350 C   0  0  0  0  0  0  0  0  0  0  0  0
  142.6620   72.1540  220.6290 C   0  0  0  0  0  0  0  0  0  0  0  0
  143.9090   75.2723  220.2355 H   0  0  0  0  0  0  0  0  0  0  0  0
  141.6345   75.8318  221.0933 H   0  0  0  0  0  0  0  0  0  0  0  0
  140.0534   73.9944  221.6375 H   0  0  0  0  0  0  0  0  0  0  0  0
  140.6244   70.4068  220.8619 H   0  0  0  0  0  0  0  0  0  0  0  0
  138.5699   71.8951  222.0538 H   0  0  0  0  0  0  0  0  0  0  0  0
  141.2527   72.9074  226.6949 H   0  0  0  0  0  0  0  0  0  0  0  0
  141.5600   71.8872  228.9583 H   0  0  0  0  0  0  0  0  0  0  0  0
  140.9121   69.5628  229.3491 H   0  0  0  0  0  0  0  0  0  0  0  0
  139.9416   68.1346  227.5671 H   0  0  0  0  0  0  0  0  0  0  0  0
  138.9911   69.1228  221.8421 H   0  0  0  0  0  0  0  0  0  0  0  0
  139.2420   67.6860  222.9417 H   0  0  0  0  0  0  0  0  0  0  0  0
  136.6436   67.4296  221.1279 H   0  0  0  0  0  0  0  0  0  0  0  0
  134.2253   67.6176  222.2837 H   0  0  0  0  0  0  0  0  0  0  0  0
  136.9433   69.4554  224.9152 H   0  0  0  0  0  0  0  0  0  0  0  0
  142.9681   71.1063  220.4922 H   0  0  0  0  0  0  0  0  0  0  0  0
  1  2  3  0
  2  3  1  0
  3  4  2  0
  4  5  1  0
  5  6  2  0
  6  7  1  0
  7  8  1  0
  8  9  2  0
  9 10  1  0
 10 11  2  0
 11 12  1  0
 12 13  2  0
 13 14  1  0
 14 15  2  0
 15 16  1  0
 16 17  2  0
 17 18  1  0
 18 19  2  0
 18 20  1  0
 20 21  1  0
 21 22  1  0
 22 23  1  0
 23 24  2  0
 24 25  1  0
 25 26  1  0
  7 27  2  0
 27  3  1  0
 20 10  1  0
 26 22  2  0
 17 12  1  0
  4 28  1  0
  5 29  1  0
  6 30  1  0
  8 31  1  0
  9 32  1  0
 13 33  1  0
 14 34  1  0
 15 35  1  0
 16 36  1  0
 21 37  1  0
 21 38  1  0
 23 39  1  0
 24 40  1  0
 26 41  1  0
 27 42  1  0
M  END
>  <smiles>  (8) 
N#Cc1cccc(/C=C/c2nc3ccccc3c(=O)n2Cc2ccoc2)c1

>  <score_type>  (8) 
oracle

>  <origin>  (8) 
autodockgpu

>  <m_score__min__energy>  (8) 
-8.9199999999999999

>  <m_primary>  (8) 
energy

>  <rmsd>  (8) 
12.160517030351238

>  <m_score__min__rmsd>  (8) 
12.160517030351238

>  <meeko>  (8) 
{"free_energy": -8.18, "intermolecular_energy": -9.97, "internal_energy": -0.94, "cluster_size": 16, "cluster_id": 2, "rank_in_cluster": 7}

>  <energy>  (8) 
-8.57

>  <cluster_rmsd>  (8) 
1.41

>  <cluster>  (8) 
1

$$$$

     RDKit          3D

 42 45  0  0  0  0  0  0  0  0999 V2000
  141.5170   72.2530  227.9420 N   0  0  0  0  0  0  0  0  0  0  0  0
  141.0520   71.7550  227.0010 C   0  0  0  0  0  0  0  0  0  0  0  0
  140.4690   71.1400  225.8530 C   0  0  0  0  0  0  0  0  0  0  0  0
  139.9140   69.8940  226.0000 C   0  0  0  0  0  0  0  0  0  0  0  0
  139.3390   69.2620  224.9120 C   0  0  0  0  0  0  0  0  0  0  0  0
  139.3360   69.9150  223.6800 C   0  0  0  0  0  0  0  0  0  0  0  0
  139.8860   71.1650  223.5060 C   0  0  0  0  0  0  0  0  0  0  0  0
  139.8860   71.8410  222.2430 C   0  0  0  0  0  0  0  0  0  0  0  0
  140.9650   72.2470  221.5920 C   0  0  0  0  0  0  0  0  0  0  0  0
  141.1690   73.6860  221.3130 C   0  0  0  0  0  0  0  0  0  0  0  0
  140.4850   74.6030  222.0380 N   0  0  0  0  0  0  0  0  0  0  0  0
  140.6180   75.9400  221.8460 C   0  0  0  0  0  0  0  0  0  0  0  0
  139.9070   76.8480  222.6000 C   0  0  0  0  0  0  0  0  0  0  0  0
  140.1050   78.1880  222.3370 C   0  0  0  0  0  0  0  0  0  0  0  0
  140.9840   78.5680  221.3520 C   0  0  0  0  0  0  0  0  0  0  0  0
  141.7060   77.6760  220.5850 C   0  0  0  0  0  0  0  0  0  0  0  0
  141.5020   76.3180  220.8560 C   0  0  0  0  0  0  0  0  0  0  0  0
  142.1920   75.3740  220.1260 C   0  0  0  0  0  0  0  0  0  0  0  0
  142.9930   75.7400  219.2290 O   0  0  0  0  0  0  0  0  0  0  0  0
  142.0350   74.0350  220.3450 N   0  0  0  0  0  0  0  0  0  0  0  0
  142.7820   73.1240  219.5510 C   0  0  0  0  0  0  0  0  0  0  0  0
  144.2470   73.2060  219.7760 C   0  0  0  0  0  0  0  0  0  0  0  0
  144.9490   73.6800  220.8630 C   0  0  0  0  0  0  0  0  0  0  0  0
  146.2970   73.5250  220.5540 C   0  0  0  0  0  0  0  0  0  0  0  0
  146.4150   72.9930  219.3620 O   0  0  0  0  0  0  0  0  0  0  0  0
  145.2200   72.7900  218.8710 C   0  0  0  0  0  0  0  0  0  0  0  0
  140.4490   71.7580  224.6170 C   0  0  0  0  0  0  0  0  0  0  0  0
  139.9262   69.3981  226.9818 H   0  0  0  0  0  0  0  0  0  0  0  0
  138.8922   68.2623  225.0169 H   0  0  0  0  0  0  0  0  0  0  0  0
  138.8773   69.4129  222.8154 H   0  0  0  0  0  0  0  0  0  0  0  0
  138.9099   72.0389  221.7760 H   0  0  0  0  0  0  0  0  0  0  0  0
  141.7122   71.5124  221.2574 H   0  0  0  0  0  0  0  0  0  0  0  0
  139.2079   76.5171  223.3822 H   0  0  0  0  0  0  0  0  0  0  0  0
  139.5606   78.9498  222.9144 H   0  0  0  0  0  0  0  0  0  0  0  0
  141.1200   79.6432  221.1640 H   0  0  0  0  0  0  0  0  0  0  0  0
  142.4031   78.0137  219.8040 H   0  0  0  0  0  0  0  0  0  0  0  0
  142.4500   72.1024  219.7878 H   0  0  0  0  0  0  0  0  0  0  0  0
  142.6009   73.3881  218.4986 H   0  0  0  0  0  0  0  0  0  0  0  0
  144.5280   74.0974  221.7896 H   0  0  0  0  0  0  0  0  0  0  0  0
  147.1346   73.8058  221.2094 H   0  0  0  0  0  0  0  0  0  0  0  0
  145.0129   72.3526  217.8832 H   0  0  0  0  0  0  0  0  0  0  0  0
  140.8975   72.7573  224.5157 H   0  0  0  0  0  0  0  0  0  0  0  0
  1  2  3  0
  2  3  1  0
  3  4  2  0
  4  5  1  0
  5  6  2  0
  6  7  1  0
  7  8  1  0
  8  9  2  0
  9 10  1  0
 10 11  2  0
 11 12  1  0
 12 13  2  0
 13 14  1  0
 14 15  2  0
 15 16  1  0
 16 17  2  0
 17 18  1  0
 18 19  2  0
 18 20  1  0
 20 21  1  0
 21 22  1  0
 22 23  1  0
 23 24  2  0
 24 25  1  0
 25 26  1  0
  7 27  2  0
 27  3  1  0
 20 10  1  0
 26 22  2  0
 17 12  1  0
  4 28  1  0
  5 29  1  0
  6 30  1  0
  8 31  1  0
  9 32  1  0
 13 33  1  0
 14 34  1  0
 15 35  1  0
 16 36  1  0
 21 37  1  0
 21 38  1  0
 23 39  1  0
 24 40  1  0
 26 41  1  0
 27 42  1  0
M  END
>  <smiles>  (9) 
N#Cc1cccc(/C=C/c2nc3ccccc3c(=O)n2Cc2ccoc2)c1

>  <score_type>  (9) 
oracle

>  <origin>  (9) 
autodockgpu

>  <m_score__min__energy>  (9) 
-8.9199999999999999

>  <m_primary>  (9) 
energy

>  <rmsd>  (9) 
7.301319645337687

>  <m_score__min__rmsd>  (9) 
7.301319645337687

>  <meeko>  (9) 
{"free_energy": -8.43, "intermolecular_energy": -10.22, "internal_energy": -0.96, "cluster_size": 26, "cluster_id": 1, "rank_in_cluster": 15}

>  <energy>  (9) 
-8.55

>  <cluster_rmsd>  (9) 
1.4

>  <cluster>  (9) 
1

$$$$

     RDKit          3D

 42 45  0  0  0  0  0  0  0  0999 V2000
  146.2990   72.9870  219.7050 N   0  0  0  0  0  0  0  0  0  0  0  0
  145.1980   73.1770  220.0230 C   0  0  0  0  0  0  0  0  0  0  0  0
  143.8490   73.4110  220.4270 C   0  0  0  0  0  0  0  0  0  0  0  0
  143.3960   74.7060  220.4400 C   0  0  0  0  0  0  0  0  0  0  0  0
  142.0950   74.9790  220.8250 C   0  0  0  0  0  0  0  0  0  0  0  0
  141.2680   73.9170  221.1940 C   0  0  0  0  0  0  0  0  0  0  0  0
  141.6990   72.6100  221.1890 C   0  0  0  0  0  0  0  0  0  0  0  0
  140.8540   71.5170  221.5670 C   0  0  0  0  0  0  0  0  0  0  0  0
  139.8550   71.5830  222.4330 C   0  0  0  0  0  0  0  0  0  0  0  0
  139.9310   70.8510  223.7170 C   0  0  0  0  0  0  0  0  0  0  0  0
  140.4080   71.4870  224.8130 N   0  0  0  0  0  0  0  0  0  0  0  0
  140.5080   70.8860  226.0260 C   0  0  0  0  0  0  0  0  0  0  0  0
  140.9980   71.5620  227.1230 C   0  0  0  0  0  0  0  0  0  0  0  0
  141.0640   70.8730  228.3170 C   0  0  0  0  0  0  0  0  0  0  0  0
  140.6490   69.5640  228.3750 C   0  0  0  0  0  0  0  0  0  0  0  0
  140.1560   68.8700  227.2890 C   0  0  0  0  0  0  0  0  0  0  0  0
  140.0910   69.5720  226.0810 C   0  0  0  0  0  0  0  0  0  0  0  0
  139.6070   68.9370  224.9570 C   0  0  0  0  0  0  0  0  0  0  0  0
  139.2320   67.7390  225.0280 O   0  0  0  0  0  0  0  0  0  0  0  0
  139.5200   69.5710  223.7500 N   0  0  0  0  0  0  0  0  0  0  0  0
  139.0110   68.8480  222.6370 C   0  0  0  0  0  0  0  0  0  0  0  0
  137.5660   68.5250  222.7530 C   0  0  0  0  0  0  0  0  0  0  0  0
  136.7670   67.7450  221.9450 C   0  0  0  0  0  0  0  0  0  0  0  0
  135.4940   67.7780  222.5090 C   0  0  0  0  0  0  0  0  0  0  0  0
  135.5110   68.5250  223.5860 O   0  0  0  0  0  0  0  0  0  0  0  0
  136.7230   68.9840  223.7620 C   0  0  0  0  0  0  0  0  0  0  0  0
  143.0020   72.3850  220.7990 C   0  0  0  0  0  0  0  0  0  0  0  0
  144.0663   75.5266  220.1447 H   0  0  0  0  0  0  0  0  0  0  0  0
  141.7200   76.0130  220.8399 H   0  0  0  0  0  0  0  0  0  0  0  0
  140.2337   74.1326  221.5001 H   0  0  0  0  0  0  0  0  0  0  0  0
  141.0517   70.5415  221.0987 H   0  0  0  0  0  0  0  0  0  0  0  0
  138.9646   72.1844  222.1973 H   0  0  0  0  0  0  0  0  0  0  0  0
  141.3238   72.6101  227.0495 H   0  0  0  0  0  0  0  0  0  0  0  0
  141.4478   71.3703  229.2200 H   0  0  0  0  0  0  0  0  0  0  0  0
  140.7134   69.0407  229.3404 H   0  0  0  0  0  0  0  0  0  0  0  0
  139.8318   67.8219  227.3690 H   0  0  0  0  0  0  0  0  0  0  0  0
  139.1612   69.4527  221.7305 H   0  0  0  0  0  0  0  0  0  0  0  0
  139.5545   67.8926  222.5950 H   0  0  0  0  0  0  0  0  0  0  0  0
  137.0733   67.2049  221.0370 H   0  0  0  0  0  0  0  0  0  0  0  0
  134.6102   67.2573  222.1118 H   0  0  0  0  0  0  0  0  0  0  0  0
  137.0325   69.6394  224.5894 H   0  0  0  0  0  0  0  0  0  0  0  0
  143.3805   71.3523  220.7835 H   0  0  0  0  0  0  0  0  0  0  0  0
  1  2  3  0
  2  3  1  0
  3  4  2  0
  4  5  1  0
  5  6  2  0
  6  7  1  0
  7  8  1  0
  8  9  2  0
  9 10  1  0
 10 11  2  0
 11 12  1  0
 12 13  2  0
 13 14  1  0
 14 15  2  0
 15 16  1  0
 16 17  2  0
 17 18  1  0
 18 19  2  0
 18 20  1  0
 20 21  1  0
 21 22  1  0
 22 23  1  0
 23 24  2  0
 24 25  1  0
 25 26  1  0
  7 27  2  0
 27  3  1  0
 20 10  1  0
 26 22  2  0
 17 12  1  0
  4 28  1  0
  5 29  1  0
  6 30  1  0
  8 31  1  0
  9 32  1  0
 13 33  1  0
 14 34  1  0
 15 35  1  0
 16 36  1  0
 21 37  1  0
 21 38  1  0
 23 39  1  0
 24 40  1  0
 26 41  1  0
 27 42  1  0
M  END
>  <smiles>  (10) 
N#Cc1cccc(/C=C/c2nc3ccccc3c(=O)n2Cc2ccoc2)c1

>  <score_type>  (10) 
oracle

>  <origin>  (10) 
autodockgpu

>  <m_score__min__energy>  (10) 
-8.9199999999999999

>  <m_primary>  (10) 
energy

>  <rmsd>  (10) 
12.205701388855873

>  <m_score__min__rmsd>  (10) 
12.205701388855873

>  <meeko>  (10) 
{"free_energy": -8.32, "intermolecular_energy": -10.11, "internal_energy": -0.86, "cluster_size": 16, "cluster_id": 2, "rank_in_cluster": 2}

>  <energy>  (10) 
-8.53

>  <cluster_rmsd>  (10) 
1.41

>  <cluster>  (10) 
1

$$$$

     RDKit          3D

 42 45  0  0  0  0  0  0  0  0999 V2000
  133.6100   73.4130  226.5330 N   0  0  0  0  0  0  0  0  0  0  0  0
  134.3120   73.5340  225.6150 C   0  0  0  0  0  0  0  0  0  0  0  0
  135.1850   73.6890  224.4960 C   0  0  0  0  0  0  0  0  0  0  0  0
  135.2800   74.9310  223.9210 C   0  0  0  0  0  0  0  0  0  0  0  0
  136.1130   75.1250  222.8330 C   0  0  0  0  0  0  0  0  0  0  0  0
  136.8440   74.0420  222.3450 C   0  0  0  0  0  0  0  0  0  0  0  0
  136.7660   72.7870  222.9050 C   0  0  0  0  0  0  0  0  0  0  0  0
  137.5140   71.6710  222.4080 C   0  0  0  0  0  0  0  0  0  0  0  0
  138.7970   71.4420  222.6440 C   0  0  0  0  0  0  0  0  0  0  0  0
  139.2180   70.7810  223.8990 C   0  0  0  0  0  0  0  0  0  0  0  0
  139.8220   71.5160  224.8620 N   0  0  0  0  0  0  0  0  0  0  0  0
  140.2360   70.9850  226.0410 C   0  0  0  0  0  0  0  0  0  0  0  0
  140.8480   71.7600  227.0010 C   0  0  0  0  0  0  0  0  0  0  0  0
  141.2360   71.1370  228.1700 C   0  0  0  0  0  0  0  0  0  0  0  0
  141.0060   69.7930  228.3360 C   0  0  0  0  0  0  0  0  0  0  0  0
  140.3950   68.9980  227.3880 C   0  0  0  0  0  0  0  0  0  0  0  0
  140.0030   69.6340  226.2040 C   0  0  0  0  0  0  0  0  0  0  0  0
  139.3870   68.8980  225.2150 C   0  0  0  0  0  0  0  0  0  0  0  0
  139.1850   67.6700  225.3850 O   0  0  0  0  0  0  0  0  0  0  0  0
  138.9830   69.4640  224.0390 N   0  0  0  0  0  0  0  0  0  0  0  0
  138.3550   68.6390  223.0680 C   0  0  0  0  0  0  0  0  0  0  0  0
  136.8820   68.5470  223.2330 C   0  0  0  0  0  0  0  0  0  0  0  0
  135.9210   68.0900  222.3580 C   0  0  0  0  0  0  0  0  0  0  0  0
  134.7000   68.2230  223.0150 C   0  0  0  0  0  0  0  0  0  0  0  0
  134.8980   68.7270  224.2100 O   0  0  0  0  0  0  0  0  0  0  0  0
  136.1800   68.9320  224.3730 C   0  0  0  0  0  0  0  0  0  0  0  0
  135.9230   72.6380  223.9860 C   0  0  0  0  0  0  0  0  0  0  0  0
  134.6952   75.7710  224.3240 H   0  0  0  0  0  0  0  0  0  0  0  0
  136.1971   76.1153  222.3616 H   0  0  0  0  0  0  0  0  0  0  0  0
  137.5071   74.1964  221.4810 H   0  0  0  0  0  0  0  0  0  0  0  0
  136.9789   70.9446  221.7787 H   0  0  0  0  0  0  0  0  0  0  0  0
  139.5526   71.7444  221.9040 H   0  0  0  0  0  0  0  0  0  0  0  0
  141.0210   72.8346  226.8422 H   0  0  0  0  0  0  0  0  0  0  0  0
  141.7279   71.7150  228.9662 H   0  0  0  0  0  0  0  0  0  0  0  0
  141.3270   69.3240  229.2778 H   0  0  0  0  0  0  0  0  0  0  0  0
  140.2253   67.9238  227.5534 H   0  0  0  0  0  0  0  0  0  0  0  0
  138.5687   69.0506  222.0705 H   0  0  0  0  0  0  0  0  0  0  0  0
  138.7591   67.6239  223.1954 H   0  0  0  0  0  0  0  0  0  0  0  0
  136.0851   67.6983  221.3433 H   0  0  0  0  0  0  0  0  0  0  0  0
  133.7207   67.9479  222.5964 H   0  0  0  0  0  0  0  0  0  0  0  0
  136.6385   69.3493  225.2816 H   0  0  0  0  0  0  0  0  0  0  0  0
  135.8350   71.6486  224.4585 H   0  0  0  0  0  0  0  0  0  0  0  0
  1  2  3  0
  2  3  1  0
  3  4  2  0
  4  5  1  0
  5  6  2  0
  6  7  1  0
  7  8  1  0
  8  9  2  0
  9 10  1  0
 10 11  2  0
 11 12  1  0
 12 13  2  0
 13 14  1  0
 14 15  2  0
 15 16  1  0
 16 17  2  0
 17 18  1  0
 18 19  2  0
 18 20  1  0
 20 21  1  0
 21 22  1  0
 22 23  1  0
 23 24  2  0
 24 25  1  0
 25 26  1  0
  7 27  2  0
 27  3  1  0
 20 10  1  0
 26 22  2  0
 17 12  1  0
  4 28  1  0
  5 29  1  0
  6 30  1  0
  8 31  1  0
  9 32  1  0
 13 33  1  0
 14 34  1  0
 15 35  1  0
 16 36  1  0
 21 37  1  0
 21 38  1  0
 23 39  1  0
 24 40  1  0
 26 41  1  0
 27 42  1  0
M  END
>  <smiles>  (11) 
N#Cc1cccc(/C=C/c2nc3ccccc3c(=O)n2Cc2ccoc2)c1

>  <score_type>  (11) 
oracle

>  <origin>  (11) 
autodockgpu

>  <m_score__min__energy>  (11) 
-8.9199999999999999

>  <m_primary>  (11) 
energy

>  <rmsd>  (11) 
12.255820090406703

>  <m_score__min__rmsd>  (11) 
12.255820090406703

>  <meeko>  (11) 
{"free_energy": -7.32, "intermolecular_energy": -9.11, "internal_energy": -1.39, "cluster_size": 6, "cluster_id": 3, "rank_in_cluster": 1}

>  <energy>  (11) 
-8.52

>  <cluster_rmsd>  (11) 
1.41

>  <cluster>  (11) 
1

$$$$

     RDKit          3D

 42 45  0  0  0  0  0  0  0  0999 V2000
  146.3370   73.0080  219.7070 N   0  0  0  0  0  0  0  0  0  0  0  0
  145.2300   73.1820  220.0150 C   0  0  0  0  0  0  0  0  0  0  0  0
  143.8740   73.3940  220.4080 C   0  0  0  0  0  0  0  0  0  0  0  0
  143.4150   74.6860  220.4650 C   0  0  0  0  0  0  0  0  0  0  0  0
  142.1070   74.9360  220.8420 C   0  0  0  0  0  0  0  0  0  0  0  0
  141.2800   73.8580  221.1560 C   0  0  0  0  0  0  0  0  0  0  0  0
  141.7170   72.5540  221.1050 C   0  0  0  0  0  0  0  0  0  0  0  0
  140.8720   71.4420  221.4260 C   0  0  0  0  0  0  0  0  0  0  0  0
  139.8030   71.4920  222.2050 C   0  0  0  0  0  0  0  0  0  0  0  0
  139.8470   70.9150  223.5670 C   0  0  0  0  0  0  0  0  0  0  0  0
  140.4180   71.6270  224.5680 N   0  0  0  0  0  0  0  0  0  0  0  0
  140.4960   71.1690  225.8440 C   0  0  0  0  0  0  0  0  0  0  0  0
  141.0850   71.9180  226.8390 C   0  0  0  0  0  0  0  0  0  0  0  0
  141.1200   71.3750  228.1070 C   0  0  0  0  0  0  0  0  0  0  0  0
  140.5790   70.1320  228.3330 C   0  0  0  0  0  0  0  0  0  0  0  0
  139.9850   69.3660  227.3510 C   0  0  0  0  0  0  0  0  0  0  0  0
  139.9520   69.9210  226.0670 C   0  0  0  0  0  0  0  0  0  0  0  0
  139.3730   69.2080  225.0390 C   0  0  0  0  0  0  0  0  0  0  0  0
  138.8830   68.0730  225.2650 O   0  0  0  0  0  0  0  0  0  0  0  0
  139.3110   69.6980  223.7660 N   0  0  0  0  0  0  0  0  0  0  0  0
  138.6980   68.9020  222.7600 C   0  0  0  0  0  0  0  0  0  0  0  0
  137.2400   68.7090  222.9670 C   0  0  0  0  0  0  0  0  0  0  0  0
  136.3620   69.4020  223.7720 C   0  0  0  0  0  0  0  0  0  0  0  0
  135.1150   68.8090  223.5880 C   0  0  0  0  0  0  0  0  0  0  0  0
  135.2210   67.8230  222.7310 O   0  0  0  0  0  0  0  0  0  0  0  0
  136.4670   67.7340  222.3420 C   0  0  0  0  0  0  0  0  0  0  0  0
  143.0270   72.3500  220.7250 C   0  0  0  0  0  0  0  0  0  0  0  0
  144.0850   75.5208  220.2117 H   0  0  0  0  0  0  0  0  0  0  0  0
  141.7265   75.9668  220.8930 H   0  0  0  0  0  0  0  0  0  0  0  0
  140.2404   74.0572  221.4554 H   0  0  0  0  0  0  0  0  0  0  0  0
  141.1332   70.4668  220.9892 H   0  0  0  0  0  0  0  0  0  0  0  0
  138.8792   71.9638  221.8389 H   0  0  0  0  0  0  0  0  0  0  0  0
  141.5109   72.9106  226.6307 H   0  0  0  0  0  0  0  0  0  0  0  0
  141.5795   71.9353  228.9345 H   0  0  0  0  0  0  0  0  0  0  0  0
  140.6219   69.7250  229.3540 H   0  0  0  0  0  0  0  0  0  0  0  0
  139.5609   68.3740  227.5657 H   0  0  0  0  0  0  0  0  0  0  0  0
  138.8501   69.3920  221.7870 H   0  0  0  0  0  0  0  0  0  0  0  0
  139.1663   67.9076  222.8027 H   0  0  0  0  0  0  0  0  0  0  0  0
  136.5984   70.2526  224.4281 H   0  0  0  0  0  0  0  0  0  0  0  0
  134.1846   69.1203  224.0854 H   0  0  0  0  0  0  0  0  0  0  0  0
  136.8495   66.9942  221.6234 H   0  0  0  0  0  0  0  0  0  0  0  0
  143.4105   71.3204  220.6726 H   0  0  0  0  0  0  0  0  0  0  0  0
  1  2  3  0
  2  3  1  0
  3  4  2  0
  4  5  1  0
  5  6  2  0
  6  7  1  0
  7  8  1  0
  8  9  2  0
  9 10  1  0
 10 11  2  0
 11 12  1  0
 12 13  2  0
 13 14  1  0
 14 15  2  0
 15 16  1  0
 16 17  2  0
 17 18  1  0
 18 19  2  0
 18 20  1  0
 20 21  1  0
 21 22  1  0
 22 23  1  0
 23 24  2  0
 24 25  1  0
 25 26  1  0
  7 27  2  0
 27  3  1  0
 20 10  1  0
 26 22  2  0
 17 12  1  0
  4 28  1  0
  5 29  1  0
  6 30  1  0
  8 31  1  0
  9 32  1  0
 13 33  1  0
 14 34  1  0
 15 35  1  0
 16 36  1  0
 21 37  1  0
 21 38  1  0
 23 39  1  0
 24 40  1  0
 26 41  1  0
 27 42  1  0
M  END
>  <smiles>  (12) 
N#Cc1cccc(/C=C/c2nc3ccccc3c(=O)n2Cc2ccoc2)c1

>  <score_type>  (12) 
oracle

>  <origin>  (12) 
autodockgpu

>  <m_score__min__energy>  (12) 
-8.9199999999999999

>  <m_primary>  (12) 
energy

>  <rmsd>  (12) 
11.997169034481097

>  <m_score__min__rmsd>  (12) 
11.997169034481097

>  <meeko>  (12) 
{"free_energy": -8.1, "intermolecular_energy": -9.89, "internal_energy": -0.95, "cluster_size": 16, "cluster_id": 2, "rank_in_cluster": 8}

>  <energy>  (12) 
-8.51

>  <cluster_rmsd>  (12) 
1.4

>  <cluster>  (12) 
1

$$$$

     RDKit          3D

 42 45  0  0  0  0  0  0  0  0999 V2000
  141.0360   71.8140  228.2970 N   0  0  0  0  0  0  0  0  0  0  0  0
  140.7110   71.4550  227.2410 C   0  0  0  0  0  0  0  0  0  0  0  0
  140.3230   71.0220  225.9370 C   0  0  0  0  0  0  0  0  0  0  0  0
  139.4090   70.0030  225.8430 C   0  0  0  0  0  0  0  0  0  0  0  0
  139.0050   69.5510  224.5990 C   0  0  0  0  0  0  0  0  0  0  0  0
  139.5440   70.1500  223.4600 C   0  0  0  0  0  0  0  0  0  0  0  0
  140.4620   71.1730  223.5280 C   0  0  0  0  0  0  0  0  0  0  0  0
  141.0180   71.7920  222.3620 C   0  0  0  0  0  0  0  0  0  0  0  0
  140.3510   72.5500  221.5050 C   0  0  0  0  0  0  0  0  0  0  0  0
  140.7550   73.9560  221.2810 C   0  0  0  0  0  0  0  0  0  0  0  0
  140.1670   74.9350  222.0090 N   0  0  0  0  0  0  0  0  0  0  0  0
  140.4830   76.2480  221.8650 C   0  0  0  0  0  0  0  0  0  0  0  0
  139.8660   77.2210  222.6200 C   0  0  0  0  0  0  0  0  0  0  0  0
  140.2490   78.5290  222.4090 C   0  0  0  0  0  0  0  0  0  0  0  0
  141.2130   78.8160  221.4720 C   0  0  0  0  0  0  0  0  0  0  0  0
  141.8430   77.8570  220.7050 C   0  0  0  0  0  0  0  0  0  0  0  0
  141.4510   76.5320  220.9230 C   0  0  0  0  0  0  0  0  0  0  0  0
  142.0420   75.5240  220.1910 C   0  0  0  0  0  0  0  0  0  0  0  0
  142.9210   75.8050  219.3380 O   0  0  0  0  0  0  0  0  0  0  0  0
  141.7000   74.2120  220.3600 N   0  0  0  0  0  0  0  0  0  0  0  0
  142.3540   73.2320  219.5660 C   0  0  0  0  0  0  0  0  0  0  0  0
  143.8260   73.1990  219.7610 C   0  0  0  0  0  0  0  0  0  0  0  0
  144.5860   73.6230  220.8300 C   0  0  0  0  0  0  0  0  0  0  0  0
  145.9110   73.3590  220.4940 C   0  0  0  0  0  0  0  0  0  0  0  0
  145.9610   72.8120  219.3040 O   0  0  0  0  0  0  0  0  0  0  0  0
  144.7430   72.7010  218.8390 C   0  0  0  0  0  0  0  0  0  0  0  0
  140.8360   71.5920  224.7880 C   0  0  0  0  0  0  0  0  0  0  0  0
  138.9979   69.5460  226.7552 H   0  0  0  0  0  0  0  0  0  0  0  0
  138.2728   68.7349  224.5098 H   0  0  0  0  0  0  0  0  0  0  0  0
  139.2233   69.7912  222.4709 H   0  0  0  0  0  0  0  0  0  0  0  0
  142.0865   71.6240  222.1620 H   0  0  0  0  0  0  0  0  0  0  0  0
  139.4931   72.1328  220.9574 H   0  0  0  0  0  0  0  0  0  0  0  0
  139.0967   76.9644  223.3632 H   0  0  0  0  0  0  0  0  0  0  0  0
  139.7844   79.3402  222.9888 H   0  0  0  0  0  0  0  0  0  0  0  0
  141.4981   79.8683  221.3254 H   0  0  0  0  0  0  0  0  0  0  0  0
  142.6112   78.1202  219.9630 H   0  0  0  0  0  0  0  0  0  0  0  0
  141.9459   72.2441  219.8258 H   0  0  0  0  0  0  0  0  0  0  0  0
  142.1724   73.4940  218.5132 H   0  0  0  0  0  0  0  0  0  0  0  0
  144.2192   74.0785  221.7616 H   0  0  0  0  0  0  0  0  0  0  0  0
  146.7821   73.5761  221.1296 H   0  0  0  0  0  0  0  0  0  0  0  0
  144.4808   72.2750  217.8593 H   0  0  0  0  0  0  0  0  0  0  0  0
  141.5678   72.4080  224.8809 H   0  0  0  0  0  0  0  0  0  0  0  0
  1  2  3  0
  2  3  1  0
  3  4  2  0
  4  5  1  0
  5  6  2  0
  6  7  1  0
  7  8  1  0
  8  9  2  0
  9 10  1  0
 10 11  2  0
 11 12  1  0
 12 13  2  0
 13 14  1  0
 14 15  2  0
 15 16  1  0
 16 17  2  0
 17 18  1  0
 18 19  2  0
 18 20  1  0
 20 21  1  0
 21 22  1  0
 22 23  1  0
 23 24  2  0
 24 25  1  0
 25 26  1  0
  7 27  2  0
 27  3  1  0
 20 10  1  0
 26 22  2  0
 17 12  1  0
  4 28  1  0
  5 29  1  0
  6 30  1  0
  8 31  1  0
  9 32  1  0
 13 33  1  0
 14 34  1  0
 15 35  1  0
 16 36  1  0
 21 37  1  0
 21 38  1  0
 23 39  1  0
 24 40  1  0
 26 41  1  0
 27 42  1  0
M  END
>  <smiles>  (13) 
N#Cc1cccc(/C=C/c2nc3ccccc3c(=O)n2Cc2ccoc2)c1

>  <score_type>  (13) 
oracle

>  <origin>  (13) 
autodockgpu

>  <m_score__min__energy>  (13) 
-8.9199999999999999

>  <m_primary>  (13) 
energy

>  <rmsd>  (13) 
7.269032382496185

>  <m_score__min__rmsd>  (13) 
7.269032382496185

>  <meeko>  (13) 
{"free_energy": -8.08, "intermolecular_energy": -9.87, "internal_energy": -0.93, "cluster_size": 26, "cluster_id": 1, "rank_in_cluster": 23}

>  <energy>  (13) 
-8.44

>  <cluster_rmsd>  (13) 
1.5

>  <cluster>  (13) 
1

$$$$

     RDKit          3D

 42 45  0  0  0  0  0  0  0  0999 V2000
  141.0230   71.8550  228.3080 N   0  0  0  0  0  0  0  0  0  0  0  0
  140.7120   71.4870  227.2510 C   0  0  0  0  0  0  0  0  0  0  0  0
  140.3190   71.0440  225.9530 C   0  0  0  0  0  0  0  0  0  0  0  0
  139.4000   70.0280  225.8700 C   0  0  0  0  0  0  0  0  0  0  0  0
  138.9920   69.5670  224.6310 C   0  0  0  0  0  0  0  0  0  0  0  0
  139.5290   70.1540  223.4850 C   0  0  0  0  0  0  0  0  0  0  0  0
  140.4500   71.1750  223.5420 C   0  0  0  0  0  0  0  0  0  0  0  0
  141.0050   71.7820  222.3690 C   0  0  0  0  0  0  0  0  0  0  0  0
  140.3410   72.5450  221.5140 C   0  0  0  0  0  0  0  0  0  0  0  0
  140.7440   73.9530  221.3040 C   0  0  0  0  0  0  0  0  0  0  0  0
  140.1490   74.9260  222.0340 N   0  0  0  0  0  0  0  0  0  0  0  0
  140.4630   76.2400  221.9020 C   0  0  0  0  0  0  0  0  0  0  0  0
  139.8380   77.2070  222.6590 C   0  0  0  0  0  0  0  0  0  0  0  0
  140.2200   78.5170  222.4600 C   0  0  0  0  0  0  0  0  0  0  0  0
  141.1900   78.8130  221.5320 C   0  0  0  0  0  0  0  0  0  0  0  0
  141.8280   77.8610  220.7630 C   0  0  0  0  0  0  0  0  0  0  0  0
  141.4370   76.5330  220.9690 C   0  0  0  0  0  0  0  0  0  0  0  0
  142.0350   75.5320  220.2340 C   0  0  0  0  0  0  0  0  0  0  0  0
  142.9210   75.8210  219.3900 O   0  0  0  0  0  0  0  0  0  0  0  0
  141.6960   74.2180  220.3910 N   0  0  0  0  0  0  0  0  0  0  0  0
  142.3570   73.2450  219.5950 C   0  0  0  0  0  0  0  0  0  0  0  0
  143.8320   73.2450  219.7660 C   0  0  0  0  0  0  0  0  0  0  0  0
  144.5980   73.6390  220.8430 C   0  0  0  0  0  0  0  0  0  0  0  0
  145.9240   73.4300  220.4750 C   0  0  0  0  0  0  0  0  0  0  0  0
  145.9700   72.9430  219.2580 O   0  0  0  0  0  0  0  0  0  0  0  0
  144.7480   72.8210  218.8080 C   0  0  0  0  0  0  0  0  0  0  0  0
  140.8300   71.6030  224.7970 C   0  0  0  0  0  0  0  0  0  0  0  0
  138.9885   69.5810  226.7870 H   0  0  0  0  0  0  0  0  0  0  0  0
  138.2574   68.7522  224.5509 H   0  0  0  0  0  0  0  0  0  0  0  0
  139.2045   69.7874  222.5000 H   0  0  0  0  0  0  0  0  0  0  0  0
  142.0697   71.5994  222.1615 H   0  0  0  0  0  0  0  0  0  0  0  0
  139.4870   72.1305  220.9582 H   0  0  0  0  0  0  0  0  0  0  0  0
  139.0634   76.9439  223.3944 H   0  0  0  0  0  0  0  0  0  0  0  0
  139.7497   79.3230  223.0424 H   0  0  0  0  0  0  0  0  0  0  0  0
  141.4734   79.8670  221.3947 H   0  0  0  0  0  0  0  0  0  0  0  0
  142.6012   78.1311  220.0287 H   0  0  0  0  0  0  0  0  0  0  0  0
  141.9743   72.2511  219.8702 H   0  0  0  0  0  0  0  0  0  0  0  0
  142.1525   73.4932  218.5431 H   0  0  0  0  0  0  0  0  0  0  0  0
  144.2339   74.0385  221.8011 H   0  0  0  0  0  0  0  0  0  0  0  0
  146.7989   73.6408  221.1076 H   0  0  0  0  0  0  0  0  0  0  0  0
  144.4817   72.4371  217.8121 H   0  0  0  0  0  0  0  0  0  0  0  0
  141.5650   72.4171  224.8806 H   0  0  0  0  0  0  0  0  0  0  0  0
  1  2  3  0
  2  3  1  0
  3  4  2  0
  4  5  1  0
  5  6  2  0
  6  7  1  0
  7  8  1  0
  8  9  2  0
  9 10  1  0
 10 11  2  0
 11 12  1  0
 12 13  2  0
 13 14  1  0
 14 15  2  0
 15 16  1  0
 16 17  2  0
 17 18  1  0
 18 19  2  0
 18 20  1  0
 20 21  1  0
 21 22  1  0
 22 23  1  0
 23 24  2  0
 24 25  1  0
 25 26  1  0
  7 27  2  0
 27  3  1  0
 20 10  1  0
 26 22  2  0
 17 12  1  0
  4 28  1  0
  5 29  1  0
  6 30  1  0
  8 31  1  0
  9 32  1  0
 13 33  1  0
 14 34  1  0
 15 35  1  0
 16 36  1  0
 21 37  1  0
 21 38  1  0
 23 39  1  0
 24 40  1  0
 26 41  1  0
 27 42  1  0
M  END
>  <smiles>  (14) 
N#Cc1cccc(/C=C/c2nc3ccccc3c(=O)n2Cc2ccoc2)c1

>  <score_type>  (14) 
oracle

>  <origin>  (14) 
autodockgpu

>  <m_score__min__energy>  (14) 
-8.9199999999999999

>  <m_primary>  (14) 
energy

>  <rmsd>  (14) 
7.2455483195119

>  <m_score__min__rmsd>  (14) 
7.2455483195119

>  <meeko>  (14) 
{"free_energy": -8.1, "intermolecular_energy": -9.89, "internal_energy": -0.92, "cluster_size": 26, "cluster_id": 1, "rank_in_cluster": 22}

>  <energy>  (14) 
-8.43

>  <cluster_rmsd>  (14) 
1.5

>  <cluster>  (14) 
1

$$$$

     RDKit          3D

 42 45  0  0  0  0  0  0  0  0999 V2000
  141.4730   71.9060  228.3220 N   0  0  0  0  0  0  0  0  0  0  0  0
  141.0010   71.4340  227.3710 C   0  0  0  0  0  0  0  0  0  0  0  0
  140.4100   70.8630  226.2040 C   0  0  0  0  0  0  0  0  0  0  0  0
  139.8250   69.6260  226.3180 C   0  0  0  0  0  0  0  0  0  0  0  0
  139.2410   69.0360  225.2120 C   0  0  0  0  0  0  0  0  0  0  0  0
  139.2590   69.7200  223.9960 C   0  0  0  0  0  0  0  0  0  0  0  0
  139.8390   70.9600  223.8570 C   0  0  0  0  0  0  0  0  0  0  0  0
  139.8610   71.6680  222.6120 C   0  0  0  0  0  0  0  0  0  0  0  0
  140.9520   72.0440  221.9630 C   0  0  0  0  0  0  0  0  0  0  0  0
  141.1320   73.4580  221.5640 C   0  0  0  0  0  0  0  0  0  0  0  0
  140.4170   74.4190  222.1960 N   0  0  0  0  0  0  0  0  0  0  0  0
  140.5260   75.7370  221.8900 C   0  0  0  0  0  0  0  0  0  0  0  0
  139.7840   76.6900  222.5520 C   0  0  0  0  0  0  0  0  0  0  0  0
  139.9580   78.0060  222.1770 C   0  0  0  0  0  0  0  0  0  0  0  0
  140.8470   78.3190  221.1760 C   0  0  0  0  0  0  0  0  0  0  0  0
  141.6000   77.3800  220.5000 C   0  0  0  0  0  0  0  0  0  0  0  0
  141.4190   76.0470  220.8850 C   0  0  0  0  0  0  0  0  0  0  0  0
  142.1410   75.0590  220.2500 C   0  0  0  0  0  0  0  0  0  0  0  0
  142.9490   75.3630  219.3370 O   0  0  0  0  0  0  0  0  0  0  0  0
  142.0070   73.7400  220.5830 N   0  0  0  0  0  0  0  0  0  0  0  0
  142.7860   72.7800  219.8820 C   0  0  0  0  0  0  0  0  0  0  0  0
  144.2490   72.9910  220.0220 C   0  0  0  0  0  0  0  0  0  0  0  0
  144.9790   73.4360  221.1030 C   0  0  0  0  0  0  0  0  0  0  0  0
  146.3110   73.4460  220.6960 C   0  0  0  0  0  0  0  0  0  0  0  0
  146.3920   73.0370  219.4530 O   0  0  0  0  0  0  0  0  0  0  0  0
  145.1890   72.7580  219.0210 C   0  0  0  0  0  0  0  0  0  0  0  0
  140.4100   71.5120  224.9850 C   0  0  0  0  0  0  0  0  0  0  0  0
  139.8209   69.1054  227.2870 H   0  0  0  0  0  0  0  0  0  0  0  0
  138.7705   68.0447  225.2896 H   0  0  0  0  0  0  0  0  0  0  0  0
  138.7928   69.2511  223.1169 H   0  0  0  0  0  0  0  0  0  0  0  0
  138.8915   71.9201  222.1577 H   0  0  0  0  0  0  0  0  0  0  0  0
  141.7275   71.3029  221.7194 H   0  0  0  0  0  0  0  0  0  0  0  0
  139.0793   76.4122  223.3496 H   0  0  0  0  0  0  0  0  0  0  0  0
  139.3874   78.8024  222.6772 H   0  0  0  0  0  0  0  0  0  0  0  0
  140.9648   79.3768  220.8982 H   0  0  0  0  0  0  0  0  0  0  0  0
  142.3031   77.6639  219.7031 H   0  0  0  0  0  0  0  0  0  0  0  0
  142.5393   71.7806  220.2698 H   0  0  0  0  0  0  0  0  0  0  0  0
  142.5441   72.8833  218.8139 H   0  0  0  0  0  0  0  0  0  0  0  0
  144.5880   73.7253  222.0896 H   0  0  0  0  0  0  0  0  0  0  0  0
  147.1635   73.7501  221.3211 H   0  0  0  0  0  0  0  0  0  0  0  0
  144.9534   72.3916  218.0109 H   0  0  0  0  0  0  0  0  0  0  0  0
  140.8815   72.5031  224.9109 H   0  0  0  0  0  0  0  0  0  0  0  0
  1  2  3  0
  2  3  1  0
  3  4  2  0
  4  5  1  0
  5  6  2  0
  6  7  1  0
  7  8  1  0
  8  9  2  0
  9 10  1  0
 10 11  2  0
 11 12  1  0
 12 13  2  0
 13 14  1  0
 14 15  2  0
 15 16  1  0
 16 17  2  0
 17 18  1  0
 18 19  2  0
 18 20  1  0
 20 21  1  0
 21 22  1  0
 22 23  1  0
 23 24  2  0
 24 25  1  0
 25 26  1  0
  7 27  2  0
 27  3  1  0
 20 10  1  0
 26 22  2  0
 17 12  1  0
  4 28  1  0
  5 29  1  0
  6 30  1  0
  8 31  1  0
  9 32  1  0
 13 33  1  0
 14 34  1  0
 15 35  1  0
 16 36  1  0
 21 37  1  0
 21 38  1  0
 23 39  1  0
 24 40  1  0
 26 41  1  0
 27 42  1  0
M  END
>  <smiles>  (15) 
N#Cc1cccc(/C=C/c2nc3ccccc3c(=O)n2Cc2ccoc2)c1

>  <score_type>  (15) 
oracle

>  <origin>  (15) 
autodockgpu

>  <m_score__min__energy>  (15) 
-8.9199999999999999

>  <m_primary>  (15) 
energy

>  <rmsd>  (15) 
7.304430555774484

>  <m_score__min__rmsd>  (15) 
7.304430555774484

>  <meeko>  (15) 
{"free_energy": -8.53, "intermolecular_energy": -10.32, "internal_energy": -0.9, "cluster_size": 26, "cluster_id": 1, "rank_in_cluster": 10}

>  <energy>  (15) 
-8.43

>  <cluster_rmsd>  (15) 
1.5

>  <cluster>  (15) 
1

$$$$

     RDKit          3D

 42 45  0  0  0  0  0  0  0  0999 V2000
  145.9570   72.6890  219.4160 N   0  0  0  0  0  0  0  0  0  0  0  0
  144.8980   72.9720  219.8020 C   0  0  0  0  0  0  0  0  0  0  0  0
  143.6040   73.3250  220.2880 C   0  0  0  0  0  0  0  0  0  0  0  0
  143.2600   74.6540  220.3010 C   0  0  0  0  0  0  0  0  0  0  0  0
  142.0160   75.0400  220.7660 C   0  0  0  0  0  0  0  0  0  0  0  0
  141.1310   74.0590  221.2130 C   0  0  0  0  0  0  0  0  0  0  0  0
  141.4510   72.7200  221.2090 C   0  0  0  0  0  0  0  0  0  0  0  0
  140.5470   71.7080  221.6670 C   0  0  0  0  0  0  0  0  0  0  0  0
  139.6970   71.8370  222.6730 C   0  0  0  0  0  0  0  0  0  0  0  0
  139.8410   70.9980  223.8830 C   0  0  0  0  0  0  0  0  0  0  0  0
  140.4000   71.5310  224.9950 N   0  0  0  0  0  0  0  0  0  0  0  0
  140.5660   70.8290  226.1450 C   0  0  0  0  0  0  0  0  0  0  0  0
  141.1400   71.4010  227.2590 C   0  0  0  0  0  0  0  0  0  0  0  0
  141.2680   70.6130  228.3840 C   0  0  0  0  0  0  0  0  0  0  0  0
  140.8310   69.3110  228.3600 C   0  0  0  0  0  0  0  0  0  0  0  0
  140.2540   68.7180  227.2550 C   0  0  0  0  0  0  0  0  0  0  0  0
  140.1250   69.5210  226.1170 C   0  0  0  0  0  0  0  0  0  0  0  0
  139.5570   68.9910  224.9780 C   0  0  0  0  0  0  0  0  0  0  0  0
  139.1620   67.7980  224.9740 O   0  0  0  0  0  0  0  0  0  0  0  0
  139.4050   69.7260  223.8370 N   0  0  0  0  0  0  0  0  0  0  0  0
  138.8100   69.1080  222.7040 C   0  0  0  0  0  0  0  0  0  0  0  0
  137.3610   68.8310  222.8740 C   0  0  0  0  0  0  0  0  0  0  0  0
  136.3940   69.5590  223.5330 C   0  0  0  0  0  0  0  0  0  0  0  0
  135.2040   68.8510  223.3840 C   0  0  0  0  0  0  0  0  0  0  0  0
  135.4260   67.7640  222.6840 O   0  0  0  0  0  0  0  0  0  0  0  0
  136.6940   67.7200  222.3650 C   0  0  0  0  0  0  0  0  0  0  0  0
  142.7020   72.3800  220.7390 C   0  0  0  0  0  0  0  0  0  0  0  0
  143.9729   75.4109  219.9420 H   0  0  0  0  0  0  0  0  0  0  0  0
  141.7296   76.1019  220.7830 H   0  0  0  0  0  0  0  0  0  0  0  0
  140.1414   74.3664  221.5821 H   0  0  0  0  0  0  0  0  0  0  0  0
  140.5603   70.7433  221.1386 H   0  0  0  0  0  0  0  0  0  0  0  0
  138.8801   72.5710  222.6093 H   0  0  0  0  0  0  0  0  0  0  0  0
  141.4831   72.4461  227.2517 H   0  0  0  0  0  0  0  0  0  0  0  0
  141.7190   71.0264  229.2982 H   0  0  0  0  0  0  0  0  0  0  0  0
  140.9473   68.7072  229.2721 H   0  0  0  0  0  0  0  0  0  0  0  0
  139.9144   67.6718  227.2687 H   0  0  0  0  0  0  0  0  0  0  0  0
  138.9382   69.7729  221.8371 H   0  0  0  0  0  0  0  0  0  0  0  0
  139.3107   68.1387  222.5634 H   0  0  0  0  0  0  0  0  0  0  0  0
  136.5341   70.5091  224.0693 H   0  0  0  0  0  0  0  0  0  0  0  0
  134.2285   69.1562  223.7905 H   0  0  0  0  0  0  0  0  0  0  0  0
  137.1663   66.9187  221.7778 H   0  0  0  0  0  0  0  0  0  0  0  0
  142.9923   71.3191  220.7225 H   0  0  0  0  0  0  0  0  0  0  0  0
  1  2  3  0
  2  3  1  0
  3  4  2  0
  4  5  1  0
  5  6  2  0
  6  7  1  0
  7  8  1  0
  8  9  2  0
  9 10  1  0
 10 11  2  0
 11 12  1  0
 12 13  2  0
 13 14  1  0
 14 15  2  0
 15 16  1  0
 16 17  2  0
 17 18  1  0
 18 19  2  0
 18 20  1  0
 20 21  1  0
 21 22  1  0
 22 23  1  0
 23 24  2  0
 24 25  1  0
 25 26  1  0
  7 27  2  0
 27  3  1  0
 20 10  1  0
 26 22  2  0
 17 12  1  0
  4 28  1  0
  5 29  1  0
  6 30  1  0
  8 31  1  0
  9 32  1  0
 13 33  1  0
 14 34  1  0
 15 35  1  0
 16 36  1  0
 21 37  1  0
 21 38  1  0
 23 39  1  0
 24 40  1  0
 26 41  1  0
 27 42  1  0
M  END
>  <smiles>  (16) 
N#Cc1cccc(/C=C/c2nc3ccccc3c(=O)n2Cc2ccoc2)c1

>  <score_type>  (16) 
oracle

>  <origin>  (16) 
autodockgpu

>  <m_score__min__energy>  (16) 
-8.9199999999999999

>  <m_primary>  (16) 
energy

>  <rmsd>  (16) 
12.108697303536179

>  <m_score__min__rmsd>  (16) 
12.108697303536179

>  <meeko>  (16) 
{"free_energy": -7.98, "intermolecular_energy": -9.77, "internal_energy": -0.94, "cluster_size": 16, "cluster_id": 2, "rank_in_cluster": 11}

>  <energy>  (16) 
-8.25

>  <cluster_rmsd>  (16) 
1.52

>  <cluster>  (16) 
1

$$$$

     RDKit          3D

 42 45  0  0  0  0  0  0  0  0999 V2000
  145.9680   72.3450  219.6450 N   0  0  0  0  0  0  0  0  0  0  0  0
  144.9140   72.6950  219.9850 C   0  0  0  0  0  0  0  0  0  0  0  0
  143.6210   73.1190  220.4160 C   0  0  0  0  0  0  0  0  0  0  0  0
  143.3580   74.4660  220.4330 C   0  0  0  0  0  0  0  0  0  0  0  0
  142.1170   74.9210  220.8450 C   0  0  0  0  0  0  0  0  0  0  0  0
  141.1560   73.9880  221.2350 C   0  0  0  0  0  0  0  0  0  0  0  0
  141.3960   72.6330  221.2260 C   0  0  0  0  0  0  0  0  0  0  0  0
  140.4120   71.6710  221.6250 C   0  0  0  0  0  0  0  0  0  0  0  0
  139.5820   71.8030  222.6480 C   0  0  0  0  0  0  0  0  0  0  0  0
  139.7610   70.9790  223.8640 C   0  0  0  0  0  0  0  0  0  0  0  0
  140.3320   71.5350  224.9590 N   0  0  0  0  0  0  0  0  0  0  0  0
  140.5300   70.8480  226.1130 C   0  0  0  0  0  0  0  0  0  0  0  0
  141.1150   71.4420  227.2100 C   0  0  0  0  0  0  0  0  0  0  0  0
  141.2770   70.6690  228.3420 C   0  0  0  0  0  0  0  0  0  0  0  0
  140.8600   69.3600  228.3400 C   0  0  0  0  0  0  0  0  0  0  0  0
  140.2720   68.7450  227.2530 C   0  0  0  0  0  0  0  0  0  0  0  0
  140.1110   69.5330  226.1080 C   0  0  0  0  0  0  0  0  0  0  0  0
  139.5300   68.9810  224.9860 C   0  0  0  0  0  0  0  0  0  0  0  0
  139.1550   67.7820  225.0020 O   0  0  0  0  0  0  0  0  0  0  0  0
  139.3460   69.7010  223.8400 N   0  0  0  0  0  0  0  0  0  0  0  0
  138.7400   69.0600  222.7250 C   0  0  0  0  0  0  0  0  0  0  0  0
  137.2940   68.7840  222.9160 C   0  0  0  0  0  0  0  0  0  0  0  0
  136.3600   69.4480  223.6820 C   0  0  0  0  0  0  0  0  0  0  0  0
  135.1560   68.7730  223.5000 C   0  0  0  0  0  0  0  0  0  0  0  0
  135.3370   67.7660  222.6800 O   0  0  0  0  0  0  0  0  0  0  0  0
  136.5930   67.7420  222.3130 C   0  0  0  0  0  0  0  0  0  0  0  0
  142.6450   72.2240  220.8090 C   0  0  0  0  0  0  0  0  0  0  0  0
  144.1316   75.1826  220.1199 H   0  0  0  0  0  0  0  0  0  0  0  0
  141.8930   75.9978  220.8645 H   0  0  0  0  0  0  0  0  0  0  0  0
  140.1696   74.3489  221.5619 H   0  0  0  0  0  0  0  0  0  0  0  0
  140.3403   70.7468  221.0327 H   0  0  0  0  0  0  0  0  0  0  0  0
  138.7564   72.5278  222.5938 H   0  0  0  0  0  0  0  0  0  0  0  0
  141.4406   72.4924  227.1846 H   0  0  0  0  0  0  0  0  0  0  0  0
  141.7385   71.0997  229.2428 H   0  0  0  0  0  0  0  0  0  0  0  0
  141.0027   68.7685  229.2564 H   0  0  0  0  0  0  0  0  0  0  0  0
  139.9481   67.6942  227.2851 H   0  0  0  0  0  0  0  0  0  0  0  0
  138.8576   69.7083  221.8442 H   0  0  0  0  0  0  0  0  0  0  0  0
  139.2412   68.0891  222.5976 H   0  0  0  0  0  0  0  0  0  0  0  0
  136.5316   70.3339  224.3112 H   0  0  0  0  0  0  0  0  0  0  0  0
  134.1997   69.0431  223.9717 H   0  0  0  0  0  0  0  0  0  0  0  0
  137.0327   67.0039  221.6260 H   0  0  0  0  0  0  0  0  0  0  0  0
  142.8720   71.1479  220.7886 H   0  0  0  0  0  0  0  0  0  0  0  0
  1  2  3  0
  2  3  1  0
  3  4  2  0
  4  5  1  0
  5  6  2  0
  6  7  1  0
  7  8  1  0
  8  9  2  0
  9 10  1  0
 10 11  2  0
 11 12  1  0
 12 13  2  0
 13 14  1  0
 14 15  2  0
 15 16  1  0
 16 17  2  0
 17 18  1  0
 18 19  2  0
 18 20  1  0
 20 21  1  0
 21 22  1  0
 22 23  1  0
 23 24  2  0
 24 25  1  0
 25 26  1  0
  7 27  2  0
 27  3  1  0
 20 10  1  0
 26 22  2  0
 17 12  1  0
  4 28  1  0
  5 29  1  0
  6 30  1  0
  8 31  1  0
  9 32  1  0
 13 33  1  0
 14 34  1  0
 15 35  1  0
 16 36  1  0
 21 37  1  0
 21 38  1  0
 23 39  1  0
 24 40  1  0
 26 41  1  0
 27 42  1  0
M  END
>  <smiles>  (17) 
N#Cc1cccc(/C=C/c2nc3ccccc3c(=O)n2Cc2ccoc2)c1

>  <score_type>  (17) 
oracle

>  <origin>  (17) 
autodockgpu

>  <m_score__min__energy>  (17) 
-8.9199999999999999

>  <m_primary>  (17) 
energy

>  <rmsd>  (17) 
12.127699948955682

>  <m_score__min__rmsd>  (17) 
12.127699948955682

>  <meeko>  (17) 
{"free_energy": -7.98, "intermolecular_energy": -9.77, "internal_energy": -0.97, "cluster_size": 16, "cluster_id": 2, "rank_in_cluster": 12}

>  <energy>  (17) 
-8.24

>  <cluster_rmsd>  (17) 
0.91

>  <cluster>  (17) 
1

$$$$

     RDKit          3D

 42 45  0  0  0  0  0  0  0  0999 V2000
  146.3350   73.0570  219.5910 N   0  0  0  0  0  0  0  0  0  0  0  0
  145.2390   73.2020  219.9470 C   0  0  0  0  0  0  0  0  0  0  0  0
  143.8880   73.3810  220.3700 C   0  0  0  0  0  0  0  0  0  0  0  0
  143.3980   74.6620  220.4340 C   0  0  0  0  0  0  0  0  0  0  0  0
  142.0930   74.8810  220.8400 C   0  0  0  0  0  0  0  0  0  0  0  0
  141.3000   73.7840  221.1760 C   0  0  0  0  0  0  0  0  0  0  0  0
  141.7680   72.4910  221.1190 C   0  0  0  0  0  0  0  0  0  0  0  0
  140.9590   71.3600  221.4630 C   0  0  0  0  0  0  0  0  0  0  0  0
  139.8900   71.3910  222.2430 C   0  0  0  0  0  0  0  0  0  0  0  0
  139.9410   70.8040  223.6000 C   0  0  0  0  0  0  0  0  0  0  0  0
  140.4230   71.5480  224.6240 N   0  0  0  0  0  0  0  0  0  0  0  0
  140.5010   71.0830  225.8970 C   0  0  0  0  0  0  0  0  0  0  0  0
  140.9980   71.8650  226.9170 C   0  0  0  0  0  0  0  0  0  0  0  0
  141.0390   71.3120  228.1800 C   0  0  0  0  0  0  0  0  0  0  0  0
  140.5950   70.0270  228.3790 C   0  0  0  0  0  0  0  0  0  0  0  0
  140.0950   69.2270  227.3720 C   0  0  0  0  0  0  0  0  0  0  0  0
  140.0540   69.7920  226.0930 C   0  0  0  0  0  0  0  0  0  0  0  0
  139.5650   69.0470  225.0410 C   0  0  0  0  0  0  0  0  0  0  0  0
  139.1630   67.8730  225.2410 O   0  0  0  0  0  0  0  0  0  0  0  0
  139.5000   69.5450  223.7710 N   0  0  0  0  0  0  0  0  0  0  0  0
  138.9840   68.7140  222.7400 C   0  0  0  0  0  0  0  0  0  0  0  0
  137.5160   68.5090  222.8270 C   0  0  0  0  0  0  0  0  0  0  0  0
  136.6670   67.8280  221.9810 C   0  0  0  0  0  0  0  0  0  0  0  0
  135.3920   67.9460  222.5300 C   0  0  0  0  0  0  0  0  0  0  0  0
  135.4550   68.6510  223.6340 O   0  0  0  0  0  0  0  0  0  0  0  0
  136.6980   69.0010  223.8410 C   0  0  0  0  0  0  0  0  0  0  0  0
  143.0740   72.3180  220.7100 C   0  0  0  0  0  0  0  0  0  0  0  0
  144.0411   75.5124  220.1632 H   0  0  0  0  0  0  0  0  0  0  0  0
  141.6884   75.9023  220.8966 H   0  0  0  0  0  0  0  0  0  0  0  0
  140.2629   73.9586  221.4982 H   0  0  0  0  0  0  0  0  0  0  0  0
  141.2501   70.3853  221.0444 H   0  0  0  0  0  0  0  0  0  0  0  0
  138.9606   71.8548  221.8810 H   0  0  0  0  0  0  0  0  0  0  0  0
  141.3486   72.8909  226.7311 H   0  0  0  0  0  0  0  0  0  0  0  0
  141.4264   71.8985  229.0261 H   0  0  0  0  0  0  0  0  0  0  0  0
  140.6407   69.6132  229.3972 H   0  0  0  0  0  0  0  0  0  0  0  0
  139.7477   68.2012  227.5645 H   0  0  0  0  0  0  0  0  0  0  0  0
  139.2143   69.1784  221.7698 H   0  0  0  0  0  0  0  0  0  0  0  0
  139.4568   67.7271  222.8513 H   0  0  0  0  0  0  0  0  0  0  0  0
  136.9413   67.2975  221.0572 H   0  0  0  0  0  0  0  0  0  0  0  0
  134.4744   67.5146  222.1034 H   0  0  0  0  0  0  0  0  0  0  0  0
  137.0478   69.5993  224.6952 H   0  0  0  0  0  0  0  0  0  0  0  0
  143.4815   71.2979  220.6526 H   0  0  0  0  0  0  0  0  0  0  0  0
  1  2  3  0
  2  3  1  0
  3  4  2  0
  4  5  1  0
  5  6  2  0
  6  7  1  0
  7  8  1  0
  8  9  2  0
  9 10  1  0
 10 11  2  0
 11 12  1  0
 12 13  2  0
 13 14  1  0
 14 15  2  0
 15 16  1  0
 16 17  2  0
 17 18  1  0
 18 19  2  0
 18 20  1  0
 20 21  1  0
 21 22  1  0
 22 23  1  0
 23 24  2  0
 24 25  1  0
 25 26  1  0
  7 27  2  0
 27  3  1  0
 20 10  1  0
 26 22  2  0
 17 12  1  0
  4 28  1  0
  5 29  1  0
  6 30  1  0
  8 31  1  0
  9 32  1  0
 13 33  1  0
 14 34  1  0
 15 35  1  0
 16 36  1  0
 21 37  1  0
 21 38  1  0
 23 39  1  0
 24 40  1  0
 26 41  1  0
 27 42  1  0
M  END
>  <smiles>  (18) 
N#Cc1cccc(/C=C/c2nc3ccccc3c(=O)n2Cc2ccoc2)c1

>  <score_type>  (18) 
oracle

>  <origin>  (18) 
autodockgpu

>  <m_score__min__energy>  (18) 
-8.9199999999999999

>  <m_primary>  (18) 
energy

>  <rmsd>  (18) 
12.116592956135229

>  <m_score__min__rmsd>  (18) 
12.116592956135229

>  <meeko>  (18) 
{"free_energy": -8.19, "intermolecular_energy": -9.98, "internal_energy": -0.88, "cluster_size": 16, "cluster_id": 2, "rank_in_cluster": 5}

>  <energy>  (18) 
-8.23

>  <cluster_rmsd>  (18) 
0.59

>  <cluster>  (18) 
1

$$$$

     RDKit          3D

 42 45  0  0  0  0  0  0  0  0999 V2000
  141.4540   71.8060  228.5960 N   0  0  0  0  0  0  0  0  0  0  0  0
  141.0530   71.3610  227.6000 C   0  0  0  0  0  0  0  0  0  0  0  0
  140.5470   70.8190  226.3810 C   0  0  0  0  0  0  0  0  0  0  0  0
  140.1850   69.4960  226.3650 C   0  0  0  0  0  0  0  0  0  0  0  0
  139.6900   68.9290  225.2040 C   0  0  0  0  0  0  0  0  0  0  0  0
  139.5690   69.7280  224.0660 C   0  0  0  0  0  0  0  0  0  0  0  0
  139.9250   71.0570  224.0560 C   0  0  0  0  0  0  0  0  0  0  0  0
  139.8040   71.8810  222.8910 C   0  0  0  0  0  0  0  0  0  0  0  0
  140.7720   72.1290  222.0230 C   0  0  0  0  0  0  0  0  0  0  0  0
  141.0490   73.5160  221.5900 C   0  0  0  0  0  0  0  0  0  0  0  0
  140.3510   74.5340  222.1480 N   0  0  0  0  0  0  0  0  0  0  0  0
  140.5460   75.8330  221.8070 C   0  0  0  0  0  0  0  0  0  0  0  0
  139.8190   76.8460  222.3940 C   0  0  0  0  0  0  0  0  0  0  0  0
  140.0830   78.1370  221.9880 C   0  0  0  0  0  0  0  0  0  0  0  0
  141.0420   78.3690  221.0310 C   0  0  0  0  0  0  0  0  0  0  0  0
  141.7820   77.3710  220.4310 C   0  0  0  0  0  0  0  0  0  0  0  0
  141.5090   76.0630  220.8460 C   0  0  0  0  0  0  0  0  0  0  0  0
  142.2130   75.0170  220.2870 C   0  0  0  0  0  0  0  0  0  0  0  0
  143.0860   75.2480  219.4130 O   0  0  0  0  0  0  0  0  0  0  0  0
  141.9910   73.7200  220.6530 N   0  0  0  0  0  0  0  0  0  0  0  0
  142.7570   72.6980  220.0290 C   0  0  0  0  0  0  0  0  0  0  0  0
  144.2220   72.9200  220.1170 C   0  0  0  0  0  0  0  0  0  0  0  0
  144.9870   73.3690  221.1730 C   0  0  0  0  0  0  0  0  0  0  0  0
  146.3030   73.3910  220.7190 C   0  0  0  0  0  0  0  0  0  0  0  0
  146.3440   72.9850  219.4730 O   0  0  0  0  0  0  0  0  0  0  0  0
  145.1280   72.6970  219.0840 C   0  0  0  0  0  0  0  0  0  0  0  0
  140.4140   71.5800  225.2350 C   0  0  0  0  0  0  0  0  0  0  0  0
  140.2882   68.8862  227.2747 H   0  0  0  0  0  0  0  0  0  0  0  0
  139.3975   67.8689  225.1784 H   0  0  0  0  0  0  0  0  0  0  0  0
  139.1744   69.2785  223.1428 H   0  0  0  0  0  0  0  0  0  0  0  0
  138.8254   72.3464  222.7018 H   0  0  0  0  0  0  0  0  0  0  0  0
  141.3733   71.2998  221.6218 H   0  0  0  0  0  0  0  0  0  0  0  0
  139.0567   76.6326  223.1578 H   0  0  0  0  0  0  0  0  0  0  0  0
  139.5280   78.9784  222.4285 H   0  0  0  0  0  0  0  0  0  0  0  0
  141.2301   79.4091  220.7263 H   0  0  0  0  0  0  0  0  0  0  0  0
  142.5440   77.5914  219.6689 H   0  0  0  0  0  0  0  0  0  0  0  0
  142.5201   71.7397  220.5143 H   0  0  0  0  0  0  0  0  0  0  0  0
  142.4925   72.7010  218.9613 H   0  0  0  0  0  0  0  0  0  0  0  0
  144.6291   73.6529  222.1737 H   0  0  0  0  0  0  0  0  0  0  0  0
  147.1744   73.7013  221.3142 H   0  0  0  0  0  0  0  0  0  0  0  0
  144.8598   72.3305  218.0821 H   0  0  0  0  0  0  0  0  0  0  0  0
  140.7083   72.6395  225.2641 H   0  0  0  0  0  0  0  0  0  0  0  0
  1  2  3  0
  2  3  1  0
  3  4  2  0
  4  5  1  0
  5  6  2  0
  6  7  1  0
  7  8  1  0
  8  9  2  0
  9 10  1  0
 10 11  2  0
 11 12  1  0
 12 13  2  0
 13 14  1  0
 14 15  2  0
 15 16  1  0
 16 17  2  0
 17 18  1  0
 18 19  2  0
 18 20  1  0
 20 21  1  0
 21 22  1  0
 22 23  1  0
 23 24  2  0
 24 25  1  0
 25 26  1  0
  7 27  2  0
 27  3  1  0
 20 10  1  0
 26 22  2  0
 17 12  1  0
  4 28  1  0
  5 29  1  0
  6 30  1  0
  8 31  1  0
  9 32  1  0
 13 33  1  0
 14 34  1  0
 15 35  1  0
 16 36  1  0
 21 37  1  0
 21 38  1  0
 23 39  1  0
 24 40  1  0
 26 41  1  0
 27 42  1  0
M  END
>  <smiles>  (19) 
N#Cc1cccc(/C=C/c2nc3ccccc3c(=O)n2Cc2ccoc2)c1

>  <score_type>  (19) 
oracle

>  <origin>  (19) 
autodockgpu

>  <m_score__min__energy>  (19) 
-8.9199999999999999

>  <m_primary>  (19) 
energy

>  <rmsd>  (19) 
7.322388396482753

>  <m_score__min__rmsd>  (19) 
7.322388396482753

>  <meeko>  (19) 
{"free_energy": -8.64, "intermolecular_energy": -10.43, "internal_energy": -0.8, "cluster_size": 26, "cluster_id": 1, "rank_in_cluster": 5}

>  <energy>  (19) 
-8.23

>  <cluster_rmsd>  (19) 
0.91

>  <cluster>  (19) 
1

$$$$

     RDKit          3D

 42 45  0  0  0  0  0  0  0  0999 V2000
  146.3240   72.9970  219.7280 N   0  0  0  0  0  0  0  0  0  0  0  0
  145.2240   73.1880  220.0480 C   0  0  0  0  0  0  0  0  0  0  0  0
  143.8750   73.4200  220.4540 C   0  0  0  0  0  0  0  0  0  0  0  0
  143.4190   74.7150  220.4640 C   0  0  0  0  0  0  0  0  0  0  0  0
  142.1190   74.9840  220.8520 C   0  0  0  0  0  0  0  0  0  0  0  0
  141.2950   73.9220  221.2250 C   0  0  0  0  0  0  0  0  0  0  0  0
  141.7290   72.6160  221.2230 C   0  0  0  0  0  0  0  0  0  0  0  0
  140.8870   71.5210  221.6050 C   0  0  0  0  0  0  0  0  0  0  0  0
  139.8840   71.5900  222.4670 C   0  0  0  0  0  0  0  0  0  0  0  0
  139.9420   70.8360  223.7390 C   0  0  0  0  0  0  0  0  0  0  0  0
  140.4190   71.4490  224.8480 N   0  0  0  0  0  0  0  0  0  0  0  0
  140.5020   70.8280  226.0530 C   0  0  0  0  0  0  0  0  0  0  0  0
  140.9930   71.4800  227.1630 C   0  0  0  0  0  0  0  0  0  0  0  0
  141.0420   70.7720  228.3460 C   0  0  0  0  0  0  0  0  0  0  0  0
  140.6090   69.4680  228.3810 C   0  0  0  0  0  0  0  0  0  0  0  0
  140.1140   68.7970  227.2810 C   0  0  0  0  0  0  0  0  0  0  0  0
  140.0670   69.5190  226.0830 C   0  0  0  0  0  0  0  0  0  0  0  0
  139.5830   68.9080  224.9460 C   0  0  0  0  0  0  0  0  0  0  0  0
  139.1920   67.7150  224.9960 O   0  0  0  0  0  0  0  0  0  0  0  0
  139.5130   69.5620  223.7490 N   0  0  0  0  0  0  0  0  0  0  0  0
  139.0020   68.8630  222.6220 C   0  0  0  0  0  0  0  0  0  0  0  0
  137.5610   68.5260  222.7390 C   0  0  0  0  0  0  0  0  0  0  0  0
  136.7740   67.7220  221.9430 C   0  0  0  0  0  0  0  0  0  0  0  0
  135.4990   67.7500  222.5010 C   0  0  0  0  0  0  0  0  0  0  0  0
  135.5030   68.5170  223.5650 O   0  0  0  0  0  0  0  0  0  0  0  0
  136.7090   68.9940  223.7350 C   0  0  0  0  0  0  0  0  0  0  0  0
  143.0310   72.3930  220.8300 C   0  0  0  0  0  0  0  0  0  0  0  0
  144.0860   75.5367  220.1641 H   0  0  0  0  0  0  0  0  0  0  0  0
  141.7415   76.0171  220.8662 H   0  0  0  0  0  0  0  0  0  0  0  0
  140.2606   74.1362  221.5319 H   0  0  0  0  0  0  0  0  0  0  0  0
  141.0905   70.5430  221.1444 H   0  0  0  0  0  0  0  0  0  0  0  0
  139.0049   72.2098  222.2367 H   0  0  0  0  0  0  0  0  0  0  0  0
  141.3328   72.5248  227.1080 H   0  0  0  0  0  0  0  0  0  0  0  0
  141.4267   71.2499  229.2590 H   0  0  0  0  0  0  0  0  0  0  0  0
  140.6597   68.9293  229.3387 H   0  0  0  0  0  0  0  0  0  0  0  0
  139.7751   67.7523  227.3426 H   0  0  0  0  0  0  0  0  0  0  0  0
  139.1416   69.4911  221.7298 H   0  0  0  0  0  0  0  0  0  0  0  0
  139.5524   67.9131  222.5530 H   0  0  0  0  0  0  0  0  0  0  0  0
  137.0901   67.1689  221.0462 H   0  0  0  0  0  0  0  0  0  0  0  0
  134.6230   67.2118  222.1099 H   0  0  0  0  0  0  0  0  0  0  0  0
  137.0076   69.6696  224.5501 H   0  0  0  0  0  0  0  0  0  0  0  0
  143.4115   71.3610  220.8152 H   0  0  0  0  0  0  0  0  0  0  0  0
  1  2  3  0
  2  3  1  0
  3  4  2  0
  4  5  1  0
  5  6  2  0
  6  7  1  0
  7  8  1  0
  8  9  2  0
  9 10  1  0
 10 11  2  0
 11 12  1  0
 12 13  2  0
 13 14  1  0
 14 15  2  0
 15 16  1  0
 16 17  2  0
 17 18  1  0
 18 19  2  0
 18 20  1  0
 20 21  1  0
 21 22  1  0
 22 23  1  0
 23 24  2  0
 24 25  1  0
 25 26  1  0
  7 27  2  0
 27  3  1  0
 20 10  1  0
 26 22  2  0
 17 12  1  0
  4 28  1  0
  5 29  1  0
  6 30  1  0
  8 31  1  0
  9 32  1  0
 13 33  1  0
 14 34  1  0
 15 35  1  0
 16 36  1  0
 21 37  1  0
 21 38  1  0
 23 39  1  0
 24 40  1  0
 26 41  1  0
 27 42  1  0
M  END
>  <smiles>  (20) 
N#Cc1cccc(/C=C/c2nc3ccccc3c(=O)n2Cc2ccoc2)c1

>  <score_type>  (20) 
oracle

>  <origin>  (20) 
autodockgpu

>  <m_score__min__energy>  (20) 
-8.9199999999999999

>  <m_primary>  (20) 
energy

>  <rmsd>  (20) 
12.227964124112763

>  <m_score__min__rmsd>  (20) 
12.227964124112763

>  <meeko>  (20) 
{"free_energy": -8.33, "intermolecular_energy": -10.12, "internal_energy": -0.84, "cluster_size": 16, "cluster_id": 2, "rank_in_cluster": 1}

>  <energy>  (20) 
-8.16

>  <cluster_rmsd>  (20) 
1.51

>  <cluster>  (20) 
1

$$$$

     RDKit          3D

 42 45  0  0  0  0  0  0  0  0999 V2000
  141.4380   71.8720  228.3520 N   0  0  0  0  0  0  0  0  0  0  0  0
  141.0080   71.4110  227.3770 C   0  0  0  0  0  0  0  0  0  0  0  0
  140.4790   70.8570  226.1720 C   0  0  0  0  0  0  0  0  0  0  0  0
  140.0180   69.5650  226.2050 C   0  0  0  0  0  0  0  0  0  0  0  0
  139.4980   68.9880  225.0590 C   0  0  0  0  0  0  0  0  0  0  0  0
  139.4530   69.7450  223.8880 C   0  0  0  0  0  0  0  0  0  0  0  0
  139.9090   71.0420  223.8300 C   0  0  0  0  0  0  0  0  0  0  0  0
  139.8650   71.8240  222.6300 C   0  0  0  0  0  0  0  0  0  0  0  0
  140.9130   72.1460  221.8870 C   0  0  0  0  0  0  0  0  0  0  0  0
  141.1460   73.5540  221.4980 C   0  0  0  0  0  0  0  0  0  0  0  0
  140.4920   74.5390  222.1590 N   0  0  0  0  0  0  0  0  0  0  0  0
  140.6520   75.8540  221.8640 C   0  0  0  0  0  0  0  0  0  0  0  0
  139.9710   76.8320  222.5560 C   0  0  0  0  0  0  0  0  0  0  0  0
  140.1950   78.1430  222.1900 C   0  0  0  0  0  0  0  0  0  0  0  0
  141.0700   78.4280  221.1690 C   0  0  0  0  0  0  0  0  0  0  0  0
  141.7610   77.4640  220.4630 C   0  0  0  0  0  0  0  0  0  0  0  0
  141.5310   76.1360  220.8390 C   0  0  0  0  0  0  0  0  0  0  0  0
  142.1900   75.1240  220.1740 C   0  0  0  0  0  0  0  0  0  0  0  0
  142.9870   75.4030  219.2430 O   0  0  0  0  0  0  0  0  0  0  0  0
  142.0060   73.8090  220.4960 N   0  0  0  0  0  0  0  0  0  0  0  0
  142.7220   72.8230  219.7650 C   0  0  0  0  0  0  0  0  0  0  0  0
  144.1960   72.9510  219.8870 C   0  0  0  0  0  0  0  0  0  0  0  0
  144.9550   73.5160  220.8900 C   0  0  0  0  0  0  0  0  0  0  0  0
  146.2840   73.3670  220.5040 C   0  0  0  0  0  0  0  0  0  0  0  0
  146.3380   72.7540  219.3450 O   0  0  0  0  0  0  0  0  0  0  0  0
  145.1190   72.4930  218.9500 C   0  0  0  0  0  0  0  0  0  0  0  0
  140.4190   71.5760  224.9940 C   0  0  0  0  0  0  0  0  0  0  0  0
  140.0616   68.9885  227.1408 H   0  0  0  0  0  0  0  0  0  0  0  0
  139.1274   67.9524  225.0715 H   0  0  0  0  0  0  0  0  0  0  0  0
  139.0377   69.2883  222.9776 H   0  0  0  0  0  0  0  0  0  0  0  0
  138.8806   72.1864  222.2990 H   0  0  0  0  0  0  0  0  0  0  0  0
  141.6127   71.3636  221.5580 H   0  0  0  0  0  0  0  0  0  0  0  0
  139.2754   76.5770  223.3691 H   0  0  0  0  0  0  0  0  0  0  0  0
  139.6747   78.9583  222.7139 H   0  0  0  0  0  0  0  0  0  0  0  0
  141.2283   79.4827  220.8997 H   0  0  0  0  0  0  0  0  0  0  0  0
  142.4541   77.7253  219.6498 H   0  0  0  0  0  0  0  0  0  0  0  0
  142.4265   71.8308  220.1367 H   0  0  0  0  0  0  0  0  0  0  0  0
  142.4715   72.9616  218.7029 H   0  0  0  0  0  0  0  0  0  0  0  0
  144.5844   73.9897  221.8110 H   0  0  0  0  0  0  0  0  0  0  0  0
  147.1549   73.7103  221.0816 H   0  0  0  0  0  0  0  0  0  0  0  0
  144.8593   71.9836  218.0103 H   0  0  0  0  0  0  0  0  0  0  0  0
  140.7913   72.6110  224.9845 H   0  0  0  0  0  0  0  0  0  0  0  0
  1  2  3  0
  2  3  1  0
  3  4  2  0
  4  5  1  0
  5  6  2  0
  6  7  1  0
  7  8  1  0
  8  9  2  0
  9 10  1  0
 10 11  2  0
 11 12  1  0
 12 13  2  0
 13 14  1  0
 14 15  2  0
 15 16  1  0
 16 17  2  0
 17 18  1  0
 18 19  2  0
 18 20  1  0
 20 21  1  0
 21 22  1  0
 22 23  1  0
 23 24  2  0
 24 25  1  0
 25 26  1  0
  7 27  2  0
 27  3  1  0
 20 10  1  0
 26 22  2  0
 17 12  1  0
  4 28  1  0
  5 29  1  0
  6 30  1  0
  8 31  1  0
  9 32  1  0
 13 33  1  0
 14 34  1  0
 15 35  1  0
 16 36  1  0
 21 37  1  0
 21 38  1  0
 23 39  1  0
 24 40  1  0
 26 41  1  0
 27 42  1  0
M  END
>  <smiles>  (21) 
N#Cc1cccc(/C=C/c2nc3ccccc3c(=O)n2Cc2ccoc2)c1

>  <score_type>  (21) 
oracle

>  <origin>  (21) 
autodockgpu

>  <m_score__min__energy>  (21) 
-8.9199999999999999

>  <m_primary>  (21) 
energy

>  <rmsd>  (21) 
7.373303363321767

>  <m_score__min__rmsd>  (21) 
7.373303363321767

>  <meeko>  (21) 
{"free_energy": -8.55, "intermolecular_energy": -10.34, "internal_energy": -0.88, "cluster_size": 26, "cluster_id": 1, "rank_in_cluster": 9}

>  <energy>  (21) 
-8.15

>  <cluster_rmsd>  (21) 
0.86

>  <cluster>  (21) 
1

$$$$

     RDKit          3D

 42 45  0  0  0  0  0  0  0  0999 V2000
  133.6570   73.8350  226.5020 N   0  0  0  0  0  0  0  0  0  0  0  0
  133.9110   72.7500  226.1740 C   0  0  0  0  0  0  0  0  0  0  0  0
  134.2320   71.4220  225.7610 C   0  0  0  0  0  0  0  0  0  0  0  0
  133.6860   70.3780  226.4650 C   0  0  0  0  0  0  0  0  0  0  0  0
  133.9720   69.0750  226.0990 C   0  0  0  0  0  0  0  0  0  0  0  0
  134.8160   68.8530  225.0110 C   0  0  0  0  0  0  0  0  0  0  0  0
  135.3750   69.8820  224.2890 C   0  0  0  0  0  0  0  0  0  0  0  0
  136.2430   69.6600  223.1710 C   0  0  0  0  0  0  0  0  0  0  0  0
  137.4200   69.0560  223.2220 C   0  0  0  0  0  0  0  0  0  0  0  0
  138.3860   69.3940  224.2910 C   0  0  0  0  0  0  0  0  0  0  0  0
  138.5730   68.5240  225.3110 N   0  0  0  0  0  0  0  0  0  0  0  0
  139.4410   68.7590  226.3280 C   0  0  0  0  0  0  0  0  0  0  0  0
  139.6090   67.8530  227.3520 C   0  0  0  0  0  0  0  0  0  0  0  0
  140.5130   68.1740  228.3440 C   0  0  0  0  0  0  0  0  0  0  0  0
  141.2020   69.3620  228.2820 C   0  0  0  0  0  0  0  0  0  0  0  0
  141.0490   70.2830  227.2660 C   0  0  0  0  0  0  0  0  0  0  0  0
  140.1310   69.9530  226.2630 C   0  0  0  0  0  0  0  0  0  0  0  0
  139.9310   70.8290  225.2180 C   0  0  0  0  0  0  0  0  0  0  0  0
  140.5700   71.9110  225.1770 O   0  0  0  0  0  0  0  0  0  0  0  0
  139.0490   70.5610  224.2090 N   0  0  0  0  0  0  0  0  0  0  0  0
  138.8970   71.5150  223.1670 C   0  0  0  0  0  0  0  0  0  0  0  0
  139.9780   71.4560  222.1500 C   0  0  0  0  0  0  0  0  0  0  0  0
  140.2480   70.4930  221.2020 C   0  0  0  0  0  0  0  0  0  0  0  0
  141.3720   70.9340  220.5090 C   0  0  0  0  0  0  0  0  0  0  0  0
  141.7650   72.0860  220.9980 O   0  0  0  0  0  0  0  0  0  0  0  0
  140.9610   72.4260  221.9720 C   0  0  0  0  0  0  0  0  0  0  0  0
  135.0640   71.1640  224.6880 C   0  0  0  0  0  0  0  0  0  0  0  0
  133.0219   70.5771  227.3190 H   0  0  0  0  0  0  0  0  0  0  0  0
  133.5417   68.2295  226.6558 H   0  0  0  0  0  0  0  0  0  0  0  0
  135.0430   67.8169  224.7195 H   0  0  0  0  0  0  0  0  0  0  0  0
  135.9034   70.0213  222.1891 H   0  0  0  0  0  0  0  0  0  0  0  0
  137.6809   68.2999  222.4668 H   0  0  0  0  0  0  0  0  0  0  0  0
  139.0440   66.9095  227.3780 H   0  0  0  0  0  0  0  0  0  0  0  0
  140.6818   67.4814  229.1818 H   0  0  0  0  0  0  0  0  0  0  0  0
  141.9152   69.5912  229.0875 H   0  0  0  0  0  0  0  0  0  0  0  0
  141.6173   71.2246  227.2457 H   0  0  0  0  0  0  0  0  0  0  0  0
  137.9356   71.3324  222.6647 H   0  0  0  0  0  0  0  0  0  0  0  0
  138.9417   72.5116  223.6305 H   0  0  0  0  0  0  0  0  0  0  0  0
  139.6878   69.5625  221.0278 H   0  0  0  0  0  0  0  0  0  0  0  0
  141.8561   70.3987  219.6789 H   0  0  0  0  0  0  0  0  0  0  0  0
  141.0489   73.3475  222.5662 H   0  0  0  0  0  0  0  0  0  0  0  0
  135.4929   72.0114  224.1331 H   0  0  0  0  0  0  0  0  0  0  0  0
  1  2  3  0
  2  3  1  0
  3  4  2  0
  4  5  1  0
  5  6  2  0
  6  7  1  0
  7  8  1  0
  8  9  2  0
  9 10  1  0
 10 11  2  0
 11 12  1  0
 12 13  2  0
 13 14  1  0
 14 15  2  0
 15 16  1  0
 16 17  2  0
 17 18  1  0
 18 19  2  0
 18 20  1  0
 20 21  1  0
 21 22  1  0
 22 23  1  0
 23 24  2  0
 24 25  1  0
 25 26  1  0
  7 27  2  0
 27  3  1  0
 20 10  1  0
 26 22  2  0
 17 12  1  0
  4 28  1  0
  5 29  1  0
  6 30  1  0
  8 31  1  0
  9 32  1  0
 13 33  1  0
 14 34  1  0
 15 35  1  0
 16 36  1  0
 21 37  1  0
 21 38  1  0
 23 39  1  0
 24 40  1  0
 26 41  1  0
 27 42  1  0
M  END
>  <smiles>  (22) 
N#Cc1cccc(/C=C/c2nc3ccccc3c(=O)n2Cc2ccoc2)c1

>  <score_type>  (22) 
oracle

>  <origin>  (22) 
autodockgpu

>  <m_score__min__energy>  (22) 
-8.9199999999999999

>  <m_primary>  (22) 
energy

>  <rmsd>  (22) 
10.475892597312257

>  <m_score__min__rmsd>  (22) 
10.475892597312257

>  <meeko>  (22) 
{"free_energy": -6.96, "intermolecular_energy": -8.75, "internal_energy": -1.31, "cluster_size": 1, "cluster_id": 5, "rank_in_cluster": 1}

>  <energy>  (22) 
-8.1

>  <cluster_rmsd>  (22) 
1.49

>  <cluster>  (22) 
1

$$$$

     RDKit          3D

 42 45  0  0  0  0  0  0  0  0999 V2000
  133.6350   68.3250  226.4150 N   0  0  0  0  0  0  0  0  0  0  0  0
  134.0790   69.2850  225.9350 C   0  0  0  0  0  0  0  0  0  0  0  0
  134.6140   70.4640  225.3330 C   0  0  0  0  0  0  0  0  0  0  0  0
  134.2040   71.6790  225.8200 C   0  0  0  0  0  0  0  0  0  0  0  0
  134.6980   72.8470  225.2660 C   0  0  0  0  0  0  0  0  0  0  0  0
  135.6110   72.7570  224.2150 C   0  0  0  0  0  0  0  0  0  0  0  0
  136.0380   71.5510  223.7090 C   0  0  0  0  0  0  0  0  0  0  0  0
  136.9750   71.4530  222.6300 C   0  0  0  0  0  0  0  0  0  0  0  0
  138.2660   71.1900  222.7580 C   0  0  0  0  0  0  0  0  0  0  0  0
  138.7750   70.5310  223.9820 C   0  0  0  0  0  0  0  0  0  0  0  0
  139.4520   71.2670  224.8950 N   0  0  0  0  0  0  0  0  0  0  0  0
  139.9490   70.7380  226.0430 C   0  0  0  0  0  0  0  0  0  0  0  0
  140.6350   71.5140  226.9510 C   0  0  0  0  0  0  0  0  0  0  0  0
  141.1040   70.8940  228.0910 C   0  0  0  0  0  0  0  0  0  0  0  0
  140.8780   69.5520  228.2810 C   0  0  0  0  0  0  0  0  0  0  0  0
  140.1940   68.7570  227.3840 C   0  0  0  0  0  0  0  0  0  0  0  0
  139.7200   69.3900  226.2300 C   0  0  0  0  0  0  0  0  0  0  0  0
  139.0280   68.6540  225.2920 C   0  0  0  0  0  0  0  0  0  0  0  0
  138.8310   67.4270  225.4830 O   0  0  0  0  0  0  0  0  0  0  0  0
  138.5410   69.2170  224.1470 N   0  0  0  0  0  0  0  0  0  0  0  0
  137.8380   68.3910  223.2290 C   0  0  0  0  0  0  0  0  0  0  0  0
  138.7300   67.6120  222.3330 C   0  0  0  0  0  0  0  0  0  0  0  0
  139.0350   66.2680  222.3400 C   0  0  0  0  0  0  0  0  0  0  0  0
  139.9190   66.0630  221.2840 C   0  0  0  0  0  0  0  0  0  0  0  0
  140.1410   67.2010  220.6710 O   0  0  0  0  0  0  0  0  0  0  0  0
  139.4520   68.1410  221.2660 C   0  0  0  0  0  0  0  0  0  0  0  0
  135.5200   70.4130  224.2910 C   0  0  0  0  0  0  0  0  0  0  0  0
  133.4834   71.7249  226.6499 H   0  0  0  0  0  0  0  0  0  0  0  0
  134.3769   73.8277  225.6471 H   0  0  0  0  0  0  0  0  0  0  0  0
  136.0042   73.6850  223.7744 H   0  0  0  0  0  0  0  0  0  0  0  0
  136.5902   71.6091  221.6114 H   0  0  0  0  0  0  0  0  0  0  0  0
  138.9632   71.4621  221.9519 H   0  0  0  0  0  0  0  0  0  0  0  0
  140.8025   72.5867  226.7742 H   0  0  0  0  0  0  0  0  0  0  0  0
  141.6572   71.4724  228.8456 H   0  0  0  0  0  0  0  0  0  0  0  0
  141.2638   69.0853  229.1993 H   0  0  0  0  0  0  0  0  0  0  0  0
  140.0305   67.6846  227.5664 H   0  0  0  0  0  0  0  0  0  0  0  0
  137.2158   67.6862  223.8001 H   0  0  0  0  0  0  0  0  0  0  0  0
  137.2361   69.0545  222.5907 H   0  0  0  0  0  0  0  0  0  0  0  0
  138.6558   65.5089  223.0400 H   0  0  0  0  0  0  0  0  0  0  0  0
  140.3629   65.0955  221.0066 H   0  0  0  0  0  0  0  0  0  0  0  0
  139.4442   69.1992  220.9659 H   0  0  0  0  0  0  0  0  0  0  0  0
  135.8392   69.4307  223.9126 H   0  0  0  0  0  0  0  0  0  0  0  0
  1  2  3  0
  2  3  1  0
  3  4  2  0
  4  5  1  0
  5  6  2  0
  6  7  1  0
  7  8  1  0
  8  9  2  0
  9 10  1  0
 10 11  2  0
 11 12  1  0
 12 13  2  0
 13 14  1  0
 14 15  2  0
 15 16  1  0
 16 17  2  0
 17 18  1  0
 18 19  2  0
 18 20  1  0
 20 21  1  0
 21 22  1  0
 22 23  1  0
 23 24  2  0
 24 25  1  0
 25 26  1  0
  7 27  2  0
 27  3  1  0
 20 10  1  0
 26 22  2  0
 17 12  1  0
  4 28  1  0
  5 29  1  0
  6 30  1  0
  8 31  1  0
  9 32  1  0
 13 33  1  0
 14 34  1  0
 15 35  1  0
 16 36  1  0
 21 37  1  0
 21 38  1  0
 23 39  1  0
 24 40  1  0
 26 41  1  0
 27 42  1  0
M  END
>  <smiles>  (23) 
N#Cc1cccc(/C=C/c2nc3ccccc3c(=O)n2Cc2ccoc2)c1

>  <score_type>  (23) 
oracle

>  <origin>  (23) 
autodockgpu

>  <m_score__min__energy>  (23) 
-8.9199999999999999

>  <m_primary>  (23) 
energy

>  <rmsd>  (23) 
12.72190005421459

>  <m_score__min__rmsd>  (23) 
12.72190005421459

>  <meeko>  (23) 
{"free_energy": -7.14, "intermolecular_energy": -8.93, "internal_energy": -1.49, "cluster_size": 1, "cluster_id": 4, "rank_in_cluster": 1}

>  <energy>  (23) 
-8.08

>  <cluster_rmsd>  (23) 
1.48

>  <cluster>  (23) 
1

$$$$

     RDKit          3D

 42 45  0  0  0  0  0  0  0  0999 V2000
  146.0180   73.0000  219.3350 N   0  0  0  0  0  0  0  0  0  0  0  0
  144.9530   73.2200  219.7430 C   0  0  0  0  0  0  0  0  0  0  0  0
  143.6440   73.4770  220.2500 C   0  0  0  0  0  0  0  0  0  0  0  0
  143.2370   74.7840  220.3520 C   0  0  0  0  0  0  0  0  0  0  0  0
  141.9760   75.0780  220.8400 C   0  0  0  0  0  0  0  0  0  0  0  0
  141.1400   74.0270  221.2180 C   0  0  0  0  0  0  0  0  0  0  0  0
  141.5250   72.7090  221.1250 C   0  0  0  0  0  0  0  0  0  0  0  0
  140.6710   71.6250  221.5120 C   0  0  0  0  0  0  0  0  0  0  0  0
  139.6780   71.7050  222.3850 C   0  0  0  0  0  0  0  0  0  0  0  0
  139.8030   71.0700  223.7150 C   0  0  0  0  0  0  0  0  0  0  0  0
  140.4620   71.7240  224.7010 N   0  0  0  0  0  0  0  0  0  0  0  0
  140.6180   71.2100  225.9470 C   0  0  0  0  0  0  0  0  0  0  0  0
  141.2960   71.9010  226.9280 C   0  0  0  0  0  0  0  0  0  0  0  0
  141.4060   71.3040  228.1670 C   0  0  0  0  0  0  0  0  0  0  0  0
  140.8490   70.0650  228.3800 C   0  0  0  0  0  0  0  0  0  0  0  0
  140.1670   69.3560  227.4120 C   0  0  0  0  0  0  0  0  0  0  0  0
  140.0580   69.9670  226.1580 C   0  0  0  0  0  0  0  0  0  0  0  0
  139.3880   69.3120  225.1460 C   0  0  0  0  0  0  0  0  0  0  0  0
  138.8860   68.1810  225.3590 O   0  0  0  0  0  0  0  0  0  0  0  0
  139.2500   69.8580  223.9010 N   0  0  0  0  0  0  0  0  0  0  0  0
  138.5460   69.1210  222.9100 C   0  0  0  0  0  0  0  0  0  0  0  0
  137.1030   68.9520  223.2140 C   0  0  0  0  0  0  0  0  0  0  0  0
  136.3020   69.6270  224.1100 C   0  0  0  0  0  0  0  0  0  0  0  0
  135.0310   69.0720  223.9920 C   0  0  0  0  0  0  0  0  0  0  0  0
  135.0490   68.1230  223.0880 O   0  0  0  0  0  0  0  0  0  0  0  0
  136.2610   68.0240  222.6060 C   0  0  0  0  0  0  0  0  0  0  0  0
  142.7890   72.4610  220.6350 C   0  0  0  0  0  0  0  0  0  0  0  0
  143.9124   75.5966  220.0462 H   0  0  0  0  0  0  0  0  0  0  0  0
  141.6389   76.1213  220.9283 H   0  0  0  0  0  0  0  0  0  0  0  0
  140.1368   74.2602  221.6044 H   0  0  0  0  0  0  0  0  0  0  0  0
  140.8554   70.6460  221.0456 H   0  0  0  0  0  0  0  0  0  0  0  0
  138.7573   72.2455  222.1200 H   0  0  0  0  0  0  0  0  0  0  0  0
  141.7329   72.8910  226.7306 H   0  0  0  0  0  0  0  0  0  0  0  0
  141.9375   71.8175  228.9817 H   0  0  0  0  0  0  0  0  0  0  0  0
  140.9528   69.6137  229.3778 H   0  0  0  0  0  0  0  0  0  0  0  0
  139.7333   68.3657  227.6150 H   0  0  0  0  0  0  0  0  0  0  0  0
  138.6403   69.6496  221.9499 H   0  0  0  0  0  0  0  0  0  0  0  0
  138.9905   68.1153  222.8769 H   0  0  0  0  0  0  0  0  0  0  0  0
  136.6064   70.4415  224.7837 H   0  0  0  0  0  0  0  0  0  0  0  0
  134.1472   69.3821  224.5688 H   0  0  0  0  0  0  0  0  0  0  0  0
  136.5714   67.3088  221.8300 H   0  0  0  0  0  0  0  0  0  0  0  0
  143.1294   71.4187  220.5472 H   0  0  0  0  0  0  0  0  0  0  0  0
  1  2  3  0
  2  3  1  0
  3  4  2  0
  4  5  1  0
  5  6  2  0
  6  7  1  0
  7  8  1  0
  8  9  2  0
  9 10  1  0
 10 11  2  0
 11 12  1  0
 12 13  2  0
 13 14  1  0
 14 15  2  0
 15 16  1  0
 16 17  2  0
 17 18  1  0
 18 19  2  0
 18 20  1  0
 20 21  1  0
 21 22  1  0
 22 23  1  0
 23 24  2  0
 24 25  1  0
 25 26  1  0
  7 27  2  0
 27  3  1  0
 20 10  1  0
 26 22  2  0
 17 12  1  0
  4 28  1  0
  5 29  1  0
  6 30  1  0
  8 31  1  0
  9 32  1  0
 13 33  1  0
 14 34  1  0
 15 35  1  0
 16 36  1  0
 21 37  1  0
 21 38  1  0
 23 39  1  0
 24 40  1  0
 26 41  1  0
 27 42  1  0
M  END
>  <smiles>  (24) 
N#Cc1cccc(/C=C/c2nc3ccccc3c(=O)n2Cc2ccoc2)c1

>  <score_type>  (24) 
oracle

>  <origin>  (24) 
autodockgpu

>  <m_score__min__energy>  (24) 
-8.9199999999999999

>  <m_primary>  (24) 
energy

>  <rmsd>  (24) 
11.935088800533693

>  <m_score__min__rmsd>  (24) 
11.935088800533693

>  <meeko>  (24) 
{"free_energy": -8.09, "intermolecular_energy": -9.88, "internal_energy": -0.94, "cluster_size": 16, "cluster_id": 2, "rank_in_cluster": 9}

>  <energy>  (24) 
-8.07

>  <cluster_rmsd>  (24) 
1.47

>  <cluster>  (24) 
1

$$$$

     RDKit          3D

 42 45  0  0  0  0  0  0  0  0999 V2000
  145.9610   72.6660  219.5310 N   0  0  0  0  0  0  0  0  0  0  0  0
  144.8920   72.9000  219.9180 C   0  0  0  0  0  0  0  0  0  0  0  0
  143.5710   73.1790  220.3840 C   0  0  0  0  0  0  0  0  0  0  0  0
  143.2060   74.4930  220.5350 C   0  0  0  0  0  0  0  0  0  0  0  0
  141.9350   74.8080  220.9840 C   0  0  0  0  0  0  0  0  0  0  0  0
  141.0490   73.7700  221.2740 C   0  0  0  0  0  0  0  0  0  0  0  0
  141.3920   72.4450  221.1310 C   0  0  0  0  0  0  0  0  0  0  0  0
  140.4860   71.3760  221.4270 C   0  0  0  0  0  0  0  0  0  0  0  0
  139.5130   71.4220  222.3230 C   0  0  0  0  0  0  0  0  0  0  0  0
  139.6930   70.7960  223.6520 C   0  0  0  0  0  0  0  0  0  0  0  0
  140.2070   71.5340  224.6650 N   0  0  0  0  0  0  0  0  0  0  0  0
  140.4020   71.0350  225.9120 C   0  0  0  0  0  0  0  0  0  0  0  0
  140.9280   71.8120  226.9210 C   0  0  0  0  0  0  0  0  0  0  0  0
  141.0910   71.2230  228.1580 C   0  0  0  0  0  0  0  0  0  0  0  0
  140.7330   69.9090  228.3420 C   0  0  0  0  0  0  0  0  0  0  0  0
  140.2050   69.1140  227.3460 C   0  0  0  0  0  0  0  0  0  0  0  0
  140.0410   69.7160  226.0930 C   0  0  0  0  0  0  0  0  0  0  0  0
  139.5180   68.9770  225.0530 C   0  0  0  0  0  0  0  0  0  0  0  0
  139.1960   67.7760  225.2400 O   0  0  0  0  0  0  0  0  0  0  0  0
  139.3350   69.5100  223.8090 N   0  0  0  0  0  0  0  0  0  0  0  0
  138.7910   68.6830  222.7890 C   0  0  0  0  0  0  0  0  0  0  0  0
  137.3240   68.4870  222.9070 C   0  0  0  0  0  0  0  0  0  0  0  0
  136.4400   67.8820  222.0400 C   0  0  0  0  0  0  0  0  0  0  0  0
  135.1860   67.9690  222.6380 C   0  0  0  0  0  0  0  0  0  0  0  0
  135.2920   68.5840  223.7910 O   0  0  0  0  0  0  0  0  0  0  0  0
  136.5460   68.9050  223.9830 C   0  0  0  0  0  0  0  0  0  0  0  0
  142.6670   72.1770  220.6810 C   0  0  0  0  0  0  0  0  0  0  0  0
  143.9218   75.2944  220.2998 H   0  0  0  0  0  0  0  0  0  0  0  0
  141.6293   75.8571  221.1098 H   0  0  0  0  0  0  0  0  0  0  0  0
  140.0387   74.0200  221.6302 H   0  0  0  0  0  0  0  0  0  0  0  0
  140.6090   70.4395  220.8632 H   0  0  0  0  0  0  0  0  0  0  0  0
  138.5669   71.9274  222.0790 H   0  0  0  0  0  0  0  0  0  0  0  0
  141.2073   72.8616  226.7470 H   0  0  0  0  0  0  0  0  0  0  0  0
  141.5064   71.8037  228.9948 H   0  0  0  0  0  0  0  0  0  0  0  0
  140.8754   69.4666  229.3390 H   0  0  0  0  0  0  0  0  0  0  0  0
  139.9281   68.0648  227.5265 H   0  0  0  0  0  0  0  0  0  0  0  0
  139.0033   69.1466  221.8143 H   0  0  0  0  0  0  0  0  0  0  0  0
  139.2595   67.6929  222.8901 H   0  0  0  0  0  0  0  0  0  0  0  0
  136.6778   67.4222  221.0694 H   0  0  0  0  0  0  0  0  0  0  0  0
  134.2501   67.5814  222.2092 H   0  0  0  0  0  0  0  0  0  0  0  0
  136.9309   69.4307  224.8693 H   0  0  0  0  0  0  0  0  0  0  0  0
  142.9757   71.1289  220.5539 H   0  0  0  0  0  0  0  0  0  0  0  0
  1  2  3  0
  2  3  1  0
  3  4  2  0
  4  5  1  0
  5  6  2  0
  6  7  1  0
  7  8  1  0
  8  9  2  0
  9 10  1  0
 10 11  2  0
 11 12  1  0
 12 13  2  0
 13 14  1  0
 14 15  2  0
 15 16  1  0
 16 17  2  0
 17 18  1  0
 18 19  2  0
 18 20  1  0
 20 21  1  0
 21 22  1  0
 22 23  1  0
 23 24  2  0
 24 25  1  0
 25 26  1  0
  7 27  2  0
 27  3  1  0
 20 10  1  0
 26 22  2  0
 17 12  1  0
  4 28  1  0
  5 29  1  0
  6 30  1  0
  8 31  1  0
  9 32  1  0
 13 33  1  0
 14 34  1  0
 15 35  1  0
 16 36  1  0
 21 37  1  0
 21 38  1  0
 23 39  1  0
 24 40  1  0
 26 41  1  0
 27 42  1  0
M  END
>  <smiles>  (25) 
N#Cc1cccc(/C=C/c2nc3ccccc3c(=O)n2Cc2ccoc2)c1

>  <score_type>  (25) 
oracle

>  <origin>  (25) 
autodockgpu

>  <m_score__min__energy>  (25) 
-8.9199999999999999

>  <m_primary>  (25) 
energy

>  <rmsd>  (25) 
12.177660925493933

>  <m_score__min__rmsd>  (25) 
12.177660925493933

>  <meeko>  (25) 
{"free_energy": -8.19, "intermolecular_energy": -9.98, "internal_energy": -0.94, "cluster_size": 16, "cluster_id": 2, "rank_in_cluster": 6}

>  <energy>  (25) 
-8.06

>  <cluster_rmsd>  (25) 
1.46

>  <cluster>  (25) 
1

$$$$

     RDKit          3D

 42 45  0  0  0  0  0  0  0  0999 V2000
  141.4900   72.2580  227.9630 N   0  0  0  0  0  0  0  0  0  0  0  0
  141.0380   71.7590  227.0160 C   0  0  0  0  0  0  0  0  0  0  0  0
  140.4940   71.1360  225.8530 C   0  0  0  0  0  0  0  0  0  0  0  0
  140.0420   69.8450  225.9650 C   0  0  0  0  0  0  0  0  0  0  0  0
  139.5080   69.2030  224.8620 C   0  0  0  0  0  0  0  0  0  0  0  0
  139.4400   69.8920  223.6510 C   0  0  0  0  0  0  0  0  0  0  0  0
  139.8860   71.1860  223.5130 C   0  0  0  0  0  0  0  0  0  0  0  0
  139.8190   71.8990  222.2720 C   0  0  0  0  0  0  0  0  0  0  0  0
  140.8610   72.2830  221.5520 C   0  0  0  0  0  0  0  0  0  0  0  0
  141.0950   73.7200  221.2860 C   0  0  0  0  0  0  0  0  0  0  0  0
  140.4240   74.6440  222.0130 N   0  0  0  0  0  0  0  0  0  0  0  0
  140.5830   75.9790  221.8320 C   0  0  0  0  0  0  0  0  0  0  0  0
  139.8840   76.8940  222.5880 C   0  0  0  0  0  0  0  0  0  0  0  0
  140.1090   78.2320  222.3370 C   0  0  0  0  0  0  0  0  0  0  0  0
  141.0030   78.6030  221.3620 C   0  0  0  0  0  0  0  0  0  0  0  0
  141.7140   77.7040  220.5930 C   0  0  0  0  0  0  0  0  0  0  0  0
  141.4820   76.3480  220.8520 C   0  0  0  0  0  0  0  0  0  0  0  0
  142.1590   75.3970  220.1200 C   0  0  0  0  0  0  0  0  0  0  0  0
  142.9740   75.7540  219.2320 O   0  0  0  0  0  0  0  0  0  0  0  0
  141.9750   74.0590  220.3270 N   0  0  0  0  0  0  0  0  0  0  0  0
  142.7100   73.1400  219.5310 C   0  0  0  0  0  0  0  0  0  0  0  0
  144.1750   73.1880  219.7740 C   0  0  0  0  0  0  0  0  0  0  0  0
  144.8780   73.7100  220.8380 C   0  0  0  0  0  0  0  0  0  0  0  0
  146.2250   73.4890  220.5600 C   0  0  0  0  0  0  0  0  0  0  0  0
  146.3400   72.8750  219.4070 O   0  0  0  0  0  0  0  0  0  0  0  0
  145.1440   72.6810  218.9130 C   0  0  0  0  0  0  0  0  0  0  0  0
  140.4110   71.7880  224.6380 C   0  0  0  0  0  0  0  0  0  0  0  0
  140.1042   69.3215  226.9304 H   0  0  0  0  0  0  0  0  0  0  0  0
  139.1436   68.1679  224.9386 H   0  0  0  0  0  0  0  0  0  0  0  0
  139.0142   69.3820  222.7743 H   0  0  0  0  0  0  0  0  0  0  0  0
  138.8194   72.1477  221.8860 H   0  0  0  0  0  0  0  0  0  0  0  0
  141.5559   71.5311  221.1497 H   0  0  0  0  0  0  0  0  0  0  0  0
  139.1732   76.5702  223.3626 H   0  0  0  0  0  0  0  0  0  0  0  0
  139.5741   78.9994  222.9159 H   0  0  0  0  0  0  0  0  0  0  0  0
  141.1611   79.6770  221.1842 H   0  0  0  0  0  0  0  0  0  0  0  0
  142.4233   78.0346  219.8199 H   0  0  0  0  0  0  0  0  0  0  0  0
  142.3530   72.1235  219.7529 H   0  0  0  0  0  0  0  0  0  0  0  0
  142.5463   73.4183  218.4795 H   0  0  0  0  0  0  0  0  0  0  0  0
  144.4595   74.2024  221.7282 H   0  0  0  0  0  0  0  0  0  0  0  0
  147.0634   73.7842  221.2081 H   0  0  0  0  0  0  0  0  0  0  0  0
  144.9340   72.1870  217.9529 H   0  0  0  0  0  0  0  0  0  0  0  0
  140.7761   72.8231  224.5649 H   0  0  0  0  0  0  0  0  0  0  0  0
  1  2  3  0
  2  3  1  0
  3  4  2  0
  4  5  1  0
  5  6  2  0
  6  7  1  0
  7  8  1  0
  8  9  2  0
  9 10  1  0
 10 11  2  0
 11 12  1  0
 12 13  2  0
 13 14  1  0
 14 15  2  0
 15 16  1  0
 16 17  2  0
 17 18  1  0
 18 19  2  0
 18 20  1  0
 20 21  1  0
 21 22  1  0
 22 23  1  0
 23 24  2  0
 24 25  1  0
 25 26  1  0
  7 27  2  0
 27  3  1  0
 20 10  1  0
 26 22  2  0
 17 12  1  0
  4 28  1  0
  5 29  1  0
  6 30  1  0
  8 31  1  0
  9 32  1  0
 13 33  1  0
 14 34  1  0
 15 35  1  0
 16 36  1  0
 21 37  1  0
 21 38  1  0
 23 39  1  0
 24 40  1  0
 26 41  1  0
 27 42  1  0
M  END
>  <smiles>  (26) 
N#Cc1cccc(/C=C/c2nc3ccccc3c(=O)n2Cc2ccoc2)c1

>  <score_type>  (26) 
oracle

>  <origin>  (26) 
autodockgpu

>  <m_score__min__energy>  (26) 
-8.9199999999999999

>  <m_primary>  (26) 
energy

>  <rmsd>  (26) 
7.303518008192435

>  <m_score__min__rmsd>  (26) 
7.303518008192435

>  <meeko>  (26) 
{"free_energy": -8.43, "intermolecular_energy": -10.22, "internal_energy": -0.95, "cluster_size": 26, "cluster_id": 1, "rank_in_cluster": 14}

>  <energy>  (26) 
-8.0

>  <cluster_rmsd>  (26) 
1.49

>  <cluster>  (26) 
1

$$$$

     RDKit          3D

 42 45  0  0  0  0  0  0  0  0999 V2000
  139.1510   67.0320  226.5800 N   0  0  0  0  0  0  0  0  0  0  0  0
  139.5240   68.0870  226.2660 C   0  0  0  0  0  0  0  0  0  0  0  0
  139.9700   69.3870  225.8830 C   0  0  0  0  0  0  0  0  0  0  0  0
  140.5900   70.1620  226.8310 C   0  0  0  0  0  0  0  0  0  0  0  0
  141.0360   71.4290  226.5030 C   0  0  0  0  0  0  0  0  0  0  0  0
  140.8440   71.8920  225.2010 C   0  0  0  0  0  0  0  0  0  0  0  0
  140.2260   71.1350  224.2320 C   0  0  0  0  0  0  0  0  0  0  0  0
  140.0260   71.6050  222.8940 C   0  0  0  0  0  0  0  0  0  0  0  0
  140.9870   71.9550  222.0530 C   0  0  0  0  0  0  0  0  0  0  0  0
  141.1310   73.3660  221.6300 C   0  0  0  0  0  0  0  0  0  0  0  0
  140.4020   74.3200  222.2560 N   0  0  0  0  0  0  0  0  0  0  0  0
  140.4770   75.6350  221.9290 C   0  0  0  0  0  0  0  0  0  0  0  0
  139.7220   76.5820  222.5850 C   0  0  0  0  0  0  0  0  0  0  0  0
  139.8630   77.8960  222.1880 C   0  0  0  0  0  0  0  0  0  0  0  0
  140.7310   78.2130  221.1710 C   0  0  0  0  0  0  0  0  0  0  0  0
  141.4970   77.2810  220.5000 C   0  0  0  0  0  0  0  0  0  0  0  0
  141.3510   75.9500  220.9070 C   0  0  0  0  0  0  0  0  0  0  0  0
  142.0870   74.9680  220.2790 C   0  0  0  0  0  0  0  0  0  0  0  0
  142.8760   75.2760  219.3510 O   0  0  0  0  0  0  0  0  0  0  0  0
  141.9870   73.6520  220.6330 N   0  0  0  0  0  0  0  0  0  0  0  0
  142.7780   72.6990  219.9370 C   0  0  0  0  0  0  0  0  0  0  0  0
  144.2380   72.9400  220.0610 C   0  0  0  0  0  0  0  0  0  0  0  0
  144.9620   73.4630  221.1110 C   0  0  0  0  0  0  0  0  0  0  0  0
  146.2930   73.4680  220.7020 C   0  0  0  0  0  0  0  0  0  0  0  0
  146.3800   72.9820  219.4860 O   0  0  0  0  0  0  0  0  0  0  0  0
  145.1810   72.6590  219.0750 C   0  0  0  0  0  0  0  0  0  0  0  0
  139.7960   69.8780  224.6030 C   0  0  0  0  0  0  0  0  0  0  0  0
  140.7320   69.7754  227.8510 H   0  0  0  0  0  0  0  0  0  0  0  0
  141.5329   72.0601  227.2545 H   0  0  0  0  0  0  0  0  0  0  0  0
  141.1998   72.8994  224.9393 H   0  0  0  0  0  0  0  0  0  0  0  0
  138.9889   71.6815  222.5355 H   0  0  0  0  0  0  0  0  0  0  0  0
  141.6812   71.1939  221.6671 H   0  0  0  0  0  0  0  0  0  0  0  0
  139.0326   76.3014  223.3949 H   0  0  0  0  0  0  0  0  0  0  0  0
  139.2822   78.6875  222.6842 H   0  0  0  0  0  0  0  0  0  0  0  0
  140.8205   79.2686  220.8750 H   0  0  0  0  0  0  0  0  0  0  0  0
  142.1839   77.5685  219.6904 H   0  0  0  0  0  0  0  0  0  0  0  0
  142.5543   71.6999  220.3393 H   0  0  0  0  0  0  0  0  0  0  0  0
  142.5246   72.7844  218.8700 H   0  0  0  0  0  0  0  0  0  0  0  0
  144.5673   73.8074  222.0783 H   0  0  0  0  0  0  0  0  0  0  0  0
  147.1410   73.8244  221.3052 H   0  0  0  0  0  0  0  0  0  0  0  0
  144.9500   72.2267  218.0902 H   0  0  0  0  0  0  0  0  0  0  0  0
  139.2975   69.2447  223.8544 H   0  0  0  0  0  0  0  0  0  0  0  0
  1  2  3  0
  2  3  1  0
  3  4  2  0
  4  5  1  0
  5  6  2  0
  6  7  1  0
  7  8  1  0
  8  9  2  0
  9 10  1  0
 10 11  2  0
 11 12  1  0
 12 13  2  0
 13 14  1  0
 14 15  2  0
 15 16  1  0
 16 17  2  0
 17 18  1  0
 18 19  2  0
 18 20  1  0
 20 21  1  0
 21 22  1  0
 22 23  1  0
 23 24  2  0
 24 25  1  0
 25 26  1  0
  7 27  2  0
 27  3  1  0
 20 10  1  0
 26 22  2  0
 17 12  1  0
  4 28  1  0
  5 29  1  0
  6 30  1  0
  8 31  1  0
  9 32  1  0
 13 33  1  0
 14 34  1  0
 15 35  1  0
 16 36  1  0
 21 37  1  0
 21 38  1  0
 23 39  1  0
 24 40  1  0
 26 41  1  0
 27 42  1  0
M  END
>  <smiles>  (27) 
N#Cc1cccc(/C=C/c2nc3ccccc3c(=O)n2Cc2ccoc2)c1

>  <score_type>  (27) 
oracle

>  <origin>  (27) 
autodockgpu

>  <m_score__min__energy>  (27) 
-8.9199999999999999

>  <m_primary>  (27) 
energy

>  <rmsd>  (27) 
7.30321108702414

>  <m_score__min__rmsd>  (27) 
7.30321108702414

>  <meeko>  (27) 
{"free_energy": -8.68, "intermolecular_energy": -10.47, "internal_energy": -0.92, "cluster_size": 26, "cluster_id": 1, "rank_in_cluster": 3}

>  <energy>  (27) 
-8.33

>  <cluster_rmsd>  (27) 
0.0

>  <cluster>  (27) 
2

$$$$

     RDKit          3D

 42 45  0  0  0  0  0  0  0  0999 V2000
  141.5340   72.2350  227.8030 N   0  0  0  0  0  0  0  0  0  0  0  0
  141.0140   71.7660  226.8760 C   0  0  0  0  0  0  0  0  0  0  0  0
  140.3880   71.1890  225.7300 C   0  0  0  0  0  0  0  0  0  0  0  0
  139.6550   70.0420  225.9060 C   0  0  0  0  0  0  0  0  0  0  0  0
  139.0330   69.4480  224.8220 C   0  0  0  0  0  0  0  0  0  0  0  0
  139.1670   70.0380  223.5650 C   0  0  0  0  0  0  0  0  0  0  0  0
  139.8960   71.1870  223.3630 C   0  0  0  0  0  0  0  0  0  0  0  0
  140.0370   71.7970  222.0740 C   0  0  0  0  0  0  0  0  0  0  0  0
  141.1610   72.2930  221.5800 C   0  0  0  0  0  0  0  0  0  0  0  0
  141.2770   73.7410  221.3000 C   0  0  0  0  0  0  0  0  0  0  0  0
  140.5890   74.6200  222.0670 N   0  0  0  0  0  0  0  0  0  0  0  0
  140.6420   75.9630  221.8760 C   0  0  0  0  0  0  0  0  0  0  0  0
  139.9290   76.8300  222.6740 C   0  0  0  0  0  0  0  0  0  0  0  0
  140.0430   78.1790  222.4080 C   0  0  0  0  0  0  0  0  0  0  0  0
  140.8470   78.6070  221.3790 C   0  0  0  0  0  0  0  0  0  0  0  0
  141.5690   77.7560  220.5680 C   0  0  0  0  0  0  0  0  0  0  0  0
  141.4500   76.3890  220.8410 C   0  0  0  0  0  0  0  0  0  0  0  0
  142.1460   75.4830  220.0680 C   0  0  0  0  0  0  0  0  0  0  0  0
  142.8760   75.8930  219.1310 O   0  0  0  0  0  0  0  0  0  0  0  0
  142.0690   74.1370  220.2880 N   0  0  0  0  0  0  0  0  0  0  0  0
  142.8160   73.2680  219.4480 C   0  0  0  0  0  0  0  0  0  0  0  0
  144.2740   73.2870  219.7260 C   0  0  0  0  0  0  0  0  0  0  0  0
  144.9550   73.6950  220.8530 C   0  0  0  0  0  0  0  0  0  0  0  0
  146.3070   73.5000  220.5840 C   0  0  0  0  0  0  0  0  0  0  0  0
  146.4470   73.0070  219.3760 O   0  0  0  0  0  0  0  0  0  0  0  0
  145.2630   72.8670  218.8390 C   0  0  0  0  0  0  0  0  0  0  0  0
  140.5000   71.7450  224.4700 C   0  0  0  0  0  0  0  0  0  0  0  0
  139.5622   69.5957  226.9071 H   0  0  0  0  0  0  0  0  0  0  0  0
  138.4439   68.5278  224.9491 H   0  0  0  0  0  0  0  0  0  0  0  0
  138.6713   69.5670  222.7034 H   0  0  0  0  0  0  0  0  0  0  0  0
  139.1379   71.8582  221.4433 H   0  0  0  0  0  0  0  0  0  0  0  0
  142.0117   71.6258  221.3771 H   0  0  0  0  0  0  0  0  0  0  0  0
  139.2930   76.4610  223.4921 H   0  0  0  0  0  0  0  0  0  0  0  0
  139.4918   78.9099  223.0179 H   0  0  0  0  0  0  0  0  0  0  0  0
  140.9189   79.6885  221.1915 H   0  0  0  0  0  0  0  0  0  0  0  0
  142.2034   78.1316  219.7516 H   0  0  0  0  0  0  0  0  0  0  0  0
  142.4471   72.2418  219.5922 H   0  0  0  0  0  0  0  0  0  0  0  0
  142.6784   73.6186  218.4145 H   0  0  0  0  0  0  0  0  0  0  0  0
  144.5176   74.0948  221.7797 H   0  0  0  0  0  0  0  0  0  0  0  0
  147.1309   73.7246  221.2773 H   0  0  0  0  0  0  0  0  0  0  0  0
  145.0744   72.4732  217.8294 H   0  0  0  0  0  0  0  0  0  0  0  0
  141.0912   72.6642  224.3457 H   0  0  0  0  0  0  0  0  0  0  0  0
  1  2  3  0
  2  3  1  0
  3  4  2  0
  4  5  1  0
  5  6  2  0
  6  7  1  0
  7  8  1  0
  8  9  2  0
  9 10  1  0
 10 11  2  0
 11 12  1  0
 12 13  2  0
 13 14  1  0
 14 15  2  0
 15 16  1  0
 16 17  2  0
 17 18  1  0
 18 19  2  0
 18 20  1  0
 20 21  1  0
 21 22  1  0
 22 23  1  0
 23 24  2  0
 24 25  1  0
 25 26  1  0
  7 27  2  0
 27  3  1  0
 20 10  1  0
 26 22  2  0
 17 12  1  0
  4 28  1  0
  5 29  1  0
  6 30  1  0
  8 31  1  0
  9 32  1  0
 13 33  1  0
 14 34  1  0
 15 35  1  0
 16 36  1  0
 21 37  1  0
 21 38  1  0
 23 39  1  0
 24 40  1  0
 26 41  1  0
 27 42  1  0
M  END
>  <smiles>  (28) 
N#Cc1cccc(/C=C/c2nc3ccccc3c(=O)n2Cc2ccoc2)c1

>  <score_type>  (28) 
oracle

>  <origin>  (28) 
autodockgpu

>  <m_score__min__energy>  (28) 
-8.9199999999999999

>  <m_primary>  (28) 
energy

>  <rmsd>  (28) 
7.280353921536766

>  <m_score__min__rmsd>  (28) 
7.280353921536766

>  <meeko>  (28) 
{"free_energy": -8.25, "intermolecular_energy": -10.04, "internal_energy": -1.02, "cluster_size": 26, "cluster_id": 1, "rank_in_cluster": 16}

>  <energy>  (28) 
-8.32

>  <cluster_rmsd>  (28) 
0.05

>  <cluster>  (28) 
2

$$$$

     RDKit          3D

 42 45  0  0  0  0  0  0  0  0999 V2000
  145.9480   72.6340  219.5600 N   0  0  0  0  0  0  0  0  0  0  0  0
  144.9090   72.1500  219.7470 C   0  0  0  0  0  0  0  0  0  0  0  0
  143.6320   71.5610  219.9900 C   0  0  0  0  0  0  0  0  0  0  0  0
  143.3440   70.3690  219.3740 C   0  0  0  0  0  0  0  0  0  0  0  0
  142.1170   69.7640  219.5820 C   0  0  0  0  0  0  0  0  0  0  0  0
  141.1940   70.3880  220.4210 C   0  0  0  0  0  0  0  0  0  0  0  0
  141.4590   71.5830  221.0500 C   0  0  0  0  0  0  0  0  0  0  0  0
  140.5150   72.2280  221.9140 C   0  0  0  0  0  0  0  0  0  0  0  0
  139.4830   71.6390  222.4980 C   0  0  0  0  0  0  0  0  0  0  0  0
  139.6720   70.8800  223.7550 C   0  0  0  0  0  0  0  0  0  0  0  0
  140.1880   71.5120  224.8360 N   0  0  0  0  0  0  0  0  0  0  0  0
  140.3900   70.8880  226.0240 C   0  0  0  0  0  0  0  0  0  0  0  0
  140.9180   71.5590  227.1060 C   0  0  0  0  0  0  0  0  0  0  0  0
  141.0890   70.8470  228.2750 C   0  0  0  0  0  0  0  0  0  0  0  0
  140.7360   69.5200  228.3240 C   0  0  0  0  0  0  0  0  0  0  0  0
  140.2050   68.8290  227.2540 C   0  0  0  0  0  0  0  0  0  0  0  0
  140.0340   69.5560  226.0700 C   0  0  0  0  0  0  0  0  0  0  0  0
  139.5090   68.9260  224.9620 C   0  0  0  0  0  0  0  0  0  0  0  0
  139.1910   67.7110  225.0260 O   0  0  0  0  0  0  0  0  0  0  0  0
  139.3190   69.5830  223.7800 N   0  0  0  0  0  0  0  0  0  0  0  0
  138.7730   68.8640  222.6830 C   0  0  0  0  0  0  0  0  0  0  0  0
  137.3200   68.5890  222.8200 C   0  0  0  0  0  0  0  0  0  0  0  0
  136.4500   67.9740  221.9460 C   0  0  0  0  0  0  0  0  0  0  0  0
  135.2050   67.9750  222.5700 C   0  0  0  0  0  0  0  0  0  0  0  0
  135.3040   68.5500  223.7450 O   0  0  0  0  0  0  0  0  0  0  0  0
  136.5440   68.9260  223.9260 C   0  0  0  0  0  0  0  0  0  0  0  0
  142.6930   72.1510  220.8150 C   0  0  0  0  0  0  0  0  0  0  0  0
  144.0873   69.8953  218.7159 H   0  0  0  0  0  0  0  0  0  0  0  0
  141.8740   68.8083  219.0945 H   0  0  0  0  0  0  0  0  0  0  0  0
  140.2184   69.9073  220.5860 H   0  0  0  0  0  0  0  0  0  0  0  0
  140.6597   73.3010  222.1080 H   0  0  0  0  0  0  0  0  0  0  0  0
  138.4821   71.7138  222.0479 H   0  0  0  0  0  0  0  0  0  0  0  0
  141.1926   72.6221  227.0398 H   0  0  0  0  0  0  0  0  0  0  0  0
  141.5067   71.3400  229.1652 H   0  0  0  0  0  0  0  0  0  0  0  0
  140.8850   68.9779  229.2695 H   0  0  0  0  0  0  0  0  0  0  0  0
  139.9314   67.7661  227.3274 H   0  0  0  0  0  0  0  0  0  0  0  0
  138.9312   69.4527  221.7673 H   0  0  0  0  0  0  0  0  0  0  0  0
  139.2847   67.8910  222.6467 H   0  0  0  0  0  0  0  0  0  0  0  0
  136.6908   67.5643  220.9539 H   0  0  0  0  0  0  0  0  0  0  0  0
  134.2809   67.5579  222.1434 H   0  0  0  0  0  0  0  0  0  0  0  0
  136.9204   69.4363  224.8249 H   0  0  0  0  0  0  0  0  0  0  0  0
  142.9388   73.1068  221.3008 H   0  0  0  0  0  0  0  0  0  0  0  0
  1  2  3  0
  2  3  1  0
  3  4  2  0
  4  5  1  0
  5  6  2  0
  6  7  1  0
  7  8  1  0
  8  9  2  0
  9 10  1  0
 10 11  2  0
 11 12  1  0
 12 13  2  0
 13 14  1  0
 14 15  2  0
 15 16  1  0
 16 17  2  0
 17 18  1  0
 18 19  2  0
 18 20  1  0
 20 21  1  0
 21 22  1  0
 22 23  1  0
 23 24  2  0
 24 25  1  0
 25 26  1  0
  7 27  2  0
 27  3  1  0
 20 10  1  0
 26 22  2  0
 17 12  1  0
  4 28  1  0
  5 29  1  0
  6 30  1  0
  8 31  1  0
  9 32  1  0
 13 33  1  0
 14 34  1  0
 15 35  1  0
 16 36  1  0
 21 37  1  0
 21 38  1  0
 23 39  1  0
 24 40  1  0
 26 41  1  0
 27 42  1  0
M  END
>  <smiles>  (29) 
N#Cc1cccc(/C=C/c2nc3ccccc3c(=O)n2Cc2ccoc2)c1

>  <score_type>  (29) 
oracle

>  <origin>  (29) 
autodockgpu

>  <m_score__min__energy>  (29) 
-8.9199999999999999

>  <m_primary>  (29) 
energy

>  <rmsd>  (29) 
12.20087318746689

>  <m_score__min__rmsd>  (29) 
12.20087318746689

>  <meeko>  (29) 
{"free_energy": -7.51, "intermolecular_energy": -9.3, "internal_energy": -1.07, "cluster_size": 16, "cluster_id": 2, "rank_in_cluster": 15}

>  <energy>  (29) 
-8.26

>  <cluster_rmsd>  (29) 
0.23

>  <cluster>  (29) 
2

$$$$

     RDKit          3D

 42 45  0  0  0  0  0  0  0  0999 V2000
  141.4500   71.8760  228.3380 N   0  0  0  0  0  0  0  0  0  0  0  0
  140.9720   71.3830  227.4010 C   0  0  0  0  0  0  0  0  0  0  0  0
  140.3740   70.7880  226.2500 C   0  0  0  0  0  0  0  0  0  0  0  0
  139.7640   69.5680  226.3980 C   0  0  0  0  0  0  0  0  0  0  0  0
  139.1730   68.9560  225.3070 C   0  0  0  0  0  0  0  0  0  0  0  0
  139.2120   69.6020  224.0710 C   0  0  0  0  0  0  0  0  0  0  0  0
  139.8180   70.8250  223.8970 C   0  0  0  0  0  0  0  0  0  0  0  0
  139.8610   71.4930  222.6310 C   0  0  0  0  0  0  0  0  0  0  0  0
  140.9620   71.8870  222.0090 C   0  0  0  0  0  0  0  0  0  0  0  0
  141.1330   73.3050  221.6230 C   0  0  0  0  0  0  0  0  0  0  0  0
  140.4000   74.2540  222.2520 N   0  0  0  0  0  0  0  0  0  0  0  0
  140.4990   75.5760  221.9570 C   0  0  0  0  0  0  0  0  0  0  0  0
  139.7380   76.5170  222.6150 C   0  0  0  0  0  0  0  0  0  0  0  0
  139.9050   77.8370  222.2520 C   0  0  0  0  0  0  0  0  0  0  0  0
  140.8040   78.1660  221.2650 C   0  0  0  0  0  0  0  0  0  0  0  0
  141.5760   77.2400  220.5940 C   0  0  0  0  0  0  0  0  0  0  0  0
  141.4030   75.9020  220.9660 C   0  0  0  0  0  0  0  0  0  0  0  0
  142.1430   74.9260  220.3350 C   0  0  0  0  0  0  0  0  0  0  0  0
  142.9610   75.2450  219.4350 O   0  0  0  0  0  0  0  0  0  0  0  0
  142.0180   73.6040  220.6560 N   0  0  0  0  0  0  0  0  0  0  0  0
  142.8160   72.6570  219.9590 C   0  0  0  0  0  0  0  0  0  0  0  0
  144.2750   72.8870  220.1110 C   0  0  0  0  0  0  0  0  0  0  0  0
  144.9920   73.3200  221.2060 C   0  0  0  0  0  0  0  0  0  0  0  0
  146.3260   73.3600  220.8070 C   0  0  0  0  0  0  0  0  0  0  0  0
  146.4210   72.9790  219.5560 O   0  0  0  0  0  0  0  0  0  0  0  0
  145.2250   72.6900  219.1120 C   0  0  0  0  0  0  0  0  0  0  0  0
  140.3940   71.3990  225.0110 C   0  0  0  0  0  0  0  0  0  0  0  0
  139.7449   69.0773  227.3823 H   0  0  0  0  0  0  0  0  0  0  0  0
  138.6812   67.9777  225.4122 H   0  0  0  0  0  0  0  0  0  0  0  0
  138.7411   69.1158  223.2039 H   0  0  0  0  0  0  0  0  0  0  0  0
  138.9007   71.6955  222.1343 H   0  0  0  0  0  0  0  0  0  0  0  0
  141.7522   71.1573  221.7786 H   0  0  0  0  0  0  0  0  0  0  0  0
  139.0243   76.2267  223.4001 H   0  0  0  0  0  0  0  0  0  0  0  0
  139.3207   78.6243  222.7506 H   0  0  0  0  0  0  0  0  0  0  0  0
  140.9139   79.2267  220.9953 H   0  0  0  0  0  0  0  0  0  0  0  0
  142.2881   77.5370  219.8100 H   0  0  0  0  0  0  0  0  0  0  0  0
  142.5798   71.6533  220.3421 H   0  0  0  0  0  0  0  0  0  0  0  0
  142.5814   72.7606  218.8893 H   0  0  0  0  0  0  0  0  0  0  0  0
  144.5910   73.5815  222.1964 H   0  0  0  0  0  0  0  0  0  0  0  0
  147.1699   73.6644  221.4435 H   0  0  0  0  0  0  0  0  0  0  0  0
  145.0012   72.3407  218.0932 H   0  0  0  0  0  0  0  0  0  0  0  0
  140.8865   72.3773  224.9095 H   0  0  0  0  0  0  0  0  0  0  0  0
  1  2  3  0
  2  3  1  0
  3  4  2  0
  4  5  1  0
  5  6  2  0
  6  7  1  0
  7  8  1  0
  8  9  2  0
  9 10  1  0
 10 11  2  0
 11 12  1  0
 12 13  2  0
 13 14  1  0
 14 15  2  0
 15 16  1  0
 16 17  2  0
 17 18  1  0
 18 19  2  0
 18 20  1  0
 20 21  1  0
 21 22  1  0
 22 23  1  0
 23 24  2  0
 24 25  1  0
 25 26  1  0
  7 27  2  0
 27  3  1  0
 20 10  1  0
 26 22  2  0
 17 12  1  0
  4 28  1  0
  5 29  1  0
  6 30  1  0
  8 31  1  0
  9 32  1  0
 13 33  1  0
 14 34  1  0
 15 35  1  0
 16 36  1  0
 21 37  1  0
 21 38  1  0
 23 39  1  0
 24 40  1  0
 26 41  1  0
 27 42  1  0
M  END
>  <smiles>  (30) 
N#Cc1cccc(/C=C/c2nc3ccccc3c(=O)n2Cc2ccoc2)c1

>  <score_type>  (30) 
oracle

>  <origin>  (30) 
autodockgpu

>  <m_score__min__energy>  (30) 
-8.9199999999999999

>  <m_primary>  (30) 
energy

>  <rmsd>  (30) 
7.351198168181032

>  <m_score__min__rmsd>  (30) 
7.351198168181032

>  <meeko>  (30) 
{"free_energy": -8.52, "intermolecular_energy": -10.31, "internal_energy": -0.9, "cluster_size": 26, "cluster_id": 1, "rank_in_cluster": 11}

>  <energy>  (30) 
-8.26

>  <cluster_rmsd>  (30) 
0.25

>  <cluster>  (30) 
2

$$$$

     RDKit          3D

 42 45  0  0  0  0  0  0  0  0999 V2000
  141.4700   71.8620  228.5210 N   0  0  0  0  0  0  0  0  0  0  0  0
  141.0370   71.4060  227.5440 C   0  0  0  0  0  0  0  0  0  0  0  0
  140.5180   70.8420  226.3400 C   0  0  0  0  0  0  0  0  0  0  0  0
  140.1150   69.5310  226.3640 C   0  0  0  0  0  0  0  0  0  0  0  0
  139.6070   68.9440  225.2180 C   0  0  0  0  0  0  0  0  0  0  0  0
  139.5150   69.7100  224.0560 C   0  0  0  0  0  0  0  0  0  0  0  0
  139.9120   71.0270  224.0070 C   0  0  0  0  0  0  0  0  0  0  0  0
  139.8210   71.8180  222.8160 C   0  0  0  0  0  0  0  0  0  0  0  0
  140.8270   72.0990  222.0030 C   0  0  0  0  0  0  0  0  0  0  0  0
  141.0800   73.4950  221.5840 C   0  0  0  0  0  0  0  0  0  0  0  0
  140.3770   74.4960  222.1650 N   0  0  0  0  0  0  0  0  0  0  0  0
  140.5510   75.8030  221.8390 C   0  0  0  0  0  0  0  0  0  0  0  0
  139.8200   76.7980  222.4490 C   0  0  0  0  0  0  0  0  0  0  0  0
  140.0620   78.0980  222.0550 C   0  0  0  0  0  0  0  0  0  0  0  0
  141.0040   78.3550  221.0880 C   0  0  0  0  0  0  0  0  0  0  0  0
  141.7480   77.3730  220.4650 C   0  0  0  0  0  0  0  0  0  0  0  0
  141.4980   76.0560  220.8670 C   0  0  0  0  0  0  0  0  0  0  0  0
  142.2060   75.0270  220.2840 C   0  0  0  0  0  0  0  0  0  0  0  0
  143.0640   75.2810  219.4020 O   0  0  0  0  0  0  0  0  0  0  0  0
  142.0070   73.7230  220.6370 N   0  0  0  0  0  0  0  0  0  0  0  0
  142.7760   72.7180  219.9890 C   0  0  0  0  0  0  0  0  0  0  0  0
  144.2410   72.9290  220.1070 C   0  0  0  0  0  0  0  0  0  0  0  0
  144.9880   73.3630  221.1810 C   0  0  0  0  0  0  0  0  0  0  0  0
  146.3130   73.3790  220.7530 C   0  0  0  0  0  0  0  0  0  0  0  0
  146.3750   72.9830  219.5040 O   0  0  0  0  0  0  0  0  0  0  0  0
  145.1650   72.7070  219.0890 C   0  0  0  0  0  0  0  0  0  0  0  0
  140.4130   71.5710  225.1710 C   0  0  0  0  0  0  0  0  0  0  0  0
  140.1954   68.9470  227.2927 H   0  0  0  0  0  0  0  0  0  0  0  0
  139.2819   67.8931  225.2236 H   0  0  0  0  0  0  0  0  0  0  0  0
  139.1103   69.2445  223.1452 H   0  0  0  0  0  0  0  0  0  0  0  0
  138.8331   72.2257  222.5555 H   0  0  0  0  0  0  0  0  0  0  0  0
  141.4777   71.2910  221.6374 H   0  0  0  0  0  0  0  0  0  0  0  0
  139.0717   76.5652  223.2209 H   0  0  0  0  0  0  0  0  0  0  0  0
  139.5024   78.9265  222.5137 H   0  0  0  0  0  0  0  0  0  0  0  0
  141.1747   79.4012  220.7941 H   0  0  0  0  0  0  0  0  0  0  0  0
  142.4961   77.6126  219.6950 H   0  0  0  0  0  0  0  0  0  0  0  0
  142.5266   71.7449  220.4372 H   0  0  0  0  0  0  0  0  0  0  0  0
  142.5272   72.7585  218.9183 H   0  0  0  0  0  0  0  0  0  0  0  0
  144.6126   73.6411  222.1769 H   0  0  0  0  0  0  0  0  0  0  0  0
  147.1750   73.6777  221.3677 H   0  0  0  0  0  0  0  0  0  0  0  0
  144.9134   72.3503  218.0793 H   0  0  0  0  0  0  0  0  0  0  0  0
  140.7402   72.6212  225.1687 H   0  0  0  0  0  0  0  0  0  0  0  0
  1  2  3  0
  2  3  1  0
  3  4  2  0
  4  5  1  0
  5  6  2  0
  6  7  1  0
  7  8  1  0
  8  9  2  0
  9 10  1  0
 10 11  2  0
 11 12  1  0
 12 13  2  0
 13 14  1  0
 14 15  2  0
 15 16  1  0
 16 17  2  0
 17 18  1  0
 18 19  2  0
 18 20  1  0
 20 21  1  0
 21 22  1  0
 22 23  1  0
 23 24  2  0
 24 25  1  0
 25 26  1  0
  7 27  2  0
 27  3  1  0
 20 10  1  0
 26 22  2  0
 17 12  1  0
  4 28  1  0
  5 29  1  0
  6 30  1  0
  8 31  1  0
  9 32  1  0
 13 33  1  0
 14 34  1  0
 15 35  1  0
 16 36  1  0
 21 37  1  0
 21 38  1  0
 23 39  1  0
 24 40  1  0
 26 41  1  0
 27 42  1  0
M  END
>  <smiles>  (31) 
N#Cc1cccc(/C=C/c2nc3ccccc3c(=O)n2Cc2ccoc2)c1

>  <score_type>  (31) 
oracle

>  <origin>  (31) 
autodockgpu

>  <m_score__min__energy>  (31) 
-8.9199999999999999

>  <m_primary>  (31) 
energy

>  <rmsd>  (31) 
7.329138999893366

>  <m_score__min__rmsd>  (31) 
7.329138999893366

>  <meeko>  (31) 
{"free_energy": -8.63, "intermolecular_energy": -10.42, "internal_energy": -0.84, "cluster_size": 26, "cluster_id": 1, "rank_in_cluster": 6}

>  <energy>  (31) 
-8.19

>  <cluster_rmsd>  (31) 
0.26

>  <cluster>  (31) 
2

$$$$

     RDKit          3D

 42 45  0  0  0  0  0  0  0  0999 V2000
  146.3240   72.9690  219.6920 N   0  0  0  0  0  0  0  0  0  0  0  0
  145.2230   73.1670  220.0080 C   0  0  0  0  0  0  0  0  0  0  0  0
  143.8770   73.4180  220.4080 C   0  0  0  0  0  0  0  0  0  0  0  0
  143.4470   74.7210  220.4460 C   0  0  0  0  0  0  0  0  0  0  0  0
  142.1490   75.0080  220.8290 C   0  0  0  0  0  0  0  0  0  0  0  0
  141.3010   73.9550  221.1700 C   0  0  0  0  0  0  0  0  0  0  0  0
  141.7070   72.6410  221.1410 C   0  0  0  0  0  0  0  0  0  0  0  0
  140.8400   71.5550  221.4900 C   0  0  0  0  0  0  0  0  0  0  0  0
  139.7460   71.6550  222.2280 C   0  0  0  0  0  0  0  0  0  0  0  0
  139.7110   71.0760  223.5900 C   0  0  0  0  0  0  0  0  0  0  0  0
  140.4350   71.6590  224.5740 N   0  0  0  0  0  0  0  0  0  0  0  0
  140.4540   71.1910  225.8490 C   0  0  0  0  0  0  0  0  0  0  0  0
  141.2020   71.8070  226.8280 C   0  0  0  0  0  0  0  0  0  0  0  0
  141.1630   71.2640  228.0950 C   0  0  0  0  0  0  0  0  0  0  0  0
  140.3960   70.1500  228.3370 C   0  0  0  0  0  0  0  0  0  0  0  0
  139.6390   69.5170  227.3720 C   0  0  0  0  0  0  0  0  0  0  0  0
  139.6830   70.0720  226.0880 C   0  0  0  0  0  0  0  0  0  0  0  0
  138.9500   69.4890  225.0760 C   0  0  0  0  0  0  0  0  0  0  0  0
  138.2550   68.4700  225.3150 O   0  0  0  0  0  0  0  0  0  0  0  0
  138.9530   69.9860  223.8030 N   0  0  0  0  0  0  0  0  0  0  0  0
  138.1720   69.3280  222.8150 C   0  0  0  0  0  0  0  0  0  0  0  0
  138.8190   68.1110  222.2640 C   0  0  0  0  0  0  0  0  0  0  0  0
  138.8070   66.8140  222.7320 C   0  0  0  0  0  0  0  0  0  0  0  0
  139.5710   66.0700  221.8380 C   0  0  0  0  0  0  0  0  0  0  0  0
  140.0220   66.8540  220.8880 O   0  0  0  0  0  0  0  0  0  0  0  0
  139.5950   68.0710  221.1090 C   0  0  0  0  0  0  0  0  0  0  0  0
  143.0090   72.4000  220.7530 C   0  0  0  0  0  0  0  0  0  0  0  0
  144.1335   75.5358  220.1723 H   0  0  0  0  0  0  0  0  0  0  0  0
  141.7924   76.0480  220.8639 H   0  0  0  0  0  0  0  0  0  0  0  0
  140.2687   74.1836  221.4736 H   0  0  0  0  0  0  0  0  0  0  0  0
  141.1055   70.5561  221.1136 H   0  0  0  0  0  0  0  0  0  0  0  0
  138.8600   72.1699  221.8281 H   0  0  0  0  0  0  0  0  0  0  0  0
  141.8076   72.6984  226.6075 H   0  0  0  0  0  0  0  0  0  0  0  0
  141.7441   71.7213  228.9094 H   0  0  0  0  0  0  0  0  0  0  0  0
  140.3846   69.7395  229.3575 H   0  0  0  0  0  0  0  0  0  0  0  0
  139.0350   68.6262  227.5994 H   0  0  0  0  0  0  0  0  0  0  0  0
  137.2116   69.0380  223.2662 H   0  0  0  0  0  0  0  0  0  0  0  0
  138.0442   70.0331  221.9804 H   0  0  0  0  0  0  0  0  0  0  0  0
  138.2957   66.4419  223.6321 H   0  0  0  0  0  0  0  0  0  0  0  0
  139.7666   64.9904  221.9160 H   0  0  0  0  0  0  0  0  0  0  0  0
  139.8178   68.9397  220.4721 H   0  0  0  0  0  0  0  0  0  0  0  0
  143.3685   71.3610  220.7171 H   0  0  0  0  0  0  0  0  0  0  0  0
  1  2  3  0
  2  3  1  0
  3  4  2  0
  4  5  1  0
  5  6  2  0
  6  7  1  0
  7  8  1  0
  8  9  2  0
  9 10  1  0
 10 11  2  0
 11 12  1  0
 12 13  2  0
 13 14  1  0
 14 15  2  0
 15 16  1  0
 16 17  2  0
 17 18  1  0
 18 19  2  0
 18 20  1  0
 20 21  1  0
 21 22  1  0
 22 23  1  0
 23 24  2  0
 24 25  1  0
 25 26  1  0
  7 27  2  0
 27  3  1  0
 20 10  1  0
 26 22  2  0
 17 12  1  0
  4 28  1  0
  5 29  1  0
  6 30  1  0
  8 31  1  0
  9 32  1  0
 13 33  1  0
 14 34  1  0
 15 35  1  0
 16 36  1  0
 21 37  1  0
 21 38  1  0
 23 39  1  0
 24 40  1  0
 26 41  1  0
 27 42  1  0
M  END
>  <smiles>  (32) 
N#Cc1cccc(/C=C/c2nc3ccccc3c(=O)n2Cc2ccoc2)c1

>  <score_type>  (32) 
oracle

>  <origin>  (32) 
autodockgpu

>  <m_score__min__energy>  (32) 
-8.9199999999999999

>  <m_primary>  (32) 
energy

>  <rmsd>  (32) 
12.309440821067803

>  <m_score__min__rmsd>  (32) 
12.309440821067803

>  <meeko>  (32) 
{"free_energy": -7.77, "intermolecular_energy": -9.56, "internal_energy": -1.04, "cluster_size": 16, "cluster_id": 2, "rank_in_cluster": 13}

>  <energy>  (32) 
-8.19

>  <cluster_rmsd>  (32) 
0.36

>  <cluster>  (32) 
2

$$$$

     RDKit          3D

 42 45  0  0  0  0  0  0  0  0999 V2000
  146.3210   73.0400  219.6840 N   0  0  0  0  0  0  0  0  0  0  0  0
  145.2130   73.1780  220.0020 C   0  0  0  0  0  0  0  0  0  0  0  0
  143.8540   73.3600  220.4010 C   0  0  0  0  0  0  0  0  0  0  0  0
  143.3690   74.6410  220.4730 C   0  0  0  0  0  0  0  0  0  0  0  0
  142.0580   74.8620  220.8560 C   0  0  0  0  0  0  0  0  0  0  0  0
  141.2540   73.7640  221.1630 C   0  0  0  0  0  0  0  0  0  0  0  0
  141.7170   72.4700  221.0980 C   0  0  0  0  0  0  0  0  0  0  0  0
  140.8960   71.3390  221.4110 C   0  0  0  0  0  0  0  0  0  0  0  0
  139.8400   71.3560  222.2110 C   0  0  0  0  0  0  0  0  0  0  0  0
  139.9220   70.7640  223.5650 C   0  0  0  0  0  0  0  0  0  0  0  0
  140.4080   71.5120  224.5840 N   0  0  0  0  0  0  0  0  0  0  0  0
  140.5130   71.0440  225.8540 C   0  0  0  0  0  0  0  0  0  0  0  0
  141.0140   71.8300  226.8690 C   0  0  0  0  0  0  0  0  0  0  0  0
  141.0840   71.2730  228.1290 C   0  0  0  0  0  0  0  0  0  0  0  0
  140.6630   69.9800  228.3290 C   0  0  0  0  0  0  0  0  0  0  0  0
  140.1590   69.1760  227.3270 C   0  0  0  0  0  0  0  0  0  0  0  0
  140.0900   69.7450  226.0510 C   0  0  0  0  0  0  0  0  0  0  0  0
  139.5960   68.9960  225.0050 C   0  0  0  0  0  0  0  0  0  0  0  0
  139.2160   67.8150  225.2060 O   0  0  0  0  0  0  0  0  0  0  0  0
  139.5040   69.4980  223.7370 N   0  0  0  0  0  0  0  0  0  0  0  0
  138.9840   68.6630  222.7120 C   0  0  0  0  0  0  0  0  0  0  0  0
  137.5190   68.4430  222.8140 C   0  0  0  0  0  0  0  0  0  0  0  0
  136.6680   67.7530  221.9780 C   0  0  0  0  0  0  0  0  0  0  0  0
  135.3990   67.8580  222.5410 C   0  0  0  0  0  0  0  0  0  0  0  0
  135.4660   68.5630  223.6450 O   0  0  0  0  0  0  0  0  0  0  0  0
  136.7080   68.9260  223.8380 C   0  0  0  0  0  0  0  0  0  0  0  0
  143.0290   72.2960  220.7120 C   0  0  0  0  0  0  0  0  0  0  0  0
  144.0215   75.4916  220.2266 H   0  0  0  0  0  0  0  0  0  0  0  0
  141.6571   75.8845  220.9173 H   0  0  0  0  0  0  0  0  0  0  0  0
  140.2118   73.9392  221.4682 H   0  0  0  0  0  0  0  0  0  0  0  0
  141.1642   70.3773  220.9493 H   0  0  0  0  0  0  0  0  0  0  0  0
  138.8994   71.8115  221.8678 H   0  0  0  0  0  0  0  0  0  0  0  0
  141.3454   72.8620  226.6816 H   0  0  0  0  0  0  0  0  0  0  0  0
  141.4757   71.8620  228.9714 H   0  0  0  0  0  0  0  0  0  0  0  0
  140.7316   69.5627  229.3445 H   0  0  0  0  0  0  0  0  0  0  0  0
  139.8297   68.1445  227.5210 H   0  0  0  0  0  0  0  0  0  0  0  0
  139.1991   69.1301  221.7396 H   0  0  0  0  0  0  0  0  0  0  0  0
  139.4671   67.6805  222.8186 H   0  0  0  0  0  0  0  0  0  0  0  0
  136.9374   67.2250  221.0514 H   0  0  0  0  0  0  0  0  0  0  0  0
  134.4813   67.4175  222.1241 H   0  0  0  0  0  0  0  0  0  0  0  0
  137.0616   69.5274  224.6885 H   0  0  0  0  0  0  0  0  0  0  0  0
  143.4331   71.2748  220.6494 H   0  0  0  0  0  0  0  0  0  0  0  0
  1  2  3  0
  2  3  1  0
  3  4  2  0
  4  5  1  0
  5  6  2  0
  6  7  1  0
  7  8  1  0
  8  9  2  0
  9 10  1  0
 10 11  2  0
 11 12  1  0
 12 13  2  0
 13 14  1  0
 14 15  2  0
 15 16  1  0
 16 17  2  0
 17 18  1  0
 18 19  2  0
 18 20  1  0
 20 21  1  0
 21 22  1  0
 22 23  1  0
 23 24  2  0
 24 25  1  0
 25 26  1  0
  7 27  2  0
 27  3  1  0
 20 10  1  0
 26 22  2  0
 17 12  1  0
  4 28  1  0
  5 29  1  0
  6 30  1  0
  8 31  1  0
  9 32  1  0
 13 33  1  0
 14 34  1  0
 15 35  1  0
 16 36  1  0
 21 37  1  0
 21 38  1  0
 23 39  1  0
 24 40  1  0
 26 41  1  0
 27 42  1  0
M  END
>  <smiles>  (33) 
N#Cc1cccc(/C=C/c2nc3ccccc3c(=O)n2Cc2ccoc2)c1

>  <score_type>  (33) 
oracle

>  <origin>  (33) 
autodockgpu

>  <m_score__min__energy>  (33) 
-8.9199999999999999

>  <m_primary>  (33) 
energy

>  <rmsd>  (33) 
12.149122080139897

>  <m_score__min__rmsd>  (33) 
12.149122080139897

>  <meeko>  (33) 
{"free_energy": -8.26, "intermolecular_energy": -10.05, "internal_energy": -0.89, "cluster_size": 16, "cluster_id": 2, "rank_in_cluster": 4}

>  <energy>  (33) 
-8.18

>  <cluster_rmsd>  (33) 
0.4

>  <cluster>  (33) 
2

$$$$

     RDKit          3D

 42 45  0  0  0  0  0  0  0  0999 V2000
  141.4420   71.9100  228.3580 N   0  0  0  0  0  0  0  0  0  0  0  0
  140.9860   71.4200  227.4090 C   0  0  0  0  0  0  0  0  0  0  0  0
  140.4140   70.8130  226.2510 C   0  0  0  0  0  0  0  0  0  0  0  0
  139.8890   69.5510  226.3770 C   0  0  0  0  0  0  0  0  0  0  0  0
  139.3250   68.9250  225.2790 C   0  0  0  0  0  0  0  0  0  0  0  0
  139.3040   69.6010  224.0580 C   0  0  0  0  0  0  0  0  0  0  0  0
  139.8240   70.8660  223.9060 C   0  0  0  0  0  0  0  0  0  0  0  0
  139.8050   71.5650  222.6560 C   0  0  0  0  0  0  0  0  0  0  0  0
  140.8740   71.9160  221.9580 C   0  0  0  0  0  0  0  0  0  0  0  0
  141.0950   73.3340  221.5970 C   0  0  0  0  0  0  0  0  0  0  0  0
  140.3830   74.2960  222.2310 N   0  0  0  0  0  0  0  0  0  0  0  0
  140.5290   75.6180  221.9590 C   0  0  0  0  0  0  0  0  0  0  0  0
  139.7880   76.5720  222.6210 C   0  0  0  0  0  0  0  0  0  0  0  0
  140.0010   77.8920  222.2820 C   0  0  0  0  0  0  0  0  0  0  0  0
  140.9250   78.2080  221.3140 C   0  0  0  0  0  0  0  0  0  0  0  0
  141.6770   77.2680  220.6390 C   0  0  0  0  0  0  0  0  0  0  0  0
  141.4570   75.9310  220.9870 C   0  0  0  0  0  0  0  0  0  0  0  0
  142.1760   74.9410  220.3510 C   0  0  0  0  0  0  0  0  0  0  0  0
  143.0170   75.2490  219.4690 O   0  0  0  0  0  0  0  0  0  0  0  0
  142.0050   73.6190  220.6480 N   0  0  0  0  0  0  0  0  0  0  0  0
  142.7830   72.6580  219.9480 C   0  0  0  0  0  0  0  0  0  0  0  0
  144.2460   72.8670  220.0900 C   0  0  0  0  0  0  0  0  0  0  0  0
  144.9910   73.1780  221.2070 C   0  0  0  0  0  0  0  0  0  0  0  0
  146.3150   73.2570  220.7830 C   0  0  0  0  0  0  0  0  0  0  0  0
  146.3780   73.0110  219.4960 O   0  0  0  0  0  0  0  0  0  0  0  0
  145.1710   72.7750  219.0520 C   0  0  0  0  0  0  0  0  0  0  0  0
  140.3760   71.4520  225.0260 C   0  0  0  0  0  0  0  0  0  0  0  0
  139.9165   69.0378  227.3495 H   0  0  0  0  0  0  0  0  0  0  0  0
  138.9012   67.9137  225.3669 H   0  0  0  0  0  0  0  0  0  0  0  0
  138.8553   69.1043  223.1851 H   0  0  0  0  0  0  0  0  0  0  0  0
  138.8216   71.8322  222.2419 H   0  0  0  0  0  0  0  0  0  0  0  0
  141.6001   71.1511  221.6454 H   0  0  0  0  0  0  0  0  0  0  0  0
  139.0541   76.2918  223.3909 H   0  0  0  0  0  0  0  0  0  0  0  0
  139.4335   78.6892  222.7844 H   0  0  0  0  0  0  0  0  0  0  0  0
  141.0730   79.2689  221.0637 H   0  0  0  0  0  0  0  0  0  0  0  0
  142.4092   77.5543  219.8696 H   0  0  0  0  0  0  0  0  0  0  0  0
  142.5343   71.6590  220.3354 H   0  0  0  0  0  0  0  0  0  0  0  0
  142.5425   72.7614  218.8796 H   0  0  0  0  0  0  0  0  0  0  0  0
  144.6149   73.3328  222.2291 H   0  0  0  0  0  0  0  0  0  0  0  0
  147.1753   73.4898  221.4278 H   0  0  0  0  0  0  0  0  0  0  0  0
  144.9213   72.5376  218.0074 H   0  0  0  0  0  0  0  0  0  0  0  0
  140.8008   72.4631  224.9413 H   0  0  0  0  0  0  0  0  0  0  0  0
  1  2  3  0
  2  3  1  0
  3  4  2  0
  4  5  1  0
  5  6  2  0
  6  7  1  0
  7  8  1  0
  8  9  2  0
  9 10  1  0
 10 11  2  0
 11 12  1  0
 12 13  2  0
 13 14  1  0
 14 15  2  0
 15 16  1  0
 16 17  2  0
 17 18  1  0
 18 19  2  0
 18 20  1  0
 20 21  1  0
 21 22  1  0
 22 23  1  0
 23 24  2  0
 24 25  1  0
 25 26  1  0
  7 27  2  0
 27  3  1  0
 20 10  1  0
 26 22  2  0
 17 12  1  0
  4 28  1  0
  5 29  1  0
  6 30  1  0
  8 31  1  0
  9 32  1  0
 13 33  1  0
 14 34  1  0
 15 35  1  0
 16 36  1  0
 21 37  1  0
 21 38  1  0
 23 39  1  0
 24 40  1  0
 26 41  1  0
 27 42  1  0
M  END
>  <smiles>  (34) 
N#Cc1cccc(/C=C/c2nc3ccccc3c(=O)n2Cc2ccoc2)c1

>  <score_type>  (34) 
oracle

>  <origin>  (34) 
autodockgpu

>  <m_score__min__energy>  (34) 
-8.9199999999999999

>  <m_primary>  (34) 
energy

>  <rmsd>  (34) 
7.376468095325943

>  <m_score__min__rmsd>  (34) 
7.376468095325943

>  <meeko>  (34) 
{"free_energy": -8.57, "intermolecular_energy": -10.36, "internal_energy": -0.89, "cluster_size": 26, "cluster_id": 1, "rank_in_cluster": 8}

>  <energy>  (34) 
-8.1

>  <cluster_rmsd>  (34) 
0.52

>  <cluster>  (34) 
2

$$$$

     RDKit          3D

 42 45  0  0  0  0  0  0  0  0999 V2000
  146.3150   73.0150  219.6580 N   0  0  0  0  0  0  0  0  0  0  0  0
  145.2200   73.2270  219.9820 C   0  0  0  0  0  0  0  0  0  0  0  0
  143.8700   73.4760  220.3730 C   0  0  0  0  0  0  0  0  0  0  0  0
  143.4280   74.7750  220.3770 C   0  0  0  0  0  0  0  0  0  0  0  0
  142.1270   75.0610  220.7500 C   0  0  0  0  0  0  0  0  0  0  0  0
  141.2870   74.0090  221.1150 C   0  0  0  0  0  0  0  0  0  0  0  0
  141.7050   72.6980  221.1190 C   0  0  0  0  0  0  0  0  0  0  0  0
  140.8470   71.6130  221.4920 C   0  0  0  0  0  0  0  0  0  0  0  0
  139.8360   71.6940  222.3440 C   0  0  0  0  0  0  0  0  0  0  0  0
  139.9150   71.0230  223.6600 C   0  0  0  0  0  0  0  0  0  0  0  0
  140.4560   71.6880  224.7090 N   0  0  0  0  0  0  0  0  0  0  0  0
  140.5640   71.1430  225.9480 C   0  0  0  0  0  0  0  0  0  0  0  0
  141.1200   71.8460  226.9940 C   0  0  0  0  0  0  0  0  0  0  0  0
  141.1880   71.2150  228.2200 C   0  0  0  0  0  0  0  0  0  0  0  0
  140.7100   69.9340  228.3560 C   0  0  0  0  0  0  0  0  0  0  0  0
  140.1500   69.2120  227.3210 C   0  0  0  0  0  0  0  0  0  0  0  0
  140.0830   69.8560  226.0810 C   0  0  0  0  0  0  0  0  0  0  0  0
  139.5340   69.1920  225.0050 C   0  0  0  0  0  0  0  0  0  0  0  0
  139.1020   68.0210  225.1480 O   0  0  0  0  0  0  0  0  0  0  0  0
  139.4410   69.7700  223.7700 N   0  0  0  0  0  0  0  0  0  0  0  0
  138.8630   69.0200  222.7110 C   0  0  0  0  0  0  0  0  0  0  0  0
  137.4080   68.7780  222.8830 C   0  0  0  0  0  0  0  0  0  0  0  0
  136.4670   69.5080  223.5770 C   0  0  0  0  0  0  0  0  0  0  0  0
  135.2570   68.8400  223.4110 C   0  0  0  0  0  0  0  0  0  0  0  0
  135.4420   67.7750  222.6680 O   0  0  0  0  0  0  0  0  0  0  0  0
  136.7050   67.7080  222.3370 C   0  0  0  0  0  0  0  0  0  0  0  0
  143.0100   72.4590  220.7400 C   0  0  0  0  0  0  0  0  0  0  0  0
  144.1079   75.5885  220.0837 H   0  0  0  0  0  0  0  0  0  0  0  0
  141.7618   76.0986  220.7586 H   0  0  0  0  0  0  0  0  0  0  0  0
  140.2520   74.2358  221.4106 H   0  0  0  0  0  0  0  0  0  0  0  0
  141.0439   70.6327  221.0335 H   0  0  0  0  0  0  0  0  0  0  0  0
  138.9343   72.2623  222.0719 H   0  0  0  0  0  0  0  0  0  0  0  0
  141.4954   72.8709  226.8576 H   0  0  0  0  0  0  0  0  0  0  0  0
  141.6235   71.7361  229.0853 H   0  0  0  0  0  0  0  0  0  0  0  0
  140.7773   69.4570  229.3449 H   0  0  0  0  0  0  0  0  0  0  0  0
  139.7771   68.1870  227.4636 H   0  0  0  0  0  0  0  0  0  0  0  0
  139.0159   69.5700  221.7707 H   0  0  0  0  0  0  0  0  0  0  0  0
  139.3562   68.0368  222.7036 H   0  0  0  0  0  0  0  0  0  0  0  0
  136.6379   70.4328  224.1475 H   0  0  0  0  0  0  0  0  0  0  0  0
  134.2937   69.1566  223.8374 H   0  0  0  0  0  0  0  0  0  0  0  0
  137.1495   66.9173  221.7147 H   0  0  0  0  0  0  0  0  0  0  0  0
  143.3785   71.4226  220.7297 H   0  0  0  0  0  0  0  0  0  0  0  0
  1  2  3  0
  2  3  1  0
  3  4  2  0
  4  5  1  0
  5  6  2  0
  6  7  1  0
  7  8  1  0
  8  9  2  0
  9 10  1  0
 10 11  2  0
 11 12  1  0
 12 13  2  0
 13 14  1  0
 14 15  2  0
 15 16  1  0
 16 17  2  0
 17 18  1  0
 18 19  2  0
 18 20  1  0
 20 21  1  0
 21 22  1  0
 22 23  1  0
 23 24  2  0
 24 25  1  0
 25 26  1  0
  7 27  2  0
 27  3  1  0
 20 10  1  0
 26 22  2  0
 17 12  1  0
  4 28  1  0
  5 29  1  0
  6 30  1  0
  8 31  1  0
  9 32  1  0
 13 33  1  0
 14 34  1  0
 15 35  1  0
 16 36  1  0
 21 37  1  0
 21 38  1  0
 23 39  1  0
 24 40  1  0
 26 41  1  0
 27 42  1  0
M  END
>  <smiles>  (35) 
N#Cc1cccc(/C=C/c2nc3ccccc3c(=O)n2Cc2ccoc2)c1

>  <score_type>  (35) 
oracle

>  <origin>  (35) 
autodockgpu

>  <m_score__min__energy>  (35) 
-8.9199999999999999

>  <m_primary>  (35) 
energy

>  <rmsd>  (35) 
11.987267073755365

>  <m_score__min__rmsd>  (35) 
11.987267073755365

>  <meeko>  (35) 
{"free_energy": -8.07, "intermolecular_energy": -9.86, "internal_energy": -0.96, "cluster_size": 16, "cluster_id": 2, "rank_in_cluster": 10}

>  <energy>  (35) 
-8.09

>  <cluster_rmsd>  (35) 
0.59

>  <cluster>  (35) 
2

$$$$

     RDKit          3D

 42 45  0  0  0  0  0  0  0  0999 V2000
  141.4190   72.0710  227.8170 N   0  0  0  0  0  0  0  0  0  0  0  0
  140.9320   71.6490  226.8500 C   0  0  0  0  0  0  0  0  0  0  0  0
  140.3220   71.1300  225.6690 C   0  0  0  0  0  0  0  0  0  0  0  0
  139.5490   70.0020  225.7860 C   0  0  0  0  0  0  0  0  0  0  0  0
  138.9400   69.4650  224.6660 C   0  0  0  0  0  0  0  0  0  0  0  0
  139.1270   70.0910  223.4330 C   0  0  0  0  0  0  0  0  0  0  0  0
  139.8970   71.2230  223.2910 C   0  0  0  0  0  0  0  0  0  0  0  0
  140.0940   71.8710  222.0280 C   0  0  0  0  0  0  0  0  0  0  0  0
  141.2320   72.3990  221.6070 C   0  0  0  0  0  0  0  0  0  0  0  0
  141.3150   73.8450  221.3030 C   0  0  0  0  0  0  0  0  0  0  0  0
  140.6310   74.7220  222.0750 N   0  0  0  0  0  0  0  0  0  0  0  0
  140.6570   76.0630  221.8630 C   0  0  0  0  0  0  0  0  0  0  0  0
  139.9490   76.9290  222.6670 C   0  0  0  0  0  0  0  0  0  0  0  0
  140.0330   78.2760  222.3790 C   0  0  0  0  0  0  0  0  0  0  0  0
  140.8030   78.7030  221.3240 C   0  0  0  0  0  0  0  0  0  0  0  0
  141.5200   77.8520  220.5070 C   0  0  0  0  0  0  0  0  0  0  0  0
  141.4310   76.4870  220.8020 C   0  0  0  0  0  0  0  0  0  0  0  0
  142.1230   75.5830  220.0250 C   0  0  0  0  0  0  0  0  0  0  0  0
  142.8220   75.9910  219.0640 O   0  0  0  0  0  0  0  0  0  0  0  0
  142.0750   74.2390  220.2660 N   0  0  0  0  0  0  0  0  0  0  0  0
  142.8160   73.3700  219.4190 C   0  0  0  0  0  0  0  0  0  0  0  0
  144.2700   73.3550  219.7170 C   0  0  0  0  0  0  0  0  0  0  0  0
  144.9440   73.7340  220.8580 C   0  0  0  0  0  0  0  0  0  0  0  0
  146.2950   73.5140  220.6040 C   0  0  0  0  0  0  0  0  0  0  0  0
  146.4410   73.0330  219.3930 O   0  0  0  0  0  0  0  0  0  0  0  0
  145.2610   72.9260  218.8380 C   0  0  0  0  0  0  0  0  0  0  0  0
  140.4860   71.7240  224.4330 C   0  0  0  0  0  0  0  0  0  0  0  0
  139.4140   69.5259  226.7684 H   0  0  0  0  0  0  0  0  0  0  0  0
  138.3193   68.5604  224.7460 H   0  0  0  0  0  0  0  0  0  0  0  0
  138.6417   69.6646  222.5427 H   0  0  0  0  0  0  0  0  0  0  0  0
  139.2278   71.9347  221.3529 H   0  0  0  0  0  0  0  0  0  0  0  0
  142.1193   71.7609  221.4826 H   0  0  0  0  0  0  0  0  0  0  0  0
  139.3403   76.5611  223.5061 H   0  0  0  0  0  0  0  0  0  0  0  0
  139.4849   79.0062  222.9925 H   0  0  0  0  0  0  0  0  0  0  0  0
  140.8507   79.7827  221.1191 H   0  0  0  0  0  0  0  0  0  0  0  0
  142.1279   78.2263  219.6701 H   0  0  0  0  0  0  0  0  0  0  0  0
  142.4249   72.3489  219.5391 H   0  0  0  0  0  0  0  0  0  0  0  0
  142.6991   73.7416  218.3903 H   0  0  0  0  0  0  0  0  0  0  0  0
  144.5027   74.1309  221.7841 H   0  0  0  0  0  0  0  0  0  0  0  0
  147.1141   73.7131  221.3107 H   0  0  0  0  0  0  0  0  0  0  0  0
  145.0777   72.5502  217.8206 H   0  0  0  0  0  0  0  0  0  0  0  0
  141.1080   72.6281  224.3568 H   0  0  0  0  0  0  0  0  0  0  0  0
  1  2  3  0
  2  3  1  0
  3  4  2  0
  4  5  1  0
  5  6  2  0
  6  7  1  0
  7  8  1  0
  8  9  2  0
  9 10  1  0
 10 11  2  0
 11 12  1  0
 12 13  2  0
 13 14  1  0
 14 15  2  0
 15 16  1  0
 16 17  2  0
 17 18  1  0
 18 19  2  0
 18 20  1  0
 20 21  1  0
 21 22  1  0
 22 23  1  0
 23 24  2  0
 24 25  1  0
 25 26  1  0
  7 27  2  0
 27  3  1  0
 20 10  1  0
 26 22  2  0
 17 12  1  0
  4 28  1  0
  5 29  1  0
  6 30  1  0
  8 31  1  0
  9 32  1  0
 13 33  1  0
 14 34  1  0
 15 35  1  0
 16 36  1  0
 21 37  1  0
 21 38  1  0
 23 39  1  0
 24 40  1  0
 26 41  1  0
 27 42  1  0
M  END
>  <smiles>  (36) 
N#Cc1cccc(/C=C/c2nc3ccccc3c(=O)n2Cc2ccoc2)c1

>  <score_type>  (36) 
oracle

>  <origin>  (36) 
autodockgpu

>  <m_score__min__energy>  (36) 
-8.9199999999999999

>  <m_primary>  (36) 
energy

>  <rmsd>  (36) 
7.248908763294105

>  <m_score__min__rmsd>  (36) 
7.248908763294105

>  <meeko>  (36) 
{"free_energy": -8.16, "intermolecular_energy": -9.95, "internal_energy": -1.01, "cluster_size": 26, "cluster_id": 1, "rank_in_cluster": 20}

>  <energy>  (36) 
-8.07

>  <cluster_rmsd>  (36) 
0.46

>  <cluster>  (36) 
2

$$$$

     RDKit          3D

 42 45  0  0  0  0  0  0  0  0999 V2000
  139.0460   67.0150  226.4680 N   0  0  0  0  0  0  0  0  0  0  0  0
  139.4030   68.0720  226.1460 C   0  0  0  0  0  0  0  0  0  0  0  0
  139.8500   69.3730  225.7630 C   0  0  0  0  0  0  0  0  0  0  0  0
  140.4490   70.1550  226.7190 C   0  0  0  0  0  0  0  0  0  0  0  0
  140.8950   71.4230  226.3910 C   0  0  0  0  0  0  0  0  0  0  0  0
  140.7250   71.8780  225.0830 C   0  0  0  0  0  0  0  0  0  0  0  0
  140.1290   71.1120  224.1080 C   0  0  0  0  0  0  0  0  0  0  0  0
  139.9520   71.5740  222.7630 C   0  0  0  0  0  0  0  0  0  0  0  0
  140.9260   71.9370  221.9430 C   0  0  0  0  0  0  0  0  0  0  0  0
  141.0790   73.3560  221.5500 C   0  0  0  0  0  0  0  0  0  0  0  0
  140.3770   74.3040  222.2150 N   0  0  0  0  0  0  0  0  0  0  0  0
  140.4630   75.6260  221.9170 C   0  0  0  0  0  0  0  0  0  0  0  0
  139.7350   76.5670  222.6120 C   0  0  0  0  0  0  0  0  0  0  0  0
  139.8840   77.8880  222.2420 C   0  0  0  0  0  0  0  0  0  0  0  0
  140.7340   78.2170  221.2140 C   0  0  0  0  0  0  0  0  0  0  0  0
  141.4720   77.2910  220.5040 C   0  0  0  0  0  0  0  0  0  0  0  0
  141.3180   75.9530  220.8840 C   0  0  0  0  0  0  0  0  0  0  0  0
  142.0260   74.9770  220.2160 C   0  0  0  0  0  0  0  0  0  0  0  0
  142.7990   75.2970  219.2780 O   0  0  0  0  0  0  0  0  0  0  0  0
  141.9170   73.6550  220.5410 N   0  0  0  0  0  0  0  0  0  0  0  0
  142.6790   72.7080  219.8060 C   0  0  0  0  0  0  0  0  0  0  0  0
  144.1460   72.8860  219.9560 C   0  0  0  0  0  0  0  0  0  0  0  0
  144.8570   73.6260  220.8770 C   0  0  0  0  0  0  0  0  0  0  0  0
  146.2020   73.4430  220.5680 C   0  0  0  0  0  0  0  0  0  0  0  0
  146.3100   72.6460  219.5310 O   0  0  0  0  0  0  0  0  0  0  0  0
  145.1100   72.2970  219.1430 C   0  0  0  0  0  0  0  0  0  0  0  0
  139.6980   69.8560  224.4780 C   0  0  0  0  0  0  0  0  0  0  0  0
  140.5741   69.7744  227.7435 H   0  0  0  0  0  0  0  0  0  0  0  0
  141.3750   72.0609  227.1478 H   0  0  0  0  0  0  0  0  0  0  0  0
  141.0804   72.8857  224.8219 H   0  0  0  0  0  0  0  0  0  0  0  0
  138.9223   71.6318  222.3805 H   0  0  0  0  0  0  0  0  0  0  0  0
  141.6238   71.1817  221.5524 H   0  0  0  0  0  0  0  0  0  0  0  0
  139.0605   76.2762  223.4308 H   0  0  0  0  0  0  0  0  0  0  0  0
  139.3241   78.6750  222.7684 H   0  0  0  0  0  0  0  0  0  0  0  0
  140.8321   79.2781  220.9412 H   0  0  0  0  0  0  0  0  0  0  0  0
  142.1437   77.5884  219.6852 H   0  0  0  0  0  0  0  0  0  0  0  0
  142.4127   71.6996  220.1556 H   0  0  0  0  0  0  0  0  0  0  0  0
  142.4414   72.8559  218.7422 H   0  0  0  0  0  0  0  0  0  0  0  0
  144.4442   74.2382  221.6924 H   0  0  0  0  0  0  0  0  0  0  0  0
  147.0449   73.8968  221.1099 H   0  0  0  0  0  0  0  0  0  0  0  0
  144.8936   71.6319  218.2940 H   0  0  0  0  0  0  0  0  0  0  0  0
  139.2164   69.2163  223.7238 H   0  0  0  0  0  0  0  0  0  0  0  0
  1  2  3  0
  2  3  1  0
  3  4  2  0
  4  5  1  0
  5  6  2  0
  6  7  1  0
  7  8  1  0
  8  9  2  0
  9 10  1  0
 10 11  2  0
 11 12  1  0
 12 13  2  0
 13 14  1  0
 14 15  2  0
 15 16  1  0
 16 17  2  0
 17 18  1  0
 18 19  2  0
 18 20  1  0
 20 21  1  0
 21 22  1  0
 22 23  1  0
 23 24  2  0
 24 25  1  0
 25 26  1  0
  7 27  2  0
 27  3  1  0
 20 10  1  0
 26 22  2  0
 17 12  1  0
  4 28  1  0
  5 29  1  0
  6 30  1  0
  8 31  1  0
  9 32  1  0
 13 33  1  0
 14 34  1  0
 15 35  1  0
 16 36  1  0
 21 37  1  0
 21 38  1  0
 23 39  1  0
 24 40  1  0
 26 41  1  0
 27 42  1  0
M  END
>  <smiles>  (37) 
N#Cc1cccc(/C=C/c2nc3ccccc3c(=O)n2Cc2ccoc2)c1

>  <score_type>  (37) 
oracle

>  <origin>  (37) 
autodockgpu

>  <m_score__min__energy>  (37) 
-8.9199999999999999

>  <m_primary>  (37) 
energy

>  <rmsd>  (37) 
7.344384811430372

>  <m_score__min__rmsd>  (37) 
7.344384811430372

>  <meeko>  (37) 
{"free_energy": -8.65, "intermolecular_energy": -10.44, "internal_energy": -0.92, "cluster_size": 26, "cluster_id": 1, "rank_in_cluster": 4}

>  <energy>  (37) 
-7.98

>  <cluster_rmsd>  (37) 
0.47

>  <cluster>  (37) 
2

$$$$

     RDKit          3D

 42 45  0  0  0  0  0  0  0  0999 V2000
  141.0700   71.8140  228.2600 N   0  0  0  0  0  0  0  0  0  0  0  0
  140.7040   71.4820  227.2090 C   0  0  0  0  0  0  0  0  0  0  0  0
  140.2600   71.0860  225.9120 C   0  0  0  0  0  0  0  0  0  0  0  0
  139.2090   70.2060  225.8310 C   0  0  0  0  0  0  0  0  0  0  0  0
  138.7470   69.7960  224.5930 C   0  0  0  0  0  0  0  0  0  0  0  0
  139.3660   70.2930  223.4460 C   0  0  0  0  0  0  0  0  0  0  0  0
  140.4200   71.1760  223.5010 C   0  0  0  0  0  0  0  0  0  0  0  0
  141.0600   71.6900  222.3260 C   0  0  0  0  0  0  0  0  0  0  0  0
  140.4740   72.4250  221.3940 C   0  0  0  0  0  0  0  0  0  0  0  0
  140.8330   73.8510  221.2340 C   0  0  0  0  0  0  0  0  0  0  0  0
  140.2060   74.7800  221.9950 N   0  0  0  0  0  0  0  0  0  0  0  0
  140.4800   76.1070  221.9090 C   0  0  0  0  0  0  0  0  0  0  0  0
  139.8230   77.0260  222.6980 C   0  0  0  0  0  0  0  0  0  0  0  0
  140.1650   78.3540  222.5450 C   0  0  0  0  0  0  0  0  0  0  0  0
  141.1280   78.7110  221.6320 C   0  0  0  0  0  0  0  0  0  0  0  0
  141.7970   77.8070  220.8330 C   0  0  0  0  0  0  0  0  0  0  0  0
  141.4470   76.4610  220.9910 C   0  0  0  0  0  0  0  0  0  0  0  0
  142.0780   75.5050  220.2240 C   0  0  0  0  0  0  0  0  0  0  0  0
  142.9560   75.8500  219.3940 O   0  0  0  0  0  0  0  0  0  0  0  0
  141.7780   74.1770  220.3350 N   0  0  0  0  0  0  0  0  0  0  0  0
  142.4720   73.2530  219.5080 C   0  0  0  0  0  0  0  0  0  0  0  0
  143.9390   73.2380  219.7390 C   0  0  0  0  0  0  0  0  0  0  0  0
  144.6610   73.5990  220.8560 C   0  0  0  0  0  0  0  0  0  0  0  0
  146.0010   73.3900  220.5370 C   0  0  0  0  0  0  0  0  0  0  0  0
  146.0940   72.9350  219.3110 O   0  0  0  0  0  0  0  0  0  0  0  0
  144.8910   72.8320  218.8070 C   0  0  0  0  0  0  0  0  0  0  0  0
  140.8490   71.5580  224.7540 C   0  0  0  0  0  0  0  0  0  0  0  0
  138.7352   69.8277  226.7488 H   0  0  0  0  0  0  0  0  0  0  0  0
  137.9065   69.0907  224.5146 H   0  0  0  0  0  0  0  0  0  0  0  0
  138.9982   69.9673  222.4618 H   0  0  0  0  0  0  0  0  0  0  0  0
  142.1255   71.4544  222.1874 H   0  0  0  0  0  0  0  0  0  0  0  0
  139.7170   71.9735  220.7359 H   0  0  0  0  0  0  0  0  0  0  0  0
  139.0558   76.7132  223.4216 H   0  0  0  0  0  0  0  0  0  0  0  0
  139.6681   79.1249  223.1523 H   0  0  0  0  0  0  0  0  0  0  0  0
  141.3795   79.7772  221.5327 H   0  0  0  0  0  0  0  0  0  0  0  0
  142.5633   78.1264  220.1114 H   0  0  0  0  0  0  0  0  0  0  0  0
  142.0780   72.2451  219.7051 H   0  0  0  0  0  0  0  0  0  0  0  0
  142.3114   73.5669  218.4660 H   0  0  0  0  0  0  0  0  0  0  0  0
  144.2598   73.9764  221.8082 H   0  0  0  0  0  0  0  0  0  0  0  0
  146.8504   73.5779  221.2103 H   0  0  0  0  0  0  0  0  0  0  0  0
  144.6638   72.4754  217.7915 H   0  0  0  0  0  0  0  0  0  0  0  0
  141.6894   72.2631  224.8352 H   0  0  0  0  0  0  0  0  0  0  0  0
  1  2  3  0
  2  3  1  0
  3  4  2  0
  4  5  1  0
  5  6  2  0
  6  7  1  0
  7  8  1  0
  8  9  2  0
  9 10  1  0
 10 11  2  0
 11 12  1  0
 12 13  2  0
 13 14  1  0
 14 15  2  0
 15 16  1  0
 16 17  2  0
 17 18  1  0
 18 19  2  0
 18 20  1  0
 20 21  1  0
 21 22  1  0
 22 23  1  0
 23 24  2  0
 24 25  1  0
 25 26  1  0
  7 27  2  0
 27  3  1  0
 20 10  1  0
 26 22  2  0
 17 12  1  0
  4 28  1  0
  5 29  1  0
  6 30  1  0
  8 31  1  0
  9 32  1  0
 13 33  1  0
 14 34  1  0
 15 35  1  0
 16 36  1  0
 21 37  1  0
 21 38  1  0
 23 39  1  0
 24 40  1  0
 26 41  1  0
 27 42  1  0
M  END
>  <smiles>  (38) 
N#Cc1cccc(/C=C/c2nc3ccccc3c(=O)n2Cc2ccoc2)c1

>  <score_type>  (38) 
oracle

>  <origin>  (38) 
autodockgpu

>  <m_score__min__energy>  (38) 
-8.9199999999999999

>  <m_primary>  (38) 
energy

>  <rmsd>  (38) 
7.281587314585592

>  <m_score__min__rmsd>  (38) 
7.281587314585592

>  <meeko>  (38) 
{"free_energy": -8.0, "intermolecular_energy": -9.79, "internal_energy": -0.98, "cluster_size": 26, "cluster_id": 1, "rank_in_cluster": 26}

>  <energy>  (38) 
-7.98

>  <cluster_rmsd>  (38) 
0.49

>  <cluster>  (38) 
2

$$$$

     RDKit          3D

 42 45  0  0  0  0  0  0  0  0999 V2000
  133.8640   73.3440  226.4550 N   0  0  0  0  0  0  0  0  0  0  0  0
  134.3080   72.9970  225.4400 C   0  0  0  0  0  0  0  0  0  0  0  0
  134.8460   72.5570  224.1930 C   0  0  0  0  0  0  0  0  0  0  0  0
  133.9980   71.9400  223.3070 C   0  0  0  0  0  0  0  0  0  0  0  0
  134.4780   71.4970  222.0870 C   0  0  0  0  0  0  0  0  0  0  0  0
  135.8260   71.6940  221.7850 C   0  0  0  0  0  0  0  0  0  0  0  0
  136.6950   72.3100  222.6550 C   0  0  0  0  0  0  0  0  0  0  0  0
  138.0800   72.5150  222.3500 C   0  0  0  0  0  0  0  0  0  0  0  0
  139.0330   71.6030  222.4660 C   0  0  0  0  0  0  0  0  0  0  0  0
  139.3460   71.0160  223.7880 C   0  0  0  0  0  0  0  0  0  0  0  0
  140.0550   71.7450  224.6830 N   0  0  0  0  0  0  0  0  0  0  0  0
  140.3810   71.2800  225.9160 C   0  0  0  0  0  0  0  0  0  0  0  0
  141.1040   72.0460  226.8030 C   0  0  0  0  0  0  0  0  0  0  0  0
  141.3900   71.4940  228.0350 C   0  0  0  0  0  0  0  0  0  0  0  0
  140.9550   70.2250  228.3320 C   0  0  0  0  0  0  0  0  0  0  0  0
  140.2290   69.4410  227.4590 C   0  0  0  0  0  0  0  0  0  0  0  0
  139.9420   70.0050  226.2110 C   0  0  0  0  0  0  0  0  0  0  0  0
  139.2200   69.2750  225.2910 C   0  0  0  0  0  0  0  0  0  0  0  0
  138.8300   68.1160  225.5800 O   0  0  0  0  0  0  0  0  0  0  0  0
  138.9090   69.7730  224.0580 N   0  0  0  0  0  0  0  0  0  0  0  0
  138.1620   68.9590  223.1640 C   0  0  0  0  0  0  0  0  0  0  0  0
  136.7400   68.7980  223.5600 C   0  0  0  0  0  0  0  0  0  0  0  0
  136.0750   69.2590  224.6760 C   0  0  0  0  0  0  0  0  0  0  0  0
  134.7570   68.8280  224.5500 C   0  0  0  0  0  0  0  0  0  0  0  0
  134.6230   68.1510  223.4350 O   0  0  0  0  0  0  0  0  0  0  0  0
  135.7780   68.1130  222.8220 C   0  0  0  0  0  0  0  0  0  0  0  0
  136.1750   72.7350  223.8590 C   0  0  0  0  0  0  0  0  0  0  0  0
  132.9385   71.7980  223.5665 H   0  0  0  0  0  0  0  0  0  0  0  0
  133.8097   70.9991  221.3691 H   0  0  0  0  0  0  0  0  0  0  0  0
  136.2079   71.3435  220.8148 H   0  0  0  0  0  0  0  0  0  0  0  0
  138.3757   73.5115  221.9901 H   0  0  0  0  0  0  0  0  0  0  0  0
  139.5941   71.2805  221.5765 H   0  0  0  0  0  0  0  0  0  0  0  0
  141.4408   73.0595  226.5395 H   0  0  0  0  0  0  0  0  0  0  0  0
  141.9644   72.0681  228.7769 H   0  0  0  0  0  0  0  0  0  0  0  0
  141.1992   69.8108  229.3213 H   0  0  0  0  0  0  0  0  0  0  0  0
  139.8943   68.4286  227.7292 H   0  0  0  0  0  0  0  0  0  0  0  0
  138.1957   69.4172  222.1646 H   0  0  0  0  0  0  0  0  0  0  0  0
  138.6181   67.9581  223.1786 H   0  0  0  0  0  0  0  0  0  0  0  0
  136.5004   69.8493  225.5010 H   0  0  0  0  0  0  0  0  0  0  0  0
  133.9525   69.0250  225.2739 H   0  0  0  0  0  0  0  0  0  0  0  0
  135.9630   67.6115  221.8606 H   0  0  0  0  0  0  0  0  0  0  0  0
  136.8412   73.2331  224.5788 H   0  0  0  0  0  0  0  0  0  0  0  0
  1  2  3  0
  2  3  1  0
  3  4  2  0
  4  5  1  0
  5  6  2  0
  6  7  1  0
  7  8  1  0
  8  9  2  0
  9 10  1  0
 10 11  2  0
 11 12  1  0
 12 13  2  0
 13 14  1  0
 14 15  2  0
 15 16  1  0
 16 17  2  0
 17 18  1  0
 18 19  2  0
 18 20  1  0
 20 21  1  0
 21 22  1  0
 22 23  1  0
 23 24  2  0
 24 25  1  0
 25 26  1  0
  7 27  2  0
 27  3  1  0
 20 10  1  0
 26 22  2  0
 17 12  1  0
  4 28  1  0
  5 29  1  0
  6 30  1  0
  8 31  1  0
  9 32  1  0
 13 33  1  0
 14 34  1  0
 15 35  1  0
 16 36  1  0
 21 37  1  0
 21 38  1  0
 23 39  1  0
 24 40  1  0
 26 41  1  0
 27 42  1  0
M  END
>  <smiles>  (39) 
N#Cc1cccc(/C=C/c2nc3ccccc3c(=O)n2Cc2ccoc2)c1

>  <score_type>  (39) 
oracle

>  <origin>  (39) 
autodockgpu

>  <m_score__min__energy>  (39) 
-8.9199999999999999

>  <m_primary>  (39) 
energy

>  <rmsd>  (39) 
12.06103005954023

>  <m_score__min__rmsd>  (39) 
12.06103005954023

>  <meeko>  (39) 
{"free_energy": -6.64, "intermolecular_energy": -8.42, "internal_energy": -1.99, "cluster_size": 6, "cluster_id": 3, "rank_in_cluster": 4}

>  <energy>  (39) 
-7.77

>  <cluster_rmsd>  (39) 
1.35

>  <cluster>  (39) 
2

$$$$

     RDKit          3D

 42 45  0  0  0  0  0  0  0  0999 V2000
  141.0450   71.8770  228.3650 N   0  0  0  0  0  0  0  0  0  0  0  0
  140.7460   71.4840  227.3130 C   0  0  0  0  0  0  0  0  0  0  0  0
  140.3850   71.0130  226.0150 C   0  0  0  0  0  0  0  0  0  0  0  0
  139.5760   69.9080  225.9330 C   0  0  0  0  0  0  0  0  0  0  0  0
  139.2020   69.4170  224.6940 C   0  0  0  0  0  0  0  0  0  0  0  0
  139.6610   70.0670  223.5480 C   0  0  0  0  0  0  0  0  0  0  0  0
  140.4730   71.1770  223.6050 C   0  0  0  0  0  0  0  0  0  0  0  0
  140.9470   71.8480  222.4310 C   0  0  0  0  0  0  0  0  0  0  0  0
  140.2350   72.6740  221.6800 C   0  0  0  0  0  0  0  0  0  0  0  0
  140.7550   74.0200  221.3520 C   0  0  0  0  0  0  0  0  0  0  0  0
  140.2240   75.1010  221.9710 N   0  0  0  0  0  0  0  0  0  0  0  0
  140.6460   76.3680  221.7270 C   0  0  0  0  0  0  0  0  0  0  0  0
  140.0840   77.4480  222.3720 C   0  0  0  0  0  0  0  0  0  0  0  0
  140.5760   78.7000  222.0640 C   0  0  0  0  0  0  0  0  0  0  0  0
  141.5870   78.8290  221.1430 C   0  0  0  0  0  0  0  0  0  0  0  0
  142.1630   77.7610  220.4850 C   0  0  0  0  0  0  0  0  0  0  0  0
  141.6620   76.4940  220.8010 C   0  0  0  0  0  0  0  0  0  0  0  0
  142.1940   75.3840  220.1800 C   0  0  0  0  0  0  0  0  0  0  0  0
  143.1180   75.5210  219.3400 O   0  0  0  0  0  0  0  0  0  0  0  0
  141.7450   74.1220  220.4480 N   0  0  0  0  0  0  0  0  0  0  0  0
  142.3440   73.0290  219.7660 C   0  0  0  0  0  0  0  0  0  0  0  0
  143.8230   72.9970  219.8850 C   0  0  0  0  0  0  0  0  0  0  0  0
  144.6330   73.3390  220.9470 C   0  0  0  0  0  0  0  0  0  0  0  0
  145.9410   73.1190  220.5270 C   0  0  0  0  0  0  0  0  0  0  0  0
  145.9360   72.6730  219.2930 O   0  0  0  0  0  0  0  0  0  0  0  0
  144.6980   72.5880  218.8820 C   0  0  0  0  0  0  0  0  0  0  0  0
  140.8210   71.6310  224.8590 C   0  0  0  0  0  0  0  0  0  0  0  0
  139.2251   69.4129  226.8505 H   0  0  0  0  0  0  0  0  0  0  0  0
  138.5550   68.5309  224.6144 H   0  0  0  0  0  0  0  0  0  0  0  0
  139.3631   69.6783  222.5630 H   0  0  0  0  0  0  0  0  0  0  0  0
  141.9881   71.6616  222.1288 H   0  0  0  0  0  0  0  0  0  0  0  0
  139.2528   72.3583  221.2983 H   0  0  0  0  0  0  0  0  0  0  0  0
  139.2739   77.3173  223.1046 H   0  0  0  0  0  0  0  0  0  0  0  0
  140.1597   79.5922  222.5546 H   0  0  0  0  0  0  0  0  0  0  0  0
  141.9582   79.8396  220.9173 H   0  0  0  0  0  0  0  0  0  0  0  0
  142.9717   77.8988  219.7522 H   0  0  0  0  0  0  0  0  0  0  0  0
  141.9406   72.0946  220.1835 H   0  0  0  0  0  0  0  0  0  0  0  0
  142.1073   73.1445  218.6980 H   0  0  0  0  0  0  0  0  0  0  0  0
  144.3096   73.7115  221.9302 H   0  0  0  0  0  0  0  0  0  0  0  0
  146.8407   73.2923  221.1356 H   0  0  0  0  0  0  0  0  0  0  0  0
  144.3907   72.2420  217.8841 H   0  0  0  0  0  0  0  0  0  0  0  0
  141.4685   72.5163  224.9422 H   0  0  0  0  0  0  0  0  0  0  0  0
  1  2  3  0
  2  3  1  0
  3  4  2  0
  4  5  1  0
  5  6  2  0
  6  7  1  0
  7  8  1  0
  8  9  2  0
  9 10  1  0
 10 11  2  0
 11 12  1  0
 12 13  2  0
 13 14  1  0
 14 15  2  0
 15 16  1  0
 16 17  2  0
 17 18  1  0
 18 19  2  0
 18 20  1  0
 20 21  1  0
 21 22  1  0
 22 23  1  0
 23 24  2  0
 24 25  1  0
 25 26  1  0
  7 27  2  0
 27  3  1  0
 20 10  1  0
 26 22  2  0
 17 12  1  0
  4 28  1  0
  5 29  1  0
  6 30  1  0
  8 31  1  0
  9 32  1  0
 13 33  1  0
 14 34  1  0
 15 35  1  0
 16 36  1  0
 21 37  1  0
 21 38  1  0
 23 39  1  0
 24 40  1  0
 26 41  1  0
 27 42  1  0
M  END
>  <smiles>  (40) 
N#Cc1cccc(/C=C/c2nc3ccccc3c(=O)n2Cc2ccoc2)c1

>  <score_type>  (40) 
oracle

>  <origin>  (40) 
autodockgpu

>  <m_score__min__energy>  (40) 
-8.9199999999999999

>  <m_primary>  (40) 
energy

>  <rmsd>  (40) 
7.35045111149099

>  <m_score__min__rmsd>  (40) 
7.35045111149099

>  <meeko>  (40) 
{"free_energy": -8.06, "intermolecular_energy": -9.85, "internal_energy": -0.82, "cluster_size": 26, "cluster_id": 1, "rank_in_cluster": 25}

>  <energy>  (40) 
-7.66

>  <cluster_rmsd>  (40) 
1.33

>  <cluster>  (40) 
2

$$$$

     RDKit          3D

 42 45  0  0  0  0  0  0  0  0999 V2000
  141.0270   68.5360  228.4810 N   0  0  0  0  0  0  0  0  0  0  0  0
  140.6240   68.8150  227.4280 C   0  0  0  0  0  0  0  0  0  0  0  0
  140.1300   69.1450  226.1300 C   0  0  0  0  0  0  0  0  0  0  0  0
  139.3040   68.2430  225.5060 C   0  0  0  0  0  0  0  0  0  0  0  0
  138.8030   68.5230  224.2470 C   0  0  0  0  0  0  0  0  0  0  0  0
  139.1530   69.7280  223.6370 C   0  0  0  0  0  0  0  0  0  0  0  0
  139.9790   70.6480  224.2420 C   0  0  0  0  0  0  0  0  0  0  0  0
  140.3410   71.8870  223.6210 C   0  0  0  0  0  0  0  0  0  0  0  0
  140.7940   72.0210  222.3840 C   0  0  0  0  0  0  0  0  0  0  0  0
  141.0460   73.3670  221.8240 C   0  0  0  0  0  0  0  0  0  0  0  0
  140.3490   74.4240  222.3050 N   0  0  0  0  0  0  0  0  0  0  0  0
  140.5230   75.6900  221.8460 C   0  0  0  0  0  0  0  0  0  0  0  0
  139.7970   76.7430  222.3570 C   0  0  0  0  0  0  0  0  0  0  0  0
  140.0390   77.9960  221.8320 C   0  0  0  0  0  0  0  0  0  0  0  0
  140.9750   78.1510  220.8380 C   0  0  0  0  0  0  0  0  0  0  0  0
  141.7130   77.1100  220.3130 C   0  0  0  0  0  0  0  0  0  0  0  0
  141.4640   75.8410  220.8490 C   0  0  0  0  0  0  0  0  0  0  0  0
  142.1670   74.7570  220.3690 C   0  0  0  0  0  0  0  0  0  0  0  0
  143.0200   74.9180  219.4600 O   0  0  0  0  0  0  0  0  0  0  0  0
  141.9680   73.4950  220.8530 N   0  0  0  0  0  0  0  0  0  0  0  0
  142.7310   72.4290  220.3060 C   0  0  0  0  0  0  0  0  0  0  0  0
  144.1910   72.6980  220.2850 C   0  0  0  0  0  0  0  0  0  0  0  0
  144.9890   73.3250  221.2180 C   0  0  0  0  0  0  0  0  0  0  0  0
  146.2810   73.3090  220.7000 C   0  0  0  0  0  0  0  0  0  0  0  0
  146.2770   72.7140  219.5310 O   0  0  0  0  0  0  0  0  0  0  0  0
  145.0550   72.3390  219.2540 C   0  0  0  0  0  0  0  0  0  0  0  0
  140.4550   70.3290  225.4960 C   0  0  0  0  0  0  0  0  0  0  0  0
  139.0410   67.2993  226.0062 H   0  0  0  0  0  0  0  0  0  0  0  0
  138.1407   67.8085  223.7363 H   0  0  0  0  0  0  0  0  0  0  0  0
  138.7544   69.9509  222.6363 H   0  0  0  0  0  0  0  0  0  0  0  0
  140.2338   72.8026  224.2212 H   0  0  0  0  0  0  0  0  0  0  0  0
  140.9837   71.1280  221.7703 H   0  0  0  0  0  0  0  0  0  0  0  0
  139.0530   76.5910  223.1529 H   0  0  0  0  0  0  0  0  0  0  0  0
  139.4842   78.8682  222.2081 H   0  0  0  0  0  0  0  0  0  0  0  0
  141.1455   79.1616  220.4384 H   0  0  0  0  0  0  0  0  0  0  0  0
  142.4558   77.2685  219.5174 H   0  0  0  0  0  0  0  0  0  0  0  0
  142.5515   71.5267  220.9090 H   0  0  0  0  0  0  0  0  0  0  0  0
  142.4094   72.3025  219.2617 H   0  0  0  0  0  0  0  0  0  0  0  0
  144.6688   73.7525  222.1796 H   0  0  0  0  0  0  0  0  0  0  0  0
  147.1685   73.7304  221.1947 H   0  0  0  0  0  0  0  0  0  0  0  0
  144.7525   71.8140  218.3359 H   0  0  0  0  0  0  0  0  0  0  0  0
  141.1166   71.0419  226.0098 H   0  0  0  0  0  0  0  0  0  0  0  0
  1  2  3  0
  2  3  1  0
  3  4  2  0
  4  5  1  0
  5  6  2  0
  6  7  1  0
  7  8  1  0
  8  9  2  0
  9 10  1  0
 10 11  2  0
 11 12  1  0
 12 13  2  0
 13 14  1  0
 14 15  2  0
 15 16  1  0
 16 17  2  0
 17 18  1  0
 18 19  2  0
 18 20  1  0
 20 21  1  0
 21 22  1  0
 22 23  1  0
 23 24  2  0
 24 25  1  0
 25 26  1  0
  7 27  2  0
 27  3  1  0
 20 10  1  0
 26 22  2  0
 17 12  1  0
  4 28  1  0
  5 29  1  0
  6 30  1  0
  8 31  1  0
  9 32  1  0
 13 33  1  0
 14 34  1  0
 15 35  1  0
 16 36  1  0
 21 37  1  0
 21 38  1  0
 23 39  1  0
 24 40  1  0
 26 41  1  0
 27 42  1  0
M  END
>  <smiles>  (41) 
N#Cc1cccc(/C=C/c2nc3ccccc3c(=O)n2Cc2ccoc2)c1

>  <score_type>  (41) 
oracle

>  <origin>  (41) 
autodockgpu

>  <m_score__min__energy>  (41) 
-8.9199999999999999

>  <m_primary>  (41) 
energy

>  <rmsd>  (41) 
7.368797546881702

>  <m_score__min__rmsd>  (41) 
7.368797546881702

>  <meeko>  (41) 
{"free_energy": -8.24, "intermolecular_energy": -10.03, "internal_energy": -0.67, "cluster_size": 26, "cluster_id": 1, "rank_in_cluster": 17}

>  <energy>  (41) 
-7.51

>  <cluster_rmsd>  (41) 
1.02

>  <cluster>  (41) 
2

$$$$

     RDKit          3D

 42 45  0  0  0  0  0  0  0  0999 V2000
  133.6410   73.3970  226.4890 N   0  0  0  0  0  0  0  0  0  0  0  0
  134.3420   73.5500  225.5750 C   0  0  0  0  0  0  0  0  0  0  0  0
  135.2120   73.7440  224.4610 C   0  0  0  0  0  0  0  0  0  0  0  0
  135.2970   75.0030  223.9210 C   0  0  0  0  0  0  0  0  0  0  0  0
  136.1280   75.2360  222.8400 C   0  0  0  0  0  0  0  0  0  0  0  0
  136.8670   74.1730  222.3200 C   0  0  0  0  0  0  0  0  0  0  0  0
  136.8000   72.9020  222.8440 C   0  0  0  0  0  0  0  0  0  0  0  0
  137.5570   71.8070  222.3150 C   0  0  0  0  0  0  0  0  0  0  0  0
  138.8320   71.5590  222.5760 C   0  0  0  0  0  0  0  0  0  0  0  0
  139.2210   70.9280  223.8560 C   0  0  0  0  0  0  0  0  0  0  0  0
  139.9340   71.6460  224.7570 N   0  0  0  0  0  0  0  0  0  0  0  0
  140.3280   71.1410  225.9540 C   0  0  0  0  0  0  0  0  0  0  0  0
  141.0530   71.8970  226.8480 C   0  0  0  0  0  0  0  0  0  0  0  0
  141.4100   71.3030  228.0410 C   0  0  0  0  0  0  0  0  0  0  0  0
  141.0420   70.0040  228.2940 C   0  0  0  0  0  0  0  0  0  0  0  0
  140.3160   69.2290  227.4130 C   0  0  0  0  0  0  0  0  0  0  0  0
  139.9560   69.8360  226.2050 C   0  0  0  0  0  0  0  0  0  0  0  0
  139.2300   69.1170  225.2790 C   0  0  0  0  0  0  0  0  0  0  0  0
  138.9020   67.9290  225.5280 O   0  0  0  0  0  0  0  0  0  0  0  0
  138.8490   69.6560  224.0830 N   0  0  0  0  0  0  0  0  0  0  0  0
  138.1030   68.8500  223.1810 C   0  0  0  0  0  0  0  0  0  0  0  0
  136.6630   68.7510  223.5310 C   0  0  0  0  0  0  0  0  0  0  0  0
  135.9770   69.2660  224.6090 C   0  0  0  0  0  0  0  0  0  0  0  0
  134.6500   68.8780  224.4490 C   0  0  0  0  0  0  0  0  0  0  0  0
  134.5290   68.1730  223.3490 O   0  0  0  0  0  0  0  0  0  0  0  0
  135.7030   68.0780  222.7790 C   0  0  0  0  0  0  0  0  0  0  0  0
  135.9590   72.7150  223.9210 C   0  0  0  0  0  0  0  0  0  0  0  0
  134.7048   75.8260  224.3475 H   0  0  0  0  0  0  0  0  0  0  0  0
  136.2047   76.2406  222.3986 H   0  0  0  0  0  0  0  0  0  0  0  0
  137.5274   74.3574  221.4598 H   0  0  0  0  0  0  0  0  0  0  0  0
  137.0369   71.1151  221.6362 H   0  0  0  0  0  0  0  0  0  0  0  0
  139.6040   71.8232  221.8383 H   0  0  0  0  0  0  0  0  0  0  0  0
  141.3367   72.9350  226.6197 H   0  0  0  0  0  0  0  0  0  0  0  0
  141.9877   71.8680  228.7874 H   0  0  0  0  0  0  0  0  0  0  0  0
  141.3430   69.5565  229.2527 H   0  0  0  0  0  0  0  0  0  0  0  0
  140.0358   68.1914  227.6474 H   0  0  0  0  0  0  0  0  0  0  0  0
  138.1880   69.2838  222.1737 H   0  0  0  0  0  0  0  0  0  0  0  0
  138.5203   67.8335  223.2325 H   0  0  0  0  0  0  0  0  0  0  0  0
  136.3947   69.8645  225.4320 H   0  0  0  0  0  0  0  0  0  0  0  0
  133.8291   69.1244  225.1385 H   0  0  0  0  0  0  0  0  0  0  0  0
  135.9034   67.5426  221.8392 H   0  0  0  0  0  0  0  0  0  0  0  0
  135.8803   71.7118  224.3654 H   0  0  0  0  0  0  0  0  0  0  0  0
  1  2  3  0
  2  3  1  0
  3  4  2  0
  4  5  1  0
  5  6  2  0
  6  7  1  0
  7  8  1  0
  8  9  2  0
  9 10  1  0
 10 11  2  0
 11 12  1  0
 12 13  2  0
 13 14  1  0
 14 15  2  0
 15 16  1  0
 16 17  2  0
 17 18  1  0
 18 19  2  0
 18 20  1  0
 20 21  1  0
 21 22  1  0
 22 23  1  0
 23 24  2  0
 24 25  1  0
 25 26  1  0
  7 27  2  0
 27  3  1  0
 20 10  1  0
 26 22  2  0
 17 12  1  0
  4 28  1  0
  5 29  1  0
  6 30  1  0
  8 31  1  0
  9 32  1  0
 13 33  1  0
 14 34  1  0
 15 35  1  0
 16 36  1  0
 21 37  1  0
 21 38  1  0
 23 39  1  0
 24 40  1  0
 26 41  1  0
 27 42  1  0
M  END
>  <smiles>  (42) 
N#Cc1cccc(/C=C/c2nc3ccccc3c(=O)n2Cc2ccoc2)c1

>  <score_type>  (42) 
oracle

>  <origin>  (42) 
autodockgpu

>  <m_score__min__energy>  (42) 
-8.9199999999999999

>  <m_primary>  (42) 
energy

>  <rmsd>  (42) 
12.12846059734786

>  <m_score__min__rmsd>  (42) 
12.12846059734786

>  <meeko>  (42) 
{"free_energy": -7.13, "intermolecular_energy": -8.92, "internal_energy": -1.46, "cluster_size": 6, "cluster_id": 3, "rank_in_cluster": 2}

>  <energy>  (42) 
-7.48

>  <cluster_rmsd>  (42) 
0.73

>  <cluster>  (42) 
2

$$$$

     RDKit          3D

 42 45  0  0  0  0  0  0  0  0999 V2000
  146.2380   72.7930  219.7260 N   0  0  0  0  0  0  0  0  0  0  0  0
  145.1390   72.9870  220.0470 C   0  0  0  0  0  0  0  0  0  0  0  0
  143.7900   73.2380  220.4380 C   0  0  0  0  0  0  0  0  0  0  0  0
  143.3690   74.5440  220.4980 C   0  0  0  0  0  0  0  0  0  0  0  0
  142.0690   74.8330  220.8740 C   0  0  0  0  0  0  0  0  0  0  0  0
  141.2100   73.7790  221.1840 C   0  0  0  0  0  0  0  0  0  0  0  0
  141.6070   72.4620  221.1310 C   0  0  0  0  0  0  0  0  0  0  0  0
  140.7290   71.3760  221.4490 C   0  0  0  0  0  0  0  0  0  0  0  0
  139.7210   71.4300  222.3050 C   0  0  0  0  0  0  0  0  0  0  0  0
  139.8380   70.7910  223.6350 C   0  0  0  0  0  0  0  0  0  0  0  0
  140.3320   71.5090  224.6720 N   0  0  0  0  0  0  0  0  0  0  0  0
  140.4690   70.9970  225.9210 C   0  0  0  0  0  0  0  0  0  0  0  0
  140.9750   71.7540  226.9550 C   0  0  0  0  0  0  0  0  0  0  0  0
  141.0790   71.1520  228.1930 C   0  0  0  0  0  0  0  0  0  0  0  0
  140.6840   69.8460  228.3530 C   0  0  0  0  0  0  0  0  0  0  0  0
  140.1740   69.0700  227.3310 C   0  0  0  0  0  0  0  0  0  0  0  0
  140.0710   69.6850  226.0780 C   0  0  0  0  0  0  0  0  0  0  0  0
  139.5690   68.9660  225.0140 C   0  0  0  0  0  0  0  0  0  0  0  0
  139.2130   67.7720  225.1790 O   0  0  0  0  0  0  0  0  0  0  0  0
  139.4450   69.5120  223.7680 N   0  0  0  0  0  0  0  0  0  0  0  0
  138.9190   68.7060  222.7220 C   0  0  0  0  0  0  0  0  0  0  0  0
  137.4600   68.4590  222.8430 C   0  0  0  0  0  0  0  0  0  0  0  0
  136.6060   67.7810  222.0000 C   0  0  0  0  0  0  0  0  0  0  0  0
  135.3450   67.8470  222.5880 C   0  0  0  0  0  0  0  0  0  0  0  0
  135.4210   68.5180  223.7120 O   0  0  0  0  0  0  0  0  0  0  0  0
  136.6600   68.8960  223.8950 C   0  0  0  0  0  0  0  0  0  0  0  0
  142.9110   72.2200  220.7530 C   0  0  0  0  0  0  0  0  0  0  0  0
  144.0641   75.3589  220.2476 H   0  0  0  0  0  0  0  0  0  0  0  0
  141.7197   75.8747  220.9274 H   0  0  0  0  0  0  0  0  0  0  0  0
  140.1764   74.0087  221.4821 H   0  0  0  0  0  0  0  0  0  0  0  0
  140.9073   70.4175  220.9395 H   0  0  0  0  0  0  0  0  0  0  0  0
  138.7932   71.9515  222.0271 H   0  0  0  0  0  0  0  0  0  0  0  0
  141.2843   72.7982  226.8000 H   0  0  0  0  0  0  0  0  0  0  0  0
  141.4771   71.7166  229.0490 H   0  0  0  0  0  0  0  0  0  0  0  0
  140.7793   69.3932  229.3509 H   0  0  0  0  0  0  0  0  0  0  0  0
  139.8658   68.0265  227.4927 H   0  0  0  0  0  0  0  0  0  0  0  0
  139.1085   69.2116  221.7636 H   0  0  0  0  0  0  0  0  0  0  0  0
  139.4194   67.7283  222.7832 H   0  0  0  0  0  0  0  0  0  0  0  0
  136.8678   67.2868  221.0528 H   0  0  0  0  0  0  0  0  0  0  0  0
  134.4272   67.4046  222.1735 H   0  0  0  0  0  0  0  0  0  0  0  0
  137.0187   69.4767  224.7577 H   0  0  0  0  0  0  0  0  0  0  0  0
  143.2637   71.1794  220.7005 H   0  0  0  0  0  0  0  0  0  0  0  0
  1  2  3  0
  2  3  1  0
  3  4  2  0
  4  5  1  0
  5  6  2  0
  6  7  1  0
  7  8  1  0
  8  9  2  0
  9 10  1  0
 10 11  2  0
 11 12  1  0
 12 13  2  0
 13 14  1  0
 14 15  2  0
 15 16  1  0
 16 17  2  0
 17 18  1  0
 18 19  2  0
 18 20  1  0
 20 21  1  0
 21 22  1  0
 22 23  1  0
 23 24  2  0
 24 25  1  0
 25 26  1  0
  7 27  2  0
 27  3  1  0
 20 10  1  0
 26 22  2  0
 17 12  1  0
  4 28  1  0
  5 29  1  0
  6 30  1  0
  8 31  1  0
  9 32  1  0
 13 33  1  0
 14 34  1  0
 15 35  1  0
 16 36  1  0
 21 37  1  0
 21 38  1  0
 23 39  1  0
 24 40  1  0
 26 41  1  0
 27 42  1  0
M  END
>  <smiles>  (43) 
N#Cc1cccc(/C=C/c2nc3ccccc3c(=O)n2Cc2ccoc2)c1

>  <score_type>  (43) 
oracle

>  <origin>  (43) 
autodockgpu

>  <m_score__min__energy>  (43) 
-8.9199999999999999

>  <m_primary>  (43) 
energy

>  <rmsd>  (43) 
12.189761867387524

>  <m_score__min__rmsd>  (43) 
12.189761867387524

>  <meeko>  (43) 
{"free_energy": -8.26, "intermolecular_energy": -10.05, "internal_energy": -0.89, "cluster_size": 16, "cluster_id": 2, "rank_in_cluster": 3}

>  <energy>  (43) 
-7.32

>  <cluster_rmsd>  (43) 
0.0

>  <cluster>  (43) 
3

$$$$

     RDKit          3D

 42 45  0  0  0  0  0  0  0  0999 V2000
  141.0320   71.7410  228.3240 N   0  0  0  0  0  0  0  0  0  0  0  0
  140.7180   71.4150  227.2540 C   0  0  0  0  0  0  0  0  0  0  0  0
  140.3200   71.0080  225.9450 C   0  0  0  0  0  0  0  0  0  0  0  0
  139.3850   70.0100  225.8370 C   0  0  0  0  0  0  0  0  0  0  0  0
  138.9720   69.5840  224.5870 C   0  0  0  0  0  0  0  0  0  0  0  0
  139.5220   70.1880  223.4560 C   0  0  0  0  0  0  0  0  0  0  0  0
  140.4610   71.1910  223.5380 C   0  0  0  0  0  0  0  0  0  0  0  0
  141.0290   71.8150  222.3810 C   0  0  0  0  0  0  0  0  0  0  0  0
  140.3680   72.5660  221.5130 C   0  0  0  0  0  0  0  0  0  0  0  0
  140.7660   73.9740  221.2910 C   0  0  0  0  0  0  0  0  0  0  0  0
  140.1750   74.9500  222.0200 N   0  0  0  0  0  0  0  0  0  0  0  0
  140.4850   76.2640  221.8780 C   0  0  0  0  0  0  0  0  0  0  0  0
  139.8640   77.2330  222.6360 C   0  0  0  0  0  0  0  0  0  0  0  0
  140.2420   78.5440  222.4250 C   0  0  0  0  0  0  0  0  0  0  0  0
  141.2030   78.8350  221.4870 C   0  0  0  0  0  0  0  0  0  0  0  0
  141.8360   77.8810  220.7180 C   0  0  0  0  0  0  0  0  0  0  0  0
  141.4500   76.5530  220.9350 C   0  0  0  0  0  0  0  0  0  0  0  0
  142.0440   75.5500  220.2000 C   0  0  0  0  0  0  0  0  0  0  0  0
  142.9210   75.8350  219.3470 O   0  0  0  0  0  0  0  0  0  0  0  0
  141.7080   74.2360  220.3680 N   0  0  0  0  0  0  0  0  0  0  0  0
  142.3650   73.2590  219.5720 C   0  0  0  0  0  0  0  0  0  0  0  0
  143.8390   73.2430  219.7530 C   0  0  0  0  0  0  0  0  0  0  0  0
  144.5970   73.5580  220.8600 C   0  0  0  0  0  0  0  0  0  0  0  0
  145.9260   73.3710  220.4890 C   0  0  0  0  0  0  0  0  0  0  0  0
  145.9790   72.9690  219.2410 O   0  0  0  0  0  0  0  0  0  0  0  0
  144.7610   72.8820  218.7740 C   0  0  0  0  0  0  0  0  0  0  0  0
  140.8440   71.5840  224.8030 C   0  0  0  0  0  0  0  0  0  0  0  0
  138.9642   69.5491  226.7428 H   0  0  0  0  0  0  0  0  0  0  0  0
  138.2238   68.7839  224.4868 H   0  0  0  0  0  0  0  0  0  0  0  0
  139.1931   69.8502  222.4622 H   0  0  0  0  0  0  0  0  0  0  0  0
  142.1022   71.6577  222.1981 H   0  0  0  0  0  0  0  0  0  0  0  0
  139.5202   72.1417  220.9552 H   0  0  0  0  0  0  0  0  0  0  0  0
  139.0970   76.9721  223.3801 H   0  0  0  0  0  0  0  0  0  0  0  0
  139.7753   79.3531  223.0060 H   0  0  0  0  0  0  0  0  0  0  0  0
  141.4834   79.8886  221.3411 H   0  0  0  0  0  0  0  0  0  0  0  0
  142.6018   78.1488  219.9752 H   0  0  0  0  0  0  0  0  0  0  0  0
  141.9702   72.2680  219.8404 H   0  0  0  0  0  0  0  0  0  0  0  0
  142.1704   73.5138  218.5198 H   0  0  0  0  0  0  0  0  0  0  0  0
  144.2262   73.8907  221.8407 H   0  0  0  0  0  0  0  0  0  0  0  0
  146.7966   73.5349  221.1411 H   0  0  0  0  0  0  0  0  0  0  0  0
  144.5013   72.5680  217.7522 H   0  0  0  0  0  0  0  0  0  0  0  0
  141.5923   72.3835  224.9069 H   0  0  0  0  0  0  0  0  0  0  0  0
  1  2  3  0
  2  3  1  0
  3  4  2  0
  4  5  1  0
  5  6  2  0
  6  7  1  0
  7  8  1  0
  8  9  2  0
  9 10  1  0
 10 11  2  0
 11 12  1  0
 12 13  2  0
 13 14  1  0
 14 15  2  0
 15 16  1  0
 16 17  2  0
 17 18  1  0
 18 19  2  0
 18 20  1  0
 20 21  1  0
 21 22  1  0
 22 23  1  0
 23 24  2  0
 24 25  1  0
 25 26  1  0
  7 27  2  0
 27  3  1  0
 20 10  1  0
 26 22  2  0
 17 12  1  0
  4 28  1  0
  5 29  1  0
  6 30  1  0
  8 31  1  0
  9 32  1  0
 13 33  1  0
 14 34  1  0
 15 35  1  0
 16 36  1  0
 21 37  1  0
 21 38  1  0
 23 39  1  0
 24 40  1  0
 26 41  1  0
 27 42  1  0
M  END
>  <smiles>  (44) 
N#Cc1cccc(/C=C/c2nc3ccccc3c(=O)n2Cc2ccoc2)c1

>  <score_type>  (44) 
oracle

>  <origin>  (44) 
autodockgpu

>  <m_score__min__energy>  (44) 
-8.9199999999999999

>  <m_primary>  (44) 
energy

>  <rmsd>  (44) 
7.247556127164173

>  <m_score__min__rmsd>  (44) 
7.247556127164173

>  <meeko>  (44) 
{"free_energy": -8.07, "intermolecular_energy": -9.86, "internal_energy": -0.94, "cluster_size": 26, "cluster_id": 1, "rank_in_cluster": 24}

>  <energy>  (44) 
-7.13

>  <cluster_rmsd>  (44) 
0.43

>  <cluster>  (44) 
3

$$$$

     RDKit          3D

 42 45  0  0  0  0  0  0  0  0999 V2000
  139.1710   67.0130  226.5000 N   0  0  0  0  0  0  0  0  0  0  0  0
  139.5710   68.0770  226.2580 C   0  0  0  0  0  0  0  0  0  0  0  0
  140.0720   69.3830  225.9730 C   0  0  0  0  0  0  0  0  0  0  0  0
  140.8510   69.9960  226.9220 C   0  0  0  0  0  0  0  0  0  0  0  0
  141.3560   71.2620  226.6870 C   0  0  0  0  0  0  0  0  0  0  0  0
  141.0580   71.8900  225.4770 C   0  0  0  0  0  0  0  0  0  0  0  0
  140.2800   71.2960  224.5100 C   0  0  0  0  0  0  0  0  0  0  0  0
  139.9710   71.9360  223.2660 C   0  0  0  0  0  0  0  0  0  0  0  0
  140.8150   72.1020  222.2590 C   0  0  0  0  0  0  0  0  0  0  0  0
  141.0940   73.4580  221.7370 C   0  0  0  0  0  0  0  0  0  0  0  0
  140.4160   74.5140  222.2460 N   0  0  0  0  0  0  0  0  0  0  0  0
  140.6150   75.7890  221.8220 C   0  0  0  0  0  0  0  0  0  0  0  0
  139.9070   76.8410  222.3600 C   0  0  0  0  0  0  0  0  0  0  0  0
  140.1740   78.1030  221.8700 C   0  0  0  0  0  0  0  0  0  0  0  0
  141.1160   78.2680  220.8830 C   0  0  0  0  0  0  0  0  0  0  0  0
  141.8350   77.2280  220.3310 C   0  0  0  0  0  0  0  0  0  0  0  0
  141.5610   75.9500  220.8310 C   0  0  0  0  0  0  0  0  0  0  0  0
  142.2450   74.8660  220.3230 C   0  0  0  0  0  0  0  0  0  0  0  0
  143.1030   75.0350  219.4200 O   0  0  0  0  0  0  0  0  0  0  0  0
  142.0200   73.5950  220.7720 N   0  0  0  0  0  0  0  0  0  0  0  0
  142.7650   72.5300  220.1970 C   0  0  0  0  0  0  0  0  0  0  0  0
  144.2310   72.7680  220.1940 C   0  0  0  0  0  0  0  0  0  0  0  0
  145.0350   73.3430  221.1550 C   0  0  0  0  0  0  0  0  0  0  0  0
  146.3300   73.3170  220.6450 C   0  0  0  0  0  0  0  0  0  0  0  0
  146.3220   72.7660  219.4550 O   0  0  0  0  0  0  0  0  0  0  0  0
  145.0940   72.4280  219.1560 C   0  0  0  0  0  0  0  0  0  0  0  0
  139.7970   70.0340  224.7860 C   0  0  0  0  0  0  0  0  0  0  0  0
  141.0735   69.4812  227.8683 H   0  0  0  0  0  0  0  0  0  0  0  0
  141.9810   71.7645  227.4399 H   0  0  0  0  0  0  0  0  0  0  0  0
  141.4597   72.8967  225.2894 H   0  0  0  0  0  0  0  0  0  0  0  0
  138.9488   72.3211  223.1367 H   0  0  0  0  0  0  0  0  0  0  0  0
  141.3102   71.2288  221.8092 H   0  0  0  0  0  0  0  0  0  0  0  0
  139.1579   76.6813  223.1495 H   0  0  0  0  0  0  0  0  0  0  0  0
  139.6342   78.9748  222.2684 H   0  0  0  0  0  0  0  0  0  0  0  0
  141.3073   79.2859  220.5125 H   0  0  0  0  0  0  0  0  0  0  0  0
  142.5825   77.3942  219.5413 H   0  0  0  0  0  0  0  0  0  0  0  0
  142.5620   71.6135  220.7704 H   0  0  0  0  0  0  0  0  0  0  0  0
  142.4487   72.4431  219.1471 H   0  0  0  0  0  0  0  0  0  0  0  0
  144.7170   73.7423  222.1294 H   0  0  0  0  0  0  0  0  0  0  0  0
  147.2229   73.6998  221.1609 H   0  0  0  0  0  0  0  0  0  0  0  0
  144.7869   71.9437  218.2173 H   0  0  0  0  0  0  0  0  0  0  0  0
  139.1715   69.5286  224.0354 H   0  0  0  0  0  0  0  0  0  0  0  0
  1  2  3  0
  2  3  1  0
  3  4  2  0
  4  5  1  0
  5  6  2  0
  6  7  1  0
  7  8  1  0
  8  9  2  0
  9 10  1  0
 10 11  2  0
 11 12  1  0
 12 13  2  0
 13 14  1  0
 14 15  2  0
 15 16  1  0
 16 17  2  0
 17 18  1  0
 18 19  2  0
 18 20  1  0
 20 21  1  0
 21 22  1  0
 22 23  1  0
 23 24  2  0
 24 25  1  0
 25 26  1  0
  7 27  2  0
 27  3  1  0
 20 10  1  0
 26 22  2  0
 17 12  1  0
  4 28  1  0
  5 29  1  0
  6 30  1  0
  8 31  1  0
  9 32  1  0
 13 33  1  0
 14 34  1  0
 15 35  1  0
 16 36  1  0
 21 37  1  0
 21 38  1  0
 23 39  1  0
 24 40  1  0
 26 41  1  0
 27 42  1  0
M  END
>  <smiles>  (45) 
N#Cc1cccc(/C=C/c2nc3ccccc3c(=O)n2Cc2ccoc2)c1

>  <score_type>  (45) 
oracle

>  <origin>  (45) 
autodockgpu

>  <m_score__min__energy>  (45) 
-8.9199999999999999

>  <m_primary>  (45) 
energy

>  <rmsd>  (45) 
7.382071349003589

>  <m_score__min__rmsd>  (45) 
7.382071349003589

>  <meeko>  (45) 
{"free_energy": -8.92, "intermolecular_energy": -10.71, "internal_energy": -0.76, "cluster_size": 26, "cluster_id": 1, "rank_in_cluster": 1}

>  <energy>  (45) 
-6.84

>  <cluster_rmsd>  (45) 
0.67

>  <cluster>  (45) 
3

$$$$

     RDKit          3D

 42 45  0  0  0  0  0  0  0  0999 V2000
  133.8720   73.3910  226.4710 N   0  0  0  0  0  0  0  0  0  0  0  0
  134.2970   73.0200  225.4550 C   0  0  0  0  0  0  0  0  0  0  0  0
  134.8180   72.5500  224.2130 C   0  0  0  0  0  0  0  0  0  0  0  0
  133.9510   71.9450  223.3380 C   0  0  0  0  0  0  0  0  0  0  0  0
  134.4150   71.4740  222.1220 C   0  0  0  0  0  0  0  0  0  0  0  0
  135.7670   71.6280  221.8130 C   0  0  0  0  0  0  0  0  0  0  0  0
  136.6560   72.2310  222.6740 C   0  0  0  0  0  0  0  0  0  0  0  0
  138.0440   72.3920  222.3620 C   0  0  0  0  0  0  0  0  0  0  0  0
  138.9650   71.4450  222.4520 C   0  0  0  0  0  0  0  0  0  0  0  0
  139.3010   70.8550  223.7670 C   0  0  0  0  0  0  0  0  0  0  0  0
  140.0050   71.5910  224.6610 N   0  0  0  0  0  0  0  0  0  0  0  0
  140.3510   71.1230  225.8870 C   0  0  0  0  0  0  0  0  0  0  0  0
  141.0690   71.8970  226.7730 C   0  0  0  0  0  0  0  0  0  0  0  0
  141.3760   71.3410  227.9980 C   0  0  0  0  0  0  0  0  0  0  0  0
  140.9670   70.0620  228.2900 C   0  0  0  0  0  0  0  0  0  0  0  0
  140.2480   69.2710  227.4180 C   0  0  0  0  0  0  0  0  0  0  0  0
  139.9390   69.8380  226.1770 C   0  0  0  0  0  0  0  0  0  0  0  0
  139.2220   69.1020  225.2580 C   0  0  0  0  0  0  0  0  0  0  0  0
  138.8560   67.9330  225.5430 O   0  0  0  0  0  0  0  0  0  0  0  0
  138.8900   69.6030  224.0320 N   0  0  0  0  0  0  0  0  0  0  0  0
  138.1500   68.7810  223.1390 C   0  0  0  0  0  0  0  0  0  0  0  0
  136.7080   68.6860  223.4810 C   0  0  0  0  0  0  0  0  0  0  0  0
  136.0230   69.1870  224.5670 C   0  0  0  0  0  0  0  0  0  0  0  0
  134.6930   68.8130  224.3940 C   0  0  0  0  0  0  0  0  0  0  0  0
  134.5710   68.1310  223.2800 O   0  0  0  0  0  0  0  0  0  0  0  0
  135.7460   68.0360  222.7130 C   0  0  0  0  0  0  0  0  0  0  0  0
  136.1510   72.6850  223.8740 C   0  0  0  0  0  0  0  0  0  0  0  0
  132.8890   71.8346  223.6026 H   0  0  0  0  0  0  0  0  0  0  0  0
  133.7303   70.9871  221.4120 H   0  0  0  0  0  0  0  0  0  0  0  0
  136.1358   71.2541  220.8465 H   0  0  0  0  0  0  0  0  0  0  0  0
  138.3724   73.3843  222.0192 H   0  0  0  0  0  0  0  0  0  0  0  0
  139.4822   71.0956  221.5462 H   0  0  0  0  0  0  0  0  0  0  0  0
  141.3850   72.9182  226.5137 H   0  0  0  0  0  0  0  0  0  0  0  0
  141.9467   71.9201  228.7389 H   0  0  0  0  0  0  0  0  0  0  0  0
  141.2275   69.6456  229.2742 H   0  0  0  0  0  0  0  0  0  0  0  0
  139.9349   68.2506  227.6839 H   0  0  0  0  0  0  0  0  0  0  0  0
  138.2410   69.1979  222.1251 H   0  0  0  0  0  0  0  0  0  0  0  0
  138.5679   67.7660  223.2108 H   0  0  0  0  0  0  0  0  0  0  0  0
  136.4428   69.7661  225.4027 H   0  0  0  0  0  0  0  0  0  0  0  0
  133.8712   69.0525  225.0849 H   0  0  0  0  0  0  0  0  0  0  0  0
  135.9455   67.5164  221.7642 H   0  0  0  0  0  0  0  0  0  0  0  0
  136.8331   73.1718  224.5866 H   0  0  0  0  0  0  0  0  0  0  0  0
  1  2  3  0
  2  3  1  0
  3  4  2  0
  4  5  1  0
  5  6  2  0
  6  7  1  0
  7  8  1  0
  8  9  2  0
  9 10  1  0
 10 11  2  0
 11 12  1  0
 12 13  2  0
 13 14  1  0
 14 15  2  0
 15 16  1  0
 16 17  2  0
 17 18  1  0
 18 19  2  0
 18 20  1  0
 20 21  1  0
 21 22  1  0
 22 23  1  0
 23 24  2  0
 24 25  1  0
 25 26  1  0
  7 27  2  0
 27  3  1  0
 20 10  1  0
 26 22  2  0
 17 12  1  0
  4 28  1  0
  5 29  1  0
  6 30  1  0
  8 31  1  0
  9 32  1  0
 13 33  1  0
 14 34  1  0
 15 35  1  0
 16 36  1  0
 21 37  1  0
 21 38  1  0
 23 39  1  0
 24 40  1  0
 26 41  1  0
 27 42  1  0
M  END
>  <smiles>  (46) 
N#Cc1cccc(/C=C/c2nc3ccccc3c(=O)n2Cc2ccoc2)c1

>  <score_type>  (46) 
oracle

>  <origin>  (46) 
autodockgpu

>  <m_score__min__energy>  (46) 
-8.9199999999999999

>  <m_primary>  (46) 
energy

>  <rmsd>  (46) 
12.134539957602229

>  <m_score__min__rmsd>  (46) 
12.134539957602229

>  <meeko>  (46) 
{"free_energy": -6.61, "intermolecular_energy": -8.4, "internal_energy": -1.98, "cluster_size": 6, "cluster_id": 3, "rank_in_cluster": 5}

>  <energy>  (46) 
-6.64

>  <cluster_rmsd>  (46) 
0.94

>  <cluster>  (46) 
3

$$$$

     RDKit          3D

 42 45  0  0  0  0  0  0  0  0999 V2000
  141.0480   68.5180  228.4740 N   0  0  0  0  0  0  0  0  0  0  0  0
  140.6520   68.7930  227.4170 C   0  0  0  0  0  0  0  0  0  0  0  0
  140.1570   69.1410  226.1250 C   0  0  0  0  0  0  0  0  0  0  0  0
  139.3040   68.2640  225.5040 C   0  0  0  0  0  0  0  0  0  0  0  0
  138.8010   68.5620  224.2490 C   0  0  0  0  0  0  0  0  0  0  0  0
  139.1780   69.7610  223.6430 C   0  0  0  0  0  0  0  0  0  0  0  0
  140.0310   70.6570  224.2450 C   0  0  0  0  0  0  0  0  0  0  0  0
  140.4210   71.8890  223.6270 C   0  0  0  0  0  0  0  0  0  0  0  0
  140.7220   72.0420  222.3460 C   0  0  0  0  0  0  0  0  0  0  0  0
  141.0040   73.3900  221.8040 C   0  0  0  0  0  0  0  0  0  0  0  0
  140.3240   74.4540  222.2920 N   0  0  0  0  0  0  0  0  0  0  0  0
  140.5250   75.7210  221.8490 C   0  0  0  0  0  0  0  0  0  0  0  0
  139.8160   76.7830  222.3670 C   0  0  0  0  0  0  0  0  0  0  0  0
  140.0860   78.0370  221.8580 C   0  0  0  0  0  0  0  0  0  0  0  0
  141.0320   78.1850  220.8720 C   0  0  0  0  0  0  0  0  0  0  0  0
  141.7530   77.1360  220.3400 C   0  0  0  0  0  0  0  0  0  0  0  0
  141.4760   75.8660  220.8590 C   0  0  0  0  0  0  0  0  0  0  0  0
  142.1610   74.7740  220.3710 C   0  0  0  0  0  0  0  0  0  0  0  0
  143.0220   74.9280  219.4690 O   0  0  0  0  0  0  0  0  0  0  0  0
  141.9330   73.5110  220.8400 N   0  0  0  0  0  0  0  0  0  0  0  0
  142.6800   72.4360  220.2860 C   0  0  0  0  0  0  0  0  0  0  0  0
  144.1440   72.6800  220.2700 C   0  0  0  0  0  0  0  0  0  0  0  0
  144.9500   73.2850  221.2100 C   0  0  0  0  0  0  0  0  0  0  0  0
  146.2430   73.2500  220.6960 C   0  0  0  0  0  0  0  0  0  0  0  0
  146.2320   72.6650  219.5220 O   0  0  0  0  0  0  0  0  0  0  0  0
  145.0040   72.3140  219.2380 C   0  0  0  0  0  0  0  0  0  0  0  0
  140.5090   70.3190  225.4940 C   0  0  0  0  0  0  0  0  0  0  0  0
  139.0202   67.3254  226.0025 H   0  0  0  0  0  0  0  0  0  0  0  0
  138.1174   67.8670  223.7395 H   0  0  0  0  0  0  0  0  0  0  0  0
  138.7781   69.9988  222.6463 H   0  0  0  0  0  0  0  0  0  0  0  0
  140.4750   72.7809  224.2685 H   0  0  0  0  0  0  0  0  0  0  0  0
  140.7624   71.1649  221.6834 H   0  0  0  0  0  0  0  0  0  0  0  0
  139.0636   76.6368  223.1560 H   0  0  0  0  0  0  0  0  0  0  0  0
  139.5457   78.9156  222.2403 H   0  0  0  0  0  0  0  0  0  0  0  0
  141.2251   79.1966  220.4854 H   0  0  0  0  0  0  0  0  0  0  0  0
  142.5043   77.2893  219.5513 H   0  0  0  0  0  0  0  0  0  0  0  0
  142.4839   71.5322  220.8816 H   0  0  0  0  0  0  0  0  0  0  0  0
  142.3588   72.3235  219.2400 H   0  0  0  0  0  0  0  0  0  0  0  0
  144.6345   73.7106  222.1740 H   0  0  0  0  0  0  0  0  0  0  0  0
  147.1364   73.6511  221.1970 H   0  0  0  0  0  0  0  0  0  0  0  0
  144.6948   71.8022  218.3147 H   0  0  0  0  0  0  0  0  0  0  0  0
  141.1941   71.0111  226.0055 H   0  0  0  0  0  0  0  0  0  0  0  0
  1  2  3  0
  2  3  1  0
  3  4  2  0
  4  5  1  0
  5  6  2  0
  6  7  1  0
  7  8  1  0
  8  9  2  0
  9 10  1  0
 10 11  2  0
 11 12  1  0
 12 13  2  0
 13 14  1  0
 14 15  2  0
 15 16  1  0
 16 17  2  0
 17 18  1  0
 18 19  2  0
 18 20  1  0
 20 21  1  0
 21 22  1  0
 22 23  1  0
 23 24  2  0
 24 25  1  0
 25 26  1  0
  7 27  2  0
 27  3  1  0
 20 10  1  0
 26 22  2  0
 17 12  1  0
  4 28  1  0
  5 29  1  0
  6 30  1  0
  8 31  1  0
  9 32  1  0
 13 33  1  0
 14 34  1  0
 15 35  1  0
 16 36  1  0
 21 37  1  0
 21 38  1  0
 23 39  1  0
 24 40  1  0
 26 41  1  0
 27 42  1  0
M  END
>  <smiles>  (47) 
N#Cc1cccc(/C=C/c2nc3ccccc3c(=O)n2Cc2ccoc2)c1

>  <score_type>  (47) 
oracle

>  <origin>  (47) 
autodockgpu

>  <m_score__min__energy>  (47) 
-8.9199999999999999

>  <m_primary>  (47) 
energy

>  <rmsd>  (47) 
7.382399748602164

>  <m_score__min__rmsd>  (47) 
7.382399748602164

>  <meeko>  (47) 
{"free_energy": -8.23, "intermolecular_energy": -10.02, "internal_energy": -0.67, "cluster_size": 26, "cluster_id": 1, "rank_in_cluster": 19}

>  <energy>  (47) 
-6.61

>  <cluster_rmsd>  (47) 
0.93

>  <cluster>  (47) 
3

$$$$

     RDKit          3D

 42 45  0  0  0  0  0  0  0  0999 V2000
  141.4710   71.8730  228.4390 N   0  0  0  0  0  0  0  0  0  0  0  0
  141.0310   71.4040  227.4710 C   0  0  0  0  0  0  0  0  0  0  0  0
  140.4850   70.8420  226.2790 C   0  0  0  0  0  0  0  0  0  0  0  0
  140.0200   69.5510  226.3290 C   0  0  0  0  0  0  0  0  0  0  0  0
  139.4840   68.9660  225.1950 C   0  0  0  0  0  0  0  0  0  0  0  0
  139.4270   69.7120  224.0180 C   0  0  0  0  0  0  0  0  0  0  0  0
  139.8850   71.0070  223.9420 C   0  0  0  0  0  0  0  0  0  0  0  0
  139.8290   71.7780  222.7360 C   0  0  0  0  0  0  0  0  0  0  0  0
  140.8680   72.0930  221.9790 C   0  0  0  0  0  0  0  0  0  0  0  0
  141.1020   73.4990  221.5800 C   0  0  0  0  0  0  0  0  0  0  0  0
  140.3950   74.4830  222.1860 N   0  0  0  0  0  0  0  0  0  0  0  0
  140.5510   75.7960  221.8780 C   0  0  0  0  0  0  0  0  0  0  0  0
  139.8160   76.7730  222.5130 C   0  0  0  0  0  0  0  0  0  0  0  0
  140.0400   78.0820  222.1380 C   0  0  0  0  0  0  0  0  0  0  0  0
  140.9690   78.3650  221.1650 C   0  0  0  0  0  0  0  0  0  0  0  0
  141.7150   77.4020  220.5170 C   0  0  0  0  0  0  0  0  0  0  0  0
  141.4840   76.0760  220.9010 C   0  0  0  0  0  0  0  0  0  0  0  0
  142.1970   75.0640  220.2930 C   0  0  0  0  0  0  0  0  0  0  0  0
  143.0420   75.3410  219.4050 O   0  0  0  0  0  0  0  0  0  0  0  0
  142.0150   73.7520  220.6260 N   0  0  0  0  0  0  0  0  0  0  0  0
  142.7870   72.7670  219.9540 C   0  0  0  0  0  0  0  0  0  0  0  0
  144.2520   72.9660  220.0960 C   0  0  0  0  0  0  0  0  0  0  0  0
  144.9840   73.3990  221.1810 C   0  0  0  0  0  0  0  0  0  0  0  0
  146.3160   73.4020  220.7750 C   0  0  0  0  0  0  0  0  0  0  0  0
  146.3960   72.9990  219.5300 O   0  0  0  0  0  0  0  0  0  0  0  0
  145.1910   72.7320  219.0950 C   0  0  0  0  0  0  0  0  0  0  0  0
  140.4120   71.5500  225.0950 C   0  0  0  0  0  0  0  0  0  0  0  0
  140.0734   68.9824  227.2691 H   0  0  0  0  0  0  0  0  0  0  0  0
  139.1099   67.9319  225.2215 H   0  0  0  0  0  0  0  0  0  0  0  0
  138.9999   69.2476  223.1169 H   0  0  0  0  0  0  0  0  0  0  0  0
  138.8412   72.1379  222.4124 H   0  0  0  0  0  0  0  0  0  0  0  0
  141.5606   71.3065  221.6449 H   0  0  0  0  0  0  0  0  0  0  0  0
  139.0789   76.5194  223.2891 H   0  0  0  0  0  0  0  0  0  0  0  0
  139.4767   78.8968  222.6164 H   0  0  0  0  0  0  0  0  0  0  0  0
  141.1264   79.4178  220.8876 H   0  0  0  0  0  0  0  0  0  0  0  0
  142.4506   77.6620  219.7415 H   0  0  0  0  0  0  0  0  0  0  0  0
  142.5278   71.7804  220.3657 H   0  0  0  0  0  0  0  0  0  0  0  0
  142.5515   72.8459  218.8824 H   0  0  0  0  0  0  0  0  0  0  0  0
  144.5941   73.6848  222.1691 H   0  0  0  0  0  0  0  0  0  0  0  0
  147.1699   73.6972  221.4025 H   0  0  0  0  0  0  0  0  0  0  0  0
  144.9537   72.3736  218.0824 H   0  0  0  0  0  0  0  0  0  0  0  0
  140.7876   72.5836  225.0710 H   0  0  0  0  0  0  0  0  0  0  0  0
  1  2  3  0
  2  3  1  0
  3  4  2  0
  4  5  1  0
  5  6  2  0
  6  7  1  0
  7  8  1  0
  8  9  2  0
  9 10  1  0
 10 11  2  0
 11 12  1  0
 12 13  2  0
 13 14  1  0
 14 15  2  0
 15 16  1  0
 16 17  2  0
 17 18  1  0
 18 19  2  0
 18 20  1  0
 20 21  1  0
 21 22  1  0
 22 23  1  0
 23 24  2  0
 24 25  1  0
 25 26  1  0
  7 27  2  0
 27  3  1  0
 20 10  1  0
 26 22  2  0
 17 12  1  0
  4 28  1  0
  5 29  1  0
  6 30  1  0
  8 31  1  0
  9 32  1  0
 13 33  1  0
 14 34  1  0
 15 35  1  0
 16 36  1  0
 21 37  1  0
 21 38  1  0
 23 39  1  0
 24 40  1  0
 26 41  1  0
 27 42  1  0
M  END
>  <smiles>  (48) 
N#Cc1cccc(/C=C/c2nc3ccccc3c(=O)n2Cc2ccoc2)c1

>  <score_type>  (48) 
oracle

>  <origin>  (48) 
autodockgpu

>  <m_score__min__energy>  (48) 
-8.9199999999999999

>  <m_primary>  (48) 
energy

>  <rmsd>  (48) 
7.323612392527259

>  <m_score__min__rmsd>  (48) 
7.323612392527259

>  <meeko>  (48) 
{"free_energy": -8.6, "intermolecular_energy": -10.39, "internal_energy": -0.87, "cluster_size": 26, "cluster_id": 1, "rank_in_cluster": 7}

>  <energy>  (48) 
-6.6

>  <cluster_rmsd>  (48) 
0.9

>  <cluster>  (48) 
3

$$$$

     RDKit          3D

 42 45  0  0  0  0  0  0  0  0999 V2000
  141.5170   72.2530  227.9690 N   0  0  0  0  0  0  0  0  0  0  0  0
  141.0550   71.7470  227.0310 C   0  0  0  0  0  0  0  0  0  0  0  0
  140.4960   71.1330  225.8700 C   0  0  0  0  0  0  0  0  0  0  0  0
  140.0100   69.8550  225.9880 C   0  0  0  0  0  0  0  0  0  0  0  0
  139.4610   69.2220  224.8870 C   0  0  0  0  0  0  0  0  0  0  0  0
  139.4120   69.9070  223.6730 C   0  0  0  0  0  0  0  0  0  0  0  0
  139.8920   71.1890  223.5290 C   0  0  0  0  0  0  0  0  0  0  0  0
  139.8440   71.8980  222.2850 C   0  0  0  0  0  0  0  0  0  0  0  0
  140.8980   72.2790  221.5800 C   0  0  0  0  0  0  0  0  0  0  0  0
  141.1300   73.7140  221.3040 C   0  0  0  0  0  0  0  0  0  0  0  0
  140.4610   74.6430  222.0280 N   0  0  0  0  0  0  0  0  0  0  0  0
  140.6190   75.9780  221.8370 C   0  0  0  0  0  0  0  0  0  0  0  0
  139.9220   76.8970  222.5900 C   0  0  0  0  0  0  0  0  0  0  0  0
  140.1460   78.2330  222.3290 C   0  0  0  0  0  0  0  0  0  0  0  0
  141.0360   78.5980  221.3480 C   0  0  0  0  0  0  0  0  0  0  0  0
  141.7440   77.6940  220.5820 C   0  0  0  0  0  0  0  0  0  0  0  0
  141.5140   76.3400  220.8510 C   0  0  0  0  0  0  0  0  0  0  0  0
  142.1890   75.3840  220.1220 C   0  0  0  0  0  0  0  0  0  0  0  0
  142.9990   75.7360  219.2290 O   0  0  0  0  0  0  0  0  0  0  0  0
  142.0060   74.0480  220.3400 N   0  0  0  0  0  0  0  0  0  0  0  0
  142.7380   73.1240  219.5470 C   0  0  0  0  0  0  0  0  0  0  0  0
  144.2040   73.1800  219.7760 C   0  0  0  0  0  0  0  0  0  0  0  0
  144.9120   73.6650  220.8550 C   0  0  0  0  0  0  0  0  0  0  0  0
  146.2590   73.4740  220.5550 C   0  0  0  0  0  0  0  0  0  0  0  0
  146.3690   72.9120  219.3760 O   0  0  0  0  0  0  0  0  0  0  0  0
  145.1710   72.7230  218.8850 C   0  0  0  0  0  0  0  0  0  0  0  0
  140.4310   71.7820  224.6520 C   0  0  0  0  0  0  0  0  0  0  0  0
  140.0568   69.3349  226.9561 H   0  0  0  0  0  0  0  0  0  0  0  0
  139.0702   68.1969  224.9676 H   0  0  0  0  0  0  0  0  0  0  0  0
  138.9736   69.4042  222.7984 H   0  0  0  0  0  0  0  0  0  0  0  0
  138.8506   72.1460  221.8828 H   0  0  0  0  0  0  0  0  0  0  0  0
  141.6034   71.5263  221.1983 H   0  0  0  0  0  0  0  0  0  0  0  0
  139.2142   76.5780  223.3692 H   0  0  0  0  0  0  0  0  0  0  0  0
  139.6134   79.0041  222.9049 H   0  0  0  0  0  0  0  0  0  0  0  0
  141.1931   79.6708  221.1627 H   0  0  0  0  0  0  0  0  0  0  0  0
  142.4497   78.0197  219.8035 H   0  0  0  0  0  0  0  0  0  0  0  0
  142.3872   72.1084  219.7823 H   0  0  0  0  0  0  0  0  0  0  0  0
  142.5640   73.3913  218.4943 H   0  0  0  0  0  0  0  0  0  0  0  0
  144.4965   74.1131  221.7697 H   0  0  0  0  0  0  0  0  0  0  0  0
  147.1003   73.7519  221.2069 H   0  0  0  0  0  0  0  0  0  0  0  0
  144.9581   72.2675  217.9066 H   0  0  0  0  0  0  0  0  0  0  0  0
  140.8226   72.8070  224.5750 H   0  0  0  0  0  0  0  0  0  0  0  0
  1  2  3  0
  2  3  1  0
  3  4  2  0
  4  5  1  0
  5  6  2  0
  6  7  1  0
  7  8  1  0
  8  9  2  0
  9 10  1  0
 10 11  2  0
 11 12  1  0
 12 13  2  0
 13 14  1  0
 14 15  2  0
 15 16  1  0
 16 17  2  0
 17 18  1  0
 18 19  2  0
 18 20  1  0
 20 21  1  0
 21 22  1  0
 22 23  1  0
 23 24  2  0
 24 25  1  0
 25 26  1  0
  7 27  2  0
 27  3  1  0
 20 10  1  0
 26 22  2  0
 17 12  1  0
  4 28  1  0
  5 29  1  0
  6 30  1  0
  8 31  1  0
  9 32  1  0
 13 33  1  0
 14 34  1  0
 15 35  1  0
 16 36  1  0
 21 37  1  0
 21 38  1  0
 23 39  1  0
 24 40  1  0
 26 41  1  0
 27 42  1  0
M  END
>  <smiles>  (49) 
N#Cc1cccc(/C=C/c2nc3ccccc3c(=O)n2Cc2ccoc2)c1

>  <score_type>  (49) 
oracle

>  <origin>  (49) 
autodockgpu

>  <m_score__min__energy>  (49) 
-8.9199999999999999

>  <m_primary>  (49) 
energy

>  <rmsd>  (49) 
7.31379347473949

>  <m_score__min__rmsd>  (49) 
7.31379347473949

>  <meeko>  (49) 
{"free_energy": -8.44, "intermolecular_energy": -10.23, "internal_energy": -0.95, "cluster_size": 26, "cluster_id": 1, "rank_in_cluster": 13}

>  <energy>  (49) 
-7.14

>  <cluster_rmsd>  (49) 
0.0

>  <cluster>  (49) 
4

$$$$

     RDKit          3D

 42 45  0  0  0  0  0  0  0  0999 V2000
  134.2310   73.3950  226.1720 N   0  0  0  0  0  0  0  0  0  0  0  0
  134.6520   72.9660  225.1780 C   0  0  0  0  0  0  0  0  0  0  0  0
  135.1810   72.4350  223.9640 C   0  0  0  0  0  0  0  0  0  0  0  0
  134.3250   71.7660  223.1250 C   0  0  0  0  0  0  0  0  0  0  0  0
  134.7960   71.2350  221.9380 C   0  0  0  0  0  0  0  0  0  0  0  0
  136.1450   71.3950  221.6200 C   0  0  0  0  0  0  0  0  0  0  0  0
  137.0230   72.0610  222.4430 C   0  0  0  0  0  0  0  0  0  0  0  0
  138.4090   72.2290  222.1210 C   0  0  0  0  0  0  0  0  0  0  0  0
  139.3550   71.3210  222.3060 C   0  0  0  0  0  0  0  0  0  0  0  0
  139.5790   70.7420  223.6500 C   0  0  0  0  0  0  0  0  0  0  0  0
  140.1020   71.5220  224.6250 N   0  0  0  0  0  0  0  0  0  0  0  0
  140.3370   71.0680  225.8830 C   0  0  0  0  0  0  0  0  0  0  0  0
  140.8710   71.8870  226.8530 C   0  0  0  0  0  0  0  0  0  0  0  0
  141.0760   71.3420  228.1040 C   0  0  0  0  0  0  0  0  0  0  0  0
  140.7480   70.0280  228.3390 C   0  0  0  0  0  0  0  0  0  0  0  0
  140.2130   69.1910  227.3820 C   0  0  0  0  0  0  0  0  0  0  0  0
  140.0070   69.7480  226.1150 C   0  0  0  0  0  0  0  0  0  0  0  0
  139.4750   68.9660  225.1120 C   0  0  0  0  0  0  0  0  0  0  0  0
  139.1810   67.7660  225.3450 O   0  0  0  0  0  0  0  0  0  0  0  0
  139.2510   69.4550  223.8560 N   0  0  0  0  0  0  0  0  0  0  0  0
  138.7000   68.5860  222.8770 C   0  0  0  0  0  0  0  0  0  0  0  0
  137.2300   68.4160  222.9970 C   0  0  0  0  0  0  0  0  0  0  0  0
  136.3400   67.7830  222.1560 C   0  0  0  0  0  0  0  0  0  0  0  0
  135.0850   67.9180  222.7430 C   0  0  0  0  0  0  0  0  0  0  0  0
  135.1960   68.5860  223.8660 O   0  0  0  0  0  0  0  0  0  0  0  0
  136.4530   68.8980  224.0480 C   0  0  0  0  0  0  0  0  0  0  0  0
  136.5110   72.5750  223.6160 C   0  0  0  0  0  0  0  0  0  0  0  0
  133.2651   71.6523  223.3966 H   0  0  0  0  0  0  0  0  0  0  0  0
  134.1198   70.6967  221.2575 H   0  0  0  0  0  0  0  0  0  0  0  0
  136.5203   70.9729  220.6761 H   0  0  0  0  0  0  0  0  0  0  0  0
  138.7123   73.1918  221.6840 H   0  0  0  0  0  0  0  0  0  0  0  0
  139.9763   70.9960  221.4584 H   0  0  0  0  0  0  0  0  0  0  0  0
  141.1244   72.9357  226.6386 H   0  0  0  0  0  0  0  0  0  0  0  0
  141.5007   71.9573  228.9109 H   0  0  0  0  0  0  0  0  0  0  0  0
  140.9218   69.6214  229.3462 H   0  0  0  0  0  0  0  0  0  0  0  0
  139.9620   68.1430  227.6028 H   0  0  0  0  0  0  0  0  0  0  0  0
  138.9230   68.9971  221.8813 H   0  0  0  0  0  0  0  0  0  0  0  0
  139.1541   67.5959  223.0305 H   0  0  0  0  0  0  0  0  0  0  0  0
  136.5746   67.2730  221.2100 H   0  0  0  0  0  0  0  0  0  0  0  0
  134.1449   67.5249  222.3286 H   0  0  0  0  0  0  0  0  0  0  0  0
  136.8417   69.4613  224.9092 H   0  0  0  0  0  0  0  0  0  0  0  0
  137.1845   73.1149  224.2979 H   0  0  0  0  0  0  0  0  0  0  0  0
  1  2  3  0
  2  3  1  0
  3  4  2  0
  4  5  1  0
  5  6  2  0
  6  7  1  0
  7  8  1  0
  8  9  2  0
  9 10  1  0
 10 11  2  0
 11 12  1  0
 12 13  2  0
 13 14  1  0
 14 15  2  0
 15 16  1  0
 16 17  2  0
 17 18  1  0
 18 19  2  0
 18 20  1  0
 20 21  1  0
 21 22  1  0
 22 23  1  0
 23 24  2  0
 24 25  1  0
 25 26  1  0
  7 27  2  0
 27  3  1  0
 20 10  1  0
 26 22  2  0
 17 12  1  0
  4 28  1  0
  5 29  1  0
  6 30  1  0
  8 31  1  0
  9 32  1  0
 13 33  1  0
 14 34  1  0
 15 35  1  0
 16 36  1  0
 21 37  1  0
 21 38  1  0
 23 39  1  0
 24 40  1  0
 26 41  1  0
 27 42  1  0
M  END
>  <smiles>  (50) 
N#Cc1cccc(/C=C/c2nc3ccccc3c(=O)n2Cc2ccoc2)c1

>  <score_type>  (50) 
oracle

>  <origin>  (50) 
autodockgpu

>  <m_score__min__energy>  (50) 
-8.9199999999999999

>  <m_primary>  (50) 
energy

>  <rmsd>  (50) 
12.207676765340931

>  <m_score__min__rmsd>  (50) 
12.207676765340931

>  <meeko>  (50) 
{"free_energy": -6.6, "intermolecular_energy": -8.39, "internal_energy": -1.95, "cluster_size": 6, "cluster_id": 3, "rank_in_cluster": 6}

>  <energy>  (50) 
-6.96

>  <cluster_rmsd>  (50) 
0.0

>  <cluster>  (50) 
5

$$$$
