
     RDKit          3D

 66 69  0  0  0  0  0  0  0  0999 V2000
  137.6070   80.5140  223.6650 C   0  0  0  0  0  0  0  0  0  0  0  0
  137.4740   80.9600  222.1940 C   0  0  0  0  0  0  0  0  0  0  0  0
  138.8100   80.8330  221.6120 C   0  0  0  0  0  0  0  0  0  0  0  0
  139.1890   81.7810  220.8380 O   0  0  0  0  0  0  0  0  0  0  0  0
  139.7380   79.7910  221.8000 N   0  0  0  0  0  0  0  0  0  0  0  0
  140.9400   80.1610  222.5280 C   0  0  0  0  0  0  0  0  0  0  0  0
  142.1420   79.5600  222.2050 C   0  0  0  0  0  0  0  0  0  0  0  0
  143.3260   79.8550  222.8490 C   0  0  0  0  0  0  0  0  0  0  0  0
  143.2880   80.7970  223.8590 C   0  0  0  0  0  0  0  0  0  0  0  0
  142.0960   81.3960  224.1830 C   0  0  0  0  0  0  0  0  0  0  0  0
  140.9010   81.0980  223.5330 C   0  0  0  0  0  0  0  0  0  0  0  0
  139.6430   78.4420  221.3570 C   0  0  0  0  0  0  0  0  0  0  0  0
  140.6210   78.0270  220.2970 C   0  0  0  0  0  0  0  0  0  0  0  0
  140.2010   76.6050  219.8760 C   0  0  0  0  0  0  0  0  0  0  0  0
  140.5370   75.7780  221.0440 N   0  0  0  0  0  0  0  0  0  0  0  0
  140.5970   74.3920  220.8410 C   0  0  0  0  0  0  0  0  0  0  0  0
  140.3630   73.9490  219.6900 O   0  0  0  0  0  0  0  0  0  0  0  0
  140.9210   73.3950  221.8940 C   0  0  2  0  0  0  0  0  0  0  0  0
  141.6330   72.2410  221.2750 C   0  0  0  0  0  0  0  0  0  0  0  0
  139.6610   73.0290  222.4990 N   0  0  0  0  0  0  0  0  0  0  0  0
  139.4010   71.6050  222.4800 C   0  0  0  0  0  0  0  0  0  0  0  0
  139.8370   71.1220  223.8410 C   0  0  0  0  0  0  0  0  0  0  0  0
  140.6790   71.9020  224.6100 C   0  0  0  0  0  0  0  0  0  0  0  0
  141.0840   71.4610  225.8680 C   0  0  0  0  0  0  0  0  0  0  0  0
  140.6340   70.2450  226.3270 C   0  0  0  0  0  0  0  0  0  0  0  0
  141.0540   69.8270  227.5870 C   0  0  0  0  0  0  0  0  0  0  0  0
  140.6120   68.5960  228.0750 C   0  0  0  0  0  0  0  0  0  0  0  0
  139.7720   67.8330  227.2910 C   0  0  0  0  0  0  0  0  0  0  0  0
  139.3570   68.2560  226.0350 C   0  0  0  0  0  0  0  0  0  0  0  0
  139.7920   69.4770  225.5440 C   0  0  0  0  0  0  0  0  0  0  0  0
  139.3790   69.9000  224.2910 C   0  0  0  0  0  0  0  0  0  0  0  0
  140.7810   76.4380  222.3150 C   0  0  0  0  0  0  0  0  0  0  0  0
  139.7400   77.5120  222.5520 C   0  0  0  0  0  0  0  0  0  0  0  0
  137.3560   81.3556  224.3274 H   0  0  0  0  0  0  0  0  0  0  0  0
  136.9192   79.6776  223.8582 H   0  0  0  0  0  0  0  0  0  0  0  0
  138.6406   80.1909  223.8582 H   0  0  0  0  0  0  0  0  0  0  0  0
  136.7619   80.3127  221.6612 H   0  0  0  0  0  0  0  0  0  0  0  0
  137.0976   81.9908  222.1179 H   0  0  0  0  0  0  0  0  0  0  0  0
  142.1553   78.8127  221.3980 H   0  0  0  0  0  0  0  0  0  0  0  0
  144.2664   79.3581  222.5684 H   0  0  0  0  0  0  0  0  0  0  0  0
  144.2073   81.0654  224.4002 H   0  0  0  0  0  0  0  0  0  0  0  0
  142.0843   82.1431  224.9903 H   0  0  0  0  0  0  0  0  0  0  0  0
  139.9603   81.5943  223.8136 H   0  0  0  0  0  0  0  0  0  0  0  0
  138.6620   78.3686  220.8648 H   0  0  0  0  0  0  0  0  0  0  0  0
  140.5694   78.7123  219.4381 H   0  0  0  0  0  0  0  0  0  0  0  0
  141.6564   78.0516  220.6677 H   0  0  0  0  0  0  0  0  0  0  0  0
  139.1227   76.5621  219.6630 H   0  0  0  0  0  0  0  0  0  0  0  0
  140.7044   76.2678  218.9579 H   0  0  0  0  0  0  0  0  0  0  0  0
  141.5949   73.7873  222.6699 H   0  0  0  0  0  0  0  0  0  0  0  0
  142.0343   71.5906  222.0662 H   0  0  0  0  0  0  0  0  0  0  0  0
  140.9307   71.6688  220.6510 H   0  0  0  0  0  0  0  0  0  0  0  0
  142.4594   72.6120  220.6510 H   0  0  0  0  0  0  0  0  0  0  0  0
  139.5990   73.4350  223.4350 H   0  0  0  0  0  0  0  0  0  0  0  0
  138.3305   71.4075  222.3221 H   0  0  0  0  0  0  0  0  0  0  0  0
  139.9340   71.0938  221.6648 H   0  0  0  0  0  0  0  0  0  0  0  0
  141.0300   72.8722  224.2286 H   0  0  0  0  0  0  0  0  0  0  0  0
  141.7544   72.0768  226.4856 H   0  0  0  0  0  0  0  0  0  0  0  0
  141.7245   70.4577  228.1893 H   0  0  0  0  0  0  0  0  0  0  0  0
  140.9280   68.2409  229.0670 H   0  0  0  0  0  0  0  0  0  0  0  0
  139.4210   66.8623  227.6712 H   0  0  0  0  0  0  0  0  0  0  0  0
  138.6865   67.6252  225.4329 H   0  0  0  0  0  0  0  0  0  0  0  0
  138.7084   69.2826  223.6752 H   0  0  0  0  0  0  0  0  0  0  0  0
  140.7297   75.6964  223.1258 H   0  0  0  0  0  0  0  0  0  0  0  0
  141.7783   76.9016  222.2943 H   0  0  0  0  0  0  0  0  0  0  0  0
  138.7624   77.0361  222.7188 H   0  0  0  0  0  0  0  0  0  0  0  0
  140.0350   78.1003  223.4334 H   0  0  0  0  0  0  0  0  0  0  0  0
  1  2  1  0
  2  3  1  0
  3  4  2  0
  3  5  1  0
  5  6  1  0
  6  7  2  0
  7  8  1  0
  8  9  2  0
  9 10  1  0
 10 11  2  0
  5 12  1  0
 12 13  1  0
 13 14  1  0
 14 15  1  0
 15 16  1  0
 16 17  2  0
 16 18  1  0
 18 19  1  0
 18 20  1  0
 20 21  1  0
 21 22  1  0
 22 23  2  0
 23 24  1  0
 24 25  2  0
 25 26  1  0
 26 27  2  0
 27 28  1  0
 28 29  2  0
 29 30  1  0
 30 31  2  0
 15 32  1  0
 32 33  1  0
 11  6  1  0
 33 12  1  0
 31 22  1  0
 30 25  1  0
  1 34  1  0
  1 35  1  0
  1 36  1  0
  2 37  1  0
  2 38  1  0
  7 39  1  0
  8 40  1  0
  9 41  1  0
 10 42  1  0
 11 43  1  0
 12 44  1  0
 13 45  1  0
 13 46  1  0
 14 47  1  0
 14 48  1  0
 18 49  1  1
 19 50  1  0
 19 51  1  0
 19 52  1  0
 20 53  1  0
 21 54  1  0
 21 55  1  0
 23 56  1  0
 24 57  1  0
 26 58  1  0
 27 59  1  0
 28 60  1  0
 29 61  1  0
 31 62  1  0
 32 63  1  0
 32 64  1  0
 33 65  1  0
 33 66  1  0
M  END
>  <smiles>  (1) 
CCC(=O)N(c1ccccc1)C1CCN(C(=O)[C@H](C)NCc2ccc3ccccc3c2)CC1

>  <score_type>  (1) 
oracle

>  <origin>  (1) 
autodockgpu

>  <m_score__min__energy>  (1) 
-9.3699999999999992

>  <m_primary>  (1) 
energy

>  <rmsd>  (1) 
8.053651104549752

>  <m_score__min__rmsd>  (1) 
8.053651104549752

>  <meeko>  (1) 
{"free_energy": -9.32, "intermolecular_energy": -11.7, "internal_energy": -1.37, "cluster_size": 36, "cluster_id": 1, "rank_in_cluster": 3}

>  <energy>  (1) 
-9.37

>  <cluster_rmsd>  (1) 
0.0

>  <cluster>  (1) 
1

$$$$

     RDKit          3D

 66 69  0  0  0  0  0  0  0  0999 V2000
  143.2990   80.5880  223.8460 C   0  0  0  0  0  0  0  0  0  0  0  0
  142.1730   81.6410  223.9040 C   0  0  0  0  0  0  0  0  0  0  0  0
  141.6360   81.7330  222.5460 C   0  0  0  0  0  0  0  0  0  0  0  0
  141.6170   82.8990  222.0170 O   0  0  0  0  0  0  0  0  0  0  0  0
  141.1350   80.6900  221.7440 N   0  0  0  0  0  0  0  0  0  0  0  0
  141.1870   80.9360  220.3130 C   0  0  0  0  0  0  0  0  0  0  0  0
  140.2090   81.7140  219.7210 C   0  0  0  0  0  0  0  0  0  0  0  0
  140.1860   81.9930  218.3710 C   0  0  0  0  0  0  0  0  0  0  0  0
  141.1970   81.4650  217.5910 C   0  0  0  0  0  0  0  0  0  0  0  0
  142.1700   80.6920  218.1740 C   0  0  0  0  0  0  0  0  0  0  0  0
  142.1920   80.4090  219.5370 C   0  0  0  0  0  0  0  0  0  0  0  0
  140.5810   79.4480  222.1640 C   0  0  0  0  0  0  0  0  0  0  0  0
  139.2080   79.1320  221.6480 C   0  0  0  0  0  0  0  0  0  0  0  0
  138.7770   77.8440  222.3770 C   0  0  0  0  0  0  0  0  0  0  0  0
  139.6440   76.8070  221.8010 N   0  0  0  0  0  0  0  0  0  0  0  0
  139.2570   75.4730  222.0040 C   0  0  0  0  0  0  0  0  0  0  0  0
  138.2080   75.2530  222.6560 O   0  0  0  0  0  0  0  0  0  0  0  0
  140.0000   74.2900  221.5000 C   0  0  2  0  0  0  0  0  0  0  0  0
  139.6640   74.0740  220.0650 C   0  0  0  0  0  0  0  0  0  0  0  0
  139.6130   73.1850  222.3480 N   0  0  0  0  0  0  0  0  0  0  0  0
  140.5570   72.0860  222.3330 C   0  0  0  0  0  0  0  0  0  0  0  0
  140.2870   71.3380  223.6150 C   0  0  0  0  0  0  0  0  0  0  0  0
  139.5800   70.1520  223.5830 C   0  0  0  0  0  0  0  0  0  0  0  0
  139.3280   69.4570  224.7640 C   0  0  0  0  0  0  0  0  0  0  0  0
  139.7920   69.9680  225.9520 C   0  0  0  0  0  0  0  0  0  0  0  0
  139.5260   69.2550  227.1180 C   0  0  0  0  0  0  0  0  0  0  0  0
  139.9870   69.7540  228.3380 C   0  0  0  0  0  0  0  0  0  0  0  0
  140.6910   70.9410  228.3480 C   0  0  0  0  0  0  0  0  0  0  0  0
  140.9520   71.6470  227.1810 C   0  0  0  0  0  0  0  0  0  0  0  0
  140.4980   71.1570  225.9670 C   0  0  0  0  0  0  0  0  0  0  0  0
  140.7570   71.8620  224.8030 C   0  0  0  0  0  0  0  0  0  0  0  0
  140.8300   77.2190  221.0710 C   0  0  0  0  0  0  0  0  0  0  0  0
  141.5430   78.3270  221.8190 C   0  0  0  0  0  0  0  0  0  0  0  0
  143.5951   80.3111  224.8686 H   0  0  0  0  0  0  0  0  0  0  0  0
  142.9389   79.6951  223.3140 H   0  0  0  0  0  0  0  0  0  0  0  0
  144.1658   81.0070  223.3140 H   0  0  0  0  0  0  0  0  0  0  0  0
  141.3874   81.3222  224.6048 H   0  0  0  0  0  0  0  0  0  0  0  0
  142.5486   82.6134  224.2553 H   0  0  0  0  0  0  0  0  0  0  0  0
  139.4128   82.1293  220.3563 H   0  0  0  0  0  0  0  0  0  0  0  0
  139.3915   82.6135  217.9308 H   0  0  0  0  0  0  0  0  0  0  0  0
  141.2220   81.6630  216.5093 H   0  0  0  0  0  0  0  0  0  0  0  0
  142.9661   80.2786  217.5373 H   0  0  0  0  0  0  0  0  0  0  0  0
  142.9848   79.7863  219.9770 H   0  0  0  0  0  0  0  0  0  0  0  0
  140.4451   79.5446  223.2513 H   0  0  0  0  0  0  0  0  0  0  0  0
  138.5133   79.9536  221.8770 H   0  0  0  0  0  0  0  0  0  0  0  0
  139.2038   79.0021  220.5557 H   0  0  0  0  0  0  0  0  0  0  0  0
  138.9410   77.9339  223.4610 H   0  0  0  0  0  0  0  0  0  0  0  0
  137.7071   77.6219  222.2505 H   0  0  0  0  0  0  0  0  0  0  0  0
  141.0922   74.4140  221.5411 H   0  0  0  0  0  0  0  0  0  0  0  0
  138.7409   73.4805  219.9899 H   0  0  0  0  0  0  0  0  0  0  0  0
  139.5158   75.0465  219.5727 H   0  0  0  0  0  0  0  0  0  0  0  0
  140.4872   73.5355  219.5727 H   0  0  0  0  0  0  0  0  0  0  0  0
  139.4120   73.5280  223.2890 H   0  0  0  0  0  0  0  0  0  0  0  0
  140.3851   71.4377  221.4611 H   0  0  0  0  0  0  0  0  0  0  0  0
  141.5991   72.4309  222.2617 H   0  0  0  0  0  0  0  0  0  0  0  0
  139.2154   69.7556  222.6239 H   0  0  0  0  0  0  0  0  0  0  0  0
  138.7652   68.5120  224.7455 H   0  0  0  0  0  0  0  0  0  0  0  0
  138.9608   68.3121  227.0787 H   0  0  0  0  0  0  0  0  0  0  0  0
  139.7925   69.2106  229.2744 H   0  0  0  0  0  0  0  0  0  0  0  0
  141.0554   71.3388  229.3067 H   0  0  0  0  0  0  0  0  0  0  0  0
  141.5163   72.5904  227.2201 H   0  0  0  0  0  0  0  0  0  0  0  0
  141.3184   72.8077  224.8243 H   0  0  0  0  0  0  0  0  0  0  0  0
  141.5073   76.3591  220.9622 H   0  0  0  0  0  0  0  0  0  0  0  0
  140.5318   77.5884  220.0787 H   0  0  0  0  0  0  0  0  0  0  0  0
  141.9697   77.9192  222.7472 H   0  0  0  0  0  0  0  0  0  0  0  0
  142.3398   78.7306  221.1770 H   0  0  0  0  0  0  0  0  0  0  0  0
  1  2  1  0
  2  3  1  0
  3  4  2  0
  3  5  1  0
  5  6  1  0
  6  7  2  0
  7  8  1  0
  8  9  2  0
  9 10  1  0
 10 11  2  0
  5 12  1  0
 12 13  1  0
 13 14  1  0
 14 15  1  0
 15 16  1  0
 16 17  2  0
 16 18  1  0
 18 19  1  0
 18 20  1  0
 20 21  1  0
 21 22  1  0
 22 23  2  0
 23 24  1  0
 24 25  2  0
 25 26  1  0
 26 27  2  0
 27 28  1  0
 28 29  2  0
 29 30  1  0
 30 31  2  0
 15 32  1  0
 32 33  1  0
 11  6  1  0
 33 12  1  0
 31 22  1  0
 30 25  1  0
  1 34  1  0
  1 35  1  0
  1 36  1  0
  2 37  1  0
  2 38  1  0
  7 39  1  0
  8 40  1  0
  9 41  1  0
 10 42  1  0
 11 43  1  0
 12 44  1  0
 13 45  1  0
 13 46  1  0
 14 47  1  0
 14 48  1  0
 18 49  1  6
 19 50  1  0
 19 51  1  0
 19 52  1  0
 20 53  1  0
 21 54  1  0
 21 55  1  0
 23 56  1  0
 24 57  1  0
 26 58  1  0
 27 59  1  0
 28 60  1  0
 29 61  1  0
 31 62  1  0
 32 63  1  0
 32 64  1  0
 33 65  1  0
 33 66  1  0
M  END
>  <smiles>  (2) 
CCC(=O)N(c1ccccc1)C1CCN(C(=O)[C@H](C)NCc2ccc3ccccc3c2)CC1

>  <score_type>  (2) 
oracle

>  <origin>  (2) 
autodockgpu

>  <m_score__min__energy>  (2) 
-9.3699999999999992

>  <m_primary>  (2) 
energy

>  <rmsd>  (2) 
8.850847470437948

>  <m_score__min__rmsd>  (2) 
8.850847470437948

>  <meeko>  (2) 
{"free_energy": -8.99, "intermolecular_energy": -11.38, "internal_energy": -2.23, "cluster_size": 4, "cluster_id": 3, "rank_in_cluster": 3}

>  <energy>  (2) 
-9.37

>  <cluster_rmsd>  (2) 
0.46

>  <cluster>  (2) 
1

$$$$

     RDKit          3D

 66 69  0  0  0  0  0  0  0  0999 V2000
  140.2910   79.7730  219.1620 C   0  0  0  0  0  0  0  0  0  0  0  0
  141.7490   79.2690  219.1390 C   0  0  0  0  0  0  0  0  0  0  0  0
  141.8350   78.2360  220.1710 C   0  0  0  0  0  0  0  0  0  0  0  0
  142.5800   77.2270  219.9100 O   0  0  0  0  0  0  0  0  0  0  0  0
  141.1950   78.2130  221.4250 N   0  0  0  0  0  0  0  0  0  0  0  0
  141.5240   79.3230  222.3030 C   0  0  0  0  0  0  0  0  0  0  0  0
  142.8300   79.4900  222.7270 C   0  0  0  0  0  0  0  0  0  0  0  0
  143.2230   80.5150  223.5600 C   0  0  0  0  0  0  0  0  0  0  0  0
  142.2550   81.4080  223.9790 C   0  0  0  0  0  0  0  0  0  0  0  0
  140.9570   81.2460  223.5600 C   0  0  0  0  0  0  0  0  0  0  0  0
  140.5600   80.2100  222.7200 C   0  0  0  0  0  0  0  0  0  0  0  0
  140.2870   77.2400  221.9290 C   0  0  0  0  0  0  0  0  0  0  0  0
  138.8490   77.4200  221.5430 C   0  0  0  0  0  0  0  0  0  0  0  0
  138.0670   76.3610  222.3450 C   0  0  0  0  0  0  0  0  0  0  0  0
  138.4660   75.0880  221.7290 N   0  0  0  0  0  0  0  0  0  0  0  0
  137.6610   73.9720  222.0050 C   0  0  0  0  0  0  0  0  0  0  0  0
  136.6650   74.1280  222.7510 O   0  0  0  0  0  0  0  0  0  0  0  0
  137.9000   72.6050  221.4750 C   0  0  2  0  0  0  0  0  0  0  0  0
  136.6950   72.1530  220.7240 C   0  0  0  0  0  0  0  0  0  0  0  0
  138.2000   71.7790  222.6220 N   0  0  0  0  0  0  0  0  0  0  0  0
  139.4780   71.1040  222.5320 C   0  0  0  0  0  0  0  0  0  0  0  0
  139.8940   70.8860  223.9650 C   0  0  0  0  0  0  0  0  0  0  0  0
  140.5670   71.8820  224.6460 C   0  0  0  0  0  0  0  0  0  0  0  0
  140.9530   71.6850  225.9700 C   0  0  0  0  0  0  0  0  0  0  0  0
  140.6530   70.4920  226.5830 C   0  0  0  0  0  0  0  0  0  0  0  0
  141.0500   70.3200  227.9070 C   0  0  0  0  0  0  0  0  0  0  0  0
  140.7570   69.1180  228.5520 C   0  0  0  0  0  0  0  0  0  0  0  0
  140.0840   68.1360  227.8540 C   0  0  0  0  0  0  0  0  0  0  0  0
  139.6910   68.3130  226.5340 C   0  0  0  0  0  0  0  0  0  0  0  0
  139.9780   69.5050  225.8880 C   0  0  0  0  0  0  0  0  0  0  0  0
  139.5870   69.6830  224.5710 C   0  0  0  0  0  0  0  0  0  0  0  0
  139.6490   75.0650  220.8860 C   0  0  0  0  0  0  0  0  0  0  0  0
  140.7660   75.8550  221.5360 C   0  0  0  0  0  0  0  0  0  0  0  0
  139.9591   79.8877  220.2044 H   0  0  0  0  0  0  0  0  0  0  0  0
  140.2306   80.7442  218.6490 H   0  0  0  0  0  0  0  0  0  0  0  0
  139.6438   79.0465  218.6490 H   0  0  0  0  0  0  0  0  0  0  0  0
  141.9914   78.8455  218.1532 H   0  0  0  0  0  0  0  0  0  0  0  0
  142.4608   80.0864  219.3269 H   0  0  0  0  0  0  0  0  0  0  0  0
  143.5894   78.7720  222.3837 H   0  0  0  0  0  0  0  0  0  0  0  0
  144.2703   80.6188  223.8801 H   0  0  0  0  0  0  0  0  0  0  0  0
  142.5222   82.2428  224.6436 H   0  0  0  0  0  0  0  0  0  0  0  0
  140.1991   81.9657  223.9030 H   0  0  0  0  0  0  0  0  0  0  0  0
  139.5125   80.1046  222.4011 H   0  0  0  0  0  0  0  0  0  0  0  0
  140.2934   77.3768  223.0204 H   0  0  0  0  0  0  0  0  0  0  0  0
  138.5050   78.4313  221.8055 H   0  0  0  0  0  0  0  0  0  0  0  0
  138.7010   77.3002  220.4596 H   0  0  0  0  0  0  0  0  0  0  0  0
  138.3493   76.3873  223.4078 H   0  0  0  0  0  0  0  0  0  0  0  0
  136.9795   76.5242  222.3169 H   0  0  0  0  0  0  0  0  0  0  0  0
  138.7379   72.5553  220.7640 H   0  0  0  0  0  0  0  0  0  0  0  0
  135.9091   71.8582  221.4349 H   0  0  0  0  0  0  0  0  0  0  0  0
  136.3278   72.9745  220.0913 H   0  0  0  0  0  0  0  0  0  0  0  0
  136.9586   71.2926  220.0913 H   0  0  0  0  0  0  0  0  0  0  0  0
  138.0960   72.3280  223.4780 H   0  0  0  0  0  0  0  0  0  0  0  0
  139.3735   70.1428  222.0073 H   0  0  0  0  0  0  0  0  0  0  0  0
  140.2193   71.6874  221.9663 H   0  0  0  0  0  0  0  0  0  0  0  0
  140.7984   72.8320  224.1420 H   0  0  0  0  0  0  0  0  0  0  0  0
  141.4905   72.4734  226.5173 H   0  0  0  0  0  0  0  0  0  0  0  0
  141.5870   71.1207  228.4367 H   0  0  0  0  0  0  0  0  0  0  0  0
  141.0570   68.9560  229.5978 H   0  0  0  0  0  0  0  0  0  0  0  0
  139.8523   67.1859  228.3577 H   0  0  0  0  0  0  0  0  0  0  0  0
  139.1550   67.5118  226.0042 H   0  0  0  0  0  0  0  0  0  0  0  0
  139.0500   68.8928  224.0259 H   0  0  0  0  0  0  0  0  0  0  0  0
  139.9745   74.0239  220.7439 H   0  0  0  0  0  0  0  0  0  0  0  0
  139.4068   75.5172  219.9129 H   0  0  0  0  0  0  0  0  0  0  0  0
  141.1081   75.3227  222.4358 H   0  0  0  0  0  0  0  0  0  0  0  0
  141.5910   75.9580  220.8157 H   0  0  0  0  0  0  0  0  0  0  0  0
  1  2  1  0
  2  3  1  0
  3  4  2  0
  3  5  1  0
  5  6  1  0
  6  7  2  0
  7  8  1  0
  8  9  2  0
  9 10  1  0
 10 11  2  0
  5 12  1  0
 12 13  1  0
 13 14  1  0
 14 15  1  0
 15 16  1  0
 16 17  2  0
 16 18  1  0
 18 19  1  0
 18 20  1  0
 20 21  1  0
 21 22  1  0
 22 23  2  0
 23 24  1  0
 24 25  2  0
 25 26  1  0
 26 27  2  0
 27 28  1  0
 28 29  2  0
 29 30  1  0
 30 31  2  0
 15 32  1  0
 32 33  1  0
 11  6  1  0
 33 12  1  0
 31 22  1  0
 30 25  1  0
  1 34  1  0
  1 35  1  0
  1 36  1  0
  2 37  1  0
  2 38  1  0
  7 39  1  0
  8 40  1  0
  9 41  1  0
 10 42  1  0
 11 43  1  0
 12 44  1  0
 13 45  1  0
 13 46  1  0
 14 47  1  0
 14 48  1  0
 18 49  1  6
 19 50  1  0
 19 51  1  0
 19 52  1  0
 20 53  1  0
 21 54  1  0
 21 55  1  0
 23 56  1  0
 24 57  1  0
 26 58  1  0
 27 59  1  0
 28 60  1  0
 29 61  1  0
 31 62  1  0
 32 63  1  0
 32 64  1  0
 33 65  1  0
 33 66  1  0
M  END
>  <smiles>  (3) 
CCC(=O)N(c1ccccc1)C1CCN(C(=O)[C@H](C)NCc2ccc3ccccc3c2)CC1

>  <score_type>  (3) 
oracle

>  <origin>  (3) 
autodockgpu

>  <m_score__min__energy>  (3) 
-9.3699999999999992

>  <m_primary>  (3) 
energy

>  <rmsd>  (3) 
8.342180329482071

>  <m_score__min__rmsd>  (3) 
8.342180329482071

>  <meeko>  (3) 
{"free_energy": -9.16, "intermolecular_energy": -11.55, "internal_energy": -2.13, "cluster_size": 36, "cluster_id": 1, "rank_in_cluster": 11}

>  <energy>  (3) 
-9.32

>  <cluster_rmsd>  (3) 
1.89

>  <cluster>  (3) 
1

$$$$

     RDKit          3D

 66 69  0  0  0  0  0  0  0  0999 V2000
  138.9970   82.9170  221.6390 C   0  0  0  0  0  0  0  0  0  0  0  0
  138.0220   81.7230  221.6850 C   0  0  0  0  0  0  0  0  0  0  0  0
  138.3660   80.9670  222.8890 C   0  0  0  0  0  0  0  0  0  0  0  0
  137.9090   81.4160  223.9980 O   0  0  0  0  0  0  0  0  0  0  0  0
  139.1460   79.7970  222.9800 N   0  0  0  0  0  0  0  0  0  0  0  0
  140.5830   80.0130  222.9580 C   0  0  0  0  0  0  0  0  0  0  0  0
  141.2070   80.3040  221.7590 C   0  0  0  0  0  0  0  0  0  0  0  0
  142.5640   80.5210  221.6530 C   0  0  0  0  0  0  0  0  0  0  0  0
  143.3180   80.4400  222.8080 C   0  0  0  0  0  0  0  0  0  0  0  0
  142.7020   80.1490  224.0010 C   0  0  0  0  0  0  0  0  0  0  0  0
  141.3320   79.9300  224.1070 C   0  0  0  0  0  0  0  0  0  0  0  0
  138.6970   78.4500  223.0790 C   0  0  0  0  0  0  0  0  0  0  0  0
  137.4400   78.1190  222.3300 C   0  0  0  0  0  0  0  0  0  0  0  0
  137.0820   76.6760  222.7360 C   0  0  0  0  0  0  0  0  0  0  0  0
  138.1260   75.8610  222.0990 N   0  0  0  0  0  0  0  0  0  0  0  0
  137.8770   74.4850  221.9900 C   0  0  0  0  0  0  0  0  0  0  0  0
  136.7930   74.0400  222.4400 O   0  0  0  0  0  0  0  0  0  0  0  0
  138.8070   73.5020  221.3780 C   0  0  2  0  0  0  0  0  0  0  0  0
  138.2650   73.0690  220.0590 C   0  0  0  0  0  0  0  0  0  0  0  0
  138.9260   72.4190  222.3280 N   0  0  0  0  0  0  0  0  0  0  0  0
  140.2330   72.3330  222.9470 C   0  0  0  0  0  0  0  0  0  0  0  0
  140.0860   71.2540  223.9910 C   0  0  0  0  0  0  0  0  0  0  0  0
  139.3860   70.1000  223.6950 C   0  0  0  0  0  0  0  0  0  0  0  0
  139.2480   69.1010  224.6550 C   0  0  0  0  0  0  0  0  0  0  0  0
  139.8170   69.2820  225.8940 C   0  0  0  0  0  0  0  0  0  0  0  0
  139.6640   68.2680  226.8370 C   0  0  0  0  0  0  0  0  0  0  0  0
  140.2320   68.4270  228.1020 C   0  0  0  0  0  0  0  0  0  0  0  0
  140.9270   69.5870  228.3770 C   0  0  0  0  0  0  0  0  0  0  0  0
  141.0760   70.5940  227.4320 C   0  0  0  0  0  0  0  0  0  0  0  0
  140.5150   70.4420  226.1740 C   0  0  0  0  0  0  0  0  0  0  0  0
  140.6620   71.4460  225.2310 C   0  0  0  0  0  0  0  0  0  0  0  0
  139.3310   76.5220  221.6270 C   0  0  0  0  0  0  0  0  0  0  0  0
  139.8170   77.5150  222.6620 C   0  0  0  0  0  0  0  0  0  0  0  0
  139.2484   83.2248  222.6647 H   0  0  0  0  0  0  0  0  0  0  0  0
  139.9147   82.6208  221.1098 H   0  0  0  0  0  0  0  0  0  0  0  0
  138.5234   83.7570  221.1098 H   0  0  0  0  0  0  0  0  0  0  0  0
  136.9831   82.0800  221.7418 H   0  0  0  0  0  0  0  0  0  0  0  0
  138.1044   81.1008  220.7816 H   0  0  0  0  0  0  0  0  0  0  0  0
  140.5927   80.3651  220.8486 H   0  0  0  0  0  0  0  0  0  0  0  0
  143.0301   80.7505  220.6834 H   0  0  0  0  0  0  0  0  0  0  0  0
  144.4046   80.6075  222.7725 H   0  0  0  0  0  0  0  0  0  0  0  0
  143.3176   80.0865  224.9105 H   0  0  0  0  0  0  0  0  0  0  0  0
  140.8653   79.6987  225.0759 H   0  0  0  0  0  0  0  0  0  0  0  0
  138.4267   78.3127  224.1364 H   0  0  0  0  0  0  0  0  0  0  0  0
  136.6316   78.8091  222.6131 H   0  0  0  0  0  0  0  0  0  0  0  0
  137.5779   78.2131  221.2427 H   0  0  0  0  0  0  0  0  0  0  0  0
  137.1070   76.5593  223.8295 H   0  0  0  0  0  0  0  0  0  0  0  0
  136.0678   76.3864  222.4237 H   0  0  0  0  0  0  0  0  0  0  0  0
  139.8051   73.9176  221.1754 H   0  0  0  0  0  0  0  0  0  0  0  0
  137.4145   72.3896  220.2172 H   0  0  0  0  0  0  0  0  0  0  0  0
  137.9296   73.9506  219.4931 H   0  0  0  0  0  0  0  0  0  0  0  0
  139.0508   72.5472  219.4931 H   0  0  0  0  0  0  0  0  0  0  0  0
  138.1640   72.4710  223.0060 H   0  0  0  0  0  0  0  0  0  0  0  0
  140.9968   72.0554  222.2057 H   0  0  0  0  0  0  0  0  0  0  0  0
  140.5553   73.2919  223.3789 H   0  0  0  0  0  0  0  0  0  0  0  0
  138.9370   69.9703  222.6992 H   0  0  0  0  0  0  0  0  0  0  0  0
  138.6918   68.1801  224.4257 H   0  0  0  0  0  0  0  0  0  0  0  0
  139.1034   67.3549  226.5881 H   0  0  0  0  0  0  0  0  0  0  0  0
  140.1276   67.6422  228.8656 H   0  0  0  0  0  0  0  0  0  0  0  0
  141.3757   69.7179  229.3728 H   0  0  0  0  0  0  0  0  0  0  0  0
  141.6363   71.5073  227.6809 H   0  0  0  0  0  0  0  0  0  0  0  0
  141.2192   72.3658  225.4624 H   0  0  0  0  0  0  0  0  0  0  0  0
  140.1132   75.7694  221.4489 H   0  0  0  0  0  0  0  0  0  0  0  0
  139.1069   77.0561  220.6918 H   0  0  0  0  0  0  0  0  0  0  0  0
  140.1777   76.9677  223.5454 H   0  0  0  0  0  0  0  0  0  0  0  0
  140.6300   78.1122  222.2233 H   0  0  0  0  0  0  0  0  0  0  0  0
  1  2  1  0
  2  3  1  0
  3  4  2  0
  3  5  1  0
  5  6  1  0
  6  7  2  0
  7  8  1  0
  8  9  2  0
  9 10  1  0
 10 11  2  0
  5 12  1  0
 12 13  1  0
 13 14  1  0
 14 15  1  0
 15 16  1  0
 16 17  2  0
 16 18  1  0
 18 19  1  0
 18 20  1  0
 20 21  1  0
 21 22  1  0
 22 23  2  0
 23 24  1  0
 24 25  2  0
 25 26  1  0
 26 27  2  0
 27 28  1  0
 28 29  2  0
 29 30  1  0
 30 31  2  0
 15 32  1  0
 32 33  1  0
 11  6  1  0
 33 12  1  0
 31 22  1  0
 30 25  1  0
  1 34  1  0
  1 35  1  0
  1 36  1  0
  2 37  1  0
  2 38  1  0
  7 39  1  0
  8 40  1  0
  9 41  1  0
 10 42  1  0
 11 43  1  0
 12 44  1  0
 13 45  1  0
 13 46  1  0
 14 47  1  0
 14 48  1  0
 18 49  1  6
 19 50  1  0
 19 51  1  0
 19 52  1  0
 20 53  1  0
 21 54  1  0
 21 55  1  0
 23 56  1  0
 24 57  1  0
 26 58  1  0
 27 59  1  0
 28 60  1  0
 29 61  1  0
 31 62  1  0
 32 63  1  0
 32 64  1  0
 33 65  1  0
 33 66  1  0
M  END
>  <smiles>  (4) 
CCC(=O)N(c1ccccc1)C1CCN(C(=O)[C@H](C)NCc2ccc3ccccc3c2)CC1

>  <score_type>  (4) 
oracle

>  <origin>  (4) 
autodockgpu

>  <m_score__min__energy>  (4) 
-9.3699999999999992

>  <m_primary>  (4) 
energy

>  <rmsd>  (4) 
9.138655785856274

>  <m_score__min__rmsd>  (4) 
9.138655785856274

>  <meeko>  (4) 
{"free_energy": -8.53, "intermolecular_energy": -10.92, "internal_energy": -2.27, "cluster_size": 36, "cluster_id": 1, "rank_in_cluster": 30}

>  <energy>  (4) 
-9.29

>  <cluster_rmsd>  (4) 
0.49

>  <cluster>  (4) 
1

$$$$

     RDKit          3D

 66 69  0  0  0  0  0  0  0  0999 V2000
  142.8470   75.2860  220.0880 C   0  0  0  0  0  0  0  0  0  0  0  0
  142.7350   76.7820  219.7280 C   0  0  0  0  0  0  0  0  0  0  0  0
  141.3590   77.1690  220.0370 C   0  0  0  0  0  0  0  0  0  0  0  0
  140.5670   77.3140  219.0410 O   0  0  0  0  0  0  0  0  0  0  0  0
  140.7920   77.4040  221.3050 N   0  0  0  0  0  0  0  0  0  0  0  0
  141.3900   78.4980  222.0520 C   0  0  0  0  0  0  0  0  0  0  0  0
  141.4670   78.4170  223.4310 C   0  0  0  0  0  0  0  0  0  0  0  0
  142.0170   79.4110  224.2110 C   0  0  0  0  0  0  0  0  0  0  0  0
  142.5110   80.5300  223.5690 C   0  0  0  0  0  0  0  0  0  0  0  0
  142.4360   80.6150  222.2000 C   0  0  0  0  0  0  0  0  0  0  0  0
  141.8790   79.6120  221.4130 C   0  0  0  0  0  0  0  0  0  0  0  0
  139.7280   76.7000  221.9350 C   0  0  0  0  0  0  0  0  0  0  0  0
  138.3460   77.0290  221.4520 C   0  0  0  0  0  0  0  0  0  0  0  0
  137.3860   76.2780  222.3960 C   0  0  0  0  0  0  0  0  0  0  0  0
  137.5810   74.8650  222.0440 N   0  0  0  0  0  0  0  0  0  0  0  0
  136.5990   73.9620  222.4800 C   0  0  0  0  0  0  0  0  0  0  0  0
  135.6280   74.4130  223.1360 O   0  0  0  0  0  0  0  0  0  0  0  0
  136.6190   72.5000  222.2230 C   0  0  2  0  0  0  0  0  0  0  0  0
  135.2190   71.9920  222.1690 C   0  0  0  0  0  0  0  0  0  0  0  0
  137.3960   71.9160  223.2930 N   0  0  0  0  0  0  0  0  0  0  0  0
  138.5680   71.2010  222.8340 C   0  0  0  0  0  0  0  0  0  0  0  0
  139.0290   70.4170  224.0380 C   0  0  0  0  0  0  0  0  0  0  0  0
  138.8320   69.0510  224.0850 C   0  0  0  0  0  0  0  0  0  0  0  0
  139.2560   68.3220  225.1950 C   0  0  0  0  0  0  0  0  0  0  0  0
  139.8690   68.9820  226.2330 C   0  0  0  0  0  0  0  0  0  0  0  0
  140.2830   68.2320  227.3300 C   0  0  0  0  0  0  0  0  0  0  0  0
  140.9080   68.8780  228.3980 C   0  0  0  0  0  0  0  0  0  0  0  0
  141.0950   70.2440  228.3300 C   0  0  0  0  0  0  0  0  0  0  0  0
  140.6800   70.9870  227.2320 C   0  0  0  0  0  0  0  0  0  0  0  0
  140.0590   70.3510  226.1690 C   0  0  0  0  0  0  0  0  0  0  0  0
  139.6440   71.0910  225.0740 C   0  0  0  0  0  0  0  0  0  0  0  0
  138.7590   74.4960  221.2790 C   0  0  0  0  0  0  0  0  0  0  0  0
  139.9790   75.2070  221.8270 C   0  0  0  0  0  0  0  0  0  0  0  0
  142.8556   75.1718  221.1820 H   0  0  0  0  0  0  0  0  0  0  0  0
  141.9870   74.7427  219.6693 H   0  0  0  0  0  0  0  0  0  0  0  0
  143.7783   74.8768  219.6693 H   0  0  0  0  0  0  0  0  0  0  0  0
  143.4423   77.3735  220.3279 H   0  0  0  0  0  0  0  0  0  0  0  0
  142.9759   76.9609  218.6697 H   0  0  0  0  0  0  0  0  0  0  0  0
  141.0713   77.5185  223.9272 H   0  0  0  0  0  0  0  0  0  0  0  0
  142.0611   79.3168  225.3061 H   0  0  0  0  0  0  0  0  0  0  0  0
  142.9616   81.3479  224.1504 H   0  0  0  0  0  0  0  0  0  0  0  0
  142.8330   81.5137  221.7053 H   0  0  0  0  0  0  0  0  0  0  0  0
  141.8317   79.7073  220.3182 H   0  0  0  0  0  0  0  0  0  0  0  0
  139.7379   77.0377  222.9818 H   0  0  0  0  0  0  0  0  0  0  0  0
  138.1682   78.1131  221.5069 H   0  0  0  0  0  0  0  0  0  0  0  0
  138.2003   76.7314  220.4031 H   0  0  0  0  0  0  0  0  0  0  0  0
  137.6498   76.4595  223.4484 H   0  0  0  0  0  0  0  0  0  0  0  0
  136.3409   76.6031  222.2860 H   0  0  0  0  0  0  0  0  0  0  0  0
  137.0761   72.2360  221.2579 H   0  0  0  0  0  0  0  0  0  0  0  0
  134.8392   71.8542  223.1921 H   0  0  0  0  0  0  0  0  0  0  0  0
  134.5859   72.7177  221.6375 H   0  0  0  0  0  0  0  0  0  0  0  0
  135.1986   71.0291  221.6375 H   0  0  0  0  0  0  0  0  0  0  0  0
  137.6100   72.6310  223.9910 H   0  0  0  0  0  0  0  0  0  0  0  0
  138.3110   70.5250  222.0051 H   0  0  0  0  0  0  0  0  0  0  0  0
  139.3471   71.8771  222.4522 H   0  0  0  0  0  0  0  0  0  0  0  0
  138.3400   68.5376  223.2457 H   0  0  0  0  0  0  0  0  0  0  0  0
  139.1021   67.2337  225.2395 H   0  0  0  0  0  0  0  0  0  0  0  0
  140.1198   67.1445  227.3550 H   0  0  0  0  0  0  0  0  0  0  0  0
  141.2451   68.3093  229.2772 H   0  0  0  0  0  0  0  0  0  0  0  0
  141.5864   70.7587  229.1688 H   0  0  0  0  0  0  0  0  0  0  0  0
  140.8435   72.0745  227.2066 H   0  0  0  0  0  0  0  0  0  0  0  0
  139.7993   72.1792  225.0314 H   0  0  0  0  0  0  0  0  0  0  0  0
  138.9107   73.4086  221.3464 H   0  0  0  0  0  0  0  0  0  0  0  0
  138.6128   74.7891  220.2289 H   0  0  0  0  0  0  0  0  0  0  0  0
  140.2118   74.8071  222.8249 H   0  0  0  0  0  0  0  0  0  0  0  0
  140.8229   75.0395  221.1416 H   0  0  0  0  0  0  0  0  0  0  0  0
  1  2  1  0
  2  3  1  0
  3  4  2  0
  3  5  1  0
  5  6  1  0
  6  7  2  0
  7  8  1  0
  8  9  2  0
  9 10  1  0
 10 11  2  0
  5 12  1  0
 12 13  1  0
 13 14  1  0
 14 15  1  0
 15 16  1  0
 16 17  2  0
 16 18  1  0
 18 19  1  0
 18 20  1  0
 20 21  1  0
 21 22  1  0
 22 23  2  0
 23 24  1  0
 24 25  2  0
 25 26  1  0
 26 27  2  0
 27 28  1  0
 28 29  2  0
 29 30  1  0
 30 31  2  0
 15 32  1  0
 32 33  1  0
 11  6  1  0
 33 12  1  0
 31 22  1  0
 30 25  1  0
  1 34  1  0
  1 35  1  0
  1 36  1  0
  2 37  1  0
  2 38  1  0
  7 39  1  0
  8 40  1  0
  9 41  1  0
 10 42  1  0
 11 43  1  0
 12 44  1  0
 13 45  1  0
 13 46  1  0
 14 47  1  0
 14 48  1  0
 18 49  1  6
 19 50  1  0
 19 51  1  0
 19 52  1  0
 20 53  1  0
 21 54  1  0
 21 55  1  0
 23 56  1  0
 24 57  1  0
 26 58  1  0
 27 59  1  0
 28 60  1  0
 29 61  1  0
 31 62  1  0
 32 63  1  0
 32 64  1  0
 33 65  1  0
 33 66  1  0
M  END
>  <smiles>  (5) 
CCC(=O)N(c1ccccc1)C1CCN(C(=O)[C@H](C)NCc2ccc3ccccc3c2)CC1

>  <score_type>  (5) 
oracle

>  <origin>  (5) 
autodockgpu

>  <m_score__min__energy>  (5) 
-9.3699999999999992

>  <m_primary>  (5) 
energy

>  <rmsd>  (5) 
9.481032103330937

>  <m_score__min__rmsd>  (5) 
9.481032103330937

>  <meeko>  (5) 
{"free_energy": -9.16, "intermolecular_energy": -11.55, "internal_energy": -1.9, "cluster_size": 36, "cluster_id": 1, "rank_in_cluster": 12}

>  <energy>  (5) 
-9.28

>  <cluster_rmsd>  (5) 
0.33

>  <cluster>  (5) 
1

$$$$

     RDKit          3D

 66 69  0  0  0  0  0  0  0  0999 V2000
  142.5590   78.8110  218.2290 C   0  0  0  0  0  0  0  0  0  0  0  0
  141.3180   78.1140  218.8230 C   0  0  0  0  0  0  0  0  0  0  0  0
  141.7460   77.5520  220.1040 C   0  0  0  0  0  0  0  0  0  0  0  0
  142.8090   76.8380  220.0900 O   0  0  0  0  0  0  0  0  0  0  0  0
  141.1270   77.6990  221.3610 N   0  0  0  0  0  0  0  0  0  0  0  0
  141.5830   78.8380  222.1400 C   0  0  0  0  0  0  0  0  0  0  0  0
  141.7660   80.0580  221.5160 C   0  0  0  0  0  0  0  0  0  0  0  0
  142.1970   81.1850  222.1830 C   0  0  0  0  0  0  0  0  0  0  0  0
  142.4510   81.0700  223.5370 C   0  0  0  0  0  0  0  0  0  0  0  0
  142.2710   79.8600  224.1600 C   0  0  0  0  0  0  0  0  0  0  0  0
  141.8370   78.7220  223.4860 C   0  0  0  0  0  0  0  0  0  0  0  0
  140.1320   76.8710  221.9510 C   0  0  0  0  0  0  0  0  0  0  0  0
  138.7100   77.2000  221.6010 C   0  0  0  0  0  0  0  0  0  0  0  0
  137.8420   76.2880  222.4900 C   0  0  0  0  0  0  0  0  0  0  0  0
  138.0640   74.9440  221.9390 N   0  0  0  0  0  0  0  0  0  0  0  0
  137.1460   73.9490  222.3070 C   0  0  0  0  0  0  0  0  0  0  0  0
  136.2050   74.2640  223.0740 O   0  0  0  0  0  0  0  0  0  0  0  0
  137.2030   72.5350  221.8530 C   0  0  2  0  0  0  0  0  0  0  0  0
  135.8270   72.0750  221.5120 C   0  0  0  0  0  0  0  0  0  0  0  0
  137.8000   71.7910  222.9390 N   0  0  0  0  0  0  0  0  0  0  0  0
  139.1850   71.4370  222.7040 C   0  0  0  0  0  0  0  0  0  0  0  0
  139.7040   71.0230  224.0590 C   0  0  0  0  0  0  0  0  0  0  0  0
  140.5320   71.8730  224.7670 C   0  0  0  0  0  0  0  0  0  0  0  0
  141.0130   71.4960  226.0190 C   0  0  0  0  0  0  0  0  0  0  0  0
  140.6530   70.2730  226.5330 C   0  0  0  0  0  0  0  0  0  0  0  0
  141.1490   69.9190  227.7850 C   0  0  0  0  0  0  0  0  0  0  0  0
  140.7980   68.6830  228.3300 C   0  0  0  0  0  0  0  0  0  0  0  0
  139.9700   67.8490  227.6060 C   0  0  0  0  0  0  0  0  0  0  0  0
  139.4790   68.2080  226.3570 C   0  0  0  0  0  0  0  0  0  0  0  0
  139.8240   69.4340  225.8110 C   0  0  0  0  0  0  0  0  0  0  0  0
  139.3350   69.7920  224.5660 C   0  0  0  0  0  0  0  0  0  0  0  0
  139.2030   74.7320  221.0620 C   0  0  0  0  0  0  0  0  0  0  0  0
  140.4290   75.4190  221.6280 C   0  0  0  0  0  0  0  0  0  0  0  0
  143.2023   79.1723  219.0449 H   0  0  0  0  0  0  0  0  0  0  0  0
  143.1197   78.0958  217.6092 H   0  0  0  0  0  0  0  0  0  0  0  0
  142.2401   79.6620  217.6092 H   0  0  0  0  0  0  0  0  0  0  0  0
  140.5076   78.8418  218.9765 H   0  0  0  0  0  0  0  0  0  0  0  0
  140.9326   77.3343  218.1495 H   0  0  0  0  0  0  0  0  0  0  0  0
  141.5583   80.1329  220.4384 H   0  0  0  0  0  0  0  0  0  0  0  0
  142.3338   82.1412  221.6568 H   0  0  0  0  0  0  0  0  0  0  0  0
  142.7952   81.9426  224.1116 H   0  0  0  0  0  0  0  0  0  0  0  0
  142.4786   79.7866  225.2377 H   0  0  0  0  0  0  0  0  0  0  0  0
  141.7022   77.7649  224.0112 H   0  0  0  0  0  0  0  0  0  0  0  0
  140.1975   77.0668  223.0315 H   0  0  0  0  0  0  0  0  0  0  0  0
  138.4974   78.2581  221.8134 H   0  0  0  0  0  0  0  0  0  0  0  0
  138.5065   77.0390  220.5320 H   0  0  0  0  0  0  0  0  0  0  0  0
  138.1675   76.3396  223.5395 H   0  0  0  0  0  0  0  0  0  0  0  0
  136.7809   76.5780  222.4876 H   0  0  0  0  0  0  0  0  0  0  0  0
  137.8056   72.3943  220.9435 H   0  0  0  0  0  0  0  0  0  0  0  0
  135.2634   71.8866  222.4377 H   0  0  0  0  0  0  0  0  0  0  0  0
  135.3162   72.8512  220.9233 H   0  0  0  0  0  0  0  0  0  0  0  0
  135.8858   71.1476  220.9233 H   0  0  0  0  0  0  0  0  0  0  0  0
  137.6570   72.2910  223.8180 H   0  0  0  0  0  0  0  0  0  0  0  0
  139.2576   70.6044  221.9888 H   0  0  0  0  0  0  0  0  0  0  0  0
  139.7615   72.2678  222.2711 H   0  0  0  0  0  0  0  0  0  0  0  0
  140.8116   72.8482  224.3417 H   0  0  0  0  0  0  0  0  0  0  0  0
  141.6719   72.1679  226.5885 H   0  0  0  0  0  0  0  0  0  0  0  0
  141.8087   70.6044  228.3372 H   0  0  0  0  0  0  0  0  0  0  0  0
  141.1742   68.3792  229.3180 H   0  0  0  0  0  0  0  0  0  0  0  0
  139.6912   66.8730  228.0298 H   0  0  0  0  0  0  0  0  0  0  0  0
  138.8197   67.5225  225.8043 H   0  0  0  0  0  0  0  0  0  0  0  0
  138.6748   69.1187  223.9996 H   0  0  0  0  0  0  0  0  0  0  0  0
  139.3985   73.6531  220.9734 H   0  0  0  0  0  0  0  0  0  0  0  0
  138.9786   75.1536  220.0711 H   0  0  0  0  0  0  0  0  0  0  0  0
  140.7402   74.9014  222.5474 H   0  0  0  0  0  0  0  0  0  0  0  0
  141.2320   75.3820  220.8772 H   0  0  0  0  0  0  0  0  0  0  0  0
  1  2  1  0
  2  3  1  0
  3  4  2  0
  3  5  1  0
  5  6  1  0
  6  7  2  0
  7  8  1  0
  8  9  2  0
  9 10  1  0
 10 11  2  0
  5 12  1  0
 12 13  1  0
 13 14  1  0
 14 15  1  0
 15 16  1  0
 16 17  2  0
 16 18  1  0
 18 19  1  0
 18 20  1  0
 20 21  1  0
 21 22  1  0
 22 23  2  0
 23 24  1  0
 24 25  2  0
 25 26  1  0
 26 27  2  0
 27 28  1  0
 28 29  2  0
 29 30  1  0
 30 31  2  0
 15 32  1  0
 32 33  1  0
 11  6  1  0
 33 12  1  0
 31 22  1  0
 30 25  1  0
  1 34  1  0
  1 35  1  0
  1 36  1  0
  2 37  1  0
  2 38  1  0
  7 39  1  0
  8 40  1  0
  9 41  1  0
 10 42  1  0
 11 43  1  0
 12 44  1  0
 13 45  1  0
 13 46  1  0
 14 47  1  0
 14 48  1  0
 18 49  1  6
 19 50  1  0
 19 51  1  0
 19 52  1  0
 20 53  1  0
 21 54  1  0
 21 55  1  0
 23 56  1  0
 24 57  1  0
 26 58  1  0
 27 59  1  0
 28 60  1  0
 29 61  1  0
 31 62  1  0
 32 63  1  0
 32 64  1  0
 33 65  1  0
 33 66  1  0
M  END
>  <smiles>  (6) 
CCC(=O)N(c1ccccc1)C1CCN(C(=O)[C@H](C)NCc2ccc3ccccc3c2)CC1

>  <score_type>  (6) 
oracle

>  <origin>  (6) 
autodockgpu

>  <m_score__min__energy>  (6) 
-9.3699999999999992

>  <m_primary>  (6) 
energy

>  <rmsd>  (6) 
8.458046354634083

>  <m_score__min__rmsd>  (6) 
8.458046354634083

>  <meeko>  (6) 
{"free_energy": -9.2, "intermolecular_energy": -11.58, "internal_energy": -2.04, "cluster_size": 36, "cluster_id": 1, "rank_in_cluster": 9}

>  <energy>  (6) 
-9.25

>  <cluster_rmsd>  (6) 
0.76

>  <cluster>  (6) 
1

$$$$

     RDKit          3D

 66 69  0  0  0  0  0  0  0  0999 V2000
  136.5900   80.7770  224.1380 C   0  0  0  0  0  0  0  0  0  0  0  0
  138.0240   80.2130  224.1950 C   0  0  0  0  0  0  0  0  0  0  0  0
  138.2160   79.4700  222.9480 C   0  0  0  0  0  0  0  0  0  0  0  0
  137.2000   79.3820  222.1730 O   0  0  0  0  0  0  0  0  0  0  0  0
  139.3880   78.8360  222.4930 N   0  0  0  0  0  0  0  0  0  0  0  0
  140.6260   79.5190  222.8280 C   0  0  0  0  0  0  0  0  0  0  0  0
  141.0830   80.5370  222.0110 C   0  0  0  0  0  0  0  0  0  0  0  0
  142.2470   81.2320  222.2590 C   0  0  0  0  0  0  0  0  0  0  0  0
  142.9760   80.8830  223.3800 C   0  0  0  0  0  0  0  0  0  0  0  0
  142.5260   79.8720  224.1930 C   0  0  0  0  0  0  0  0  0  0  0  0
  141.3510   79.1700  223.9420 C   0  0  0  0  0  0  0  0  0  0  0  0
  139.4990   77.6310  221.7450 C   0  0  0  0  0  0  0  0  0  0  0  0
  140.7270   76.8080  222.0020 C   0  0  0  0  0  0  0  0  0  0  0  0
  140.6920   75.6720  220.9610 C   0  0  0  0  0  0  0  0  0  0  0  0
  139.5730   74.8260  221.4010 N   0  0  0  0  0  0  0  0  0  0  0  0
  139.5100   73.5310  220.8650 C   0  0  0  0  0  0  0  0  0  0  0  0
  140.4000   73.1800  220.0530 O   0  0  0  0  0  0  0  0  0  0  0  0
  138.4590   72.5320  221.1870 C   0  0  2  0  0  0  0  0  0  0  0  0
  137.1250   73.0890  220.8250 C   0  0  0  0  0  0  0  0  0  0  0  0
  138.5950   72.2500  222.5980 N   0  0  0  0  0  0  0  0  0  0  0  0
  139.9710   72.1520  223.0390 C   0  0  0  0  0  0  0  0  0  0  0  0
  139.9610   71.0480  224.0670 C   0  0  0  0  0  0  0  0  0  0  0  0
  139.3790   69.8320  223.7650 C   0  0  0  0  0  0  0  0  0  0  0  0
  139.3680   68.8100  224.7110 C   0  0  0  0  0  0  0  0  0  0  0  0
  139.9420   69.0300  225.9400 C   0  0  0  0  0  0  0  0  0  0  0  0
  139.9170   67.9920  226.8680 C   0  0  0  0  0  0  0  0  0  0  0  0
  140.4930   68.1900  228.1240 C   0  0  0  0  0  0  0  0  0  0  0  0
  141.0690   69.4130  228.4060 C   0  0  0  0  0  0  0  0  0  0  0  0
  141.0900   70.4440  227.4760 C   0  0  0  0  0  0  0  0  0  0  0  0
  140.5200   70.2530  226.2270 C   0  0  0  0  0  0  0  0  0  0  0  0
  140.5400   71.2810  225.2990 C   0  0  0  0  0  0  0  0  0  0  0  0
  138.6180   75.3750  222.3480 C   0  0  0  0  0  0  0  0  0  0  0  0
  138.2520   76.7920  221.9550 C   0  0  0  0  0  0  0  0  0  0  0  0
  136.2133   80.9251  225.1608 H   0  0  0  0  0  0  0  0  0  0  0  0
  136.5956   81.7399  223.6063 H   0  0  0  0  0  0  0  0  0  0  0  0
  135.9381   80.0683  223.6063 H   0  0  0  0  0  0  0  0  0  0  0  0
  138.7542   81.0324  224.2679 H   0  0  0  0  0  0  0  0  0  0  0  0
  138.1683   79.5680  225.0743 H   0  0  0  0  0  0  0  0  0  0  0  0
  140.4908   80.8040  221.1233 H   0  0  0  0  0  0  0  0  0  0  0  0
  142.5839   82.0362  221.5883 H   0  0  0  0  0  0  0  0  0  0  0  0
  143.9105   81.4116  223.6194 H   0  0  0  0  0  0  0  0  0  0  0  0
  143.1194   79.6058  225.0801 H   0  0  0  0  0  0  0  0  0  0  0  0
  141.0146   78.3645  224.6114 H   0  0  0  0  0  0  0  0  0  0  0  0
  139.6010   77.9500  220.6972 H   0  0  0  0  0  0  0  0  0  0  0  0
  141.6324   77.4191  221.8727 H   0  0  0  0  0  0  0  0  0  0  0  0
  140.7462   76.4168  223.0299 H   0  0  0  0  0  0  0  0  0  0  0  0
  140.5086   76.0706  219.9523 H   0  0  0  0  0  0  0  0  0  0  0  0
  141.6425   75.1217  220.9004 H   0  0  0  0  0  0  0  0  0  0  0  0
  138.5618   71.5957  220.6188 H   0  0  0  0  0  0  0  0  0  0  0  0
  136.5643   73.3231  221.7420 H   0  0  0  0  0  0  0  0  0  0  0  0
  137.2591   74.0063  220.2329 H   0  0  0  0  0  0  0  0  0  0  0  0
  136.5670   72.3487  220.2329 H   0  0  0  0  0  0  0  0  0  0  0  0
  138.0480   72.9230  223.1370 H   0  0  0  0  0  0  0  0  0  0  0  0
  140.6313   71.8940  222.1979 H   0  0  0  0  0  0  0  0  0  0  0  0
  140.3474   73.1011  223.4484 H   0  0  0  0  0  0  0  0  0  0  0  0
  138.9239   69.6709  222.7766 H   0  0  0  0  0  0  0  0  0  0  0  0
  138.9059   67.8395  224.4775 H   0  0  0  0  0  0  0  0  0  0  0  0
  139.4496   67.0290  226.6147 H   0  0  0  0  0  0  0  0  0  0  0  0
  140.4882   67.3866  228.8753 H   0  0  0  0  0  0  0  0  0  0  0  0
  141.5237   69.5749  229.3945 H   0  0  0  0  0  0  0  0  0  0  0  0
  141.5566   71.4074  227.7292 H   0  0  0  0  0  0  0  0  0  0  0  0
  141.0018   72.2510  225.5354 H   0  0  0  0  0  0  0  0  0  0  0  0
  137.7110   74.7527  222.3524 H   0  0  0  0  0  0  0  0  0  0  0  0
  139.0698   75.3845  223.3509 H   0  0  0  0  0  0  0  0  0  0  0  0
  137.6712   76.7688  221.0211 H   0  0  0  0  0  0  0  0  0  0  0  0
  137.6570   77.2403  222.7643 H   0  0  0  0  0  0  0  0  0  0  0  0
  1  2  1  0
  2  3  1  0
  3  4  2  0
  3  5  1  0
  5  6  1  0
  6  7  2  0
  7  8  1  0
  8  9  2  0
  9 10  1  0
 10 11  2  0
  5 12  1  0
 12 13  1  0
 13 14  1  0
 14 15  1  0
 15 16  1  0
 16 17  2  0
 16 18  1  0
 18 19  1  0
 18 20  1  0
 20 21  1  0
 21 22  1  0
 22 23  2  0
 23 24  1  0
 24 25  2  0
 25 26  1  0
 26 27  2  0
 27 28  1  0
 28 29  2  0
 29 30  1  0
 30 31  2  0
 15 32  1  0
 32 33  1  0
 11  6  1  0
 33 12  1  0
 31 22  1  0
 30 25  1  0
  1 34  1  0
  1 35  1  0
  1 36  1  0
  2 37  1  0
  2 38  1  0
  7 39  1  0
  8 40  1  0
  9 41  1  0
 10 42  1  0
 11 43  1  0
 12 44  1  0
 13 45  1  0
 13 46  1  0
 14 47  1  0
 14 48  1  0
 18 49  1  6
 19 50  1  0
 19 51  1  0
 19 52  1  0
 20 53  1  0
 21 54  1  0
 21 55  1  0
 23 56  1  0
 24 57  1  0
 26 58  1  0
 27 59  1  0
 28 60  1  0
 29 61  1  0
 31 62  1  0
 32 63  1  0
 32 64  1  0
 33 65  1  0
 33 66  1  0
M  END
>  <smiles>  (7) 
CCC(=O)N(c1ccccc1)C1CCN(C(=O)[C@H](C)NCc2ccc3ccccc3c2)CC1

>  <score_type>  (7) 
oracle

>  <origin>  (7) 
autodockgpu

>  <m_score__min__energy>  (7) 
-9.3699999999999992

>  <m_primary>  (7) 
energy

>  <rmsd>  (7) 
8.929352834308151

>  <m_score__min__rmsd>  (7) 
8.929352834308151

>  <meeko>  (7) 
{"free_energy": -9.03, "intermolecular_energy": -11.42, "internal_energy": -1.57, "cluster_size": 36, "cluster_id": 1, "rank_in_cluster": 16}

>  <energy>  (7) 
-9.23

>  <cluster_rmsd>  (7) 
1.01

>  <cluster>  (7) 
1

$$$$

     RDKit          3D

 66 69  0  0  0  0  0  0  0  0999 V2000
  142.6210   81.2630  224.1810 C   0  0  0  0  0  0  0  0  0  0  0  0
  143.0170   80.1330  223.2080 C   0  0  0  0  0  0  0  0  0  0  0  0
  141.7630   79.5330  222.7540 C   0  0  0  0  0  0  0  0  0  0  0  0
  140.9360   79.1770  223.6650 O   0  0  0  0  0  0  0  0  0  0  0  0
  141.3490   79.2960  221.4290 N   0  0  0  0  0  0  0  0  0  0  0  0
  141.4610   80.4380  220.5370 C   0  0  0  0  0  0  0  0  0  0  0  0
  142.0420   80.2740  219.2930 C   0  0  0  0  0  0  0  0  0  0  0  0
  142.1860   81.3060  218.3900 C   0  0  0  0  0  0  0  0  0  0  0  0
  141.7230   82.5530  218.7630 C   0  0  0  0  0  0  0  0  0  0  0  0
  141.1460   82.7210  219.9980 C   0  0  0  0  0  0  0  0  0  0  0  0
  141.0010   81.6790  220.9100 C   0  0  0  0  0  0  0  0  0  0  0  0
  140.8330   78.0920  220.8730 C   0  0  0  0  0  0  0  0  0  0  0  0
  141.8430   77.0310  220.5500 C   0  0  0  0  0  0  0  0  0  0  0  0
  141.0630   75.9250  219.8130 C   0  0  0  0  0  0  0  0  0  0  0  0
  140.2160   75.3340  220.8590 N   0  0  0  0  0  0  0  0  0  0  0  0
  139.6510   74.0800  220.5830 C   0  0  0  0  0  0  0  0  0  0  0  0
  139.9000   73.5480  219.4740 O   0  0  0  0  0  0  0  0  0  0  0  0
  138.7720   73.3250  221.5120 C   0  0  2  0  0  0  0  0  0  0  0  0
  137.5150   74.0940  221.7320 C   0  0  0  0  0  0  0  0  0  0  0  0
  139.5400   73.1300  222.7200 N   0  0  0  0  0  0  0  0  0  0  0  0
  140.5680   72.1170  222.5970 C   0  0  0  0  0  0  0  0  0  0  0  0
  140.3070   71.1720  223.7440 C   0  0  0  0  0  0  0  0  0  0  0  0
  139.5740   70.0200  223.5320 C   0  0  0  0  0  0  0  0  0  0  0  0
  139.3310   69.1440  224.5880 C   0  0  0  0  0  0  0  0  0  0  0  0
  139.8290   69.4440  225.8330 C   0  0  0  0  0  0  0  0  0  0  0  0
  139.5710   68.5520  226.8710 C   0  0  0  0  0  0  0  0  0  0  0  0
  140.0660   68.8330  228.1460 C   0  0  0  0  0  0  0  0  0  0  0  0
  140.7950   69.9900  228.3360 C   0  0  0  0  0  0  0  0  0  0  0  0
  141.0490   70.8750  227.2960 C   0  0  0  0  0  0  0  0  0  0  0  0
  140.5600   70.6010  226.0280 C   0  0  0  0  0  0  0  0  0  0  0  0
  140.8120   71.4840  224.9900 C   0  0  0  0  0  0  0  0  0  0  0  0
  140.0200   76.0740  222.0940 C   0  0  0  0  0  0  0  0  0  0  0  0
  139.7600   77.5340  221.7890 C   0  0  0  0  0  0  0  0  0  0  0  0
  142.7432   80.9143  225.2171 H   0  0  0  0  0  0  0  0  0  0  0  0
  143.2663   82.1372  224.0098 H   0  0  0  0  0  0  0  0  0  0  0  0
  141.5711   81.5431  224.0098 H   0  0  0  0  0  0  0  0  0  0  0  0
  143.5758   80.5428  222.3537 H   0  0  0  0  0  0  0  0  0  0  0  0
  143.6652   79.3902  223.6960 H   0  0  0  0  0  0  0  0  0  0  0  0
  142.4058   79.2749  219.0110 H   0  0  0  0  0  0  0  0  0  0  0  0
  142.6529   81.1422  217.4076 H   0  0  0  0  0  0  0  0  0  0  0  0
  141.8159   83.4063  218.0750 H   0  0  0  0  0  0  0  0  0  0  0  0
  140.7831   83.7209  220.2784 H   0  0  0  0  0  0  0  0  0  0  0  0
  140.5354   81.8426  221.8931 H   0  0  0  0  0  0  0  0  0  0  0  0
  140.4203   78.3796  219.8947 H   0  0  0  0  0  0  0  0  0  0  0  0
  142.6342   77.4385  219.9035 H   0  0  0  0  0  0  0  0  0  0  0  0
  142.3335   76.6472  221.4567 H   0  0  0  0  0  0  0  0  0  0  0  0
  140.4487   76.3506  219.0058 H   0  0  0  0  0  0  0  0  0  0  0  0
  141.7232   75.1870  219.3340 H   0  0  0  0  0  0  0  0  0  0  0  0
  138.4639   72.3455  221.1174 H   0  0  0  0  0  0  0  0  0  0  0  0
  137.3363   74.2033  222.8119 H   0  0  0  0  0  0  0  0  0  0  0  0
  137.6090   75.0894  221.2733 H   0  0  0  0  0  0  0  0  0  0  0  0
  136.6716   73.5571  221.2733 H   0  0  0  0  0  0  0  0  0  0  0  0
  139.9000   74.0290  223.0470 H   0  0  0  0  0  0  0  0  0  0  0  0
  140.4833   71.5922  221.6340 H   0  0  0  0  0  0  0  0  0  0  0  0
  141.5814   72.5437  222.6291 H   0  0  0  0  0  0  0  0  0  0  0  0
  139.1822   69.7944  222.5292 H   0  0  0  0  0  0  0  0  0  0  0  0
  138.7485   68.2249  224.4272 H   0  0  0  0  0  0  0  0  0  0  0  0
  138.9854   67.6388  226.6889 H   0  0  0  0  0  0  0  0  0  0  0  0
  139.8786   68.1452  228.9837 H   0  0  0  0  0  0  0  0  0  0  0  0
  141.1855   70.2173  229.3389 H   0  0  0  0  0  0  0  0  0  0  0  0
  141.6349   71.7882  227.4775 H   0  0  0  0  0  0  0  0  0  0  0  0
  141.3948   72.4025  225.1537 H   0  0  0  0  0  0  0  0  0  0  0  0
  139.1586   75.6563  222.6358 H   0  0  0  0  0  0  0  0  0  0  0  0
  140.9263   75.9907  222.7118 H   0  0  0  0  0  0  0  0  0  0  0  0
  138.7804   77.6310  221.2981 H   0  0  0  0  0  0  0  0  0  0  0  0
  139.7728   78.0992  222.7326 H   0  0  0  0  0  0  0  0  0  0  0  0
  1  2  1  0
  2  3  1  0
  3  4  2  0
  3  5  1  0
  5  6  1  0
  6  7  2  0
  7  8  1  0
  8  9  2  0
  9 10  1  0
 10 11  2  0
  5 12  1  0
 12 13  1  0
 13 14  1  0
 14 15  1  0
 15 16  1  0
 16 17  2  0
 16 18  1  0
 18 19  1  0
 18 20  1  0
 20 21  1  0
 21 22  1  0
 22 23  2  0
 23 24  1  0
 24 25  2  0
 25 26  1  0
 26 27  2  0
 27 28  1  0
 28 29  2  0
 29 30  1  0
 30 31  2  0
 15 32  1  0
 32 33  1  0
 11  6  1  0
 33 12  1  0
 31 22  1  0
 30 25  1  0
  1 34  1  0
  1 35  1  0
  1 36  1  0
  2 37  1  0
  2 38  1  0
  7 39  1  0
  8 40  1  0
  9 41  1  0
 10 42  1  0
 11 43  1  0
 12 44  1  0
 13 45  1  0
 13 46  1  0
 14 47  1  0
 14 48  1  0
 18 49  1  6
 19 50  1  0
 19 51  1  0
 19 52  1  0
 20 53  1  0
 21 54  1  0
 21 55  1  0
 23 56  1  0
 24 57  1  0
 26 58  1  0
 27 59  1  0
 28 60  1  0
 29 61  1  0
 31 62  1  0
 32 63  1  0
 32 64  1  0
 33 65  1  0
 33 66  1  0
M  END
>  <smiles>  (8) 
CCC(=O)N(c1ccccc1)C1CCN(C(=O)[C@H](C)NCc2ccc3ccccc3c2)CC1

>  <score_type>  (8) 
oracle

>  <origin>  (8) 
autodockgpu

>  <m_score__min__energy>  (8) 
-9.3699999999999992

>  <m_primary>  (8) 
energy

>  <rmsd>  (8) 
8.591534274337294

>  <m_score__min__rmsd>  (8) 
8.591534274337294

>  <meeko>  (8) 
{"free_energy": -9.08, "intermolecular_energy": -11.46, "internal_energy": -1.58, "cluster_size": 4, "cluster_id": 3, "rank_in_cluster": 1}

>  <energy>  (8) 
-9.22

>  <cluster_rmsd>  (8) 
0.79

>  <cluster>  (8) 
1

$$$$

     RDKit          3D

 66 69  0  0  0  0  0  0  0  0999 V2000
  137.3790   81.2620  225.3330 C   0  0  0  0  0  0  0  0  0  0  0  0
  136.9120   81.2640  223.8630 C   0  0  0  0  0  0  0  0  0  0  0  0
  138.1140   81.0400  223.0590 C   0  0  0  0  0  0  0  0  0  0  0  0
  138.4940   82.0110  222.3150 O   0  0  0  0  0  0  0  0  0  0  0  0
  138.9100   79.8790  223.0010 N   0  0  0  0  0  0  0  0  0  0  0  0
  140.3330   80.1190  222.8290 C   0  0  0  0  0  0  0  0  0  0  0  0
  141.1610   80.1120  223.9360 C   0  0  0  0  0  0  0  0  0  0  0  0
  142.5200   80.3310  223.8580 C   0  0  0  0  0  0  0  0  0  0  0  0
  143.0610   80.5660  222.6080 C   0  0  0  0  0  0  0  0  0  0  0  0
  142.2410   80.5740  221.5060 C   0  0  0  0  0  0  0  0  0  0  0  0
  140.8690   80.3530  221.5860 C   0  0  0  0  0  0  0  0  0  0  0  0
  138.4890   78.5220  223.0790 C   0  0  0  0  0  0  0  0  0  0  0  0
  137.3050   78.1520  222.2350 C   0  0  0  0  0  0  0  0  0  0  0  0
  136.9520   76.7040  222.6280 C   0  0  0  0  0  0  0  0  0  0  0  0
  138.0640   75.9100  222.0860 N   0  0  0  0  0  0  0  0  0  0  0  0
  137.8590   74.5270  221.9740 C   0  0  0  0  0  0  0  0  0  0  0  0
  136.7540   74.0590  222.3400 O   0  0  0  0  0  0  0  0  0  0  0  0
  138.8600   73.5630  221.4500 C   0  0  2  0  0  0  0  0  0  0  0  0
  138.4150   73.0700  220.1160 C   0  0  0  0  0  0  0  0  0  0  0  0
  138.9620   72.5150  222.4400 N   0  0  0  0  0  0  0  0  0  0  0  0
  140.3060   72.3210  222.9430 C   0  0  0  0  0  0  0  0  0  0  0  0
  140.1680   71.2400  223.9860 C   0  0  0  0  0  0  0  0  0  0  0  0
  139.5120   70.0640  223.6760 C   0  0  0  0  0  0  0  0  0  0  0  0
  139.3820   69.0630  224.6350 C   0  0  0  0  0  0  0  0  0  0  0  0
  139.9140   69.2640  225.8870 C   0  0  0  0  0  0  0  0  0  0  0  0
  139.7710   68.2480  226.8280 C   0  0  0  0  0  0  0  0  0  0  0  0
  140.3020   68.4270  228.1060 C   0  0  0  0  0  0  0  0  0  0  0  0
  140.9530   69.6090  228.3960 C   0  0  0  0  0  0  0  0  0  0  0  0
  141.0930   70.6180  227.4520 C   0  0  0  0  0  0  0  0  0  0  0  0
  140.5680   70.4460  226.1810 C   0  0  0  0  0  0  0  0  0  0  0  0
  140.7070   71.4520  225.2390 C   0  0  0  0  0  0  0  0  0  0  0  0
  139.2860   76.5970  221.7060 C   0  0  0  0  0  0  0  0  0  0  0  0
  139.6620   77.6130  222.7640 C   0  0  0  0  0  0  0  0  0  0  0  0
  136.5016   81.2658  225.9965 H   0  0  0  0  0  0  0  0  0  0  0  0
  137.9804   80.3613  225.5254 H   0  0  0  0  0  0  0  0  0  0  0  0
  137.9881   82.1575  225.5254 H   0  0  0  0  0  0  0  0  0  0  0  0
  136.1823   80.4588  223.6925 H   0  0  0  0  0  0  0  0  0  0  0  0
  136.4197   82.2111  223.5974 H   0  0  0  0  0  0  0  0  0  0  0  0
  140.7154   79.9231  224.9238 H   0  0  0  0  0  0  0  0  0  0  0  0
  143.1514   80.3191  224.7587 H   0  0  0  0  0  0  0  0  0  0  0  0
  144.1405   80.7453  222.4965 H   0  0  0  0  0  0  0  0  0  0  0  0
  142.6874   80.7630  220.5186 H   0  0  0  0  0  0  0  0  0  0  0  0
  140.2366   80.3653  220.6860 H   0  0  0  0  0  0  0  0  0  0  0  0
  138.1382   78.3868  224.1128 H   0  0  0  0  0  0  0  0  0  0  0  0
  136.4594   78.8237  222.4443 H   0  0  0  0  0  0  0  0  0  0  0  0
  137.5273   78.2396  221.1613 H   0  0  0  0  0  0  0  0  0  0  0  0
  136.8922   76.5986  223.7213 H   0  0  0  0  0  0  0  0  0  0  0  0
  135.9737   76.3851  222.2390 H   0  0  0  0  0  0  0  0  0  0  0  0
  139.8525   74.0107  221.2931 H   0  0  0  0  0  0  0  0  0  0  0  0
  137.6834   72.2595  220.2500 H   0  0  0  0  0  0  0  0  0  0  0  0
  137.9498   73.8951  219.5567 H   0  0  0  0  0  0  0  0  0  0  0  0
  139.2832   72.6915  219.5567 H   0  0  0  0  0  0  0  0  0  0  0  0
  138.2760   72.6740  223.1810 H   0  0  0  0  0  0  0  0  0  0  0  0
  140.9802   71.9984  222.1359 H   0  0  0  0  0  0  0  0  0  0  0  0
  140.7356   73.2462  223.3546 H   0  0  0  0  0  0  0  0  0  0  0  0
  139.0918   69.9184  222.6699 H   0  0  0  0  0  0  0  0  0  0  0  0
  138.8610   68.1245  224.3945 H   0  0  0  0  0  0  0  0  0  0  0  0
  139.2465   67.3168  226.5676 H   0  0  0  0  0  0  0  0  0  0  0  0
  140.2035   67.6403  228.8685 H   0  0  0  0  0  0  0  0  0  0  0  0
  141.3724   69.7559  229.4023 H   0  0  0  0  0  0  0  0  0  0  0  0
  141.6180   71.5491  227.7118 H   0  0  0  0  0  0  0  0  0  0  0  0
  141.2297   72.3890  225.4815 H   0  0  0  0  0  0  0  0  0  0  0  0
  140.0986   75.8630  221.6013 H   0  0  0  0  0  0  0  0  0  0  0  0
  139.1249   77.1159  220.7495 H   0  0  0  0  0  0  0  0  0  0  0  0
  139.9649   77.0846  223.6800 H   0  0  0  0  0  0  0  0  0  0  0  0
  140.4918   78.2270  222.3841 H   0  0  0  0  0  0  0  0  0  0  0  0
  1  2  1  0
  2  3  1  0
  3  4  2  0
  3  5  1  0
  5  6  1  0
  6  7  2  0
  7  8  1  0
  8  9  2  0
  9 10  1  0
 10 11  2  0
  5 12  1  0
 12 13  1  0
 13 14  1  0
 14 15  1  0
 15 16  1  0
 16 17  2  0
 16 18  1  0
 18 19  1  0
 18 20  1  0
 20 21  1  0
 21 22  1  0
 22 23  2  0
 23 24  1  0
 24 25  2  0
 25 26  1  0
 26 27  2  0
 27 28  1  0
 28 29  2  0
 29 30  1  0
 30 31  2  0
 15 32  1  0
 32 33  1  0
 11  6  1  0
 33 12  1  0
 31 22  1  0
 30 25  1  0
  1 34  1  0
  1 35  1  0
  1 36  1  0
  2 37  1  0
  2 38  1  0
  7 39  1  0
  8 40  1  0
  9 41  1  0
 10 42  1  0
 11 43  1  0
 12 44  1  0
 13 45  1  0
 13 46  1  0
 14 47  1  0
 14 48  1  0
 18 49  1  6
 19 50  1  0
 19 51  1  0
 19 52  1  0
 20 53  1  0
 21 54  1  0
 21 55  1  0
 23 56  1  0
 24 57  1  0
 26 58  1  0
 27 59  1  0
 28 60  1  0
 29 61  1  0
 31 62  1  0
 32 63  1  0
 32 64  1  0
 33 65  1  0
 33 66  1  0
M  END
>  <smiles>  (9) 
CCC(=O)N(c1ccccc1)C1CCN(C(=O)[C@H](C)NCc2ccc3ccccc3c2)CC1

>  <score_type>  (9) 
oracle

>  <origin>  (9) 
autodockgpu

>  <m_score__min__energy>  (9) 
-9.3699999999999992

>  <m_primary>  (9) 
energy

>  <rmsd>  (9) 
9.147986819085125

>  <m_score__min__rmsd>  (9) 
9.147986819085125

>  <meeko>  (9) 
{"free_energy": -8.91, "intermolecular_energy": -11.3, "internal_energy": -2.19, "cluster_size": 36, "cluster_id": 1, "rank_in_cluster": 18}

>  <energy>  (9) 
-9.2

>  <cluster_rmsd>  (9) 
0.98

>  <cluster>  (9) 
1

$$$$

     RDKit          3D

 66 69  0  0  0  0  0  0  0  0999 V2000
  142.9480   77.0420  219.1030 C   0  0  0  0  0  0  0  0  0  0  0  0
  141.6040   77.7930  219.0120 C   0  0  0  0  0  0  0  0  0  0  0  0
  141.6170   78.7750  220.0960 C   0  0  0  0  0  0  0  0  0  0  0  0
  142.0960   79.9300  219.8170 O   0  0  0  0  0  0  0  0  0  0  0  0
  141.1630   78.6070  221.4190 N   0  0  0  0  0  0  0  0  0  0  0  0
  141.6830   79.5710  222.3740 C   0  0  0  0  0  0  0  0  0  0  0  0
  140.8390   80.5330  222.8960 C   0  0  0  0  0  0  0  0  0  0  0  0
  141.2540   81.4830  223.8050 C   0  0  0  0  0  0  0  0  0  0  0  0
  142.5770   81.4550  224.2010 C   0  0  0  0  0  0  0  0  0  0  0  0
  143.4200   80.5010  223.6850 C   0  0  0  0  0  0  0  0  0  0  0  0
  143.0000   79.5430  222.7670 C   0  0  0  0  0  0  0  0  0  0  0  0
  140.2780   77.6130  221.9230 C   0  0  0  0  0  0  0  0  0  0  0  0
  138.8250   77.7990  221.5950 C   0  0  0  0  0  0  0  0  0  0  0  0
  138.0770   76.7100  222.3890 C   0  0  0  0  0  0  0  0  0  0  0  0
  138.4580   75.4600  221.7170 N   0  0  0  0  0  0  0  0  0  0  0  0
  137.6690   74.3320  221.9840 C   0  0  0  0  0  0  0  0  0  0  0  0
  136.6990   74.4580  222.7710 O   0  0  0  0  0  0  0  0  0  0  0  0
  137.8930   72.9840  221.4010 C   0  0  2  0  0  0  0  0  0  0  0  0
  136.6850   72.5760  220.6300 C   0  0  0  0  0  0  0  0  0  0  0  0
  138.1800   72.1100  222.5160 N   0  0  0  0  0  0  0  0  0  0  0  0
  139.5160   71.5510  222.4840 C   0  0  0  0  0  0  0  0  0  0  0  0
  139.6430   70.8010  223.7870 C   0  0  0  0  0  0  0  0  0  0  0  0
  139.1630   69.5090  223.8860 C   0  0  0  0  0  0  0  0  0  0  0  0
  139.2780   68.8120  225.0860 C   0  0  0  0  0  0  0  0  0  0  0  0
  139.8730   69.4260  226.1620 C   0  0  0  0  0  0  0  0  0  0  0  0
  139.9750   68.7080  227.3510 C   0  0  0  0  0  0  0  0  0  0  0  0
  140.5760   69.3100  228.4580 C   0  0  0  0  0  0  0  0  0  0  0  0
  141.0490   70.6010  228.3370 C   0  0  0  0  0  0  0  0  0  0  0  0
  140.9430   71.3120  227.1490 C   0  0  0  0  0  0  0  0  0  0  0  0
  140.3490   70.7200  226.0460 C   0  0  0  0  0  0  0  0  0  0  0  0
  140.2430   71.4280  224.8610 C   0  0  0  0  0  0  0  0  0  0  0  0
  139.6100   75.4710  220.8320 C   0  0  0  0  0  0  0  0  0  0  0  0
  140.7470   76.2440  221.4670 C   0  0  0  0  0  0  0  0  0  0  0  0
  143.2141   76.8933  220.1599 H   0  0  0  0  0  0  0  0  0  0  0  0
  142.8561   76.0645  218.6070 H   0  0  0  0  0  0  0  0  0  0  0  0
  143.7323   77.6326  218.6070 H   0  0  0  0  0  0  0  0  0  0  0  0
  141.5137   78.2986  218.0393 H   0  0  0  0  0  0  0  0  0  0  0  0
  140.7508   77.1046  219.1020 H   0  0  0  0  0  0  0  0  0  0  0  0
  139.7880   80.5411  222.5714 H   0  0  0  0  0  0  0  0  0  0  0  0
  140.5566   82.2361  224.2006 H   0  0  0  0  0  0  0  0  0  0  0  0
  142.9534   82.1923  224.9254 H   0  0  0  0  0  0  0  0  0  0  0  0
  144.4706   80.4940  224.0109 H   0  0  0  0  0  0  0  0  0  0  0  0
  143.6970   78.7903  222.3701 H   0  0  0  0  0  0  0  0  0  0  0  0
  140.3243   77.7132  223.0175 H   0  0  0  0  0  0  0  0  0  0  0  0
  138.4869   78.7993  221.9034 H   0  0  0  0  0  0  0  0  0  0  0  0
  138.6381   77.7149  220.5143 H   0  0  0  0  0  0  0  0  0  0  0  0
  138.3978   76.7025  223.4412 H   0  0  0  0  0  0  0  0  0  0  0  0
  136.9886   76.8686  222.4058 H   0  0  0  0  0  0  0  0  0  0  0  0
  138.7320   72.9522  220.6903 H   0  0  0  0  0  0  0  0  0  0  0  0
  135.8793   72.3039  221.3277 H   0  0  0  0  0  0  0  0  0  0  0  0
  136.3545   73.4124  219.9965 H   0  0  0  0  0  0  0  0  0  0  0  0
  136.9293   71.7105  219.9965 H   0  0  0  0  0  0  0  0  0  0  0  0
  137.9660   72.5880  223.3920 H   0  0  0  0  0  0  0  0  0  0  0  0
  139.6314   70.8681  221.6294 H   0  0  0  0  0  0  0  0  0  0  0  0
  140.2902   72.3239  222.3691 H   0  0  0  0  0  0  0  0  0  0  0  0
  138.6895   69.0306  223.0160 H   0  0  0  0  0  0  0  0  0  0  0  0
  138.8976   67.7834  225.1716 H   0  0  0  0  0  0  0  0  0  0  0  0
  139.5874   67.6807  227.4170 H   0  0  0  0  0  0  0  0  0  0  0  0
  140.6708   68.7655  229.4091 H   0  0  0  0  0  0  0  0  0  0  0  0
  141.5233   71.0801  229.2062 H   0  0  0  0  0  0  0  0  0  0  0  0
  141.3287   72.3401  227.0839 H   0  0  0  0  0  0  0  0  0  0  0  0
  140.6243   72.4564  224.7778 H   0  0  0  0  0  0  0  0  0  0  0  0
  139.9338   74.4368  220.6435 H   0  0  0  0  0  0  0  0  0  0  0  0
  139.3311   75.9546  219.8842 H   0  0  0  0  0  0  0  0  0  0  0  0
  141.1234   75.6837  222.3356 H   0  0  0  0  0  0  0  0  0  0  0  0
  141.5449   76.3746  220.7212 H   0  0  0  0  0  0  0  0  0  0  0  0
  1  2  1  0
  2  3  1  0
  3  4  2  0
  3  5  1  0
  5  6  1  0
  6  7  2  0
  7  8  1  0
  8  9  2  0
  9 10  1  0
 10 11  2  0
  5 12  1  0
 12 13  1  0
 13 14  1  0
 14 15  1  0
 15 16  1  0
 16 17  2  0
 16 18  1  0
 18 19  1  0
 18 20  1  0
 20 21  1  0
 21 22  1  0
 22 23  2  0
 23 24  1  0
 24 25  2  0
 25 26  1  0
 26 27  2  0
 27 28  1  0
 28 29  2  0
 29 30  1  0
 30 31  2  0
 15 32  1  0
 32 33  1  0
 11  6  1  0
 33 12  1  0
 31 22  1  0
 30 25  1  0
  1 34  1  0
  1 35  1  0
  1 36  1  0
  2 37  1  0
  2 38  1  0
  7 39  1  0
  8 40  1  0
  9 41  1  0
 10 42  1  0
 11 43  1  0
 12 44  1  0
 13 45  1  0
 13 46  1  0
 14 47  1  0
 14 48  1  0
 18 49  1  6
 19 50  1  0
 19 51  1  0
 19 52  1  0
 20 53  1  0
 21 54  1  0
 21 55  1  0
 23 56  1  0
 24 57  1  0
 26 58  1  0
 27 59  1  0
 28 60  1  0
 29 61  1  0
 31 62  1  0
 32 63  1  0
 32 64  1  0
 33 65  1  0
 33 66  1  0
M  END
>  <smiles>  (10) 
CCC(=O)N(c1ccccc1)C1CCN(C(=O)[C@H](C)NCc2ccc3ccccc3c2)CC1

>  <score_type>  (10) 
oracle

>  <origin>  (10) 
autodockgpu

>  <m_score__min__energy>  (10) 
-9.3699999999999992

>  <m_primary>  (10) 
energy

>  <rmsd>  (10) 
9.150002821667128

>  <m_score__min__rmsd>  (10) 
9.150002821667128

>  <meeko>  (10) 
{"free_energy": -9.16, "intermolecular_energy": -11.54, "internal_energy": -2.03, "cluster_size": 36, "cluster_id": 1, "rank_in_cluster": 14}

>  <energy>  (10) 
-9.19

>  <cluster_rmsd>  (10) 
0.76

>  <cluster>  (10) 
1

$$$$

     RDKit          3D

 66 69  0  0  0  0  0  0  0  0999 V2000
  137.7220   80.9430  224.9250 C   0  0  0  0  0  0  0  0  0  0  0  0
  137.6940   81.8180  223.6550 C   0  0  0  0  0  0  0  0  0  0  0  0
  138.3390   81.0270  222.6060 C   0  0  0  0  0  0  0  0  0  0  0  0
  138.1790   81.4340  221.4020 O   0  0  0  0  0  0  0  0  0  0  0  0
  139.1210   79.8650  222.7590 N   0  0  0  0  0  0  0  0  0  0  0  0
  140.5580   80.0840  222.7360 C   0  0  0  0  0  0  0  0  0  0  0  0
  141.2810   79.9670  223.9080 C   0  0  0  0  0  0  0  0  0  0  0  0
  142.6450   80.1600  223.9710 C   0  0  0  0  0  0  0  0  0  0  0  0
  143.3010   80.4830  222.7990 C   0  0  0  0  0  0  0  0  0  0  0  0
  142.5860   80.6010  221.6320 C   0  0  0  0  0  0  0  0  0  0  0  0
  141.2090   80.4070  221.5700 C   0  0  0  0  0  0  0  0  0  0  0  0
  138.6760   78.5230  222.9180 C   0  0  0  0  0  0  0  0  0  0  0  0
  137.3530   78.1910  222.2930 C   0  0  0  0  0  0  0  0  0  0  0  0
  137.0250   76.7560  222.7520 C   0  0  0  0  0  0  0  0  0  0  0  0
  138.0010   75.9250  222.0340 N   0  0  0  0  0  0  0  0  0  0  0  0
  137.7350   74.5490  221.9700 C   0  0  0  0  0  0  0  0  0  0  0  0
  136.6940   74.1190  222.5240 O   0  0  0  0  0  0  0  0  0  0  0  0
  138.5990   73.5500  221.2910 C   0  0  2  0  0  0  0  0  0  0  0  0
  138.0580   73.2790  219.9290 C   0  0  0  0  0  0  0  0  0  0  0  0
  138.6090   72.3830  222.1430 N   0  0  0  0  0  0  0  0  0  0  0  0
  139.8840   71.6970  222.1720 C   0  0  0  0  0  0  0  0  0  0  0  0
  139.9230   71.0280  223.5230 C   0  0  0  0  0  0  0  0  0  0  0  0
  139.4070   69.7560  223.6770 C   0  0  0  0  0  0  0  0  0  0  0  0
  139.4410   69.1340  224.9230 C   0  0  0  0  0  0  0  0  0  0  0  0
  139.9940   69.8030  225.9890 C   0  0  0  0  0  0  0  0  0  0  0  0
  140.0150   69.1600  227.2240 C   0  0  0  0  0  0  0  0  0  0  0  0
  140.5710   69.8180  228.3220 C   0  0  0  0  0  0  0  0  0  0  0  0
  141.0810   71.0880  228.1470 C   0  0  0  0  0  0  0  0  0  0  0  0
  141.0560   71.7240  226.9130 C   0  0  0  0  0  0  0  0  0  0  0  0
  140.5060   71.0760  225.8190 C   0  0  0  0  0  0  0  0  0  0  0  0
  140.4810   71.7100  224.5870 C   0  0  0  0  0  0  0  0  0  0  0  0
  139.1620   76.5690  221.4450 C   0  0  0  0  0  0  0  0  0  0  0  0
  139.7470   77.5750  222.4150 C   0  0  0  0  0  0  0  0  0  0  0  0
  137.7013   81.5884  225.8155 H   0  0  0  0  0  0  0  0  0  0  0  0
  136.8446   80.2796  224.9326 H   0  0  0  0  0  0  0  0  0  0  0  0
  138.6400   80.3370  224.9326 H   0  0  0  0  0  0  0  0  0  0  0  0
  136.6563   82.0513  223.3743 H   0  0  0  0  0  0  0  0  0  0  0  0
  138.2119   82.7754  223.8138 H   0  0  0  0  0  0  0  0  0  0  0  0
  140.7441   79.7082  224.8325 H   0  0  0  0  0  0  0  0  0  0  0  0
  143.1912   80.0603  224.9206 H   0  0  0  0  0  0  0  0  0  0  0  0
  144.3890   80.6447  222.8002 H   0  0  0  0  0  0  0  0  0  0  0  0
  143.1240   80.8596  220.7080 H   0  0  0  0  0  0  0  0  0  0  0  0
  140.6616   80.5087  220.6213 H   0  0  0  0  0  0  0  0  0  0  0  0
  138.5035   78.4016  223.9976 H   0  0  0  0  0  0  0  0  0  0  0  0
  136.5785   78.8912  222.6392 H   0  0  0  0  0  0  0  0  0  0  0  0
  137.3904   78.2687  221.1964 H   0  0  0  0  0  0  0  0  0  0  0  0
  137.1498   76.6548  223.8402 H   0  0  0  0  0  0  0  0  0  0  0  0
  135.9846   76.4692  222.5389 H   0  0  0  0  0  0  0  0  0  0  0  0
  139.6319   73.8989  221.1446 H   0  0  0  0  0  0  0  0  0  0  0  0
  137.0775   72.7878  220.0150 H   0  0  0  0  0  0  0  0  0  0  0  0
  137.9463   74.2276  219.3834 H   0  0  0  0  0  0  0  0  0  0  0  0
  138.7509   72.6215  219.3834 H   0  0  0  0  0  0  0  0  0  0  0  0
  138.2670   72.6340  223.0730 H   0  0  0  0  0  0  0  0  0  0  0  0
  139.9419   70.9501  221.3666 H   0  0  0  0  0  0  0  0  0  0  0  0
  140.7309   72.3823  222.0203 H   0  0  0  0  0  0  0  0  0  0  0  0
  138.9684   69.2332  222.8142 H   0  0  0  0  0  0  0  0  0  0  0  0
  139.0310   68.1215  225.0521 H   0  0  0  0  0  0  0  0  0  0  0  0
  139.5991   68.1475  227.3326 H   0  0  0  0  0  0  0  0  0  0  0  0
  140.6021   69.3330  229.3088 H   0  0  0  0  0  0  0  0  0  0  0  0
  141.5197   71.6114  229.0093 H   0  0  0  0  0  0  0  0  0  0  0  0
  141.4707   72.7370  226.8046 H   0  0  0  0  0  0  0  0  0  0  0  0
  140.8918   72.7226  224.4605 H   0  0  0  0  0  0  0  0  0  0  0  0
  139.9200   75.8075  221.2093 H   0  0  0  0  0  0  0  0  0  0  0  0
  138.8570   77.0904  220.5257 H   0  0  0  0  0  0  0  0  0  0  0  0
  140.1849   77.0391  223.2700 H   0  0  0  0  0  0  0  0  0  0  0  0
  140.5192   78.1598  221.8937 H   0  0  0  0  0  0  0  0  0  0  0  0
  1  2  1  0
  2  3  1  0
  3  4  2  0
  3  5  1  0
  5  6  1  0
  6  7  2  0
  7  8  1  0
  8  9  2  0
  9 10  1  0
 10 11  2  0
  5 12  1  0
 12 13  1  0
 13 14  1  0
 14 15  1  0
 15 16  1  0
 16 17  2  0
 16 18  1  0
 18 19  1  0
 18 20  1  0
 20 21  1  0
 21 22  1  0
 22 23  2  0
 23 24  1  0
 24 25  2  0
 25 26  1  0
 26 27  2  0
 27 28  1  0
 28 29  2  0
 29 30  1  0
 30 31  2  0
 15 32  1  0
 32 33  1  0
 11  6  1  0
 33 12  1  0
 31 22  1  0
 30 25  1  0
  1 34  1  0
  1 35  1  0
  1 36  1  0
  2 37  1  0
  2 38  1  0
  7 39  1  0
  8 40  1  0
  9 41  1  0
 10 42  1  0
 11 43  1  0
 12 44  1  0
 13 45  1  0
 13 46  1  0
 14 47  1  0
 14 48  1  0
 18 49  1  6
 19 50  1  0
 19 51  1  0
 19 52  1  0
 20 53  1  0
 21 54  1  0
 21 55  1  0
 23 56  1  0
 24 57  1  0
 26 58  1  0
 27 59  1  0
 28 60  1  0
 29 61  1  0
 31 62  1  0
 32 63  1  0
 32 64  1  0
 33 65  1  0
 33 66  1  0
M  END
>  <smiles>  (11) 
CCC(=O)N(c1ccccc1)C1CCN(C(=O)[C@H](C)NCc2ccc3ccccc3c2)CC1

>  <score_type>  (11) 
oracle

>  <origin>  (11) 
autodockgpu

>  <m_score__min__energy>  (11) 
-9.3699999999999992

>  <m_primary>  (11) 
energy

>  <rmsd>  (11) 
9.114304114804069

>  <m_score__min__rmsd>  (11) 
9.114304114804069

>  <meeko>  (11) 
{"free_energy": -8.79, "intermolecular_energy": -11.17, "internal_energy": -2.24, "cluster_size": 36, "cluster_id": 1, "rank_in_cluster": 21}

>  <energy>  (11) 
-9.16

>  <cluster_rmsd>  (11) 
0.76

>  <cluster>  (11) 
1

$$$$

     RDKit          3D

 66 69  0  0  0  0  0  0  0  0999 V2000
  142.5320   79.0320  217.9710 C   0  0  0  0  0  0  0  0  0  0  0  0
  141.7760   79.4950  219.2340 C   0  0  0  0  0  0  0  0  0  0  0  0
  141.8500   78.3800  220.1790 C   0  0  0  0  0  0  0  0  0  0  0  0
  142.5390   77.3650  219.8140 O   0  0  0  0  0  0  0  0  0  0  0  0
  141.2520   78.2870  221.4510 N   0  0  0  0  0  0  0  0  0  0  0  0
  141.6140   79.3440  222.3800 C   0  0  0  0  0  0  0  0  0  0  0  0
  142.9440   79.5300  222.7110 C   0  0  0  0  0  0  0  0  0  0  0  0
  143.3700   80.5090  223.5840 C   0  0  0  0  0  0  0  0  0  0  0  0
  142.4100   81.3300  224.1430 C   0  0  0  0  0  0  0  0  0  0  0  0
  141.0880   81.1480  223.8180 C   0  0  0  0  0  0  0  0  0  0  0  0
  140.6590   80.1600  222.9370 C   0  0  0  0  0  0  0  0  0  0  0  0
  140.3570   77.2880  221.9280 C   0  0  0  0  0  0  0  0  0  0  0  0
  138.9590   77.3450  221.3860 C   0  0  0  0  0  0  0  0  0  0  0  0
  138.1630   76.2880  222.1770 C   0  0  0  0  0  0  0  0  0  0  0  0
  138.7020   75.0090  221.6970 N   0  0  0  0  0  0  0  0  0  0  0  0
  137.9430   73.8600  221.9680 C   0  0  0  0  0  0  0  0  0  0  0  0
  136.8650   73.9960  222.5960 O   0  0  0  0  0  0  0  0  0  0  0  0
  138.3200   72.4820  221.5640 C   0  0  2  0  0  0  0  0  0  0  0  0
  137.6400   72.1430  220.2820 C   0  0  0  0  0  0  0  0  0  0  0  0
  137.9300   71.6230  222.6590 N   0  0  0  0  0  0  0  0  0  0  0  0
  138.6680   70.3780  222.7100 C   0  0  0  0  0  0  0  0  0  0  0  0
  139.3160   70.3770  224.0720 C   0  0  0  0  0  0  0  0  0  0  0  0
  140.0120   71.4900  224.5030 C   0  0  0  0  0  0  0  0  0  0  0  0
  140.6120   71.4940  225.7600 C   0  0  0  0  0  0  0  0  0  0  0  0
  140.5010   70.3800  226.5580 C   0  0  0  0  0  0  0  0  0  0  0  0
  141.1100   70.4090  227.8100 C   0  0  0  0  0  0  0  0  0  0  0  0
  141.0120   69.2900  228.6390 C   0  0  0  0  0  0  0  0  0  0  0  0
  140.3130   68.1890  228.1880 C   0  0  0  0  0  0  0  0  0  0  0  0
  139.7070   68.1660  226.9380 C   0  0  0  0  0  0  0  0  0  0  0  0
  139.8010   69.2740  226.1110 C   0  0  0  0  0  0  0  0  0  0  0  0
  139.1980   69.2520  224.8640 C   0  0  0  0  0  0  0  0  0  0  0  0
  139.9670   75.0120  220.9830 C   0  0  0  0  0  0  0  0  0  0  0  0
  140.9580   75.9170  221.6850 C   0  0  0  0  0  0  0  0  0  0  0  0
  143.4355   78.4786  218.2667 H   0  0  0  0  0  0  0  0  0  0  0  0
  141.8806   78.3777  217.3730 H   0  0  0  0  0  0  0  0  0  0  0  0
  142.8188   79.9096  217.3730 H   0  0  0  0  0  0  0  0  0  0  0  0
  142.2545   80.3894  219.6597 H   0  0  0  0  0  0  0  0  0  0  0  0
  140.7335   79.7610  219.0051 H   0  0  0  0  0  0  0  0  0  0  0  0
  143.6958   78.8673  222.2575 H   0  0  0  0  0  0  0  0  0  0  0  0
  144.4359   80.6317  223.8264 H   0  0  0  0  0  0  0  0  0  0  0  0
  142.7027   82.1251  224.8445 H   0  0  0  0  0  0  0  0  0  0  0  0
  140.3372   81.8108  224.2730 H   0  0  0  0  0  0  0  0  0  0  0  0
  139.5931   80.0366  222.6950 H   0  0  0  0  0  0  0  0  0  0  0  0
  140.2400   77.4940  223.0022 H   0  0  0  0  0  0  0  0  0  0  0  0
  138.5279   78.3451  221.5407 H   0  0  0  0  0  0  0  0  0  0  0  0
  138.9340   77.1472  220.3042 H   0  0  0  0  0  0  0  0  0  0  0  0
  138.3287   76.4015  223.2585 H   0  0  0  0  0  0  0  0  0  0  0  0
  137.0768   76.3742  222.0265 H   0  0  0  0  0  0  0  0  0  0  0  0
  139.3978   72.3651  221.3776 H   0  0  0  0  0  0  0  0  0  0  0  0
  136.6742   71.6615  220.4953 H   0  0  0  0  0  0  0  0  0  0  0  0
  137.4712   73.0624  219.7022 H   0  0  0  0  0  0  0  0  0  0  0  0
  138.2726   71.4548  219.7022 H   0  0  0  0  0  0  0  0  0  0  0  0
  137.9680   72.1470  223.5360 H   0  0  0  0  0  0  0  0  0  0  0  0
  137.9892   69.5192  222.6020 H   0  0  0  0  0  0  0  0  0  0  0  0
  139.4044   70.2953  221.8970 H   0  0  0  0  0  0  0  0  0  0  0  0
  140.0923   72.3737  223.8529 H   0  0  0  0  0  0  0  0  0  0  0  0
  141.1673   72.3768  226.1096 H   0  0  0  0  0  0  0  0  0  0  0  0
  141.6609   71.3016  228.1413 H   0  0  0  0  0  0  0  0  0  0  0  0
  141.4831   69.2860  229.6330 H   0  0  0  0  0  0  0  0  0  0  0  0
  140.2333   67.3042  228.8367 H   0  0  0  0  0  0  0  0  0  0  0  0
  139.1558   67.2735  226.6067 H   0  0  0  0  0  0  0  0  0  0  0  0
  138.6437   68.3678  224.5163 H   0  0  0  0  0  0  0  0  0  0  0  0
  140.3688   73.9885  220.9501 H   0  0  0  0  0  0  0  0  0  0  0  0
  139.8026   75.3823  219.9603 H   0  0  0  0  0  0  0  0  0  0  0  0
  141.2349   75.4684  222.6504 H   0  0  0  0  0  0  0  0  0  0  0  0
  141.8464   76.0297  221.0462 H   0  0  0  0  0  0  0  0  0  0  0  0
  1  2  1  0
  2  3  1  0
  3  4  2  0
  3  5  1  0
  5  6  1  0
  6  7  2  0
  7  8  1  0
  8  9  2  0
  9 10  1  0
 10 11  2  0
  5 12  1  0
 12 13  1  0
 13 14  1  0
 14 15  1  0
 15 16  1  0
 16 17  2  0
 16 18  1  0
 18 19  1  0
 18 20  1  0
 20 21  1  0
 21 22  1  0
 22 23  2  0
 23 24  1  0
 24 25  2  0
 25 26  1  0
 26 27  2  0
 27 28  1  0
 28 29  2  0
 29 30  1  0
 30 31  2  0
 15 32  1  0
 32 33  1  0
 11  6  1  0
 33 12  1  0
 31 22  1  0
 30 25  1  0
  1 34  1  0
  1 35  1  0
  1 36  1  0
  2 37  1  0
  2 38  1  0
  7 39  1  0
  8 40  1  0
  9 41  1  0
 10 42  1  0
 11 43  1  0
 12 44  1  0
 13 45  1  0
 13 46  1  0
 14 47  1  0
 14 48  1  0
 18 49  1  6
 19 50  1  0
 19 51  1  0
 19 52  1  0
 20 53  1  0
 21 54  1  0
 21 55  1  0
 23 56  1  0
 24 57  1  0
 26 58  1  0
 27 59  1  0
 28 60  1  0
 29 61  1  0
 31 62  1  0
 32 63  1  0
 32 64  1  0
 33 65  1  0
 33 66  1  0
M  END
>  <smiles>  (12) 
CCC(=O)N(c1ccccc1)C1CCN(C(=O)[C@H](C)NCc2ccc3ccccc3c2)CC1

>  <score_type>  (12) 
oracle

>  <origin>  (12) 
autodockgpu

>  <m_score__min__energy>  (12) 
-9.3699999999999992

>  <m_primary>  (12) 
energy

>  <rmsd>  (12) 
8.43957874985381

>  <m_score__min__rmsd>  (12) 
8.43957874985381

>  <meeko>  (12) 
{"free_energy": -9.22, "intermolecular_energy": -11.61, "internal_energy": -2.06, "cluster_size": 36, "cluster_id": 1, "rank_in_cluster": 8}

>  <energy>  (12) 
-9.16

>  <cluster_rmsd>  (12) 
1.11

>  <cluster>  (12) 
1

$$$$

     RDKit          3D

 66 69  0  0  0  0  0  0  0  0999 V2000
  142.6380   77.5350  217.7130 C   0  0  0  0  0  0  0  0  0  0  0  0
  141.8880   78.2910  218.8290 C   0  0  0  0  0  0  0  0  0  0  0  0
  142.1460   77.5490  220.0630 C   0  0  0  0  0  0  0  0  0  0  0  0
  143.1440   76.7460  220.0500 O   0  0  0  0  0  0  0  0  0  0  0  0
  141.4270   77.6090  221.2730 N   0  0  0  0  0  0  0  0  0  0  0  0
  141.7030   78.7760  222.0940 C   0  0  0  0  0  0  0  0  0  0  0  0
  141.8110   80.0180  221.4950 C   0  0  0  0  0  0  0  0  0  0  0  0
  142.0720   81.1720  222.2020 C   0  0  0  0  0  0  0  0  0  0  0  0
  142.2300   81.0630  223.5710 C   0  0  0  0  0  0  0  0  0  0  0  0
  142.1250   79.8310  224.1690 C   0  0  0  0  0  0  0  0  0  0  0  0
  141.8610   78.6660  223.4540 C   0  0  0  0  0  0  0  0  0  0  0  0
  140.4860   76.6710  221.7810 C   0  0  0  0  0  0  0  0  0  0  0  0
  139.0390   77.0350  221.6150 C   0  0  0  0  0  0  0  0  0  0  0  0
  138.2490   75.9630  222.3900 C   0  0  0  0  0  0  0  0  0  0  0  0
  138.4260   74.7450  221.5860 N   0  0  0  0  0  0  0  0  0  0  0  0
  137.5430   73.6850  221.8400 C   0  0  0  0  0  0  0  0  0  0  0  0
  136.6690   73.8400  222.7270 O   0  0  0  0  0  0  0  0  0  0  0  0
  137.5630   72.3790  221.1330 C   0  0  2  0  0  0  0  0  0  0  0  0
  136.2880   72.2100  220.3790 C   0  0  0  0  0  0  0  0  0  0  0  0
  137.7590   71.3750  222.1530 N   0  0  0  0  0  0  0  0  0  0  0  0
  139.0870   70.7970  222.1490 C   0  0  0  0  0  0  0  0  0  0  0  0
  139.3760   70.5020  223.6010 C   0  0  0  0  0  0  0  0  0  0  0  0
  138.8760   69.3530  224.1820 C   0  0  0  0  0  0  0  0  0  0  0  0
  139.1400   69.0760  225.5210 C   0  0  0  0  0  0  0  0  0  0  0  0
  139.9000   69.9600  226.2490 C   0  0  0  0  0  0  0  0  0  0  0  0
  140.1490   69.6600  227.5860 C   0  0  0  0  0  0  0  0  0  0  0  0
  140.9190   70.5420  228.3470 C   0  0  0  0  0  0  0  0  0  0  0  0
  141.4080   71.6850  227.7470 C   0  0  0  0  0  0  0  0  0  0  0  0
  141.1560   71.9780  226.4130 C   0  0  0  0  0  0  0  0  0  0  0  0
  140.3930   71.1060  225.6530 C   0  0  0  0  0  0  0  0  0  0  0  0
  140.1400   71.3970  224.3220 C   0  0  0  0  0  0  0  0  0  0  0  0
  139.4880   74.7160  220.5950 C   0  0  0  0  0  0  0  0  0  0  0  0
  140.7560   75.3080  221.1740 C   0  0  0  0  0  0  0  0  0  0  0  0
  143.3447   76.8226  218.1637 H   0  0  0  0  0  0  0  0  0  0  0  0
  141.9145   76.9891  217.0897 H   0  0  0  0  0  0  0  0  0  0  0  0
  143.1897   78.2542  217.0897 H   0  0  0  0  0  0  0  0  0  0  0  0
  142.2675   79.3198  218.9153 H   0  0  0  0  0  0  0  0  0  0  0  0
  140.8107   78.3573  218.6167 H   0  0  0  0  0  0  0  0  0  0  0  0
  141.6828   80.0880  220.4047 H   0  0  0  0  0  0  0  0  0  0  0  0
  142.1517   82.1449  221.6950 H   0  0  0  0  0  0  0  0  0  0  0  0
  142.4384   81.9569  224.1773 H   0  0  0  0  0  0  0  0  0  0  0  0
  142.2550   79.7619  225.2591 H   0  0  0  0  0  0  0  0  0  0  0  0
  141.7818   77.6925  223.9600 H   0  0  0  0  0  0  0  0  0  0  0  0
  140.6418   76.6673  222.8699 H   0  0  0  0  0  0  0  0  0  0  0  0
  138.8439   78.0332  222.0340 H   0  0  0  0  0  0  0  0  0  0  0  0
  138.7472   77.0678  220.5549 H   0  0  0  0  0  0  0  0  0  0  0  0
  138.6605   75.8280  223.4012 H   0  0  0  0  0  0  0  0  0  0  0  0
  137.1911   76.2313  222.5272 H   0  0  0  0  0  0  0  0  0  0  0  0
  138.3694   72.3009  220.3889 H   0  0  0  0  0  0  0  0  0  0  0  0
  135.4545   72.0995  221.0882 H   0  0  0  0  0  0  0  0  0  0  0  0
  136.1164   73.0933  219.7462 H   0  0  0  0  0  0  0  0  0  0  0  0
  136.3524   71.3125  219.7462 H   0  0  0  0  0  0  0  0  0  0  0  0
  137.4890   71.7520  223.0630 H   0  0  0  0  0  0  0  0  0  0  0  0
  139.1068   69.8726  221.5532 H   0  0  0  0  0  0  0  0  0  0  0  0
  139.8342   71.4694  221.7023 H   0  0  0  0  0  0  0  0  0  0  0  0
  138.2685   68.6558  223.5863 H   0  0  0  0  0  0  0  0  0  0  0  0
  138.7457   68.1622  225.9896 H   0  0  0  0  0  0  0  0  0  0  0  0
  139.7448   68.7413  228.0362 H   0  0  0  0  0  0  0  0  0  0  0  0
  141.1320   70.3299  229.4051 H   0  0  0  0  0  0  0  0  0  0  0  0
  142.0144   72.3835  228.3423 H   0  0  0  0  0  0  0  0  0  0  0  0
  141.5597   72.8967  225.9625 H   0  0  0  0  0  0  0  0  0  0  0  0
  140.5352   72.3114  223.8554 H   0  0  0  0  0  0  0  0  0  0  0  0
  139.6768   73.6749  220.2943 H   0  0  0  0  0  0  0  0  0  0  0  0
  139.1808   75.3082  219.7204 H   0  0  0  0  0  0  0  0  0  0  0  0
  141.1440   74.6364  221.9540 H   0  0  0  0  0  0  0  0  0  0  0  0
  141.4929   75.4221  220.3653 H   0  0  0  0  0  0  0  0  0  0  0  0
  1  2  1  0
  2  3  1  0
  3  4  2  0
  3  5  1  0
  5  6  1  0
  6  7  2  0
  7  8  1  0
  8  9  2  0
  9 10  1  0
 10 11  2  0
  5 12  1  0
 12 13  1  0
 13 14  1  0
 14 15  1  0
 15 16  1  0
 16 17  2  0
 16 18  1  0
 18 19  1  0
 18 20  1  0
 20 21  1  0
 21 22  1  0
 22 23  2  0
 23 24  1  0
 24 25  2  0
 25 26  1  0
 26 27  2  0
 27 28  1  0
 28 29  2  0
 29 30  1  0
 30 31  2  0
 15 32  1  0
 32 33  1  0
 11  6  1  0
 33 12  1  0
 31 22  1  0
 30 25  1  0
  1 34  1  0
  1 35  1  0
  1 36  1  0
  2 37  1  0
  2 38  1  0
  7 39  1  0
  8 40  1  0
  9 41  1  0
 10 42  1  0
 11 43  1  0
 12 44  1  0
 13 45  1  0
 13 46  1  0
 14 47  1  0
 14 48  1  0
 18 49  1  6
 19 50  1  0
 19 51  1  0
 19 52  1  0
 20 53  1  0
 21 54  1  0
 21 55  1  0
 23 56  1  0
 24 57  1  0
 26 58  1  0
 27 59  1  0
 28 60  1  0
 29 61  1  0
 31 62  1  0
 32 63  1  0
 32 64  1  0
 33 65  1  0
 33 66  1  0
M  END
>  <smiles>  (13) 
CCC(=O)N(c1ccccc1)C1CCN(C(=O)[C@H](C)NCc2ccc3ccccc3c2)CC1

>  <score_type>  (13) 
oracle

>  <origin>  (13) 
autodockgpu

>  <m_score__min__energy>  (13) 
-9.3699999999999992

>  <m_primary>  (13) 
energy

>  <rmsd>  (13) 
9.109295501970209

>  <m_score__min__rmsd>  (13) 
9.109295501970209

>  <meeko>  (13) 
{"free_energy": -8.65, "intermolecular_energy": -11.04, "internal_energy": -2.32, "cluster_size": 36, "cluster_id": 1, "rank_in_cluster": 25}

>  <energy>  (13) 
-9.16

>  <cluster_rmsd>  (13) 
1.14

>  <cluster>  (13) 
1

$$$$

     RDKit          3D

 66 69  0  0  0  0  0  0  0  0999 V2000
  142.5850   79.1350  218.1610 C   0  0  0  0  0  0  0  0  0  0  0  0
  141.4310   78.2690  218.7050 C   0  0  0  0  0  0  0  0  0  0  0  0
  141.9650   77.5730  219.8760 C   0  0  0  0  0  0  0  0  0  0  0  0
  143.0880   76.9750  219.7230 O   0  0  0  0  0  0  0  0  0  0  0  0
  141.3930   77.4780  221.1590 N   0  0  0  0  0  0  0  0  0  0  0  0
  141.6660   78.6030  222.0380 C   0  0  0  0  0  0  0  0  0  0  0  0
  141.9050   79.8500  221.4900 C   0  0  0  0  0  0  0  0  0  0  0  0
  142.1730   80.9660  222.2540 C   0  0  0  0  0  0  0  0  0  0  0  0
  142.1980   80.8120  223.6270 C   0  0  0  0  0  0  0  0  0  0  0  0
  141.9620   79.5750  224.1750 C   0  0  0  0  0  0  0  0  0  0  0  0
  141.6930   78.4480  223.4030 C   0  0  0  0  0  0  0  0  0  0  0  0
  140.6010   76.4220  221.6910 C   0  0  0  0  0  0  0  0  0  0  0  0
  139.1200   76.5420  221.4830 C   0  0  0  0  0  0  0  0  0  0  0  0
  138.4920   75.3890  222.2890 C   0  0  0  0  0  0  0  0  0  0  0  0
  138.8810   74.1840  221.5430 N   0  0  0  0  0  0  0  0  0  0  0  0
  138.1730   73.0070  221.8260 C   0  0  0  0  0  0  0  0  0  0  0  0
  137.2630   73.0550  222.6890 O   0  0  0  0  0  0  0  0  0  0  0  0
  138.4180   71.6940  221.1770 C   0  0  2  0  0  0  0  0  0  0  0  0
  137.8670   71.7210  219.7920 C   0  0  0  0  0  0  0  0  0  0  0  0
  137.7880   70.7060  222.0220 N   0  0  0  0  0  0  0  0  0  0  0  0
  138.6820   69.6460  222.4400 C   0  0  0  0  0  0  0  0  0  0  0  0
  139.3400   70.1770  223.6890 C   0  0  0  0  0  0  0  0  0  0  0  0
  140.1060   71.3260  223.6270 C   0  0  0  0  0  0  0  0  0  0  0  0
  140.7160   71.8210  224.7780 C   0  0  0  0  0  0  0  0  0  0  0  0
  140.5440   71.1520  225.9660 C   0  0  0  0  0  0  0  0  0  0  0  0
  141.1650   71.6670  227.1010 C   0  0  0  0  0  0  0  0  0  0  0  0
  141.0060   71.0070  228.3210 C   0  0  0  0  0  0  0  0  0  0  0  0
  140.2370   69.8610  228.3600 C   0  0  0  0  0  0  0  0  0  0  0  0
  139.6200   69.3530  227.2240 C   0  0  0  0  0  0  0  0  0  0  0  0
  139.7740   70.0040  226.0110 C   0  0  0  0  0  0  0  0  0  0  0  0
  139.1600   69.4970  224.8770 C   0  0  0  0  0  0  0  0  0  0  0  0
  139.9580   74.2860  220.5730 C   0  0  0  0  0  0  0  0  0  0  0  0
  141.1010   75.0960  221.1490 C   0  0  0  0  0  0  0  0  0  0  0  0
  143.1521   79.5605  219.0020 H   0  0  0  0  0  0  0  0  0  0  0  0
  143.2522   78.5128  217.5464 H   0  0  0  0  0  0  0  0  0  0  0  0
  142.1740   79.9495  217.5464 H   0  0  0  0  0  0  0  0  0  0  0  0
  140.5800   78.9037  218.9930 H   0  0  0  0  0  0  0  0  0  0  0  0
  141.0677   77.5600  217.9465 H   0  0  0  0  0  0  0  0  0  0  0  0
  141.8802   79.9563  220.3954 H   0  0  0  0  0  0  0  0  0  0  0  0
  142.3603   81.9442  221.7871 H   0  0  0  0  0  0  0  0  0  0  0  0
  142.4056   81.6748  224.2770 H   0  0  0  0  0  0  0  0  0  0  0  0
  141.9866   79.4702  225.2697 H   0  0  0  0  0  0  0  0  0  0  0  0
  141.5087   77.4688  223.8690 H   0  0  0  0  0  0  0  0  0  0  0  0
  140.7277   76.4872  222.7817 H   0  0  0  0  0  0  0  0  0  0  0  0
  138.7577   77.5118  221.8547 H   0  0  0  0  0  0  0  0  0  0  0  0
  138.8534   76.4852  220.4173 H   0  0  0  0  0  0  0  0  0  0  0  0
  138.8940   75.3625  223.3126 H   0  0  0  0  0  0  0  0  0  0  0  0
  137.4017   75.4894  222.3943 H   0  0  0  0  0  0  0  0  0  0  0  0
  139.4865   71.4536  221.0747 H   0  0  0  0  0  0  0  0  0  0  0  0
  136.7692   71.7748  219.8351 H   0  0  0  0  0  0  0  0  0  0  0  0
  138.2566   72.6011  219.2595 H   0  0  0  0  0  0  0  0  0  0  0  0
  138.1687   70.8070  219.2595 H   0  0  0  0  0  0  0  0  0  0  0  0
  137.3220   71.1690  222.8040 H   0  0  0  0  0  0  0  0  0  0  0  0
  138.1194   68.7263  222.6580 H   0  0  0  0  0  0  0  0  0  0  0  0
  139.4133   69.3843  221.6611 H   0  0  0  0  0  0  0  0  0  0  0  0
  140.2342   71.8500  222.6684 H   0  0  0  0  0  0  0  0  0  0  0  0
  141.3269   72.7348  224.7362 H   0  0  0  0  0  0  0  0  0  0  0  0
  141.7727   72.5817  227.0372 H   0  0  0  0  0  0  0  0  0  0  0  0
  141.4842   71.3926  229.2335 H   0  0  0  0  0  0  0  0  0  0  0  0
  140.1093   69.3354  229.3178 H   0  0  0  0  0  0  0  0  0  0  0  0
  139.0122   68.4384  227.2872 H   0  0  0  0  0  0  0  0  0  0  0  0
  138.5495   68.5831  224.9218 H   0  0  0  0  0  0  0  0  0  0  0  0
  140.3174   73.2774  220.3208 H   0  0  0  0  0  0  0  0  0  0  0  0
  139.5820   74.7860  219.6682 H   0  0  0  0  0  0  0  0  0  0  0  0
  141.5712   74.5271  221.9646 H   0  0  0  0  0  0  0  0  0  0  0  0
  141.8310   75.2939  220.3503 H   0  0  0  0  0  0  0  0  0  0  0  0
  1  2  1  0
  2  3  1  0
  3  4  2  0
  3  5  1  0
  5  6  1  0
  6  7  2  0
  7  8  1  0
  8  9  2  0
  9 10  1  0
 10 11  2  0
  5 12  1  0
 12 13  1  0
 13 14  1  0
 14 15  1  0
 15 16  1  0
 16 17  2  0
 16 18  1  0
 18 19  1  0
 18 20  1  0
 20 21  1  0
 21 22  1  0
 22 23  2  0
 23 24  1  0
 24 25  2  0
 25 26  1  0
 26 27  2  0
 27 28  1  0
 28 29  2  0
 29 30  1  0
 30 31  2  0
 15 32  1  0
 32 33  1  0
 11  6  1  0
 33 12  1  0
 31 22  1  0
 30 25  1  0
  1 34  1  0
  1 35  1  0
  1 36  1  0
  2 37  1  0
  2 38  1  0
  7 39  1  0
  8 40  1  0
  9 41  1  0
 10 42  1  0
 11 43  1  0
 12 44  1  0
 13 45  1  0
 13 46  1  0
 14 47  1  0
 14 48  1  0
 18 49  1  6
 19 50  1  0
 19 51  1  0
 19 52  1  0
 20 53  1  0
 21 54  1  0
 21 55  1  0
 23 56  1  0
 24 57  1  0
 26 58  1  0
 27 59  1  0
 28 60  1  0
 29 61  1  0
 31 62  1  0
 32 63  1  0
 32 64  1  0
 33 65  1  0
 33 66  1  0
M  END
>  <smiles>  (14) 
CCC(=O)N(c1ccccc1)C1CCN(C(=O)[C@H](C)NCc2ccc3ccccc3c2)CC1

>  <score_type>  (14) 
oracle

>  <origin>  (14) 
autodockgpu

>  <m_score__min__energy>  (14) 
-9.3699999999999992

>  <m_primary>  (14) 
energy

>  <rmsd>  (14) 
8.147737170974374

>  <m_score__min__rmsd>  (14) 
8.147737170974374

>  <meeko>  (14) 
{"free_energy": -8.43, "intermolecular_energy": -10.82, "internal_energy": -2.46, "cluster_size": 36, "cluster_id": 1, "rank_in_cluster": 33}

>  <energy>  (14) 
-9.16

>  <cluster_rmsd>  (14) 
0.39

>  <cluster>  (14) 
1

$$$$

     RDKit          3D

 66 69  0  0  0  0  0  0  0  0999 V2000
  143.0440   79.9700  223.0960 C   0  0  0  0  0  0  0  0  0  0  0  0
  142.1880   81.1690  223.5520 C   0  0  0  0  0  0  0  0  0  0  0  0
  141.0530   81.2290  222.6310 C   0  0  0  0  0  0  0  0  0  0  0  0
  141.1120   82.1150  221.7070 O   0  0  0  0  0  0  0  0  0  0  0  0
  139.8960   80.4270  222.6340 N   0  0  0  0  0  0  0  0  0  0  0  0
  138.7610   80.9890  223.3460 C   0  0  0  0  0  0  0  0  0  0  0  0
  138.0220   81.9990  222.7580 C   0  0  0  0  0  0  0  0  0  0  0  0
  136.9330   82.5860  223.3680 C   0  0  0  0  0  0  0  0  0  0  0  0
  136.5790   82.1290  224.6230 C   0  0  0  0  0  0  0  0  0  0  0  0
  137.3110   81.1270  225.2110 C   0  0  0  0  0  0  0  0  0  0  0  0
  138.4100   80.5350  224.5950 C   0  0  0  0  0  0  0  0  0  0  0  0
  139.7140   79.1470  222.0400 C   0  0  0  0  0  0  0  0  0  0  0  0
  140.5080   78.8810  220.7950 C   0  0  0  0  0  0  0  0  0  0  0  0
  140.0080   77.5230  220.2640 C   0  0  0  0  0  0  0  0  0  0  0  0
  140.5110   76.5540  221.2470 N   0  0  0  0  0  0  0  0  0  0  0  0
  140.5200   75.2050  220.8580 C   0  0  0  0  0  0  0  0  0  0  0  0
  140.1020   74.9150  219.7110 O   0  0  0  0  0  0  0  0  0  0  0  0
  140.9920   74.0830  221.7090 C   0  0  2  0  0  0  0  0  0  0  0  0
  141.9130   73.2200  220.9160 C   0  0  0  0  0  0  0  0  0  0  0  0
  139.8030   73.3900  222.1520 N   0  0  0  0  0  0  0  0  0  0  0  0
  139.8350   71.9650  221.8980 C   0  0  0  0  0  0  0  0  0  0  0  0
  139.7640   71.3350  223.2680 C   0  0  0  0  0  0  0  0  0  0  0  0
  138.9690   70.2250  223.4740 C   0  0  0  0  0  0  0  0  0  0  0  0
  138.9000   69.6400  224.7360 C   0  0  0  0  0  0  0  0  0  0  0  0
  139.6330   70.1830  225.7650 C   0  0  0  0  0  0  0  0  0  0  0  0
  139.5460   69.5800  227.0170 C   0  0  0  0  0  0  0  0  0  0  0  0
  140.2800   70.1120  228.0790 C   0  0  0  0  0  0  0  0  0  0  0  0
  141.0680   71.2220  227.8510 C   0  0  0  0  0  0  0  0  0  0  0  0
  141.1500   71.8190  226.6000 C   0  0  0  0  0  0  0  0  0  0  0  0
  140.4240   71.2940  225.5420 C   0  0  0  0  0  0  0  0  0  0  0  0
  140.5040   71.8890  224.2930 C   0  0  0  0  0  0  0  0  0  0  0  0
  140.9600   77.0430  222.5380 C   0  0  0  0  0  0  0  0  0  0  0  0
  139.9840   78.0700  223.0740 C   0  0  0  0  0  0  0  0  0  0  0  0
  143.4257   79.4353  223.9783 H   0  0  0  0  0  0  0  0  0  0  0  0
  142.4275   79.2879  222.4922 H   0  0  0  0  0  0  0  0  0  0  0  0
  143.8894   80.3316  222.4922 H   0  0  0  0  0  0  0  0  0  0  0  0
  141.8358   81.0168  224.5829 H   0  0  0  0  0  0  0  0  0  0  0  0
  142.7665   82.1045  223.5392 H   0  0  0  0  0  0  0  0  0  0  0  0
  138.3160   82.3505  221.7580 H   0  0  0  0  0  0  0  0  0  0  0  0
  136.3668   83.3889  222.8732 H   0  0  0  0  0  0  0  0  0  0  0  0
  135.7162   82.5651  225.1478 H   0  0  0  0  0  0  0  0  0  0  0  0
  137.0164   80.7772  226.2114 H   0  0  0  0  0  0  0  0  0  0  0  0
  138.9771   79.7328  225.0899 H   0  0  0  0  0  0  0  0  0  0  0  0
  138.6672   79.1313  221.7025 H   0  0  0  0  0  0  0  0  0  0  0  0
  140.3318   79.6721  220.0513 H   0  0  0  0  0  0  0  0  0  0  0  0
  141.5889   78.8645  220.9984 H   0  0  0  0  0  0  0  0  0  0  0  0
  138.9091   77.5007  220.2190 H   0  0  0  0  0  0  0  0  0  0  0  0
  140.3569   77.3118  219.2424 H   0  0  0  0  0  0  0  0  0  0  0  0
  141.5659   74.4158  222.5864 H   0  0  0  0  0  0  0  0  0  0  0  0
  142.5422   72.6305  221.5991 H   0  0  0  0  0  0  0  0  0  0  0  0
  141.3241   72.5410  220.2819 H   0  0  0  0  0  0  0  0  0  0  0  0
  142.5524   73.8517  220.2819 H   0  0  0  0  0  0  0  0  0  0  0  0
  139.6160   73.6190  223.1290 H   0  0  0  0  0  0  0  0  0  0  0  0
  138.9743   71.6600  221.2847 H   0  0  0  0  0  0  0  0  0  0  0  0
  140.7343   71.6592  221.3432 H   0  0  0  0  0  0  0  0  0  0  0  0
  138.3893   69.8022  222.6402 H   0  0  0  0  0  0  0  0  0  0  0  0
  138.2681   68.7561  224.9072 H   0  0  0  0  0  0  0  0  0  0  0  0
  138.9079   68.6967  227.1674 H   0  0  0  0  0  0  0  0  0  0  0  0
  140.2312   69.6551  229.0784 H   0  0  0  0  0  0  0  0  0  0  0  0
  141.6477   71.6459  228.6842 H   0  0  0  0  0  0  0  0  0  0  0  0
  141.7870   72.7030  226.4494 H   0  0  0  0  0  0  0  0  0  0  0  0
  141.1361   72.7733  224.1241 H   0  0  0  0  0  0  0  0  0  0  0  0
  141.0260   76.2012  223.2430 H   0  0  0  0  0  0  0  0  0  0  0  0
  141.9482   77.5120  222.4214 H   0  0  0  0  0  0  0  0  0  0  0  0
  139.0381   77.5699  223.3294 H   0  0  0  0  0  0  0  0  0  0  0  0
  140.4215   78.5401  223.9671 H   0  0  0  0  0  0  0  0  0  0  0  0
  1  2  1  0
  2  3  1  0
  3  4  2  0
  3  5  1  0
  5  6  1  0
  6  7  2  0
  7  8  1  0
  8  9  2  0
  9 10  1  0
 10 11  2  0
  5 12  1  0
 12 13  1  0
 13 14  1  0
 14 15  1  0
 15 16  1  0
 16 17  2  0
 16 18  1  0
 18 19  1  0
 18 20  1  0
 20 21  1  0
 21 22  1  0
 22 23  2  0
 23 24  1  0
 24 25  2  0
 25 26  1  0
 26 27  2  0
 27 28  1  0
 28 29  2  0
 29 30  1  0
 30 31  2  0
 15 32  1  0
 32 33  1  0
 11  6  1  0
 33 12  1  0
 31 22  1  0
 30 25  1  0
  1 34  1  0
  1 35  1  0
  1 36  1  0
  2 37  1  0
  2 38  1  0
  7 39  1  0
  8 40  1  0
  9 41  1  0
 10 42  1  0
 11 43  1  0
 12 44  1  0
 13 45  1  0
 13 46  1  0
 14 47  1  0
 14 48  1  0
 18 49  1  1
 19 50  1  0
 19 51  1  0
 19 52  1  0
 20 53  1  0
 21 54  1  0
 21 55  1  0
 23 56  1  0
 24 57  1  0
 26 58  1  0
 27 59  1  0
 28 60  1  0
 29 61  1  0
 31 62  1  0
 32 63  1  0
 32 64  1  0
 33 65  1  0
 33 66  1  0
M  END
>  <smiles>  (15) 
CCC(=O)N(c1ccccc1)C1CCN(C(=O)[C@H](C)NCc2ccc3ccccc3c2)CC1

>  <score_type>  (15) 
oracle

>  <origin>  (15) 
autodockgpu

>  <m_score__min__energy>  (15) 
-9.3699999999999992

>  <m_primary>  (15) 
energy

>  <rmsd>  (15) 
8.49456079070201

>  <m_score__min__rmsd>  (15) 
8.49456079070201

>  <meeko>  (15) 
{"free_energy": -9.13, "intermolecular_energy": -11.52, "internal_energy": -1.67, "cluster_size": 7, "cluster_id": 2, "rank_in_cluster": 1}

>  <energy>  (15) 
-9.04

>  <cluster_rmsd>  (15) 
0.71

>  <cluster>  (15) 
1

$$$$

     RDKit          3D

 66 69  0  0  0  0  0  0  0  0999 V2000
  140.8520   77.1370  217.9180 C   0  0  0  0  0  0  0  0  0  0  0  0
  141.6720   78.1410  218.7540 C   0  0  0  0  0  0  0  0  0  0  0  0
  142.1000   77.4160  219.9500 C   0  0  0  0  0  0  0  0  0  0  0  0
  143.2010   76.7670  219.8620 O   0  0  0  0  0  0  0  0  0  0  0  0
  141.4470   77.3430  221.1950 N   0  0  0  0  0  0  0  0  0  0  0  0
  141.6500   78.4900  222.0640 C   0  0  0  0  0  0  0  0  0  0  0  0
  141.8800   79.7330  221.5050 C   0  0  0  0  0  0  0  0  0  0  0  0
  142.0840   80.8690  222.2590 C   0  0  0  0  0  0  0  0  0  0  0  0
  142.0520   80.7390  223.6340 C   0  0  0  0  0  0  0  0  0  0  0  0
  141.8240   79.5060  224.1940 C   0  0  0  0  0  0  0  0  0  0  0  0
  141.6200   78.3590  223.4320 C   0  0  0  0  0  0  0  0  0  0  0  0
  140.6330   76.2890  221.6980 C   0  0  0  0  0  0  0  0  0  0  0  0
  139.2200   76.2520  221.1950 C   0  0  0  0  0  0  0  0  0  0  0  0
  138.5170   75.1490  222.0090 C   0  0  0  0  0  0  0  0  0  0  0  0
  139.1250   73.9050  221.5160 N   0  0  0  0  0  0  0  0  0  0  0  0
  138.4510   72.7110  221.8090 C   0  0  0  0  0  0  0  0  0  0  0  0
  137.3840   72.7770  222.4670 O   0  0  0  0  0  0  0  0  0  0  0  0
  138.9060   71.3580  221.3960 C   0  0  2  0  0  0  0  0  0  0  0  0
  138.6450   71.1760  219.9410 C   0  0  0  0  0  0  0  0  0  0  0  0
  138.1820   70.4220  222.2270 N   0  0  0  0  0  0  0  0  0  0  0  0
  138.9490   69.2440  222.5750 C   0  0  0  0  0  0  0  0  0  0  0  0
  139.3400   69.4600  224.0160 C   0  0  0  0  0  0  0  0  0  0  0  0
  138.9880   68.5270  224.9720 C   0  0  0  0  0  0  0  0  0  0  0  0
  139.3470   68.7210  226.3030 C   0  0  0  0  0  0  0  0  0  0  0  0
  140.0520   69.8500  226.6480 C   0  0  0  0  0  0  0  0  0  0  0  0
  140.3990   70.0210  227.9850 C   0  0  0  0  0  0  0  0  0  0  0  0
  141.1150   71.1590  228.3610 C   0  0  0  0  0  0  0  0  0  0  0  0
  141.4560   72.0790  227.3900 C   0  0  0  0  0  0  0  0  0  0  0  0
  141.1080   71.9020  226.0580 C   0  0  0  0  0  0  0  0  0  0  0  0
  140.3970   70.7750  225.6790 C   0  0  0  0  0  0  0  0  0  0  0  0
  140.0480   70.5980  224.3500 C   0  0  0  0  0  0  0  0  0  0  0  0
  140.3670   73.9900  220.7670 C   0  0  0  0  0  0  0  0  0  0  0  0
  141.3160   74.9590  221.4400 C   0  0  0  0  0  0  0  0  0  0  0  0
  140.3015   76.4630  218.5908 H   0  0  0  0  0  0  0  0  0  0  0  0
  140.1392   77.6841  217.2835 H   0  0  0  0  0  0  0  0  0  0  0  0
  141.5305   76.5479  217.2835 H   0  0  0  0  0  0  0  0  0  0  0  0
  142.5465   78.4882  218.1842 H   0  0  0  0  0  0  0  0  0  0  0  0
  141.0774   79.0295  219.0130 H   0  0  0  0  0  0  0  0  0  0  0  0
  141.9013   79.8198  220.4086 H   0  0  0  0  0  0  0  0  0  0  0  0
  142.2657   81.8439  221.7829 H   0  0  0  0  0  0  0  0  0  0  0  0
  142.2082   81.6180  224.2765 H   0  0  0  0  0  0  0  0  0  0  0  0
  141.8017   79.4212  225.2905 H   0  0  0  0  0  0  0  0  0  0  0  0
  141.4413   77.3832  223.9074 H   0  0  0  0  0  0  0  0  0  0  0  0
  140.5325   76.4907  222.7747 H   0  0  0  0  0  0  0  0  0  0  0  0
  138.7287   77.2223  221.3595 H   0  0  0  0  0  0  0  0  0  0  0  0
  139.1786   76.0485  220.1148 H   0  0  0  0  0  0  0  0  0  0  0  0
  138.7048   75.2768  223.0853 H   0  0  0  0  0  0  0  0  0  0  0  0
  137.4237   75.1640  221.8885 H   0  0  0  0  0  0  0  0  0  0  0  0
  139.9864   71.2029  221.5327 H   0  0  0  0  0  0  0  0  0  0  0  0
  137.7497   70.5517  219.8044 H   0  0  0  0  0  0  0  0  0  0  0  0
  138.4826   72.1577  219.4720 H   0  0  0  0  0  0  0  0  0  0  0  0
  139.5100   70.6842  219.4720 H   0  0  0  0  0  0  0  0  0  0  0  0
  137.8010   70.9080  223.0410 H   0  0  0  0  0  0  0  0  0  0  0  0
  138.3366   68.3363  222.4702 H   0  0  0  0  0  0  0  0  0  0  0  0
  139.8224   69.1052  221.9209 H   0  0  0  0  0  0  0  0  0  0  0  0
  138.4230   67.6291  224.6810 H   0  0  0  0  0  0  0  0  0  0  0  0
  139.0704   67.9810  227.0684 H   0  0  0  0  0  0  0  0  0  0  0  0
  140.1129   69.2694  228.7355 H   0  0  0  0  0  0  0  0  0  0  0  0
  141.4019   71.3194  229.4107 H   0  0  0  0  0  0  0  0  0  0  0  0
  142.0196   72.9780  227.6801 H   0  0  0  0  0  0  0  0  0  0  0  0
  141.3953   72.6528  225.3071 H   0  0  0  0  0  0  0  0  0  0  0  0
  140.3256   71.3392  223.5861 H   0  0  0  0  0  0  0  0  0  0  0  0
  140.8340   72.9950  220.7229 H   0  0  0  0  0  0  0  0  0  0  0  0
  140.1498   74.3473  219.7496 H   0  0  0  0  0  0  0  0  0  0  0  0
  141.6482   74.5322  222.3979 H   0  0  0  0  0  0  0  0  0  0  0  0
  142.1775   75.1273  220.7771 H   0  0  0  0  0  0  0  0  0  0  0  0
  1  2  1  0
  2  3  1  0
  3  4  2  0
  3  5  1  0
  5  6  1  0
  6  7  2  0
  7  8  1  0
  8  9  2  0
  9 10  1  0
 10 11  2  0
  5 12  1  0
 12 13  1  0
 13 14  1  0
 14 15  1  0
 15 16  1  0
 16 17  2  0
 16 18  1  0
 18 19  1  0
 18 20  1  0
 20 21  1  0
 21 22  1  0
 22 23  2  0
 23 24  1  0
 24 25  2  0
 25 26  1  0
 26 27  2  0
 27 28  1  0
 28 29  2  0
 29 30  1  0
 30 31  2  0
 15 32  1  0
 32 33  1  0
 11  6  1  0
 33 12  1  0
 31 22  1  0
 30 25  1  0
  1 34  1  0
  1 35  1  0
  1 36  1  0
  2 37  1  0
  2 38  1  0
  7 39  1  0
  8 40  1  0
  9 41  1  0
 10 42  1  0
 11 43  1  0
 12 44  1  0
 13 45  1  0
 13 46  1  0
 14 47  1  0
 14 48  1  0
 18 49  1  6
 19 50  1  0
 19 51  1  0
 19 52  1  0
 20 53  1  0
 21 54  1  0
 21 55  1  0
 23 56  1  0
 24 57  1  0
 26 58  1  0
 27 59  1  0
 28 60  1  0
 29 61  1  0
 31 62  1  0
 32 63  1  0
 32 64  1  0
 33 65  1  0
 33 66  1  0
M  END
>  <smiles>  (16) 
CCC(=O)N(c1ccccc1)C1CCN(C(=O)[C@H](C)NCc2ccc3ccccc3c2)CC1

>  <score_type>  (16) 
oracle

>  <origin>  (16) 
autodockgpu

>  <m_score__min__energy>  (16) 
-9.3699999999999992

>  <m_primary>  (16) 
energy

>  <rmsd>  (16) 
9.472480097028624

>  <m_score__min__rmsd>  (16) 
9.472480097028624

>  <meeko>  (16) 
{"free_energy": -8.62, "intermolecular_energy": -11.01, "internal_energy": -2.51, "cluster_size": 36, "cluster_id": 1, "rank_in_cluster": 28}

>  <energy>  (16) 
-9.03

>  <cluster_rmsd>  (16) 
1.86

>  <cluster>  (16) 
1

$$$$

     RDKit          3D

 66 69  0  0  0  0  0  0  0  0999 V2000
  140.4610   79.3720  219.1310 C   0  0  0  0  0  0  0  0  0  0  0  0
  141.9460   78.9530  219.1250 C   0  0  0  0  0  0  0  0  0  0  0  0
  142.0980   77.9900  220.2160 C   0  0  0  0  0  0  0  0  0  0  0  0
  142.9450   77.0470  220.0320 O   0  0  0  0  0  0  0  0  0  0  0  0
  141.4240   77.9730  221.4520 N   0  0  0  0  0  0  0  0  0  0  0  0
  141.7030   79.1060  222.3200 C   0  0  0  0  0  0  0  0  0  0  0  0
  140.6610   79.9140  222.7360 C   0  0  0  0  0  0  0  0  0  0  0  0
  140.8420   81.0070  223.5580 C   0  0  0  0  0  0  0  0  0  0  0  0
  142.1290   81.2900  223.9730 C   0  0  0  0  0  0  0  0  0  0  0  0
  143.1660   80.4900  223.5610 C   0  0  0  0  0  0  0  0  0  0  0  0
  142.9830   79.3870  222.7310 C   0  0  0  0  0  0  0  0  0  0  0  0
  140.5250   76.9880  221.9480 C   0  0  0  0  0  0  0  0  0  0  0  0
  139.0690   77.2370  221.6890 C   0  0  0  0  0  0  0  0  0  0  0  0
  138.3150   76.1380  222.4640 C   0  0  0  0  0  0  0  0  0  0  0  0
  138.6240   74.9080  221.7220 N   0  0  0  0  0  0  0  0  0  0  0  0
  137.8070   73.7950  221.9710 C   0  0  0  0  0  0  0  0  0  0  0  0
  136.8750   73.9180  222.8030 O   0  0  0  0  0  0  0  0  0  0  0  0
  137.9600   72.4690  221.3200 C   0  0  2  0  0  0  0  0  0  0  0  0
  136.8050   72.2340  220.4090 C   0  0  0  0  0  0  0  0  0  0  0  0
  138.0460   71.5050  222.3930 N   0  0  0  0  0  0  0  0  0  0  0  0
  139.2270   70.6700  222.3280 C   0  0  0  0  0  0  0  0  0  0  0  0
  139.7130   70.5900  223.7540 C   0  0  0  0  0  0  0  0  0  0  0  0
  140.3300   71.6820  224.3330 C   0  0  0  0  0  0  0  0  0  0  0  0
  140.7800   71.6140  225.6490 C   0  0  0  0  0  0  0  0  0  0  0  0
  140.6000   70.4500  226.3580 C   0  0  0  0  0  0  0  0  0  0  0  0
  141.0590   70.4070  227.6720 C   0  0  0  0  0  0  0  0  0  0  0  0
  140.8880   69.2360  228.4120 C   0  0  0  0  0  0  0  0  0  0  0  0
  140.2680   68.1570  227.8160 C   0  0  0  0  0  0  0  0  0  0  0  0
  139.8130   68.2060  226.5040 C   0  0  0  0  0  0  0  0  0  0  0  0
  139.9800   69.3660  225.7640 C   0  0  0  0  0  0  0  0  0  0  0  0
  139.5260   69.4160  224.4560 C   0  0  0  0  0  0  0  0  0  0  0  0
  139.7400   74.9210  220.7910 C   0  0  0  0  0  0  0  0  0  0  0  0
  140.9270   75.6260  221.4120 C   0  0  0  0  0  0  0  0  0  0  0  0
  140.1120   79.4705  220.1695 H   0  0  0  0  0  0  0  0  0  0  0  0
  140.3501   80.3365  218.6139 H   0  0  0  0  0  0  0  0  0  0  0  0
  139.8623   78.6077  218.6139 H   0  0  0  0  0  0  0  0  0  0  0  0
  142.2075   78.4861  218.1639 H   0  0  0  0  0  0  0  0  0  0  0  0
  142.6097   79.8201  219.2577 H   0  0  0  0  0  0  0  0  0  0  0  0
  139.6425   79.6747  222.3964 H   0  0  0  0  0  0  0  0  0  0  0  0
  139.9921   81.6308  223.8718 H   0  0  0  0  0  0  0  0  0  0  0  0
  142.3218   82.1512  224.6297 H   0  0  0  0  0  0  0  0  0  0  0  0
  144.1842   80.7305  223.9009 H   0  0  0  0  0  0  0  0  0  0  0  0
  143.8327   78.7634  222.4160 H   0  0  0  0  0  0  0  0  0  0  0  0
  140.6179   77.0368  223.0430 H   0  0  0  0  0  0  0  0  0  0  0  0
  138.7788   78.2328  222.0553 H   0  0  0  0  0  0  0  0  0  0  0  0
  138.8366   77.2089  220.6142 H   0  0  0  0  0  0  0  0  0  0  0  0
  138.6771   76.0713  223.5006 H   0  0  0  0  0  0  0  0  0  0  0  0
  137.2345   76.3322  222.5327 H   0  0  0  0  0  0  0  0  0  0  0  0
  138.8610   72.3942  220.6935 H   0  0  0  0  0  0  0  0  0  0  0  0
  135.8992   72.0497  221.0053 H   0  0  0  0  0  0  0  0  0  0  0  0
  136.6524   73.1195  219.7745 H   0  0  0  0  0  0  0  0  0  0  0  0
  137.0105   71.3593  219.7745 H   0  0  0  0  0  0  0  0  0  0  0  0
  137.9390   71.9790  223.2910 H   0  0  0  0  0  0  0  0  0  0  0  0
  138.9751   69.6695  221.9465 H   0  0  0  0  0  0  0  0  0  0  0  0
  139.9901   71.0775  221.6486 H   0  0  0  0  0  0  0  0  0  0  0  0
  140.4661   72.6069  223.7534 H   0  0  0  0  0  0  0  0  0  0  0  0
  141.2729   72.4800  226.1150 H   0  0  0  0  0  0  0  0  0  0  0  0
  141.5494   71.2836  228.1204 H   0  0  0  0  0  0  0  0  0  0  0  0
  141.2412   69.1744  229.4519 H   0  0  0  0  0  0  0  0  0  0  0  0
  140.1301   67.2323  228.3956 H   0  0  0  0  0  0  0  0  0  0  0  0
  139.3231   67.3293  226.0553 H   0  0  0  0  0  0  0  0  0  0  0  0
  139.0329   68.5490  223.9922 H   0  0  0  0  0  0  0  0  0  0  0  0
  140.0198   73.8863  220.5439 H   0  0  0  0  0  0  0  0  0  0  0  0
  139.4408   75.4560  219.8776 H   0  0  0  0  0  0  0  0  0  0  0  0
  141.3179   75.0143  222.2384 H   0  0  0  0  0  0  0  0  0  0  0  0
  141.6983   75.7645  220.6400 H   0  0  0  0  0  0  0  0  0  0  0  0
  1  2  1  0
  2  3  1  0
  3  4  2  0
  3  5  1  0
  5  6  1  0
  6  7  2  0
  7  8  1  0
  8  9  2  0
  9 10  1  0
 10 11  2  0
  5 12  1  0
 12 13  1  0
 13 14  1  0
 14 15  1  0
 15 16  1  0
 16 17  2  0
 16 18  1  0
 18 19  1  0
 18 20  1  0
 20 21  1  0
 21 22  1  0
 22 23  2  0
 23 24  1  0
 24 25  2  0
 25 26  1  0
 26 27  2  0
 27 28  1  0
 28 29  2  0
 29 30  1  0
 30 31  2  0
 15 32  1  0
 32 33  1  0
 11  6  1  0
 33 12  1  0
 31 22  1  0
 30 25  1  0
  1 34  1  0
  1 35  1  0
  1 36  1  0
  2 37  1  0
  2 38  1  0
  7 39  1  0
  8 40  1  0
  9 41  1  0
 10 42  1  0
 11 43  1  0
 12 44  1  0
 13 45  1  0
 13 46  1  0
 14 47  1  0
 14 48  1  0
 18 49  1  6
 19 50  1  0
 19 51  1  0
 19 52  1  0
 20 53  1  0
 21 54  1  0
 21 55  1  0
 23 56  1  0
 24 57  1  0
 26 58  1  0
 27 59  1  0
 28 60  1  0
 29 61  1  0
 31 62  1  0
 32 63  1  0
 32 64  1  0
 33 65  1  0
 33 66  1  0
M  END
>  <smiles>  (17) 
CCC(=O)N(c1ccccc1)C1CCN(C(=O)[C@H](C)NCc2ccc3ccccc3c2)CC1

>  <score_type>  (17) 
oracle

>  <origin>  (17) 
autodockgpu

>  <m_score__min__energy>  (17) 
-9.3699999999999992

>  <m_primary>  (17) 
energy

>  <rmsd>  (17) 
8.360804013481507

>  <m_score__min__rmsd>  (17) 
8.360804013481507

>  <meeko>  (17) 
{"free_energy": -8.72, "intermolecular_energy": -11.1, "internal_energy": -2.36, "cluster_size": 36, "cluster_id": 1, "rank_in_cluster": 22}

>  <energy>  (17) 
-8.93

>  <cluster_rmsd>  (17) 
1.83

>  <cluster>  (17) 
1

$$$$

     RDKit          3D

 66 69  0  0  0  0  0  0  0  0999 V2000
  142.9700   75.2010  220.0270 C   0  0  0  0  0  0  0  0  0  0  0  0
  142.8100   76.7170  219.7920 C   0  0  0  0  0  0  0  0  0  0  0  0
  141.4040   77.0210  220.0580 C   0  0  0  0  0  0  0  0  0  0  0  0
  140.6200   77.0350  219.0460 O   0  0  0  0  0  0  0  0  0  0  0  0
  140.8020   77.3010  221.3000 N   0  0  0  0  0  0  0  0  0  0  0  0
  141.3780   78.4220  222.0240 C   0  0  0  0  0  0  0  0  0  0  0  0
  141.4700   78.3660  223.4020 C   0  0  0  0  0  0  0  0  0  0  0  0
  142.0020   79.3870  224.1610 C   0  0  0  0  0  0  0  0  0  0  0  0
  142.4600   80.5080  223.4960 C   0  0  0  0  0  0  0  0  0  0  0  0
  142.3700   80.5680  222.1270 C   0  0  0  0  0  0  0  0  0  0  0  0
  141.8320   79.5370  221.3610 C   0  0  0  0  0  0  0  0  0  0  0  0
  139.7200   76.6190  221.9240 C   0  0  0  0  0  0  0  0  0  0  0  0
  138.3490   76.9610  221.4200 C   0  0  0  0  0  0  0  0  0  0  0  0
  137.3670   76.2350  222.3600 C   0  0  0  0  0  0  0  0  0  0  0  0
  137.5470   74.8150  222.0280 N   0  0  0  0  0  0  0  0  0  0  0  0
  136.5470   73.9310  222.4630 C   0  0  0  0  0  0  0  0  0  0  0  0
  135.5740   74.4030  223.1000 O   0  0  0  0  0  0  0  0  0  0  0  0
  136.5510   72.4660  222.2250 C   0  0  2  0  0  0  0  0  0  0  0  0
  135.1450   71.9760  222.1580 C   0  0  0  0  0  0  0  0  0  0  0  0
  137.3050   71.8850  223.3120 N   0  0  0  0  0  0  0  0  0  0  0  0
  138.5950   71.3640  222.9100 C   0  0  0  0  0  0  0  0  0  0  0  0
  139.0330   70.5010  224.0670 C   0  0  0  0  0  0  0  0  0  0  0  0
  138.7940   69.1410  224.0390 C   0  0  0  0  0  0  0  0  0  0  0  0
  139.1960   68.3390  225.1050 C   0  0  0  0  0  0  0  0  0  0  0  0
  139.8300   68.9210  226.1770 C   0  0  0  0  0  0  0  0  0  0  0  0
  140.2220   68.0990  227.2300 C   0  0  0  0  0  0  0  0  0  0  0  0
  140.8680   68.6650  228.3300 C   0  0  0  0  0  0  0  0  0  0  0  0
  141.0970   70.0260  228.3370 C   0  0  0  0  0  0  0  0  0  0  0  0
  140.7040   70.8410  227.2840 C   0  0  0  0  0  0  0  0  0  0  0  0
  140.0620   70.2850  226.1890 C   0  0  0  0  0  0  0  0  0  0  0  0
  139.6690   71.0970  225.1380 C   0  0  0  0  0  0  0  0  0  0  0  0
  138.7300   74.4200  221.2840 C   0  0  0  0  0  0  0  0  0  0  0  0
  139.9520   75.1230  221.8380 C   0  0  0  0  0  0  0  0  0  0  0  0
  142.9915   74.9977  221.1078 H   0  0  0  0  0  0  0  0  0  0  0  0
  142.1231   74.6678  219.5704 H   0  0  0  0  0  0  0  0  0  0  0  0
  143.9095   74.8563  219.5704 H   0  0  0  0  0  0  0  0  0  0  0  0
  143.4592   77.2806  220.4783 H   0  0  0  0  0  0  0  0  0  0  0  0
  143.0957   76.9979  218.7676 H   0  0  0  0  0  0  0  0  0  0  0  0
  141.1021   77.4661  223.9166 H   0  0  0  0  0  0  0  0  0  0  0  0
  142.0596   79.3116  225.2569 H   0  0  0  0  0  0  0  0  0  0  0  0
  142.8940   81.3471  224.0595 H   0  0  0  0  0  0  0  0  0  0  0  0
  142.7384   81.4685  221.6138 H   0  0  0  0  0  0  0  0  0  0  0  0
  141.7726   79.6123  220.2652 H   0  0  0  0  0  0  0  0  0  0  0  0
  139.7207   76.9695  222.9667 H   0  0  0  0  0  0  0  0  0  0  0  0
  138.1857   78.0481  221.4599 H   0  0  0  0  0  0  0  0  0  0  0  0
  138.2124   76.6527  220.3730 H   0  0  0  0  0  0  0  0  0  0  0  0
  137.6196   76.4260  223.4134 H   0  0  0  0  0  0  0  0  0  0  0  0
  136.3280   76.5729  222.2321 H   0  0  0  0  0  0  0  0  0  0  0  0
  137.0180   72.1840  221.2698 H   0  0  0  0  0  0  0  0  0  0  0  0
  134.7551   71.8401  223.1776 H   0  0  0  0  0  0  0  0  0  0  0  0
  134.5255   72.7112  221.6235 H   0  0  0  0  0  0  0  0  0  0  0  0
  135.1167   71.0150  221.6235 H   0  0  0  0  0  0  0  0  0  0  0  0
  137.3660   72.5530  224.0830 H   0  0  0  0  0  0  0  0  0  0  0  0
  138.5032   70.7654  221.9917 H   0  0  0  0  0  0  0  0  0  0  0  0
  139.3175   72.1633  222.6883 H   0  0  0  0  0  0  0  0  0  0  0  0
  138.2856   68.6904  223.1739 H   0  0  0  0  0  0  0  0  0  0  0  0
  139.0087   67.2552  225.0891 H   0  0  0  0  0  0  0  0  0  0  0  0
  140.0251   67.0173  227.1954 H   0  0  0  0  0  0  0  0  0  0  0  0
  141.1885   68.0383  229.1753 H   0  0  0  0  0  0  0  0  0  0  0  0
  141.6054   70.4779  229.2015 H   0  0  0  0  0  0  0  0  0  0  0  0
  140.9012   71.9226  227.3187 H   0  0  0  0  0  0  0  0  0  0  0  0
  139.8573   72.1806  225.1559 H   0  0  0  0  0  0  0  0  0  0  0  0
  138.8666   73.3318  221.3687 H   0  0  0  0  0  0  0  0  0  0  0  0
  138.6014   74.6999  220.2280 H   0  0  0  0  0  0  0  0  0  0  0  0
  140.1673   74.7331  222.8438 H   0  0  0  0  0  0  0  0  0  0  0  0
  140.8016   74.9362  221.1648 H   0  0  0  0  0  0  0  0  0  0  0  0
  1  2  1  0
  2  3  1  0
  3  4  2  0
  3  5  1  0
  5  6  1  0
  6  7  2  0
  7  8  1  0
  8  9  2  0
  9 10  1  0
 10 11  2  0
  5 12  1  0
 12 13  1  0
 13 14  1  0
 14 15  1  0
 15 16  1  0
 16 17  2  0
 16 18  1  0
 18 19  1  0
 18 20  1  0
 20 21  1  0
 21 22  1  0
 22 23  2  0
 23 24  1  0
 24 25  2  0
 25 26  1  0
 26 27  2  0
 27 28  1  0
 28 29  2  0
 29 30  1  0
 30 31  2  0
 15 32  1  0
 32 33  1  0
 11  6  1  0
 33 12  1  0
 31 22  1  0
 30 25  1  0
  1 34  1  0
  1 35  1  0
  1 36  1  0
  2 37  1  0
  2 38  1  0
  7 39  1  0
  8 40  1  0
  9 41  1  0
 10 42  1  0
 11 43  1  0
 12 44  1  0
 13 45  1  0
 13 46  1  0
 14 47  1  0
 14 48  1  0
 18 49  1  6
 19 50  1  0
 19 51  1  0
 19 52  1  0
 20 53  1  0
 21 54  1  0
 21 55  1  0
 23 56  1  0
 24 57  1  0
 26 58  1  0
 27 59  1  0
 28 60  1  0
 29 61  1  0
 31 62  1  0
 32 63  1  0
 32 64  1  0
 33 65  1  0
 33 66  1  0
M  END
>  <smiles>  (18) 
CCC(=O)N(c1ccccc1)C1CCN(C(=O)[C@H](C)NCc2ccc3ccccc3c2)CC1

>  <score_type>  (18) 
oracle

>  <origin>  (18) 
autodockgpu

>  <m_score__min__energy>  (18) 
-9.3699999999999992

>  <m_primary>  (18) 
energy

>  <rmsd>  (18) 
9.469543209333972

>  <m_score__min__rmsd>  (18) 
9.469543209333972

>  <meeko>  (18) 
{"free_energy": -9.16, "intermolecular_energy": -11.55, "internal_energy": -1.92, "cluster_size": 36, "cluster_id": 1, "rank_in_cluster": 13}

>  <energy>  (18) 
-8.91

>  <cluster_rmsd>  (18) 
1.95

>  <cluster>  (18) 
1

$$$$

     RDKit          3D

 66 69  0  0  0  0  0  0  0  0999 V2000
  143.3760   80.5030  223.4750 C   0  0  0  0  0  0  0  0  0  0  0  0
  142.1490   81.4040  223.7240 C   0  0  0  0  0  0  0  0  0  0  0  0
  141.2040   81.1050  222.6470 C   0  0  0  0  0  0  0  0  0  0  0  0
  141.6210   81.2950  221.4510 O   0  0  0  0  0  0  0  0  0  0  0  0
  139.8830   80.6310  222.7650 N   0  0  0  0  0  0  0  0  0  0  0  0
  138.8580   81.6600  222.7550 C   0  0  0  0  0  0  0  0  0  0  0  0
  137.8440   81.6180  223.6950 C   0  0  0  0  0  0  0  0  0  0  0  0
  136.8340   82.5550  223.7520 C   0  0  0  0  0  0  0  0  0  0  0  0
  136.8540   83.5750  222.8200 C   0  0  0  0  0  0  0  0  0  0  0  0
  137.8580   83.6200  221.8850 C   0  0  0  0  0  0  0  0  0  0  0  0
  138.8770   82.6740  221.8280 C   0  0  0  0  0  0  0  0  0  0  0  0
  139.4440   79.2840  222.9020 C   0  0  0  0  0  0  0  0  0  0  0  0
  138.3710   78.8430  221.9510 C   0  0  0  0  0  0  0  0  0  0  0  0
  137.9580   77.4320  222.4150 C   0  0  0  0  0  0  0  0  0  0  0  0
  139.1210   76.5980  222.0840 N   0  0  0  0  0  0  0  0  0  0  0  0
  138.9200   75.2100  222.0620 C   0  0  0  0  0  0  0  0  0  0  0  0
  137.7730   74.7730  222.3250 O   0  0  0  0  0  0  0  0  0  0  0  0
  139.9690   74.2070  221.7490 C   0  0  2  0  0  0  0  0  0  0  0  0
  140.3370   74.3160  220.3090 C   0  0  0  0  0  0  0  0  0  0  0  0
  139.4100   72.9200  222.0980 N   0  0  0  0  0  0  0  0  0  0  0  0
  140.3890   71.8540  222.1340 C   0  0  0  0  0  0  0  0  0  0  0  0
  140.2090   71.2200  223.4910 C   0  0  0  0  0  0  0  0  0  0  0  0
  139.5580   70.0070  223.6030 C   0  0  0  0  0  0  0  0  0  0  0  0
  139.3890   69.4170  224.8540 C   0  0  0  0  0  0  0  0  0  0  0  0
  139.8780   70.0600  225.9660 C   0  0  0  0  0  0  0  0  0  0  0  0
  139.6960   69.4500  227.2050 C   0  0  0  0  0  0  0  0  0  0  0  0
  140.1830   70.0820  228.3510 C   0  0  0  0  0  0  0  0  0  0  0  0
  140.8300   71.2940  228.2170 C   0  0  0  0  0  0  0  0  0  0  0  0
  141.0080   71.8960  226.9780 C   0  0  0  0  0  0  0  0  0  0  0  0
  140.5270   71.2740  225.8380 C   0  0  0  0  0  0  0  0  0  0  0  0
  140.7040   71.8740  224.6020 C   0  0  0  0  0  0  0  0  0  0  0  0
  140.3880   77.2520  221.8030 C   0  0  0  0  0  0  0  0  0  0  0  0
  140.6390   78.3530  222.8120 C   0  0  0  0  0  0  0  0  0  0  0  0
  143.8026   80.1897  224.4393 H   0  0  0  0  0  0  0  0  0  0  0  0
  143.0686   79.6144  222.9041 H   0  0  0  0  0  0  0  0  0  0  0  0
  144.1318   81.0623  222.9041 H   0  0  0  0  0  0  0  0  0  0  0  0
  141.6992   81.1757  224.7015 H   0  0  0  0  0  0  0  0  0  0  0  0
  142.4259   82.4685  223.7332 H   0  0  0  0  0  0  0  0  0  0  0  0
  137.8434   80.8000  224.4304 H   0  0  0  0  0  0  0  0  0  0  0  0
  136.0411   82.4928  224.5119 H   0  0  0  0  0  0  0  0  0  0  0  0
  136.0699   84.3465  222.8273 H   0  0  0  0  0  0  0  0  0  0  0  0
  137.8570   84.4383  221.1498 H   0  0  0  0  0  0  0  0  0  0  0  0
  139.6696   82.7358  221.0678 H   0  0  0  0  0  0  0  0  0  0  0  0
  138.9668   79.2352  223.8919 H   0  0  0  0  0  0  0  0  0  0  0  0
  137.5121   79.5287  221.9968 H   0  0  0  0  0  0  0  0  0  0  0  0
  138.7264   78.8407  220.9100 H   0  0  0  0  0  0  0  0  0  0  0  0
  137.7611   77.4176  223.4971 H   0  0  0  0  0  0  0  0  0  0  0  0
  137.0329   77.0807  221.9345 H   0  0  0  0  0  0  0  0  0  0  0  0
  140.8997   74.3625  222.3144 H   0  0  0  0  0  0  0  0  0  0  0  0
  141.3884   74.6274  220.2218 H   0  0  0  0  0  0  0  0  0  0  0  0
  140.2022   73.3394  219.8212 H   0  0  0  0  0  0  0  0  0  0  0  0
  139.6921   75.0617  219.8212 H   0  0  0  0  0  0  0  0  0  0  0  0
  138.8740   73.0020  222.9640 H   0  0  0  0  0  0  0  0  0  0  0  0
  140.1970   71.1229  221.3349 H   0  0  0  0  0  0  0  0  0  0  0  0
  141.4136   72.2222  221.9775 H   0  0  0  0  0  0  0  0  0  0  0  0
  139.1722   69.5058  222.7030 H   0  0  0  0  0  0  0  0  0  0  0  0
  138.8719   68.4509  224.9502 H   0  0  0  0  0  0  0  0  0  0  0  0
  139.1758   68.4837  227.2796 H   0  0  0  0  0  0  0  0  0  0  0  0
  140.0535   69.6226  229.3421 H   0  0  0  0  0  0  0  0  0  0  0  0
  141.2152   71.7969  229.1163 H   0  0  0  0  0  0  0  0  0  0  0  0
  141.5285   72.8621  226.9026 H   0  0  0  0  0  0  0  0  0  0  0  0
  141.2220   72.8399  224.5086 H   0  0  0  0  0  0  0  0  0  0  0  0
  141.2002   76.5125  221.8615 H   0  0  0  0  0  0  0  0  0  0  0  0
  140.3523   77.6889  220.7941 H   0  0  0  0  0  0  0  0  0  0  0  0
  140.8207   77.9030  223.7991 H   0  0  0  0  0  0  0  0  0  0  0  0
  141.5153   78.9342  222.4890 H   0  0  0  0  0  0  0  0  0  0  0  0
  1  2  1  0
  2  3  1  0
  3  4  2  0
  3  5  1  0
  5  6  1  0
  6  7  2  0
  7  8  1  0
  8  9  2  0
  9 10  1  0
 10 11  2  0
  5 12  1  0
 12 13  1  0
 13 14  1  0
 14 15  1  0
 15 16  1  0
 16 17  2  0
 16 18  1  0
 18 19  1  0
 18 20  1  0
 20 21  1  0
 21 22  1  0
 22 23  2  0
 23 24  1  0
 24 25  2  0
 25 26  1  0
 26 27  2  0
 27 28  1  0
 28 29  2  0
 29 30  1  0
 30 31  2  0
 15 32  1  0
 32 33  1  0
 11  6  1  0
 33 12  1  0
 31 22  1  0
 30 25  1  0
  1 34  1  0
  1 35  1  0
  1 36  1  0
  2 37  1  0
  2 38  1  0
  7 39  1  0
  8 40  1  0
  9 41  1  0
 10 42  1  0
 11 43  1  0
 12 44  1  0
 13 45  1  0
 13 46  1  0
 14 47  1  0
 14 48  1  0
 18 49  1  1
 19 50  1  0
 19 51  1  0
 19 52  1  0
 20 53  1  0
 21 54  1  0
 21 55  1  0
 23 56  1  0
 24 57  1  0
 26 58  1  0
 27 59  1  0
 28 60  1  0
 29 61  1  0
 31 62  1  0
 32 63  1  0
 32 64  1  0
 33 65  1  0
 33 66  1  0
M  END
>  <smiles>  (19) 
CCC(=O)N(c1ccccc1)C1CCN(C(=O)[C@H](C)NCc2ccc3ccccc3c2)CC1

>  <score_type>  (19) 
oracle

>  <origin>  (19) 
autodockgpu

>  <m_score__min__energy>  (19) 
-9.3699999999999992

>  <m_primary>  (19) 
energy

>  <rmsd>  (19) 
8.922094335232705

>  <m_score__min__rmsd>  (19) 
8.922094335232705

>  <meeko>  (19) 
{"free_energy": -8.81, "intermolecular_energy": -11.2, "internal_energy": -2.24, "cluster_size": 7, "cluster_id": 2, "rank_in_cluster": 6}

>  <energy>  (19) 
-8.81

>  <cluster_rmsd>  (19) 
1.42

>  <cluster>  (19) 
1

$$$$

     RDKit          3D

 66 69  0  0  0  0  0  0  0  0999 V2000
  142.8990   78.1430  217.9130 C   0  0  0  0  0  0  0  0  0  0  0  0
  142.6860   77.1460  219.0700 C   0  0  0  0  0  0  0  0  0  0  0  0
  141.4060   77.5040  219.6810 C   0  0  0  0  0  0  0  0  0  0  0  0
  140.5260   78.0190  218.9060 O   0  0  0  0  0  0  0  0  0  0  0  0
  141.0190   77.3510  221.0270 N   0  0  0  0  0  0  0  0  0  0  0  0
  141.4850   78.3950  221.9230 C   0  0  0  0  0  0  0  0  0  0  0  0
  141.4180   78.1970  223.2900 C   0  0  0  0  0  0  0  0  0  0  0  0
  141.8390   79.1380  224.2060 C   0  0  0  0  0  0  0  0  0  0  0  0
  142.3480   80.3250  223.7170 C   0  0  0  0  0  0  0  0  0  0  0  0
  142.4160   80.5260  222.3600 C   0  0  0  0  0  0  0  0  0  0  0  0
  141.9910   79.5760  221.4350 C   0  0  0  0  0  0  0  0  0  0  0  0
  140.2460   76.3040  221.6030 C   0  0  0  0  0  0  0  0  0  0  0  0
  138.7600   76.4130  221.4320 C   0  0  0  0  0  0  0  0  0  0  0  0
  138.1590   75.2760  222.2810 C   0  0  0  0  0  0  0  0  0  0  0  0
  138.5330   74.0560  221.5520 N   0  0  0  0  0  0  0  0  0  0  0  0
  137.8380   72.8830  221.8810 C   0  0  0  0  0  0  0  0  0  0  0  0
  136.9510   72.9470  222.7670 O   0  0  0  0  0  0  0  0  0  0  0  0
  138.0720   71.5570  221.2550 C   0  0  2  0  0  0  0  0  0  0  0  0
  137.1400   71.3860  220.1050 C   0  0  0  0  0  0  0  0  0  0  0  0
  137.8710   70.5800  222.3020 N   0  0  0  0  0  0  0  0  0  0  0  0
  138.9560   69.6290  222.4220 C   0  0  0  0  0  0  0  0  0  0  0  0
  139.3410   69.6750  223.8800 C   0  0  0  0  0  0  0  0  0  0  0  0
  138.9860   68.6360  224.7180 C   0  0  0  0  0  0  0  0  0  0  0  0
  139.3390   68.6740  226.0650 C   0  0  0  0  0  0  0  0  0  0  0  0
  140.0400   69.7550  226.5420 C   0  0  0  0  0  0  0  0  0  0  0  0
  140.3800   69.7700  227.8930 C   0  0  0  0  0  0  0  0  0  0  0  0
  141.0920   70.8570  228.4020 C   0  0  0  0  0  0  0  0  0  0  0  0
  141.4350   71.8850  227.5480 C   0  0  0  0  0  0  0  0  0  0  0  0
  141.0930   71.8650  226.2020 C   0  0  0  0  0  0  0  0  0  0  0  0
  140.3870   70.7880  225.6900 C   0  0  0  0  0  0  0  0  0  0  0  0
  140.0450   70.7670  224.3480 C   0  0  0  0  0  0  0  0  0  0  0  0
  139.5830   74.1400  220.5520 C   0  0  0  0  0  0  0  0  0  0  0  0
  140.7380   74.9680  221.0780 C   0  0  0  0  0  0  0  0  0  0  0  0
  143.1122   79.1410  218.3235 H   0  0  0  0  0  0  0  0  0  0  0  0
  143.7467   77.8119  217.2951 H   0  0  0  0  0  0  0  0  0  0  0  0
  141.9900   78.1872  217.2951 H   0  0  0  0  0  0  0  0  0  0  0  0
  142.6510   76.1161  218.6853 H   0  0  0  0  0  0  0  0  0  0  0  0
  143.5079   77.1942  219.7995 H   0  0  0  0  0  0  0  0  0  0  0  0
  141.0105   77.2460  223.6636 H   0  0  0  0  0  0  0  0  0  0  0  0
  141.7718   78.9498  225.2877 H   0  0  0  0  0  0  0  0  0  0  0  0
  142.6969   81.1047  224.4101 H   0  0  0  0  0  0  0  0  0  0  0  0
  142.8234   81.4777  221.9882 H   0  0  0  0  0  0  0  0  0  0  0  0
  142.0578   79.7638  220.3532 H   0  0  0  0  0  0  0  0  0  0  0  0
  140.4009   76.3945  222.6883 H   0  0  0  0  0  0  0  0  0  0  0  0
  138.4031   77.3897  221.7909 H   0  0  0  0  0  0  0  0  0  0  0  0
  138.4654   76.3305  220.3754 H   0  0  0  0  0  0  0  0  0  0  0  0
  138.5888   75.2743  223.2936 H   0  0  0  0  0  0  0  0  0  0  0  0
  137.0715   75.3746  222.4139 H   0  0  0  0  0  0  0  0  0  0  0  0
  139.0860   71.4441  220.8439 H   0  0  0  0  0  0  0  0  0  0  0  0
  136.1234   71.1995  220.4815 H   0  0  0  0  0  0  0  0  0  0  0  0
  137.1422   72.2995  219.4923 H   0  0  0  0  0  0  0  0  0  0  0  0
  137.4664   70.5327  219.4923 H   0  0  0  0  0  0  0  0  0  0  0  0
  137.6560   71.0560  223.1800 H   0  0  0  0  0  0  0  0  0  0  0  0
  138.6211   68.6198  222.1402 H   0  0  0  0  0  0  0  0  0  0  0  0
  139.7997   69.8720  221.7593 H   0  0  0  0  0  0  0  0  0  0  0  0
  138.4239   67.7777  224.3213 H   0  0  0  0  0  0  0  0  0  0  0  0
  139.0602   67.8495  226.7377 H   0  0  0  0  0  0  0  0  0  0  0  0
  140.0911   68.9362  228.5497 H   0  0  0  0  0  0  0  0  0  0  0  0
  141.3745   70.8936  229.4645 H   0  0  0  0  0  0  0  0  0  0  0  0
  141.9951   72.7447  227.9444 H   0  0  0  0  0  0  0  0  0  0  0  0
  141.3810   72.6996  225.5459 H   0  0  0  0  0  0  0  0  0  0  0  0
  140.3248   71.5927  223.6773 H   0  0  0  0  0  0  0  0  0  0  0  0
  139.9402   73.1273  220.3136 H   0  0  0  0  0  0  0  0  0  0  0  0
  139.1805   74.6177  219.6466 H   0  0  0  0  0  0  0  0  0  0  0  0
  141.2331   74.4200  221.8932 H   0  0  0  0  0  0  0  0  0  0  0  0
  141.4453   75.1504  220.2555 H   0  0  0  0  0  0  0  0  0  0  0  0
  1  2  1  0
  2  3  1  0
  3  4  2  0
  3  5  1  0
  5  6  1  0
  6  7  2  0
  7  8  1  0
  8  9  2  0
  9 10  1  0
 10 11  2  0
  5 12  1  0
 12 13  1  0
 13 14  1  0
 14 15  1  0
 15 16  1  0
 16 17  2  0
 16 18  1  0
 18 19  1  0
 18 20  1  0
 20 21  1  0
 21 22  1  0
 22 23  2  0
 23 24  1  0
 24 25  2  0
 25 26  1  0
 26 27  2  0
 27 28  1  0
 28 29  2  0
 29 30  1  0
 30 31  2  0
 15 32  1  0
 32 33  1  0
 11  6  1  0
 33 12  1  0
 31 22  1  0
 30 25  1  0
  1 34  1  0
  1 35  1  0
  1 36  1  0
  2 37  1  0
  2 38  1  0
  7 39  1  0
  8 40  1  0
  9 41  1  0
 10 42  1  0
 11 43  1  0
 12 44  1  0
 13 45  1  0
 13 46  1  0
 14 47  1  0
 14 48  1  0
 18 49  1  6
 19 50  1  0
 19 51  1  0
 19 52  1  0
 20 53  1  0
 21 54  1  0
 21 55  1  0
 23 56  1  0
 24 57  1  0
 26 58  1  0
 27 59  1  0
 28 60  1  0
 29 61  1  0
 31 62  1  0
 32 63  1  0
 32 64  1  0
 33 65  1  0
 33 66  1  0
M  END
>  <smiles>  (20) 
CCC(=O)N(c1ccccc1)C1CCN(C(=O)[C@H](C)NCc2ccc3ccccc3c2)CC1

>  <score_type>  (20) 
oracle

>  <origin>  (20) 
autodockgpu

>  <m_score__min__energy>  (20) 
-9.3699999999999992

>  <m_primary>  (20) 
energy

>  <rmsd>  (20) 
9.454528821337664

>  <m_score__min__rmsd>  (20) 
9.454528821337664

>  <meeko>  (20) 
{"free_energy": -8.4, "intermolecular_energy": -10.79, "internal_energy": -2.47, "cluster_size": 36, "cluster_id": 1, "rank_in_cluster": 34}

>  <energy>  (20) 
-8.8

>  <cluster_rmsd>  (20) 
0.84

>  <cluster>  (20) 
1

$$$$

     RDKit          3D

 66 69  0  0  0  0  0  0  0  0999 V2000
  141.7900   80.5040  220.8060 C   0  0  0  0  0  0  0  0  0  0  0  0
  141.4400   81.6110  221.8220 C   0  0  0  0  0  0  0  0  0  0  0  0
  141.0440   80.9210  223.0490 C   0  0  0  0  0  0  0  0  0  0  0  0
  141.8820   80.9470  224.0170 O   0  0  0  0  0  0  0  0  0  0  0  0
  139.8440   80.2270  223.3000 N   0  0  0  0  0  0  0  0  0  0  0  0
  138.7010   81.0690  223.6140 C   0  0  0  0  0  0  0  0  0  0  0  0
  138.0600   80.9170  224.8300 C   0  0  0  0  0  0  0  0  0  0  0  0
  136.9700   81.6740  225.2030 C   0  0  0  0  0  0  0  0  0  0  0  0
  136.5130   82.6230  224.3080 C   0  0  0  0  0  0  0  0  0  0  0  0
  137.1460   82.7760  223.1000 C   0  0  0  0  0  0  0  0  0  0  0  0
  138.2470   82.0110  222.7230 C   0  0  0  0  0  0  0  0  0  0  0  0
  139.6260   78.8210  223.2930 C   0  0  0  0  0  0  0  0  0  0  0  0
  138.5120   78.3320  222.4140 C   0  0  0  0  0  0  0  0  0  0  0  0
  138.3730   76.8280  222.7170 C   0  0  0  0  0  0  0  0  0  0  0  0
  139.5910   76.2390  222.1440 N   0  0  0  0  0  0  0  0  0  0  0  0
  139.5920   74.8490  221.9490 C   0  0  0  0  0  0  0  0  0  0  0  0
  138.5660   74.2040  222.2730 O   0  0  0  0  0  0  0  0  0  0  0  0
  140.7250   74.0750  221.3820 C   0  0  2  0  0  0  0  0  0  0  0  0
  140.3530   73.5820  220.0250 C   0  0  0  0  0  0  0  0  0  0  0  0
  140.9910   73.0090  222.3220 N   0  0  0  0  0  0  0  0  0  0  0  0
  140.1540   71.8440  222.1280 C   0  0  0  0  0  0  0  0  0  0  0  0
  140.0780   71.2020  223.4910 C   0  0  0  0  0  0  0  0  0  0  0  0
  139.4600   69.9750  223.6390 C   0  0  0  0  0  0  0  0  0  0  0  0
  139.3870   69.3780  224.8960 C   0  0  0  0  0  0  0  0  0  0  0  0
  139.9360   70.0250  225.9770 C   0  0  0  0  0  0  0  0  0  0  0  0
  139.8490   69.4070  227.2210 C   0  0  0  0  0  0  0  0  0  0  0  0
  140.3990   70.0440  228.3350 C   0  0  0  0  0  0  0  0  0  0  0  0
  141.0120   71.2690  228.1650 C   0  0  0  0  0  0  0  0  0  0  0  0
  141.0950   71.8800  226.9200 C   0  0  0  0  0  0  0  0  0  0  0  0
  140.5510   71.2530  225.8110 C   0  0  0  0  0  0  0  0  0  0  0  0
  140.6330   71.8610  224.5690 C   0  0  0  0  0  0  0  0  0  0  0  0
  140.7010   77.1180  221.8200 C   0  0  0  0  0  0  0  0  0  0  0  0
  140.9210   78.1130  222.9400 C   0  0  0  0  0  0  0  0  0  0  0  0
  142.0791   79.5897  221.3450 H   0  0  0  0  0  0  0  0  0  0  0  0
  140.9139   80.2958  220.1743 H   0  0  0  0  0  0  0  0  0  0  0  0
  142.6266   80.8373  220.1743 H   0  0  0  0  0  0  0  0  0  0  0  0
  142.3160   82.2497  222.0083 H   0  0  0  0  0  0  0  0  0  0  0  0
  140.6358   82.2617  221.4480 H   0  0  0  0  0  0  0  0  0  0  0  0
  138.4369   80.1578  225.5311 H   0  0  0  0  0  0  0  0  0  0  0  0
  136.4815   81.5281  226.1777 H   0  0  0  0  0  0  0  0  0  0  0  0
  135.6471   83.2519  224.5625 H   0  0  0  0  0  0  0  0  0  0  0  0
  136.7676   83.5352  222.3997 H   0  0  0  0  0  0  0  0  0  0  0  0
  138.7350   82.1557  221.7479 H   0  0  0  0  0  0  0  0  0  0  0  0
  139.2946   78.5755  224.3127 H   0  0  0  0  0  0  0  0  0  0  0  0
  137.5763   78.8593  222.6513 H   0  0  0  0  0  0  0  0  0  0  0  0
  138.7238   78.5144  221.3501 H   0  0  0  0  0  0  0  0  0  0  0  0
  138.3247   76.6499  223.8014 H   0  0  0  0  0  0  0  0  0  0  0  0
  137.4535   76.3936  222.2977 H   0  0  0  0  0  0  0  0  0  0  0  0
  141.6364   74.6761  221.2480 H   0  0  0  0  0  0  0  0  0  0  0  0
  139.6929   72.7073  220.1209 H   0  0  0  0  0  0  0  0  0  0  0  0
  139.8289   74.3785  219.4765 H   0  0  0  0  0  0  0  0  0  0  0  0
  141.2627   73.2965  219.4765 H   0  0  0  0  0  0  0  0  0  0  0  0
  141.9890   72.7910  222.3200 H   0  0  0  0  0  0  0  0  0  0  0  0
  139.1527   72.1382  221.7805 H   0  0  0  0  0  0  0  0  0  0  0  0
  140.5579   71.1611  221.3660 H   0  0  0  0  0  0  0  0  0  0  0  0
  139.0255   69.4692  222.7641 H   0  0  0  0  0  0  0  0  0  0  0  0
  138.8963   68.4015  225.0214 H   0  0  0  0  0  0  0  0  0  0  0  0
  139.3538   68.4303  227.3251 H   0  0  0  0  0  0  0  0  0  0  0  0
  140.3448   69.5782  229.3300 H   0  0  0  0  0  0  0  0  0  0  0  0
  141.4468   71.7754  229.0394 H   0  0  0  0  0  0  0  0  0  0  0  0
  141.5902   72.8567  226.8154 H   0  0  0  0  0  0  0  0  0  0  0  0
  141.1245   72.8374  224.4460 H   0  0  0  0  0  0  0  0  0  0  0  0
  141.6124   76.5176  221.6825 H   0  0  0  0  0  0  0  0  0  0  0  0
  140.4692   77.6641  220.8937 H   0  0  0  0  0  0  0  0  0  0  0  0
  141.2946   77.5807  223.8272 H   0  0  0  0  0  0  0  0  0  0  0  0
  141.6537   78.8628  222.6070 H   0  0  0  0  0  0  0  0  0  0  0  0
  1  2  1  0
  2  3  1  0
  3  4  2  0
  3  5  1  0
  5  6  1  0
  6  7  2  0
  7  8  1  0
  8  9  2  0
  9 10  1  0
 10 11  2  0
  5 12  1  0
 12 13  1  0
 13 14  1  0
 14 15  1  0
 15 16  1  0
 16 17  2  0
 16 18  1  0
 18 19  1  0
 18 20  1  0
 20 21  1  0
 21 22  1  0
 22 23  2  0
 23 24  1  0
 24 25  2  0
 25 26  1  0
 26 27  2  0
 27 28  1  0
 28 29  2  0
 29 30  1  0
 30 31  2  0
 15 32  1  0
 32 33  1  0
 11  6  1  0
 33 12  1  0
 31 22  1  0
 30 25  1  0
  1 34  1  0
  1 35  1  0
  1 36  1  0
  2 37  1  0
  2 38  1  0
  7 39  1  0
  8 40  1  0
  9 41  1  0
 10 42  1  0
 11 43  1  0
 12 44  1  0
 13 45  1  0
 13 46  1  0
 14 47  1  0
 14 48  1  0
 18 49  1  6
 19 50  1  0
 19 51  1  0
 19 52  1  0
 20 53  1  0
 21 54  1  0
 21 55  1  0
 23 56  1  0
 24 57  1  0
 26 58  1  0
 27 59  1  0
 28 60  1  0
 29 61  1  0
 31 62  1  0
 32 63  1  0
 32 64  1  0
 33 65  1  0
 33 66  1  0
M  END
>  <smiles>  (21) 
CCC(=O)N(c1ccccc1)C1CCN(C(=O)[C@H](C)NCc2ccc3ccccc3c2)CC1

>  <score_type>  (21) 
oracle

>  <origin>  (21) 
autodockgpu

>  <m_score__min__energy>  (21) 
-9.3699999999999992

>  <m_primary>  (21) 
energy

>  <rmsd>  (21) 
8.890031454088419

>  <m_score__min__rmsd>  (21) 
8.890031454088419

>  <meeko>  (21) 
{"free_energy": -9.1, "intermolecular_energy": -11.48, "internal_energy": -1.72, "cluster_size": 7, "cluster_id": 2, "rank_in_cluster": 2}

>  <energy>  (21) 
-8.79

>  <cluster_rmsd>  (21) 
1.87

>  <cluster>  (21) 
1

$$$$

     RDKit          3D

 66 69  0  0  0  0  0  0  0  0999 V2000
  137.7270   80.9390  224.9620 C   0  0  0  0  0  0  0  0  0  0  0  0
  137.3840   81.6280  223.6250 C   0  0  0  0  0  0  0  0  0  0  0  0
  138.2800   81.0410  222.6280 C   0  0  0  0  0  0  0  0  0  0  0  0
  138.3690   81.6550  221.5070 O   0  0  0  0  0  0  0  0  0  0  0  0
  139.0620   79.8760  222.7500 N   0  0  0  0  0  0  0  0  0  0  0  0
  140.4980   80.0950  222.7170 C   0  0  0  0  0  0  0  0  0  0  0  0
  141.2230   80.0240  223.8920 C   0  0  0  0  0  0  0  0  0  0  0  0
  142.5870   80.2200  223.9460 C   0  0  0  0  0  0  0  0  0  0  0  0
  143.2410   80.4970  222.7610 C   0  0  0  0  0  0  0  0  0  0  0  0
  142.5250   80.5690  221.5910 C   0  0  0  0  0  0  0  0  0  0  0  0
  141.1480   80.3720  221.5380 C   0  0  0  0  0  0  0  0  0  0  0  0
  138.6170   78.5320  222.8880 C   0  0  0  0  0  0  0  0  0  0  0  0
  137.3780   78.1670  222.1250 C   0  0  0  0  0  0  0  0  0  0  0  0
  137.0170   76.7380  222.5760 C   0  0  0  0  0  0  0  0  0  0  0  0
  138.0780   75.9060  221.9910 N   0  0  0  0  0  0  0  0  0  0  0  0
  137.8370   74.5250  221.9280 C   0  0  0  0  0  0  0  0  0  0  0  0
  136.7450   74.0920  222.3710 O   0  0  0  0  0  0  0  0  0  0  0  0
  138.7840   73.5250  221.3730 C   0  0  2  0  0  0  0  0  0  0  0  0
  138.2620   73.0270  220.0690 C   0  0  0  0  0  0  0  0  0  0  0  0
  138.9040   72.4890  222.3730 N   0  0  0  0  0  0  0  0  0  0  0  0
  140.2640   72.2680  222.8180 C   0  0  0  0  0  0  0  0  0  0  0  0
  140.1470   71.2000  223.8770 C   0  0  0  0  0  0  0  0  0  0  0  0
  139.5280   70.0010  223.5790 C   0  0  0  0  0  0  0  0  0  0  0  0
  139.4170   69.0110  224.5530 C   0  0  0  0  0  0  0  0  0  0  0  0
  139.9310   69.2470  225.8060 C   0  0  0  0  0  0  0  0  0  0  0  0
  139.8070   68.2420  226.7620 C   0  0  0  0  0  0  0  0  0  0  0  0
  140.3200   68.4560  228.0430 C   0  0  0  0  0  0  0  0  0  0  0  0
  140.9340   69.6600  228.3190 C   0  0  0  0  0  0  0  0  0  0  0  0
  141.0540   70.6590  227.3610 C   0  0  0  0  0  0  0  0  0  0  0  0
  140.5470   70.4520  226.0880 C   0  0  0  0  0  0  0  0  0  0  0  0
  140.6660   71.4470  225.1320 C   0  0  0  0  0  0  0  0  0  0  0  0
  139.2900   76.5550  221.5220 C   0  0  0  0  0  0  0  0  0  0  0  0
  139.7500   77.5880  222.5290 C   0  0  0  0  0  0  0  0  0  0  0  0
  137.4080   81.5799  225.7972 H   0  0  0  0  0  0  0  0  0  0  0  0
  137.2048   79.9727  225.0211 H   0  0  0  0  0  0  0  0  0  0  0  0
  138.8128   80.7732  225.0211 H   0  0  0  0  0  0  0  0  0  0  0  0
  136.3347   81.4379  223.3551 H   0  0  0  0  0  0  0  0  0  0  0  0
  137.5115   82.7187  223.6892 H   0  0  0  0  0  0  0  0  0  0  0  0
  140.6874   79.8010  224.8265 H   0  0  0  0  0  0  0  0  0  0  0  0
  143.1344   80.1580  224.8981 H   0  0  0  0  0  0  0  0  0  0  0  0
  144.3290   80.6590  222.7545 H   0  0  0  0  0  0  0  0  0  0  0  0
  143.0620   80.7916  220.6572 H   0  0  0  0  0  0  0  0  0  0  0  0
  140.5996   80.4357  220.5866 H   0  0  0  0  0  0  0  0  0  0  0  0
  138.3244   78.4322  223.9437 H   0  0  0  0  0  0  0  0  0  0  0  0
  136.5607   78.8630  222.3649 H   0  0  0  0  0  0  0  0  0  0  0  0
  137.5393   78.2214  221.0383 H   0  0  0  0  0  0  0  0  0  0  0  0
  137.0193   76.6613  223.6733 H   0  0  0  0  0  0  0  0  0  0  0  0
  136.0107   76.4321  222.2537 H   0  0  0  0  0  0  0  0  0  0  0  0
  139.7804   73.9409  221.1629 H   0  0  0  0  0  0  0  0  0  0  0  0
  137.4770   72.2781  220.2502 H   0  0  0  0  0  0  0  0  0  0  0  0
  137.8419   73.8675  219.4971 H   0  0  0  0  0  0  0  0  0  0  0  0
  139.0818   72.5678  219.4971 H   0  0  0  0  0  0  0  0  0  0  0  0
  138.2560   72.6760  223.1400 H   0  0  0  0  0  0  0  0  0  0  0  0
  140.8941   71.9222  221.9853 H   0  0  0  0  0  0  0  0  0  0  0  0
  140.7330   73.1865  223.2007 H   0  0  0  0  0  0  0  0  0  0  0  0
  139.1223   69.8280  222.5713 H   0  0  0  0  0  0  0  0  0  0  0  0
  138.9252   68.0544  224.3227 H   0  0  0  0  0  0  0  0  0  0  0  0
  139.3116   67.2924  226.5114 H   0  0  0  0  0  0  0  0  0  0  0  0
  140.2361   67.6792  228.8173 H   0  0  0  0  0  0  0  0  0  0  0  0
  141.3402   69.8341  229.3263 H   0  0  0  0  0  0  0  0  0  0  0  0
  141.5487   71.6090  227.6116 H   0  0  0  0  0  0  0  0  0  0  0  0
  141.1580   72.4028  225.3652 H   0  0  0  0  0  0  0  0  0  0  0  0
  140.0789   75.8000  221.3890 H   0  0  0  0  0  0  0  0  0  0  0  0
  139.0837   77.0535  220.5634 H   0  0  0  0  0  0  0  0  0  0  0  0
  140.0949   77.0757  223.4393 H   0  0  0  0  0  0  0  0  0  0  0  0
  140.5692   78.1728  222.0853 H   0  0  0  0  0  0  0  0  0  0  0  0
  1  2  1  0
  2  3  1  0
  3  4  2  0
  3  5  1  0
  5  6  1  0
  6  7  2  0
  7  8  1  0
  8  9  2  0
  9 10  1  0
 10 11  2  0
  5 12  1  0
 12 13  1  0
 13 14  1  0
 14 15  1  0
 15 16  1  0
 16 17  2  0
 16 18  1  0
 18 19  1  0
 18 20  1  0
 20 21  1  0
 21 22  1  0
 22 23  2  0
 23 24  1  0
 24 25  2  0
 25 26  1  0
 26 27  2  0
 27 28  1  0
 28 29  2  0
 29 30  1  0
 30 31  2  0
 15 32  1  0
 32 33  1  0
 11  6  1  0
 33 12  1  0
 31 22  1  0
 30 25  1  0
  1 34  1  0
  1 35  1  0
  1 36  1  0
  2 37  1  0
  2 38  1  0
  7 39  1  0
  8 40  1  0
  9 41  1  0
 10 42  1  0
 11 43  1  0
 12 44  1  0
 13 45  1  0
 13 46  1  0
 14 47  1  0
 14 48  1  0
 18 49  1  6
 19 50  1  0
 19 51  1  0
 19 52  1  0
 20 53  1  0
 21 54  1  0
 21 55  1  0
 23 56  1  0
 24 57  1  0
 26 58  1  0
 27 59  1  0
 28 60  1  0
 29 61  1  0
 31 62  1  0
 32 63  1  0
 32 64  1  0
 33 65  1  0
 33 66  1  0
M  END
>  <smiles>  (22) 
CCC(=O)N(c1ccccc1)C1CCN(C(=O)[C@H](C)NCc2ccc3ccccc3c2)CC1

>  <score_type>  (22) 
oracle

>  <origin>  (22) 
autodockgpu

>  <m_score__min__energy>  (22) 
-9.3699999999999992

>  <m_primary>  (22) 
energy

>  <rmsd>  (22) 
9.13334874620009

>  <m_score__min__rmsd>  (22) 
9.13334874620009

>  <meeko>  (22) 
{"free_energy": -8.93, "intermolecular_energy": -11.32, "internal_energy": -2.22, "cluster_size": 36, "cluster_id": 1, "rank_in_cluster": 17}

>  <energy>  (22) 
-8.72

>  <cluster_rmsd>  (22) 
0.81

>  <cluster>  (22) 
1

$$$$

     RDKit          3D

 66 69  0  0  0  0  0  0  0  0999 V2000
  142.9440   77.0940  218.3820 C   0  0  0  0  0  0  0  0  0  0  0  0
  142.6010   76.7740  219.8510 C   0  0  0  0  0  0  0  0  0  0  0  0
  141.8550   77.9280  220.3510 C   0  0  0  0  0  0  0  0  0  0  0  0
  141.8980   78.9910  219.6380 O   0  0  0  0  0  0  0  0  0  0  0  0
  141.0880   78.0160  221.5300 N   0  0  0  0  0  0  0  0  0  0  0  0
  141.4320   79.1220  222.4070 C   0  0  0  0  0  0  0  0  0  0  0  0
  142.7640   79.4100  222.6450 C   0  0  0  0  0  0  0  0  0  0  0  0
  143.1730   80.4410  223.4640 C   0  0  0  0  0  0  0  0  0  0  0  0
  142.1950   81.2100  224.0640 C   0  0  0  0  0  0  0  0  0  0  0  0
  140.8710   80.9260  223.8310 C   0  0  0  0  0  0  0  0  0  0  0  0
  140.4580   79.8850  223.0040 C   0  0  0  0  0  0  0  0  0  0  0  0
  140.0400   77.1540  221.9600 C   0  0  0  0  0  0  0  0  0  0  0  0
  138.7490   77.2600  221.2020 C   0  0  0  0  0  0  0  0  0  0  0  0
  137.7460   76.3700  221.9620 C   0  0  0  0  0  0  0  0  0  0  0  0
  138.2230   75.0040  221.7060 N   0  0  0  0  0  0  0  0  0  0  0  0
  137.3250   73.9590  221.9700 C   0  0  0  0  0  0  0  0  0  0  0  0
  136.1840   74.2530  222.4050 O   0  0  0  0  0  0  0  0  0  0  0  0
  137.6210   72.5180  221.7740 C   0  0  2  0  0  0  0  0  0  0  0  0
  136.4010   71.8320  221.2610 C   0  0  0  0  0  0  0  0  0  0  0  0
  138.0570   72.0200  223.0590 N   0  0  0  0  0  0  0  0  0  0  0  0
  139.4890   71.8210  223.1470 C   0  0  0  0  0  0  0  0  0  0  0  0
  139.6590   70.7660  224.2120 C   0  0  0  0  0  0  0  0  0  0  0  0
  139.1970   69.4830  223.9890 C   0  0  0  0  0  0  0  0  0  0  0  0
  139.3520   68.5050  224.9680 C   0  0  0  0  0  0  0  0  0  0  0  0
  139.9680   68.8360  226.1510 C   0  0  0  0  0  0  0  0  0  0  0  0
  140.1110   67.8400  227.1140 C   0  0  0  0  0  0  0  0  0  0  0  0
  140.7330   68.1500  228.3250 C   0  0  0  0  0  0  0  0  0  0  0  0
  141.1880   69.4380  228.5270 C   0  0  0  0  0  0  0  0  0  0  0  0
  141.0420   70.4260  227.5620 C   0  0  0  0  0  0  0  0  0  0  0  0
  140.4250   70.1240  226.3590 C   0  0  0  0  0  0  0  0  0  0  0  0
  140.2800   71.1100  225.3960 C   0  0  0  0  0  0  0  0  0  0  0  0
  139.5740   74.8230  221.2030 C   0  0  0  0  0  0  0  0  0  0  0  0
  140.5340   75.7200  221.9560 C   0  0  0  0  0  0  0  0  0  0  0  0
  143.7479   77.8440  218.3482 H   0  0  0  0  0  0  0  0  0  0  0  0
  143.2770   76.1764  217.8750 H   0  0  0  0  0  0  0  0  0  0  0  0
  142.0517   77.4898  217.8750 H   0  0  0  0  0  0  0  0  0  0  0  0
  141.9841   75.8652  219.9103 H   0  0  0  0  0  0  0  0  0  0  0  0
  143.5080   76.5918  220.4461 H   0  0  0  0  0  0  0  0  0  0  0  0
  143.5309   78.7888  222.1592 H   0  0  0  0  0  0  0  0  0  0  0  0
  144.2407   80.6440  223.6336 H   0  0  0  0  0  0  0  0  0  0  0  0
  142.4743   82.0444  224.7241 H   0  0  0  0  0  0  0  0  0  0  0  0
  140.1052   81.5473  224.3184 H   0  0  0  0  0  0  0  0  0  0  0  0
  139.3904   79.6808  222.8347 H   0  0  0  0  0  0  0  0  0  0  0  0
  139.7869   77.4918  222.9758 H   0  0  0  0  0  0  0  0  0  0  0  0
  138.3994   78.3028  221.1836 H   0  0  0  0  0  0  0  0  0  0  0  0
  138.8645   76.9403  220.1559 H   0  0  0  0  0  0  0  0  0  0  0  0
  137.7608   76.5946  223.0387 H   0  0  0  0  0  0  0  0  0  0  0  0
  136.7074   76.5255  221.6348 H   0  0  0  0  0  0  0  0  0  0  0  0
  138.4093   72.3350  221.0290 H   0  0  0  0  0  0  0  0  0  0  0  0
  135.7898   71.4883  222.1086 H   0  0  0  0  0  0  0  0  0  0  0  0
  135.8163   72.5336  220.6479 H   0  0  0  0  0  0  0  0  0  0  0  0
  136.6967   70.9679  220.6479 H   0  0  0  0  0  0  0  0  0  0  0  0
  137.6880   72.6170  223.8010 H   0  0  0  0  0  0  0  0  0  0  0  0
  139.8928   71.4714  222.1854 H   0  0  0  0  0  0  0  0  0  0  0  0
  140.0263   72.7499  223.3888 H   0  0  0  0  0  0  0  0  0  0  0  0
  138.7061   69.2338  223.0367 H   0  0  0  0  0  0  0  0  0  0  0  0
  138.9865   67.4817  224.7968 H   0  0  0  0  0  0  0  0  0  0  0  0
  139.7388   66.8226  226.9230 H   0  0  0  0  0  0  0  0  0  0  0  0
  140.8582   67.3828  229.1033 H   0  0  0  0  0  0  0  0  0  0  0  0
  141.6797   69.6884  229.4786 H   0  0  0  0  0  0  0  0  0  0  0  0
  141.4145   71.4434  227.7520 H   0  0  0  0  0  0  0  0  0  0  0  0
  140.6473   72.1323  225.5692 H   0  0  0  0  0  0  0  0  0  0  0  0
  139.8749   73.7736  221.3378 H   0  0  0  0  0  0  0  0  0  0  0  0
  139.5988   75.0851  220.1350 H   0  0  0  0  0  0  0  0  0  0  0  0
  140.6204   75.3654  222.9937 H   0  0  0  0  0  0  0  0  0  0  0  0
  141.5137   75.6858  221.4570 H   0  0  0  0  0  0  0  0  0  0  0  0
  1  2  1  0
  2  3  1  0
  3  4  2  0
  3  5  1  0
  5  6  1  0
  6  7  2  0
  7  8  1  0
  8  9  2  0
  9 10  1  0
 10 11  2  0
  5 12  1  0
 12 13  1  0
 13 14  1  0
 14 15  1  0
 15 16  1  0
 16 17  2  0
 16 18  1  0
 18 19  1  0
 18 20  1  0
 20 21  1  0
 21 22  1  0
 22 23  2  0
 23 24  1  0
 24 25  2  0
 25 26  1  0
 26 27  2  0
 27 28  1  0
 28 29  2  0
 29 30  1  0
 30 31  2  0
 15 32  1  0
 32 33  1  0
 11  6  1  0
 33 12  1  0
 31 22  1  0
 30 25  1  0
  1 34  1  0
  1 35  1  0
  1 36  1  0
  2 37  1  0
  2 38  1  0
  7 39  1  0
  8 40  1  0
  9 41  1  0
 10 42  1  0
 11 43  1  0
 12 44  1  0
 13 45  1  0
 13 46  1  0
 14 47  1  0
 14 48  1  0
 18 49  1  6
 19 50  1  0
 19 51  1  0
 19 52  1  0
 20 53  1  0
 21 54  1  0
 21 55  1  0
 23 56  1  0
 24 57  1  0
 26 58  1  0
 27 59  1  0
 28 60  1  0
 29 61  1  0
 31 62  1  0
 32 63  1  0
 32 64  1  0
 33 65  1  0
 33 66  1  0
M  END
>  <smiles>  (23) 
CCC(=O)N(c1ccccc1)C1CCN(C(=O)[C@H](C)NCc2ccc3ccccc3c2)CC1

>  <score_type>  (23) 
oracle

>  <origin>  (23) 
autodockgpu

>  <m_score__min__energy>  (23) 
-9.3699999999999992

>  <m_primary>  (23) 
energy

>  <rmsd>  (23) 
9.292164349068571

>  <m_score__min__rmsd>  (23) 
9.292164349068571

>  <meeko>  (23) 
{"free_energy": -9.37, "intermolecular_energy": -11.76, "internal_energy": -1.82, "cluster_size": 36, "cluster_id": 1, "rank_in_cluster": 2}

>  <energy>  (23) 
-8.71

>  <cluster_rmsd>  (23) 
1.05

>  <cluster>  (23) 
1

$$$$

     RDKit          3D

 66 69  0  0  0  0  0  0  0  0999 V2000
  133.1880   66.6510  226.4600 C   0  0  0  0  0  0  0  0  0  0  0  0
  132.7480   67.8790  225.6360 C   0  0  0  0  0  0  0  0  0  0  0  0
  133.8620   68.1830  224.7380 C   0  0  0  0  0  0  0  0  0  0  0  0
  134.2390   67.2420  223.9550 O   0  0  0  0  0  0  0  0  0  0  0  0
  134.5770   69.3910  224.6280 N   0  0  0  0  0  0  0  0  0  0  0  0
  134.1400   70.4480  225.5250 C   0  0  0  0  0  0  0  0  0  0  0  0
  133.4310   71.5200  225.0170 C   0  0  0  0  0  0  0  0  0  0  0  0
  132.9820   72.5620  225.8000 C   0  0  0  0  0  0  0  0  0  0  0  0
  133.2620   72.5140  227.1520 C   0  0  0  0  0  0  0  0  0  0  0  0
  133.9660   71.4510  227.6610 C   0  0  0  0  0  0  0  0  0  0  0  0
  134.4200   70.3990  226.8700 C   0  0  0  0  0  0  0  0  0  0  0  0
  135.6520   69.6970  223.7480 C   0  0  0  0  0  0  0  0  0  0  0  0
  135.2920   69.8530  222.2990 C   0  0  0  0  0  0  0  0  0  0  0  0
  136.6310   70.0030  221.5520 C   0  0  0  0  0  0  0  0  0  0  0  0
  137.1180   71.3270  221.9630 N   0  0  0  0  0  0  0  0  0  0  0  0
  138.1370   71.8970  221.1850 C   0  0  0  0  0  0  0  0  0  0  0  0
  138.5640   71.2480  220.1990 O   0  0  0  0  0  0  0  0  0  0  0  0
  138.7560   73.2220  221.4400 C   0  0  2  0  0  0  0  0  0  0  0  0
  139.6880   73.5510  220.3250 C   0  0  0  0  0  0  0  0  0  0  0  0
  139.4160   73.1160  222.7210 N   0  0  0  0  0  0  0  0  0  0  0  0
  140.5780   72.2530  222.7040 C   0  0  0  0  0  0  0  0  0  0  0  0
  140.3140   71.2410  223.7920 C   0  0  0  0  0  0  0  0  0  0  0  0
  139.6500   70.0660  223.4920 C   0  0  0  0  0  0  0  0  0  0  0  0
  139.4040   69.1290  224.4910 C   0  0  0  0  0  0  0  0  0  0  0  0
  139.8290   69.3900  225.7720 C   0  0  0  0  0  0  0  0  0  0  0  0
  139.5700   68.4370  226.7540 C   0  0  0  0  0  0  0  0  0  0  0  0
  139.9910   68.6780  228.0620 C   0  0  0  0  0  0  0  0  0  0  0  0
  140.6520   69.8570  228.3410 C   0  0  0  0  0  0  0  0  0  0  0  0
  140.9080   70.8040  227.3570 C   0  0  0  0  0  0  0  0  0  0  0  0
  140.4920   70.5700  226.0560 C   0  0  0  0  0  0  0  0  0  0  0  0
  140.7450   71.5140  225.0740 C   0  0  0  0  0  0  0  0  0  0  0  0
  136.5250   71.9520  223.1320 C   0  0  0  0  0  0  0  0  0  0  0  0
  136.3720   70.9370  224.2450 C   0  0  0  0  0  0  0  0  0  0  0  0
  133.1057   66.8806  227.5326 H   0  0  0  0  0  0  0  0  0  0  0  0
  132.5405   65.7955  226.2174 H   0  0  0  0  0  0  0  0  0  0  0  0
  134.2315   66.4014  226.2174 H   0  0  0  0  0  0  0  0  0  0  0  0
  131.8427   67.6457  225.0564 H   0  0  0  0  0  0  0  0  0  0  0  0
  132.5088   68.7345  226.2848 H   0  0  0  0  0  0  0  0  0  0  0  0
  133.2151   71.5429  223.9386 H   0  0  0  0  0  0  0  0  0  0  0  0
  132.4209   73.4016  225.3639 H   0  0  0  0  0  0  0  0  0  0  0  0
  132.9230   73.3224  227.8165 H   0  0  0  0  0  0  0  0  0  0  0  0
  134.1805   71.4295  228.7397 H   0  0  0  0  0  0  0  0  0  0  0  0
  134.9820   69.5596  227.3053 H   0  0  0  0  0  0  0  0  0  0  0  0
  136.3051   68.8122  223.7720 H   0  0  0  0  0  0  0  0  0  0  0  0
  134.7499   68.9655  221.9405 H   0  0  0  0  0  0  0  0  0  0  0  0
  134.6353   70.7199  222.1343 H   0  0  0  0  0  0  0  0  0  0  0  0
  137.3375   69.2153  221.8528 H   0  0  0  0  0  0  0  0  0  0  0  0
  136.5212   69.9109  220.4614 H   0  0  0  0  0  0  0  0  0  0  0  0
  138.0238   74.0420  221.4769 H   0  0  0  0  0  0  0  0  0  0  0  0
  140.6492   73.8903  220.7386 H   0  0  0  0  0  0  0  0  0  0  0  0
  139.8504   72.6559  219.7066 H   0  0  0  0  0  0  0  0  0  0  0  0
  139.2525   74.3497  219.7066 H   0  0  0  0  0  0  0  0  0  0  0  0
  139.6150   74.0500  223.0840 H   0  0  0  0  0  0  0  0  0  0  0  0
  140.6792   71.7565  221.7276 H   0  0  0  0  0  0  0  0  0  0  0  0
  141.5134   72.8082  222.8676 H   0  0  0  0  0  0  0  0  0  0  0  0
  139.3157   69.8716  222.4622 H   0  0  0  0  0  0  0  0  0  0  0  0
  138.8766   68.1921  224.2587 H   0  0  0  0  0  0  0  0  0  0  0  0
  139.0405   67.5065  226.5016 H   0  0  0  0  0  0  0  0  0  0  0  0
  139.7996   67.9417  228.8565 H   0  0  0  0  0  0  0  0  0  0  0  0
  140.9854   70.0524  229.3709 H   0  0  0  0  0  0  0  0  0  0  0  0
  141.4380   71.7343  227.6093 H   0  0  0  0  0  0  0  0  0  0  0  0
  141.2722   72.4505  225.3087 H   0  0  0  0  0  0  0  0  0  0  0  0
  137.1735   72.7719  223.4743 H   0  0  0  0  0  0  0  0  0  0  0  0
  135.5329   72.3451  222.8651 H   0  0  0  0  0  0  0  0  0  0  0  0
  137.3687   70.6522  224.6129 H   0  0  0  0  0  0  0  0  0  0  0  0
  135.7796   71.3881  225.0547 H   0  0  0  0  0  0  0  0  0  0  0  0
  1  2  1  0
  2  3  1  0
  3  4  2  0
  3  5  1  0
  5  6  1  0
  6  7  2  0
  7  8  1  0
  8  9  2  0
  9 10  1  0
 10 11  2  0
  5 12  1  0
 12 13  1  0
 13 14  1  0
 14 15  1  0
 15 16  1  0
 16 17  2  0
 16 18  1  0
 18 19  1  0
 18 20  1  0
 20 21  1  0
 21 22  1  0
 22 23  2  0
 23 24  1  0
 24 25  2  0
 25 26  1  0
 26 27  2  0
 27 28  1  0
 28 29  2  0
 29 30  1  0
 30 31  2  0
 15 32  1  0
 32 33  1  0
 11  6  1  0
 33 12  1  0
 31 22  1  0
 30 25  1  0
  1 34  1  0
  1 35  1  0
  1 36  1  0
  2 37  1  0
  2 38  1  0
  7 39  1  0
  8 40  1  0
  9 41  1  0
 10 42  1  0
 11 43  1  0
 12 44  1  0
 13 45  1  0
 13 46  1  0
 14 47  1  0
 14 48  1  0
 18 49  1  1
 19 50  1  0
 19 51  1  0
 19 52  1  0
 20 53  1  0
 21 54  1  0
 21 55  1  0
 23 56  1  0
 24 57  1  0
 26 58  1  0
 27 59  1  0
 28 60  1  0
 29 61  1  0
 31 62  1  0
 32 63  1  0
 32 64  1  0
 33 65  1  0
 33 66  1  0
M  END
>  <smiles>  (24) 
CCC(=O)N(c1ccccc1)C1CCN(C(=O)[C@H](C)NCc2ccc3ccccc3c2)CC1

>  <score_type>  (24) 
oracle

>  <origin>  (24) 
autodockgpu

>  <m_score__min__energy>  (24) 
-9.3699999999999992

>  <m_primary>  (24) 
energy

>  <rmsd>  (24) 
9.702125307261802

>  <m_score__min__rmsd>  (24) 
9.702125307261802

>  <meeko>  (24) 
{"free_energy": -7.94, "intermolecular_energy": -10.33, "internal_energy": -2.71, "cluster_size": 1, "cluster_id": 6, "rank_in_cluster": 1}

>  <energy>  (24) 
-8.7

>  <cluster_rmsd>  (24) 
1.04

>  <cluster>  (24) 
1

$$$$

     RDKit          3D

 66 69  0  0  0  0  0  0  0  0999 V2000
  141.8080   80.3460  220.9590 C   0  0  0  0  0  0  0  0  0  0  0  0
  141.4840   81.5040  221.9250 C   0  0  0  0  0  0  0  0  0  0  0  0
  140.9130   80.8840  223.1210 C   0  0  0  0  0  0  0  0  0  0  0  0
  141.6820   80.7940  224.1410 O   0  0  0  0  0  0  0  0  0  0  0  0
  139.6120   80.3710  223.2900 N   0  0  0  0  0  0  0  0  0  0  0  0
  138.5770   81.3720  223.4830 C   0  0  0  0  0  0  0  0  0  0  0  0
  137.8730   81.4010  224.6730 C   0  0  0  0  0  0  0  0  0  0  0  0
  136.8760   82.3170  224.9340 C   0  0  0  0  0  0  0  0  0  0  0  0
  136.5820   83.2410  223.9500 C   0  0  0  0  0  0  0  0  0  0  0  0
  137.2790   83.2160  222.7660 C   0  0  0  0  0  0  0  0  0  0  0  0
  138.2840   82.2910  222.5030 C   0  0  0  0  0  0  0  0  0  0  0  0
  139.2020   79.0090  223.3040 C   0  0  0  0  0  0  0  0  0  0  0  0
  138.0690   78.6530  222.3880 C   0  0  0  0  0  0  0  0  0  0  0  0
  137.7100   77.1910  222.7170 C   0  0  0  0  0  0  0  0  0  0  0  0
  138.8570   76.4240  222.2130 N   0  0  0  0  0  0  0  0  0  0  0  0
  138.6730   75.0430  222.0490 C   0  0  0  0  0  0  0  0  0  0  0  0
  137.5550   74.5550  222.3410 O   0  0  0  0  0  0  0  0  0  0  0  0
  139.7110   74.1040  221.5510 C   0  0  2  0  0  0  0  0  0  0  0  0
  139.7000   74.1060  220.0610 C   0  0  0  0  0  0  0  0  0  0  0  0
  139.3900   72.8150  222.1210 N   0  0  0  0  0  0  0  0  0  0  0  0
  140.5430   71.9590  222.3030 C   0  0  0  0  0  0  0  0  0  0  0  0
  140.2780   71.2350  223.5990 C   0  0  0  0  0  0  0  0  0  0  0  0
  139.5990   70.0320  223.5890 C   0  0  0  0  0  0  0  0  0  0  0  0
  139.3510   69.3590  224.7830 C   0  0  0  0  0  0  0  0  0  0  0  0
  139.7900   69.9100  225.9640 C   0  0  0  0  0  0  0  0  0  0  0  0
  139.5300   69.2180  227.1440 C   0  0  0  0  0  0  0  0  0  0  0  0
  139.9650   69.7560  228.3560 C   0  0  0  0  0  0  0  0  0  0  0  0
  140.6410   70.9600  228.3440 C   0  0  0  0  0  0  0  0  0  0  0  0
  140.8980   71.6440  227.1630 C   0  0  0  0  0  0  0  0  0  0  0  0
  140.4680   71.1150  225.9570 C   0  0  0  0  0  0  0  0  0  0  0  0
  140.7230   71.7980  224.7790 C   0  0  0  0  0  0  0  0  0  0  0  0
  140.0910   77.1330  221.9200 C   0  0  0  0  0  0  0  0  0  0  0  0
  140.3990   78.1200  223.0260 C   0  0  0  0  0  0  0  0  0  0  0  0
  142.0600   79.4452  221.5379 H   0  0  0  0  0  0  0  0  0  0  0  0
  140.9326   80.1415  220.3251 H   0  0  0  0  0  0  0  0  0  0  0  0
  142.6624   80.6255  220.3251 H   0  0  0  0  0  0  0  0  0  0  0  0
  142.4005   82.0558  222.1811 H   0  0  0  0  0  0  0  0  0  0  0  0
  140.7860   82.2233  221.4718 H   0  0  0  0  0  0  0  0  0  0  0  0
  138.1198   80.6592  225.4469 H   0  0  0  0  0  0  0  0  0  0  0  0
  136.3342   82.3122  225.8913 H   0  0  0  0  0  0  0  0  0  0  0  0
  135.7950   83.9919  224.1132 H   0  0  0  0  0  0  0  0  0  0  0  0
  137.0317   83.9590  221.9935 H   0  0  0  0  0  0  0  0  0  0  0  0
  138.8250   82.2945  221.5453 H   0  0  0  0  0  0  0  0  0  0  0  0
  138.7978   78.8408  224.3131 H   0  0  0  0  0  0  0  0  0  0  0  0
  137.2063   79.3103  222.5716 H   0  0  0  0  0  0  0  0  0  0  0  0
  138.3482   78.7744  221.3310 H   0  0  0  0  0  0  0  0  0  0  0  0
  137.5920   77.0515  223.8017 H   0  0  0  0  0  0  0  0  0  0  0  0
  136.7576   76.8760  222.2657 H   0  0  0  0  0  0  0  0  0  0  0  0
  140.7313   74.3880  221.8483 H   0  0  0  0  0  0  0  0  0  0  0  0
  138.6771   74.2926  219.7021 H   0  0  0  0  0  0  0  0  0  0  0  0
  140.3686   74.8970  219.6905 H   0  0  0  0  0  0  0  0  0  0  0  0
  140.0463   73.1299  219.6905 H   0  0  0  0  0  0  0  0  0  0  0  0
  138.8470   72.9440  222.9780 H   0  0  0  0  0  0  0  0  0  0  0  0
  140.6322   71.2454  221.4707 H   0  0  0  0  0  0  0  0  0  0  0  0
  141.4847   72.5270  222.3273 H   0  0  0  0  0  0  0  0  0  0  0  0
  139.2535   69.6047  222.6361 H   0  0  0  0  0  0  0  0  0  0  0  0
  138.8116   68.4003  224.7813 H   0  0  0  0  0  0  0  0  0  0  0  0
  138.9892   68.2604  227.1212 H   0  0  0  0  0  0  0  0  0  0  0  0
  139.7729   69.2307  229.3032 H   0  0  0  0  0  0  0  0  0  0  0  0
  140.9856   71.3893  229.2964 H   0  0  0  0  0  0  0  0  0  0  0  0
  141.4402   72.6009  227.1850 H   0  0  0  0  0  0  0  0  0  0  0  0
  141.2620   72.7569  224.7833 H   0  0  0  0  0  0  0  0  0  0  0  0
  140.9156   76.4096  221.8379 H   0  0  0  0  0  0  0  0  0  0  0  0
  139.9763   77.6789  220.9719 H   0  0  0  0  0  0  0  0  0  0  0  0
  140.6576   77.5670  223.9410 H   0  0  0  0  0  0  0  0  0  0  0  0
  141.2416   78.7523  222.7094 H   0  0  0  0  0  0  0  0  0  0  0  0
  1  2  1  0
  2  3  1  0
  3  4  2  0
  3  5  1  0
  5  6  1  0
  6  7  2  0
  7  8  1  0
  8  9  2  0
  9 10  1  0
 10 11  2  0
  5 12  1  0
 12 13  1  0
 13 14  1  0
 14 15  1  0
 15 16  1  0
 16 17  2  0
 16 18  1  0
 18 19  1  0
 18 20  1  0
 20 21  1  0
 21 22  1  0
 22 23  2  0
 23 24  1  0
 24 25  2  0
 25 26  1  0
 26 27  2  0
 27 28  1  0
 28 29  2  0
 29 30  1  0
 30 31  2  0
 15 32  1  0
 32 33  1  0
 11  6  1  0
 33 12  1  0
 31 22  1  0
 30 25  1  0
  1 34  1  0
  1 35  1  0
  1 36  1  0
  2 37  1  0
  2 38  1  0
  7 39  1  0
  8 40  1  0
  9 41  1  0
 10 42  1  0
 11 43  1  0
 12 44  1  0
 13 45  1  0
 13 46  1  0
 14 47  1  0
 14 48  1  0
 18 49  1  6
 19 50  1  0
 19 51  1  0
 19 52  1  0
 20 53  1  0
 21 54  1  0
 21 55  1  0
 23 56  1  0
 24 57  1  0
 26 58  1  0
 27 59  1  0
 28 60  1  0
 29 61  1  0
 31 62  1  0
 32 63  1  0
 32 64  1  0
 33 65  1  0
 33 66  1  0
M  END
>  <smiles>  (25) 
CCC(=O)N(c1ccccc1)C1CCN(C(=O)[C@H](C)NCc2ccc3ccccc3c2)CC1

>  <score_type>  (25) 
oracle

>  <origin>  (25) 
autodockgpu

>  <m_score__min__energy>  (25) 
-9.3699999999999992

>  <m_primary>  (25) 
energy

>  <rmsd>  (25) 
8.988906428010878

>  <m_score__min__rmsd>  (25) 
8.988906428010878

>  <meeko>  (25) 
{"free_energy": -8.57, "intermolecular_energy": -10.96, "internal_energy": -2.31, "cluster_size": 7, "cluster_id": 2, "rank_in_cluster": 7}

>  <energy>  (25) 
-8.65

>  <cluster_rmsd>  (25) 
1.1

>  <cluster>  (25) 
1

$$$$

     RDKit          3D

 66 69  0  0  0  0  0  0  0  0999 V2000
  143.2760   76.6850  219.6130 C   0  0  0  0  0  0  0  0  0  0  0  0
  141.9420   77.3580  219.2290 C   0  0  0  0  0  0  0  0  0  0  0  0
  141.7540   78.4530  220.1810 C   0  0  0  0  0  0  0  0  0  0  0  0
  142.1640   79.6090  219.8110 O   0  0  0  0  0  0  0  0  0  0  0  0
  141.1740   78.3920  221.4630 N   0  0  0  0  0  0  0  0  0  0  0  0
  141.6080   79.4300  222.3830 C   0  0  0  0  0  0  0  0  0  0  0  0
  142.9500   79.5410  222.6970 C   0  0  0  0  0  0  0  0  0  0  0  0
  143.4430   80.4960  223.5610 C   0  0  0  0  0  0  0  0  0  0  0  0
  142.5380   81.3740  224.1280 C   0  0  0  0  0  0  0  0  0  0  0  0
  141.2040   81.2660  223.8200 C   0  0  0  0  0  0  0  0  0  0  0  0
  140.7080   80.3010  222.9480 C   0  0  0  0  0  0  0  0  0  0  0  0
  140.2370   77.4430  221.9580 C   0  0  0  0  0  0  0  0  0  0  0  0
  138.8180   77.6200  221.5020 C   0  0  0  0  0  0  0  0  0  0  0  0
  137.9930   76.5940  222.3020 C   0  0  0  0  0  0  0  0  0  0  0  0
  138.4080   75.2980  221.7470 N   0  0  0  0  0  0  0  0  0  0  0  0
  137.5830   74.1980  222.0230 C   0  0  0  0  0  0  0  0  0  0  0  0
  136.5550   74.3860  222.7190 O   0  0  0  0  0  0  0  0  0  0  0  0
  137.8330   72.8120  221.5500 C   0  0  2  0  0  0  0  0  0  0  0  0
  136.6200   72.3070  220.8470 C   0  0  0  0  0  0  0  0  0  0  0  0
  138.1710   72.0440  222.7270 N   0  0  0  0  0  0  0  0  0  0  0  0
  139.5950   71.8390  222.8950 C   0  0  0  0  0  0  0  0  0  0  0  0
  139.7040   70.8440  224.0230 C   0  0  0  0  0  0  0  0  0  0  0  0
  139.1520   69.5840  223.8850 C   0  0  0  0  0  0  0  0  0  0  0  0
  139.2500   68.6610  224.9230 C   0  0  0  0  0  0  0  0  0  0  0  0
  139.9000   69.0220  226.0790 C   0  0  0  0  0  0  0  0  0  0  0  0
  139.9830   68.0810  227.1020 C   0  0  0  0  0  0  0  0  0  0  0  0
  140.6380   68.4230  228.2870 C   0  0  0  0  0  0  0  0  0  0  0  0
  141.1820   69.6860  228.4050 C   0  0  0  0  0  0  0  0  0  0  0  0
  141.0950   70.6200  227.3800 C   0  0  0  0  0  0  0  0  0  0  0  0
  140.4460   70.2860  226.2020 C   0  0  0  0  0  0  0  0  0  0  0  0
  140.3590   71.2170  225.1800 C   0  0  0  0  0  0  0  0  0  0  0  0
  139.6270   75.2390  220.9600 C   0  0  0  0  0  0  0  0  0  0  0  0
  140.7210   76.0420  221.6330 C   0  0  0  0  0  0  0  0  0  0  0  0
  143.3626   76.6413  220.7087 H   0  0  0  0  0  0  0  0  0  0  0  0
  143.3038   75.6650  219.2021 H   0  0  0  0  0  0  0  0  0  0  0  0
  144.1129   77.2688  219.2021 H   0  0  0  0  0  0  0  0  0  0  0  0
  141.9928   77.7489  218.2020 H   0  0  0  0  0  0  0  0  0  0  0  0
  141.1056   76.6445  219.2654 H   0  0  0  0  0  0  0  0  0  0  0  0
  143.6568   78.8351  222.2365 H   0  0  0  0  0  0  0  0  0  0  0  0
  144.5170   80.5570  223.7907 H   0  0  0  0  0  0  0  0  0  0  0  0
  142.8843   82.1543  224.8216 H   0  0  0  0  0  0  0  0  0  0  0  0
  140.4978   81.9717  224.2818 H   0  0  0  0  0  0  0  0  0  0  0  0
  139.6339   80.2380  222.7194 H   0  0  0  0  0  0  0  0  0  0  0  0
  140.1966   77.6163  223.0435 H   0  0  0  0  0  0  0  0  0  0  0  0
  138.4709   78.6417  221.7156 H   0  0  0  0  0  0  0  0  0  0  0  0
  138.7174   77.4655  220.4176 H   0  0  0  0  0  0  0  0  0  0  0  0
  138.2280   76.6538  223.3749 H   0  0  0  0  0  0  0  0  0  0  0  0
  136.9093   76.7637  222.2196 H   0  0  0  0  0  0  0  0  0  0  0  0
  138.6559   72.7430  220.8233 H   0  0  0  0  0  0  0  0  0  0  0  0
  135.8699   71.9947  221.5885 H   0  0  0  0  0  0  0  0  0  0  0  0
  136.2022   73.1059  220.2168 H   0  0  0  0  0  0  0  0  0  0  0  0
  136.8926   71.4476  220.2168 H   0  0  0  0  0  0  0  0  0  0  0  0
  137.7260   72.4580  223.5480 H   0  0  0  0  0  0  0  0  0  0  0  0
  140.0405   71.4334  221.9746 H   0  0  0  0  0  0  0  0  0  0  0  0
  140.1293   72.7759  223.1112 H   0  0  0  0  0  0  0  0  0  0  0  0
  138.6345   69.3102  222.9537 H   0  0  0  0  0  0  0  0  0  0  0  0
  138.8132   67.6568  224.8193 H   0  0  0  0  0  0  0  0  0  0  0  0
  139.5389   67.0823  226.9785 H   0  0  0  0  0  0  0  0  0  0  0  0
  140.7189   67.6991  229.1113 H   0  0  0  0  0  0  0  0  0  0  0  0
  141.6988   69.9608  229.3364 H   0  0  0  0  0  0  0  0  0  0  0  0
  141.5388   71.6190  227.5029 H   0  0  0  0  0  0  0  0  0  0  0  0
  140.7972   72.2203  225.2866 H   0  0  0  0  0  0  0  0  0  0  0  0
  139.9495   74.1915  220.8669 H   0  0  0  0  0  0  0  0  0  0  0  0
  139.4324   75.6609  219.9630 H   0  0  0  0  0  0  0  0  0  0  0  0
  141.0179   75.5376  222.5644 H   0  0  0  0  0  0  0  0  0  0  0  0
  141.5783   76.1147  220.9476 H   0  0  0  0  0  0  0  0  0  0  0  0
  1  2  1  0
  2  3  1  0
  3  4  2  0
  3  5  1  0
  5  6  1  0
  6  7  2  0
  7  8  1  0
  8  9  2  0
  9 10  1  0
 10 11  2  0
  5 12  1  0
 12 13  1  0
 13 14  1  0
 14 15  1  0
 15 16  1  0
 16 17  2  0
 16 18  1  0
 18 19  1  0
 18 20  1  0
 20 21  1  0
 21 22  1  0
 22 23  2  0
 23 24  1  0
 24 25  2  0
 25 26  1  0
 26 27  2  0
 27 28  1  0
 28 29  2  0
 29 30  1  0
 30 31  2  0
 15 32  1  0
 32 33  1  0
 11  6  1  0
 33 12  1  0
 31 22  1  0
 30 25  1  0
  1 34  1  0
  1 35  1  0
  1 36  1  0
  2 37  1  0
  2 38  1  0
  7 39  1  0
  8 40  1  0
  9 41  1  0
 10 42  1  0
 11 43  1  0
 12 44  1  0
 13 45  1  0
 13 46  1  0
 14 47  1  0
 14 48  1  0
 18 49  1  6
 19 50  1  0
 19 51  1  0
 19 52  1  0
 20 53  1  0
 21 54  1  0
 21 55  1  0
 23 56  1  0
 24 57  1  0
 26 58  1  0
 27 59  1  0
 28 60  1  0
 29 61  1  0
 31 62  1  0
 32 63  1  0
 32 64  1  0
 33 65  1  0
 33 66  1  0
M  END
>  <smiles>  (26) 
CCC(=O)N(c1ccccc1)C1CCN(C(=O)[C@H](C)NCc2ccc3ccccc3c2)CC1

>  <score_type>  (26) 
oracle

>  <origin>  (26) 
autodockgpu

>  <m_score__min__energy>  (26) 
-9.3699999999999992

>  <m_primary>  (26) 
energy

>  <rmsd>  (26) 
9.226779729416128

>  <m_score__min__rmsd>  (26) 
9.226779729416128

>  <meeko>  (26) 
{"free_energy": -9.37, "intermolecular_energy": -11.76, "internal_energy": -1.93, "cluster_size": 36, "cluster_id": 1, "rank_in_cluster": 1}

>  <energy>  (26) 
-8.62

>  <cluster_rmsd>  (26) 
1.81

>  <cluster>  (26) 
1

$$$$

     RDKit          3D

 66 69  0  0  0  0  0  0  0  0999 V2000
  142.5640   79.3100  218.0570 C   0  0  0  0  0  0  0  0  0  0  0  0
  141.3890   78.4420  218.5520 C   0  0  0  0  0  0  0  0  0  0  0  0
  141.9050   77.6720  219.6840 C   0  0  0  0  0  0  0  0  0  0  0  0
  143.0050   77.0440  219.4940 O   0  0  0  0  0  0  0  0  0  0  0  0
  141.3370   77.5350  220.9650 N   0  0  0  0  0  0  0  0  0  0  0  0
  141.6800   78.5890  221.9050 C   0  0  0  0  0  0  0  0  0  0  0  0
  141.5200   78.3680  223.2610 C   0  0  0  0  0  0  0  0  0  0  0  0
  141.8210   79.3160  224.2160 C   0  0  0  0  0  0  0  0  0  0  0  0
  142.3040   80.5340  223.7790 C   0  0  0  0  0  0  0  0  0  0  0  0
  142.4630   80.7580  222.4340 C   0  0  0  0  0  0  0  0  0  0  0  0
  142.1590   79.8010  221.4700 C   0  0  0  0  0  0  0  0  0  0  0  0
  140.4900   76.4960  221.4420 C   0  0  0  0  0  0  0  0  0  0  0  0
  139.2610   76.2220  220.6260 C   0  0  0  0  0  0  0  0  0  0  0  0
  138.4430   75.1980  221.4360 C   0  0  0  0  0  0  0  0  0  0  0  0
  139.2370   73.9640  221.3480 N   0  0  0  0  0  0  0  0  0  0  0  0
  138.5880   72.7680  221.6860 C   0  0  0  0  0  0  0  0  0  0  0  0
  137.3850   72.8240  222.0390 O   0  0  0  0  0  0  0  0  0  0  0  0
  139.2200   71.4240  221.6580 C   0  0  2  0  0  0  0  0  0  0  0  0
  139.5220   71.0540  220.2460 C   0  0  0  0  0  0  0  0  0  0  0  0
  138.2810   70.5270  222.2930 N   0  0  0  0  0  0  0  0  0  0  0  0
  138.8530   69.2430  222.6420 C   0  0  0  0  0  0  0  0  0  0  0  0
  139.3240   69.4120  224.0650 C   0  0  0  0  0  0  0  0  0  0  0  0
  139.1430   68.3890  224.9750 C   0  0  0  0  0  0  0  0  0  0  0  0
  139.5770   68.5390  226.2900 C   0  0  0  0  0  0  0  0  0  0  0  0
  140.1840   69.7150  226.6630 C   0  0  0  0  0  0  0  0  0  0  0  0
  140.6080   69.8410  227.9840 C   0  0  0  0  0  0  0  0  0  0  0  0
  141.2280   71.0250  228.3870 C   0  0  0  0  0  0  0  0  0  0  0  0
  141.3990   72.0350  227.4620 C   0  0  0  0  0  0  0  0  0  0  0  0
  140.9730   71.9020  226.1460 C   0  0  0  0  0  0  0  0  0  0  0  0
  140.3580   70.7290  225.7400 C   0  0  0  0  0  0  0  0  0  0  0  0
  139.9330   70.5970  224.4280 C   0  0  0  0  0  0  0  0  0  0  0  0
  140.6230   74.0590  220.9220 C   0  0  0  0  0  0  0  0  0  0  0  0
  141.3000   75.2250  221.6130 C   0  0  0  0  0  0  0  0  0  0  0  0
  143.1110   79.7141  218.9216 H   0  0  0  0  0  0  0  0  0  0  0  0
  143.2431   78.6951  217.4482 H   0  0  0  0  0  0  0  0  0  0  0  0
  142.1758   80.1399  217.4482 H   0  0  0  0  0  0  0  0  0  0  0  0
  140.5519   79.0793  218.8731 H   0  0  0  0  0  0  0  0  0  0  0  0
  141.0112   77.7837  217.7558 H   0  0  0  0  0  0  0  0  0  0  0  0
  141.1354   77.3922  223.5924 H   0  0  0  0  0  0  0  0  0  0  0  0
  141.6815   79.1097  225.2874 H   0  0  0  0  0  0  0  0  0  0  0  0
  142.5598   81.3201  224.5047 H   0  0  0  0  0  0  0  0  0  0  0  0
  142.8467   81.7347  222.1042 H   0  0  0  0  0  0  0  0  0  0  0  0
  142.2973   80.0077  220.3985 H   0  0  0  0  0  0  0  0  0  0  0  0
  140.1006   76.8605  222.4040 H   0  0  0  0  0  0  0  0  0  0  0  0
  138.6828   77.1465  220.4811 H   0  0  0  0  0  0  0  0  0  0  0  0
  139.5142   75.8399  219.6261 H   0  0  0  0  0  0  0  0  0  0  0  0
  138.3365   75.5213  222.4820 H   0  0  0  0  0  0  0  0  0  0  0  0
  137.4197   75.0729  221.0523 H   0  0  0  0  0  0  0  0  0  0  0  0
  140.1789   71.3844  222.1956 H   0  0  0  0  0  0  0  0  0  0  0  0
  140.2175   70.2019  220.2310 H   0  0  0  0  0  0  0  0  0  0  0  0
  138.5899   70.7756  219.7325 H   0  0  0  0  0  0  0  0  0  0  0  0
  139.9815   71.9114  219.7325 H   0  0  0  0  0  0  0  0  0  0  0  0
  137.8400   70.9970  223.0860 H   0  0  0  0  0  0  0  0  0  0  0  0
  138.0948   68.4488  222.5754 H   0  0  0  0  0  0  0  0  0  0  0  0
  139.6684   68.9508  221.9640 H   0  0  0  0  0  0  0  0  0  0  0  0
  138.6554   67.4544  224.6608 H   0  0  0  0  0  0  0  0  0  0  0  0
  139.4361   67.7281  227.0198 H   0  0  0  0  0  0  0  0  0  0  0  0
  140.4564   69.0192  228.6993 H   0  0  0  0  0  0  0  0  0  0  0  0
  141.5742   71.1508  229.4235 H   0  0  0  0  0  0  0  0  0  0  0  0
  141.8857   72.9705  227.7750 H   0  0  0  0  0  0  0  0  0  0  0  0
  141.1234   72.7238  225.4304 H   0  0  0  0  0  0  0  0  0  0  0  0
  140.0759   71.4090  223.6998 H   0  0  0  0  0  0  0  0  0  0  0  0
  141.1481   73.1277  221.1808 H   0  0  0  0  0  0  0  0  0  0  0  0
  140.6558   74.2164  219.8338 H   0  0  0  0  0  0  0  0  0  0  0  0
  141.3979   75.0012  222.6855 H   0  0  0  0  0  0  0  0  0  0  0  0
  142.2917   75.3752  221.1613 H   0  0  0  0  0  0  0  0  0  0  0  0
  1  2  1  0
  2  3  1  0
  3  4  2  0
  3  5  1  0
  5  6  1  0
  6  7  2  0
  7  8  1  0
  8  9  2  0
  9 10  1  0
 10 11  2  0
  5 12  1  0
 12 13  1  0
 13 14  1  0
 14 15  1  0
 15 16  1  0
 16 17  2  0
 16 18  1  0
 18 19  1  0
 18 20  1  0
 20 21  1  0
 21 22  1  0
 22 23  2  0
 23 24  1  0
 24 25  2  0
 25 26  1  0
 26 27  2  0
 27 28  1  0
 28 29  2  0
 29 30  1  0
 30 31  2  0
 15 32  1  0
 32 33  1  0
 11  6  1  0
 33 12  1  0
 31 22  1  0
 30 25  1  0
  1 34  1  0
  1 35  1  0
  1 36  1  0
  2 37  1  0
  2 38  1  0
  7 39  1  0
  8 40  1  0
  9 41  1  0
 10 42  1  0
 11 43  1  0
 12 44  1  0
 13 45  1  0
 13 46  1  0
 14 47  1  0
 14 48  1  0
 18 49  1  1
 19 50  1  0
 19 51  1  0
 19 52  1  0
 20 53  1  0
 21 54  1  0
 21 55  1  0
 23 56  1  0
 24 57  1  0
 26 58  1  0
 27 59  1  0
 28 60  1  0
 29 61  1  0
 31 62  1  0
 32 63  1  0
 32 64  1  0
 33 65  1  0
 33 66  1  0
M  END
>  <smiles>  (27) 
CCC(=O)N(c1ccccc1)C1CCN(C(=O)[C@H](C)NCc2ccc3ccccc3c2)CC1

>  <score_type>  (27) 
oracle

>  <origin>  (27) 
autodockgpu

>  <m_score__min__energy>  (27) 
-9.3699999999999992

>  <m_primary>  (27) 
energy

>  <rmsd>  (27) 
9.481332897438751

>  <m_score__min__rmsd>  (27) 
9.481332897438751

>  <meeko>  (27) 
{"free_energy": -8.81, "intermolecular_energy": -11.2, "internal_energy": -2.28, "cluster_size": 36, "cluster_id": 1, "rank_in_cluster": 19}

>  <energy>  (27) 
-8.62

>  <cluster_rmsd>  (27) 
1.27

>  <cluster>  (27) 
1

$$$$

     RDKit          3D

 66 69  0  0  0  0  0  0  0  0999 V2000
  140.7460   81.0930  219.2410 C   0  0  0  0  0  0  0  0  0  0  0  0
  142.0840   80.3270  219.1870 C   0  0  0  0  0  0  0  0  0  0  0  0
  141.8170   79.0080  219.7610 C   0  0  0  0  0  0  0  0  0  0  0  0
  142.1850   77.9970  219.0660 O   0  0  0  0  0  0  0  0  0  0  0  0
  141.2010   78.7100  220.9920 N   0  0  0  0  0  0  0  0  0  0  0  0
  141.5790   79.5800  222.0940 C   0  0  0  0  0  0  0  0  0  0  0  0
  140.6100   80.3420  222.7200 C   0  0  0  0  0  0  0  0  0  0  0  0
  140.8870   81.1910  223.7710 C   0  0  0  0  0  0  0  0  0  0  0  0
  142.1970   81.2690  224.2030 C   0  0  0  0  0  0  0  0  0  0  0  0
  143.1620   80.5150  223.5830 C   0  0  0  0  0  0  0  0  0  0  0  0
  142.8820   79.6580  222.5220 C   0  0  0  0  0  0  0  0  0  0  0  0
  140.2760   77.6690  221.2810 C   0  0  0  0  0  0  0  0  0  0  0  0
  139.2540   77.3840  220.2200 C   0  0  0  0  0  0  0  0  0  0  0  0
  138.2850   76.3580  220.8400 C   0  0  0  0  0  0  0  0  0  0  0  0
  139.0850   75.1290  220.9310 N   0  0  0  0  0  0  0  0  0  0  0  0
  138.3840   73.9300  221.1280 C   0  0  0  0  0  0  0  0  0  0  0  0
  137.1330   73.9810  221.2130 O   0  0  0  0  0  0  0  0  0  0  0  0
  139.0140   72.5900  221.2440 C   0  0  2  0  0  0  0  0  0  0  0  0
  138.2880   71.6290  220.3650 C   0  0  0  0  0  0  0  0  0  0  0  0
  138.9530   72.2390  222.6440 N   0  0  0  0  0  0  0  0  0  0  0  0
  140.2430   72.2540  223.3020 C   0  0  0  0  0  0  0  0  0  0  0  0
  140.1670   71.1330  224.3090 C   0  0  0  0  0  0  0  0  0  0  0  0
  139.5610   69.9400  223.9660 C   0  0  0  0  0  0  0  0  0  0  0  0
  139.4880   68.9020  224.8910 C   0  0  0  0  0  0  0  0  0  0  0  0
  140.0270   69.0840  226.1430 C   0  0  0  0  0  0  0  0  0  0  0  0
  139.9410   68.0310  227.0500 C   0  0  0  0  0  0  0  0  0  0  0  0
  140.4800   68.1900  228.3280 C   0  0  0  0  0  0  0  0  0  0  0  0
  141.0820   69.3900  228.6500 C   0  0  0  0  0  0  0  0  0  0  0  0
  141.1640   70.4360  227.7400 C   0  0  0  0  0  0  0  0  0  0  0  0
  140.6310   70.2840  226.4710 C   0  0  0  0  0  0  0  0  0  0  0  0
  140.7120   71.3270  225.5630 C   0  0  0  0  0  0  0  0  0  0  0  0
  140.5300   75.2310  220.8140 C   0  0  0  0  0  0  0  0  0  0  0  0
  141.0360   76.4030  221.6290 C   0  0  0  0  0  0  0  0  0  0  0  0
  140.4595   81.2570  220.2903 H   0  0  0  0  0  0  0  0  0  0  0  0
  140.8585   82.0635  218.7356 H   0  0  0  0  0  0  0  0  0  0  0  0
  139.9660   80.5046  218.7356 H   0  0  0  0  0  0  0  0  0  0  0  0
  142.4264   80.2287  218.1463 H   0  0  0  0  0  0  0  0  0  0  0  0
  142.8735   80.8554  219.7415 H   0  0  0  0  0  0  0  0  0  0  0  0
  139.5719   80.2678  222.3640 H   0  0  0  0  0  0  0  0  0  0  0  0
  140.0934   81.7847  224.2482 H   0  0  0  0  0  0  0  0  0  0  0  0
  142.4652   81.9316  225.0391 H   0  0  0  0  0  0  0  0  0  0  0  0
  144.1999   80.5910  223.9393 H   0  0  0  0  0  0  0  0  0  0  0  0
  143.6754   79.0649  222.0438 H   0  0  0  0  0  0  0  0  0  0  0  0
  139.6867   78.0356  222.1344 H   0  0  0  0  0  0  0  0  0  0  0  0
  138.7161   78.3043  219.9484 H   0  0  0  0  0  0  0  0  0  0  0  0
  139.7194   76.9992  219.3006 H   0  0  0  0  0  0  0  0  0  0  0  0
  137.9540   76.6846  221.8369 H   0  0  0  0  0  0  0  0  0  0  0  0
  137.3690   76.2256  220.2456 H   0  0  0  0  0  0  0  0  0  0  0  0
  140.0627   72.5738  220.9123 H   0  0  0  0  0  0  0  0  0  0  0  0
  137.7409   70.9049  220.9866 H   0  0  0  0  0  0  0  0  0  0  0  0
  137.5771   72.1780  219.7300 H   0  0  0  0  0  0  0  0  0  0  0  0
  139.0104   71.0952  219.7300 H   0  0  0  0  0  0  0  0  0  0  0  0
  138.2570   72.8210  223.1140 H   0  0  0  0  0  0  0  0  0  0  0  0
  141.0508   72.0720  222.5779 H   0  0  0  0  0  0  0  0  0  0  0  0
  140.4613   73.2242  223.7721 H   0  0  0  0  0  0  0  0  0  0  0  0
  139.1353   69.8098  222.9601 H   0  0  0  0  0  0  0  0  0  0  0  0
  139.0061   67.9499  224.6242 H   0  0  0  0  0  0  0  0  0  0  0  0
  139.4550   67.0867  226.7635 H   0  0  0  0  0  0  0  0  0  0  0  0
  140.4261   67.3747  229.0644 H   0  0  0  0  0  0  0  0  0  0  0  0
  141.5086   69.5213  229.6554 H   0  0  0  0  0  0  0  0  0  0  0  0
  141.6499   71.3805  228.0259 H   0  0  0  0  0  0  0  0  0  0  0  0
  141.1945   72.2783  225.8319 H   0  0  0  0  0  0  0  0  0  0  0  0
  140.9915   74.3038  221.1845 H   0  0  0  0  0  0  0  0  0  0  0  0
  140.7960   75.3850  219.7578 H   0  0  0  0  0  0  0  0  0  0  0  0
  140.9010   76.1837  222.6984 H   0  0  0  0  0  0  0  0  0  0  0  0
  142.1011   76.5572  221.4014 H   0  0  0  0  0  0  0  0  0  0  0  0
  1  2  1  0
  2  3  1  0
  3  4  2  0
  3  5  1  0
  5  6  1  0
  6  7  2  0
  7  8  1  0
  8  9  2  0
  9 10  1  0
 10 11  2  0
  5 12  1  0
 12 13  1  0
 13 14  1  0
 14 15  1  0
 15 16  1  0
 16 17  2  0
 16 18  1  0
 18 19  1  0
 18 20  1  0
 20 21  1  0
 21 22  1  0
 22 23  2  0
 23 24  1  0
 24 25  2  0
 25 26  1  0
 26 27  2  0
 27 28  1  0
 28 29  2  0
 29 30  1  0
 30 31  2  0
 15 32  1  0
 32 33  1  0
 11  6  1  0
 33 12  1  0
 31 22  1  0
 30 25  1  0
  1 34  1  0
  1 35  1  0
  1 36  1  0
  2 37  1  0
  2 38  1  0
  7 39  1  0
  8 40  1  0
  9 41  1  0
 10 42  1  0
 11 43  1  0
 12 44  1  0
 13 45  1  0
 13 46  1  0
 14 47  1  0
 14 48  1  0
 18 49  1  6
 19 50  1  0
 19 51  1  0
 19 52  1  0
 20 53  1  0
 21 54  1  0
 21 55  1  0
 23 56  1  0
 24 57  1  0
 26 58  1  0
 27 59  1  0
 28 60  1  0
 29 61  1  0
 31 62  1  0
 32 63  1  0
 32 64  1  0
 33 65  1  0
 33 66  1  0
M  END
>  <smiles>  (28) 
CCC(=O)N(c1ccccc1)C1CCN(C(=O)[C@H](C)NCc2ccc3ccccc3c2)CC1

>  <score_type>  (28) 
oracle

>  <origin>  (28) 
autodockgpu

>  <m_score__min__energy>  (28) 
-9.3699999999999992

>  <m_primary>  (28) 
energy

>  <rmsd>  (28) 
8.918726703694356

>  <m_score__min__rmsd>  (28) 
8.918726703694356

>  <meeko>  (28) 
{"free_energy": -8.71, "intermolecular_energy": -11.09, "internal_energy": -2.02, "cluster_size": 36, "cluster_id": 1, "rank_in_cluster": 23}

>  <energy>  (28) 
-8.62

>  <cluster_rmsd>  (28) 
1.42

>  <cluster>  (28) 
1

$$$$

     RDKit          3D

 66 69  0  0  0  0  0  0  0  0999 V2000
  142.1720   80.1960  219.2420 C   0  0  0  0  0  0  0  0  0  0  0  0
  141.3450   78.9010  219.1110 C   0  0  0  0  0  0  0  0  0  0  0  0
  141.6810   78.0880  220.2800 C   0  0  0  0  0  0  0  0  0  0  0  0
  142.6370   77.2470  220.1380 O   0  0  0  0  0  0  0  0  0  0  0  0
  141.0790   78.1160  221.5530 N   0  0  0  0  0  0  0  0  0  0  0  0
  141.5070   79.2090  222.4110 C   0  0  0  0  0  0  0  0  0  0  0  0
  140.5590   80.0500  222.9640 C   0  0  0  0  0  0  0  0  0  0  0  0
  140.8820   81.1080  223.7860 C   0  0  0  0  0  0  0  0  0  0  0  0
  142.2200   81.3220  224.0590 C   0  0  0  0  0  0  0  0  0  0  0  0
  143.1650   80.4890  223.5110 C   0  0  0  0  0  0  0  0  0  0  0  0
  142.8370   79.4210  222.6810 C   0  0  0  0  0  0  0  0  0  0  0  0
  140.1240   77.2090  222.0930 C   0  0  0  0  0  0  0  0  0  0  0  0
  138.6950   77.4530  221.7070 C   0  0  0  0  0  0  0  0  0  0  0  0
  137.8630   76.4630  222.5460 C   0  0  0  0  0  0  0  0  0  0  0  0
  138.1910   75.1510  221.9700 N   0  0  0  0  0  0  0  0  0  0  0  0
  137.3310   74.0880  222.2850 C   0  0  0  0  0  0  0  0  0  0  0  0
  136.3480   74.3210  223.0310 O   0  0  0  0  0  0  0  0  0  0  0  0
  137.4940   72.6940  221.7990 C   0  0  2  0  0  0  0  0  0  0  0  0
  136.2200   72.2410  221.1730 C   0  0  0  0  0  0  0  0  0  0  0  0
  137.8730   71.9110  222.9530 N   0  0  0  0  0  0  0  0  0  0  0  0
  139.0780   71.1330  222.7550 C   0  0  0  0  0  0  0  0  0  0  0  0
  139.6120   70.9010  224.1460 C   0  0  0  0  0  0  0  0  0  0  0  0
  140.3740   71.8750  224.7620 C   0  0  0  0  0  0  0  0  0  0  0  0
  140.8690   71.6660  226.0470 C   0  0  0  0  0  0  0  0  0  0  0  0
  140.5890   70.4820  226.6870 C   0  0  0  0  0  0  0  0  0  0  0  0
  141.0960   70.2970  227.9710 C   0  0  0  0  0  0  0  0  0  0  0  0
  140.8250   69.1030  228.6420 C   0  0  0  0  0  0  0  0  0  0  0  0
  140.0620   68.1430  228.0080 C   0  0  0  0  0  0  0  0  0  0  0  0
  139.5590   68.3340  226.7280 C   0  0  0  0  0  0  0  0  0  0  0  0
  139.8250   69.5170  226.0570 C   0  0  0  0  0  0  0  0  0  0  0  0
  139.3240   69.7080  224.7790 C   0  0  0  0  0  0  0  0  0  0  0  0
  139.3660   75.0380  221.1240 C   0  0  0  0  0  0  0  0  0  0  0  0
  140.5270   75.7890  221.7430 C   0  0  0  0  0  0  0  0  0  0  0  0
  142.3212   80.4296  220.3065 H   0  0  0  0  0  0  0  0  0  0  0  0
  143.1493   80.0576  218.7565 H   0  0  0  0  0  0  0  0  0  0  0  0
  141.6354   81.0244  218.7565 H   0  0  0  0  0  0  0  0  0  0  0  0
  140.2698   79.1333  219.1032 H   0  0  0  0  0  0  0  0  0  0  0  0
  141.5711   78.3717  218.1736 H   0  0  0  0  0  0  0  0  0  0  0  0
  139.4984   79.8662  222.7375 H   0  0  0  0  0  0  0  0  0  0  0  0
  140.1029   81.7588  224.2096 H   0  0  0  0  0  0  0  0  0  0  0  0
  142.5260   82.1537  224.7107 H   0  0  0  0  0  0  0  0  0  0  0  0
  144.2254   80.6738  223.7377 H   0  0  0  0  0  0  0  0  0  0  0  0
  143.6152   78.7698  222.2563 H   0  0  0  0  0  0  0  0  0  0  0  0
  140.1440   77.3796  223.1795 H   0  0  0  0  0  0  0  0  0  0  0  0
  138.4065   78.4890  221.9382 H   0  0  0  0  0  0  0  0  0  0  0  0
  138.5345   77.3070  220.6286 H   0  0  0  0  0  0  0  0  0  0  0  0
  138.1524   76.5086  223.6063 H   0  0  0  0  0  0  0  0  0  0  0  0
  136.7855   76.6824  222.5169 H   0  0  0  0  0  0  0  0  0  0  0  0
  138.2668   72.5920  221.0228 H   0  0  0  0  0  0  0  0  0  0  0  0
  135.4960   71.9836  221.9601 H   0  0  0  0  0  0  0  0  0  0  0  0
  135.8109   73.0487  220.5484 H   0  0  0  0  0  0  0  0  0  0  0  0
  136.4127   71.3563  220.5484 H   0  0  0  0  0  0  0  0  0  0  0  0
  137.9150   72.5120  223.7780 H   0  0  0  0  0  0  0  0  0  0  0  0
  138.8467   70.1767  222.2631 H   0  0  0  0  0  0  0  0  0  0  0  0
  139.8051   71.6462  222.1086 H   0  0  0  0  0  0  0  0  0  0  0  0
  140.5901   72.8170  224.2368 H   0  0  0  0  0  0  0  0  0  0  0  0
  141.4758   72.4379  226.5430 H   0  0  0  0  0  0  0  0  0  0  0  0
  141.7015   71.0807  228.4497 H   0  0  0  0  0  0  0  0  0  0  0  0
  141.2123   68.9304  229.6570 H   0  0  0  0  0  0  0  0  0  0  0  0
  139.8464   67.2000  228.5317 H   0  0  0  0  0  0  0  0  0  0  0  0
  138.9529   67.5508  226.2493 H   0  0  0  0  0  0  0  0  0  0  0  0
  138.7170   68.9348  224.2852 H   0  0  0  0  0  0  0  0  0  0  0  0
  139.6354   73.9771  221.0153 H   0  0  0  0  0  0  0  0  0  0  0  0
  139.1424   75.4702  220.1375 H   0  0  0  0  0  0  0  0  0  0  0  0
  140.8464   75.2687  222.6580 H   0  0  0  0  0  0  0  0  0  0  0  0
  141.3516   75.8253  221.0159 H   0  0  0  0  0  0  0  0  0  0  0  0
  1  2  1  0
  2  3  1  0
  3  4  2  0
  3  5  1  0
  5  6  1  0
  6  7  2  0
  7  8  1  0
  8  9  2  0
  9 10  1  0
 10 11  2  0
  5 12  1  0
 12 13  1  0
 13 14  1  0
 14 15  1  0
 15 16  1  0
 16 17  2  0
 16 18  1  0
 18 19  1  0
 18 20  1  0
 20 21  1  0
 21 22  1  0
 22 23  2  0
 23 24  1  0
 24 25  2  0
 25 26  1  0
 26 27  2  0
 27 28  1  0
 28 29  2  0
 29 30  1  0
 30 31  2  0
 15 32  1  0
 32 33  1  0
 11  6  1  0
 33 12  1  0
 31 22  1  0
 30 25  1  0
  1 34  1  0
  1 35  1  0
  1 36  1  0
  2 37  1  0
  2 38  1  0
  7 39  1  0
  8 40  1  0
  9 41  1  0
 10 42  1  0
 11 43  1  0
 12 44  1  0
 13 45  1  0
 13 46  1  0
 14 47  1  0
 14 48  1  0
 18 49  1  6
 19 50  1  0
 19 51  1  0
 19 52  1  0
 20 53  1  0
 21 54  1  0
 21 55  1  0
 23 56  1  0
 24 57  1  0
 26 58  1  0
 27 59  1  0
 28 60  1  0
 29 61  1  0
 31 62  1  0
 32 63  1  0
 32 64  1  0
 33 65  1  0
 33 66  1  0
M  END
>  <smiles>  (29) 
CCC(=O)N(c1ccccc1)C1CCN(C(=O)[C@H](C)NCc2ccc3ccccc3c2)CC1

>  <score_type>  (29) 
oracle

>  <origin>  (29) 
autodockgpu

>  <m_score__min__energy>  (29) 
-9.3699999999999992

>  <m_primary>  (29) 
energy

>  <rmsd>  (29) 
8.4166768333375

>  <m_score__min__rmsd>  (29) 
8.4166768333375

>  <meeko>  (29) 
{"free_energy": -9.25, "intermolecular_energy": -11.63, "internal_energy": -2.05, "cluster_size": 36, "cluster_id": 1, "rank_in_cluster": 6}

>  <energy>  (29) 
-8.57

>  <cluster_rmsd>  (29) 
0.82

>  <cluster>  (29) 
1

$$$$

     RDKit          3D

 66 69  0  0  0  0  0  0  0  0999 V2000
  142.8840   80.8160  223.8720 C   0  0  0  0  0  0  0  0  0  0  0  0
  142.9350   79.7820  222.7280 C   0  0  0  0  0  0  0  0  0  0  0  0
  141.7990   78.8860  222.9440 C   0  0  0  0  0  0  0  0  0  0  0  0
  141.2110   78.9690  224.0790 O   0  0  0  0  0  0  0  0  0  0  0  0
  141.2670   77.9350  222.0510 N   0  0  0  0  0  0  0  0  0  0  0  0
  141.6530   78.1150  220.6610 C   0  0  0  0  0  0  0  0  0  0  0  0
  141.1340   79.1780  219.9450 C   0  0  0  0  0  0  0  0  0  0  0  0
  141.4490   79.4170  218.6240 C   0  0  0  0  0  0  0  0  0  0  0  0
  142.3240   78.5450  218.0060 C   0  0  0  0  0  0  0  0  0  0  0  0
  142.8410   77.4880  218.7140 C   0  0  0  0  0  0  0  0  0  0  0  0
  142.5230   77.2470  220.0470 C   0  0  0  0  0  0  0  0  0  0  0  0
  140.4020   76.8440  222.3440 C   0  0  0  0  0  0  0  0  0  0  0  0
  139.0280   76.9160  221.7450 C   0  0  0  0  0  0  0  0  0  0  0  0
  138.2500   75.7290  222.3460 C   0  0  0  0  0  0  0  0  0  0  0  0
  138.8710   74.5510  221.7250 N   0  0  0  0  0  0  0  0  0  0  0  0
  138.1570   73.3450  221.8000 C   0  0  0  0  0  0  0  0  0  0  0  0
  137.0470   73.3480  222.3870 O   0  0  0  0  0  0  0  0  0  0  0  0
  138.6170   72.0520  221.2330 C   0  0  2  0  0  0  0  0  0  0  0  0
  138.1500   71.9410  219.8220 C   0  0  0  0  0  0  0  0  0  0  0  0
  138.0780   71.0230  222.0940 N   0  0  0  0  0  0  0  0  0  0  0  0
  138.9630   69.8900  222.2660 C   0  0  0  0  0  0  0  0  0  0  0  0
  139.2930   69.8880  223.7380 C   0  0  0  0  0  0  0  0  0  0  0  0
  138.8560   68.8520  224.5400 C   0  0  0  0  0  0  0  0  0  0  0  0
  139.1590   68.8460  225.9000 C   0  0  0  0  0  0  0  0  0  0  0  0
  139.8950   69.8800  226.4250 C   0  0  0  0  0  0  0  0  0  0  0  0
  140.1840   69.8510  227.7870 C   0  0  0  0  0  0  0  0  0  0  0  0
  140.9310   70.8900  228.3460 C   0  0  0  0  0  0  0  0  0  0  0  0
  141.3580   71.9150  227.5270 C   0  0  0  0  0  0  0  0  0  0  0  0
  141.0660   71.9390  226.1690 C   0  0  0  0  0  0  0  0  0  0  0  0
  140.3260   70.9100  225.6090 C   0  0  0  0  0  0  0  0  0  0  0  0
  140.0340   70.9330  224.2550 C   0  0  0  0  0  0  0  0  0  0  0  0
  140.1640   74.7050  221.0820 C   0  0  0  0  0  0  0  0  0  0  0  0
  141.0790   75.5450  221.9480 C   0  0  0  0  0  0  0  0  0  0  0  0
  142.9098   80.2937  224.8397 H   0  0  0  0  0  0  0  0  0  0  0  0
  143.7500   81.4900  223.7959 H   0  0  0  0  0  0  0  0  0  0  0  0
  141.9559   81.4015  223.7959 H   0  0  0  0  0  0  0  0  0  0  0  0
  142.8454   80.2849  221.7538 H   0  0  0  0  0  0  0  0  0  0  0  0
  143.8874   79.2317  222.7242 H   0  0  0  0  0  0  0  0  0  0  0  0
  140.4389   79.8635  220.4518 H   0  0  0  0  0  0  0  0  0  0  0  0
  141.0187   80.2718  218.0816 H   0  0  0  0  0  0  0  0  0  0  0  0
  142.6049   78.6963  216.9533 H   0  0  0  0  0  0  0  0  0  0  0  0
  143.5358   76.8030  218.2060 H   0  0  0  0  0  0  0  0  0  0  0  0
  142.9528   76.3922  220.5897 H   0  0  0  0  0  0  0  0  0  0  0  0
  140.2285   76.8957  223.4290 H   0  0  0  0  0  0  0  0  0  0  0  0
  138.5428   77.8668  222.0106 H   0  0  0  0  0  0  0  0  0  0  0  0
  139.0602   76.8667  220.6466 H   0  0  0  0  0  0  0  0  0  0  0  0
  138.3628   75.7004  223.4398 H   0  0  0  0  0  0  0  0  0  0  0  0
  137.1684   75.7895  222.1551 H   0  0  0  0  0  0  0  0  0  0  0  0
  139.7125   71.9589  221.1993 H   0  0  0  0  0  0  0  0  0  0  0  0
  137.0799   71.6867  219.8089 H   0  0  0  0  0  0  0  0  0  0  0  0
  138.3050   72.9010  219.3079 H   0  0  0  0  0  0  0  0  0  0  0  0
  138.7204   71.1534  219.3079 H   0  0  0  0  0  0  0  0  0  0  0  0
  137.7800   71.4380  222.9790 H   0  0  0  0  0  0  0  0  0  0  0  0
  138.4584   68.9555  221.9795 H   0  0  0  0  0  0  0  0  0  0  0  0
  139.8619   69.9622  221.6361 H   0  0  0  0  0  0  0  0  0  0  0  0
  138.2680   68.0306  224.1046 H   0  0  0  0  0  0  0  0  0  0  0  0
  138.8134   68.0243  226.5445 H   0  0  0  0  0  0  0  0  0  0  0  0
  139.8284   69.0204  228.4144 H   0  0  0  0  0  0  0  0  0  0  0  0
  141.1743   70.8912  229.4187 H   0  0  0  0  0  0  0  0  0  0  0  0
  141.9464   72.7365  227.9617 H   0  0  0  0  0  0  0  0  0  0  0  0
  141.4203   72.7703  225.5418 H   0  0  0  0  0  0  0  0  0  0  0  0
  140.3807   71.7561  223.6128 H   0  0  0  0  0  0  0  0  0  0  0  0
  140.6155   73.7134  220.9307 H   0  0  0  0  0  0  0  0  0  0  0  0
  140.0265   75.2056  220.1122 H   0  0  0  0  0  0  0  0  0  0  0  0
  141.3349   74.9800  222.8564 H   0  0  0  0  0  0  0  0  0  0  0  0
  141.9882   75.7811  221.3755 H   0  0  0  0  0  0  0  0  0  0  0  0
  1  2  1  0
  2  3  1  0
  3  4  2  0
  3  5  1  0
  5  6  1  0
  6  7  2  0
  7  8  1  0
  8  9  2  0
  9 10  1  0
 10 11  2  0
  5 12  1  0
 12 13  1  0
 13 14  1  0
 14 15  1  0
 15 16  1  0
 16 17  2  0
 16 18  1  0
 18 19  1  0
 18 20  1  0
 20 21  1  0
 21 22  1  0
 22 23  2  0
 23 24  1  0
 24 25  2  0
 25 26  1  0
 26 27  2  0
 27 28  1  0
 28 29  2  0
 29 30  1  0
 30 31  2  0
 15 32  1  0
 32 33  1  0
 11  6  1  0
 33 12  1  0
 31 22  1  0
 30 25  1  0
  1 34  1  0
  1 35  1  0
  1 36  1  0
  2 37  1  0
  2 38  1  0
  7 39  1  0
  8 40  1  0
  9 41  1  0
 10 42  1  0
 11 43  1  0
 12 44  1  0
 13 45  1  0
 13 46  1  0
 14 47  1  0
 14 48  1  0
 18 49  1  6
 19 50  1  0
 19 51  1  0
 19 52  1  0
 20 53  1  0
 21 54  1  0
 21 55  1  0
 23 56  1  0
 24 57  1  0
 26 58  1  0
 27 59  1  0
 28 60  1  0
 29 61  1  0
 31 62  1  0
 32 63  1  0
 32 64  1  0
 33 65  1  0
 33 66  1  0
M  END
>  <smiles>  (30) 
CCC(=O)N(c1ccccc1)C1CCN(C(=O)[C@H](C)NCc2ccc3ccccc3c2)CC1

>  <score_type>  (30) 
oracle

>  <origin>  (30) 
autodockgpu

>  <m_score__min__energy>  (30) 
-9.3699999999999992

>  <m_primary>  (30) 
energy

>  <rmsd>  (30) 
9.346253490592726

>  <m_score__min__rmsd>  (30) 
9.346253490592726

>  <meeko>  (30) 
{"free_energy": -8.59, "intermolecular_energy": -10.97, "internal_energy": -2.33, "cluster_size": 4, "cluster_id": 3, "rank_in_cluster": 4}

>  <energy>  (30) 
-8.53

>  <cluster_rmsd>  (30) 
1.96

>  <cluster>  (30) 
1

$$$$

     RDKit          3D

 66 69  0  0  0  0  0  0  0  0999 V2000
  142.5540   79.3690  218.2320 C   0  0  0  0  0  0  0  0  0  0  0  0
  141.3900   78.4800  218.7160 C   0  0  0  0  0  0  0  0  0  0  0  0
  141.8740   77.8000  219.9180 C   0  0  0  0  0  0  0  0  0  0  0  0
  142.9730   77.1520  219.8060 O   0  0  0  0  0  0  0  0  0  0  0  0
  141.2750   77.7700  221.1930 N   0  0  0  0  0  0  0  0  0  0  0  0
  141.5960   78.9000  222.0490 C   0  0  0  0  0  0  0  0  0  0  0  0
  141.6210   80.1730  221.5110 C   0  0  0  0  0  0  0  0  0  0  0  0
  141.9170   81.2960  222.2550 C   0  0  0  0  0  0  0  0  0  0  0  0
  142.1980   81.1200  223.5960 C   0  0  0  0  0  0  0  0  0  0  0  0
  142.1760   79.8570  224.1330 C   0  0  0  0  0  0  0  0  0  0  0  0
  141.8770   78.7240  223.3820 C   0  0  0  0  0  0  0  0  0  0  0  0
  140.4160   76.7740  221.7350 C   0  0  0  0  0  0  0  0  0  0  0  0
  138.9540   76.9330  221.4380 C   0  0  0  0  0  0  0  0  0  0  0  0
  138.2400   75.8490  222.2690 C   0  0  0  0  0  0  0  0  0  0  0  0
  138.6230   74.5920  221.6110 N   0  0  0  0  0  0  0  0  0  0  0  0
  137.8560   73.4580  221.9170 C   0  0  0  0  0  0  0  0  0  0  0  0
  136.9040   73.5860  222.7240 O   0  0  0  0  0  0  0  0  0  0  0  0
  138.0870   72.1030  221.3540 C   0  0  2  0  0  0  0  0  0  0  0  0
  137.1260   71.8650  220.2400 C   0  0  0  0  0  0  0  0  0  0  0  0
  137.9230   71.1800  222.4540 N   0  0  0  0  0  0  0  0  0  0  0  0
  138.9320   70.1420  222.4930 C   0  0  0  0  0  0  0  0  0  0  0  0
  139.5030   70.2220  223.8880 C   0  0  0  0  0  0  0  0  0  0  0  0
  140.0280   71.4130  224.3490 C   0  0  0  0  0  0  0  0  0  0  0  0
  140.5560   71.4930  225.6350 C   0  0  0  0  0  0  0  0  0  0  0  0
  140.5440   70.3730  226.4330 C   0  0  0  0  0  0  0  0  0  0  0  0
  141.0780   70.4780  227.7140 C   0  0  0  0  0  0  0  0  0  0  0  0
  141.0790   69.3550  228.5440 C   0  0  0  0  0  0  0  0  0  0  0  0
  140.5490   68.1740  228.0640 C   0  0  0  0  0  0  0  0  0  0  0  0
  140.0180   68.0760  226.7840 C   0  0  0  0  0  0  0  0  0  0  0  0
  140.0150   69.1870  225.9560 C   0  0  0  0  0  0  0  0  0  0  0  0
  139.4860   69.0900  224.6790 C   0  0  0  0  0  0  0  0  0  0  0  0
  139.7540   74.6020  220.6990 C   0  0  0  0  0  0  0  0  0  0  0  0
  140.8940   75.4030  221.2940 C   0  0  0  0  0  0  0  0  0  0  0  0
  143.0893   79.7778  219.1017 H   0  0  0  0  0  0  0  0  0  0  0  0
  143.2465   78.7678  217.6246 H   0  0  0  0  0  0  0  0  0  0  0  0
  142.1562   80.1953  217.6246 H   0  0  0  0  0  0  0  0  0  0  0  0
  140.5111   79.0972  218.9539 H   0  0  0  0  0  0  0  0  0  0  0  0
  141.0839   77.7607  217.9421 H   0  0  0  0  0  0  0  0  0  0  0  0
  141.3947   80.2959  220.4416 H   0  0  0  0  0  0  0  0  0  0  0  0
  141.9289   82.2960  221.7969 H   0  0  0  0  0  0  0  0  0  0  0  0
  142.4379   81.9866  224.2295 H   0  0  0  0  0  0  0  0  0  0  0  0
  142.4043   79.7351  225.2021 H   0  0  0  0  0  0  0  0  0  0  0  0
  141.8661   77.7237  223.8394 H   0  0  0  0  0  0  0  0  0  0  0  0
  140.4858   76.8962  222.8260 H   0  0  0  0  0  0  0  0  0  0  0  0
  138.6087   77.9341  221.7357 H   0  0  0  0  0  0  0  0  0  0  0  0
  138.7437   76.8256  220.3637 H   0  0  0  0  0  0  0  0  0  0  0  0
  138.5852   75.8654  223.3133 H   0  0  0  0  0  0  0  0  0  0  0  0
  137.1502   75.9930  222.3084 H   0  0  0  0  0  0  0  0  0  0  0  0
  139.0911   71.9778  220.9226 H   0  0  0  0  0  0  0  0  0  0  0  0
  136.1371   71.6201  220.6549 H   0  0  0  0  0  0  0  0  0  0  0  0
  137.0499   72.7714  219.6215 H   0  0  0  0  0  0  0  0  0  0  0  0
  137.4817   71.0278  219.6215 H   0  0  0  0  0  0  0  0  0  0  0  0
  137.8480   71.6990  223.3300 H   0  0  0  0  0  0  0  0  0  0  0  0
  138.4813   69.1548  222.3134 H   0  0  0  0  0  0  0  0  0  0  0  0
  139.7009   70.2768  221.7180 H   0  0  0  0  0  0  0  0  0  0  0  0
  140.0291   72.3004  223.6990 H   0  0  0  0  0  0  0  0  0  0  0  0
  140.9768   72.4387  226.0074 H   0  0  0  0  0  0  0  0  0  0  0  0
  141.4937   71.4329  228.0679 H   0  0  0  0  0  0  0  0  0  0  0  0
  141.4942   69.4103  229.5611 H   0  0  0  0  0  0  0  0  0  0  0  0
  140.5471   67.2859  228.7131 H   0  0  0  0  0  0  0  0  0  0  0  0
  139.6021   67.1213  226.4296 H   0  0  0  0  0  0  0  0  0  0  0  0
  139.0666   68.1433  224.3078 H   0  0  0  0  0  0  0  0  0  0  0  0
  140.0883   73.5690  220.5223 H   0  0  0  0  0  0  0  0  0  0  0  0
  139.4468   75.0631  219.7487 H   0  0  0  0  0  0  0  0  0  0  0  0
  141.2975   74.8645  222.1642 H   0  0  0  0  0  0  0  0  0  0  0  0
  141.6730   75.5306  220.5280 H   0  0  0  0  0  0  0  0  0  0  0  0
  1  2  1  0
  2  3  1  0
  3  4  2  0
  3  5  1  0
  5  6  1  0
  6  7  2  0
  7  8  1  0
  8  9  2  0
  9 10  1  0
 10 11  2  0
  5 12  1  0
 12 13  1  0
 13 14  1  0
 14 15  1  0
 15 16  1  0
 16 17  2  0
 16 18  1  0
 18 19  1  0
 18 20  1  0
 20 21  1  0
 21 22  1  0
 22 23  2  0
 23 24  1  0
 24 25  2  0
 25 26  1  0
 26 27  2  0
 27 28  1  0
 28 29  2  0
 29 30  1  0
 30 31  2  0
 15 32  1  0
 32 33  1  0
 11  6  1  0
 33 12  1  0
 31 22  1  0
 30 25  1  0
  1 34  1  0
  1 35  1  0
  1 36  1  0
  2 37  1  0
  2 38  1  0
  7 39  1  0
  8 40  1  0
  9 41  1  0
 10 42  1  0
 11 43  1  0
 12 44  1  0
 13 45  1  0
 13 46  1  0
 14 47  1  0
 14 48  1  0
 18 49  1  6
 19 50  1  0
 19 51  1  0
 19 52  1  0
 20 53  1  0
 21 54  1  0
 21 55  1  0
 23 56  1  0
 24 57  1  0
 26 58  1  0
 27 59  1  0
 28 60  1  0
 29 61  1  0
 31 62  1  0
 32 63  1  0
 32 64  1  0
 33 65  1  0
 33 66  1  0
M  END
>  <smiles>  (31) 
CCC(=O)N(c1ccccc1)C1CCN(C(=O)[C@H](C)NCc2ccc3ccccc3c2)CC1

>  <score_type>  (31) 
oracle

>  <origin>  (31) 
autodockgpu

>  <m_score__min__energy>  (31) 
-9.3699999999999992

>  <m_primary>  (31) 
energy

>  <rmsd>  (31) 
8.438907077269768

>  <m_score__min__rmsd>  (31) 
8.438907077269768

>  <meeko>  (31) 
{"free_energy": -8.7, "intermolecular_energy": -11.08, "internal_energy": -2.36, "cluster_size": 36, "cluster_id": 1, "rank_in_cluster": 24}

>  <energy>  (31) 
-8.52

>  <cluster_rmsd>  (31) 
1.84

>  <cluster>  (31) 
1

$$$$

     RDKit          3D

 66 69  0  0  0  0  0  0  0  0999 V2000
  141.0430   79.6250  219.2190 C   0  0  0  0  0  0  0  0  0  0  0  0
  140.2190   80.8640  219.6260 C   0  0  0  0  0  0  0  0  0  0  0  0
  139.4500   80.4670  220.8050 C   0  0  0  0  0  0  0  0  0  0  0  0
  138.2650   80.9440  220.9020 O   0  0  0  0  0  0  0  0  0  0  0  0
  139.8540   79.6190  221.8540 N   0  0  0  0  0  0  0  0  0  0  0  0
  141.0120   80.0780  222.6030 C   0  0  0  0  0  0  0  0  0  0  0  0
  142.2390   79.4780  222.3900 C   0  0  0  0  0  0  0  0  0  0  0  0
  143.3850   79.8530  223.0600 C   0  0  0  0  0  0  0  0  0  0  0  0
  143.2810   80.8770  223.9820 C   0  0  0  0  0  0  0  0  0  0  0  0
  142.0630   81.4750  224.1980 C   0  0  0  0  0  0  0  0  0  0  0  0
  140.9070   81.0950  223.5210 C   0  0  0  0  0  0  0  0  0  0  0  0
  139.2770   78.3810  222.2530 C   0  0  0  0  0  0  0  0  0  0  0  0
  137.8440   78.1670  221.8620 C   0  0  0  0  0  0  0  0  0  0  0  0
  137.4170   76.8560  222.5510 C   0  0  0  0  0  0  0  0  0  0  0  0
  138.1640   75.8180  221.8280 N   0  0  0  0  0  0  0  0  0  0  0  0
  137.7250   74.4950  221.9880 C   0  0  0  0  0  0  0  0  0  0  0  0
  136.7350   74.2830  222.7300 O   0  0  0  0  0  0  0  0  0  0  0  0
  138.3480   73.3120  221.3400 C   0  0  2  0  0  0  0  0  0  0  0  0
  137.4690   72.8390  220.2340 C   0  0  0  0  0  0  0  0  0  0  0  0
  138.5250   72.3310  222.3860 N   0  0  0  0  0  0  0  0  0  0  0  0
  139.8620   71.7750  222.4380 C   0  0  0  0  0  0  0  0  0  0  0  0
  139.8890   70.9720  223.7150 C   0  0  0  0  0  0  0  0  0  0  0  0
  139.3660   69.6940  223.7350 C   0  0  0  0  0  0  0  0  0  0  0  0
  139.3880   68.9480  224.9110 C   0  0  0  0  0  0  0  0  0  0  0  0
  139.9360   69.5030  226.0430 C   0  0  0  0  0  0  0  0  0  0  0  0
  139.9460   68.7370  227.2070 C   0  0  0  0  0  0  0  0  0  0  0  0
  140.4960   69.2770  228.3700 C   0  0  0  0  0  0  0  0  0  0  0  0
  141.0130   70.5570  228.3290 C   0  0  0  0  0  0  0  0  0  0  0  0
  141.0000   71.3150  227.1650 C   0  0  0  0  0  0  0  0  0  0  0  0
  140.4550   70.7840  226.0070 C   0  0  0  0  0  0  0  0  0  0  0  0
  140.4410   71.5400  224.8460 C   0  0  0  0  0  0  0  0  0  0  0  0
  139.2920   76.2200  221.0060 C   0  0  0  0  0  0  0  0  0  0  0  0
  140.1360   77.2390  221.7440 C   0  0  0  0  0  0  0  0  0  0  0  0
  141.3904   79.1027  220.1226 H   0  0  0  0  0  0  0  0  0  0  0  0
  140.4152   78.9471  218.6221 H   0  0  0  0  0  0  0  0  0  0  0  0
  141.9109   79.9418  218.6221 H   0  0  0  0  0  0  0  0  0  0  0  0
  140.8864   81.7037  219.8699 H   0  0  0  0  0  0  0  0  0  0  0  0
  139.5615   81.1967  218.8093 H   0  0  0  0  0  0  0  0  0  0  0  0
  142.3045   78.6644  221.6526 H   0  0  0  0  0  0  0  0  0  0  0  0
  144.3467   79.3550  222.8673 H   0  0  0  0  0  0  0  0  0  0  0  0
  144.1682   81.2114  224.5397 H   0  0  0  0  0  0  0  0  0  0  0  0
  141.9984   82.2877  224.9364 H   0  0  0  0  0  0  0  0  0  0  0  0
  139.9444   81.5911  223.7142 H   0  0  0  0  0  0  0  0  0  0  0  0
  139.2558   78.4129  223.3523 H   0  0  0  0  0  0  0  0  0  0  0  0
  137.2218   79.0043  222.2109 H   0  0  0  0  0  0  0  0  0  0  0  0
  137.7244   78.1103  220.7700 H   0  0  0  0  0  0  0  0  0  0  0  0
  137.6919   76.8660  223.6161 H   0  0  0  0  0  0  0  0  0  0  0  0
  136.3293   76.6952  222.5204 H   0  0  0  0  0  0  0  0  0  0  0  0
  139.3230   73.5321  220.8808 H   0  0  0  0  0  0  0  0  0  0  0  0
  136.5747   72.3578  220.6566 H   0  0  0  0  0  0  0  0  0  0  0  0
  137.1661   73.6959  219.6144 H   0  0  0  0  0  0  0  0  0  0  0  0
  138.0172   72.1141  219.6144 H   0  0  0  0  0  0  0  0  0  0  0  0
  138.2190   72.7210  223.2790 H   0  0  0  0  0  0  0  0  0  0  0  0
  140.0479   71.1280  221.5681 H   0  0  0  0  0  0  0  0  0  0  0  0
  140.6392   72.5531  222.4172 H   0  0  0  0  0  0  0  0  0  0  0  0
  138.9312   69.2644  222.8204 H   0  0  0  0  0  0  0  0  0  0  0  0
  138.9729   67.9296  224.9336 H   0  0  0  0  0  0  0  0  0  0  0  0
  139.5260   67.7204  227.2089 H   0  0  0  0  0  0  0  0  0  0  0  0
  140.5175   68.6939  229.3025 H   0  0  0  0  0  0  0  0  0  0  0  0
  141.4470   70.9881  229.2432 H   0  0  0  0  0  0  0  0  0  0  0  0
  141.4202   72.3316  227.1626 H   0  0  0  0  0  0  0  0  0  0  0  0
  140.8557   72.5586  224.8259 H   0  0  0  0  0  0  0  0  0  0  0  0
  139.9065   75.3375  220.7745 H   0  0  0  0  0  0  0  0  0  0  0  0
  138.9171   76.6693  220.0745 H   0  0  0  0  0  0  0  0  0  0  0  0
  140.6284   76.7497  222.5973 H   0  0  0  0  0  0  0  0  0  0  0  0
  140.8872   77.6443  221.0501 H   0  0  0  0  0  0  0  0  0  0  0  0
  1  2  1  0
  2  3  1  0
  3  4  2  0
  3  5  1  0
  5  6  1  0
  6  7  2  0
  7  8  1  0
  8  9  2  0
  9 10  1  0
 10 11  2  0
  5 12  1  0
 12 13  1  0
 13 14  1  0
 14 15  1  0
 15 16  1  0
 16 17  2  0
 16 18  1  0
 18 19  1  0
 18 20  1  0
 20 21  1  0
 21 22  1  0
 22 23  2  0
 23 24  1  0
 24 25  2  0
 25 26  1  0
 26 27  2  0
 27 28  1  0
 28 29  2  0
 29 30  1  0
 30 31  2  0
 15 32  1  0
 32 33  1  0
 11  6  1  0
 33 12  1  0
 31 22  1  0
 30 25  1  0
  1 34  1  0
  1 35  1  0
  1 36  1  0
  2 37  1  0
  2 38  1  0
  7 39  1  0
  8 40  1  0
  9 41  1  0
 10 42  1  0
 11 43  1  0
 12 44  1  0
 13 45  1  0
 13 46  1  0
 14 47  1  0
 14 48  1  0
 18 49  1  6
 19 50  1  0
 19 51  1  0
 19 52  1  0
 20 53  1  0
 21 54  1  0
 21 55  1  0
 23 56  1  0
 24 57  1  0
 26 58  1  0
 27 59  1  0
 28 60  1  0
 29 61  1  0
 31 62  1  0
 32 63  1  0
 32 64  1  0
 33 65  1  0
 33 66  1  0
M  END
>  <smiles>  (32) 
CCC(=O)N(c1ccccc1)C1CCN(C(=O)[C@H](C)NCc2ccc3ccccc3c2)CC1

>  <score_type>  (32) 
oracle

>  <origin>  (32) 
autodockgpu

>  <m_score__min__energy>  (32) 
-9.3699999999999992

>  <m_primary>  (32) 
energy

>  <rmsd>  (32) 
9.12539862258774

>  <m_score__min__rmsd>  (32) 
9.12539862258774

>  <meeko>  (32) 
{"free_energy": -8.62, "intermolecular_energy": -11.01, "internal_energy": -2.22, "cluster_size": 36, "cluster_id": 1, "rank_in_cluster": 27}

>  <energy>  (32) 
-8.48

>  <cluster_rmsd>  (32) 
1.89

>  <cluster>  (32) 
1

$$$$

     RDKit          3D

 66 69  0  0  0  0  0  0  0  0999 V2000
  143.0690   71.0360  216.1610 C   0  0  0  0  0  0  0  0  0  0  0  0
  144.6100   71.1130  216.1550 C   0  0  0  0  0  0  0  0  0  0  0  0
  145.0040   71.3990  217.5340 C   0  0  0  0  0  0  0  0  0  0  0  0
  145.9370   72.2620  217.6960 O   0  0  0  0  0  0  0  0  0  0  0  0
  144.4800   70.8390  218.7160 N   0  0  0  0  0  0  0  0  0  0  0  0
  144.8120   69.4410  218.9330 C   0  0  0  0  0  0  0  0  0  0  0  0
  143.8430   68.4750  218.7360 C   0  0  0  0  0  0  0  0  0  0  0  0
  144.0760   67.1290  218.9210 C   0  0  0  0  0  0  0  0  0  0  0  0
  145.3430   66.7480  219.3210 C   0  0  0  0  0  0  0  0  0  0  0  0
  146.3080   67.7040  219.5180 C   0  0  0  0  0  0  0  0  0  0  0  0
  146.0710   69.0630  219.3320 C   0  0  0  0  0  0  0  0  0  0  0  0
  143.6690   71.4690  219.7000 C   0  0  0  0  0  0  0  0  0  0  0  0
  143.5430   72.9610  219.5920 C   0  0  0  0  0  0  0  0  0  0  0  0
  142.7730   73.4050  220.8520 C   0  0  0  0  0  0  0  0  0  0  0  0
  141.4130   72.8950  220.6310 N   0  0  0  0  0  0  0  0  0  0  0  0
  140.3960   73.4370  221.4320 C   0  0  0  0  0  0  0  0  0  0  0  0
  140.7080   74.3110  222.2770 O   0  0  0  0  0  0  0  0  0  0  0  0
  138.9640   73.0520  221.3570 C   0  0  2  0  0  0  0  0  0  0  0  0
  138.1200   74.2730  221.4930 C   0  0  0  0  0  0  0  0  0  0  0  0
  138.7510   72.0930  222.4170 N   0  0  0  0  0  0  0  0  0  0  0  0
  139.7410   71.0350  222.4470 C   0  0  0  0  0  0  0  0  0  0  0  0
  140.0600   70.8570  223.9110 C   0  0  0  0  0  0  0  0  0  0  0  0
  140.7000   71.8680  224.6030 C   0  0  0  0  0  0  0  0  0  0  0  0
  140.9960   71.7090  225.9540 C   0  0  0  0  0  0  0  0  0  0  0  0
  140.6440   70.5380  226.5830 C   0  0  0  0  0  0  0  0  0  0  0  0
  140.9520   70.4030  227.9340 C   0  0  0  0  0  0  0  0  0  0  0  0
  140.6050   69.2240  228.5950 C   0  0  0  0  0  0  0  0  0  0  0  0
  139.9670   68.2270  227.8850 C   0  0  0  0  0  0  0  0  0  0  0  0
  139.6620   68.3680  226.5380 C   0  0  0  0  0  0  0  0  0  0  0  0
  140.0040   69.5360  225.8760 C   0  0  0  0  0  0  0  0  0  0  0  0
  139.7010   69.6770  224.5310 C   0  0  0  0  0  0  0  0  0  0  0  0
  141.2090   71.8790  219.6140 C   0  0  0  0  0  0  0  0  0  0  0  0
  142.2940   70.8270  219.7050 C   0  0  0  0  0  0  0  0  0  0  0  0
  142.7068   71.0179  217.1995 H   0  0  0  0  0  0  0  0  0  0  0  0
  142.6560   71.9146  215.6439 H   0  0  0  0  0  0  0  0  0  0  0  0
  142.7456   70.1206  215.6439 H   0  0  0  0  0  0  0  0  0  0  0  0
  145.0394   70.1554  215.8255 H   0  0  0  0  0  0  0  0  0  0  0  0
  144.9723   71.8877  215.4632 H   0  0  0  0  0  0  0  0  0  0  0  0
  142.8401   68.7950  218.4170 H   0  0  0  0  0  0  0  0  0  0  0  0
  143.2825   66.3852  218.7563 H   0  0  0  0  0  0  0  0  0  0  0  0
  145.5766   65.6850  219.4805 H   0  0  0  0  0  0  0  0  0  0  0  0
  147.3108   67.3827  219.8362 H   0  0  0  0  0  0  0  0  0  0  0  0
  146.8634   69.8075  219.4985 H   0  0  0  0  0  0  0  0  0  0  0  0
  144.1950   71.3088  220.6527 H   0  0  0  0  0  0  0  0  0  0  0  0
  144.5380   73.4293  219.5652 H   0  0  0  0  0  0  0  0  0  0  0  0
  143.0218   73.2596  218.6705 H   0  0  0  0  0  0  0  0  0  0  0  0
  143.2148   72.9628  221.7571 H   0  0  0  0  0  0  0  0  0  0  0  0
  142.7989   74.4941  221.0040 H   0  0  0  0  0  0  0  0  0  0  0  0
  138.6882   72.5959  220.3948 H   0  0  0  0  0  0  0  0  0  0  0  0
  137.9662   74.4955  222.5592 H   0  0  0  0  0  0  0  0  0  0  0  0
  138.6243   75.1230  221.0101 H   0  0  0  0  0  0  0  0  0  0  0  0
  137.1467   74.1016  221.0101 H   0  0  0  0  0  0  0  0  0  0  0  0
  138.6600   72.5810  223.3090 H   0  0  0  0  0  0  0  0  0  0  0  0
  139.3308   70.1067  222.0228 H   0  0  0  0  0  0  0  0  0  0  0  0
  140.6328   71.2799  221.8515 H   0  0  0  0  0  0  0  0  0  0  0  0
  140.9756   72.7989  224.0858 H   0  0  0  0  0  0  0  0  0  0  0  0
  141.5048   72.5096  226.5110 H   0  0  0  0  0  0  0  0  0  0  0  0
  141.4621   71.2149  228.4732 H   0  0  0  0  0  0  0  0  0  0  0  0
  140.8357   69.0916  229.6624 H   0  0  0  0  0  0  0  0  0  0  0  0
  139.6926   67.2949  228.4007 H   0  0  0  0  0  0  0  0  0  0  0  0
  139.1513   67.5564  225.9990 H   0  0  0  0  0  0  0  0  0  0  0  0
  139.1915   68.8755  223.9761 H   0  0  0  0  0  0  0  0  0  0  0  0
  140.2283   71.4043  219.7654 H   0  0  0  0  0  0  0  0  0  0  0  0
  141.2470   72.3507  218.6210 H   0  0  0  0  0  0  0  0  0  0  0  0
  142.1658   70.2564  220.6367 H   0  0  0  0  0  0  0  0  0  0  0  0
  142.2129   70.1606  218.8336 H   0  0  0  0  0  0  0  0  0  0  0  0
  1  2  1  0
  2  3  1  0
  3  4  2  0
  3  5  1  0
  5  6  1  0
  6  7  2  0
  7  8  1  0
  8  9  2  0
  9 10  1  0
 10 11  2  0
  5 12  1  0
 12 13  1  0
 13 14  1  0
 14 15  1  0
 15 16  1  0
 16 17  2  0
 16 18  1  0
 18 19  1  0
 18 20  1  0
 20 21  1  0
 21 22  1  0
 22 23  2  0
 23 24  1  0
 24 25  2  0
 25 26  1  0
 26 27  2  0
 27 28  1  0
 28 29  2  0
 29 30  1  0
 30 31  2  0
 15 32  1  0
 32 33  1  0
 11  6  1  0
 33 12  1  0
 31 22  1  0
 30 25  1  0
  1 34  1  0
  1 35  1  0
  1 36  1  0
  2 37  1  0
  2 38  1  0
  7 39  1  0
  8 40  1  0
  9 41  1  0
 10 42  1  0
 11 43  1  0
 12 44  1  0
 13 45  1  0
 13 46  1  0
 14 47  1  0
 14 48  1  0
 18 49  1  6
 19 50  1  0
 19 51  1  0
 19 52  1  0
 20 53  1  0
 21 54  1  0
 21 55  1  0
 23 56  1  0
 24 57  1  0
 26 58  1  0
 27 59  1  0
 28 60  1  0
 29 61  1  0
 31 62  1  0
 32 63  1  0
 32 64  1  0
 33 65  1  0
 33 66  1  0
M  END
>  <smiles>  (33) 
CCC(=O)N(c1ccccc1)C1CCN(C(=O)[C@H](C)NCc2ccc3ccccc3c2)CC1

>  <score_type>  (33) 
oracle

>  <origin>  (33) 
autodockgpu

>  <m_score__min__energy>  (33) 
-9.3699999999999992

>  <m_primary>  (33) 
energy

>  <rmsd>  (33) 
8.557883560100425

>  <m_score__min__rmsd>  (33) 
8.557883560100425

>  <meeko>  (33) 
{"free_energy": -8.75, "intermolecular_energy": -11.14, "internal_energy": -2.05, "cluster_size": 1, "cluster_id": 4, "rank_in_cluster": 1}

>  <energy>  (33) 
-8.43

>  <cluster_rmsd>  (33) 
1.32

>  <cluster>  (33) 
1

$$$$

     RDKit          3D

 66 69  0  0  0  0  0  0  0  0999 V2000
  142.5660   78.5770  218.1700 C   0  0  0  0  0  0  0  0  0  0  0  0
  141.3520   77.7950  218.7110 C   0  0  0  0  0  0  0  0  0  0  0  0
  141.7430   77.3070  220.0340 C   0  0  0  0  0  0  0  0  0  0  0  0
  142.7890   76.5710  220.0860 O   0  0  0  0  0  0  0  0  0  0  0  0
  141.1050   77.5480  221.2660 N   0  0  0  0  0  0  0  0  0  0  0  0
  141.5840   78.7150  221.9880 C   0  0  0  0  0  0  0  0  0  0  0  0
  141.7610   78.6420  223.3570 C   0  0  0  0  0  0  0  0  0  0  0  0
  142.2110   79.7030  224.1140 C   0  0  0  0  0  0  0  0  0  0  0  0
  142.4930   80.8850  223.4560 C   0  0  0  0  0  0  0  0  0  0  0  0
  142.3180   80.9620  222.0960 C   0  0  0  0  0  0  0  0  0  0  0  0
  141.8630   79.8910  221.3330 C   0  0  0  0  0  0  0  0  0  0  0  0
  140.0710   76.7900  221.8820 C   0  0  0  0  0  0  0  0  0  0  0  0
  138.6680   77.1580  221.5000 C   0  0  0  0  0  0  0  0  0  0  0  0
  137.7530   76.3250  222.4190 C   0  0  0  0  0  0  0  0  0  0  0  0
  137.9270   74.9490  221.9350 N   0  0  0  0  0  0  0  0  0  0  0  0
  136.9650   74.0100  222.3370 C   0  0  0  0  0  0  0  0  0  0  0  0
  136.0290   74.3990  223.0770 O   0  0  0  0  0  0  0  0  0  0  0  0
  136.9680   72.5760  221.9510 C   0  0  2  0  0  0  0  0  0  0  0  0
  135.5720   72.1410  221.6660 C   0  0  0  0  0  0  0  0  0  0  0  0
  137.5720   71.8650  223.0550 N   0  0  0  0  0  0  0  0  0  0  0  0
  138.8270   71.2270  222.7170 C   0  0  0  0  0  0  0  0  0  0  0  0
  139.2030   70.4510  223.9550 C   0  0  0  0  0  0  0  0  0  0  0  0
  138.9450   69.0950  224.0210 C   0  0  0  0  0  0  0  0  0  0  0  0
  139.2900   68.3740  225.1610 C   0  0  0  0  0  0  0  0  0  0  0  0
  139.8880   69.0290  226.2110 C   0  0  0  0  0  0  0  0  0  0  0  0
  140.2220   68.2850  227.3400 C   0  0  0  0  0  0  0  0  0  0  0  0
  140.8300   68.9270  228.4200 C   0  0  0  0  0  0  0  0  0  0  0  0
  141.0790   70.2820  228.3330 C   0  0  0  0  0  0  0  0  0  0  0  0
  140.7430   71.0180  227.2050 C   0  0  0  0  0  0  0  0  0  0  0  0
  140.1390   70.3860  226.1290 C   0  0  0  0  0  0  0  0  0  0  0  0
  139.8030   71.1200  225.0030 C   0  0  0  0  0  0  0  0  0  0  0  0
  139.0650   74.6510  221.0830 C   0  0  0  0  0  0  0  0  0  0  0  0
  140.3120   75.3130  221.6300 C   0  0  0  0  0  0  0  0  0  0  0  0
  143.1605   78.9600  219.0125 H   0  0  0  0  0  0  0  0  0  0  0  0
  143.1881   77.9094  217.5558 H   0  0  0  0  0  0  0  0  0  0  0  0
  142.2153   79.4195  217.5558 H   0  0  0  0  0  0  0  0  0  0  0  0
  140.4764   78.4560  218.7909 H   0  0  0  0  0  0  0  0  0  0  0  0
  141.0757   76.9669  218.0418 H   0  0  0  0  0  0  0  0  0  0  0  0
  141.5324   77.6940  223.8659 H   0  0  0  0  0  0  0  0  0  0  0  0
  142.3408   79.6118  225.2025 H   0  0  0  0  0  0  0  0  0  0  0  0
  142.8553   81.7585  224.0178 H   0  0  0  0  0  0  0  0  0  0  0  0
  142.5472   81.9105  221.5883 H   0  0  0  0  0  0  0  0  0  0  0  0
  141.7313   79.9821  220.2447 H   0  0  0  0  0  0  0  0  0  0  0  0
  140.1332   77.0345  222.9527 H   0  0  0  0  0  0  0  0  0  0  0  0
  138.4963   78.2327  221.6600 H   0  0  0  0  0  0  0  0  0  0  0  0
  138.4700   76.9541  220.4374 H   0  0  0  0  0  0  0  0  0  0  0  0
  138.0677   76.4134  223.4693 H   0  0  0  0  0  0  0  0  0  0  0  0
  136.7047   76.6567  222.3884 H   0  0  0  0  0  0  0  0  0  0  0  0
  137.5420   72.3759  221.0343 H   0  0  0  0  0  0  0  0  0  0  0  0
  135.0390   71.9749  222.6138 H   0  0  0  0  0  0  0  0  0  0  0  0
  135.0559   72.9209  221.0869 H   0  0  0  0  0  0  0  0  0  0  0  0
  135.5903   71.2060  221.0869 H   0  0  0  0  0  0  0  0  0  0  0  0
  137.6430   72.4850  223.8650 H   0  0  0  0  0  0  0  0  0  0  0  0
  138.7006   70.5513  221.8583 H   0  0  0  0  0  0  0  0  0  0  0  0
  139.6007   71.9537  222.4283 H   0  0  0  0  0  0  0  0  0  0  0  0
  138.4666   68.5848  223.1720 H   0  0  0  0  0  0  0  0  0  0  0  0
  139.0867   67.2946  225.2205 H   0  0  0  0  0  0  0  0  0  0  0  0
  140.0096   67.2064  227.3800 H   0  0  0  0  0  0  0  0  0  0  0  0
  141.1056   68.3637  229.3237 H   0  0  0  0  0  0  0  0  0  0  0  0
  141.5572   70.7930  229.1816 H   0  0  0  0  0  0  0  0  0  0  0  0
  140.9548   72.0967  227.1651 H   0  0  0  0  0  0  0  0  0  0  0  0
  140.0074   72.1993  224.9460 H   0  0  0  0  0  0  0  0  0  0  0  0
  139.2172   73.5622  221.0468 H   0  0  0  0  0  0  0  0  0  0  0  0
  138.8677   75.0352  220.0713 H   0  0  0  0  0  0  0  0  0  0  0  0
  140.5932   74.8269  222.5758 H   0  0  0  0  0  0  0  0  0  0  0  0
  141.1201   75.2084  220.8910 H   0  0  0  0  0  0  0  0  0  0  0  0
  1  2  1  0
  2  3  1  0
  3  4  2  0
  3  5  1  0
  5  6  1  0
  6  7  2  0
  7  8  1  0
  8  9  2  0
  9 10  1  0
 10 11  2  0
  5 12  1  0
 12 13  1  0
 13 14  1  0
 14 15  1  0
 15 16  1  0
 16 17  2  0
 16 18  1  0
 18 19  1  0
 18 20  1  0
 20 21  1  0
 21 22  1  0
 22 23  2  0
 23 24  1  0
 24 25  2  0
 25 26  1  0
 26 27  2  0
 27 28  1  0
 28 29  2  0
 29 30  1  0
 30 31  2  0
 15 32  1  0
 32 33  1  0
 11  6  1  0
 33 12  1  0
 31 22  1  0
 30 25  1  0
  1 34  1  0
  1 35  1  0
  1 36  1  0
  2 37  1  0
  2 38  1  0
  7 39  1  0
  8 40  1  0
  9 41  1  0
 10 42  1  0
 11 43  1  0
 12 44  1  0
 13 45  1  0
 13 46  1  0
 14 47  1  0
 14 48  1  0
 18 49  1  6
 19 50  1  0
 19 51  1  0
 19 52  1  0
 20 53  1  0
 21 54  1  0
 21 55  1  0
 23 56  1  0
 24 57  1  0
 26 58  1  0
 27 59  1  0
 28 60  1  0
 29 61  1  0
 31 62  1  0
 32 63  1  0
 32 64  1  0
 33 65  1  0
 33 66  1  0
M  END
>  <smiles>  (34) 
CCC(=O)N(c1ccccc1)C1CCN(C(=O)[C@H](C)NCc2ccc3ccccc3c2)CC1

>  <score_type>  (34) 
oracle

>  <origin>  (34) 
autodockgpu

>  <m_score__min__energy>  (34) 
-9.3699999999999992

>  <m_primary>  (34) 
energy

>  <rmsd>  (34) 
9.420313661413836

>  <m_score__min__rmsd>  (34) 
9.420313661413836

>  <meeko>  (34) 
{"free_energy": -9.23, "intermolecular_energy": -11.62, "internal_energy": -1.91, "cluster_size": 36, "cluster_id": 1, "rank_in_cluster": 7}

>  <energy>  (34) 
-8.4

>  <cluster_rmsd>  (34) 
1.25

>  <cluster>  (34) 
1

$$$$

     RDKit          3D

 66 69  0  0  0  0  0  0  0  0999 V2000
  138.8000   67.8890  222.2900 C   0  0  0  0  0  0  0  0  0  0  0  0
  137.3410   68.1800  222.6960 C   0  0  0  0  0  0  0  0  0  0  0  0
  137.4120   68.9250  223.9530 C   0  0  0  0  0  0  0  0  0  0  0  0
  136.3850   68.8610  224.7160 O   0  0  0  0  0  0  0  0  0  0  0  0
  138.4800   69.7100  224.4320 N   0  0  0  0  0  0  0  0  0  0  0  0
  139.2630   69.0990  225.4940 C   0  0  0  0  0  0  0  0  0  0  0  0
  139.6860   69.8750  226.5570 C   0  0  0  0  0  0  0  0  0  0  0  0
  140.4320   69.3730  227.6020 C   0  0  0  0  0  0  0  0  0  0  0  0
  140.7610   68.0320  227.5680 C   0  0  0  0  0  0  0  0  0  0  0  0
  140.3440   67.2580  226.5130 C   0  0  0  0  0  0  0  0  0  0  0  0
  139.5910   67.7650  225.4580 C   0  0  0  0  0  0  0  0  0  0  0  0
  138.8680   71.0130  224.0120 C   0  0  0  0  0  0  0  0  0  0  0  0
  139.9990   71.0770  223.0280 C   0  0  0  0  0  0  0  0  0  0  0  0
  140.3330   72.5730  222.8750 C   0  0  0  0  0  0  0  0  0  0  0  0
  139.1750   73.1210  222.1550 N   0  0  0  0  0  0  0  0  0  0  0  0
  139.3380   74.3810  221.5610 C   0  0  0  0  0  0  0  0  0  0  0  0
  140.4470   74.9560  221.6800 O   0  0  0  0  0  0  0  0  0  0  0  0
  138.2870   75.0960  220.7920 C   0  0  2  0  0  0  0  0  0  0  0  0
  138.4000   74.7320  219.3510 C   0  0  0  0  0  0  0  0  0  0  0  0
  138.4980   76.5040  221.0420 N   0  0  0  0  0  0  0  0  0  0  0  0
  137.9230   76.9630  222.2890 C   0  0  0  0  0  0  0  0  0  0  0  0
  138.7930   78.1250  222.7020 C   0  0  0  0  0  0  0  0  0  0  0  0
  138.2130   79.2750  223.2020 C   0  0  0  0  0  0  0  0  0  0  0  0
  139.0110   80.3500  223.5850 C   0  0  0  0  0  0  0  0  0  0  0  0
  140.3760   80.2470  223.4570 C   0  0  0  0  0  0  0  0  0  0  0  0
  141.1520   81.3360  223.8460 C   0  0  0  0  0  0  0  0  0  0  0  0
  142.5410   81.2570  223.7270 C   0  0  0  0  0  0  0  0  0  0  0  0
  143.1000   80.0990  223.2250 C   0  0  0  0  0  0  0  0  0  0  0  0
  142.3200   79.0170  222.8390 C   0  0  0  0  0  0  0  0  0  0  0  0
  140.9410   79.0890  222.9550 C   0  0  0  0  0  0  0  0  0  0  0  0
  140.1620   78.0100  222.5690 C   0  0  0  0  0  0  0  0  0  0  0  0
  137.9540   72.3360  222.1040 C   0  0  0  0  0  0  0  0  0  0  0  0
  137.6570   71.7470  223.4680 C   0  0  0  0  0  0  0  0  0  0  0  0
  139.4147   67.7664  223.1940 H   0  0  0  0  0  0  0  0  0  0  0  0
  138.8373   66.9657  221.6932 H   0  0  0  0  0  0  0  0  0  0  0  0
  139.1887   68.7273  221.6932 H   0  0  0  0  0  0  0  0  0  0  0  0
  136.8422   68.7824  221.9225 H   0  0  0  0  0  0  0  0  0  0  0  0
  136.7623   67.2515  222.8106 H   0  0  0  0  0  0  0  0  0  0  0  0
  139.4151   70.9411  226.5696 H   0  0  0  0  0  0  0  0  0  0  0  0
  140.7538   70.0175  228.4333 H   0  0  0  0  0  0  0  0  0  0  0  0
  141.3534   67.5867  228.3809 H   0  0  0  0  0  0  0  0  0  0  0  0
  140.6166   66.1924  226.5013 H   0  0  0  0  0  0  0  0  0  0  0  0
  139.2701   67.1213  224.6257 H   0  0  0  0  0  0  0  0  0  0  0  0
  139.2658   71.5011  224.9139 H   0  0  0  0  0  0  0  0  0  0  0  0
  140.8713   70.5262  223.4097 H   0  0  0  0  0  0  0  0  0  0  0  0
  139.7260   70.6210  222.0649 H   0  0  0  0  0  0  0  0  0  0  0  0
  140.4446   73.0518  223.8590 H   0  0  0  0  0  0  0  0  0  0  0  0
  141.2819   72.7442  222.3456 H   0  0  0  0  0  0  0  0  0  0  0  0
  137.2656   74.8228  221.0956 H   0  0  0  0  0  0  0  0  0  0  0  0
  138.7250   73.6849  219.2617 H   0  0  0  0  0  0  0  0  0  0  0  0
  137.4214   74.8550  218.8639 H   0  0  0  0  0  0  0  0  0  0  0  0
  139.1369   75.3875  218.8639 H   0  0  0  0  0  0  0  0  0  0  0  0
  139.4910   76.7240  220.9530 H   0  0  0  0  0  0  0  0  0  0  0  0
  136.8831   77.2895  222.1406 H   0  0  0  0  0  0  0  0  0  0  0  0
  137.8932   76.1712  223.0520 H   0  0  0  0  0  0  0  0  0  0  0  0
  137.1192   79.3415  223.2977 H   0  0  0  0  0  0  0  0  0  0  0  0
  138.5558   81.2684  223.9842 H   0  0  0  0  0  0  0  0  0  0  0  0
  140.6772   82.2460  224.2416 H   0  0  0  0  0  0  0  0  0  0  0  0
  143.1780   82.1019  224.0277 H   0  0  0  0  0  0  0  0  0  0  0  0
  144.1936   80.0315  223.1281 H   0  0  0  0  0  0  0  0  0  0  0  0
  142.7945   78.1070  222.4430 H   0  0  0  0  0  0  0  0  0  0  0  0
  140.6193   77.0926  222.1700 H   0  0  0  0  0  0  0  0  0  0  0  0
  137.1185   72.9822  221.7969 H   0  0  0  0  0  0  0  0  0  0  0  0
  138.0811   71.5189  221.3786 H   0  0  0  0  0  0  0  0  0  0  0  0
  137.3857   72.5580  224.1599 H   0  0  0  0  0  0  0  0  0  0  0  0
  136.8257   71.0331  223.3709 H   0  0  0  0  0  0  0  0  0  0  0  0
  1  2  1  0
  2  3  1  0
  3  4  2  0
  3  5  1  0
  5  6  1  0
  6  7  2  0
  7  8  1  0
  8  9  2  0
  9 10  1  0
 10 11  2  0
  5 12  1  0
 12 13  1  0
 13 14  1  0
 14 15  1  0
 15 16  1  0
 16 17  2  0
 16 18  1  0
 18 19  1  0
 18 20  1  0
 20 21  1  0
 21 22  1  0
 22 23  2  0
 23 24  1  0
 24 25  2  0
 25 26  1  0
 26 27  2  0
 27 28  1  0
 28 29  2  0
 29 30  1  0
 30 31  2  0
 15 32  1  0
 32 33  1  0
 11  6  1  0
 33 12  1  0
 31 22  1  0
 30 25  1  0
  1 34  1  0
  1 35  1  0
  1 36  1  0
  2 37  1  0
  2 38  1  0
  7 39  1  0
  8 40  1  0
  9 41  1  0
 10 42  1  0
 11 43  1  0
 12 44  1  0
 13 45  1  0
 13 46  1  0
 14 47  1  0
 14 48  1  0
 18 49  1  1
 19 50  1  0
 19 51  1  0
 19 52  1  0
 20 53  1  0
 21 54  1  0
 21 55  1  0
 23 56  1  0
 24 57  1  0
 26 58  1  0
 27 59  1  0
 28 60  1  0
 29 61  1  0
 31 62  1  0
 32 63  1  0
 32 64  1  0
 33 65  1  0
 33 66  1  0
M  END
>  <smiles>  (35) 
CCC(=O)N(c1ccccc1)C1CCN(C(=O)[C@H](C)NCc2ccc3ccccc3c2)CC1

>  <score_type>  (35) 
oracle

>  <origin>  (35) 
autodockgpu

>  <m_score__min__energy>  (35) 
-9.3699999999999992

>  <m_primary>  (35) 
energy

>  <rmsd>  (35) 
5.009310450474419

>  <m_score__min__rmsd>  (35) 
5.009310450474419

>  <meeko>  (35) 
{"free_energy": -8.39, "intermolecular_energy": -10.78, "internal_energy": -2.42, "cluster_size": 1, "cluster_id": 5, "rank_in_cluster": 1}

>  <energy>  (35) 
-8.39

>  <cluster_rmsd>  (35) 
1.15

>  <cluster>  (35) 
1

$$$$

     RDKit          3D

 66 69  0  0  0  0  0  0  0  0999 V2000
  142.9240   77.0410  219.3380 C   0  0  0  0  0  0  0  0  0  0  0  0
  141.7350   77.9160  218.8930 C   0  0  0  0  0  0  0  0  0  0  0  0
  141.5280   78.8920  219.9630 C   0  0  0  0  0  0  0  0  0  0  0  0
  141.7650   80.1170  219.6750 O   0  0  0  0  0  0  0  0  0  0  0  0
  141.0980   78.6470  221.2820 N   0  0  0  0  0  0  0  0  0  0  0  0
  141.6030   79.5800  222.2760 C   0  0  0  0  0  0  0  0  0  0  0  0
  140.7370   80.4880  222.8570 C   0  0  0  0  0  0  0  0  0  0  0  0
  141.1370   81.4050  223.8050 C   0  0  0  0  0  0  0  0  0  0  0  0
  142.4670   81.4000  224.1800 C   0  0  0  0  0  0  0  0  0  0  0  0
  143.3300   80.5000  223.6050 C   0  0  0  0  0  0  0  0  0  0  0  0
  142.9260   79.5750  222.6470 C   0  0  0  0  0  0  0  0  0  0  0  0
  140.2490   77.6050  221.7490 C   0  0  0  0  0  0  0  0  0  0  0  0
  139.0330   77.3240  220.9150 C   0  0  0  0  0  0  0  0  0  0  0  0
  138.2090   76.2970  221.7150 C   0  0  0  0  0  0  0  0  0  0  0  0
  139.0100   75.0670  221.6400 N   0  0  0  0  0  0  0  0  0  0  0  0
  138.3610   73.8680  221.9710 C   0  0  0  0  0  0  0  0  0  0  0  0
  137.1530   73.9190  222.3060 O   0  0  0  0  0  0  0  0  0  0  0  0
  139.0000   72.5270  221.9540 C   0  0  2  0  0  0  0  0  0  0  0  0
  139.2200   72.1060  220.5410 C   0  0  0  0  0  0  0  0  0  0  0  0
  138.1090   71.6500  222.6780 N   0  0  0  0  0  0  0  0  0  0  0  0
  138.6300   70.3100  222.8530 C   0  0  0  0  0  0  0  0  0  0  0  0
  139.3050   70.3400  224.2020 C   0  0  0  0  0  0  0  0  0  0  0  0
  139.9030   71.5040  224.6460 C   0  0  0  0  0  0  0  0  0  0  0  0
  140.5280   71.5370  225.8900 C   0  0  0  0  0  0  0  0  0  0  0  0
  140.5380   70.4010  226.6630 C   0  0  0  0  0  0  0  0  0  0  0  0
  141.1700   70.4600  227.9030 C   0  0  0  0  0  0  0  0  0  0  0  0
  141.1950   69.3190  228.7070 C   0  0  0  0  0  0  0  0  0  0  0  0
  140.5910   68.1670  228.2450 C   0  0  0  0  0  0  0  0  0  0  0  0
  139.9630   68.1150  227.0070 C   0  0  0  0  0  0  0  0  0  0  0  0
  139.9350   69.2440  226.2040 C   0  0  0  0  0  0  0  0  0  0  0  0
  139.3100   69.1930  224.9690 C   0  0  0  0  0  0  0  0  0  0  0  0
  140.4010   75.1680  221.2350 C   0  0  0  0  0  0  0  0  0  0  0  0
  141.0620   76.3380  221.9330 C   0  0  0  0  0  0  0  0  0  0  0  0
  142.9657   77.0103  220.4368 H   0  0  0  0  0  0  0  0  0  0  0  0
  142.7949   76.0208  218.9473 H   0  0  0  0  0  0  0  0  0  0  0  0
  143.8596   77.4676  218.9473 H   0  0  0  0  0  0  0  0  0  0  0  0
  141.9704   78.4287  217.9487 H   0  0  0  0  0  0  0  0  0  0  0  0
  140.8327   77.3110  218.7203 H   0  0  0  0  0  0  0  0  0  0  0  0
  139.6811   80.4780  222.5487 H   0  0  0  0  0  0  0  0  0  0  0  0
  140.4231   82.1154  224.2473 H   0  0  0  0  0  0  0  0  0  0  0  0
  142.8320   82.1125  224.9344 H   0  0  0  0  0  0  0  0  0  0  0  0
  144.3854   80.5106  223.9147 H   0  0  0  0  0  0  0  0  0  0  0  0
  143.6398   78.8656  222.2029 H   0  0  0  0  0  0  0  0  0  0  0  0
  139.8445   77.9690  222.7050 H   0  0  0  0  0  0  0  0  0  0  0  0
  138.4523   78.2453  220.7605 H   0  0  0  0  0  0  0  0  0  0  0  0
  139.3023   76.9422  219.9191 H   0  0  0  0  0  0  0  0  0  0  0  0
  138.0863   76.6213  222.7589 H   0  0  0  0  0  0  0  0  0  0  0  0
  137.1918   76.1662  221.3171 H   0  0  0  0  0  0  0  0  0  0  0  0
  139.9900   72.5124  222.4332 H   0  0  0  0  0  0  0  0  0  0  0  0
  139.7294   71.1312  220.5239 H   0  0  0  0  0  0  0  0  0  0  0  0
  138.2505   72.0221  220.0282 H   0  0  0  0  0  0  0  0  0  0  0  0
  139.8425   72.8540  220.0282 H   0  0  0  0  0  0  0  0  0  0  0  0
  137.8320   72.0900  223.5570 H   0  0  0  0  0  0  0  0  0  0  0  0
  137.8148   69.5715  222.8425 H   0  0  0  0  0  0  0  0  0  0  0  0
  139.3200   70.0210  222.0465 H   0  0  0  0  0  0  0  0  0  0  0  0
  139.8853   72.4056  224.0160 H   0  0  0  0  0  0  0  0  0  0  0  0
  141.0071   72.4598  226.2489 H   0  0  0  0  0  0  0  0  0  0  0  0
  141.6429   71.3928  228.2440 H   0  0  0  0  0  0  0  0  0  0  0  0
  141.6870   69.3376  229.6907 H   0  0  0  0  0  0  0  0  0  0  0  0
  140.6074   67.2651  228.8746 H   0  0  0  0  0  0  0  0  0  0  0  0
  139.4903   67.1822  226.6658 H   0  0  0  0  0  0  0  0  0  0  0  0
  138.8333   68.2684  224.6114 H   0  0  0  0  0  0  0  0  0  0  0  0
  140.9266   74.2398  221.5037 H   0  0  0  0  0  0  0  0  0  0  0  0
  140.4491   75.3236  220.1471 H   0  0  0  0  0  0  0  0  0  0  0  0
  141.1459   76.1163  223.0072 H   0  0  0  0  0  0  0  0  0  0  0  0
  142.0589   76.4923  221.4945 H   0  0  0  0  0  0  0  0  0  0  0  0
  1  2  1  0
  2  3  1  0
  3  4  2  0
  3  5  1  0
  5  6  1  0
  6  7  2  0
  7  8  1  0
  8  9  2  0
  9 10  1  0
 10 11  2  0
  5 12  1  0
 12 13  1  0
 13 14  1  0
 14 15  1  0
 15 16  1  0
 16 17  2  0
 16 18  1  0
 18 19  1  0
 18 20  1  0
 20 21  1  0
 21 22  1  0
 22 23  2  0
 23 24  1  0
 24 25  2  0
 25 26  1  0
 26 27  2  0
 27 28  1  0
 28 29  2  0
 29 30  1  0
 30 31  2  0
 15 32  1  0
 32 33  1  0
 11  6  1  0
 33 12  1  0
 31 22  1  0
 30 25  1  0
  1 34  1  0
  1 35  1  0
  1 36  1  0
  2 37  1  0
  2 38  1  0
  7 39  1  0
  8 40  1  0
  9 41  1  0
 10 42  1  0
 11 43  1  0
 12 44  1  0
 13 45  1  0
 13 46  1  0
 14 47  1  0
 14 48  1  0
 18 49  1  1
 19 50  1  0
 19 51  1  0
 19 52  1  0
 20 53  1  0
 21 54  1  0
 21 55  1  0
 23 56  1  0
 24 57  1  0
 26 58  1  0
 27 59  1  0
 28 60  1  0
 29 61  1  0
 31 62  1  0
 32 63  1  0
 32 64  1  0
 33 65  1  0
 33 66  1  0
M  END
>  <smiles>  (36) 
CCC(=O)N(c1ccccc1)C1CCN(C(=O)[C@H](C)NCc2ccc3ccccc3c2)CC1

>  <score_type>  (36) 
oracle

>  <origin>  (36) 
autodockgpu

>  <m_score__min__energy>  (36) 
-9.3699999999999992

>  <m_primary>  (36) 
energy

>  <rmsd>  (36) 
8.41502950795346

>  <m_score__min__rmsd>  (36) 
8.41502950795346

>  <meeko>  (36) 
{"free_energy": -9.04, "intermolecular_energy": -11.43, "internal_energy": -2.09, "cluster_size": 36, "cluster_id": 1, "rank_in_cluster": 15}

>  <energy>  (36) 
-8.22

>  <cluster_rmsd>  (36) 
1.3

>  <cluster>  (36) 
1

$$$$

     RDKit          3D

 66 69  0  0  0  0  0  0  0  0999 V2000
  137.5920   81.1190  224.5710 C   0  0  0  0  0  0  0  0  0  0  0  0
  137.5580   81.6510  223.1230 C   0  0  0  0  0  0  0  0  0  0  0  0
  137.9630   80.5320  222.2720 C   0  0  0  0  0  0  0  0  0  0  0  0
  137.5450   80.5520  221.0620 O   0  0  0  0  0  0  0  0  0  0  0  0
  138.7620   79.4260  222.6230 N   0  0  0  0  0  0  0  0  0  0  0  0
  140.1890   79.6950  222.6870 C   0  0  0  0  0  0  0  0  0  0  0  0
  140.8380   80.1860  221.5690 C   0  0  0  0  0  0  0  0  0  0  0  0
  142.1880   80.4660  221.5480 C   0  0  0  0  0  0  0  0  0  0  0  0
  142.9070   80.2400  222.7060 C   0  0  0  0  0  0  0  0  0  0  0  0
  142.2670   79.7520  223.8180 C   0  0  0  0  0  0  0  0  0  0  0  0
  140.9040   79.4690  223.8390 C   0  0  0  0  0  0  0  0  0  0  0  0
  138.3440   78.0960  222.9060 C   0  0  0  0  0  0  0  0  0  0  0  0
  136.9670   77.7260  222.4380 C   0  0  0  0  0  0  0  0  0  0  0  0
  136.6960   76.3210  223.0120 C   0  0  0  0  0  0  0  0  0  0  0  0
  137.6010   75.4490  222.2500 N   0  0  0  0  0  0  0  0  0  0  0  0
  137.3390   74.0710  222.2950 C   0  0  0  0  0  0  0  0  0  0  0  0
  136.3610   73.6750  222.9750 O   0  0  0  0  0  0  0  0  0  0  0  0
  138.1360   73.0350  221.5920 C   0  0  2  0  0  0  0  0  0  0  0  0
  137.4280   72.6340  220.3430 C   0  0  0  0  0  0  0  0  0  0  0  0
  138.2950   71.9470  222.5310 N   0  0  0  0  0  0  0  0  0  0  0  0
  139.5800   71.2860  222.4390 C   0  0  0  0  0  0  0  0  0  0  0  0
  139.9370   70.9530  223.8670 C   0  0  0  0  0  0  0  0  0  0  0  0
  140.6180   71.8760  224.6380 C   0  0  0  0  0  0  0  0  0  0  0  0
  140.9500   71.5740  225.9570 C   0  0  0  0  0  0  0  0  0  0  0  0
  140.5910   70.3520  226.4730 C   0  0  0  0  0  0  0  0  0  0  0  0
  140.9360   70.0740  227.7940 C   0  0  0  0  0  0  0  0  0  0  0  0
  140.5830   68.8400  228.3420 C   0  0  0  0  0  0  0  0  0  0  0  0
  139.9040   67.9330  227.5540 C   0  0  0  0  0  0  0  0  0  0  0  0
  139.5640   68.2160  226.2370 C   0  0  0  0  0  0  0  0  0  0  0  0
  139.9110   69.4390  225.6880 C   0  0  0  0  0  0  0  0  0  0  0  0
  139.5720   69.7230  224.3750 C   0  0  0  0  0  0  0  0  0  0  0  0
  138.6920   76.0580  221.5090 C   0  0  0  0  0  0  0  0  0  0  0  0
  139.3650   77.1190  222.3540 C   0  0  0  0  0  0  0  0  0  0  0  0
  137.5380   81.9638  225.2734 H   0  0  0  0  0  0  0  0  0  0  0  0
  136.7348   80.4497  224.7359 H   0  0  0  0  0  0  0  0  0  0  0  0
  138.5274   80.5642  224.7359 H   0  0  0  0  0  0  0  0  0  0  0  0
  136.5421   81.9819  222.8613 H   0  0  0  0  0  0  0  0  0  0  0  0
  138.2259   82.5158  222.9960 H   0  0  0  0  0  0  0  0  0  0  0  0
  140.2509   80.3611  220.6554 H   0  0  0  0  0  0  0  0  0  0  0  0
  142.6751   80.8553  220.6418 H   0  0  0  0  0  0  0  0  0  0  0  0
  143.9863   80.4500  222.7367 H   0  0  0  0  0  0  0  0  0  0  0  0
  142.8557   79.5772  224.7306 H   0  0  0  0  0  0  0  0  0  0  0  0
  140.4169   79.0787  224.7447 H   0  0  0  0  0  0  0  0  0  0  0  0
  138.2822   78.0403  224.0029 H   0  0  0  0  0  0  0  0  0  0  0  0
  136.2264   78.4451  222.8180 H   0  0  0  0  0  0  0  0  0  0  0  0
  136.8939   77.7377  221.3405 H   0  0  0  0  0  0  0  0  0  0  0  0
  136.9298   76.2850  224.0863 H   0  0  0  0  0  0  0  0  0  0  0  0
  135.6414   76.0214  222.9218 H   0  0  0  0  0  0  0  0  0  0  0  0
  139.1284   73.3908  221.2782 H   0  0  0  0  0  0  0  0  0  0  0  0
  136.4977   72.1071  220.6019 H   0  0  0  0  0  0  0  0  0  0  0  0
  137.1893   73.5310  219.7527 H   0  0  0  0  0  0  0  0  0  0  0  0
  138.0745   71.9680  219.7527 H   0  0  0  0  0  0  0  0  0  0  0  0
  138.0790   72.2740  223.4750 H   0  0  0  0  0  0  0  0  0  0  0  0
  139.5039   70.3707  221.8337 H   0  0  0  0  0  0  0  0  0  0  0  0
  140.3404   71.9156  221.9538 H   0  0  0  0  0  0  0  0  0  0  0  0
  140.8981   72.8498  224.2099 H   0  0  0  0  0  0  0  0  0  0  0  0
  141.4919   72.3036  226.5767 H   0  0  0  0  0  0  0  0  0  0  0  0
  141.4791   70.8169  228.3966 H   0  0  0  0  0  0  0  0  0  0  0  0
  140.8412   68.5948  229.3828 H   0  0  0  0  0  0  0  0  0  0  0  0
  139.6241   66.9585  227.9807 H   0  0  0  0  0  0  0  0  0  0  0  0
  139.0222   67.4727  225.6337 H   0  0  0  0  0  0  0  0  0  0  0  0
  139.0296   68.9918  223.7576 H   0  0  0  0  0  0  0  0  0  0  0  0
  139.4273   75.2845  221.2423 H   0  0  0  0  0  0  0  0  0  0  0  0
  138.2920   76.5240  220.5964 H   0  0  0  0  0  0  0  0  0  0  0  0
  139.8896   76.6345  223.1907 H   0  0  0  0  0  0  0  0  0  0  0  0
  140.0774   77.6719  221.7241 H   0  0  0  0  0  0  0  0  0  0  0  0
  1  2  1  0
  2  3  1  0
  3  4  2  0
  3  5  1  0
  5  6  1  0
  6  7  2  0
  7  8  1  0
  8  9  2  0
  9 10  1  0
 10 11  2  0
  5 12  1  0
 12 13  1  0
 13 14  1  0
 14 15  1  0
 15 16  1  0
 16 17  2  0
 16 18  1  0
 18 19  1  0
 18 20  1  0
 20 21  1  0
 21 22  1  0
 22 23  2  0
 23 24  1  0
 24 25  2  0
 25 26  1  0
 26 27  2  0
 27 28  1  0
 28 29  2  0
 29 30  1  0
 30 31  2  0
 15 32  1  0
 32 33  1  0
 11  6  1  0
 33 12  1  0
 31 22  1  0
 30 25  1  0
  1 34  1  0
  1 35  1  0
  1 36  1  0
  2 37  1  0
  2 38  1  0
  7 39  1  0
  8 40  1  0
  9 41  1  0
 10 42  1  0
 11 43  1  0
 12 44  1  0
 13 45  1  0
 13 46  1  0
 14 47  1  0
 14 48  1  0
 18 49  1  6
 19 50  1  0
 19 51  1  0
 19 52  1  0
 20 53  1  0
 21 54  1  0
 21 55  1  0
 23 56  1  0
 24 57  1  0
 26 58  1  0
 27 59  1  0
 28 60  1  0
 29 61  1  0
 31 62  1  0
 32 63  1  0
 32 64  1  0
 33 65  1  0
 33 66  1  0
M  END
>  <smiles>  (37) 
CCC(=O)N(c1ccccc1)C1CCN(C(=O)[C@H](C)NCc2ccc3ccccc3c2)CC1

>  <score_type>  (37) 
oracle

>  <origin>  (37) 
autodockgpu

>  <m_score__min__energy>  (37) 
-9.3699999999999992

>  <m_primary>  (37) 
energy

>  <rmsd>  (37) 
8.618550331524002

>  <m_score__min__rmsd>  (37) 
8.618550331524002

>  <meeko>  (37) 
{"free_energy": -8.62, "intermolecular_energy": -11.01, "internal_energy": -2.24, "cluster_size": 36, "cluster_id": 1, "rank_in_cluster": 26}

>  <energy>  (37) 
-9.13

>  <cluster_rmsd>  (37) 
0.0

>  <cluster>  (37) 
2

$$$$

     RDKit          3D

 66 69  0  0  0  0  0  0  0  0999 V2000
  142.5740   79.1950  217.9730 C   0  0  0  0  0  0  0  0  0  0  0  0
  141.6970   79.5370  219.1950 C   0  0  0  0  0  0  0  0  0  0  0  0
  141.8570   78.4250  220.1320 C   0  0  0  0  0  0  0  0  0  0  0  0
  142.5750   77.4410  219.7340 O   0  0  0  0  0  0  0  0  0  0  0  0
  141.3160   78.3010  221.4260 N   0  0  0  0  0  0  0  0  0  0  0  0
  141.7190   79.3380  222.3620 C   0  0  0  0  0  0  0  0  0  0  0  0
  140.7620   80.1860  222.8890 C   0  0  0  0  0  0  0  0  0  0  0  0
  141.0620   81.1940  223.7810 C   0  0  0  0  0  0  0  0  0  0  0  0
  142.3840   81.3470  224.1530 C   0  0  0  0  0  0  0  0  0  0  0  0
  143.3370   80.5070  223.6310 C   0  0  0  0  0  0  0  0  0  0  0  0
  143.0340   79.4900  222.7310 C   0  0  0  0  0  0  0  0  0  0  0  0
  140.4440   77.2910  221.9200 C   0  0  0  0  0  0  0  0  0  0  0  0
  138.9930   77.4480  221.5720 C   0  0  0  0  0  0  0  0  0  0  0  0
  138.2560   76.3450  222.3570 C   0  0  0  0  0  0  0  0  0  0  0  0
  138.6700   75.1020  221.6920 N   0  0  0  0  0  0  0  0  0  0  0  0
  137.8990   73.9590  221.9500 C   0  0  0  0  0  0  0  0  0  0  0  0
  136.9170   74.0670  222.7240 O   0  0  0  0  0  0  0  0  0  0  0  0
  138.1580   72.6150  221.3730 C   0  0  2  0  0  0  0  0  0  0  0  0
  137.1050   72.3030  220.3660 C   0  0  0  0  0  0  0  0  0  0  0  0
  138.1700   71.6960  222.4880 N   0  0  0  0  0  0  0  0  0  0  0  0
  139.2540   70.7360  222.4350 C   0  0  0  0  0  0  0  0  0  0  0  0
  139.7340   70.6290  223.8610 C   0  0  0  0  0  0  0  0  0  0  0  0
  140.3660   71.7040  224.4570 C   0  0  0  0  0  0  0  0  0  0  0  0
  140.8110   71.6110  225.7730 C   0  0  0  0  0  0  0  0  0  0  0  0
  140.6120   70.4400  226.4650 C   0  0  0  0  0  0  0  0  0  0  0  0
  141.0670   70.3720  227.7790 C   0  0  0  0  0  0  0  0  0  0  0  0
  140.8770   69.1930  228.5030 C   0  0  0  0  0  0  0  0  0  0  0  0
  140.2440   68.1310  227.8890 C   0  0  0  0  0  0  0  0  0  0  0  0
  139.7930   68.2060  226.5770 C   0  0  0  0  0  0  0  0  0  0  0  0
  139.9780   69.3730  225.8540 C   0  0  0  0  0  0  0  0  0  0  0  0
  139.5290   69.4480  224.5460 C   0  0  0  0  0  0  0  0  0  0  0  0
  139.8330   75.1340  220.8230 C   0  0  0  0  0  0  0  0  0  0  0  0
  140.9460   75.9310  221.4720 C   0  0  0  0  0  0  0  0  0  0  0  0
  143.5479   78.8152  218.3154 H   0  0  0  0  0  0  0  0  0  0  0  0
  142.0734   78.4262  217.3661 H   0  0  0  0  0  0  0  0  0  0  0  0
  142.7261   80.0997  217.3661 H   0  0  0  0  0  0  0  0  0  0  0  0
  142.0346   80.4768  219.6564 H   0  0  0  0  0  0  0  0  0  0  0  0
  140.6437   79.6734  218.9087 H   0  0  0  0  0  0  0  0  0  0  0  0
  139.7142   80.0503  222.5828 H   0  0  0  0  0  0  0  0  0  0  0  0
  140.2773   81.8524  224.1819 H   0  0  0  0  0  0  0  0  0  0  0  0
  142.6713   82.1367  224.8628 H   0  0  0  0  0  0  0  0  0  0  0  0
  144.3845   80.6441  223.9375 H   0  0  0  0  0  0  0  0  0  0  0  0
  143.8185   78.8317  222.3295 H   0  0  0  0  0  0  0  0  0  0  0  0
  140.4733   77.3935  223.0148 H   0  0  0  0  0  0  0  0  0  0  0  0
  138.6310   78.4417  221.8746 H   0  0  0  0  0  0  0  0  0  0  0  0
  138.8226   77.3594  220.4889 H   0  0  0  0  0  0  0  0  0  0  0  0
  138.5628   76.3447  223.4133 H   0  0  0  0  0  0  0  0  0  0  0  0
  137.1646   76.4823  222.3586 H   0  0  0  0  0  0  0  0  0  0  0  0
  139.1182   72.5496  220.8402 H   0  0  0  0  0  0  0  0  0  0  0  0
  136.1739   72.0271  220.8826 H   0  0  0  0  0  0  0  0  0  0  0  0
  136.9267   73.1869  219.7360 H   0  0  0  0  0  0  0  0  0  0  0  0
  137.4370   71.4646  219.7360 H   0  0  0  0  0  0  0  0  0  0  0  0
  138.1410   72.2190  223.3650 H   0  0  0  0  0  0  0  0  0  0  0  0
  138.8935   69.7622  222.0720 H   0  0  0  0  0  0  0  0  0  0  0  0
  140.0540   71.0461  221.7466 H   0  0  0  0  0  0  0  0  0  0  0  0
  140.5177   72.6347  223.8906 H   0  0  0  0  0  0  0  0  0  0  0  0
  141.3150   72.4631  226.2525 H   0  0  0  0  0  0  0  0  0  0  0  0
  141.5692   71.2350  228.2406 H   0  0  0  0  0  0  0  0  0  0  0  0
  141.2253   69.1121  229.5433 H   0  0  0  0  0  0  0  0  0  0  0  0
  140.0925   67.1995  228.4541 H   0  0  0  0  0  0  0  0  0  0  0  0
  139.2915   67.3430  226.1147 H   0  0  0  0  0  0  0  0  0  0  0  0
  139.0255   68.5945  224.0685 H   0  0  0  0  0  0  0  0  0  0  0  0
  140.1798   74.1060  220.6413 H   0  0  0  0  0  0  0  0  0  0  0  0
  139.5576   75.6100  219.8703 H   0  0  0  0  0  0  0  0  0  0  0  0
  141.3221   75.3794  222.3463 H   0  0  0  0  0  0  0  0  0  0  0  0
  141.7506   76.0769  220.7363 H   0  0  0  0  0  0  0  0  0  0  0  0
  1  2  1  0
  2  3  1  0
  3  4  2  0
  3  5  1  0
  5  6  1  0
  6  7  2  0
  7  8  1  0
  8  9  2  0
  9 10  1  0
 10 11  2  0
  5 12  1  0
 12 13  1  0
 13 14  1  0
 14 15  1  0
 15 16  1  0
 16 17  2  0
 16 18  1  0
 18 19  1  0
 18 20  1  0
 20 21  1  0
 21 22  1  0
 22 23  2  0
 23 24  1  0
 24 25  2  0
 25 26  1  0
 26 27  2  0
 27 28  1  0
 28 29  2  0
 29 30  1  0
 30 31  2  0
 15 32  1  0
 32 33  1  0
 11  6  1  0
 33 12  1  0
 31 22  1  0
 30 25  1  0
  1 34  1  0
  1 35  1  0
  1 36  1  0
  2 37  1  0
  2 38  1  0
  7 39  1  0
  8 40  1  0
  9 41  1  0
 10 42  1  0
 11 43  1  0
 12 44  1  0
 13 45  1  0
 13 46  1  0
 14 47  1  0
 14 48  1  0
 18 49  1  6
 19 50  1  0
 19 51  1  0
 19 52  1  0
 20 53  1  0
 21 54  1  0
 21 55  1  0
 23 56  1  0
 24 57  1  0
 26 58  1  0
 27 59  1  0
 28 60  1  0
 29 61  1  0
 31 62  1  0
 32 63  1  0
 32 64  1  0
 33 65  1  0
 33 66  1  0
M  END
>  <smiles>  (38) 
CCC(=O)N(c1ccccc1)C1CCN(C(=O)[C@H](C)NCc2ccc3ccccc3c2)CC1

>  <score_type>  (38) 
oracle

>  <origin>  (38) 
autodockgpu

>  <m_score__min__energy>  (38) 
-9.3699999999999992

>  <m_primary>  (38) 
energy

>  <rmsd>  (38) 
8.3632270114375

>  <m_score__min__rmsd>  (38) 
8.3632270114375

>  <meeko>  (38) 
{"free_energy": -9.19, "intermolecular_energy": -11.58, "internal_energy": -2.14, "cluster_size": 36, "cluster_id": 1, "rank_in_cluster": 10}

>  <energy>  (38) 
-9.1

>  <cluster_rmsd>  (38) 
1.22

>  <cluster>  (38) 
2

$$$$

     RDKit          3D

 66 69  0  0  0  0  0  0  0  0999 V2000
  143.0140   76.7810  219.3410 C   0  0  0  0  0  0  0  0  0  0  0  0
  141.7870   77.6550  219.0080 C   0  0  0  0  0  0  0  0  0  0  0  0
  141.7050   78.6570  220.0710 C   0  0  0  0  0  0  0  0  0  0  0  0
  142.1720   79.8180  219.8000 O   0  0  0  0  0  0  0  0  0  0  0  0
  141.1720   78.5000  221.3650 N   0  0  0  0  0  0  0  0  0  0  0  0
  141.6160   79.4870  222.3360 C   0  0  0  0  0  0  0  0  0  0  0  0
  142.9550   79.5490  222.6770 C   0  0  0  0  0  0  0  0  0  0  0  0
  143.4560   80.4540  223.5890 C   0  0  0  0  0  0  0  0  0  0  0  0
  142.5640   81.3300  224.1770 C   0  0  0  0  0  0  0  0  0  0  0  0
  141.2340   81.2720  223.8420 C   0  0  0  0  0  0  0  0  0  0  0  0
  140.7290   80.3580  222.9210 C   0  0  0  0  0  0  0  0  0  0  0  0
  140.2730   77.5000  221.8290 C   0  0  0  0  0  0  0  0  0  0  0  0
  138.9050   77.5090  221.2130 C   0  0  0  0  0  0  0  0  0  0  0  0
  138.0890   76.4620  221.9970 C   0  0  0  0  0  0  0  0  0  0  0  0
  138.6770   75.1790  221.5890 N   0  0  0  0  0  0  0  0  0  0  0  0
  137.9270   74.0250  221.8590 C   0  0  0  0  0  0  0  0  0  0  0  0
  136.8150   74.1580  222.4260 O   0  0  0  0  0  0  0  0  0  0  0  0
  138.3510   72.6420  221.5220 C   0  0  2  0  0  0  0  0  0  0  0  0
  137.3090   72.0020  220.6700 C   0  0  0  0  0  0  0  0  0  0  0  0
  138.5490   71.9650  222.7840 N   0  0  0  0  0  0  0  0  0  0  0  0
  139.9410   71.8420  223.1630 C   0  0  0  0  0  0  0  0  0  0  0  0
  139.9470   70.7890  224.2440 C   0  0  0  0  0  0  0  0  0  0  0  0
  139.3910   69.5490  223.9980 C   0  0  0  0  0  0  0  0  0  0  0  0
  139.3950   68.5730  224.9930 C   0  0  0  0  0  0  0  0  0  0  0  0
  139.9560   68.8640  226.2130 C   0  0  0  0  0  0  0  0  0  0  0  0
  139.9460   67.8720  227.1900 C   0  0  0  0  0  0  0  0  0  0  0  0
  140.5110   68.1430  228.4380 C   0  0  0  0  0  0  0  0  0  0  0  0
  141.0600   69.3890  228.6620 C   0  0  0  0  0  0  0  0  0  0  0  0
  141.0670   70.3740  227.6830 C   0  0  0  0  0  0  0  0  0  0  0  0
  140.5090   70.1110  226.4430 C   0  0  0  0  0  0  0  0  0  0  0  0
  140.5140   71.0930  225.4660 C   0  0  0  0  0  0  0  0  0  0  0  0
  139.9780   75.1860  220.9420 C   0  0  0  0  0  0  0  0  0  0  0  0
  140.9130   76.1340  221.6640 C   0  0  0  0  0  0  0  0  0  0  0  0
  143.1233   76.7032  220.4328 H   0  0  0  0  0  0  0  0  0  0  0  0
  142.8757   75.7768  218.9138 H   0  0  0  0  0  0  0  0  0  0  0  0
  143.9179   77.2399  218.9138 H   0  0  0  0  0  0  0  0  0  0  0  0
  141.9196   78.1437  218.0315 H   0  0  0  0  0  0  0  0  0  0  0  0
  140.8679   77.0535  218.9496 H   0  0  0  0  0  0  0  0  0  0  0  0
  143.6518   78.8446  222.1991 H   0  0  0  0  0  0  0  0  0  0  0  0
  144.5269   80.4776  223.8392 H   0  0  0  0  0  0  0  0  0  0  0  0
  142.9177   82.0701  224.9098 H   0  0  0  0  0  0  0  0  0  0  0  0
  140.5384   81.9768  224.3210 H   0  0  0  0  0  0  0  0  0  0  0  0
  139.6581   80.3341  222.6707 H   0  0  0  0  0  0  0  0  0  0  0  0
  140.0952   77.7394  222.8878 H   0  0  0  0  0  0  0  0  0  0  0  0
  138.4468   78.5042  221.3105 H   0  0  0  0  0  0  0  0  0  0  0  0
  138.9413   77.2749  220.1388 H   0  0  0  0  0  0  0  0  0  0  0  0
  138.1956   76.6143  223.0812 H   0  0  0  0  0  0  0  0  0  0  0  0
  137.0107   76.5205  221.7876 H   0  0  0  0  0  0  0  0  0  0  0  0
  139.2841   72.6052  220.9406 H   0  0  0  0  0  0  0  0  0  0  0  0
  136.5475   71.5343  221.3113 H   0  0  0  0  0  0  0  0  0  0  0  0
  136.8352   72.7650  220.0349 H   0  0  0  0  0  0  0  0  0  0  0  0
  137.7753   71.2344  220.0349 H   0  0  0  0  0  0  0  0  0  0  0  0
  137.9750   72.4080  223.5050 H   0  0  0  0  0  0  0  0  0  0  0  0
  140.5506   71.5220  222.3051 H   0  0  0  0  0  0  0  0  0  0  0  0
  140.3667   72.7963  223.5065 H   0  0  0  0  0  0  0  0  0  0  0  0
  138.9448   69.3315  223.0164 H   0  0  0  0  0  0  0  0  0  0  0  0
  138.9548   67.5828  224.8040 H   0  0  0  0  0  0  0  0  0  0  0  0
  139.4993   66.8886  226.9817 H   0  0  0  0  0  0  0  0  0  0  0  0
  140.5183   67.3774  229.2278 H   0  0  0  0  0  0  0  0  0  0  0  0
  141.5047   69.6083  229.6439 H   0  0  0  0  0  0  0  0  0  0  0  0
  141.5133   71.3576  227.8913 H   0  0  0  0  0  0  0  0  0  0  0  0
  140.9551   72.0824  225.6572 H   0  0  0  0  0  0  0  0  0  0  0  0
  140.4008   74.1708  220.9641 H   0  0  0  0  0  0  0  0  0  0  0  0
  139.8605   75.5198  219.9005 H   0  0  0  0  0  0  0  0  0  0  0  0
  141.1471   75.7230  222.6571 H   0  0  0  0  0  0  0  0  0  0  0  0
  141.8317   76.2444  221.0692 H   0  0  0  0  0  0  0  0  0  0  0  0
  1  2  1  0
  2  3  1  0
  3  4  2  0
  3  5  1  0
  5  6  1  0
  6  7  2  0
  7  8  1  0
  8  9  2  0
  9 10  1  0
 10 11  2  0
  5 12  1  0
 12 13  1  0
 13 14  1  0
 14 15  1  0
 15 16  1  0
 16 17  2  0
 16 18  1  0
 18 19  1  0
 18 20  1  0
 20 21  1  0
 21 22  1  0
 22 23  2  0
 23 24  1  0
 24 25  2  0
 25 26  1  0
 26 27  2  0
 27 28  1  0
 28 29  2  0
 29 30  1  0
 30 31  2  0
 15 32  1  0
 32 33  1  0
 11  6  1  0
 33 12  1  0
 31 22  1  0
 30 25  1  0
  1 34  1  0
  1 35  1  0
  1 36  1  0
  2 37  1  0
  2 38  1  0
  7 39  1  0
  8 40  1  0
  9 41  1  0
 10 42  1  0
 11 43  1  0
 12 44  1  0
 13 45  1  0
 13 46  1  0
 14 47  1  0
 14 48  1  0
 18 49  1  6
 19 50  1  0
 19 51  1  0
 19 52  1  0
 20 53  1  0
 21 54  1  0
 21 55  1  0
 23 56  1  0
 24 57  1  0
 26 58  1  0
 27 59  1  0
 28 60  1  0
 29 61  1  0
 31 62  1  0
 32 63  1  0
 32 64  1  0
 33 65  1  0
 33 66  1  0
M  END
>  <smiles>  (39) 
CCC(=O)N(c1ccccc1)C1CCN(C(=O)[C@H](C)NCc2ccc3ccccc3c2)CC1

>  <score_type>  (39) 
oracle

>  <origin>  (39) 
autodockgpu

>  <m_score__min__energy>  (39) 
-9.3699999999999992

>  <m_primary>  (39) 
energy

>  <rmsd>  (39) 
9.245393326812707

>  <m_score__min__rmsd>  (39) 
9.245393326812707

>  <meeko>  (39) 
{"free_energy": -9.28, "intermolecular_energy": -11.67, "internal_energy": -2.04, "cluster_size": 36, "cluster_id": 1, "rank_in_cluster": 5}

>  <energy>  (39) 
-9.02

>  <cluster_rmsd>  (39) 
1.48

>  <cluster>  (39) 
2

$$$$

     RDKit          3D

 66 69  0  0  0  0  0  0  0  0999 V2000
  142.8260   77.2870  218.2120 C   0  0  0  0  0  0  0  0  0  0  0  0
  142.5950   77.0290  219.7150 C   0  0  0  0  0  0  0  0  0  0  0  0
  141.7370   78.1170  220.1840 C   0  0  0  0  0  0  0  0  0  0  0  0
  141.5560   79.0930  219.3740 O   0  0  0  0  0  0  0  0  0  0  0  0
  141.0800   78.2250  221.4260 N   0  0  0  0  0  0  0  0  0  0  0  0
  141.4370   79.3960  222.2090 C   0  0  0  0  0  0  0  0  0  0  0  0
  142.5220   79.3370  223.0640 C   0  0  0  0  0  0  0  0  0  0  0  0
  142.9250   80.4020  223.8420 C   0  0  0  0  0  0  0  0  0  0  0  0
  142.1980   81.5730  223.7480 C   0  0  0  0  0  0  0  0  0  0  0  0
  141.1190   81.6360  222.9010 C   0  0  0  0  0  0  0  0  0  0  0  0
  140.7130   80.5600  222.1170 C   0  0  0  0  0  0  0  0  0  0  0  0
  140.1330   77.3310  221.9980 C   0  0  0  0  0  0  0  0  0  0  0  0
  138.6930   77.6080  221.6820 C   0  0  0  0  0  0  0  0  0  0  0  0
  137.8810   76.6240  222.5470 C   0  0  0  0  0  0  0  0  0  0  0  0
  138.1540   75.3140  221.9400 N   0  0  0  0  0  0  0  0  0  0  0  0
  137.2870   74.2650  222.2820 C   0  0  0  0  0  0  0  0  0  0  0  0
  136.3460   74.5070  223.0760 O   0  0  0  0  0  0  0  0  0  0  0  0
  137.3990   72.8740  221.7730 C   0  0  2  0  0  0  0  0  0  0  0  0
  136.0840   72.4490  221.2160 C   0  0  0  0  0  0  0  0  0  0  0  0
  137.8300   72.0710  222.8940 N   0  0  0  0  0  0  0  0  0  0  0  0
  139.2560   71.8200  222.9120 C   0  0  0  0  0  0  0  0  0  0  0  0
  139.4520   70.8290  224.0330 C   0  0  0  0  0  0  0  0  0  0  0  0
  138.9310   69.5540  223.9220 C   0  0  0  0  0  0  0  0  0  0  0  0
  139.1090   68.6350  224.9530 C   0  0  0  0  0  0  0  0  0  0  0  0
  139.8070   69.0160  226.0750 C   0  0  0  0  0  0  0  0  0  0  0  0
  139.9710   68.0790  227.0920 C   0  0  0  0  0  0  0  0  0  0  0  0
  140.6760   68.4400  228.2410 C   0  0  0  0  0  0  0  0  0  0  0  0
  141.1890   69.7190  228.3310 C   0  0  0  0  0  0  0  0  0  0  0  0
  141.0220   70.6480  227.3120 C   0  0  0  0  0  0  0  0  0  0  0  0
  140.3230   70.2950  226.1700 C   0  0  0  0  0  0  0  0  0  0  0  0
  140.1560   71.2220  225.1540 C   0  0  0  0  0  0  0  0  0  0  0  0
  139.2860   75.1880  221.0390 C   0  0  0  0  0  0  0  0  0  0  0  0
  140.4900   75.9070  221.6130 C   0  0  0  0  0  0  0  0  0  0  0  0
  143.5550   78.1013  218.0876 H   0  0  0  0  0  0  0  0  0  0  0  0
  143.2130   76.3728  217.7383 H   0  0  0  0  0  0  0  0  0  0  0  0
  141.8747   77.5710  217.7383 H   0  0  0  0  0  0  0  0  0  0  0  0
  142.0982   76.0590  219.8643 H   0  0  0  0  0  0  0  0  0  0  0  0
  143.5448   76.9977  220.2689 H   0  0  0  0  0  0  0  0  0  0  0  0
  143.0900   78.3971  223.1266 H   0  0  0  0  0  0  0  0  0  0  0  0
  143.7933   80.3220  224.5126 H   0  0  0  0  0  0  0  0  0  0  0  0
  142.4819   82.4500  224.3483 H   0  0  0  0  0  0  0  0  0  0  0  0
  140.5517   82.5764  222.8395 H   0  0  0  0  0  0  0  0  0  0  0  0
  139.8436   80.6388  221.4477 H   0  0  0  0  0  0  0  0  0  0  0  0
  140.2069   77.4878  223.0843 H   0  0  0  0  0  0  0  0  0  0  0  0
  138.4366   78.6464  221.9387 H   0  0  0  0  0  0  0  0  0  0  0  0
  138.4797   77.4791  220.6106 H   0  0  0  0  0  0  0  0  0  0  0  0
  138.2208   76.6495  223.5929 H   0  0  0  0  0  0  0  0  0  0  0  0
  136.8081   76.8655  222.5717 H   0  0  0  0  0  0  0  0  0  0  0  0
  138.1250   72.7690  220.9533 H   0  0  0  0  0  0  0  0  0  0  0  0
  135.3915   72.2252  222.0408 H   0  0  0  0  0  0  0  0  0  0  0  0
  135.6686   73.2586  220.5980 H   0  0  0  0  0  0  0  0  0  0  0  0
  136.2211   71.5494  220.5980 H   0  0  0  0  0  0  0  0  0  0  0  0
  137.4840   72.4800  223.7630 H   0  0  0  0  0  0  0  0  0  0  0  0
  139.5877   71.3935  221.9538 H   0  0  0  0  0  0  0  0  0  0  0  0
  139.8404   72.7400  223.0605 H   0  0  0  0  0  0  0  0  0  0  0  0
  138.3750   69.2646  223.0181 H   0  0  0  0  0  0  0  0  0  0  0  0
  138.6970   67.6184  224.8711 H   0  0  0  0  0  0  0  0  0  0  0  0
  139.5504   67.0676  226.9910 H   0  0  0  0  0  0  0  0  0  0  0  0
  140.8203   67.7194  229.0595 H   0  0  0  0  0  0  0  0  0  0  0  0
  141.7451   70.0100  229.2344 H   0  0  0  0  0  0  0  0  0  0  0  0
  141.4430   71.6593  227.4117 H   0  0  0  0  0  0  0  0  0  0  0  0
  140.5705   72.2375  225.2376 H   0  0  0  0  0  0  0  0  0  0  0  0
  139.5277   74.1233  220.9049 H   0  0  0  0  0  0  0  0  0  0  0  0
  139.0264   75.6375  220.0692 H   0  0  0  0  0  0  0  0  0  0  0  0
  140.8398   75.3686  222.5062 H   0  0  0  0  0  0  0  0  0  0  0  0
  141.2813   75.9355  220.8495 H   0  0  0  0  0  0  0  0  0  0  0  0
  1  2  1  0
  2  3  1  0
  3  4  2  0
  3  5  1  0
  5  6  1  0
  6  7  2  0
  7  8  1  0
  8  9  2  0
  9 10  1  0
 10 11  2  0
  5 12  1  0
 12 13  1  0
 13 14  1  0
 14 15  1  0
 15 16  1  0
 16 17  2  0
 16 18  1  0
 18 19  1  0
 18 20  1  0
 20 21  1  0
 21 22  1  0
 22 23  2  0
 23 24  1  0
 24 25  2  0
 25 26  1  0
 26 27  2  0
 27 28  1  0
 28 29  2  0
 29 30  1  0
 30 31  2  0
 15 32  1  0
 32 33  1  0
 11  6  1  0
 33 12  1  0
 31 22  1  0
 30 25  1  0
  1 34  1  0
  1 35  1  0
  1 36  1  0
  2 37  1  0
  2 38  1  0
  7 39  1  0
  8 40  1  0
  9 41  1  0
 10 42  1  0
 11 43  1  0
 12 44  1  0
 13 45  1  0
 13 46  1  0
 14 47  1  0
 14 48  1  0
 18 49  1  6
 19 50  1  0
 19 51  1  0
 19 52  1  0
 20 53  1  0
 21 54  1  0
 21 55  1  0
 23 56  1  0
 24 57  1  0
 26 58  1  0
 27 59  1  0
 28 60  1  0
 29 61  1  0
 31 62  1  0
 32 63  1  0
 32 64  1  0
 33 65  1  0
 33 66  1  0
M  END
>  <smiles>  (40) 
CCC(=O)N(c1ccccc1)C1CCN(C(=O)[C@H](C)NCc2ccc3ccccc3c2)CC1

>  <score_type>  (40) 
oracle

>  <origin>  (40) 
autodockgpu

>  <m_score__min__energy>  (40) 
-9.3699999999999992

>  <m_primary>  (40) 
energy

>  <rmsd>  (40) 
9.28707289953672

>  <m_score__min__rmsd>  (40) 
9.28707289953672

>  <meeko>  (40) 
{"free_energy": -9.29, "intermolecular_energy": -11.67, "internal_energy": -1.93, "cluster_size": 36, "cluster_id": 1, "rank_in_cluster": 4}

>  <energy>  (40) 
-9.01

>  <cluster_rmsd>  (40) 
1.64

>  <cluster>  (40) 
2

$$$$

     RDKit          3D

 66 69  0  0  0  0  0  0  0  0999 V2000
  143.2820   75.2030  219.3860 C   0  0  0  0  0  0  0  0  0  0  0  0
  143.3300   76.7160  219.6830 C   0  0  0  0  0  0  0  0  0  0  0  0
  141.9440   77.1280  219.9070 C   0  0  0  0  0  0  0  0  0  0  0  0
  141.2600   77.4270  218.8660 O   0  0  0  0  0  0  0  0  0  0  0  0
  141.2630   77.2360  221.1350 N   0  0  0  0  0  0  0  0  0  0  0  0
  141.5540   78.4400  221.8950 C   0  0  0  0  0  0  0  0  0  0  0  0
  141.8230   79.6180  221.2230 C   0  0  0  0  0  0  0  0  0  0  0  0
  142.1090   80.8020  221.8690 C   0  0  0  0  0  0  0  0  0  0  0  0
  142.1220   80.7910  223.2500 C   0  0  0  0  0  0  0  0  0  0  0  0
  141.8560   79.6230  223.9210 C   0  0  0  0  0  0  0  0  0  0  0  0
  141.5680   78.4280  223.2690 C   0  0  0  0  0  0  0  0  0  0  0  0
  140.3480   76.3130  221.7150 C   0  0  0  0  0  0  0  0  0  0  0  0
  138.8960   76.6800  221.6180 C   0  0  0  0  0  0  0  0  0  0  0  0
  138.1450   75.6280  222.4590 C   0  0  0  0  0  0  0  0  0  0  0  0
  138.2750   74.3920  221.6750 N   0  0  0  0  0  0  0  0  0  0  0  0
  137.4030   73.3420  221.9990 C   0  0  0  0  0  0  0  0  0  0  0  0
  136.5780   73.5210  222.9280 O   0  0  0  0  0  0  0  0  0  0  0  0
  137.3800   72.0210  221.3220 C   0  0  2  0  0  0  0  0  0  0  0  0
  136.1530   71.9210  220.4820 C   0  0  0  0  0  0  0  0  0  0  0  0
  137.4320   71.0310  222.3740 N   0  0  0  0  0  0  0  0  0  0  0  0
  138.6330   70.2220  222.3490 C   0  0  0  0  0  0  0  0  0  0  0  0
  139.0510   70.1220  223.7950 C   0  0  0  0  0  0  0  0  0  0  0  0
  138.6140   69.0620  224.5660 C   0  0  0  0  0  0  0  0  0  0  0  0
  138.9970   68.9640  225.9010 C   0  0  0  0  0  0  0  0  0  0  0  0
  139.8120   69.9340  226.4350 C   0  0  0  0  0  0  0  0  0  0  0  0
  140.1810   69.8130  227.7730 C   0  0  0  0  0  0  0  0  0  0  0  0
  141.0080   70.7850  228.3390 C   0  0  0  0  0  0  0  0  0  0  0  0
  141.4330   71.8360  227.5520 C   0  0  0  0  0  0  0  0  0  0  0  0
  141.0620   71.9500  226.2180 C   0  0  0  0  0  0  0  0  0  0  0  0
  140.2420   70.9880  225.6510 C   0  0  0  0  0  0  0  0  0  0  0  0
  139.8700   71.1010  224.3210 C   0  0  0  0  0  0  0  0  0  0  0  0
  139.2810   74.3360  220.6290 C   0  0  0  0  0  0  0  0  0  0  0  0
  140.5810   74.9350  221.1250 C   0  0  0  0  0  0  0  0  0  0  0  0
  143.2643   74.6438  220.3331 H   0  0  0  0  0  0  0  0  0  0  0  0
  142.3761   74.9716  218.8066 H   0  0  0  0  0  0  0  0  0  0  0  0
  144.1714   74.9147  218.8066 H   0  0  0  0  0  0  0  0  0  0  0  0
  143.9361   76.9102  220.5802 H   0  0  0  0  0  0  0  0  0  0  0  0
  143.7870   77.2749  218.8530 H   0  0  0  0  0  0  0  0  0  0  0  0
  141.8082   79.6102  220.1231 H   0  0  0  0  0  0  0  0  0  0  0  0
  142.3193   81.7225  221.3047 H   0  0  0  0  0  0  0  0  0  0  0  0
  142.3440   81.7121  223.8088 H   0  0  0  0  0  0  0  0  0  0  0  0
  141.8712   79.6324  225.0209 H   0  0  0  0  0  0  0  0  0  0  0  0
  141.3591   77.5070  223.8330 H   0  0  0  0  0  0  0  0  0  0  0  0
  140.5622   76.3322  222.7938 H   0  0  0  0  0  0  0  0  0  0  0  0
  138.7269   77.6882  222.0241 H   0  0  0  0  0  0  0  0  0  0  0  0
  138.5479   76.6909  220.5746 H   0  0  0  0  0  0  0  0  0  0  0  0
  138.6097   75.5141  223.4495 H   0  0  0  0  0  0  0  0  0  0  0  0
  137.0967   75.9037  222.6465 H   0  0  0  0  0  0  0  0  0  0  0  0
  138.2293   71.8693  220.6396 H   0  0  0  0  0  0  0  0  0  0  0  0
  135.2685   71.8489  221.1320 H   0  0  0  0  0  0  0  0  0  0  0  0
  136.0695   72.8153  219.8470 H   0  0  0  0  0  0  0  0  0  0  0  0
  136.2154   71.0250  219.8470 H   0  0  0  0  0  0  0  0  0  0  0  0
  137.2700   71.4800  223.2770 H   0  0  0  0  0  0  0  0  0  0  0  0
  138.4216   69.2248  221.9355 H   0  0  0  0  0  0  0  0  0  0  0  0
  139.4189   70.6593  221.7156 H   0  0  0  0  0  0  0  0  0  0  0  0
  137.9622   68.2939  224.1242 H   0  0  0  0  0  0  0  0  0  0  0  0
  138.6524   68.1224  226.5198 H   0  0  0  0  0  0  0  0  0  0  0  0
  139.8258   68.9636  228.3749 H   0  0  0  0  0  0  0  0  0  0  0  0
  141.3152   70.7144  229.3929 H   0  0  0  0  0  0  0  0  0  0  0  0
  142.0839   72.6051  227.9934 H   0  0  0  0  0  0  0  0  0  0  0  0
  141.4172   72.7990  225.6156 H   0  0  0  0  0  0  0  0  0  0  0  0
  140.2161   71.9435  223.7042 H   0  0  0  0  0  0  0  0  0  0  0  0
  139.4496   73.2876  220.3420 H   0  0  0  0  0  0  0  0  0  0  0  0
  138.9287   74.9099  219.7593 H   0  0  0  0  0  0  0  0  0  0  0  0
  141.0086   74.2793  221.8978 H   0  0  0  0  0  0  0  0  0  0  0  0
  141.2737   75.0274  220.2755 H   0  0  0  0  0  0  0  0  0  0  0  0
  1  2  1  0
  2  3  1  0
  3  4  2  0
  3  5  1  0
  5  6  1  0
  6  7  2  0
  7  8  1  0
  8  9  2  0
  9 10  1  0
 10 11  2  0
  5 12  1  0
 12 13  1  0
 13 14  1  0
 14 15  1  0
 15 16  1  0
 16 17  2  0
 16 18  1  0
 18 19  1  0
 18 20  1  0
 20 21  1  0
 21 22  1  0
 22 23  2  0
 23 24  1  0
 24 25  2  0
 25 26  1  0
 26 27  2  0
 27 28  1  0
 28 29  2  0
 29 30  1  0
 30 31  2  0
 15 32  1  0
 32 33  1  0
 11  6  1  0
 33 12  1  0
 31 22  1  0
 30 25  1  0
  1 34  1  0
  1 35  1  0
  1 36  1  0
  2 37  1  0
  2 38  1  0
  7 39  1  0
  8 40  1  0
  9 41  1  0
 10 42  1  0
 11 43  1  0
 12 44  1  0
 13 45  1  0
 13 46  1  0
 14 47  1  0
 14 48  1  0
 18 49  1  6
 19 50  1  0
 19 51  1  0
 19 52  1  0
 20 53  1  0
 21 54  1  0
 21 55  1  0
 23 56  1  0
 24 57  1  0
 26 58  1  0
 27 59  1  0
 28 60  1  0
 29 61  1  0
 31 62  1  0
 32 63  1  0
 32 64  1  0
 33 65  1  0
 33 66  1  0
M  END
>  <smiles>  (41) 
CCC(=O)N(c1ccccc1)C1CCN(C(=O)[C@H](C)NCc2ccc3ccccc3c2)CC1

>  <score_type>  (41) 
oracle

>  <origin>  (41) 
autodockgpu

>  <m_score__min__energy>  (41) 
-9.3699999999999992

>  <m_primary>  (41) 
energy

>  <rmsd>  (41) 
9.291908501712578

>  <m_score__min__rmsd>  (41) 
9.291908501712578

>  <meeko>  (41) 
{"free_energy": -8.39, "intermolecular_energy": -10.77, "internal_energy": -2.5, "cluster_size": 36, "cluster_id": 1, "rank_in_cluster": 35}

>  <energy>  (41) 
-8.92

>  <cluster_rmsd>  (41) 
1.06

>  <cluster>  (41) 
2

$$$$

     RDKit          3D

 66 69  0  0  0  0  0  0  0  0999 V2000
  140.3350   80.0880  219.3440 C   0  0  0  0  0  0  0  0  0  0  0  0
  141.7760   79.5490  219.2460 C   0  0  0  0  0  0  0  0  0  0  0  0
  141.8510   78.4250  220.1800 C   0  0  0  0  0  0  0  0  0  0  0  0
  142.5370   77.4120  219.8020 O   0  0  0  0  0  0  0  0  0  0  0  0
  141.2570   78.3200  221.4530 N   0  0  0  0  0  0  0  0  0  0  0  0
  141.6020   79.3830  222.3810 C   0  0  0  0  0  0  0  0  0  0  0  0
  142.9250   79.5760  222.7320 C   0  0  0  0  0  0  0  0  0  0  0  0
  143.3340   80.5610  223.6060 C   0  0  0  0  0  0  0  0  0  0  0  0
  142.3630   81.3820  224.1450 C   0  0  0  0  0  0  0  0  0  0  0  0
  141.0470   81.1940  223.8000 C   0  0  0  0  0  0  0  0  0  0  0  0
  140.6350   80.1990  222.9180 C   0  0  0  0  0  0  0  0  0  0  0  0
  140.3830   77.3040  221.9310 C   0  0  0  0  0  0  0  0  0  0  0  0
  138.9850   77.3300  221.3860 C   0  0  0  0  0  0  0  0  0  0  0  0
  138.2100   76.2600  222.1790 C   0  0  0  0  0  0  0  0  0  0  0  0
  138.7770   74.9900  221.7040 N   0  0  0  0  0  0  0  0  0  0  0  0
  138.0410   73.8270  221.9770 C   0  0  0  0  0  0  0  0  0  0  0  0
  136.9590   73.9410  222.6040 O   0  0  0  0  0  0  0  0  0  0  0  0
  138.4470   72.4550  221.5790 C   0  0  2  0  0  0  0  0  0  0  0  0
  138.1120   72.2420  220.1430 C   0  0  0  0  0  0  0  0  0  0  0  0
  137.7460   71.5560  222.4670 N   0  0  0  0  0  0  0  0  0  0  0  0
  138.3660   70.2510  222.5780 C   0  0  0  0  0  0  0  0  0  0  0  0
  139.0920   70.2890  223.9000 C   0  0  0  0  0  0  0  0  0  0  0  0
  139.7760   71.4290  224.2770 C   0  0  0  0  0  0  0  0  0  0  0  0
  140.4490   71.4680  225.4960 C   0  0  0  0  0  0  0  0  0  0  0  0
  140.4200   70.3620  226.3110 C   0  0  0  0  0  0  0  0  0  0  0  0
  141.1010   70.4270  227.5240 C   0  0  0  0  0  0  0  0  0  0  0  0
  141.0870   69.3170  228.3710 C   0  0  0  0  0  0  0  0  0  0  0  0
  140.3980   68.1880  227.9750 C   0  0  0  0  0  0  0  0  0  0  0  0
  139.7210   68.1300  226.7630 C   0  0  0  0  0  0  0  0  0  0  0  0
  139.7310   69.2290  225.9190 C   0  0  0  0  0  0  0  0  0  0  0  0
  139.0570   69.1720  224.7100 C   0  0  0  0  0  0  0  0  0  0  0  0
  140.0430   75.0170  220.9930 C   0  0  0  0  0  0  0  0  0  0  0  0
  141.0130   75.9450  221.6940 C   0  0  0  0  0  0  0  0  0  0  0  0
  140.0540   80.1931  220.4023 H   0  0  0  0  0  0  0  0  0  0  0  0
  140.2761   81.0690  218.8498 H   0  0  0  0  0  0  0  0  0  0  0  0
  139.6467   79.3865  218.8498 H   0  0  0  0  0  0  0  0  0  0  0  0
  141.9881   79.2093  218.2215 H   0  0  0  0  0  0  0  0  0  0  0  0
  142.5144   80.3265  219.4914 H   0  0  0  0  0  0  0  0  0  0  0  0
  143.6863   78.9136  222.2941 H   0  0  0  0  0  0  0  0  0  0  0  0
  144.3956   80.6883  223.8646 H   0  0  0  0  0  0  0  0  0  0  0  0
  142.6421   82.1819  224.8466 H   0  0  0  0  0  0  0  0  0  0  0  0
  140.2870   81.8572  224.2389 H   0  0  0  0  0  0  0  0  0  0  0  0
  139.5735   80.0703  222.6600 H   0  0  0  0  0  0  0  0  0  0  0  0
  140.2599   77.5107  223.0044 H   0  0  0  0  0  0  0  0  0  0  0  0
  138.5329   78.3215  221.5362 H   0  0  0  0  0  0  0  0  0  0  0  0
  138.9662   77.1279  220.3049 H   0  0  0  0  0  0  0  0  0  0  0  0
  138.3713   76.3807  223.2604 H   0  0  0  0  0  0  0  0  0  0  0  0
  137.1225   76.3230  222.0264 H   0  0  0  0  0  0  0  0  0  0  0  0
  139.5293   72.2803  221.6685 H   0  0  0  0  0  0  0  0  0  0  0  0
  137.1860   71.6532  220.0659 H   0  0  0  0  0  0  0  0  0  0  0  0
  137.9694   73.2157  219.6514 H   0  0  0  0  0  0  0  0  0  0  0  0
  138.9332   71.6998  219.6514 H   0  0  0  0  0  0  0  0  0  0  0  0
  137.6020   72.0090  223.3710 H   0  0  0  0  0  0  0  0  0  0  0  0
  137.6045   69.4572  222.5753 H   0  0  0  0  0  0  0  0  0  0  0  0
  139.0406   70.0354  221.7363 H   0  0  0  0  0  0  0  0  0  0  0  0
  139.7890   72.3065  223.6138 H   0  0  0  0  0  0  0  0  0  0  0  0
  140.9962   72.3718  225.8020 H   0  0  0  0  0  0  0  0  0  0  0  0
  141.6426   71.3404  227.8110 H   0  0  0  0  0  0  0  0  0  0  0  0
  141.6150   69.3416  229.3357 H   0  0  0  0  0  0  0  0  0  0  0  0
  140.3846   67.3100  228.6375 H   0  0  0  0  0  0  0  0  0  0  0  0
  139.1800   67.2166  226.4750 H   0  0  0  0  0  0  0  0  0  0  0  0
  138.5119   68.2663  224.4056 H   0  0  0  0  0  0  0  0  0  0  0  0
  140.4662   74.0021  220.9646 H   0  0  0  0  0  0  0  0  0  0  0  0
  139.8733   75.3801  219.9686 H   0  0  0  0  0  0  0  0  0  0  0  0
  141.2971   75.5056  222.6616 H   0  0  0  0  0  0  0  0  0  0  0  0
  141.9002   76.0742  221.0567 H   0  0  0  0  0  0  0  0  0  0  0  0
  1  2  1  0
  2  3  1  0
  3  4  2  0
  3  5  1  0
  5  6  1  0
  6  7  2  0
  7  8  1  0
  8  9  2  0
  9 10  1  0
 10 11  2  0
  5 12  1  0
 12 13  1  0
 13 14  1  0
 14 15  1  0
 15 16  1  0
 16 17  2  0
 16 18  1  0
 18 19  1  0
 18 20  1  0
 20 21  1  0
 21 22  1  0
 22 23  2  0
 23 24  1  0
 24 25  2  0
 25 26  1  0
 26 27  2  0
 27 28  1  0
 28 29  2  0
 29 30  1  0
 30 31  2  0
 15 32  1  0
 32 33  1  0
 11  6  1  0
 33 12  1  0
 31 22  1  0
 30 25  1  0
  1 34  1  0
  1 35  1  0
  1 36  1  0
  2 37  1  0
  2 38  1  0
  7 39  1  0
  8 40  1  0
  9 41  1  0
 10 42  1  0
 11 43  1  0
 12 44  1  0
 13 45  1  0
 13 46  1  0
 14 47  1  0
 14 48  1  0
 18 49  1  6
 19 50  1  0
 19 51  1  0
 19 52  1  0
 20 53  1  0
 21 54  1  0
 21 55  1  0
 23 56  1  0
 24 57  1  0
 26 58  1  0
 27 59  1  0
 28 60  1  0
 29 61  1  0
 31 62  1  0
 32 63  1  0
 32 64  1  0
 33 65  1  0
 33 66  1  0
M  END
>  <smiles>  (42) 
CCC(=O)N(c1ccccc1)C1CCN(C(=O)[C@H](C)NCc2ccc3ccccc3c2)CC1

>  <score_type>  (42) 
oracle

>  <origin>  (42) 
autodockgpu

>  <m_score__min__energy>  (42) 
-9.3699999999999992

>  <m_primary>  (42) 
energy

>  <rmsd>  (42) 
8.425040200221412

>  <m_score__min__rmsd>  (42) 
8.425040200221412

>  <meeko>  (42) 
{"free_energy": -8.8, "intermolecular_energy": -11.18, "internal_energy": -2.34, "cluster_size": 36, "cluster_id": 1, "rank_in_cluster": 20}

>  <energy>  (42) 
-8.81

>  <cluster_rmsd>  (42) 
1.14

>  <cluster>  (42) 
2

$$$$

     RDKit          3D

 66 69  0  0  0  0  0  0  0  0999 V2000
  140.2740   78.3670  218.7490 C   0  0  0  0  0  0  0  0  0  0  0  0
  141.8160   78.3330  218.7640 C   0  0  0  0  0  0  0  0  0  0  0  0
  142.1900   77.5190  219.9200 C   0  0  0  0  0  0  0  0  0  0  0  0
  143.2470   76.8040  219.7990 O   0  0  0  0  0  0  0  0  0  0  0  0
  141.5270   77.4230  221.1590 N   0  0  0  0  0  0  0  0  0  0  0  0
  141.7250   78.5530  222.0510 C   0  0  0  0  0  0  0  0  0  0  0  0
  141.9460   79.8090  221.5160 C   0  0  0  0  0  0  0  0  0  0  0  0
  142.1440   80.9310  222.2930 C   0  0  0  0  0  0  0  0  0  0  0  0
  142.1150   80.7730  223.6650 C   0  0  0  0  0  0  0  0  0  0  0  0
  141.8970   79.5270  224.2000 C   0  0  0  0  0  0  0  0  0  0  0  0
  141.6980   78.3950  223.4160 C   0  0  0  0  0  0  0  0  0  0  0  0
  140.7090   76.3610  221.6360 C   0  0  0  0  0  0  0  0  0  0  0  0
  139.2310   76.6170  221.6320 C   0  0  0  0  0  0  0  0  0  0  0  0
  138.5970   75.4060  222.3460 C   0  0  0  0  0  0  0  0  0  0  0  0
  138.7910   74.2990  221.4000 N   0  0  0  0  0  0  0  0  0  0  0  0
  138.0160   73.1470  221.6060 C   0  0  0  0  0  0  0  0  0  0  0  0
  137.2170   73.1340  222.5740 O   0  0  0  0  0  0  0  0  0  0  0  0
  138.0690   71.9290  220.7580 C   0  0  2  0  0  0  0  0  0  0  0  0
  136.8520   71.8760  219.8990 C   0  0  0  0  0  0  0  0  0  0  0  0
  138.1720   70.8120  221.6700 N   0  0  0  0  0  0  0  0  0  0  0  0
  139.5370   70.4180  221.9510 C   0  0  0  0  0  0  0  0  0  0  0  0
  139.5860   70.2690  223.4510 C   0  0  0  0  0  0  0  0  0  0  0  0
  138.9050   69.2340  224.0630 C   0  0  0  0  0  0  0  0  0  0  0  0
  138.9480   69.0930  225.4480 C   0  0  0  0  0  0  0  0  0  0  0  0
  139.6750   69.9930  226.1900 C   0  0  0  0  0  0  0  0  0  0  0  0
  139.7010   69.8300  227.5720 C   0  0  0  0  0  0  0  0  0  0  0  0
  140.4310   70.7320  228.3480 C   0  0  0  0  0  0  0  0  0  0  0  0
  141.1050   71.7580  227.7170 C   0  0  0  0  0  0  0  0  0  0  0  0
  141.0740   71.9160  226.3380 C   0  0  0  0  0  0  0  0  0  0  0  0
  140.3510   71.0240  225.5620 C   0  0  0  0  0  0  0  0  0  0  0  0
  140.3190   71.1800  224.1860 C   0  0  0  0  0  0  0  0  0  0  0  0
  139.7560   74.4620  220.3270 C   0  0  0  0  0  0  0  0  0  0  0  0
  141.0240   75.0950  220.8610 C   0  0  0  0  0  0  0  0  0  0  0  0
  139.8974   78.3753  219.7825 H   0  0  0  0  0  0  0  0  0  0  0  0
  139.9323   79.2729  218.2269 H   0  0  0  0  0  0  0  0  0  0  0  0
  139.8927   77.4770  218.2269 H   0  0  0  0  0  0  0  0  0  0  0  0
  142.1973   77.8791  217.8374 H   0  0  0  0  0  0  0  0  0  0  0  0
  142.2407   79.3456  218.8299 H   0  0  0  0  0  0  0  0  0  0  0  0
  141.9647   79.9179  220.4216 H   0  0  0  0  0  0  0  0  0  0  0  0
  142.3188   81.9165  221.8366 H   0  0  0  0  0  0  0  0  0  0  0  0
  142.2656   81.6399  224.3251 H   0  0  0  0  0  0  0  0  0  0  0  0
  141.8790   79.4195  225.2946 H   0  0  0  0  0  0  0  0  0  0  0  0
  141.5253   77.4091  223.8722 H   0  0  0  0  0  0  0  0  0  0  0  0
  140.9636   76.2571  222.7011 H   0  0  0  0  0  0  0  0  0  0  0  0
  139.0010   77.5459  222.1744 H   0  0  0  0  0  0  0  0  0  0  0  0
  138.8418   76.7358  220.6100 H   0  0  0  0  0  0  0  0  0  0  0  0
  139.1078   75.2013  223.2985 H   0  0  0  0  0  0  0  0  0  0  0  0
  137.5389   75.5681  222.5992 H   0  0  0  0  0  0  0  0  0  0  0  0
  138.9274   71.9158  220.0703 H   0  0  0  0  0  0  0  0  0  0  0  0
  135.9555   71.8370  220.5353 H   0  0  0  0  0  0  0  0  0  0  0  0
  136.8121   72.7733  219.2639 H   0  0  0  0  0  0  0  0  0  0  0  0
  136.8903   70.9787  219.2639 H   0  0  0  0  0  0  0  0  0  0  0  0
  137.6290   71.0050  222.5130 H   0  0  0  0  0  0  0  0  0  0  0  0
  139.7758   69.4643  221.4576 H   0  0  0  0  0  0  0  0  0  0  0  0
  140.2687   71.1505  221.5794 H   0  0  0  0  0  0  0  0  0  0  0  0
  138.3284   68.5208  223.4557 H   0  0  0  0  0  0  0  0  0  0  0  0
  138.4072   68.2721  225.9415 H   0  0  0  0  0  0  0  0  0  0  0  0
  139.1539   69.0019  228.0462 H   0  0  0  0  0  0  0  0  0  0  0  0
  140.4684   70.6270  229.4423 H   0  0  0  0  0  0  0  0  0  0  0  0
  141.6830   72.4706  228.3238 H   0  0  0  0  0  0  0  0  0  0  0  0
  141.6204   72.7447  225.8639 H   0  0  0  0  0  0  0  0  0  0  0  0
  140.8596   72.0025  223.6948 H   0  0  0  0  0  0  0  0  0  0  0  0
  139.9934   73.4773  219.8981 H   0  0  0  0  0  0  0  0  0  0  0  0
  139.3266   75.1135  219.5517 H   0  0  0  0  0  0  0  0  0  0  0  0
  141.5307   74.3811  221.5270 H   0  0  0  0  0  0  0  0  0  0  0  0
  141.6736   75.3538  220.0119 H   0  0  0  0  0  0  0  0  0  0  0  0
  1  2  1  0
  2  3  1  0
  3  4  2  0
  3  5  1  0
  5  6  1  0
  6  7  2  0
  7  8  1  0
  8  9  2  0
  9 10  1  0
 10 11  2  0
  5 12  1  0
 12 13  1  0
 13 14  1  0
 14 15  1  0
 15 16  1  0
 16 17  2  0
 16 18  1  0
 18 19  1  0
 18 20  1  0
 20 21  1  0
 21 22  1  0
 22 23  2  0
 23 24  1  0
 24 25  2  0
 25 26  1  0
 26 27  2  0
 27 28  1  0
 28 29  2  0
 29 30  1  0
 30 31  2  0
 15 32  1  0
 32 33  1  0
 11  6  1  0
 33 12  1  0
 31 22  1  0
 30 25  1  0
  1 34  1  0
  1 35  1  0
  1 36  1  0
  2 37  1  0
  2 38  1  0
  7 39  1  0
  8 40  1  0
  9 41  1  0
 10 42  1  0
 11 43  1  0
 12 44  1  0
 13 45  1  0
 13 46  1  0
 14 47  1  0
 14 48  1  0
 18 49  1  6
 19 50  1  0
 19 51  1  0
 19 52  1  0
 20 53  1  0
 21 54  1  0
 21 55  1  0
 23 56  1  0
 24 57  1  0
 26 58  1  0
 27 59  1  0
 28 60  1  0
 29 61  1  0
 31 62  1  0
 32 63  1  0
 32 64  1  0
 33 65  1  0
 33 66  1  0
M  END
>  <smiles>  (43) 
CCC(=O)N(c1ccccc1)C1CCN(C(=O)[C@H](C)NCc2ccc3ccccc3c2)CC1

>  <score_type>  (43) 
oracle

>  <origin>  (43) 
autodockgpu

>  <m_score__min__energy>  (43) 
-9.3699999999999992

>  <m_primary>  (43) 
energy

>  <rmsd>  (43) 
9.111903965882698

>  <m_score__min__rmsd>  (43) 
9.111903965882698

>  <meeko>  (43) 
{"free_energy": -8.22, "intermolecular_energy": -10.6, "internal_energy": -2.6, "cluster_size": 36, "cluster_id": 1, "rank_in_cluster": 36}

>  <energy>  (43) 
-8.57

>  <cluster_rmsd>  (43) 
1.33

>  <cluster>  (43) 
2

$$$$

     RDKit          3D

 66 69  0  0  0  0  0  0  0  0999 V2000
  142.1590   81.0140  221.9840 C   0  0  0  0  0  0  0  0  0  0  0  0
  142.3220   80.6110  223.4640 C   0  0  0  0  0  0  0  0  0  0  0  0
  141.4280   79.4720  223.6730 C   0  0  0  0  0  0  0  0  0  0  0  0
  141.7580   78.6450  224.5930 O   0  0  0  0  0  0  0  0  0  0  0  0
  140.2380   79.1710  222.9810 N   0  0  0  0  0  0  0  0  0  0  0  0
  139.1290   80.0730  223.2440 C   0  0  0  0  0  0  0  0  0  0  0  0
  138.6230   80.1700  224.5270 C   0  0  0  0  0  0  0  0  0  0  0  0
  137.5730   81.0010  224.8590 C   0  0  0  0  0  0  0  0  0  0  0  0
  137.0160   81.7630  223.8500 C   0  0  0  0  0  0  0  0  0  0  0  0
  137.5150   81.6680  222.5740 C   0  0  0  0  0  0  0  0  0  0  0  0
  138.5750   80.8300  222.2400 C   0  0  0  0  0  0  0  0  0  0  0  0
  139.9960   78.0980  222.0780 C   0  0  0  0  0  0  0  0  0  0  0  0
  141.0940   77.0830  221.9540 C   0  0  0  0  0  0  0  0  0  0  0  0
  140.6650   76.1450  220.8080 C   0  0  0  0  0  0  0  0  0  0  0  0
  139.5270   75.4030  221.3680 N   0  0  0  0  0  0  0  0  0  0  0  0
  139.1420   74.2330  220.6960 C   0  0  0  0  0  0  0  0  0  0  0  0
  139.7850   73.8980  219.6720 O   0  0  0  0  0  0  0  0  0  0  0  0
  138.0210   73.3500  221.1080 C   0  0  2  0  0  0  0  0  0  0  0  0
  136.7710   74.1560  221.2030 C   0  0  0  0  0  0  0  0  0  0  0  0
  138.4170   72.7630  222.3680 N   0  0  0  0  0  0  0  0  0  0  0  0
  139.6470   72.0030  222.2920 C   0  0  0  0  0  0  0  0  0  0  0  0
  139.7210   71.2690  223.6080 C   0  0  0  0  0  0  0  0  0  0  0  0
  139.1850   70.0000  223.7180 C   0  0  0  0  0  0  0  0  0  0  0  0
  139.2510   69.3180  224.9310 C   0  0  0  0  0  0  0  0  0  0  0  0
  139.8540   69.9240  226.0070 C   0  0  0  0  0  0  0  0  0  0  0  0
  139.9060   69.2210  227.2080 C   0  0  0  0  0  0  0  0  0  0  0  0
  140.5130   69.8140  228.3160 C   0  0  0  0  0  0  0  0  0  0  0  0
  141.0430   71.0820  228.1840 C   0  0  0  0  0  0  0  0  0  0  0  0
  140.9870   71.7780  226.9830 C   0  0  0  0  0  0  0  0  0  0  0  0
  140.3860   71.1940  225.8800 C   0  0  0  0  0  0  0  0  0  0  0  0
  140.3300   71.8870  224.6820 C   0  0  0  0  0  0  0  0  0  0  0  0
  138.8810   75.9190  222.5630 C   0  0  0  0  0  0  0  0  0  0  0  0
  138.6910   77.4170  222.4450 C   0  0  0  0  0  0  0  0  0  0  0  0
  141.7471   82.0322  221.9245 H   0  0  0  0  0  0  0  0  0  0  0  0
  143.1394   80.9854  221.4860 H   0  0  0  0  0  0  0  0  0  0  0  0
  141.4742   80.3118  221.4860 H   0  0  0  0  0  0  0  0  0  0  0  0
  143.3634   80.3220  223.6689 H   0  0  0  0  0  0  0  0  0  0  0  0
  142.0762   81.4449  224.1379 H   0  0  0  0  0  0  0  0  0  0  0  0
  139.0782   79.5569  225.3188 H   0  0  0  0  0  0  0  0  0  0  0  0
  137.1930   81.0550  225.8898 H   0  0  0  0  0  0  0  0  0  0  0  0
  136.1780   82.4416  224.0674 H   0  0  0  0  0  0  0  0  0  0  0  0
  137.0577   82.2800  221.7826 H   0  0  0  0  0  0  0  0  0  0  0  0
  138.9555   80.7757  221.2093 H   0  0  0  0  0  0  0  0  0  0  0  0
  139.9438   78.5637  221.0828 H   0  0  0  0  0  0  0  0  0  0  0  0
  142.0467   77.5759  221.7103 H   0  0  0  0  0  0  0  0  0  0  0  0
  141.2474   76.5328  222.8941 H   0  0  0  0  0  0  0  0  0  0  0  0
  140.3588   76.7223  219.9231 H   0  0  0  0  0  0  0  0  0  0  0  0
  141.4784   75.4852  220.4720 H   0  0  0  0  0  0  0  0  0  0  0  0
  137.8121   72.5483  220.3844 H   0  0  0  0  0  0  0  0  0  0  0  0
  136.5190   74.3185  222.2614 H   0  0  0  0  0  0  0  0  0  0  0  0
  136.9224   75.1270  220.7089 H   0  0  0  0  0  0  0  0  0  0  0  0
  135.9490   73.6174  220.7089 H   0  0  0  0  0  0  0  0  0  0  0  0
  138.4350   73.4830  223.0930 H   0  0  0  0  0  0  0  0  0  0  0  0
  139.6139   71.2931  221.4524 H   0  0  0  0  0  0  0  0  0  0  0  0
  140.5244   72.6442  222.1214 H   0  0  0  0  0  0  0  0  0  0  0  0
  138.7060   69.5282  222.8474 H   0  0  0  0  0  0  0  0  0  0  0  0
  138.8261   68.3079  225.0262 H   0  0  0  0  0  0  0  0  0  0  0  0
  139.4745   68.2119  227.2823 H   0  0  0  0  0  0  0  0  0  0  0  0
  140.5681   69.2810  229.2767 H   0  0  0  0  0  0  0  0  0  0  0  0
  141.5229   71.5542  229.0539 H   0  0  0  0  0  0  0  0  0  0  0  0
  141.4176   72.7875  226.9083 H   0  0  0  0  0  0  0  0  0  0  0  0
  140.7567   72.8966  224.5893 H   0  0  0  0  0  0  0  0  0  0  0  0
  137.9001   75.4361  222.6840 H   0  0  0  0  0  0  0  0  0  0  0  0
  139.5139   75.7036  223.4365 H   0  0  0  0  0  0  0  0  0  0  0  0
  137.9436   77.6255  221.6653 H   0  0  0  0  0  0  0  0  0  0  0  0
  138.3505   77.8069  223.4156 H   0  0  0  0  0  0  0  0  0  0  0  0
  1  2  1  0
  2  3  1  0
  3  4  2  0
  3  5  1  0
  5  6  1  0
  6  7  2  0
  7  8  1  0
  8  9  2  0
  9 10  1  0
 10 11  2  0
  5 12  1  0
 12 13  1  0
 13 14  1  0
 14 15  1  0
 15 16  1  0
 16 17  2  0
 16 18  1  0
 18 19  1  0
 18 20  1  0
 20 21  1  0
 21 22  1  0
 22 23  2  0
 23 24  1  0
 24 25  2  0
 25 26  1  0
 26 27  2  0
 27 28  1  0
 28 29  2  0
 29 30  1  0
 30 31  2  0
 15 32  1  0
 32 33  1  0
 11  6  1  0
 33 12  1  0
 31 22  1  0
 30 25  1  0
  1 34  1  0
  1 35  1  0
  1 36  1  0
  2 37  1  0
  2 38  1  0
  7 39  1  0
  8 40  1  0
  9 41  1  0
 10 42  1  0
 11 43  1  0
 12 44  1  0
 13 45  1  0
 13 46  1  0
 14 47  1  0
 14 48  1  0
 18 49  1  6
 19 50  1  0
 19 51  1  0
 19 52  1  0
 20 53  1  0
 21 54  1  0
 21 55  1  0
 23 56  1  0
 24 57  1  0
 26 58  1  0
 27 59  1  0
 28 60  1  0
 29 61  1  0
 31 62  1  0
 32 63  1  0
 32 64  1  0
 33 65  1  0
 33 66  1  0
M  END
>  <smiles>  (44) 
CCC(=O)N(c1ccccc1)C1CCN(C(=O)[C@H](C)NCc2ccc3ccccc3c2)CC1

>  <score_type>  (44) 
oracle

>  <origin>  (44) 
autodockgpu

>  <m_score__min__energy>  (44) 
-9.3699999999999992

>  <m_primary>  (44) 
energy

>  <rmsd>  (44) 
8.669278327355128

>  <m_score__min__rmsd>  (44) 
8.669278327355128

>  <meeko>  (44) 
{"free_energy": -9.02, "intermolecular_energy": -11.41, "internal_energy": -1.8, "cluster_size": 7, "cluster_id": 2, "rank_in_cluster": 3}

>  <energy>  (44) 
-9.08

>  <cluster_rmsd>  (44) 
0.0

>  <cluster>  (44) 
3

$$$$

     RDKit          3D

 66 69  0  0  0  0  0  0  0  0999 V2000
  137.7250   80.8990  224.8890 C   0  0  0  0  0  0  0  0  0  0  0  0
  137.6880   81.6790  223.5590 C   0  0  0  0  0  0  0  0  0  0  0  0
  138.1480   80.7450  222.5310 C   0  0  0  0  0  0  0  0  0  0  0  0
  137.7310   80.9550  221.3380 O   0  0  0  0  0  0  0  0  0  0  0  0
  139.0000   79.6350  222.6920 N   0  0  0  0  0  0  0  0  0  0  0  0
  140.4200   79.9440  222.6800 C   0  0  0  0  0  0  0  0  0  0  0  0
  141.1580   79.7920  223.8400 C   0  0  0  0  0  0  0  0  0  0  0  0
  142.5080   80.0640  223.9120 C   0  0  0  0  0  0  0  0  0  0  0  0
  143.1340   80.5070  222.7630 C   0  0  0  0  0  0  0  0  0  0  0  0
  142.4050   80.6600  221.6090 C   0  0  0  0  0  0  0  0  0  0  0  0
  141.0420   80.3860  221.5370 C   0  0  0  0  0  0  0  0  0  0  0  0
  138.6390   78.2680  222.8520 C   0  0  0  0  0  0  0  0  0  0  0  0
  137.3200   77.8630  222.2620 C   0  0  0  0  0  0  0  0  0  0  0  0
  137.0900   76.4090  222.7160 C   0  0  0  0  0  0  0  0  0  0  0  0
  138.0920   75.6420  221.9630 N   0  0  0  0  0  0  0  0  0  0  0  0
  137.9050   74.2530  221.8930 C   0  0  0  0  0  0  0  0  0  0  0  0
  136.9080   73.7580  222.4730 O   0  0  0  0  0  0  0  0  0  0  0  0
  138.8060   73.3120  221.1800 C   0  0  2  0  0  0  0  0  0  0  0  0
  138.4280   73.2680  219.7390 C   0  0  0  0  0  0  0  0  0  0  0  0
  138.6620   72.0370  221.8460 N   0  0  0  0  0  0  0  0  0  0  0  0
  139.9090   71.3160  221.9930 C   0  0  0  0  0  0  0  0  0  0  0  0
  139.9030   70.8370  223.4230 C   0  0  0  0  0  0  0  0  0  0  0  0
  139.2970   69.6380  223.7440 C   0  0  0  0  0  0  0  0  0  0  0  0
  139.2890   69.1910  225.0630 C   0  0  0  0  0  0  0  0  0  0  0  0
  139.8900   69.9580  226.0330 C   0  0  0  0  0  0  0  0  0  0  0  0
  139.8670   69.4890  227.3440 C   0  0  0  0  0  0  0  0  0  0  0  0
  140.4700   70.2490  228.3470 C   0  0  0  0  0  0  0  0  0  0  0  0
  141.0700   71.4450  228.0050 C   0  0  0  0  0  0  0  0  0  0  0  0
  141.0890   71.9070  226.6950 C   0  0  0  0  0  0  0  0  0  0  0  0
  140.4920   71.1560  225.6950 C   0  0  0  0  0  0  0  0  0  0  0  0
  140.5100   71.6160  224.3880 C   0  0  0  0  0  0  0  0  0  0  0  0
  139.1950   76.3580  221.3460 C   0  0  0  0  0  0  0  0  0  0  0  0
  139.7490   77.3880  222.3090 C   0  0  0  0  0  0  0  0  0  0  0  0
  137.6914   81.6069  225.7303 H   0  0  0  0  0  0  0  0  0  0  0  0
  136.8579   80.2243  224.9427 H   0  0  0  0  0  0  0  0  0  0  0  0
  138.6521   80.3095  224.9427 H   0  0  0  0  0  0  0  0  0  0  0  0
  136.6632   82.0136  223.3405 H   0  0  0  0  0  0  0  0  0  0  0  0
  138.3222   82.5768  223.6006 H   0  0  0  0  0  0  0  0  0  0  0  0
  140.6447   79.4381  224.7462 H   0  0  0  0  0  0  0  0  0  0  0  0
  143.0663   79.9329  224.8507 H   0  0  0  0  0  0  0  0  0  0  0  0
  144.2099   80.7359  222.7722 H   0  0  0  0  0  0  0  0  0  0  0  0
  142.9198   81.0139  220.7036 H   0  0  0  0  0  0  0  0  0  0  0  0
  140.4830   80.5185  220.5990 H   0  0  0  0  0  0  0  0  0  0  0  0
  138.5055   78.1291  223.9350 H   0  0  0  0  0  0  0  0  0  0  0  0
  136.5161   78.5137  222.6367 H   0  0  0  0  0  0  0  0  0  0  0  0
  137.3212   77.9509  221.1655 H   0  0  0  0  0  0  0  0  0  0  0  0
  137.2517   76.3068  223.7993 H   0  0  0  0  0  0  0  0  0  0  0  0
  136.0625   76.0634  222.5294 H   0  0  0  0  0  0  0  0  0  0  0  0
  139.8623   73.6178  221.2087 H   0  0  0  0  0  0  0  0  0  0  0  0
  137.3390   73.1412  219.6493 H   0  0  0  0  0  0  0  0  0  0  0  0
  138.7292   74.2073  219.2521 H   0  0  0  0  0  0  0  0  0  0  0  0
  138.9368   72.4230  219.2521 H   0  0  0  0  0  0  0  0  0  0  0  0
  138.1670   72.1660  222.7300 H   0  0  0  0  0  0  0  0  0  0  0  0
  139.9498   70.4643  221.2980 H   0  0  0  0  0  0  0  0  0  0  0  0
  140.7837   71.9433  221.7660 H   0  0  0  0  0  0  0  0  0  0  0  0
  138.8201   69.0355  222.9569 H   0  0  0  0  0  0  0  0  0  0  0  0
  138.8083   68.2370  225.3252 H   0  0  0  0  0  0  0  0  0  0  0  0
  139.3802   68.5326  227.5856 H   0  0  0  0  0  0  0  0  0  0  0  0
  140.4675   69.9019  229.3908 H   0  0  0  0  0  0  0  0  0  0  0  0
  141.5461   72.0486  228.7918 H   0  0  0  0  0  0  0  0  0  0  0  0
  141.5752   72.8635  226.4529 H   0  0  0  0  0  0  0  0  0  0  0  0
  140.9918   72.5700  224.1279 H   0  0  0  0  0  0  0  0  0  0  0  0
  139.9887   75.6445  221.0798 H   0  0  0  0  0  0  0  0  0  0  0  0
  138.8326   76.8683  220.4414 H   0  0  0  0  0  0  0  0  0  0  0  0
  140.2419   76.8713  223.1457 H   0  0  0  0  0  0  0  0  0  0  0  0
  140.4708   78.0211  221.7721 H   0  0  0  0  0  0  0  0  0  0  0  0
  1  2  1  0
  2  3  1  0
  3  4  2  0
  3  5  1  0
  5  6  1  0
  6  7  2  0
  7  8  1  0
  8  9  2  0
  9 10  1  0
 10 11  2  0
  5 12  1  0
 12 13  1  0
 13 14  1  0
 14 15  1  0
 15 16  1  0
 16 17  2  0
 16 18  1  0
 18 19  1  0
 18 20  1  0
 20 21  1  0
 21 22  1  0
 22 23  2  0
 23 24  1  0
 24 25  2  0
 25 26  1  0
 26 27  2  0
 27 28  1  0
 28 29  2  0
 29 30  1  0
 30 31  2  0
 15 32  1  0
 32 33  1  0
 11  6  1  0
 33 12  1  0
 31 22  1  0
 30 25  1  0
  1 34  1  0
  1 35  1  0
  1 36  1  0
  2 37  1  0
  2 38  1  0
  7 39  1  0
  8 40  1  0
  9 41  1  0
 10 42  1  0
 11 43  1  0
 12 44  1  0
 13 45  1  0
 13 46  1  0
 14 47  1  0
 14 48  1  0
 18 49  1  6
 19 50  1  0
 19 51  1  0
 19 52  1  0
 20 53  1  0
 21 54  1  0
 21 55  1  0
 23 56  1  0
 24 57  1  0
 26 58  1  0
 27 59  1  0
 28 60  1  0
 29 61  1  0
 31 62  1  0
 32 63  1  0
 32 64  1  0
 33 65  1  0
 33 66  1  0
M  END
>  <smiles>  (45) 
CCC(=O)N(c1ccccc1)C1CCN(C(=O)[C@H](C)NCc2ccc3ccccc3c2)CC1

>  <score_type>  (45) 
oracle

>  <origin>  (45) 
autodockgpu

>  <m_score__min__energy>  (45) 
-9.3699999999999992

>  <m_primary>  (45) 
energy

>  <rmsd>  (45) 
9.09475656640042

>  <m_score__min__rmsd>  (45) 
9.09475656640042

>  <meeko>  (45) 
{"free_energy": -8.48, "intermolecular_energy": -10.87, "internal_energy": -2.37, "cluster_size": 36, "cluster_id": 1, "rank_in_cluster": 32}

>  <energy>  (45) 
-9.02

>  <cluster_rmsd>  (45) 
1.37

>  <cluster>  (45) 
3

$$$$

     RDKit          3D

 66 69  0  0  0  0  0  0  0  0999 V2000
  142.2380   77.7660  218.8910 C   0  0  0  0  0  0  0  0  0  0  0  0
  141.8680   79.2510  219.0830 C   0  0  0  0  0  0  0  0  0  0  0  0
  140.6800   79.2650  219.9360 C   0  0  0  0  0  0  0  0  0  0  0  0
  139.6010   79.7100  219.4080 O   0  0  0  0  0  0  0  0  0  0  0  0
  140.5750   78.8460  221.2770 N   0  0  0  0  0  0  0  0  0  0  0  0
  141.3120   79.6550  222.2330 C   0  0  0  0  0  0  0  0  0  0  0  0
  142.6700   79.4460  222.3950 C   0  0  0  0  0  0  0  0  0  0  0  0
  143.4400   80.1700  223.2810 C   0  0  0  0  0  0  0  0  0  0  0  0
  142.8090   81.1430  224.0310 C   0  0  0  0  0  0  0  0  0  0  0  0
  141.4600   81.3530  223.8740 C   0  0  0  0  0  0  0  0  0  0  0  0
  140.6840   80.6220  222.9800 C   0  0  0  0  0  0  0  0  0  0  0  0
  139.8530   77.7340  221.7950 C   0  0  0  0  0  0  0  0  0  0  0  0
  138.4500   77.5680  221.2890 C   0  0  0  0  0  0  0  0  0  0  0  0
  137.8420   76.4210  222.1190 C   0  0  0  0  0  0  0  0  0  0  0  0
  138.5560   75.2270  221.6460 N   0  0  0  0  0  0  0  0  0  0  0  0
  137.9860   73.9840  221.9570 C   0  0  0  0  0  0  0  0  0  0  0  0
  136.9150   73.9690  222.6120 O   0  0  0  0  0  0  0  0  0  0  0  0
  138.5560   72.6690  221.5670 C   0  0  2  0  0  0  0  0  0  0  0  0
  138.2620   72.4140  220.1290 C   0  0  0  0  0  0  0  0  0  0  0  0
  137.9590   71.6950  222.4530 N   0  0  0  0  0  0  0  0  0  0  0  0
  138.6770   70.4380  222.4990 C   0  0  0  0  0  0  0  0  0  0  0  0
  139.3110   70.4140  223.8670 C   0  0  0  0  0  0  0  0  0  0  0  0
  140.0060   71.5190  224.3220 C   0  0  0  0  0  0  0  0  0  0  0  0
  140.5930   71.5020  225.5850 C   0  0  0  0  0  0  0  0  0  0  0  0
  140.4710   70.3770  226.3650 C   0  0  0  0  0  0  0  0  0  0  0  0
  141.0680   70.3850  227.6230 C   0  0  0  0  0  0  0  0  0  0  0  0
  140.9590   69.2540  228.4340 C   0  0  0  0  0  0  0  0  0  0  0  0
  140.2610   68.1620  227.9600 C   0  0  0  0  0  0  0  0  0  0  0  0
  139.6670   68.1600  226.7040 C   0  0  0  0  0  0  0  0  0  0  0  0
  139.7730   69.2800  225.8940 C   0  0  0  0  0  0  0  0  0  0  0  0
  139.1820   69.2780  224.6410 C   0  0  0  0  0  0  0  0  0  0  0  0
  139.7890   75.4060  220.8990 C   0  0  0  0  0  0  0  0  0  0  0  0
  140.6490   76.4640  221.5600 C   0  0  0  0  0  0  0  0  0  0  0  0
  142.3572   77.2877  219.8744 H   0  0  0  0  0  0  0  0  0  0  0  0
  141.4389   77.2585  218.3309 H   0  0  0  0  0  0  0  0  0  0  0  0
  143.1819   77.6928  218.3309 H   0  0  0  0  0  0  0  0  0  0  0  0
  142.6939   79.7906  219.5695 H   0  0  0  0  0  0  0  0  0  0  0  0
  141.6771   79.7458  218.1193 H   0  0  0  0  0  0  0  0  0  0  0  0
  143.1575   78.6674  221.7899 H   0  0  0  0  0  0  0  0  0  0  0  0
  144.5182   79.9793  223.3865 H   0  0  0  0  0  0  0  0  0  0  0  0
  143.3828   81.7463  224.7498 H   0  0  0  0  0  0  0  0  0  0  0  0
  140.9736   82.1313  224.4803 H   0  0  0  0  0  0  0  0  0  0  0  0
  139.6056   80.8116  222.8750 H   0  0  0  0  0  0  0  0  0  0  0  0
  139.7314   77.9427  222.8681 H   0  0  0  0  0  0  0  0  0  0  0  0
  137.8764   78.4948  221.4372 H   0  0  0  0  0  0  0  0  0  0  0  0
  138.4299   77.3455  220.2119 H   0  0  0  0  0  0  0  0  0  0  0  0
  138.0151   76.5807  223.1935 H   0  0  0  0  0  0  0  0  0  0  0  0
  136.7518   76.3401  221.9969 H   0  0  0  0  0  0  0  0  0  0  0  0
  139.6506   72.6245  221.6660 H   0  0  0  0  0  0  0  0  0  0  0  0
  137.4334   71.6953  220.0460 H   0  0  0  0  0  0  0  0  0  0  0  0
  137.9793   73.3577  219.6396 H   0  0  0  0  0  0  0  0  0  0  0  0
  139.1562   72.0007  219.6396 H   0  0  0  0  0  0  0  0  0  0  0  0
  137.8190   72.1110  223.3750 H   0  0  0  0  0  0  0  0  0  0  0  0
  137.9860   69.5910  222.3760 H   0  0  0  0  0  0  0  0  0  0  0  0
  139.4200   70.3514  221.6925 H   0  0  0  0  0  0  0  0  0  0  0  0
  140.0955   72.4122  223.6862 H   0  0  0  0  0  0  0  0  0  0  0  0
  141.1472   72.3778  225.9535 H   0  0  0  0  0  0  0  0  0  0  0  0
  141.6182   71.2708  227.9731 H   0  0  0  0  0  0  0  0  0  0  0  0
  141.4208   69.2336  229.4322 H   0  0  0  0  0  0  0  0  0  0  0  0
  140.1724   67.2678  228.5945 H   0  0  0  0  0  0  0  0  0  0  0  0
  139.1157   67.2747  226.3543 H   0  0  0  0  0  0  0  0  0  0  0  0
  138.6285   68.4007  224.2750 H   0  0  0  0  0  0  0  0  0  0  0  0
  140.3396   74.4541  220.8721 H   0  0  0  0  0  0  0  0  0  0  0  0
  139.5465   75.7270  219.8752 H   0  0  0  0  0  0  0  0  0  0  0  0
  141.0126   76.0821  222.5254 H   0  0  0  0  0  0  0  0  0  0  0  0
  141.4958   76.6955  220.8971 H   0  0  0  0  0  0  0  0  0  0  0  0
  1  2  1  0
  2  3  1  0
  3  4  2  0
  3  5  1  0
  5  6  1  0
  6  7  2  0
  7  8  1  0
  8  9  2  0
  9 10  1  0
 10 11  2  0
  5 12  1  0
 12 13  1  0
 13 14  1  0
 14 15  1  0
 15 16  1  0
 16 17  2  0
 16 18  1  0
 18 19  1  0
 18 20  1  0
 20 21  1  0
 21 22  1  0
 22 23  2  0
 23 24  1  0
 24 25  2  0
 25 26  1  0
 26 27  2  0
 27 28  1  0
 28 29  2  0
 29 30  1  0
 30 31  2  0
 15 32  1  0
 32 33  1  0
 11  6  1  0
 33 12  1  0
 31 22  1  0
 30 25  1  0
  1 34  1  0
  1 35  1  0
  1 36  1  0
  2 37  1  0
  2 38  1  0
  7 39  1  0
  8 40  1  0
  9 41  1  0
 10 42  1  0
 11 43  1  0
 12 44  1  0
 13 45  1  0
 13 46  1  0
 14 47  1  0
 14 48  1  0
 18 49  1  6
 19 50  1  0
 19 51  1  0
 19 52  1  0
 20 53  1  0
 21 54  1  0
 21 55  1  0
 23 56  1  0
 24 57  1  0
 26 58  1  0
 27 59  1  0
 28 60  1  0
 29 61  1  0
 31 62  1  0
 32 63  1  0
 32 64  1  0
 33 65  1  0
 33 66  1  0
M  END
>  <smiles>  (46) 
CCC(=O)N(c1ccccc1)C1CCN(C(=O)[C@H](C)NCc2ccc3ccccc3c2)CC1

>  <score_type>  (46) 
oracle

>  <origin>  (46) 
autodockgpu

>  <m_score__min__energy>  (46) 
-9.3699999999999992

>  <m_primary>  (46) 
energy

>  <rmsd>  (46) 
8.403509233640568

>  <m_score__min__rmsd>  (46) 
8.403509233640568

>  <meeko>  (46) 
{"free_energy": -8.57, "intermolecular_energy": -10.96, "internal_energy": -2.33, "cluster_size": 36, "cluster_id": 1, "rank_in_cluster": 29}

>  <energy>  (46) 
-8.99

>  <cluster_rmsd>  (46) 
1.39

>  <cluster>  (46) 
3

$$$$

     RDKit          3D

 66 69  0  0  0  0  0  0  0  0999 V2000
  142.9230   80.8870  223.8650 C   0  0  0  0  0  0  0  0  0  0  0  0
  142.7590   79.8220  222.7620 C   0  0  0  0  0  0  0  0  0  0  0  0
  141.6890   78.9330  223.2150 C   0  0  0  0  0  0  0  0  0  0  0  0
  141.8960   78.2960  224.3070 O   0  0  0  0  0  0  0  0  0  0  0  0
  140.4480   78.6910  222.5940 N   0  0  0  0  0  0  0  0  0  0  0  0
  139.4220   79.6850  222.8610 C   0  0  0  0  0  0  0  0  0  0  0  0
  138.9800   79.8730  224.1580 C   0  0  0  0  0  0  0  0  0  0  0  0
  138.0110   80.7940  224.4940 C   0  0  0  0  0  0  0  0  0  0  0  0
  137.4700   81.5550  223.4750 C   0  0  0  0  0  0  0  0  0  0  0  0
  137.9050   81.3710  222.1860 C   0  0  0  0  0  0  0  0  0  0  0  0
  138.8840   80.4410  221.8470 C   0  0  0  0  0  0  0  0  0  0  0  0
  140.0840   77.5980  221.7580 C   0  0  0  0  0  0  0  0  0  0  0  0
  141.1050   76.5060  221.6220 C   0  0  0  0  0  0  0  0  0  0  0  0
  140.5500   75.5500  220.5480 C   0  0  0  0  0  0  0  0  0  0  0  0
  139.4010   74.9120  221.2050 N   0  0  0  0  0  0  0  0  0  0  0  0
  138.9020   73.7420  220.6130 C   0  0  0  0  0  0  0  0  0  0  0  0
  139.4610   73.3190  219.5720 O   0  0  0  0  0  0  0  0  0  0  0  0
  137.7520   72.9550  221.1290 C   0  0  2  0  0  0  0  0  0  0  0  0
  136.5820   73.8600  221.3100 C   0  0  0  0  0  0  0  0  0  0  0  0
  138.2020   72.3510  222.3620 N   0  0  0  0  0  0  0  0  0  0  0  0
  139.5460   71.8170  222.2890 C   0  0  0  0  0  0  0  0  0  0  0  0
  139.7570   71.1400  223.6210 C   0  0  0  0  0  0  0  0  0  0  0  0
  139.3840   69.8200  223.7880 C   0  0  0  0  0  0  0  0  0  0  0  0
  139.5760   69.1900  225.0160 C   0  0  0  0  0  0  0  0  0  0  0  0
  140.1400   69.8990  226.0490 C   0  0  0  0  0  0  0  0  0  0  0  0
  140.3210   69.2470  227.2660 C   0  0  0  0  0  0  0  0  0  0  0  0
  140.8910   69.9450  228.3320 C   0  0  0  0  0  0  0  0  0  0  0  0
  141.2570   71.2630  228.1440 C   0  0  0  0  0  0  0  0  0  0  0  0
  141.0730   71.9070  226.9270 C   0  0  0  0  0  0  0  0  0  0  0  0
  140.5080   71.2190  225.8660 C   0  0  0  0  0  0  0  0  0  0  0  0
  140.3240   71.8620  224.6520 C   0  0  0  0  0  0  0  0  0  0  0  0
  138.8610   75.5220  222.4080 C   0  0  0  0  0  0  0  0  0  0  0  0
  138.7620   77.0230  222.2300 C   0  0  0  0  0  0  0  0  0  0  0  0
  142.8491   80.4070  224.8520 H   0  0  0  0  0  0  0  0  0  0  0  0
  143.9061   81.3702  223.7649 H   0  0  0  0  0  0  0  0  0  0  0  0
  142.1308   81.6435  223.7649 H   0  0  0  0  0  0  0  0  0  0  0  0
  142.4829   80.2978  221.8094 H   0  0  0  0  0  0  0  0  0  0  0  0
  143.6956   79.2708  222.5920 H   0  0  0  0  0  0  0  0  0  0  0  0
  139.4216   79.2599  224.9574 H   0  0  0  0  0  0  0  0  0  0  0  0
  137.6802   80.9188  225.5356 H   0  0  0  0  0  0  0  0  0  0  0  0
  136.6952   82.3040  223.6956 H   0  0  0  0  0  0  0  0  0  0  0  0
  137.4615   81.9840  221.3876 H   0  0  0  0  0  0  0  0  0  0  0  0
  139.2149   80.3158  220.8055 H   0  0  0  0  0  0  0  0  0  0  0  0
  140.0034   78.0221  220.7462 H   0  0  0  0  0  0  0  0  0  0  0  0
  142.0719   76.9221  221.3027 H   0  0  0  0  0  0  0  0  0  0  0  0
  141.2768   75.9886  222.5774 H   0  0  0  0  0  0  0  0  0  0  0  0
  140.2308   76.1072  219.6549 H   0  0  0  0  0  0  0  0  0  0  0  0
  141.2978   74.8226  220.1993 H   0  0  0  0  0  0  0  0  0  0  0  0
  137.4219   72.1645  220.4389 H   0  0  0  0  0  0  0  0  0  0  0  0
  136.3938   74.0056  222.3839 H   0  0  0  0  0  0  0  0  0  0  0  0
  136.7938   74.8316  220.8398 H   0  0  0  0  0  0  0  0  0  0  0  0
  135.6948   73.4108  220.8398 H   0  0  0  0  0  0  0  0  0  0  0  0
  138.0740   73.0090  223.1340 H   0  0  0  0  0  0  0  0  0  0  0  0
  139.6320   71.0918  221.4664 H   0  0  0  0  0  0  0  0  0  0  0  0
  140.2959   72.5976  222.0933 H   0  0  0  0  0  0  0  0  0  0  0  0
  138.9350   69.2659  222.9506 H   0  0  0  0  0  0  0  0  0  0  0  0
  139.2802   68.1399  225.1564 H   0  0  0  0  0  0  0  0  0  0  0  0
  140.0189   68.1961  227.3857 H   0  0  0  0  0  0  0  0  0  0  0  0
  141.0458   69.4540  229.3041 H   0  0  0  0  0  0  0  0  0  0  0  0
  141.7065   71.8181  228.9806 H   0  0  0  0  0  0  0  0  0  0  0  0
  141.3745   72.9580  226.8066 H   0  0  0  0  0  0  0  0  0  0  0  0
  140.6199   72.9125  224.5146 H   0  0  0  0  0  0  0  0  0  0  0  0
  137.8596   75.1121  222.6059 H   0  0  0  0  0  0  0  0  0  0  0  0
  139.5287   75.3027  223.2542 H   0  0  0  0  0  0  0  0  0  0  0  0
  137.9846   77.2473  221.4848 H   0  0  0  0  0  0  0  0  0  0  0  0
  138.5060   77.4768  223.1988 H   0  0  0  0  0  0  0  0  0  0  0  0
  1  2  1  0
  2  3  1  0
  3  4  2  0
  3  5  1  0
  5  6  1  0
  6  7  2  0
  7  8  1  0
  8  9  2  0
  9 10  1  0
 10 11  2  0
  5 12  1  0
 12 13  1  0
 13 14  1  0
 14 15  1  0
 15 16  1  0
 16 17  2  0
 16 18  1  0
 18 19  1  0
 18 20  1  0
 20 21  1  0
 21 22  1  0
 22 23  2  0
 23 24  1  0
 24 25  2  0
 25 26  1  0
 26 27  2  0
 27 28  1  0
 28 29  2  0
 29 30  1  0
 30 31  2  0
 15 32  1  0
 32 33  1  0
 11  6  1  0
 33 12  1  0
 31 22  1  0
 30 25  1  0
  1 34  1  0
  1 35  1  0
  1 36  1  0
  2 37  1  0
  2 38  1  0
  7 39  1  0
  8 40  1  0
  9 41  1  0
 10 42  1  0
 11 43  1  0
 12 44  1  0
 13 45  1  0
 13 46  1  0
 14 47  1  0
 14 48  1  0
 18 49  1  6
 19 50  1  0
 19 51  1  0
 19 52  1  0
 20 53  1  0
 21 54  1  0
 21 55  1  0
 23 56  1  0
 24 57  1  0
 26 58  1  0
 27 59  1  0
 28 60  1  0
 29 61  1  0
 31 62  1  0
 32 63  1  0
 32 64  1  0
 33 65  1  0
 33 66  1  0
M  END
>  <smiles>  (47) 
CCC(=O)N(c1ccccc1)C1CCN(C(=O)[C@H](C)NCc2ccc3ccccc3c2)CC1

>  <score_type>  (47) 
oracle

>  <origin>  (47) 
autodockgpu

>  <m_score__min__energy>  (47) 
-9.3699999999999992

>  <m_primary>  (47) 
energy

>  <rmsd>  (47) 
8.710349554418316

>  <m_score__min__rmsd>  (47) 
8.710349554418316

>  <meeko>  (47) 
{"free_energy": -9.01, "intermolecular_energy": -11.4, "internal_energy": -1.79, "cluster_size": 7, "cluster_id": 2, "rank_in_cluster": 4}

>  <energy>  (47) 
-8.59

>  <cluster_rmsd>  (47) 
1.74

>  <cluster>  (47) 
3

$$$$

     RDKit          3D

 66 69  0  0  0  0  0  0  0  0999 V2000
  137.7150   80.9700  224.8390 C   0  0  0  0  0  0  0  0  0  0  0  0
  137.6890   81.6100  223.4360 C   0  0  0  0  0  0  0  0  0  0  0  0
  138.0540   80.5470  222.5000 C   0  0  0  0  0  0  0  0  0  0  0  0
  137.5800   80.6410  221.3140 O   0  0  0  0  0  0  0  0  0  0  0  0
  138.8680   79.4240  222.7440 N   0  0  0  0  0  0  0  0  0  0  0  0
  140.2960   79.6950  222.7740 C   0  0  0  0  0  0  0  0  0  0  0  0
  140.9370   80.0880  221.6140 C   0  0  0  0  0  0  0  0  0  0  0  0
  142.2870   80.3630  221.5590 C   0  0  0  0  0  0  0  0  0  0  0  0
  143.0150   80.2350  222.7260 C   0  0  0  0  0  0  0  0  0  0  0  0
  142.3820   79.8440  223.8810 C   0  0  0  0  0  0  0  0  0  0  0  0
  141.0190   79.5660  223.9360 C   0  0  0  0  0  0  0  0  0  0  0  0
  138.4640   78.0750  222.9500 C   0  0  0  0  0  0  0  0  0  0  0  0
  137.1850   77.6630  222.2820 C   0  0  0  0  0  0  0  0  0  0  0  0
  136.8870   76.2410  222.7970 C   0  0  0  0  0  0  0  0  0  0  0  0
  137.9250   75.4130  222.1670 N   0  0  0  0  0  0  0  0  0  0  0  0
  137.7120   74.0270  222.1600 C   0  0  0  0  0  0  0  0  0  0  0  0
  136.6620   73.5850  222.6860 O   0  0  0  0  0  0  0  0  0  0  0  0
  138.6420   73.0300  221.5710 C   0  0  2  0  0  0  0  0  0  0  0  0
  137.9900   72.3830  220.3970 C   0  0  0  0  0  0  0  0  0  0  0  0
  138.9560   72.1000  222.6320 N   0  0  0  0  0  0  0  0  0  0  0  0
  140.3660   72.0530  222.9620 C   0  0  0  0  0  0  0  0  0  0  0  0
  140.4230   71.3020  224.2700 C   0  0  0  0  0  0  0  0  0  0  0  0
  140.9920   71.8960  225.3800 C   0  0  0  0  0  0  0  0  0  0  0  0
  141.0470   71.2080  226.5890 C   0  0  0  0  0  0  0  0  0  0  0  0
  140.5300   69.9360  226.6580 C   0  0  0  0  0  0  0  0  0  0  0  0
  140.5980   69.2690  227.8790 C   0  0  0  0  0  0  0  0  0  0  0  0
  140.0790   67.9760  227.9750 C   0  0  0  0  0  0  0  0  0  0  0  0
  139.5150   67.4010  226.8540 C   0  0  0  0  0  0  0  0  0  0  0  0
  139.4510   68.0720  225.6400 C   0  0  0  0  0  0  0  0  0  0  0  0
  139.9640   69.3550  225.5380 C   0  0  0  0  0  0  0  0  0  0  0  0
  139.9000   70.0260  224.3270 C   0  0  0  0  0  0  0  0  0  0  0  0
  139.0890   76.0720  221.6000 C   0  0  0  0  0  0  0  0  0  0  0  0
  139.5910   77.1440  222.5440 C   0  0  0  0  0  0  0  0  0  0  0  0
  137.6829   81.7605  225.6033 H   0  0  0  0  0  0  0  0  0  0  0  0
  136.8429   80.3101  224.9572 H   0  0  0  0  0  0  0  0  0  0  0  0
  138.6377   80.3830  224.9572 H   0  0  0  0  0  0  0  0  0  0  0  0
  136.6823   81.9905  223.2083 H   0  0  0  0  0  0  0  0  0  0  0  0
  138.3827   82.4610  223.3689 H   0  0  0  0  0  0  0  0  0  0  0  0
  140.3432   80.1857  220.6932 H   0  0  0  0  0  0  0  0  0  0  0  0
  142.7672   80.6733  220.6193 H   0  0  0  0  0  0  0  0  0  0  0  0
  144.0948   80.4448  222.7305 H   0  0  0  0  0  0  0  0  0  0  0  0
  142.9772   79.7465  224.8009 H   0  0  0  0  0  0  0  0  0  0  0  0
  140.5381   79.2545  224.8750 H   0  0  0  0  0  0  0  0  0  0  0  0
  138.2453   78.0002  224.0254 H   0  0  0  0  0  0  0  0  0  0  0  0
  136.3703   78.3492  222.5564 H   0  0  0  0  0  0  0  0  0  0  0  0
  137.2720   77.6887  221.1857 H   0  0  0  0  0  0  0  0  0  0  0  0
  136.9636   76.1977  223.8935 H   0  0  0  0  0  0  0  0  0  0  0  0
  135.8688   75.9051  222.5511 H   0  0  0  0  0  0  0  0  0  0  0  0
  139.5735   73.4770  221.1934 H   0  0  0  0  0  0  0  0  0  0  0  0
  137.2498   71.6485  220.7473 H   0  0  0  0  0  0  0  0  0  0  0  0
  137.4869   73.1490  219.7887 H   0  0  0  0  0  0  0  0  0  0  0  0
  138.7522   71.8740  219.7887 H   0  0  0  0  0  0  0  0  0  0  0  0
  138.3610   72.2880  223.4410 H   0  0  0  0  0  0  0  0  0  0  0  0
  140.9302   71.5199  222.1826 H   0  0  0  0  0  0  0  0  0  0  0  0
  140.8121   73.0558  223.0356 H   0  0  0  0  0  0  0  0  0  0  0  0
  141.4022   72.9141  225.3084 H   0  0  0  0  0  0  0  0  0  0  0  0
  141.4978   71.6756  227.4767 H   0  0  0  0  0  0  0  0  0  0  0  0
  141.0539   69.7537  228.7549 H   0  0  0  0  0  0  0  0  0  0  0  0
  140.1189   67.4258  228.9267 H   0  0  0  0  0  0  0  0  0  0  0  0
  139.1048   66.3828  226.9244 H   0  0  0  0  0  0  0  0  0  0  0  0
  138.9954   67.5875  224.7638 H   0  0  0  0  0  0  0  0  0  0  0  0
  139.4474   69.5572  223.4408 H   0  0  0  0  0  0  0  0  0  0  0  0
  139.8840   75.3295  221.4368 H   0  0  0  0  0  0  0  0  0  0  0  0
  138.8092   76.5370  220.6432 H   0  0  0  0  0  0  0  0  0  0  0  0
  140.0062   76.6666  223.4438 H   0  0  0  0  0  0  0  0  0  0  0  0
  140.3660   77.7316  222.0301 H   0  0  0  0  0  0  0  0  0  0  0  0
  1  2  1  0
  2  3  1  0
  3  4  2  0
  3  5  1  0
  5  6  1  0
  6  7  2  0
  7  8  1  0
  8  9  2  0
  9 10  1  0
 10 11  2  0
  5 12  1  0
 12 13  1  0
 13 14  1  0
 14 15  1  0
 15 16  1  0
 16 17  2  0
 16 18  1  0
 18 19  1  0
 18 20  1  0
 20 21  1  0
 21 22  1  0
 22 23  2  0
 23 24  1  0
 24 25  2  0
 25 26  1  0
 26 27  2  0
 27 28  1  0
 28 29  2  0
 29 30  1  0
 30 31  2  0
 15 32  1  0
 32 33  1  0
 11  6  1  0
 33 12  1  0
 31 22  1  0
 30 25  1  0
  1 34  1  0
  1 35  1  0
  1 36  1  0
  2 37  1  0
  2 38  1  0
  7 39  1  0
  8 40  1  0
  9 41  1  0
 10 42  1  0
 11 43  1  0
 12 44  1  0
 13 45  1  0
 13 46  1  0
 14 47  1  0
 14 48  1  0
 18 49  1  6
 19 50  1  0
 19 51  1  0
 19 52  1  0
 20 53  1  0
 21 54  1  0
 21 55  1  0
 23 56  1  0
 24 57  1  0
 26 58  1  0
 27 59  1  0
 28 60  1  0
 29 61  1  0
 31 62  1  0
 32 63  1  0
 32 64  1  0
 33 65  1  0
 33 66  1  0
M  END
>  <smiles>  (48) 
CCC(=O)N(c1ccccc1)C1CCN(C(=O)[C@H](C)NCc2ccc3ccccc3c2)CC1

>  <score_type>  (48) 
oracle

>  <origin>  (48) 
autodockgpu

>  <m_score__min__energy>  (48) 
-9.3699999999999992

>  <m_primary>  (48) 
energy

>  <rmsd>  (48) 
8.766661014103047

>  <m_score__min__rmsd>  (48) 
8.766661014103047

>  <meeko>  (48) 
{"free_energy": -8.52, "intermolecular_energy": -10.91, "internal_energy": -2.23, "cluster_size": 36, "cluster_id": 1, "rank_in_cluster": 31}

>  <energy>  (48) 
-8.75

>  <cluster_rmsd>  (48) 
0.0

>  <cluster>  (48) 
4

$$$$

     RDKit          3D

 66 69  0  0  0  0  0  0  0  0999 V2000
  143.3030   80.5640  223.7800 C   0  0  0  0  0  0  0  0  0  0  0  0
  142.1830   81.6220  223.8500 C   0  0  0  0  0  0  0  0  0  0  0  0
  141.6450   81.7310  222.4940 C   0  0  0  0  0  0  0  0  0  0  0  0
  141.6250   82.9030  221.9790 O   0  0  0  0  0  0  0  0  0  0  0  0
  141.1430   80.6980  221.6790 N   0  0  0  0  0  0  0  0  0  0  0  0
  141.2080   80.9550  220.2500 C   0  0  0  0  0  0  0  0  0  0  0  0
  142.2070   80.3650  219.4990 C   0  0  0  0  0  0  0  0  0  0  0  0
  142.3390   80.5590  218.1400 C   0  0  0  0  0  0  0  0  0  0  0  0
  141.4210   81.3840  217.5190 C   0  0  0  0  0  0  0  0  0  0  0  0
  140.4270   81.9740  218.2620 C   0  0  0  0  0  0  0  0  0  0  0  0
  140.2960   81.7770  219.6340 C   0  0  0  0  0  0  0  0  0  0  0  0
  140.5790   79.4560  222.0850 C   0  0  0  0  0  0  0  0  0  0  0  0
  139.2300   79.1290  221.5150 C   0  0  0  0  0  0  0  0  0  0  0  0
  138.7750   77.8440  222.2340 C   0  0  0  0  0  0  0  0  0  0  0  0
  139.6700   76.8070  221.7020 N   0  0  0  0  0  0  0  0  0  0  0  0
  139.2810   75.4730  221.8980 C   0  0  0  0  0  0  0  0  0  0  0  0
  138.2070   75.2520  222.5080 O   0  0  0  0  0  0  0  0  0  0  0  0
  140.0500   74.2900  221.4340 C   0  0  2  0  0  0  0  0  0  0  0  0
  139.7020   74.0060  220.0130 C   0  0  0  0  0  0  0  0  0  0  0  0
  139.7050   73.2120  222.3320 N   0  0  0  0  0  0  0  0  0  0  0  0
  140.6860   72.1470  222.3620 C   0  0  0  0  0  0  0  0  0  0  0  0
  140.3610   71.3680  223.6130 C   0  0  0  0  0  0  0  0  0  0  0  0
  139.6440   70.1910  223.5240 C   0  0  0  0  0  0  0  0  0  0  0  0
  139.3420   69.4680  224.6760 C   0  0  0  0  0  0  0  0  0  0  0  0
  139.7670   69.9430  225.8930 C   0  0  0  0  0  0  0  0  0  0  0  0
  139.4520   69.2030  227.0300 C   0  0  0  0  0  0  0  0  0  0  0  0
  139.8720   69.6640  228.2780 C   0  0  0  0  0  0  0  0  0  0  0  0
  140.5880   70.8420  228.3450 C   0  0  0  0  0  0  0  0  0  0  0  0
  140.8990   71.5760  227.2080 C   0  0  0  0  0  0  0  0  0  0  0  0
  140.4850   71.1230  225.9650 C   0  0  0  0  0  0  0  0  0  0  0  0
  140.7940   71.8550  224.8300 C   0  0  0  0  0  0  0  0  0  0  0  0
  140.8830   77.2210  221.0180 C   0  0  0  0  0  0  0  0  0  0  0  0
  141.5590   78.3370  221.7870 C   0  0  0  0  0  0  0  0  0  0  0  0
  143.6035   80.2801  224.7994 H   0  0  0  0  0  0  0  0  0  0  0  0
  142.9354   79.6757  223.2453 H   0  0  0  0  0  0  0  0  0  0  0  0
  144.1689   80.9815  223.2453 H   0  0  0  0  0  0  0  0  0  0  0  0
  141.3965   81.3001  224.5484 H   0  0  0  0  0  0  0  0  0  0  0  0
  142.5643   82.5887  224.2108 H   0  0  0  0  0  0  0  0  0  0  0  0
  142.9298   79.7108  220.0085 H   0  0  0  0  0  0  0  0  0  0  0  0
  143.1461   80.0744  217.5710 H   0  0  0  0  0  0  0  0  0  0  0  0
  141.4855   81.5674  216.4363 H   0  0  0  0  0  0  0  0  0  0  0  0
  139.7052   82.6288  217.7519 H   0  0  0  0  0  0  0  0  0  0  0  0
  139.4906   82.2625  220.2046 H   0  0  0  0  0  0  0  0  0  0  0  0
  140.3993   79.5599  223.1653 H   0  0  0  0  0  0  0  0  0  0  0  0
  138.5224   79.9485  221.7093 H   0  0  0  0  0  0  0  0  0  0  0  0
  139.2721   78.9913  220.4245 H   0  0  0  0  0  0  0  0  0  0  0  0
  138.8931   77.9420  223.3232 H   0  0  0  0  0  0  0  0  0  0  0  0
  137.7124   77.6159  222.0642 H   0  0  0  0  0  0  0  0  0  0  0  0
  141.1389   74.4442  221.4555 H   0  0  0  0  0  0  0  0  0  0  0  0
  138.8503   73.3109  219.9760 H   0  0  0  0  0  0  0  0  0  0  0  0
  139.4316   74.9446  219.5071 H   0  0  0  0  0  0  0  0  0  0  0  0
  140.5673   73.5529  219.5071 H   0  0  0  0  0  0  0  0  0  0  0  0
  139.4950   73.5890  223.2580 H   0  0  0  0  0  0  0  0  0  0  0  0
  140.5935   71.5082  221.4713 H   0  0  0  0  0  0  0  0  0  0  0  0
  141.7176   72.5289  222.3636 H   0  0  0  0  0  0  0  0  0  0  0  0
  139.3109   69.8238  222.5421 H   0  0  0  0  0  0  0  0  0  0  0  0
  138.7712   68.5299  224.6120 H   0  0  0  0  0  0  0  0  0  0  0  0
  138.8796   68.2675  226.9452 H   0  0  0  0  0  0  0  0  0  0  0  0
  139.6368   69.0989  229.1920 H   0  0  0  0  0  0  0  0  0  0  0  0
  140.9216   71.2097  229.3266 H   0  0  0  0  0  0  0  0  0  0  0  0
  141.4708   72.5118  227.2932 H   0  0  0  0  0  0  0  0  0  0  0  0
  141.3652   72.7927  224.8964 H   0  0  0  0  0  0  0  0  0  0  0  0
  141.5686   76.3641  220.9424 H   0  0  0  0  0  0  0  0  0  0  0  0
  140.6236   77.5827  220.0121 H   0  0  0  0  0  0  0  0  0  0  0  0
  141.9490   77.9372  222.7347 H   0  0  0  0  0  0  0  0  0  0  0  0
  142.3794   78.7403  221.1752 H   0  0  0  0  0  0  0  0  0  0  0  0
  1  2  1  0
  2  3  1  0
  3  4  2  0
  3  5  1  0
  5  6  1  0
  6  7  2  0
  7  8  1  0
  8  9  2  0
  9 10  1  0
 10 11  2  0
  5 12  1  0
 12 13  1  0
 13 14  1  0
 14 15  1  0
 15 16  1  0
 16 17  2  0
 16 18  1  0
 18 19  1  0
 18 20  1  0
 20 21  1  0
 21 22  1  0
 22 23  2  0
 23 24  1  0
 24 25  2  0
 25 26  1  0
 26 27  2  0
 27 28  1  0
 28 29  2  0
 29 30  1  0
 30 31  2  0
 15 32  1  0
 32 33  1  0
 11  6  1  0
 33 12  1  0
 31 22  1  0
 30 25  1  0
  1 34  1  0
  1 35  1  0
  1 36  1  0
  2 37  1  0
  2 38  1  0
  7 39  1  0
  8 40  1  0
  9 41  1  0
 10 42  1  0
 11 43  1  0
 12 44  1  0
 13 45  1  0
 13 46  1  0
 14 47  1  0
 14 48  1  0
 18 49  1  6
 19 50  1  0
 19 51  1  0
 19 52  1  0
 20 53  1  0
 21 54  1  0
 21 55  1  0
 23 56  1  0
 24 57  1  0
 26 58  1  0
 27 59  1  0
 28 60  1  0
 29 61  1  0
 31 62  1  0
 32 63  1  0
 32 64  1  0
 33 65  1  0
 33 66  1  0
M  END
>  <smiles>  (49) 
CCC(=O)N(c1ccccc1)C1CCN(C(=O)[C@H](C)NCc2ccc3ccccc3c2)CC1

>  <score_type>  (49) 
oracle

>  <origin>  (49) 
autodockgpu

>  <m_score__min__energy>  (49) 
-9.3699999999999992

>  <m_primary>  (49) 
energy

>  <rmsd>  (49) 
8.811933205912942

>  <m_score__min__rmsd>  (49) 
8.811933205912942

>  <meeko>  (49) 
{"free_energy": -9.02, "intermolecular_energy": -11.41, "internal_energy": -2.19, "cluster_size": 4, "cluster_id": 3, "rank_in_cluster": 2}

>  <energy>  (49) 
-8.39

>  <cluster_rmsd>  (49) 
0.0

>  <cluster>  (49) 
5

$$$$

     RDKit          3D

 66 69  0  0  0  0  0  0  0  0999 V2000
  143.3640   80.5150  223.5410 C   0  0  0  0  0  0  0  0  0  0  0  0
  142.0090   81.2390  223.6830 C   0  0  0  0  0  0  0  0  0  0  0  0
  141.2720   80.9600  222.4500 C   0  0  0  0  0  0  0  0  0  0  0  0
  141.6340   81.6110  221.4080 O   0  0  0  0  0  0  0  0  0  0  0  0
  140.2050   80.0580  222.2670 N   0  0  0  0  0  0  0  0  0  0  0  0
  138.9650   80.4310  222.9270 C   0  0  0  0  0  0  0  0  0  0  0  0
  137.9470   81.0030  222.1860 C   0  0  0  0  0  0  0  0  0  0  0  0
  136.7420   81.3860  222.7370 C   0  0  0  0  0  0  0  0  0  0  0  0
  136.5630   81.1790  224.0910 C   0  0  0  0  0  0  0  0  0  0  0  0
  137.5710   80.6120  224.8300 C   0  0  0  0  0  0  0  0  0  0  0  0
  138.7880   80.2260  224.2740 C   0  0  0  0  0  0  0  0  0  0  0  0
  140.2040   78.8400  221.5330 C   0  0  0  0  0  0  0  0  0  0  0  0
  141.4560   78.0170  221.6210 C   0  0  0  0  0  0  0  0  0  0  0  0
  141.2660   76.8630  220.6170 C   0  0  0  0  0  0  0  0  0  0  0  0
  140.2240   76.0290  221.2310 N   0  0  0  0  0  0  0  0  0  0  0  0
  140.0810   74.7250  220.7340 C   0  0  0  0  0  0  0  0  0  0  0  0
  140.8420   74.3570  219.8060 O   0  0  0  0  0  0  0  0  0  0  0  0
  139.0880   73.7360  221.2250 C   0  0  2  0  0  0  0  0  0  0  0  0
  137.7240   74.3300  221.1480 C   0  0  0  0  0  0  0  0  0  0  0  0
  139.4890   73.4030  222.5730 N   0  0  0  0  0  0  0  0  0  0  0  0
  140.6660   72.5620  222.6360 C   0  0  0  0  0  0  0  0  0  0  0  0
  140.3650   71.5730  223.7350 C   0  0  0  0  0  0  0  0  0  0  0  0
  139.6240   70.4400  223.4570 C   0  0  0  0  0  0  0  0  0  0  0  0
  139.3440   69.5240  224.4680 C   0  0  0  0  0  0  0  0  0  0  0  0
  139.8150   69.7640  225.7370 C   0  0  0  0  0  0  0  0  0  0  0  0
  139.5210   68.8330  226.7300 C   0  0  0  0  0  0  0  0  0  0  0  0
  139.9880   69.0530  228.0270 C   0  0  0  0  0  0  0  0  0  0  0  0
  140.7270   70.1900  228.2830 C   0  0  0  0  0  0  0  0  0  0  0  0
  141.0170   71.1150  227.2880 C   0  0  0  0  0  0  0  0  0  0  0  0
  140.5560   70.9020  225.9990 C   0  0  0  0  0  0  0  0  0  0  0  0
  140.8440   71.8240  225.0060 C   0  0  0  0  0  0  0  0  0  0  0  0
  139.4190   76.5980  222.2990 C   0  0  0  0  0  0  0  0  0  0  0  0
  139.0010   78.0090  221.9390 C   0  0  0  0  0  0  0  0  0  0  0  0
  143.7702   80.2980  224.5399 H   0  0  0  0  0  0  0  0  0  0  0  0
  143.2207   79.5733  222.9909 H   0  0  0  0  0  0  0  0  0  0  0  0
  144.0672   81.1576  222.9909 H   0  0  0  0  0  0  0  0  0  0  0  0
  141.4584   80.8525  224.5533 H   0  0  0  0  0  0  0  0  0  0  0  0
  142.1436   82.3199  223.8363 H   0  0  0  0  0  0  0  0  0  0  0  0
  138.1055   81.1595  221.1088 H   0  0  0  0  0  0  0  0  0  0  0  0
  135.9521   81.8399  222.1205 H   0  0  0  0  0  0  0  0  0  0  0  0
  135.6178   81.4670  224.5743 H   0  0  0  0  0  0  0  0  0  0  0  0
  137.4108   80.4559  225.9070 H   0  0  0  0  0  0  0  0  0  0  0  0
  139.5786   79.7736  224.8906 H   0  0  0  0  0  0  0  0  0  0  0  0
  140.1512   79.1405  220.4762 H   0  0  0  0  0  0  0  0  0  0  0  0
  142.3331   78.6223  221.3485 H   0  0  0  0  0  0  0  0  0  0  0  0
  141.6266   77.6440  222.6417 H   0  0  0  0  0  0  0  0  0  0  0  0
  140.9363   77.2449  219.6395 H   0  0  0  0  0  0  0  0  0  0  0  0
  142.1966   76.3081  220.4272 H   0  0  0  0  0  0  0  0  0  0  0  0
  139.0544   72.8182  220.6196 H   0  0  0  0  0  0  0  0  0  0  0  0
  137.3391   74.4976  222.1647 H   0  0  0  0  0  0  0  0  0  0  0  0
  137.7715   75.2890  220.6112 H   0  0  0  0  0  0  0  0  0  0  0  0
  137.0543   73.6421  220.6112 H   0  0  0  0  0  0  0  0  0  0  0  0
  139.5770   74.2570  223.1260 H   0  0  0  0  0  0  0  0  0  0  0  0
  140.8250   72.0434  221.6790 H   0  0  0  0  0  0  0  0  0  0  0  0
  141.5822   73.1386  222.8314 H   0  0  0  0  0  0  0  0  0  0  0  0
  139.2550   70.2615  222.4362 H   0  0  0  0  0  0  0  0  0  0  0  0
  138.7539   68.6207  224.2540 H   0  0  0  0  0  0  0  0  0  0  0  0
  138.9287   67.9362  226.4955 H   0  0  0  0  0  0  0  0  0  0  0  0
  139.7710   68.3334  228.8301 H   0  0  0  0  0  0  0  0  0  0  0  0
  141.0967   70.3688  229.3035 H   0  0  0  0  0  0  0  0  0  0  0  0
  141.6095   72.0117  227.5223 H   0  0  0  0  0  0  0  0  0  0  0  0
  141.4347   72.7263  225.2226 H   0  0  0  0  0  0  0  0  0  0  0  0
  138.5218   75.9793  222.4478 H   0  0  0  0  0  0  0  0  0  0  0  0
  140.0133   76.6230  223.2243 H   0  0  0  0  0  0  0  0  0  0  0  0
  138.2891   77.9716  221.1013 H   0  0  0  0  0  0  0  0  0  0  0  0
  138.5323   78.4734  222.8191 H   0  0  0  0  0  0  0  0  0  0  0  0
  1  2  1  0
  2  3  1  0
  3  4  2  0
  3  5  1  0
  5  6  1  0
  6  7  2  0
  7  8  1  0
  8  9  2  0
  9 10  1  0
 10 11  2  0
  5 12  1  0
 12 13  1  0
 13 14  1  0
 14 15  1  0
 15 16  1  0
 16 17  2  0
 16 18  1  0
 18 19  1  0
 18 20  1  0
 20 21  1  0
 21 22  1  0
 22 23  2  0
 23 24  1  0
 24 25  2  0
 25 26  1  0
 26 27  2  0
 27 28  1  0
 28 29  2  0
 29 30  1  0
 30 31  2  0
 15 32  1  0
 32 33  1  0
 11  6  1  0
 33 12  1  0
 31 22  1  0
 30 25  1  0
  1 34  1  0
  1 35  1  0
  1 36  1  0
  2 37  1  0
  2 38  1  0
  7 39  1  0
  8 40  1  0
  9 41  1  0
 10 42  1  0
 11 43  1  0
 12 44  1  0
 13 45  1  0
 13 46  1  0
 14 47  1  0
 14 48  1  0
 18 49  1  6
 19 50  1  0
 19 51  1  0
 19 52  1  0
 20 53  1  0
 21 54  1  0
 21 55  1  0
 23 56  1  0
 24 57  1  0
 26 58  1  0
 27 59  1  0
 28 60  1  0
 29 61  1  0
 31 62  1  0
 32 63  1  0
 32 64  1  0
 33 65  1  0
 33 66  1  0
M  END
>  <smiles>  (50) 
CCC(=O)N(c1ccccc1)C1CCN(C(=O)[C@H](C)NCc2ccc3ccccc3c2)CC1

>  <score_type>  (50) 
oracle

>  <origin>  (50) 
autodockgpu

>  <m_score__min__energy>  (50) 
-9.3699999999999992

>  <m_primary>  (50) 
energy

>  <rmsd>  (50) 
8.483218588462407

>  <m_score__min__rmsd>  (50) 
8.483218588462407

>  <meeko>  (50) 
{"free_energy": -8.92, "intermolecular_energy": -11.31, "internal_energy": -1.61, "cluster_size": 7, "cluster_id": 2, "rank_in_cluster": 5}

>  <energy>  (50) 
-7.94

>  <cluster_rmsd>  (50) 
0.0

>  <cluster>  (50) 
6

$$$$
