
     RDKit          3D

 52 55  0  0  0  0  0  0  0  0999 V2000
  137.9940   71.0650  221.5760 O   0  0  0  0  0  0  0  0  0  0  0  0
  138.5910   71.7380  222.4530 C   0  0  0  0  0  0  0  0  0  0  0  0
  138.6280   73.1600  222.2260 N   0  0  0  0  0  0  0  0  0  0  0  0
  137.9660   73.6100  221.0080 C   0  0  0  0  0  0  0  0  0  0  0  0
  138.2550   75.0240  220.7130 C   0  0  0  0  0  0  0  0  0  0  0  0
  137.4550   75.8090  220.1390 O   0  0  0  0  0  0  0  0  0  0  0  0
  139.5230   75.5550  221.0950 N   0  0  0  0  0  0  0  0  0  0  0  0
  139.7480   76.2260  222.3460 C   0  0  0  0  0  0  0  0  0  0  0  0
  141.0550   76.9200  222.2350 C   0  0  2  0  0  0  0  0  0  0  0  0
  140.9970   78.3310  222.7330 C   0  0  0  0  0  0  0  0  0  0  0  0
  142.1880   79.0140  222.9560 C   0  0  0  0  0  0  0  0  0  0  0  0
  142.1800   80.3260  223.4210 C   0  0  0  0  0  0  0  0  0  0  0  0
  140.9760   80.9540  223.6620 C   0  0  0  0  0  0  0  0  0  0  0  0
  139.7960   80.2920  223.4460 C   0  0  0  0  0  0  0  0  0  0  0  0
  139.8090   78.9830  222.9830 C   0  0  0  0  0  0  0  0  0  0  0  0
  141.3970   76.8650  220.7770 C   0  0  0  0  0  0  0  0  0  0  0  0
  140.7790   75.5460  220.3750 C   0  0  1  0  0  0  0  0  0  0  0  0
  141.6640   74.4400  220.8940 C   0  0  0  0  0  0  0  0  0  0  0  0
  141.0770   73.7550  221.9830 O   0  0  0  0  0  0  0  0  0  0  0  0
  139.2140   71.1550  223.6350 C   0  0  0  0  0  0  0  0  0  0  0  0
  140.2630   71.8880  224.1980 C   0  0  0  0  0  0  0  0  0  0  0  0
  140.8800   71.3680  225.3170 C   0  0  0  0  0  0  0  0  0  0  0  0
  140.5000   70.1710  225.8840 C   0  0  0  0  0  0  0  0  0  0  0  0
  141.1000   69.6300  227.0010 C   0  0  0  0  0  0  0  0  0  0  0  0
  140.6960   68.4300  227.5440 C   0  0  0  0  0  0  0  0  0  0  0  0
  139.6470   67.7650  226.9220 C   0  0  0  0  0  0  0  0  0  0  0  0
  139.0180   68.2790  225.7960 C   0  0  0  0  0  0  0  0  0  0  0  0
  139.4610   69.4860  225.2910 C   0  0  0  0  0  0  0  0  0  0  0  0
  138.8540   70.0020  224.1870 N   0  0  0  0  0  0  0  0  0  0  0  0
  139.0970   73.8100  222.8940 H   0  0  0  0  0  0  0  0  0  0  0  0
  138.3138   72.9933  220.1661 H   0  0  0  0  0  0  0  0  0  0  0  0
  136.8805   73.5083  221.1539 H   0  0  0  0  0  0  0  0  0  0  0  0
  138.9468   76.9562  222.5328 H   0  0  0  0  0  0  0  0  0  0  0  0
  139.7525   75.5101  223.1811 H   0  0  0  0  0  0  0  0  0  0  0  0
  141.8194   76.4357  222.8604 H   0  0  0  0  0  0  0  0  0  0  0  0
  143.1473   78.5116  222.7626 H   0  0  0  0  0  0  0  0  0  0  0  0
  143.1270   80.8580  223.5950 H   0  0  0  0  0  0  0  0  0  0  0  0
  140.9630   81.9908  224.0292 H   0  0  0  0  0  0  0  0  0  0  0  0
  138.8384   80.7975  223.6394 H   0  0  0  0  0  0  0  0  0  0  0  0
  138.8570   78.4587  222.8133 H   0  0  0  0  0  0  0  0  0  0  0  0
  140.9473   77.7044  220.2264 H   0  0  0  0  0  0  0  0  0  0  0  0
  142.4737   76.9403  220.5646 H   0  0  0  0  0  0  0  0  0  0  0  0
  140.6537   75.4032  219.2915 H   0  0  0  0  0  0  0  0  0  0  0  0
  141.8479   73.7221  220.0811 H   0  0  0  0  0  0  0  0  0  0  0  0
  142.6021   74.8941  221.2458 H   0  0  0  0  0  0  0  0  0  0  0  0
  140.7730   72.8550  221.7260 H   0  0  0  0  0  0  0  0  0  0  0  0
  140.5852   72.8460  223.7639 H   0  0  0  0  0  0  0  0  0  0  0  0
  141.7073   71.9307  225.7742 H   0  0  0  0  0  0  0  0  0  0  0  0
  141.9297   70.1750  227.4749 H   0  0  0  0  0  0  0  0  0  0  0  0
  141.1858   68.0140  228.4368 H   0  0  0  0  0  0  0  0  0  0  0  0
  139.3049   66.8038  227.3332 H   0  0  0  0  0  0  0  0  0  0  0  0
  138.1877   67.7386  225.3180 H   0  0  0  0  0  0  0  0  0  0  0  0
  1  2  2  0
  2  3  1  0
  3  4  1  0
  4  5  1  0
  5  6  2  0
  5  7  1  0
  7  8  1  0
  8  9  1  0
  9 10  1  0
 10 11  2  0
 11 12  1  0
 12 13  2  0
 13 14  1  0
 14 15  2  0
  9 16  1  0
 16 17  1  0
 17 18  1  0
 18 19  1  0
  2 20  1  0
 20 21  2  0
 21 22  1  0
 22 23  2  0
 23 24  1  0
 24 25  2  0
 25 26  1  0
 26 27  2  0
 27 28  1  0
 28 29  2  0
 17  7  1  0
 29 20  1  0
 15 10  1  0
 28 23  1  0
  3 30  1  0
  4 31  1  0
  4 32  1  0
  8 33  1  0
  8 34  1  0
  9 35  1  1
 11 36  1  0
 12 37  1  0
 13 38  1  0
 14 39  1  0
 15 40  1  0
 16 41  1  0
 16 42  1  0
 17 43  1  6
 18 44  1  0
 18 45  1  0
 19 46  1  0
 21 47  1  0
 22 48  1  0
 24 49  1  0
 25 50  1  0
 26 51  1  0
 27 52  1  0
M  END
>  <smiles>  (1) 
O=C(NCC(=O)N1C[C@H](c2ccccc2)C[C@H]1CO)c1ccc2ccccc2n1

>  <score_type>  (1) 
oracle

>  <origin>  (1) 
autodockgpu

>  <m_score__min__energy>  (1) 
-9.0399999999999991

>  <m_primary>  (1) 
energy

>  <rmsd>  (1) 
3.284234668943908

>  <m_score__min__rmsd>  (1) 
3.284234668943908

>  <meeko>  (1) 
{"free_energy": -8.41, "intermolecular_energy": -10.5, "internal_energy": -2.09, "cluster_size": 31, "cluster_id": 1, "rank_in_cluster": 5}

>  <energy>  (1) 
-9.04

>  <cluster_rmsd>  (1) 
0.0

>  <cluster>  (1) 
1

$$$$

     RDKit          3D

 52 55  0  0  0  0  0  0  0  0999 V2000
  141.8180   71.4130  220.7620 O   0  0  0  0  0  0  0  0  0  0  0  0
  140.7900   72.1350  220.7850 C   0  0  0  0  0  0  0  0  0  0  0  0
  139.5490   71.4560  220.5120 N   0  0  0  0  0  0  0  0  0  0  0  0
  139.6700   70.0270  220.2470 C   0  0  0  0  0  0  0  0  0  0  0  0
  139.4370   69.2210  221.4570 C   0  0  0  0  0  0  0  0  0  0  0  0
  139.5820   67.9710  221.5180 O   0  0  0  0  0  0  0  0  0  0  0  0
  139.0190   69.8850  222.6500 N   0  0  0  0  0  0  0  0  0  0  0  0
  139.9400   70.4360  223.6050 C   0  0  0  0  0  0  0  0  0  0  0  0
  139.1640   70.7230  224.8370 C   0  0  2  0  0  0  0  0  0  0  0  0
  139.8570   70.2430  226.0740 C   0  0  0  0  0  0  0  0  0  0  0  0
  139.8940   68.8780  226.3370 C   0  0  0  0  0  0  0  0  0  0  0  0
  140.5260   68.3890  227.4770 C   0  0  0  0  0  0  0  0  0  0  0  0
  141.1220   69.2710  228.3540 C   0  0  0  0  0  0  0  0  0  0  0  0
  141.0920   70.6180  228.1070 C   0  0  0  0  0  0  0  0  0  0  0  0
  140.4600   71.1010  226.9690 C   0  0  0  0  0  0  0  0  0  0  0  0
  137.8520   70.0260  224.6370 C   0  0  0  0  0  0  0  0  0  0  0  0
  137.6800   70.1380  223.1390 C   0  0  1  0  0  0  0  0  0  0  0  0
  137.2750   71.5560  222.8230 C   0  0  0  0  0  0  0  0  0  0  0  0
  138.3930   72.3940  222.6030 O   0  0  0  0  0  0  0  0  0  0  0  0
  140.8110   73.5650  221.0670 C   0  0  0  0  0  0  0  0  0  0  0  0
  141.9310   74.2630  220.6060 C   0  0  0  0  0  0  0  0  0  0  0  0
  141.9890   75.6190  220.8550 C   0  0  0  0  0  0  0  0  0  0  0  0
  140.9940   76.2910  221.5310 C   0  0  0  0  0  0  0  0  0  0  0  0
  141.0270   77.6440  221.7920 C   0  0  0  0  0  0  0  0  0  0  0  0
  140.0150   78.2880  222.4700 C   0  0  0  0  0  0  0  0  0  0  0  0
  138.9370   77.5200  222.8930 C   0  0  0  0  0  0  0  0  0  0  0  0
  138.8680   76.1540  222.6490 C   0  0  0  0  0  0  0  0  0  0  0  0
  139.9100   75.5580  221.9640 C   0  0  0  0  0  0  0  0  0  0  0  0
  139.8560   74.2210  221.7170 N   0  0  0  0  0  0  0  0  0  0  0  0
  138.6370   71.9620  220.5070 H   0  0  0  0  0  0  0  0  0  0  0  0
  138.9308   69.7434  219.4833 H   0  0  0  0  0  0  0  0  0  0  0  0
  140.6952   69.8310  219.8998 H   0  0  0  0  0  0  0  0  0  0  0  0
  140.7389   69.7115  223.8214 H   0  0  0  0  0  0  0  0  0  0  0  0
  140.4114   71.3501  223.2149 H   0  0  0  0  0  0  0  0  0  0  0  0
  139.0417   71.8056  224.9888 H   0  0  0  0  0  0  0  0  0  0  0  0
  139.4183   68.1763  225.6360 H   0  0  0  0  0  0  0  0  0  0  0  0
  140.5498   67.3076  227.6768 H   0  0  0  0  0  0  0  0  0  0  0  0
  141.6238   68.8909  229.2561 H   0  0  0  0  0  0  0  0  0  0  0  0
  141.5685   71.3169  228.8101 H   0  0  0  0  0  0  0  0  0  0  0  0
  140.4401   72.1842  226.7787 H   0  0  0  0  0  0  0  0  0  0  0  0
  137.9014   68.9753  224.9589 H   0  0  0  0  0  0  0  0  0  0  0  0
  137.0221   70.4543  225.2182 H   0  0  0  0  0  0  0  0  0  0  0  0
  136.9276   69.4625  222.7058 H   0  0  0  0  0  0  0  0  0  0  0  0
  136.6509   71.5528  221.9172 H   0  0  0  0  0  0  0  0  0  0  0  0
  136.7221   71.9504  223.6883 H   0  0  0  0  0  0  0  0  0  0  0  0
  138.1890   73.3350  222.8030 H   0  0  0  0  0  0  0  0  0  0  0  0
  142.7382   73.7491  220.0635 H   0  0  0  0  0  0  0  0  0  0  0  0
  142.8629   76.1851  220.5003 H   0  0  0  0  0  0  0  0  0  0  0  0
  141.8915   78.2302  221.4470 H   0  0  0  0  0  0  0  0  0  0  0  0
  140.0588   79.3690  222.6688 H   0  0  0  0  0  0  0  0  0  0  0  0
  138.1145   78.0076  223.4368 H   0  0  0  0  0  0  0  0  0  0  0  0
  138.0065   75.5623  222.9920 H   0  0  0  0  0  0  0  0  0  0  0  0
  1  2  2  0
  2  3  1  0
  3  4  1  0
  4  5  1  0
  5  6  2  0
  5  7  1  0
  7  8  1  0
  8  9  1  0
  9 10  1  0
 10 11  2  0
 11 12  1  0
 12 13  2  0
 13 14  1  0
 14 15  2  0
  9 16  1  0
 16 17  1  0
 17 18  1  0
 18 19  1  0
  2 20  1  0
 20 21  2  0
 21 22  1  0
 22 23  2  0
 23 24  1  0
 24 25  2  0
 25 26  1  0
 26 27  2  0
 27 28  1  0
 28 29  2  0
 17  7  1  0
 29 20  1  0
 15 10  1  0
 28 23  1  0
  3 30  1  0
  4 31  1  0
  4 32  1  0
  8 33  1  0
  8 34  1  0
  9 35  1  1
 11 36  1  0
 12 37  1  0
 13 38  1  0
 14 39  1  0
 15 40  1  0
 16 41  1  0
 16 42  1  0
 17 43  1  6
 18 44  1  0
 18 45  1  0
 19 46  1  0
 21 47  1  0
 22 48  1  0
 24 49  1  0
 25 50  1  0
 26 51  1  0
 27 52  1  0
M  END
>  <smiles>  (2) 
O=C(NCC(=O)N1C[C@H](c2ccccc2)C[C@H]1CO)c1ccc2ccccc2n1

>  <score_type>  (2) 
oracle

>  <origin>  (2) 
autodockgpu

>  <m_score__min__energy>  (2) 
-9.0399999999999991

>  <m_primary>  (2) 
energy

>  <rmsd>  (2) 
7.628506641309602

>  <m_score__min__rmsd>  (2) 
7.628506641309602

>  <meeko>  (2) 
{"free_energy": -6.85, "intermolecular_energy": -8.94, "internal_energy": -2.89, "cluster_size": 18, "cluster_id": 2, "rank_in_cluster": 18}

>  <energy>  (2) 
-8.58

>  <cluster_rmsd>  (2) 
0.5

>  <cluster>  (2) 
1

$$$$

     RDKit          3D

 52 55  0  0  0  0  0  0  0  0999 V2000
  141.2380   74.6520  221.3460 O   0  0  0  0  0  0  0  0  0  0  0  0
  140.3090   75.2340  221.9600 C   0  0  0  0  0  0  0  0  0  0  0  0
  139.1850   74.4060  222.3130 N   0  0  0  0  0  0  0  0  0  0  0  0
  139.2910   73.0100  221.9050 C   0  0  0  0  0  0  0  0  0  0  0  0
  138.0450   72.2660  222.1560 C   0  0  0  0  0  0  0  0  0  0  0  0
  136.8950   72.6830  221.8570 O   0  0  0  0  0  0  0  0  0  0  0  0
  138.1280   70.9850  222.7800 N   0  0  0  0  0  0  0  0  0  0  0  0
  137.9700   70.7900  224.1950 C   0  0  0  0  0  0  0  0  0  0  0  0
  138.4540   69.4210  224.4990 C   0  0  2  0  0  0  0  0  0  0  0  0
  139.3550   69.3850  225.6940 C   0  0  0  0  0  0  0  0  0  0  0  0
  139.9640   70.5640  226.1120 C   0  0  0  0  0  0  0  0  0  0  0  0
  140.8100   70.5750  227.2170 C   0  0  0  0  0  0  0  0  0  0  0  0
  141.0470   69.4020  227.9040 C   0  0  0  0  0  0  0  0  0  0  0  0
  140.4530   68.2340  227.5010 C   0  0  0  0  0  0  0  0  0  0  0  0
  139.6100   68.2280  226.3990 C   0  0  0  0  0  0  0  0  0  0  0  0
  139.1710   68.9820  223.2580 C   0  0  0  0  0  0  0  0  0  0  0  0
  138.3710   69.6870  222.1860 C   0  0  1  0  0  0  0  0  0  0  0  0
  137.0690   68.9470  222.0140 C   0  0  0  0  0  0  0  0  0  0  0  0
  136.0420   69.7820  221.5170 O   0  0  0  0  0  0  0  0  0  0  0  0
  140.3320   76.6490  222.3090 C   0  0  0  0  0  0  0  0  0  0  0  0
  139.0850   77.2680  222.4370 C   0  0  0  0  0  0  0  0  0  0  0  0
  139.0650   78.6080  222.7650 C   0  0  0  0  0  0  0  0  0  0  0  0
  140.2160   79.3390  222.9660 C   0  0  0  0  0  0  0  0  0  0  0  0
  140.2230   80.6780  223.2940 C   0  0  0  0  0  0  0  0  0  0  0  0
  141.3910   81.3810  223.4890 C   0  0  0  0  0  0  0  0  0  0  0  0
  142.5880   80.6900  223.3420 C   0  0  0  0  0  0  0  0  0  0  0  0
  142.6210   79.3410  223.0120 C   0  0  0  0  0  0  0  0  0  0  0  0
  141.4200   78.6830  222.8280 C   0  0  0  0  0  0  0  0  0  0  0  0
  141.4370   77.3610  222.5040 N   0  0  0  0  0  0  0  0  0  0  0  0
  138.3610   74.7890  222.8260 H   0  0  0  0  0  0  0  0  0  0  0  0
  139.5177   72.9706  220.8293 H   0  0  0  0  0  0  0  0  0  0  0  0
  140.0912   72.5425  222.4975 H   0  0  0  0  0  0  0  0  0  0  0  0
  138.5643   71.5326  224.7477 H   0  0  0  0  0  0  0  0  0  0  0  0
  136.9182   70.9107  224.4937 H   0  0  0  0  0  0  0  0  0  0  0  0
  137.6207   68.7513  224.7582 H   0  0  0  0  0  0  0  0  0  0  0  0
  139.7747   71.4981  225.5628 H   0  0  0  0  0  0  0  0  0  0  0  0
  141.2864   71.5122  227.5405 H   0  0  0  0  0  0  0  0  0  0  0  0
  141.7148   69.4041  228.7781 H   0  0  0  0  0  0  0  0  0  0  0  0
  140.6448   67.3012  228.0516 H   0  0  0  0  0  0  0  0  0  0  0  0
  139.1380   67.2859  226.0831 H   0  0  0  0  0  0  0  0  0  0  0  0
  140.2199   69.3135  223.2608 H   0  0  0  0  0  0  0  0  0  0  0  0
  139.2265   67.8905  223.1330 H   0  0  0  0  0  0  0  0  0  0  0  0
  138.8621   69.7464  221.2035 H   0  0  0  0  0  0  0  0  0  0  0  0
  137.2236   68.1173  221.3085 H   0  0  0  0  0  0  0  0  0  0  0  0
  136.7565   68.5790  223.0024 H   0  0  0  0  0  0  0  0  0  0  0  0
  136.2330   70.7330  221.6820 H   0  0  0  0  0  0  0  0  0  0  0  0
  138.1522   76.7062  222.2816 H   0  0  0  0  0  0  0  0  0  0  0  0
  138.0931   79.1123  222.8701 H   0  0  0  0  0  0  0  0  0  0  0  0
  139.2626   81.2029  223.4037 H   0  0  0  0  0  0  0  0  0  0  0  0
  141.3772   82.4492  223.7512 H   0  0  0  0  0  0  0  0  0  0  0  0
  143.5365   81.2268  223.4913 H   0  0  0  0  0  0  0  0  0  0  0  0
  143.5781   78.8106  222.9001 H   0  0  0  0  0  0  0  0  0  0  0  0
  1  2  2  0
  2  3  1  0
  3  4  1  0
  4  5  1  0
  5  6  2  0
  5  7  1  0
  7  8  1  0
  8  9  1  0
  9 10  1  0
 10 11  2  0
 11 12  1  0
 12 13  2  0
 13 14  1  0
 14 15  2  0
  9 16  1  0
 16 17  1  0
 17 18  1  0
 18 19  1  0
  2 20  1  0
 20 21  2  0
 21 22  1  0
 22 23  2  0
 23 24  1  0
 24 25  2  0
 25 26  1  0
 26 27  2  0
 27 28  1  0
 28 29  2  0
 17  7  1  0
 29 20  1  0
 15 10  1  0
 28 23  1  0
  3 30  1  0
  4 31  1  0
  4 32  1  0
  8 33  1  0
  8 34  1  0
  9 35  1  1
 11 36  1  0
 12 37  1  0
 13 38  1  0
 14 39  1  0
 15 40  1  0
 16 41  1  0
 16 42  1  0
 17 43  1  6
 18 44  1  0
 18 45  1  0
 19 46  1  0
 21 47  1  0
 22 48  1  0
 24 49  1  0
 25 50  1  0
 26 51  1  0
 27 52  1  0
M  END
>  <smiles>  (3) 
O=C(NCC(=O)N1C[C@H](c2ccccc2)C[C@H]1CO)c1ccc2ccccc2n1

>  <score_type>  (3) 
oracle

>  <origin>  (3) 
autodockgpu

>  <m_score__min__energy>  (3) 
-9.0399999999999991

>  <m_primary>  (3) 
energy

>  <rmsd>  (3) 
8.504683676431837

>  <m_score__min__rmsd>  (3) 
8.504683676431837

>  <meeko>  (3) 
{"free_energy": -7.87, "intermolecular_energy": -9.96, "internal_energy": -2.03, "cluster_size": 18, "cluster_id": 2, "rank_in_cluster": 16}

>  <energy>  (3) 
-8.54

>  <cluster_rmsd>  (3) 
1.4

>  <cluster>  (3) 
1

$$$$

     RDKit          3D

 52 55  0  0  0  0  0  0  0  0999 V2000
  139.1550   72.2800  221.3530 O   0  0  0  0  0  0  0  0  0  0  0  0
  140.1130   72.1670  222.1580 C   0  0  0  0  0  0  0  0  0  0  0  0
  141.3550   72.7610  221.7320 N   0  0  0  0  0  0  0  0  0  0  0  0
  141.3160   73.4070  220.4260 C   0  0  0  0  0  0  0  0  0  0  0  0
  141.8540   74.7770  220.4720 C   0  0  0  0  0  0  0  0  0  0  0  0
  143.0040   75.1040  220.0740 O   0  0  0  0  0  0  0  0  0  0  0  0
  141.0310   75.8160  221.0000 N   0  0  0  0  0  0  0  0  0  0  0  0
  141.3010   77.2130  220.7930 C   0  0  0  0  0  0  0  0  0  0  0  0
  140.4560   77.9630  221.7540 C   0  0  2  0  0  0  0  0  0  0  0  0
  141.2170   79.0360  222.4680 C   0  0  0  0  0  0  0  0  0  0  0  0
  140.5100   80.0050  223.1730 C   0  0  0  0  0  0  0  0  0  0  0  0
  141.1780   81.0220  223.8500 C   0  0  0  0  0  0  0  0  0  0  0  0
  142.5560   81.0680  223.8190 C   0  0  0  0  0  0  0  0  0  0  0  0
  143.2630   80.1200  223.1270 C   0  0  0  0  0  0  0  0  0  0  0  0
  142.5930   79.1070  222.4540 C   0  0  0  0  0  0  0  0  0  0  0  0
  139.9430   76.9260  222.7070 C   0  0  0  0  0  0  0  0  0  0  0  0
  139.8300   75.7190  221.8030 C   0  0  1  0  0  0  0  0  0  0  0  0
  138.6120   75.9030  220.9330 C   0  0  0  0  0  0  0  0  0  0  0  0
  138.2780   74.7240  220.2280 O   0  0  0  0  0  0  0  0  0  0  0  0
  140.0140   71.4900  223.4450 C   0  0  0  0  0  0  0  0  0  0  0  0
  139.2100   70.3470  223.4750 C   0  0  0  0  0  0  0  0  0  0  0  0
  139.0890   69.6800  224.6760 C   0  0  0  0  0  0  0  0  0  0  0  0
  139.7260   70.0980  225.8240 C   0  0  0  0  0  0  0  0  0  0  0  0
  139.6220   69.4490  227.0360 C   0  0  0  0  0  0  0  0  0  0  0  0
  140.2720   69.8930  228.1660 C   0  0  0  0  0  0  0  0  0  0  0  0
  141.0520   71.0370  228.0500 C   0  0  0  0  0  0  0  0  0  0  0  0
  141.1810   71.7180  226.8470 C   0  0  0  0  0  0  0  0  0  0  0  0
  140.5080   71.2300  225.7430 C   0  0  0  0  0  0  0  0  0  0  0  0
  140.6250   71.8870  224.5560 N   0  0  0  0  0  0  0  0  0  0  0  0
  142.2120   72.7260  222.3260 H   0  0  0  0  0  0  0  0  0  0  0  0
  141.9142   72.8141  219.7185 H   0  0  0  0  0  0  0  0  0  0  0  0
  140.2649   73.4653  220.1070 H   0  0  0  0  0  0  0  0  0  0  0  0
  142.3643   77.4243  220.9794 H   0  0  0  0  0  0  0  0  0  0  0  0
  141.0757   77.5080  219.7575 H   0  0  0  0  0  0  0  0  0  0  0  0
  139.6419   78.4947  221.2396 H   0  0  0  0  0  0  0  0  0  0  0  0
  139.4109   79.9672  223.1958 H   0  0  0  0  0  0  0  0  0  0  0  0
  140.6107   81.7833  224.4056 H   0  0  0  0  0  0  0  0  0  0  0  0
  143.0896   81.8688  224.3519 H   0  0  0  0  0  0  0  0  0  0  0  0
  144.3620   80.1615  223.1046 H   0  0  0  0  0  0  0  0  0  0  0  0
  143.1691   78.3501  221.9016 H   0  0  0  0  0  0  0  0  0  0  0  0
  140.6527   76.7483  223.5284 H   0  0  0  0  0  0  0  0  0  0  0  0
  139.0034   77.2017  223.2082 H   0  0  0  0  0  0  0  0  0  0  0  0
  139.7358   74.7549  222.3242 H   0  0  0  0  0  0  0  0  0  0  0  0
  137.7615   76.1884  221.5695 H   0  0  0  0  0  0  0  0  0  0  0  0
  138.8389   76.6860  220.1945 H   0  0  0  0  0  0  0  0  0  0  0  0
  138.5410   73.9150  220.7240 H   0  0  0  0  0  0  0  0  0  0  0  0
  138.6918   69.9919  222.5720 H   0  0  0  0  0  0  0  0  0  0  0  0
  138.4593   68.7791  224.7191 H   0  0  0  0  0  0  0  0  0  0  0  0
  138.9983   68.5454  227.1027 H   0  0  0  0  0  0  0  0  0  0  0  0
  140.1772   69.3618  229.1246 H   0  0  0  0  0  0  0  0  0  0  0  0
  141.5826   71.4140  228.9368 H   0  0  0  0  0  0  0  0  0  0  0  0
  141.8028   72.6225  226.7745 H   0  0  0  0  0  0  0  0  0  0  0  0
  1  2  2  0
  2  3  1  0
  3  4  1  0
  4  5  1  0
  5  6  2  0
  5  7  1  0
  7  8  1  0
  8  9  1  0
  9 10  1  0
 10 11  2  0
 11 12  1  0
 12 13  2  0
 13 14  1  0
 14 15  2  0
  9 16  1  0
 16 17  1  0
 17 18  1  0
 18 19  1  0
  2 20  1  0
 20 21  2  0
 21 22  1  0
 22 23  2  0
 23 24  1  0
 24 25  2  0
 25 26  1  0
 26 27  2  0
 27 28  1  0
 28 29  2  0
 17  7  1  0
 29 20  1  0
 15 10  1  0
 28 23  1  0
  3 30  1  0
  4 31  1  0
  4 32  1  0
  8 33  1  0
  8 34  1  0
  9 35  1  6
 11 36  1  0
 12 37  1  0
 13 38  1  0
 14 39  1  0
 15 40  1  0
 16 41  1  0
 16 42  1  0
 17 43  1  1
 18 44  1  0
 18 45  1  0
 19 46  1  0
 21 47  1  0
 22 48  1  0
 24 49  1  0
 25 50  1  0
 26 51  1  0
 27 52  1  0
M  END
>  <smiles>  (4) 
O=C(NCC(=O)N1C[C@H](c2ccccc2)C[C@H]1CO)c1ccc2ccccc2n1

>  <score_type>  (4) 
oracle

>  <origin>  (4) 
autodockgpu

>  <m_score__min__energy>  (4) 
-9.0399999999999991

>  <m_primary>  (4) 
energy

>  <rmsd>  (4) 
3.0574881142720285

>  <m_score__min__rmsd>  (4) 
3.0574881142720285

>  <meeko>  (4) 
{"free_energy": -7.82, "intermolecular_energy": -9.9, "internal_energy": -2.32, "cluster_size": 31, "cluster_id": 1, "rank_in_cluster": 17}

>  <energy>  (4) 
-8.5

>  <cluster_rmsd>  (4) 
0.51

>  <cluster>  (4) 
1

$$$$

     RDKit          3D

 52 55  0  0  0  0  0  0  0  0999 V2000
  138.3050   74.9680  222.2870 O   0  0  0  0  0  0  0  0  0  0  0  0
  139.4190   75.5060  222.0670 C   0  0  0  0  0  0  0  0  0  0  0  0
  140.3850   74.6770  221.3930 N   0  0  0  0  0  0  0  0  0  0  0  0
  139.9260   73.3330  221.0640 C   0  0  0  0  0  0  0  0  0  0  0  0
  140.5520   72.3110  221.9190 C   0  0  0  0  0  0  0  0  0  0  0  0
  141.7920   72.0930  221.9750 O   0  0  0  0  0  0  0  0  0  0  0  0
  139.7140   71.5050  222.7460 N   0  0  0  0  0  0  0  0  0  0  0  0
  139.7810   71.5190  224.1810 C   0  0  0  0  0  0  0  0  0  0  0  0
  139.0260   70.3340  224.6600 C   0  0  2  0  0  0  0  0  0  0  0  0
  139.7650   69.5730  225.7170 C   0  0  0  0  0  0  0  0  0  0  0  0
  139.8190   68.1860  225.6320 C   0  0  0  0  0  0  0  0  0  0  0  0
  140.4940   67.4400  226.5950 C   0  0  0  0  0  0  0  0  0  0  0  0
  141.1150   68.0870  227.6430 C   0  0  0  0  0  0  0  0  0  0  0  0
  141.0690   69.4530  227.7370 C   0  0  0  0  0  0  0  0  0  0  0  0
  140.3950   70.1930  226.7750 C   0  0  0  0  0  0  0  0  0  0  0  0
  138.8050   69.4980  223.4350 C   0  0  0  0  0  0  0  0  0  0  0  0
  138.6840   70.5600  222.3660 C   0  0  1  0  0  0  0  0  0  0  0  0
  137.3240   71.2000  222.4980 C   0  0  0  0  0  0  0  0  0  0  0  0
  137.3820   72.6070  222.3690 O   0  0  0  0  0  0  0  0  0  0  0  0
  139.7490   76.8730  222.4520 C   0  0  0  0  0  0  0  0  0  0  0  0
  138.6640   77.7180  222.6990 C   0  0  0  0  0  0  0  0  0  0  0  0
  138.9360   79.0200  223.0650 C   0  0  0  0  0  0  0  0  0  0  0  0
  140.2200   79.5020  223.1900 C   0  0  0  0  0  0  0  0  0  0  0  0
  140.5190   80.7980  223.5540 C   0  0  0  0  0  0  0  0  0  0  0  0
  141.8150   81.2480  223.6710 C   0  0  0  0  0  0  0  0  0  0  0  0
  142.8360   80.3430  223.4070 C   0  0  0  0  0  0  0  0  0  0  0  0
  142.5740   79.0300  223.0390 C   0  0  0  0  0  0  0  0  0  0  0  0
  141.2560   78.6290  222.9360 C   0  0  0  0  0  0  0  0  0  0  0  0
  140.9850   77.3440  222.5750 N   0  0  0  0  0  0  0  0  0  0  0  0
  141.3400   75.0260  221.1600 H   0  0  0  0  0  0  0  0  0  0  0  0
  138.8351   73.2878  221.1975 H   0  0  0  0  0  0  0  0  0  0  0  0
  140.2087   73.1233  220.0218 H   0  0  0  0  0  0  0  0  0  0  0  0
  140.8285   71.4589  224.5113 H   0  0  0  0  0  0  0  0  0  0  0  0
  139.3534   72.4481  224.5859 H   0  0  0  0  0  0  0  0  0  0  0  0
  138.0812   70.6297  225.1395 H   0  0  0  0  0  0  0  0  0  0  0  0
  139.3232   67.6725  224.7950 H   0  0  0  0  0  0  0  0  0  0  0  0
  140.5316   66.3432  226.5204 H   0  0  0  0  0  0  0  0  0  0  0  0
  141.6497   67.5034  228.4069 H   0  0  0  0  0  0  0  0  0  0  0  0
  141.5662   69.9636  228.5749 H   0  0  0  0  0  0  0  0  0  0  0  0
  140.3632   71.2894  226.8581 H   0  0  0  0  0  0  0  0  0  0  0  0
  139.6583   68.8306  223.2442 H   0  0  0  0  0  0  0  0  0  0  0  0
  137.9370   68.8254  223.5005 H   0  0  0  0  0  0  0  0  0  0  0  0
  138.7917   70.1948  221.3340 H   0  0  0  0  0  0  0  0  0  0  0  0
  136.6659   70.7989  221.7131 H   0  0  0  0  0  0  0  0  0  0  0  0
  136.9371   70.9681  223.5013 H   0  0  0  0  0  0  0  0  0  0  0  0
  137.8850   73.0210  223.1060 H   0  0  0  0  0  0  0  0  0  0  0  0
  137.6290   77.3576  222.6049 H   0  0  0  0  0  0  0  0  0  0  0  0
  138.0945   79.6997  223.2648 H   0  0  0  0  0  0  0  0  0  0  0  0
  139.6938   81.4962  223.7579 H   0  0  0  0  0  0  0  0  0  0  0  0
  142.0341   82.2857  223.9627 H   0  0  0  0  0  0  0  0  0  0  0  0
  143.8809   80.6761  223.4919 H   0  0  0  0  0  0  0  0  0  0  0  0
  143.3950   78.3270  222.8347 H   0  0  0  0  0  0  0  0  0  0  0  0
  1  2  2  0
  2  3  1  0
  3  4  1  0
  4  5  1  0
  5  6  2  0
  5  7  1  0
  7  8  1  0
  8  9  1  0
  9 10  1  0
 10 11  2  0
 11 12  1  0
 12 13  2  0
 13 14  1  0
 14 15  2  0
  9 16  1  0
 16 17  1  0
 17 18  1  0
 18 19  1  0
  2 20  1  0
 20 21  2  0
 21 22  1  0
 22 23  2  0
 23 24  1  0
 24 25  2  0
 25 26  1  0
 26 27  2  0
 27 28  1  0
 28 29  2  0
 17  7  1  0
 29 20  1  0
 15 10  1  0
 28 23  1  0
  3 30  1  0
  4 31  1  0
  4 32  1  0
  8 33  1  0
  8 34  1  0
  9 35  1  1
 11 36  1  0
 12 37  1  0
 13 38  1  0
 14 39  1  0
 15 40  1  0
 16 41  1  0
 16 42  1  0
 17 43  1  6
 18 44  1  0
 18 45  1  0
 19 46  1  0
 21 47  1  0
 22 48  1  0
 24 49  1  0
 25 50  1  0
 26 51  1  0
 27 52  1  0
M  END
>  <smiles>  (5) 
O=C(NCC(=O)N1C[C@H](c2ccccc2)C[C@H]1CO)c1ccc2ccccc2n1

>  <score_type>  (5) 
oracle

>  <origin>  (5) 
autodockgpu

>  <m_score__min__energy>  (5) 
-9.0399999999999991

>  <m_primary>  (5) 
energy

>  <rmsd>  (5) 
8.358420700870285

>  <m_score__min__rmsd>  (5) 
8.358420700870285

>  <meeko>  (5) 
{"free_energy": -8.52, "intermolecular_energy": -10.61, "internal_energy": -2.21, "cluster_size": 18, "cluster_id": 2, "rank_in_cluster": 13}

>  <energy>  (5) 
-8.41

>  <cluster_rmsd>  (5) 
1.59

>  <cluster>  (5) 
1

$$$$

     RDKit          3D

 52 55  0  0  0  0  0  0  0  0999 V2000
  141.1750   72.7720  221.9790 O   0  0  0  0  0  0  0  0  0  0  0  0
  140.1650   72.5630  222.6970 C   0  0  0  0  0  0  0  0  0  0  0  0
  138.9920   73.3240  222.3540 N   0  0  0  0  0  0  0  0  0  0  0  0
  139.1490   74.2270  221.2200 C   0  0  0  0  0  0  0  0  0  0  0  0
  139.1220   75.6400  221.6320 C   0  0  0  0  0  0  0  0  0  0  0  0
  138.1980   76.1680  222.3070 O   0  0  0  0  0  0  0  0  0  0  0  0
  140.2070   76.4840  221.2490 N   0  0  0  0  0  0  0  0  0  0  0  0
  141.0580   77.1480  222.1980 C   0  0  0  0  0  0  0  0  0  0  0  0
  141.8230   78.1750  221.4480 C   0  0  2  0  0  0  0  0  0  0  0  0
  141.8390   79.4990  222.1470 C   0  0  0  0  0  0  0  0  0  0  0  0
  142.6160   79.6450  223.2910 C   0  0  0  0  0  0  0  0  0  0  0  0
  142.6590   80.8580  223.9730 C   0  0  0  0  0  0  0  0  0  0  0  0
  141.9200   81.9250  223.5070 C   0  0  0  0  0  0  0  0  0  0  0  0
  141.1500   81.7940  222.3810 C   0  0  0  0  0  0  0  0  0  0  0  0
  141.1110   80.5830  221.7040 C   0  0  0  0  0  0  0  0  0  0  0  0
  141.1410   78.2650  220.1160 C   0  0  0  0  0  0  0  0  0  0  0  0
  140.6700   76.8420  219.9240 C   0  0  1  0  0  0  0  0  0  0  0  0
  141.8670   76.0020  219.5520 C   0  0  0  0  0  0  0  0  0  0  0  0
  142.2350   75.1110  220.5850 O   0  0  0  0  0  0  0  0  0  0  0  0
  140.1440   71.6220  223.8110 C   0  0  0  0  0  0  0  0  0  0  0  0
  139.5810   70.3710  223.5440 C   0  0  0  0  0  0  0  0  0  0  0  0
  139.5420   69.4540  224.5740 C   0  0  0  0  0  0  0  0  0  0  0  0
  140.0310   69.7300  225.8320 C   0  0  0  0  0  0  0  0  0  0  0  0
  140.0040   68.8320  226.8780 C   0  0  0  0  0  0  0  0  0  0  0  0
  140.5020   69.1390  228.1240 C   0  0  0  0  0  0  0  0  0  0  0  0
  141.0440   70.4050  228.3050 C   0  0  0  0  0  0  0  0  0  0  0  0
  141.0900   71.3370  227.2760 C   0  0  0  0  0  0  0  0  0  0  0  0
  140.5760   70.9780  226.0440 C   0  0  0  0  0  0  0  0  0  0  0  0
  140.6140   71.8810  225.0260 N   0  0  0  0  0  0  0  0  0  0  0  0
  138.0990   73.2260  222.8860 H   0  0  0  0  0  0  0  0  0  0  0  0
  140.1117   74.0182  220.7305 H   0  0  0  0  0  0  0  0  0  0  0  0
  138.3076   74.0577  220.5320 H   0  0  0  0  0  0  0  0  0  0  0  0
  140.4507   77.6258  222.9809 H   0  0  0  0  0  0  0  0  0  0  0  0
  141.7353   76.4323  222.6870 H   0  0  0  0  0  0  0  0  0  0  0  0
  142.8831   77.8963  221.3555 H   0  0  0  0  0  0  0  0  0  0  0  0
  143.2036   78.7920  223.6615 H   0  0  0  0  0  0  0  0  0  0  0  0
  143.2775   80.9644  224.8764 H   0  0  0  0  0  0  0  0  0  0  0  0
  141.9487   82.8859  224.0417 H   0  0  0  0  0  0  0  0  0  0  0  0
  140.5628   82.6486  222.0137 H   0  0  0  0  0  0  0  0  0  0  0  0
  140.4903   80.4866  220.8010 H   0  0  0  0  0  0  0  0  0  0  0  0
  140.2955   78.9681  220.1438 H   0  0  0  0  0  0  0  0  0  0  0  0
  141.7849   78.6382  219.3060 H   0  0  0  0  0  0  0  0  0  0  0  0
  139.9029   76.7074  219.1472 H   0  0  0  0  0  0  0  0  0  0  0  0
  141.6247   75.4193  218.6510 H   0  0  0  0  0  0  0  0  0  0  0  0
  142.7139   76.6809  219.3737 H   0  0  0  0  0  0  0  0  0  0  0  0
  142.6140   75.5850  221.3590 H   0  0  0  0  0  0  0  0  0  0  0  0
  139.1831   70.1263  222.5481 H   0  0  0  0  0  0  0  0  0  0  0  0
  139.1032   68.4635  224.3833 H   0  0  0  0  0  0  0  0  0  0  0  0
  139.5693   67.8355  226.7109 H   0  0  0  0  0  0  0  0  0  0  0  0
  140.4718   68.4087  228.9460 H   0  0  0  0  0  0  0  0  0  0  0  0
  141.4483   70.6773  229.2911 H   0  0  0  0  0  0  0  0  0  0  0  0
  141.5241   72.3347  227.4373 H   0  0  0  0  0  0  0  0  0  0  0  0
  1  2  2  0
  2  3  1  0
  3  4  1  0
  4  5  1  0
  5  6  2  0
  5  7  1  0
  7  8  1  0
  8  9  1  0
  9 10  1  0
 10 11  2  0
 11 12  1  0
 12 13  2  0
 13 14  1  0
 14 15  2  0
  9 16  1  0
 16 17  1  0
 17 18  1  0
 18 19  1  0
  2 20  1  0
 20 21  2  0
 21 22  1  0
 22 23  2  0
 23 24  1  0
 24 25  2  0
 25 26  1  0
 26 27  2  0
 27 28  1  0
 28 29  2  0
 17  7  1  0
 29 20  1  0
 15 10  1  0
 28 23  1  0
  3 30  1  0
  4 31  1  0
  4 32  1  0
  8 33  1  0
  8 34  1  0
  9 35  1  6
 11 36  1  0
 12 37  1  0
 13 38  1  0
 14 39  1  0
 15 40  1  0
 16 41  1  0
 16 42  1  0
 17 43  1  6
 18 44  1  0
 18 45  1  0
 19 46  1  0
 21 47  1  0
 22 48  1  0
 24 49  1  0
 25 50  1  0
 26 51  1  0
 27 52  1  0
M  END
>  <smiles>  (6) 
O=C(NCC(=O)N1C[C@H](c2ccccc2)C[C@H]1CO)c1ccc2ccccc2n1

>  <score_type>  (6) 
oracle

>  <origin>  (6) 
autodockgpu

>  <m_score__min__energy>  (6) 
-9.0399999999999991

>  <m_primary>  (6) 
energy

>  <rmsd>  (6) 
2.6456084350539895

>  <m_score__min__rmsd>  (6) 
2.6456084350539895

>  <meeko>  (6) 
{"free_energy": -9.04, "intermolecular_energy": -11.13, "internal_energy": -1.43, "cluster_size": 31, "cluster_id": 1, "rank_in_cluster": 1}

>  <energy>  (6) 
-8.33

>  <cluster_rmsd>  (6) 
0.66

>  <cluster>  (6) 
1

$$$$

     RDKit          3D

 52 55  0  0  0  0  0  0  0  0999 V2000
  137.5480   71.4240  221.2550 O   0  0  0  0  0  0  0  0  0  0  0  0
  137.5960   71.7960  222.4540 C   0  0  0  0  0  0  0  0  0  0  0  0
  136.9750   73.0650  222.7360 N   0  0  0  0  0  0  0  0  0  0  0  0
  136.3800   73.7330  221.5840 C   0  0  0  0  0  0  0  0  0  0  0  0
  136.8470   75.1230  221.4510 C   0  0  0  0  0  0  0  0  0  0  0  0
  136.0970   76.1050  221.2040 O   0  0  0  0  0  0  0  0  0  0  0  0
  138.2390   75.3940  221.6080 N   0  0  0  0  0  0  0  0  0  0  0  0
  138.7760   76.1210  222.7260 C   0  0  0  0  0  0  0  0  0  0  0  0
  140.1690   76.4910  222.3710 C   0  0  2  0  0  0  0  0  0  0  0  0
  140.4770   77.9220  222.6840 C   0  0  0  0  0  0  0  0  0  0  0  0
  139.4430   78.7580  223.0920 C   0  0  0  0  0  0  0  0  0  0  0  0
  139.6860   80.0970  223.3900 C   0  0  0  0  0  0  0  0  0  0  0  0
  140.9660   80.5960  223.2790 C   0  0  0  0  0  0  0  0  0  0  0  0
  141.9930   79.7830  222.8780 C   0  0  0  0  0  0  0  0  0  0  0  0
  141.7470   78.4490  222.5810 C   0  0  0  0  0  0  0  0  0  0  0  0
  140.2790   76.2130  220.9030 C   0  0  0  0  0  0  0  0  0  0  0  0
  139.3490   75.0310  220.7520 C   0  0  1  0  0  0  0  0  0  0  0  0
  140.0500   73.8150  221.3030 C   0  0  0  0  0  0  0  0  0  0  0  0
  139.9560   73.7380  222.7110 O   0  0  0  0  0  0  0  0  0  0  0  0
  138.2290   71.0230  223.5160 C   0  0  0  0  0  0  0  0  0  0  0  0
  137.8690   69.6750  223.5890 C   0  0  0  0  0  0  0  0  0  0  0  0
  138.4450   68.9100  224.5820 C   0  0  0  0  0  0  0  0  0  0  0  0
  139.3460   69.4280  225.4870 C   0  0  0  0  0  0  0  0  0  0  0  0
  139.9360   68.6860  226.4890 C   0  0  0  0  0  0  0  0  0  0  0  0
  140.8340   69.2340  227.3780 C   0  0  0  0  0  0  0  0  0  0  0  0
  141.1360   70.5820  227.2360 C   0  0  0  0  0  0  0  0  0  0  0  0
  140.5630   71.3620  226.2400 C   0  0  0  0  0  0  0  0  0  0  0  0
  139.6680   70.7630  225.3740 C   0  0  0  0  0  0  0  0  0  0  0  0
  139.0980   71.5150  224.3920 N   0  0  0  0  0  0  0  0  0  0  0  0
  136.9580   73.4650  223.6990 H   0  0  0  0  0  0  0  0  0  0  0  0
  136.6505   73.1787  220.6732 H   0  0  0  0  0  0  0  0  0  0  0  0
  135.2897   73.7530  221.7283 H   0  0  0  0  0  0  0  0  0  0  0  0
  138.1793   77.0266  222.9101 H   0  0  0  0  0  0  0  0  0  0  0  0
  138.7518   75.5106  223.6408 H   0  0  0  0  0  0  0  0  0  0  0  0
  140.8983   75.9145  222.9591 H   0  0  0  0  0  0  0  0  0  0  0  0
  138.4223   78.3576  223.1803 H   0  0  0  0  0  0  0  0  0  0  0  0
  138.8623   80.7513  223.7116 H   0  0  0  0  0  0  0  0  0  0  0  0
  141.1638   81.6523  223.5136 H   0  0  0  0  0  0  0  0  0  0  0  0
  143.0125   80.1869  222.7913 H   0  0  0  0  0  0  0  0  0  0  0  0
  142.5773   77.8034  222.2589 H   0  0  0  0  0  0  0  0  0  0  0  0
  139.9392   77.0711  220.3046 H   0  0  0  0  0  0  0  0  0  0  0  0
  141.3060   76.0239  220.5572 H   0  0  0  0  0  0  0  0  0  0  0  0
  139.0424   74.8098  219.7190 H   0  0  0  0  0  0  0  0  0  0  0  0
  139.5926   72.9144  220.8674 H   0  0  0  0  0  0  0  0  0  0  0  0
  141.1152   73.8901  221.0388 H   0  0  0  0  0  0  0  0  0  0  0  0
  139.1810   73.2040  222.9970 H   0  0  0  0  0  0  0  0  0  0  0  0
  137.1509   69.2387  222.8791 H   0  0  0  0  0  0  0  0  0  0  0  0
  138.1749   67.8461  224.6542 H   0  0  0  0  0  0  0  0  0  0  0  0
  139.6806   67.6200  226.5812 H   0  0  0  0  0  0  0  0  0  0  0  0
  141.2948   68.6266  228.1709 H   0  0  0  0  0  0  0  0  0  0  0  0
  141.8499   71.0455  227.9327 H   0  0  0  0  0  0  0  0  0  0  0  0
  140.8149   72.4284  226.1430 H   0  0  0  0  0  0  0  0  0  0  0  0
  1  2  2  0
  2  3  1  0
  3  4  1  0
  4  5  1  0
  5  6  2  0
  5  7  1  0
  7  8  1  0
  8  9  1  0
  9 10  1  0
 10 11  2  0
 11 12  1  0
 12 13  2  0
 13 14  1  0
 14 15  2  0
  9 16  1  0
 16 17  1  0
 17 18  1  0
 18 19  1  0
  2 20  1  0
 20 21  2  0
 21 22  1  0
 22 23  2  0
 23 24  1  0
 24 25  2  0
 25 26  1  0
 26 27  2  0
 27 28  1  0
 28 29  2  0
 17  7  1  0
 29 20  1  0
 15 10  1  0
 28 23  1  0
  3 30  1  0
  4 31  1  0
  4 32  1  0
  8 33  1  0
  8 34  1  0
  9 35  1  1
 11 36  1  0
 12 37  1  0
 13 38  1  0
 14 39  1  0
 15 40  1  0
 16 41  1  0
 16 42  1  0
 17 43  1  6
 18 44  1  0
 18 45  1  0
 19 46  1  0
 21 47  1  0
 22 48  1  0
 24 49  1  0
 25 50  1  0
 26 51  1  0
 27 52  1  0
M  END
>  <smiles>  (7) 
O=C(NCC(=O)N1C[C@H](c2ccccc2)C[C@H]1CO)c1ccc2ccccc2n1

>  <score_type>  (7) 
oracle

>  <origin>  (7) 
autodockgpu

>  <m_score__min__energy>  (7) 
-9.0399999999999991

>  <m_primary>  (7) 
energy

>  <rmsd>  (7) 
2.842352022334381

>  <m_score__min__rmsd>  (7) 
2.842352022334381

>  <meeko>  (7) 
{"free_energy": -8.06, "intermolecular_energy": -10.14, "internal_energy": -2.24, "cluster_size": 31, "cluster_id": 1, "rank_in_cluster": 11}

>  <energy>  (7) 
-8.24

>  <cluster_rmsd>  (7) 
1.52

>  <cluster>  (7) 
1

$$$$

     RDKit          3D

 52 55  0  0  0  0  0  0  0  0999 V2000
  139.5680   74.4920  222.5520 O   0  0  0  0  0  0  0  0  0  0  0  0
  140.2710   74.9790  221.6320 C   0  0  0  0  0  0  0  0  0  0  0  0
  140.5700   74.0870  220.5410 N   0  0  0  0  0  0  0  0  0  0  0  0
  140.0100   72.7470  220.6650 C   0  0  0  0  0  0  0  0  0  0  0  0
  140.6120   71.9990  221.7810 C   0  0  0  0  0  0  0  0  0  0  0  0
  141.8490   71.8150  221.9290 O   0  0  0  0  0  0  0  0  0  0  0  0
  139.7500   71.4380  222.7710 N   0  0  0  0  0  0  0  0  0  0  0  0
  140.0110   71.5300  224.1810 C   0  0  0  0  0  0  0  0  0  0  0  0
  139.1090   70.5590  224.8510 C   0  0  2  0  0  0  0  0  0  0  0  0
  139.8200   69.7320  225.8770 C   0  0  0  0  0  0  0  0  0  0  0  0
  139.8650   68.3520  225.7120 C   0  0  0  0  0  0  0  0  0  0  0  0
  140.5140   67.5450  226.6440 C   0  0  0  0  0  0  0  0  0  0  0  0
  141.1170   68.1240  227.7410 C   0  0  0  0  0  0  0  0  0  0  0  0
  141.0780   69.4830  227.9140 C   0  0  0  0  0  0  0  0  0  0  0  0
  140.4310   70.2830  226.9830 C   0  0  0  0  0  0  0  0  0  0  0  0
  138.5660   69.7100  223.7410 C   0  0  0  0  0  0  0  0  0  0  0  0
  138.5130   70.7040  222.6030 C   0  0  1  0  0  0  0  0  0  0  0  0
  137.3360   71.6170  222.8370 C   0  0  0  0  0  0  0  0  0  0  0  0
  137.5430   72.9050  222.2910 O   0  0  0  0  0  0  0  0  0  0  0  0
  140.7700   76.3490  221.6330 C   0  0  0  0  0  0  0  0  0  0  0  0
  141.0240   76.9080  220.3770 C   0  0  0  0  0  0  0  0  0  0  0  0
  141.4990   78.2030  220.3370 C   0  0  0  0  0  0  0  0  0  0  0  0
  141.7240   78.9460  221.4750 C   0  0  0  0  0  0  0  0  0  0  0  0
  142.1970   80.2410  221.4620 C   0  0  0  0  0  0  0  0  0  0  0  0
  142.4120   80.9570  222.6190 C   0  0  0  0  0  0  0  0  0  0  0  0
  142.1340   80.3260  223.8250 C   0  0  0  0  0  0  0  0  0  0  0  0
  141.6560   79.0240  223.8790 C   0  0  0  0  0  0  0  0  0  0  0  0
  141.4570   78.3490  222.6890 C   0  0  0  0  0  0  0  0  0  0  0  0
  140.9890   77.0720  222.7260 N   0  0  0  0  0  0  0  0  0  0  0  0
  141.1450   74.3920  219.7250 H   0  0  0  0  0  0  0  0  0  0  0  0
  138.9265   72.8293  220.8361 H   0  0  0  0  0  0  0  0  0  0  0  0
  140.2255   72.2012  219.7346 H   0  0  0  0  0  0  0  0  0  0  0  0
  141.0610   71.2764  224.3887 H   0  0  0  0  0  0  0  0  0  0  0  0
  139.8327   72.5513  224.5486 H   0  0  0  0  0  0  0  0  0  0  0  0
  138.3133   71.0726  225.4105 H   0  0  0  0  0  0  0  0  0  0  0  0
  139.3831   67.8926  224.8364 H   0  0  0  0  0  0  0  0  0  0  0  0
  140.5453   66.4541  226.5060 H   0  0  0  0  0  0  0  0  0  0  0  0
  141.6314   67.4924  228.4802 H   0  0  0  0  0  0  0  0  0  0  0  0
  141.5597   69.9397  228.7911 H   0  0  0  0  0  0  0  0  0  0  0  0
  140.4053   71.3729  227.1297 H   0  0  0  0  0  0  0  0  0  0  0  0
  139.2385   68.8705  223.5108 H   0  0  0  0  0  0  0  0  0  0  0  0
  137.5999   69.2359  223.9691 H   0  0  0  0  0  0  0  0  0  0  0  0
  138.4068   70.2595  221.6024 H   0  0  0  0  0  0  0  0  0  0  0  0
  136.4447   71.1730  222.3696 H   0  0  0  0  0  0  0  0  0  0  0  0
  137.2048   71.7276  223.9235 H   0  0  0  0  0  0  0  0  0  0  0  0
  138.1960   73.4220  222.8140 H   0  0  0  0  0  0  0  0  0  0  0  0
  140.8514   76.3359  219.4535 H   0  0  0  0  0  0  0  0  0  0  0  0
  141.7061   78.6599  219.3581 H   0  0  0  0  0  0  0  0  0  0  0  0
  142.4100   80.7189  220.4944 H   0  0  0  0  0  0  0  0  0  0  0  0
  142.7897   81.9897  222.5891 H   0  0  0  0  0  0  0  0  0  0  0  0
  142.2975   80.8742  224.7646 H   0  0  0  0  0  0  0  0  0  0  0  0
  141.4410   78.5416  224.8439 H   0  0  0  0  0  0  0  0  0  0  0  0
  1  2  2  0
  2  3  1  0
  3  4  1  0
  4  5  1  0
  5  6  2  0
  5  7  1  0
  7  8  1  0
  8  9  1  0
  9 10  1  0
 10 11  2  0
 11 12  1  0
 12 13  2  0
 13 14  1  0
 14 15  2  0
  9 16  1  0
 16 17  1  0
 17 18  1  0
 18 19  1  0
  2 20  1  0
 20 21  2  0
 21 22  1  0
 22 23  2  0
 23 24  1  0
 24 25  2  0
 25 26  1  0
 26 27  2  0
 27 28  1  0
 28 29  2  0
 17  7  1  0
 29 20  1  0
 15 10  1  0
 28 23  1  0
  3 30  1  0
  4 31  1  0
  4 32  1  0
  8 33  1  0
  8 34  1  0
  9 35  1  1
 11 36  1  0
 12 37  1  0
 13 38  1  0
 14 39  1  0
 15 40  1  0
 16 41  1  0
 16 42  1  0
 17 43  1  6
 18 44  1  0
 18 45  1  0
 19 46  1  0
 21 47  1  0
 22 48  1  0
 24 49  1  0
 25 50  1  0
 26 51  1  0
 27 52  1  0
M  END
>  <smiles>  (8) 
O=C(NCC(=O)N1C[C@H](c2ccccc2)C[C@H]1CO)c1ccc2ccccc2n1

>  <score_type>  (8) 
oracle

>  <origin>  (8) 
autodockgpu

>  <m_score__min__energy>  (8) 
-9.0399999999999991

>  <m_primary>  (8) 
energy

>  <rmsd>  (8) 
8.362246404634774

>  <m_score__min__rmsd>  (8) 
8.362246404634774

>  <meeko>  (8) 
{"free_energy": -8.88, "intermolecular_energy": -10.97, "internal_energy": -2.12, "cluster_size": 18, "cluster_id": 2, "rank_in_cluster": 3}

>  <energy>  (8) 
-8.14

>  <cluster_rmsd>  (8) 
1.36

>  <cluster>  (8) 
1

$$$$

     RDKit          3D

 52 55  0  0  0  0  0  0  0  0999 V2000
  136.5210   71.9280  221.4110 O   0  0  0  0  0  0  0  0  0  0  0  0
  137.3020   72.2790  222.3300 C   0  0  0  0  0  0  0  0  0  0  0  0
  137.6450   73.6780  222.3520 N   0  0  0  0  0  0  0  0  0  0  0  0
  137.0320   74.4820  221.3010 C   0  0  0  0  0  0  0  0  0  0  0  0
  138.0390   75.1420  220.4530 C   0  0  0  0  0  0  0  0  0  0  0  0
  137.8690   75.4310  219.2390 O   0  0  0  0  0  0  0  0  0  0  0  0
  139.2990   75.4840  221.0300 N   0  0  0  0  0  0  0  0  0  0  0  0
  139.4350   76.3860  222.1410 C   0  0  0  0  0  0  0  0  0  0  0  0
  140.8710   76.7500  222.2280 C   0  0  2  0  0  0  0  0  0  0  0  0
  141.0770   78.2220  222.4080 C   0  0  0  0  0  0  0  0  0  0  0  0
  141.5650   78.6880  223.6250 C   0  0  0  0  0  0  0  0  0  0  0  0
  141.7690   80.0490  223.8360 C   0  0  0  0  0  0  0  0  0  0  0  0
  141.4840   80.9430  222.8260 C   0  0  0  0  0  0  0  0  0  0  0  0
  141.0030   80.4970  221.6230 C   0  0  0  0  0  0  0  0  0  0  0  0
  140.8000   79.1390  221.4170 C   0  0  0  0  0  0  0  0  0  0  0  0
  141.4700   76.2650  220.9430 C   0  0  0  0  0  0  0  0  0  0  0  0
  140.6280   75.0400  220.6650 C   0  0  1  0  0  0  0  0  0  0  0  0
  141.0810   73.9440  221.5960 C   0  0  0  0  0  0  0  0  0  0  0  0
  139.9930   73.2090  222.1230 O   0  0  0  0  0  0  0  0  0  0  0  0
  137.8460   71.3630  223.3260 C   0  0  0  0  0  0  0  0  0  0  0  0
  137.0700   70.2350  223.6070 C   0  0  0  0  0  0  0  0  0  0  0  0
  137.5510   69.3460  224.5450 C   0  0  0  0  0  0  0  0  0  0  0  0
  138.7480   69.5330  225.2000 C   0  0  0  0  0  0  0  0  0  0  0  0
  139.2500   68.6600  226.1410 C   0  0  0  0  0  0  0  0  0  0  0  0
  140.4520   68.8760  226.7790 C   0  0  0  0  0  0  0  0  0  0  0  0
  141.1600   70.0230  226.4410 C   0  0  0  0  0  0  0  0  0  0  0  0
  140.6870   70.9260  225.4980 C   0  0  0  0  0  0  0  0  0  0  0  0
  139.4760   70.6620  224.8880 C   0  0  0  0  0  0  0  0  0  0  0  0
  138.9990   71.5380  223.9610 N   0  0  0  0  0  0  0  0  0  0  0  0
  138.2850   74.0750  223.0740 H   0  0  0  0  0  0  0  0  0  0  0  0
  136.4103   73.8287  220.6711 H   0  0  0  0  0  0  0  0  0  0  0  0
  136.4267   75.2648  221.7814 H   0  0  0  0  0  0  0  0  0  0  0  0
  138.8260   77.2866  221.9737 H   0  0  0  0  0  0  0  0  0  0  0  0
  139.0910   75.9158  223.0741 H   0  0  0  0  0  0  0  0  0  0  0  0
  141.3467   76.2922  223.1078 H   0  0  0  0  0  0  0  0  0  0  0  0
  141.7922   77.9730  224.4294 H   0  0  0  0  0  0  0  0  0  0  0  0
  142.1547   80.4083  224.8015 H   0  0  0  0  0  0  0  0  0  0  0  0
  141.6435   82.0195  222.9866 H   0  0  0  0  0  0  0  0  0  0  0  0
  140.7777   81.2148  220.8205 H   0  0  0  0  0  0  0  0  0  0  0  0
  140.4124   78.7898  220.4486 H   0  0  0  0  0  0  0  0  0  0  0  0
  141.3675   77.0136  220.1435 H   0  0  0  0  0  0  0  0  0  0  0  0
  142.5503   76.0652  220.9976 H   0  0  0  0  0  0  0  0  0  0  0  0
  140.6873   74.6588  219.6348 H   0  0  0  0  0  0  0  0  0  0  0  0
  141.7378   73.2571  221.0420 H   0  0  0  0  0  0  0  0  0  0  0  0
  141.6120   74.4128  222.4376 H   0  0  0  0  0  0  0  0  0  0  0  0
  139.8830   73.3620  223.0890 H   0  0  0  0  0  0  0  0  0  0  0  0
  136.1101   70.0626  223.0982 H   0  0  0  0  0  0  0  0  0  0  0  0
  136.9548   68.4518  224.7795 H   0  0  0  0  0  0  0  0  0  0  0  0
  138.6707   67.7591  226.3915 H   0  0  0  0  0  0  0  0  0  0  0  0
  140.8365   68.1675  227.5274 H   0  0  0  0  0  0  0  0  0  0  0  0
  142.1228   70.2213  226.9346 H   0  0  0  0  0  0  0  0  0  0  0  0
  141.2620   71.8285  225.2433 H   0  0  0  0  0  0  0  0  0  0  0  0
  1  2  2  0
  2  3  1  0
  3  4  1  0
  4  5  1  0
  5  6  2  0
  5  7  1  0
  7  8  1  0
  8  9  1  0
  9 10  1  0
 10 11  2  0
 11 12  1  0
 12 13  2  0
 13 14  1  0
 14 15  2  0
  9 16  1  0
 16 17  1  0
 17 18  1  0
 18 19  1  0
  2 20  1  0
 20 21  2  0
 21 22  1  0
 22 23  2  0
 23 24  1  0
 24 25  2  0
 25 26  1  0
 26 27  2  0
 27 28  1  0
 28 29  2  0
 17  7  1  0
 29 20  1  0
 15 10  1  0
 28 23  1  0
  3 30  1  0
  4 31  1  0
  4 32  1  0
  8 33  1  0
  8 34  1  0
  9 35  1  1
 11 36  1  0
 12 37  1  0
 13 38  1  0
 14 39  1  0
 15 40  1  0
 16 41  1  0
 16 42  1  0
 17 43  1  6
 18 44  1  0
 18 45  1  0
 19 46  1  0
 21 47  1  0
 22 48  1  0
 24 49  1  0
 25 50  1  0
 26 51  1  0
 27 52  1  0
M  END
>  <smiles>  (9) 
O=C(NCC(=O)N1C[C@H](c2ccccc2)C[C@H]1CO)c1ccc2ccccc2n1

>  <score_type>  (9) 
oracle

>  <origin>  (9) 
autodockgpu

>  <m_score__min__energy>  (9) 
-9.0399999999999991

>  <m_primary>  (9) 
energy

>  <rmsd>  (9) 
2.8154989311860943

>  <m_score__min__rmsd>  (9) 
2.8154989311860943

>  <meeko>  (9) 
{"free_energy": -7.52, "intermolecular_energy": -9.61, "internal_energy": -2.67, "cluster_size": 31, "cluster_id": 1, "rank_in_cluster": 29}

>  <energy>  (9) 
-8.13

>  <cluster_rmsd>  (9) 
0.9

>  <cluster>  (9) 
1

$$$$

     RDKit          3D

 52 55  0  0  0  0  0  0  0  0999 V2000
  139.0740   73.0360  222.2480 O   0  0  0  0  0  0  0  0  0  0  0  0
  140.0730   72.3740  222.6240 C   0  0  0  0  0  0  0  0  0  0  0  0
  141.2520   72.5140  221.8100 N   0  0  0  0  0  0  0  0  0  0  0  0
  141.1130   73.4070  220.6660 C   0  0  0  0  0  0  0  0  0  0  0  0
  141.7640   74.7060  220.8980 C   0  0  0  0  0  0  0  0  0  0  0  0
  143.0050   74.9050  220.8180 O   0  0  0  0  0  0  0  0  0  0  0  0
  140.9490   75.8270  221.2390 N   0  0  0  0  0  0  0  0  0  0  0  0
  141.3210   77.1850  220.9510 C   0  0  0  0  0  0  0  0  0  0  0  0
  140.4180   78.0580  221.7420 C   0  0  2  0  0  0  0  0  0  0  0  0
  141.1550   79.1520  222.4490 C   0  0  0  0  0  0  0  0  0  0  0  0
  142.5450   79.1340  222.4480 C   0  0  0  0  0  0  0  0  0  0  0  0
  143.2700   80.1310  223.0960 C   0  0  0  0  0  0  0  0  0  0  0  0
  142.6000   81.1460  223.7450 C   0  0  0  0  0  0  0  0  0  0  0  0
  141.2290   81.1740  223.7530 C   0  0  0  0  0  0  0  0  0  0  0  0
  140.5110   80.1780  223.1060 C   0  0  0  0  0  0  0  0  0  0  0  0
  139.7420   77.1350  222.7100 C   0  0  0  0  0  0  0  0  0  0  0  0
  139.6610   75.8600  221.9020 C   0  0  1  0  0  0  0  0  0  0  0  0
  138.5610   76.0240  220.8830 C   0  0  0  0  0  0  0  0  0  0  0  0
  138.2390   74.8040  220.2450 O   0  0  0  0  0  0  0  0  0  0  0  0
  140.0760   71.5110  223.8000 C   0  0  0  0  0  0  0  0  0  0  0  0
  139.5020   70.2480  223.6340 C   0  0  0  0  0  0  0  0  0  0  0  0
  139.4850   69.4040  224.7240 C   0  0  0  0  0  0  0  0  0  0  0  0
  140.0070   69.7620  225.9480 C   0  0  0  0  0  0  0  0  0  0  0  0
  140.0020   68.9370  227.0530 C   0  0  0  0  0  0  0  0  0  0  0  0
  140.5330   69.3260  228.2630 C   0  0  0  0  0  0  0  0  0  0  0  0
  141.0840   70.5990  228.3430 C   0  0  0  0  0  0  0  0  0  0  0  0
  141.1070   71.4580  227.2520 C   0  0  0  0  0  0  0  0  0  0  0  0
  140.5620   71.0190  226.0610 C   0  0  0  0  0  0  0  0  0  0  0  0
  140.5770   71.8500  224.9830 N   0  0  0  0  0  0  0  0  0  0  0  0
  142.1370   72.0080  222.0340 H   0  0  0  0  0  0  0  0  0  0  0  0
  141.5722   72.9317  219.7867 H   0  0  0  0  0  0  0  0  0  0  0  0
  140.0401   73.5887  220.5054 H   0  0  0  0  0  0  0  0  0  0  0  0
  142.3671   77.3603  221.2424 H   0  0  0  0  0  0  0  0  0  0  0  0
  141.2307   77.3977  219.8755 H   0  0  0  0  0  0  0  0  0  0  0  0
  139.6992   78.5813  221.0944 H   0  0  0  0  0  0  0  0  0  0  0  0
  143.0781   78.3234  221.9297 H   0  0  0  0  0  0  0  0  0  0  0  0
  144.3698   80.1087  223.0900 H   0  0  0  0  0  0  0  0  0  0  0  0
  143.1672   81.9364  224.2583 H   0  0  0  0  0  0  0  0  0  0  0  0
  140.6984   81.9858  224.2722 H   0  0  0  0  0  0  0  0  0  0  0  0
  139.4115   80.2080  223.1178 H   0  0  0  0  0  0  0  0  0  0  0  0
  140.3435   76.9965  223.6205 H   0  0  0  0  0  0  0  0  0  0  0  0
  138.7696   77.4990  223.0732 H   0  0  0  0  0  0  0  0  0  0  0  0
  139.4527   74.9519  222.4868 H   0  0  0  0  0  0  0  0  0  0  0  0
  137.6628   76.4069  221.3896 H   0  0  0  0  0  0  0  0  0  0  0  0
  138.9152   76.7251  220.1129 H   0  0  0  0  0  0  0  0  0  0  0  0
  138.3550   74.0350  220.8480 H   0  0  0  0  0  0  0  0  0  0  0  0
  139.0784   69.9379  222.6673 H   0  0  0  0  0  0  0  0  0  0  0  0
  139.0371   68.4055  224.6122 H   0  0  0  0  0  0  0  0  0  0  0  0
  139.5588   67.9341  226.9651 H   0  0  0  0  0  0  0  0  0  0  0  0
  140.5213   68.6538  229.1336 H   0  0  0  0  0  0  0  0  0  0  0  0
  141.5142   70.9360  229.2976 H   0  0  0  0  0  0  0  0  0  0  0  0
  141.5480   72.4624  227.3342 H   0  0  0  0  0  0  0  0  0  0  0  0
  1  2  2  0
  2  3  1  0
  3  4  1  0
  4  5  1  0
  5  6  2  0
  5  7  1  0
  7  8  1  0
  8  9  1  0
  9 10  1  0
 10 11  2  0
 11 12  1  0
 12 13  2  0
 13 14  1  0
 14 15  2  0
  9 16  1  0
 16 17  1  0
 17 18  1  0
 18 19  1  0
  2 20  1  0
 20 21  2  0
 21 22  1  0
 22 23  2  0
 23 24  1  0
 24 25  2  0
 25 26  1  0
 26 27  2  0
 27 28  1  0
 28 29  2  0
 17  7  1  0
 29 20  1  0
 15 10  1  0
 28 23  1  0
  3 30  1  0
  4 31  1  0
  4 32  1  0
  8 33  1  0
  8 34  1  0
  9 35  1  6
 11 36  1  0
 12 37  1  0
 13 38  1  0
 14 39  1  0
 15 40  1  0
 16 41  1  0
 16 42  1  0
 17 43  1  1
 18 44  1  0
 18 45  1  0
 19 46  1  0
 21 47  1  0
 22 48  1  0
 24 49  1  0
 25 50  1  0
 26 51  1  0
 27 52  1  0
M  END
>  <smiles>  (10) 
O=C(NCC(=O)N1C[C@H](c2ccccc2)C[C@H]1CO)c1ccc2ccccc2n1

>  <score_type>  (10) 
oracle

>  <origin>  (10) 
autodockgpu

>  <m_score__min__energy>  (10) 
-9.0399999999999991

>  <m_primary>  (10) 
energy

>  <rmsd>  (10) 
3.051571802885623

>  <m_score__min__rmsd>  (10) 
3.051571802885623

>  <meeko>  (10) 
{"free_energy": -8.14, "intermolecular_energy": -10.23, "internal_energy": -2.2, "cluster_size": 31, "cluster_id": 1, "rank_in_cluster": 8}

>  <energy>  (10) 
-8.1

>  <cluster_rmsd>  (10) 
1.51

>  <cluster>  (10) 
1

$$$$

     RDKit          3D

 52 55  0  0  0  0  0  0  0  0999 V2000
  137.0780   71.0800  221.4950 O   0  0  0  0  0  0  0  0  0  0  0  0
  137.7350   71.6320  222.4130 C   0  0  0  0  0  0  0  0  0  0  0  0
  137.7950   73.0710  222.3540 N   0  0  0  0  0  0  0  0  0  0  0  0
  137.0800   73.6750  221.2360 C   0  0  0  0  0  0  0  0  0  0  0  0
  137.9020   74.6750  220.5330 C   0  0  0  0  0  0  0  0  0  0  0  0
  137.5960   75.1970  219.4290 O   0  0  0  0  0  0  0  0  0  0  0  0
  139.1310   75.0900  221.1290 N   0  0  0  0  0  0  0  0  0  0  0  0
  139.1940   75.8940  222.3180 C   0  0  0  0  0  0  0  0  0  0  0  0
  140.5870   76.3950  222.4260 C   0  0  2  0  0  0  0  0  0  0  0  0
  140.6450   77.8580  222.7420 C   0  0  0  0  0  0  0  0  0  0  0  0
  139.4700   78.5180  223.0820 C   0  0  0  0  0  0  0  0  0  0  0  0
  139.4790   79.8790  223.3810 C   0  0  0  0  0  0  0  0  0  0  0  0
  140.6680   80.5760  223.3380 C   0  0  0  0  0  0  0  0  0  0  0  0
  141.8330   79.9360  223.0030 C   0  0  0  0  0  0  0  0  0  0  0  0
  141.8190   78.5790  222.7060 C   0  0  0  0  0  0  0  0  0  0  0  0
  141.2080   76.0950  221.0960 C   0  0  0  0  0  0  0  0  0  0  0  0
  140.4910   74.8210  220.7110 C   0  0  1  0  0  0  0  0  0  0  0  0
  141.0700   73.6960  221.5320 C   0  0  0  0  0  0  0  0  0  0  0  0
  140.2720   73.3930  222.6590 O   0  0  0  0  0  0  0  0  0  0  0  0
  138.4060   70.9010  223.4810 C   0  0  0  0  0  0  0  0  0  0  0  0
  138.2460   69.5130  223.4670 C   0  0  0  0  0  0  0  0  0  0  0  0
  138.8640   68.7870  224.4630 C   0  0  0  0  0  0  0  0  0  0  0  0
  139.6200   69.3780  225.4520 C   0  0  0  0  0  0  0  0  0  0  0  0
  140.2480   68.6750  226.4580 C   0  0  0  0  0  0  0  0  0  0  0  0
  140.9980   69.2960  227.4320 C   0  0  0  0  0  0  0  0  0  0  0  0
  141.1060   70.6800  227.3730 C   0  0  0  0  0  0  0  0  0  0  0  0
  140.4880   71.4220  226.3750 C   0  0  0  0  0  0  0  0  0  0  0  0
  139.7480   70.7500  225.4220 C   0  0  0  0  0  0  0  0  0  0  0  0
  139.1370   71.4640  224.4370 N   0  0  0  0  0  0  0  0  0  0  0  0
  138.3130   73.6280  223.0680 H   0  0  0  0  0  0  0  0  0  0  0  0
  136.7978   72.8840  220.5256 H   0  0  0  0  0  0  0  0  0  0  0  0
  136.1913   74.1851  221.6359 H   0  0  0  0  0  0  0  0  0  0  0  0
  138.4932   76.7383  222.2413 H   0  0  0  0  0  0  0  0  0  0  0  0
  138.9167   75.3066  223.2058 H   0  0  0  0  0  0  0  0  0  0  0  0
  141.1235   75.9097  223.2546 H   0  0  0  0  0  0  0  0  0  0  0  0
  138.5227   77.9599  223.1154 H   0  0  0  0  0  0  0  0  0  0  0  0
  138.5445   80.3935  223.6493 H   0  0  0  0  0  0  0  0  0  0  0  0
  140.6817   81.6504  223.5736 H   0  0  0  0  0  0  0  0  0  0  0  0
  142.7787   80.4968  222.9694 H   0  0  0  0  0  0  0  0  0  0  0  0
  142.7582   78.0728  222.4383 H   0  0  0  0  0  0  0  0  0  0  0  0
  141.0149   76.8998  220.3714 H   0  0  0  0  0  0  0  0  0  0  0  0
  142.3038   76.0032  221.1224 H   0  0  0  0  0  0  0  0  0  0  0  0
  140.5701   74.5451  219.6491 H   0  0  0  0  0  0  0  0  0  0  0  0
  141.1461   72.7988  220.9001 H   0  0  0  0  0  0  0  0  0  0  0  0
  142.0585   74.0154  221.8937 H   0  0  0  0  0  0  0  0  0  0  0  0
  140.2200   72.4240  222.8200 H   0  0  0  0  0  0  0  0  0  0  0  0
  137.6479   69.0168  222.6885 H   0  0  0  0  0  0  0  0  0  0  0  0
  138.7491   67.6930  224.4684 H   0  0  0  0  0  0  0  0  0  0  0  0
  140.1465   67.5800  226.4836 H   0  0  0  0  0  0  0  0  0  0  0  0
  141.4928   68.7182  228.2266 H   0  0  0  0  0  0  0  0  0  0  0  0
  141.6979   71.2029  228.1387 H   0  0  0  0  0  0  0  0  0  0  0  0
  140.5854   72.5172  226.3443 H   0  0  0  0  0  0  0  0  0  0  0  0
  1  2  2  0
  2  3  1  0
  3  4  1  0
  4  5  1  0
  5  6  2  0
  5  7  1  0
  7  8  1  0
  8  9  1  0
  9 10  1  0
 10 11  2  0
 11 12  1  0
 12 13  2  0
 13 14  1  0
 14 15  2  0
  9 16  1  0
 16 17  1  0
 17 18  1  0
 18 19  1  0
  2 20  1  0
 20 21  2  0
 21 22  1  0
 22 23  2  0
 23 24  1  0
 24 25  2  0
 25 26  1  0
 26 27  2  0
 27 28  1  0
 28 29  2  0
 17  7  1  0
 29 20  1  0
 15 10  1  0
 28 23  1  0
  3 30  1  0
  4 31  1  0
  4 32  1  0
  8 33  1  0
  8 34  1  0
  9 35  1  1
 11 36  1  0
 12 37  1  0
 13 38  1  0
 14 39  1  0
 15 40  1  0
 16 41  1  0
 16 42  1  0
 17 43  1  6
 18 44  1  0
 18 45  1  0
 19 46  1  0
 21 47  1  0
 22 48  1  0
 24 49  1  0
 25 50  1  0
 26 51  1  0
 27 52  1  0
M  END
>  <smiles>  (11) 
O=C(NCC(=O)N1C[C@H](c2ccccc2)C[C@H]1CO)c1ccc2ccccc2n1

>  <score_type>  (11) 
oracle

>  <origin>  (11) 
autodockgpu

>  <m_score__min__energy>  (11) 
-9.0399999999999991

>  <m_primary>  (11) 
energy

>  <rmsd>  (11) 
2.6505544585559324

>  <m_score__min__rmsd>  (11) 
2.6505544585559324

>  <meeko>  (11) 
{"free_energy": -7.73, "intermolecular_energy": -9.82, "internal_energy": -2.92, "cluster_size": 31, "cluster_id": 1, "rank_in_cluster": 20}

>  <energy>  (11) 
-8.06

>  <cluster_rmsd>  (11) 
1.78

>  <cluster>  (11) 
1

$$$$

     RDKit          3D

 52 55  0  0  0  0  0  0  0  0999 V2000
  137.8800   70.6660  221.4450 O   0  0  0  0  0  0  0  0  0  0  0  0
  138.2280   71.3650  222.4290 C   0  0  0  0  0  0  0  0  0  0  0  0
  138.0570   72.7860  222.2730 N   0  0  0  0  0  0  0  0  0  0  0  0
  137.5030   73.2060  220.9910 C   0  0  0  0  0  0  0  0  0  0  0  0
  137.9820   74.5400  220.5930 C   0  0  0  0  0  0  0  0  0  0  0  0
  137.3830   75.3010  219.7870 O   0  0  0  0  0  0  0  0  0  0  0  0
  139.2070   75.0190  221.1480 N   0  0  0  0  0  0  0  0  0  0  0  0
  139.2670   75.8400  222.3250 C   0  0  0  0  0  0  0  0  0  0  0  0
  140.6370   76.4070  222.3870 C   0  0  2  0  0  0  0  0  0  0  0  0
  140.6370   77.8740  222.6850 C   0  0  0  0  0  0  0  0  0  0  0  0
  139.4190   78.5340  222.8070 C   0  0  0  0  0  0  0  0  0  0  0  0
  139.3730   79.8980  223.0810 C   0  0  0  0  0  0  0  0  0  0  0  0
  140.5490   80.6010  223.2320 C   0  0  0  0  0  0  0  0  0  0  0  0
  141.7560   79.9620  223.1120 C   0  0  0  0  0  0  0  0  0  0  0  0
  141.7970   78.6020  222.8390 C   0  0  0  0  0  0  0  0  0  0  0  0
  141.2340   76.1190  221.0430 C   0  0  0  0  0  0  0  0  0  0  0  0
  140.5660   74.8080  220.6940 C   0  0  1  0  0  0  0  0  0  0  0  0
  141.2200   73.7210  221.5100 C   0  0  0  0  0  0  0  0  0  0  0  0
  140.4530   73.3730  222.6460 O   0  0  0  0  0  0  0  0  0  0  0  0
  138.7720   70.8110  223.6640 C   0  0  0  0  0  0  0  0  0  0  0  0
  138.4880   69.4640  223.9070 C   0  0  0  0  0  0  0  0  0  0  0  0
  138.9850   68.9050  225.0660 C   0  0  0  0  0  0  0  0  0  0  0  0
  139.7360   69.6200  225.9720 C   0  0  0  0  0  0  0  0  0  0  0  0
  140.2440   69.0840  227.1370 C   0  0  0  0  0  0  0  0  0  0  0  0
  140.9930   69.8270  228.0230 C   0  0  0  0  0  0  0  0  0  0  0  0
  141.2280   71.1590  227.7050 C   0  0  0  0  0  0  0  0  0  0  0  0
  140.7340   71.7340  226.5410 C   0  0  0  0  0  0  0  0  0  0  0  0
  139.9880   70.9450  225.6860 C   0  0  0  0  0  0  0  0  0  0  0  0
  139.4980   71.4940  224.5420 N   0  0  0  0  0  0  0  0  0  0  0  0
  138.3130   73.4570  223.0300 H   0  0  0  0  0  0  0  0  0  0  0  0
  137.7987   72.4783  220.2209 H   0  0  0  0  0  0  0  0  0  0  0  0
  136.4089   73.2548  221.0936 H   0  0  0  0  0  0  0  0  0  0  0  0
  138.5253   76.6497  222.2594 H   0  0  0  0  0  0  0  0  0  0  0  0
  139.0438   75.2512  223.2270 H   0  0  0  0  0  0  0  0  0  0  0  0
  141.2181   75.9578  223.2059 H   0  0  0  0  0  0  0  0  0  0  0  0
  138.4813   77.9718  222.6856 H   0  0  0  0  0  0  0  0  0  0  0  0
  138.4048   80.4113  223.1763 H   0  0  0  0  0  0  0  0  0  0  0  0
  140.5189   81.6788  223.4496 H   0  0  0  0  0  0  0  0  0  0  0  0
  142.6919   80.5273  223.2321 H   0  0  0  0  0  0  0  0  0  0  0  0
  142.7699   78.0975  222.7441 H   0  0  0  0  0  0  0  0  0  0  0  0
  140.9834   76.9045  220.3149 H   0  0  0  0  0  0  0  0  0  0  0  0
  142.3332   76.0785  221.0388 H   0  0  0  0  0  0  0  0  0  0  0  0
  140.6276   74.5227  219.6334 H   0  0  0  0  0  0  0  0  0  0  0  0
  141.3429   72.8289  220.8784 H   0  0  0  0  0  0  0  0  0  0  0  0
  142.1916   74.0993  221.8606 H   0  0  0  0  0  0  0  0  0  0  0  0
  140.4580   72.4030  222.8060 H   0  0  0  0  0  0  0  0  0  0  0  0
  137.8897   68.8712  223.1994 H   0  0  0  0  0  0  0  0  0  0  0  0
  138.7730   67.8460  225.2748 H   0  0  0  0  0  0  0  0  0  0  0  0
  140.0442   68.0269  227.3665 H   0  0  0  0  0  0  0  0  0  0  0  0
  141.3901   69.3824  228.9475 H   0  0  0  0  0  0  0  0  0  0  0  0
  141.8224   71.7760  228.3949 H   0  0  0  0  0  0  0  0  0  0  0  0
  140.9315   72.7903  226.3058 H   0  0  0  0  0  0  0  0  0  0  0  0
  1  2  2  0
  2  3  1  0
  3  4  1  0
  4  5  1  0
  5  6  2  0
  5  7  1  0
  7  8  1  0
  8  9  1  0
  9 10  1  0
 10 11  2  0
 11 12  1  0
 12 13  2  0
 13 14  1  0
 14 15  2  0
  9 16  1  0
 16 17  1  0
 17 18  1  0
 18 19  1  0
  2 20  1  0
 20 21  2  0
 21 22  1  0
 22 23  2  0
 23 24  1  0
 24 25  2  0
 25 26  1  0
 26 27  2  0
 27 28  1  0
 28 29  2  0
 17  7  1  0
 29 20  1  0
 15 10  1  0
 28 23  1  0
  3 30  1  0
  4 31  1  0
  4 32  1  0
  8 33  1  0
  8 34  1  0
  9 35  1  1
 11 36  1  0
 12 37  1  0
 13 38  1  0
 14 39  1  0
 15 40  1  0
 16 41  1  0
 16 42  1  0
 17 43  1  6
 18 44  1  0
 18 45  1  0
 19 46  1  0
 21 47  1  0
 22 48  1  0
 24 49  1  0
 25 50  1  0
 26 51  1  0
 27 52  1  0
M  END
>  <smiles>  (12) 
O=C(NCC(=O)N1C[C@H](c2ccccc2)C[C@H]1CO)c1ccc2ccccc2n1

>  <score_type>  (12) 
oracle

>  <origin>  (12) 
autodockgpu

>  <m_score__min__energy>  (12) 
-9.0399999999999991

>  <m_primary>  (12) 
energy

>  <rmsd>  (12) 
2.6171266662290065

>  <m_score__min__rmsd>  (12) 
2.6171266662290065

>  <meeko>  (12) 
{"free_energy": -8.04, "intermolecular_energy": -10.13, "internal_energy": -2.84, "cluster_size": 31, "cluster_id": 1, "rank_in_cluster": 13}

>  <energy>  (12) 
-8.05

>  <cluster_rmsd>  (12) 
1.67

>  <cluster>  (12) 
1

$$$$

     RDKit          3D

 52 55  0  0  0  0  0  0  0  0999 V2000
  136.6660   72.0180  221.2710 O   0  0  0  0  0  0  0  0  0  0  0  0
  137.4390   72.3410  222.2080 C   0  0  0  0  0  0  0  0  0  0  0  0
  137.7500   73.7440  222.2990 N   0  0  0  0  0  0  0  0  0  0  0  0
  137.1210   74.5860  221.2880 C   0  0  0  0  0  0  0  0  0  0  0  0
  138.1090   75.1840  220.3750 C   0  0  0  0  0  0  0  0  0  0  0  0
  137.8920   75.4420  219.1610 O   0  0  0  0  0  0  0  0  0  0  0  0
  139.4060   75.4970  220.8820 N   0  0  0  0  0  0  0  0  0  0  0  0
  139.6180   76.3380  222.0280 C   0  0  0  0  0  0  0  0  0  0  0  0
  141.0580   76.7010  222.0360 C   0  0  2  0  0  0  0  0  0  0  0  0
  141.2780   78.1610  222.2800 C   0  0  0  0  0  0  0  0  0  0  0  0
  141.5510   78.5910  223.5740 C   0  0  0  0  0  0  0  0  0  0  0  0
  141.7610   79.9410  223.8460 C   0  0  0  0  0  0  0  0  0  0  0  0
  141.6960   80.8590  222.8190 C   0  0  0  0  0  0  0  0  0  0  0  0
  141.4260   80.4470  221.5400 C   0  0  0  0  0  0  0  0  0  0  0  0
  141.2190   79.1000  221.2740 C   0  0  0  0  0  0  0  0  0  0  0  0
  141.5670   76.2850  220.6890 C   0  0  0  0  0  0  0  0  0  0  0  0
  140.7060   75.0760  220.4040 C   0  0  1  0  0  0  0  0  0  0  0  0
  141.2190   73.9320  221.2430 C   0  0  0  0  0  0  0  0  0  0  0  0
  140.3770   73.6610  222.3460 O   0  0  0  0  0  0  0  0  0  0  0  0
  138.0020   71.3890  223.1580 C   0  0  0  0  0  0  0  0  0  0  0  0
  137.2320   70.2510  223.4120 C   0  0  0  0  0  0  0  0  0  0  0  0
  137.7300   69.3270  224.3070 C   0  0  0  0  0  0  0  0  0  0  0  0
  138.9410   69.4910  224.9450 C   0  0  0  0  0  0  0  0  0  0  0  0
  139.4610   68.5830  225.8420 C   0  0  0  0  0  0  0  0  0  0  0  0
  140.6750   68.7760  226.4630 C   0  0  0  0  0  0  0  0  0  0  0  0
  141.3760   69.9350  226.1540 C   0  0  0  0  0  0  0  0  0  0  0  0
  140.8850   70.8720  225.2550 C   0  0  0  0  0  0  0  0  0  0  0  0
  139.6620   70.6300  224.6600 C   0  0  0  0  0  0  0  0  0  0  0  0
  139.1670   71.5400  223.7760 N   0  0  0  0  0  0  0  0  0  0  0  0
  138.3810   74.1190  223.0410 H   0  0  0  0  0  0  0  0  0  0  0  0
  136.4207   73.9733  220.7013 H   0  0  0  0  0  0  0  0  0  0  0  0
  136.5978   75.4039  221.8050 H   0  0  0  0  0  0  0  0  0  0  0  0
  138.9997   77.2446  221.9515 H   0  0  0  0  0  0  0  0  0  0  0  0
  139.3379   75.8175  222.9557 H   0  0  0  0  0  0  0  0  0  0  0  0
  141.5925   76.1990  222.8560 H   0  0  0  0  0  0  0  0  0  0  0  0
  141.6017   77.8571  224.3918 H   0  0  0  0  0  0  0  0  0  0  0  0
  141.9771   80.2723  224.8724 H   0  0  0  0  0  0  0  0  0  0  0  0
  141.8615   81.9264  223.0272 H   0  0  0  0  0  0  0  0  0  0  0  0
  141.3733   81.1832  220.7244 H   0  0  0  0  0  0  0  0  0  0  0  0
  141.0046   78.7779  220.2443 H   0  0  0  0  0  0  0  0  0  0  0  0
  141.4122   77.0748  219.9391 H   0  0  0  0  0  0  0  0  0  0  0  0
  142.6480   76.0837  220.6597 H   0  0  0  0  0  0  0  0  0  0  0  0
  140.6945   74.7510  219.3532 H   0  0  0  0  0  0  0  0  0  0  0  0
  141.2809   73.0313  220.6145 H   0  0  0  0  0  0  0  0  0  0  0  0
  142.2075   74.2154  221.6335 H   0  0  0  0  0  0  0  0  0  0  0  0
  139.8240   72.8610  222.1950 H   0  0  0  0  0  0  0  0  0  0  0  0
  136.2625   70.0973  222.9156 H   0  0  0  0  0  0  0  0  0  0  0  0
  137.1381   68.4246  224.5198 H   0  0  0  0  0  0  0  0  0  0  0  0
  138.8867   67.6729  226.0697 H   0  0  0  0  0  0  0  0  0  0  0  0
  141.0745   68.0404  227.1766 H   0  0  0  0  0  0  0  0  0  0  0  0
  142.3483   70.1155  226.6357 H   0  0  0  0  0  0  0  0  0  0  0  0
  141.4550   71.7836  225.0225 H   0  0  0  0  0  0  0  0  0  0  0  0
  1  2  2  0
  2  3  1  0
  3  4  1  0
  4  5  1  0
  5  6  2  0
  5  7  1  0
  7  8  1  0
  8  9  1  0
  9 10  1  0
 10 11  2  0
 11 12  1  0
 12 13  2  0
 13 14  1  0
 14 15  2  0
  9 16  1  0
 16 17  1  0
 17 18  1  0
 18 19  1  0
  2 20  1  0
 20 21  2  0
 21 22  1  0
 22 23  2  0
 23 24  1  0
 24 25  2  0
 25 26  1  0
 26 27  2  0
 27 28  1  0
 28 29  2  0
 17  7  1  0
 29 20  1  0
 15 10  1  0
 28 23  1  0
  3 30  1  0
  4 31  1  0
  4 32  1  0
  8 33  1  0
  8 34  1  0
  9 35  1  1
 11 36  1  0
 12 37  1  0
 13 38  1  0
 14 39  1  0
 15 40  1  0
 16 41  1  0
 16 42  1  0
 17 43  1  6
 18 44  1  0
 18 45  1  0
 19 46  1  0
 21 47  1  0
 22 48  1  0
 24 49  1  0
 25 50  1  0
 26 51  1  0
 27 52  1  0
M  END
>  <smiles>  (13) 
O=C(NCC(=O)N1C[C@H](c2ccccc2)C[C@H]1CO)c1ccc2ccccc2n1

>  <score_type>  (13) 
oracle

>  <origin>  (13) 
autodockgpu

>  <m_score__min__energy>  (13) 
-9.0399999999999991

>  <m_primary>  (13) 
energy

>  <rmsd>  (13) 
2.7589512841946076

>  <m_score__min__rmsd>  (13) 
2.7589512841946076

>  <meeko>  (13) 
{"free_energy": -7.48, "intermolecular_energy": -9.57, "internal_energy": -2.97, "cluster_size": 31, "cluster_id": 1, "rank_in_cluster": 31}

>  <energy>  (13) 
-8.04

>  <cluster_rmsd>  (13) 
1.66

>  <cluster>  (13) 
1

$$$$

     RDKit          3D

 52 55  0  0  0  0  0  0  0  0999 V2000
  138.3880   75.2790  221.6250 O   0  0  0  0  0  0  0  0  0  0  0  0
  139.5510   75.6780  221.8830 C   0  0  0  0  0  0  0  0  0  0  0  0
  140.5990   74.7120  221.6740 N   0  0  0  0  0  0  0  0  0  0  0  0
  140.1540   73.4100  221.1910 C   0  0  0  0  0  0  0  0  0  0  0  0
  140.6890   72.3070  222.0060 C   0  0  0  0  0  0  0  0  0  0  0  0
  141.8790   71.8980  221.9570 O   0  0  0  0  0  0  0  0  0  0  0  0
  139.8130   71.6450  222.9180 N   0  0  0  0  0  0  0  0  0  0  0  0
  139.9660   71.7170  224.3450 C   0  0  0  0  0  0  0  0  0  0  0  0
  139.1080   70.6540  224.9260 C   0  0  2  0  0  0  0  0  0  0  0  0
  139.8160   69.8600  225.9790 C   0  0  0  0  0  0  0  0  0  0  0  0
  140.3400   70.5250  227.0820 C   0  0  0  0  0  0  0  0  0  0  0  0
  141.0080   69.8260  228.0850 C   0  0  0  0  0  0  0  0  0  0  0  0
  141.1490   68.4580  227.9800 C   0  0  0  0  0  0  0  0  0  0  0  0
  140.6370   67.7910  226.8970 C   0  0  0  0  0  0  0  0  0  0  0  0
  139.9720   68.4930  225.9010 C   0  0  0  0  0  0  0  0  0  0  0  0
  138.7180   69.7960  223.7600 C   0  0  0  0  0  0  0  0  0  0  0  0
  138.6580   70.8150  222.6450 C   0  0  1  0  0  0  0  0  0  0  0  0
  137.3930   71.6180  222.8170 C   0  0  0  0  0  0  0  0  0  0  0  0
  137.5020   72.9110  222.2540 O   0  0  0  0  0  0  0  0  0  0  0  0
  139.8590   77.0190  222.3640 C   0  0  0  0  0  0  0  0  0  0  0  0
  138.7620   77.8040  222.7310 C   0  0  0  0  0  0  0  0  0  0  0  0
  139.0130   79.0810  223.1900 C   0  0  0  0  0  0  0  0  0  0  0  0
  140.2880   79.5940  223.2940 C   0  0  0  0  0  0  0  0  0  0  0  0
  140.5650   80.8660  223.7490 C   0  0  0  0  0  0  0  0  0  0  0  0
  141.8510   81.3500  223.8410 C   0  0  0  0  0  0  0  0  0  0  0  0
  142.8840   80.5040  223.4550 C   0  0  0  0  0  0  0  0  0  0  0  0
  142.6440   79.2170  222.9920 C   0  0  0  0  0  0  0  0  0  0  0  0
  141.3350   78.7810  222.9190 C   0  0  0  0  0  0  0  0  0  0  0  0
  141.0850   77.5210  222.4670 N   0  0  0  0  0  0  0  0  0  0  0  0
  141.6000   74.9410  221.8570 H   0  0  0  0  0  0  0  0  0  0  0  0
  139.0551   73.3755  221.2243 H   0  0  0  0  0  0  0  0  0  0  0  0
  140.5252   73.2840  220.1632 H   0  0  0  0  0  0  0  0  0  0  0  0
  141.0171   71.5477  224.6216 H   0  0  0  0  0  0  0  0  0  0  0  0
  139.6740   72.7081  224.7223 H   0  0  0  0  0  0  0  0  0  0  0  0
  138.2344   71.0811  225.4403 H   0  0  0  0  0  0  0  0  0  0  0  0
  140.2257   71.6160  227.1636 H   0  0  0  0  0  0  0  0  0  0  0  0
  141.4196   70.3608  228.9537 H   0  0  0  0  0  0  0  0  0  0  0  0
  141.6746   67.8996  228.7686 H   0  0  0  0  0  0  0  0  0  0  0  0
  140.7531   66.7000  226.8174 H   0  0  0  0  0  0  0  0  0  0  0  0
  139.5633   67.9498  225.0362 H   0  0  0  0  0  0  0  0  0  0  0  0
  139.4746   69.0234  223.5584 H   0  0  0  0  0  0  0  0  0  0  0  0
  137.7828   69.2359  223.9074 H   0  0  0  0  0  0  0  0  0  0  0  0
  138.6595   70.3935  221.6289 H   0  0  0  0  0  0  0  0  0  0  0  0
  136.5655   71.0857  222.3251 H   0  0  0  0  0  0  0  0  0  0  0  0
  137.2091   71.7329  223.8954 H   0  0  0  0  0  0  0  0  0  0  0  0
  138.0350   73.5120  222.8220 H   0  0  0  0  0  0  0  0  0  0  0  0
  137.7349   77.4174  222.6565 H   0  0  0  0  0  0  0  0  0  0  0  0
  138.1627   79.7138  223.4842 H   0  0  0  0  0  0  0  0  0  0  0  0
  139.7300   81.5164  224.0487 H   0  0  0  0  0  0  0  0  0  0  0  0
  142.0530   82.3677  224.2062 H   0  0  0  0  0  0  0  0  0  0  0  0
  143.9214   80.8643  223.5181 H   0  0  0  0  0  0  0  0  0  0  0  0
  143.4746   78.5616  222.6911 H   0  0  0  0  0  0  0  0  0  0  0  0
  1  2  2  0
  2  3  1  0
  3  4  1  0
  4  5  1  0
  5  6  2  0
  5  7  1  0
  7  8  1  0
  8  9  1  0
  9 10  1  0
 10 11  2  0
 11 12  1  0
 12 13  2  0
 13 14  1  0
 14 15  2  0
  9 16  1  0
 16 17  1  0
 17 18  1  0
 18 19  1  0
  2 20  1  0
 20 21  2  0
 21 22  1  0
 22 23  2  0
 23 24  1  0
 24 25  2  0
 25 26  1  0
 26 27  2  0
 27 28  1  0
 28 29  2  0
 17  7  1  0
 29 20  1  0
 15 10  1  0
 28 23  1  0
  3 30  1  0
  4 31  1  0
  4 32  1  0
  8 33  1  0
  8 34  1  0
  9 35  1  1
 11 36  1  0
 12 37  1  0
 13 38  1  0
 14 39  1  0
 15 40  1  0
 16 41  1  0
 16 42  1  0
 17 43  1  6
 18 44  1  0
 18 45  1  0
 19 46  1  0
 21 47  1  0
 22 48  1  0
 24 49  1  0
 25 50  1  0
 26 51  1  0
 27 52  1  0
M  END
>  <smiles>  (14) 
O=C(NCC(=O)N1C[C@H](c2ccccc2)C[C@H]1CO)c1ccc2ccccc2n1

>  <score_type>  (14) 
oracle

>  <origin>  (14) 
autodockgpu

>  <m_score__min__energy>  (14) 
-9.0399999999999991

>  <m_primary>  (14) 
energy

>  <rmsd>  (14) 
8.406613193866775

>  <m_score__min__rmsd>  (14) 
8.406613193866775

>  <meeko>  (14) 
{"free_energy": -8.7, "intermolecular_energy": -10.79, "internal_energy": -2.19, "cluster_size": 18, "cluster_id": 2, "rank_in_cluster": 6}

>  <energy>  (14) 
-8.01

>  <cluster_rmsd>  (14) 
1.79

>  <cluster>  (14) 
1

$$$$

     RDKit          3D

 52 55  0  0  0  0  0  0  0  0999 V2000
  140.4500   73.4480  222.3470 O   0  0  0  0  0  0  0  0  0  0  0  0
  140.2790   72.2060  222.4260 C   0  0  0  0  0  0  0  0  0  0  0  0
  140.2030   71.5090  221.1680 N   0  0  0  0  0  0  0  0  0  0  0  0
  140.3370   72.3500  219.9840 C   0  0  0  0  0  0  0  0  0  0  0  0
  141.6440   72.1780  219.3300 C   0  0  0  0  0  0  0  0  0  0  0  0
  142.0090   71.1310  218.7310 O   0  0  0  0  0  0  0  0  0  0  0  0
  142.5750   73.2590  219.3690 N   0  0  0  0  0  0  0  0  0  0  0  0
  142.3870   74.4270  220.1850 C   0  0  0  0  0  0  0  0  0  0  0  0
  143.3530   75.4480  219.7080 C   0  0  2  0  0  0  0  0  0  0  0  0
  142.7250   76.7960  219.5390 C   0  0  0  0  0  0  0  0  0  0  0  0
  142.9710   77.5100  218.3710 C   0  0  0  0  0  0  0  0  0  0  0  0
  142.4090   78.7680  218.1740 C   0  0  0  0  0  0  0  0  0  0  0  0
  141.6000   79.3110  219.1500 C   0  0  0  0  0  0  0  0  0  0  0  0
  141.3500   78.6180  220.3050 C   0  0  0  0  0  0  0  0  0  0  0  0
  141.9130   77.3630  220.4970 C   0  0  0  0  0  0  0  0  0  0  0  0
  143.8650   74.9130  218.4050 C   0  0  0  0  0  0  0  0  0  0  0  0
  143.8250   73.4220  218.6570 C   0  0  1  0  0  0  0  0  0  0  0  0
  144.9820   73.0720  219.5580 C   0  0  0  0  0  0  0  0  0  0  0  0
  146.2280   73.1990  218.9010 O   0  0  0  0  0  0  0  0  0  0  0  0
  140.1610   71.4830  223.6870 C   0  0  0  0  0  0  0  0  0  0  0  0
  139.4460   70.2830  223.6400 C   0  0  0  0  0  0  0  0  0  0  0  0
  139.3110   69.5720  224.8140 C   0  0  0  0  0  0  0  0  0  0  0  0
  139.8490   70.0010  226.0070 C   0  0  0  0  0  0  0  0  0  0  0  0
  139.7290   69.3080  227.1930 C   0  0  0  0  0  0  0  0  0  0  0  0
  140.2800   69.7650  228.3700 C   0  0  0  0  0  0  0  0  0  0  0  0
  140.9750   70.9670  228.3300 C   0  0  0  0  0  0  0  0  0  0  0  0
  141.1180   71.6930  227.1540 C   0  0  0  0  0  0  0  0  0  0  0  0
  140.5460   71.1900  226.0010 C   0  0  0  0  0  0  0  0  0  0  0  0
  140.6770   71.8910  224.8410 N   0  0  0  0  0  0  0  0  0  0  0  0
  140.0640   70.4760  221.1200 H   0  0  0  0  0  0  0  0  0  0  0  0
  139.5445   72.0849  219.2687 H   0  0  0  0  0  0  0  0  0  0  0  0
  140.2519   73.3997  220.3017 H   0  0  0  0  0  0  0  0  0  0  0  0
  141.3581   74.8011  220.0783 H   0  0  0  0  0  0  0  0  0  0  0  0
  142.5526   74.1951  221.2474 H   0  0  0  0  0  0  0  0  0  0  0  0
  144.1592   75.6075  220.4392 H   0  0  0  0  0  0  0  0  0  0  0  0
  143.6171   77.0755  217.5940 H   0  0  0  0  0  0  0  0  0  0  0  0
  142.6086   79.3250  217.2467 H   0  0  0  0  0  0  0  0  0  0  0  0
  141.1534   80.3051  219.0004 H   0  0  0  0  0  0  0  0  0  0  0  0
  140.7036   79.0554  221.0801 H   0  0  0  0  0  0  0  0  0  0  0  0
  141.7076   76.8136  221.4276 H   0  0  0  0  0  0  0  0  0  0  0  0
  143.2099   75.1972  217.5683 H   0  0  0  0  0  0  0  0  0  0  0  0
  144.8571   75.2943  218.1215 H   0  0  0  0  0  0  0  0  0  0  0  0
  143.8929   72.7957  217.7553 H   0  0  0  0  0  0  0  0  0  0  0  0
  144.9699   73.7452  220.4278 H   0  0  0  0  0  0  0  0  0  0  0  0
  144.8666   72.0215  219.8632 H   0  0  0  0  0  0  0  0  0  0  0  0
  146.4100   74.1310  218.6420 H   0  0  0  0  0  0  0  0  0  0  0  0
  139.0065   69.9185  222.6998 H   0  0  0  0  0  0  0  0  0  0  0  0
  138.7516   68.6250  224.7968 H   0  0  0  0  0  0  0  0  0  0  0  0
  139.1745   68.3580  227.1995 H   0  0  0  0  0  0  0  0  0  0  0  0
  140.1735   69.1988  229.3071 H   0  0  0  0  0  0  0  0  0  0  0  0
  141.4250   71.3551  229.2557 H   0  0  0  0  0  0  0  0  0  0  0  0
  141.6720   72.6432  227.1411 H   0  0  0  0  0  0  0  0  0  0  0  0
  1  2  2  0
  2  3  1  0
  3  4  1  0
  4  5  1  0
  5  6  2  0
  5  7  1  0
  7  8  1  0
  8  9  1  0
  9 10  1  0
 10 11  2  0
 11 12  1  0
 12 13  2  0
 13 14  1  0
 14 15  2  0
  9 16  1  0
 16 17  1  0
 17 18  1  0
 18 19  1  0
  2 20  1  0
 20 21  2  0
 21 22  1  0
 22 23  2  0
 23 24  1  0
 24 25  2  0
 25 26  1  0
 26 27  2  0
 27 28  1  0
 28 29  2  0
 17  7  1  0
 29 20  1  0
 15 10  1  0
 28 23  1  0
  3 30  1  0
  4 31  1  0
  4 32  1  0
  8 33  1  0
  8 34  1  0
  9 35  1  1
 11 36  1  0
 12 37  1  0
 13 38  1  0
 14 39  1  0
 15 40  1  0
 16 41  1  0
 16 42  1  0
 17 43  1  6
 18 44  1  0
 18 45  1  0
 19 46  1  0
 21 47  1  0
 22 48  1  0
 24 49  1  0
 25 50  1  0
 26 51  1  0
 27 52  1  0
M  END
>  <smiles>  (15) 
O=C(NCC(=O)N1C[C@H](c2ccccc2)C[C@H]1CO)c1ccc2ccccc2n1

>  <score_type>  (15) 
oracle

>  <origin>  (15) 
autodockgpu

>  <m_score__min__energy>  (15) 
-9.0399999999999991

>  <m_primary>  (15) 
energy

>  <rmsd>  (15) 
3.0956416106767493

>  <m_score__min__rmsd>  (15) 
3.0956416106767493

>  <meeko>  (15) 
{"free_energy": -8.5, "intermolecular_energy": -10.59, "internal_energy": -1.36, "cluster_size": 1, "cluster_id": 3, "rank_in_cluster": 1}

>  <energy>  (15) 
-7.97

>  <cluster_rmsd>  (15) 
1.61

>  <cluster>  (15) 
1

$$$$

     RDKit          3D

 52 55  0  0  0  0  0  0  0  0999 V2000
  139.1850   74.8430  222.3420 O   0  0  0  0  0  0  0  0  0  0  0  0
  140.0710   75.6120  221.8910 C   0  0  0  0  0  0  0  0  0  0  0  0
  140.9070   75.0560  220.8580 N   0  0  0  0  0  0  0  0  0  0  0  0
  140.6000   73.6790  220.4870 C   0  0  0  0  0  0  0  0  0  0  0  0
  141.1780   72.7110  221.4340 C   0  0  0  0  0  0  0  0  0  0  0  0
  142.4110   72.4900  221.5630 O   0  0  0  0  0  0  0  0  0  0  0  0
  140.2950   71.9640  222.2710 N   0  0  0  0  0  0  0  0  0  0  0  0
  140.0920   72.2620  223.6620 C   0  0  0  0  0  0  0  0  0  0  0  0
  139.3970   71.0930  224.2570 C   0  0  2  0  0  0  0  0  0  0  0  0
  140.0070   70.6660  225.5560 C   0  0  0  0  0  0  0  0  0  0  0  0
  140.4880   71.6390  226.4240 C   0  0  0  0  0  0  0  0  0  0  0  0
  141.0650   71.2850  227.6410 C   0  0  0  0  0  0  0  0  0  0  0  0
  141.1600   69.9540  227.9860 C   0  0  0  0  0  0  0  0  0  0  0  0
  140.6900   68.9850  227.1380 C   0  0  0  0  0  0  0  0  0  0  0  0
  140.1150   69.3430  225.9260 C   0  0  0  0  0  0  0  0  0  0  0  0
  139.5000   70.0160  223.2200 C   0  0  0  0  0  0  0  0  0  0  0  0
  139.4630   70.8250  221.9440 C   0  0  1  0  0  0  0  0  0  0  0  0
  138.0400   71.2730  221.7180 C   0  0  0  0  0  0  0  0  0  0  0  0
  137.9030   72.6770  221.8080 O   0  0  0  0  0  0  0  0  0  0  0  0
  140.2700   76.9790  222.3560 C   0  0  0  0  0  0  0  0  0  0  0  0
  139.1120   77.6830  222.7000 C   0  0  0  0  0  0  0  0  0  0  0  0
  139.2600   78.9810  223.1420 C   0  0  0  0  0  0  0  0  0  0  0  0
  140.4900   79.5920  223.2520 C   0  0  0  0  0  0  0  0  0  0  0  0
  140.6640   80.8870  223.6920 C   0  0  0  0  0  0  0  0  0  0  0  0
  141.9080   81.4690  223.7910 C   0  0  0  0  0  0  0  0  0  0  0  0
  143.0070   80.6990  223.4290 C   0  0  0  0  0  0  0  0  0  0  0  0
  142.8720   79.3910  222.9820 C   0  0  0  0  0  0  0  0  0  0  0  0
  141.6010   78.8550  222.9010 C   0  0  0  0  0  0  0  0  0  0  0  0
  141.4520   77.5750  222.4650 N   0  0  0  0  0  0  0  0  0  0  0  0
  141.6720   75.6090  220.4150 H   0  0  0  0  0  0  0  0  0  0  0  0
  139.5076   73.5507  220.4703 H   0  0  0  0  0  0  0  0  0  0  0  0
  141.0380   73.4882  219.4962 H   0  0  0  0  0  0  0  0  0  0  0  0
  141.0599   72.4203  224.1600 H   0  0  0  0  0  0  0  0  0  0  0  0
  139.4964   73.1785  223.7852 H   0  0  0  0  0  0  0  0  0  0  0  0
  138.3526   71.3323  224.5061 H   0  0  0  0  0  0  0  0  0  0  0  0
  140.4121   72.7007  226.1466 H   0  0  0  0  0  0  0  0  0  0  0  0
  141.4422   72.0621  228.3221 H   0  0  0  0  0  0  0  0  0  0  0  0
  141.6149   69.6681  228.9459 H   0  0  0  0  0  0  0  0  0  0  0  0
  140.7684   67.9240  227.4177 H   0  0  0  0  0  0  0  0  0  0  0  0
  139.7402   68.5592  225.2513 H   0  0  0  0  0  0  0  0  0  0  0  0
  140.4421   69.4559  223.3140 H   0  0  0  0  0  0  0  0  0  0  0  0
  138.7143   69.2492  223.2889 H   0  0  0  0  0  0  0  0  0  0  0  0
  139.7993   70.2890  221.0442 H   0  0  0  0  0  0  0  0  0  0  0  0
  137.7212   70.9492  220.7162 H   0  0  0  0  0  0  0  0  0  0  0  0
  137.4145   70.8211  222.5019 H   0  0  0  0  0  0  0  0  0  0  0  0
  138.1120   73.0070  222.7110 H   0  0  0  0  0  0  0  0  0  0  0  0
  138.1182   77.2181  222.6209 H   0  0  0  0  0  0  0  0  0  0  0  0
  138.3605   79.5510  223.4176 H   0  0  0  0  0  0  0  0  0  0  0  0
  139.7785   81.4756  223.9737 H   0  0  0  0  0  0  0  0  0  0  0  0
  142.0275   82.5042  224.1433 H   0  0  0  0  0  0  0  0  0  0  0  0
  144.0130   81.1384  223.4986 H   0  0  0  0  0  0  0  0  0  0  0  0
  143.7539   78.7972  222.6998 H   0  0  0  0  0  0  0  0  0  0  0  0
  1  2  2  0
  2  3  1  0
  3  4  1  0
  4  5  1  0
  5  6  2  0
  5  7  1  0
  7  8  1  0
  8  9  1  0
  9 10  1  0
 10 11  2  0
 11 12  1  0
 12 13  2  0
 13 14  1  0
 14 15  2  0
  9 16  1  0
 16 17  1  0
 17 18  1  0
 18 19  1  0
  2 20  1  0
 20 21  2  0
 21 22  1  0
 22 23  2  0
 23 24  1  0
 24 25  2  0
 25 26  1  0
 26 27  2  0
 27 28  1  0
 28 29  2  0
 17  7  1  0
 29 20  1  0
 15 10  1  0
 28 23  1  0
  3 30  1  0
  4 31  1  0
  4 32  1  0
  8 33  1  0
  8 34  1  0
  9 35  1  1
 11 36  1  0
 12 37  1  0
 13 38  1  0
 14 39  1  0
 15 40  1  0
 16 41  1  0
 16 42  1  0
 17 43  1  6
 18 44  1  0
 18 45  1  0
 19 46  1  0
 21 47  1  0
 22 48  1  0
 24 49  1  0
 25 50  1  0
 26 51  1  0
 27 52  1  0
M  END
>  <smiles>  (16) 
O=C(NCC(=O)N1C[C@H](c2ccccc2)C[C@H]1CO)c1ccc2ccccc2n1

>  <score_type>  (16) 
oracle

>  <origin>  (16) 
autodockgpu

>  <m_score__min__energy>  (16) 
-9.0399999999999991

>  <m_primary>  (16) 
energy

>  <rmsd>  (16) 
8.235907090177816

>  <m_score__min__rmsd>  (16) 
8.235907090177816

>  <meeko>  (16) 
{"free_energy": -8.35, "intermolecular_energy": -10.44, "internal_energy": -2.23, "cluster_size": 18, "cluster_id": 2, "rank_in_cluster": 14}

>  <energy>  (16) 
-7.88

>  <cluster_rmsd>  (16) 
1.62

>  <cluster>  (16) 
1

$$$$

     RDKit          3D

 52 55  0  0  0  0  0  0  0  0999 V2000
  138.3250   74.9780  221.8850 O   0  0  0  0  0  0  0  0  0  0  0  0
  139.4830   75.4620  221.9330 C   0  0  0  0  0  0  0  0  0  0  0  0
  140.5420   74.5830  221.5080 N   0  0  0  0  0  0  0  0  0  0  0  0
  140.1120   73.2560  221.0830 C   0  0  0  0  0  0  0  0  0  0  0  0
  140.6800   72.1940  221.9300 C   0  0  0  0  0  0  0  0  0  0  0  0
  141.8980   71.8740  221.9490 O   0  0  0  0  0  0  0  0  0  0  0  0
  139.8060   71.4680  222.7940 N   0  0  0  0  0  0  0  0  0  0  0  0
  139.8380   71.5900  224.2250 C   0  0  0  0  0  0  0  0  0  0  0  0
  139.0490   70.4590  224.7730 C   0  0  2  0  0  0  0  0  0  0  0  0
  139.7470   69.7680  225.9020 C   0  0  0  0  0  0  0  0  0  0  0  0
  140.3070   70.5370  226.9170 C   0  0  0  0  0  0  0  0  0  0  0  0
  140.9670   69.9350  227.9850 C   0  0  0  0  0  0  0  0  0  0  0  0
  141.0660   68.5610  228.0350 C   0  0  0  0  0  0  0  0  0  0  0  0
  140.5200   67.7920  227.0400 C   0  0  0  0  0  0  0  0  0  0  0  0
  139.8620   68.3960  225.9780 C   0  0  0  0  0  0  0  0  0  0  0  0
  138.8400   69.5370  223.6090 C   0  0  0  0  0  0  0  0  0  0  0  0
  138.7660   70.5170  222.4610 C   0  0  1  0  0  0  0  0  0  0  0  0
  137.4170   71.1890  222.5090 C   0  0  0  0  0  0  0  0  0  0  0  0
  137.4830   72.4760  223.0910 O   0  0  0  0  0  0  0  0  0  0  0  0
  139.7760   76.8180  222.3820 C   0  0  0  0  0  0  0  0  0  0  0  0
  138.6690   77.6070  222.7050 C   0  0  0  0  0  0  0  0  0  0  0  0
  138.9050   78.8980  223.1330 C   0  0  0  0  0  0  0  0  0  0  0  0
  140.1750   79.4200  223.2470 C   0  0  0  0  0  0  0  0  0  0  0  0
  140.4380   80.7050  223.6720 C   0  0  0  0  0  0  0  0  0  0  0  0
  141.7200   81.1970  223.7760 C   0  0  0  0  0  0  0  0  0  0  0  0
  142.7640   80.3460  223.4340 C   0  0  0  0  0  0  0  0  0  0  0  0
  142.5380   79.0460  223.0030 C   0  0  0  0  0  0  0  0  0  0  0  0
  141.2330   78.6010  222.9160 C   0  0  0  0  0  0  0  0  0  0  0  0
  140.9970   77.3290  222.4950 N   0  0  0  0  0  0  0  0  0  0  0  0
  141.5400   74.8860  221.5070 H   0  0  0  0  0  0  0  0  0  0  0  0
  139.0145   73.2042  221.1369 H   0  0  0  0  0  0  0  0  0  0  0  0
  140.4681   73.0969  220.0545 H   0  0  0  0  0  0  0  0  0  0  0  0
  140.8758   71.5369  224.5858 H   0  0  0  0  0  0  0  0  0  0  0  0
  139.4185   72.5546  224.5469 H   0  0  0  0  0  0  0  0  0  0  0  0
  138.0992   70.8067  225.2055 H   0  0  0  0  0  0  0  0  0  0  0  0
  140.2275   71.6333  226.8754 H   0  0  0  0  0  0  0  0  0  0  0  0
  141.4063   70.5514  228.7832 H   0  0  0  0  0  0  0  0  0  0  0  0
  141.5852   68.0796  228.8768 H   0  0  0  0  0  0  0  0  0  0  0  0
  140.6035   66.6960  227.0835 H   0  0  0  0  0  0  0  0  0  0  0  0
  139.4256   67.7710  225.1849 H   0  0  0  0  0  0  0  0  0  0  0  0
  139.6838   68.8414  223.4903 H   0  0  0  0  0  0  0  0  0  0  0  0
  137.9572   68.8875  223.7030 H   0  0  0  0  0  0  0  0  0  0  0  0
  138.8906   70.0732  221.4623 H   0  0  0  0  0  0  0  0  0  0  0  0
  137.0312   71.2832  221.4832 H   0  0  0  0  0  0  0  0  0  0  0  0
  136.7529   70.5704  223.1306 H   0  0  0  0  0  0  0  0  0  0  0  0
  138.2460   72.9930  222.7470 H   0  0  0  0  0  0  0  0  0  0  0  0
  137.6453   77.2132  222.6212 H   0  0  0  0  0  0  0  0  0  0  0  0
  138.0463   79.5344  223.3930 H   0  0  0  0  0  0  0  0  0  0  0  0
  139.5948   81.3597  223.9371 H   0  0  0  0  0  0  0  0  0  0  0  0
  141.9105   82.2253  224.1171 H   0  0  0  0  0  0  0  0  0  0  0  0
  143.7985   80.7128  223.5069 H   0  0  0  0  0  0  0  0  0  0  0  0
  143.3772   78.3864  222.7373 H   0  0  0  0  0  0  0  0  0  0  0  0
  1  2  2  0
  2  3  1  0
  3  4  1  0
  4  5  1  0
  5  6  2  0
  5  7  1  0
  7  8  1  0
  8  9  1  0
  9 10  1  0
 10 11  2  0
 11 12  1  0
 12 13  2  0
 13 14  1  0
 14 15  2  0
  9 16  1  0
 16 17  1  0
 17 18  1  0
 18 19  1  0
  2 20  1  0
 20 21  2  0
 21 22  1  0
 22 23  2  0
 23 24  1  0
 24 25  2  0
 25 26  1  0
 26 27  2  0
 27 28  1  0
 28 29  2  0
 17  7  1  0
 29 20  1  0
 15 10  1  0
 28 23  1  0
  3 30  1  0
  4 31  1  0
  4 32  1  0
  8 33  1  0
  8 34  1  0
  9 35  1  1
 11 36  1  0
 12 37  1  0
 13 38  1  0
 14 39  1  0
 15 40  1  0
 16 41  1  0
 16 42  1  0
 17 43  1  6
 18 44  1  0
 18 45  1  0
 19 46  1  0
 21 47  1  0
 22 48  1  0
 24 49  1  0
 25 50  1  0
 26 51  1  0
 27 52  1  0
M  END
>  <smiles>  (17) 
O=C(NCC(=O)N1C[C@H](c2ccccc2)C[C@H]1CO)c1ccc2ccccc2n1

>  <score_type>  (17) 
oracle

>  <origin>  (17) 
autodockgpu

>  <m_score__min__energy>  (17) 
-9.0399999999999991

>  <m_primary>  (17) 
energy

>  <rmsd>  (17) 
8.336646821024955

>  <m_score__min__rmsd>  (17) 
8.336646821024955

>  <meeko>  (17) 
{"free_energy": -8.33, "intermolecular_energy": -10.41, "internal_energy": -2.22, "cluster_size": 18, "cluster_id": 2, "rank_in_cluster": 15}

>  <energy>  (17) 
-7.82

>  <cluster_rmsd>  (17) 
1.37

>  <cluster>  (17) 
1

$$$$

     RDKit          3D

 52 55  0  0  0  0  0  0  0  0999 V2000
  140.8390   72.9490  222.1770 O   0  0  0  0  0  0  0  0  0  0  0  0
  139.8220   72.4590  222.7280 C   0  0  0  0  0  0  0  0  0  0  0  0
  138.5590   72.8340  222.1460 N   0  0  0  0  0  0  0  0  0  0  0  0
  138.6470   73.7310  221.0000 C   0  0  0  0  0  0  0  0  0  0  0  0
  138.5970   75.1460  221.4010 C   0  0  0  0  0  0  0  0  0  0  0  0
  137.5820   75.7130  221.8870 O   0  0  0  0  0  0  0  0  0  0  0  0
  139.7680   75.9450  221.2340 N   0  0  0  0  0  0  0  0  0  0  0  0
  140.4940   76.5130  222.3370 C   0  0  0  0  0  0  0  0  0  0  0  0
  141.4130   77.5310  221.7710 C   0  0  2  0  0  0  0  0  0  0  0  0
  141.3860   78.8160  222.5380 C   0  0  0  0  0  0  0  0  0  0  0  0
  142.5870   79.4640  222.8070 C   0  0  0  0  0  0  0  0  0  0  0  0
  142.6070   80.6600  223.5190 C   0  0  0  0  0  0  0  0  0  0  0  0
  141.4210   81.2070  223.9620 C   0  0  0  0  0  0  0  0  0  0  0  0
  140.2310   80.5780  223.7050 C   0  0  0  0  0  0  0  0  0  0  0  0
  140.2160   79.3850  222.9940 C   0  0  0  0  0  0  0  0  0  0  0  0
  140.9500   77.7240  220.3580 C   0  0  0  0  0  0  0  0  0  0  0  0
  140.4460   76.3400  220.0170 C   0  0  1  0  0  0  0  0  0  0  0  0
  141.6430   75.4540  219.7830 C   0  0  0  0  0  0  0  0  0  0  0  0
  141.3060   74.0810  219.8150 O   0  0  0  0  0  0  0  0  0  0  0  0
  139.8760   71.5660  223.8800 C   0  0  0  0  0  0  0  0  0  0  0  0
  139.2980   70.3060  223.7050 C   0  0  0  0  0  0  0  0  0  0  0  0
  139.3270   69.4330  224.7730 C   0  0  0  0  0  0  0  0  0  0  0  0
  139.8990   69.7620  225.9830 C   0  0  0  0  0  0  0  0  0  0  0  0
  139.9420   68.9080  227.0650 C   0  0  0  0  0  0  0  0  0  0  0  0
  140.5210   69.2670  228.2620 C   0  0  0  0  0  0  0  0  0  0  0  0
  141.0730   70.5390  228.3520 C   0  0  0  0  0  0  0  0  0  0  0  0
  141.0490   71.4260  227.2840 C   0  0  0  0  0  0  0  0  0  0  0  0
  140.4560   71.0170  226.1050 C   0  0  0  0  0  0  0  0  0  0  0  0
  140.4250   71.8760  225.0490 N   0  0  0  0  0  0  0  0  0  0  0  0
  137.6530   72.4820  222.5260 H   0  0  0  0  0  0  0  0  0  0  0  0
  139.5954   73.5442  220.4750 H   0  0  0  0  0  0  0  0  0  0  0  0
  137.7843   73.5327  220.3469 H   0  0  0  0  0  0  0  0  0  0  0  0
  139.7972   76.9849  223.0454 H   0  0  0  0  0  0  0  0  0  0  0  0
  141.0532   75.7374  222.8809 H   0  0  0  0  0  0  0  0  0  0  0  0
  142.4600   77.1978  221.8246 H   0  0  0  0  0  0  0  0  0  0  0  0
  143.5320   79.0263  222.4530 H   0  0  0  0  0  0  0  0  0  0  0  0
  143.5618   81.1652  223.7268 H   0  0  0  0  0  0  0  0  0  0  0  0
  141.4304   82.1524  224.5242 H   0  0  0  0  0  0  0  0  0  0  0  0
  139.2879   81.0178  224.0617 H   0  0  0  0  0  0  0  0  0  0  0  0
  139.2564   78.8868  222.7917 H   0  0  0  0  0  0  0  0  0  0  0  0
  140.1453   78.4715  220.2969 H   0  0  0  0  0  0  0  0  0  0  0  0
  141.7283   78.0993  219.6773 H   0  0  0  0  0  0  0  0  0  0  0  0
  139.8018   76.2863  219.1270 H   0  0  0  0  0  0  0  0  0  0  0  0
  142.0717   75.6906  218.7980 H   0  0  0  0  0  0  0  0  0  0  0  0
  142.3659   75.6431  220.5903 H   0  0  0  0  0  0  0  0  0  0  0  0
  141.1860   73.7570  220.7360 H   0  0  0  0  0  0  0  0  0  0  0  0
  138.8358   70.0199  222.7487 H   0  0  0  0  0  0  0  0  0  0  0  0
  138.8765   68.4365  224.6542 H   0  0  0  0  0  0  0  0  0  0  0  0
  139.4987   67.9059  226.9687 H   0  0  0  0  0  0  0  0  0  0  0  0
  140.5455   68.5727  229.1149 H   0  0  0  0  0  0  0  0  0  0  0  0
  141.5424   70.8522  229.2963 H   0  0  0  0  0  0  0  0  0  0  0  0
  141.4910   72.4292  227.3743 H   0  0  0  0  0  0  0  0  0  0  0  0
  1  2  2  0
  2  3  1  0
  3  4  1  0
  4  5  1  0
  5  6  2  0
  5  7  1  0
  7  8  1  0
  8  9  1  0
  9 10  1  0
 10 11  2  0
 11 12  1  0
 12 13  2  0
 13 14  1  0
 14 15  2  0
  9 16  1  0
 16 17  1  0
 17 18  1  0
 18 19  1  0
  2 20  1  0
 20 21  2  0
 21 22  1  0
 22 23  2  0
 23 24  1  0
 24 25  2  0
 25 26  1  0
 26 27  2  0
 27 28  1  0
 28 29  2  0
 17  7  1  0
 29 20  1  0
 15 10  1  0
 28 23  1  0
  3 30  1  0
  4 31  1  0
  4 32  1  0
  8 33  1  0
  8 34  1  0
  9 35  1  6
 11 36  1  0
 12 37  1  0
 13 38  1  0
 14 39  1  0
 15 40  1  0
 16 41  1  0
 16 42  1  0
 17 43  1  6
 18 44  1  0
 18 45  1  0
 19 46  1  0
 21 47  1  0
 22 48  1  0
 24 49  1  0
 25 50  1  0
 26 51  1  0
 27 52  1  0
M  END
>  <smiles>  (18) 
O=C(NCC(=O)N1C[C@H](c2ccccc2)C[C@H]1CO)c1ccc2ccccc2n1

>  <score_type>  (18) 
oracle

>  <origin>  (18) 
autodockgpu

>  <m_score__min__energy>  (18) 
-9.0399999999999991

>  <m_primary>  (18) 
energy

>  <rmsd>  (18) 
2.557239154045508

>  <m_score__min__rmsd>  (18) 
2.557239154045508

>  <meeko>  (18) 
{"free_energy": -8.13, "intermolecular_energy": -10.21, "internal_energy": -2.21, "cluster_size": 31, "cluster_id": 1, "rank_in_cluster": 9}

>  <energy>  (18) 
-7.78

>  <cluster_rmsd>  (18) 
1.75

>  <cluster>  (18) 
1

$$$$

     RDKit          3D

 52 55  0  0  0  0  0  0  0  0999 V2000
  141.3930   74.6680  220.8640 O   0  0  0  0  0  0  0  0  0  0  0  0
  140.4310   75.0860  221.5550 C   0  0  0  0  0  0  0  0  0  0  0  0
  139.3860   74.1280  221.8090 N   0  0  0  0  0  0  0  0  0  0  0  0
  139.5990   72.8100  221.2240 C   0  0  0  0  0  0  0  0  0  0  0  0
  140.2600   71.8900  222.1650 C   0  0  0  0  0  0  0  0  0  0  0  0
  141.4800   71.5790  222.1190 O   0  0  0  0  0  0  0  0  0  0  0  0
  139.4800   71.3010  223.2050 N   0  0  0  0  0  0  0  0  0  0  0  0
  139.8350   71.3840  224.5950 C   0  0  0  0  0  0  0  0  0  0  0  0
  139.0020   70.3880  225.3140 C   0  0  2  0  0  0  0  0  0  0  0  0
  139.7990   69.5660  226.2790 C   0  0  0  0  0  0  0  0  0  0  0  0
  140.0330   68.2270  225.9870 C   0  0  0  0  0  0  0  0  0  0  0  0
  140.7670   67.4260  226.8580 C   0  0  0  0  0  0  0  0  0  0  0  0
  141.2660   67.9690  228.0230 C   0  0  0  0  0  0  0  0  0  0  0  0
  141.0410   69.2880  228.3230 C   0  0  0  0  0  0  0  0  0  0  0  0
  140.3090   70.0820  227.4510 C   0  0  0  0  0  0  0  0  0  0  0  0
  138.4010   69.5390  224.2350 C   0  0  0  0  0  0  0  0  0  0  0  0
  138.2500   70.5430  223.1150 C   0  0  1  0  0  0  0  0  0  0  0  0
  137.0730   71.4290  223.4390 C   0  0  0  0  0  0  0  0  0  0  0  0
  137.1630   72.6890  222.8050 O   0  0  0  0  0  0  0  0  0  0  0  0
  140.3440   76.4430  222.0830 C   0  0  0  0  0  0  0  0  0  0  0  0
  139.0600   76.8920  222.4040 C   0  0  0  0  0  0  0  0  0  0  0  0
  138.9360   78.1720  222.9050 C   0  0  0  0  0  0  0  0  0  0  0  0
  140.0190   79.0030  223.0930 C   0  0  0  0  0  0  0  0  0  0  0  0
  139.9220   80.2840  223.5910 C   0  0  0  0  0  0  0  0  0  0  0  0
  141.0250   81.0900  223.7670 C   0  0  0  0  0  0  0  0  0  0  0  0
  142.2640   80.5660  223.4220 C   0  0  0  0  0  0  0  0  0  0  0  0
  142.4020   79.2800  222.9170 C   0  0  0  0  0  0  0  0  0  0  0  0
  141.2640   78.5130  222.7600 C   0  0  0  0  0  0  0  0  0  0  0  0
  141.3830   77.2500  222.2660 N   0  0  0  0  0  0  0  0  0  0  0  0
  138.5430   74.3730  222.3730 H   0  0  0  0  0  0  0  0  0  0  0  0
  138.6249   72.3865  220.9382 H   0  0  0  0  0  0  0  0  0  0  0  0
  140.2534   72.9285  220.3478 H   0  0  0  0  0  0  0  0  0  0  0  0
  140.9018   71.1507  224.7273 H   0  0  0  0  0  0  0  0  0  0  0  0
  139.6610   72.3975  224.9855 H   0  0  0  0  0  0  0  0  0  0  0  0
  138.2366   70.8791  225.9328 H   0  0  0  0  0  0  0  0  0  0  0  0
  139.6338   67.7954  225.0573 H   0  0  0  0  0  0  0  0  0  0  0  0
  140.9474   66.3677  226.6184 H   0  0  0  0  0  0  0  0  0  0  0  0
  141.8471   67.3414  228.7147 H   0  0  0  0  0  0  0  0  0  0  0  0
  141.4403   69.7165  229.2541 H   0  0  0  0  0  0  0  0  0  0  0  0
  140.1332   71.1392  227.6990 H   0  0  0  0  0  0  0  0  0  0  0  0
  139.0726   68.7159  223.9497 H   0  0  0  0  0  0  0  0  0  0  0  0
  137.4627   69.0426  224.5235 H   0  0  0  0  0  0  0  0  0  0  0  0
  138.0844   70.1059  222.1193 H   0  0  0  0  0  0  0  0  0  0  0  0
  136.1513   70.9297  223.1056 H   0  0  0  0  0  0  0  0  0  0  0  0
  137.0662   71.5975  224.5260 H   0  0  0  0  0  0  0  0  0  0  0  0
  137.3460   73.4090  223.4500 H   0  0  0  0  0  0  0  0  0  0  0  0
  138.1795   76.2481  222.2624 H   0  0  0  0  0  0  0  0  0  0  0  0
  137.9336   78.5433  223.1643 H   0  0  0  0  0  0  0  0  0  0  0  0
  138.9295   80.6765  223.8572 H   0  0  0  0  0  0  0  0  0  0  0  0
  140.9281   82.1105  224.1659 H   0  0  0  0  0  0  0  0  0  0  0  0
  143.1620   81.1877  223.5526 H   0  0  0  0  0  0  0  0  0  0  0  0
  143.3919   78.8823  222.6489 H   0  0  0  0  0  0  0  0  0  0  0  0
  1  2  2  0
  2  3  1  0
  3  4  1  0
  4  5  1  0
  5  6  2  0
  5  7  1  0
  7  8  1  0
  8  9  1  0
  9 10  1  0
 10 11  2  0
 11 12  1  0
 12 13  2  0
 13 14  1  0
 14 15  2  0
  9 16  1  0
 16 17  1  0
 17 18  1  0
 18 19  1  0
  2 20  1  0
 20 21  2  0
 21 22  1  0
 22 23  2  0
 23 24  1  0
 24 25  2  0
 25 26  1  0
 26 27  2  0
 27 28  1  0
 28 29  2  0
 17  7  1  0
 29 20  1  0
 15 10  1  0
 28 23  1  0
  3 30  1  0
  4 31  1  0
  4 32  1  0
  8 33  1  0
  8 34  1  0
  9 35  1  1
 11 36  1  0
 12 37  1  0
 13 38  1  0
 14 39  1  0
 15 40  1  0
 16 41  1  0
 16 42  1  0
 17 43  1  6
 18 44  1  0
 18 45  1  0
 19 46  1  0
 21 47  1  0
 22 48  1  0
 24 49  1  0
 25 50  1  0
 26 51  1  0
 27 52  1  0
M  END
>  <smiles>  (19) 
O=C(NCC(=O)N1C[C@H](c2ccccc2)C[C@H]1CO)c1ccc2ccccc2n1

>  <score_type>  (19) 
oracle

>  <origin>  (19) 
autodockgpu

>  <m_score__min__energy>  (19) 
-9.0399999999999991

>  <m_primary>  (19) 
energy

>  <rmsd>  (19) 
8.323597464594004

>  <m_score__min__rmsd>  (19) 
8.323597464594004

>  <meeko>  (19) 
{"free_energy": -8.6, "intermolecular_energy": -10.69, "internal_energy": -1.93, "cluster_size": 18, "cluster_id": 2, "rank_in_cluster": 9}

>  <energy>  (19) 
-7.74

>  <cluster_rmsd>  (19) 
1.64

>  <cluster>  (19) 
1

$$$$

     RDKit          3D

 52 55  0  0  0  0  0  0  0  0999 V2000
  141.0180   73.0980  222.3000 O   0  0  0  0  0  0  0  0  0  0  0  0
  139.9900   72.6190  222.8410 C   0  0  0  0  0  0  0  0  0  0  0  0
  138.7350   73.1250  222.3470 N   0  0  0  0  0  0  0  0  0  0  0  0
  138.8430   74.1210  221.2880 C   0  0  0  0  0  0  0  0  0  0  0  0
  138.8710   75.4930  221.8220 C   0  0  0  0  0  0  0  0  0  0  0  0
  137.9960   75.9760  222.5890 O   0  0  0  0  0  0  0  0  0  0  0  0
  139.9540   76.3470  221.4550 N   0  0  0  0  0  0  0  0  0  0  0  0
  140.8480   76.9370  222.4130 C   0  0  0  0  0  0  0  0  0  0  0  0
  141.5990   78.0020  221.7040 C   0  0  2  0  0  0  0  0  0  0  0  0
  141.6600   79.2770  222.4870 C   0  0  0  0  0  0  0  0  0  0  0  0
  142.8770   79.6730  223.0320 C   0  0  0  0  0  0  0  0  0  0  0  0
  142.9770   80.8500  223.7690 C   0  0  0  0  0  0  0  0  0  0  0  0
  141.8560   81.6300  223.9590 C   0  0  0  0  0  0  0  0  0  0  0  0
  140.6510   81.2500  223.4270 C   0  0  0  0  0  0  0  0  0  0  0  0
  140.5560   80.0760  222.6930 C   0  0  0  0  0  0  0  0  0  0  0  0
  140.8720   78.1870  220.4070 C   0  0  0  0  0  0  0  0  0  0  0  0
  140.3740   76.7850  220.1400 C   0  0  1  0  0  0  0  0  0  0  0  0
  141.5440   75.9580  219.6700 C   0  0  0  0  0  0  0  0  0  0  0  0
  141.6590   74.7430  220.3830 O   0  0  0  0  0  0  0  0  0  0  0  0
  140.0250   71.6170  223.9000 C   0  0  0  0  0  0  0  0  0  0  0  0
  139.5010   70.3630  223.5740 C   0  0  0  0  0  0  0  0  0  0  0  0
  139.5150   69.3890  224.5510 C   0  0  0  0  0  0  0  0  0  0  0  0
  140.0200   69.6120  225.8130 C   0  0  0  0  0  0  0  0  0  0  0  0
  140.0450   68.6560  226.8060 C   0  0  0  0  0  0  0  0  0  0  0  0
  140.5570   68.9110  228.0590 C   0  0  0  0  0  0  0  0  0  0  0  0
  141.0580   70.1850  228.3010 C   0  0  0  0  0  0  0  0  0  0  0  0
  141.0500   71.1730  227.3260 C   0  0  0  0  0  0  0  0  0  0  0  0
  140.5250   70.8660  226.0850 C   0  0  0  0  0  0  0  0  0  0  0  0
  140.5100   71.8250  225.1200 N   0  0  0  0  0  0  0  0  0  0  0  0
  137.8220   72.7930  222.7270 H   0  0  0  0  0  0  0  0  0  0  0  0
  139.7699   73.9405  220.7239 H   0  0  0  0  0  0  0  0  0  0  0  0
  137.9586   74.0262  220.6409 H   0  0  0  0  0  0  0  0  0  0  0  0
  140.2763   77.3690  223.2476 H   0  0  0  0  0  0  0  0  0  0  0  0
  141.5326   76.1829  222.8286 H   0  0  0  0  0  0  0  0  0  0  0  0
  142.6510   77.7176  221.5544 H   0  0  0  0  0  0  0  0  0  0  0  0
  143.7702   79.0494  222.8790 H   0  0  0  0  0  0  0  0  0  0  0  0
  143.9434   81.1554  224.1966 H   0  0  0  0  0  0  0  0  0  0  0  0
  141.9289   82.5612  224.5400 H   0  0  0  0  0  0  0  0  0  0  0  0
  139.7595   81.8755  223.5819 H   0  0  0  0  0  0  0  0  0  0  0  0
  139.5853   79.7788  222.2694 H   0  0  0  0  0  0  0  0  0  0  0  0
  140.0382   78.8969  220.5111 H   0  0  0  0  0  0  0  0  0  0  0  0
  141.4921   78.6046  219.6001 H   0  0  0  0  0  0  0  0  0  0  0  0
  139.5775   76.7102  219.3850 H   0  0  0  0  0  0  0  0  0  0  0  0
  141.4111   75.7309  218.6019 H   0  0  0  0  0  0  0  0  0  0  0  0
  142.4610   76.5401  219.8441 H   0  0  0  0  0  0  0  0  0  0  0  0
  141.7470   74.8950  221.3510 H   0  0  0  0  0  0  0  0  0  0  0  0
  139.0917   70.1597  222.5734 H   0  0  0  0  0  0  0  0  0  0  0  0
  139.1070   68.3956  224.3129 H   0  0  0  0  0  0  0  0  0  0  0  0
  139.6423   67.6554  226.5903 H   0  0  0  0  0  0  0  0  0  0  0  0
  140.5690   68.1355  228.8391 H   0  0  0  0  0  0  0  0  0  0  0  0
  141.4725   70.4167  229.2932 H   0  0  0  0  0  0  0  0  0  0  0  0
  141.4515   72.1753  227.5359 H   0  0  0  0  0  0  0  0  0  0  0  0
  1  2  2  0
  2  3  1  0
  3  4  1  0
  4  5  1  0
  5  6  2  0
  5  7  1  0
  7  8  1  0
  8  9  1  0
  9 10  1  0
 10 11  2  0
 11 12  1  0
 12 13  2  0
 13 14  1  0
 14 15  2  0
  9 16  1  0
 16 17  1  0
 17 18  1  0
 18 19  1  0
  2 20  1  0
 20 21  2  0
 21 22  1  0
 22 23  2  0
 23 24  1  0
 24 25  2  0
 25 26  1  0
 26 27  2  0
 27 28  1  0
 28 29  2  0
 17  7  1  0
 29 20  1  0
 15 10  1  0
 28 23  1  0
  3 30  1  0
  4 31  1  0
  4 32  1  0
  8 33  1  0
  8 34  1  0
  9 35  1  6
 11 36  1  0
 12 37  1  0
 13 38  1  0
 14 39  1  0
 15 40  1  0
 16 41  1  0
 16 42  1  0
 17 43  1  6
 18 44  1  0
 18 45  1  0
 19 46  1  0
 21 47  1  0
 22 48  1  0
 24 49  1  0
 25 50  1  0
 26 51  1  0
 27 52  1  0
M  END
>  <smiles>  (20) 
O=C(NCC(=O)N1C[C@H](c2ccccc2)C[C@H]1CO)c1ccc2ccccc2n1

>  <score_type>  (20) 
oracle

>  <origin>  (20) 
autodockgpu

>  <m_score__min__energy>  (20) 
-9.0399999999999991

>  <m_primary>  (20) 
energy

>  <rmsd>  (20) 
2.670352649244897

>  <m_score__min__rmsd>  (20) 
2.670352649244897

>  <meeko>  (20) 
{"free_energy": -8.58, "intermolecular_energy": -10.66, "internal_energy": -2.12, "cluster_size": 31, "cluster_id": 1, "rank_in_cluster": 2}

>  <energy>  (20) 
-7.73

>  <cluster_rmsd>  (20) 
1.78

>  <cluster>  (20) 
1

$$$$

     RDKit          3D

 52 55  0  0  0  0  0  0  0  0999 V2000
  138.2860   75.0650  222.0040 O   0  0  0  0  0  0  0  0  0  0  0  0
  139.4530   75.5280  222.0240 C   0  0  0  0  0  0  0  0  0  0  0  0
  140.4880   74.6220  221.5950 N   0  0  0  0  0  0  0  0  0  0  0  0
  140.0260   73.2970  221.2000 C   0  0  0  0  0  0  0  0  0  0  0  0
  140.6090   72.2370  222.0390 C   0  0  0  0  0  0  0  0  0  0  0  0
  141.8160   71.8790  221.9970 O   0  0  0  0  0  0  0  0  0  0  0  0
  139.7630   71.5580  222.9660 N   0  0  0  0  0  0  0  0  0  0  0  0
  139.9720   71.5900  224.3880 C   0  0  0  0  0  0  0  0  0  0  0  0
  139.1280   70.5180  224.9720 C   0  0  2  0  0  0  0  0  0  0  0  0
  139.8680   69.6900  225.9760 C   0  0  0  0  0  0  0  0  0  0  0  0
  140.0800   68.3420  225.7090 C   0  0  0  0  0  0  0  0  0  0  0  0
  140.7620   67.5350  226.6170 C   0  0  0  0  0  0  0  0  0  0  0  0
  141.2310   68.0820  227.7930 C   0  0  0  0  0  0  0  0  0  0  0  0
  141.0280   69.4090  228.0670 C   0  0  0  0  0  0  0  0  0  0  0  0
  140.3480   70.2100  227.1590 C   0  0  0  0  0  0  0  0  0  0  0  0
  138.6850   69.6950  223.8010 C   0  0  0  0  0  0  0  0  0  0  0  0
  138.5910   70.7440  222.7160 C   0  0  1  0  0  0  0  0  0  0  0  0
  137.3410   71.5520  222.9580 C   0  0  0  0  0  0  0  0  0  0  0  0
  137.3500   72.7740  222.2470 O   0  0  0  0  0  0  0  0  0  0  0  0
  139.7790   76.8860  222.4450 C   0  0  0  0  0  0  0  0  0  0  0  0
  138.6900   77.7230  222.7050 C   0  0  0  0  0  0  0  0  0  0  0  0
  138.9580   79.0160  223.1050 C   0  0  0  0  0  0  0  0  0  0  0  0
  140.2410   79.4960  223.2520 C   0  0  0  0  0  0  0  0  0  0  0  0
  140.5340   80.7830  223.6500 C   0  0  0  0  0  0  0  0  0  0  0  0
  141.8290   81.2320  223.7880 C   0  0  0  0  0  0  0  0  0  0  0  0
  142.8530   80.3350  223.5090 C   0  0  0  0  0  0  0  0  0  0  0  0
  142.5960   79.0320  223.1060 C   0  0  0  0  0  0  0  0  0  0  0  0
  141.2800   78.6310  222.9840 C   0  0  0  0  0  0  0  0  0  0  0  0
  141.0130   77.3560  222.5890 N   0  0  0  0  0  0  0  0  0  0  0  0
  141.4920   74.9070  221.5720 H   0  0  0  0  0  0  0  0  0  0  0  0
  138.9305   73.2607  221.2922 H   0  0  0  0  0  0  0  0  0  0  0  0
  140.3438   73.1219  220.1616 H   0  0  0  0  0  0  0  0  0  0  0  0
  141.0315   71.4053  224.6189 H   0  0  0  0  0  0  0  0  0  0  0  0
  139.7037   72.5726  224.8034 H   0  0  0  0  0  0  0  0  0  0  0  0
  138.2787   70.9387  225.5303 H   0  0  0  0  0  0  0  0  0  0  0  0
  139.7051   67.9079  224.7704 H   0  0  0  0  0  0  0  0  0  0  0  0
  140.9252   66.4695  226.3977 H   0  0  0  0  0  0  0  0  0  0  0  0
  141.7704   67.4502  228.5140 H   0  0  0  0  0  0  0  0  0  0  0  0
  141.4038   69.8401  229.0066 H   0  0  0  0  0  0  0  0  0  0  0  0
  140.1902   71.2745  227.3870 H   0  0  0  0  0  0  0  0  0  0  0  0
  139.4259   68.9217  223.5496 H   0  0  0  0  0  0  0  0  0  0  0  0
  137.7511   69.1389  223.9703 H   0  0  0  0  0  0  0  0  0  0  0  0
  138.5498   70.3495  221.6900 H   0  0  0  0  0  0  0  0  0  0  0  0
  136.4699   70.9618  222.6373 H   0  0  0  0  0  0  0  0  0  0  0  0
  137.2922   71.7859  224.0317 H   0  0  0  0  0  0  0  0  0  0  0  0
  137.8200   73.4820  222.7440 H   0  0  0  0  0  0  0  0  0  0  0  0
  137.6563   77.3636  222.5946 H   0  0  0  0  0  0  0  0  0  0  0  0
  138.1143   79.6899  223.3147 H   0  0  0  0  0  0  0  0  0  0  0  0
  139.7059   81.4746  223.8646 H   0  0  0  0  0  0  0  0  0  0  0  0
  142.0445   82.2624  224.1072 H   0  0  0  0  0  0  0  0  0  0  0  0
  143.8968   80.6670  223.6104 H   0  0  0  0  0  0  0  0  0  0  0  0
  143.4198   78.3361  222.8892 H   0  0  0  0  0  0  0  0  0  0  0  0
  1  2  2  0
  2  3  1  0
  3  4  1  0
  4  5  1  0
  5  6  2  0
  5  7  1  0
  7  8  1  0
  8  9  1  0
  9 10  1  0
 10 11  2  0
 11 12  1  0
 12 13  2  0
 13 14  1  0
 14 15  2  0
  9 16  1  0
 16 17  1  0
 17 18  1  0
 18 19  1  0
  2 20  1  0
 20 21  2  0
 21 22  1  0
 22 23  2  0
 23 24  1  0
 24 25  2  0
 25 26  1  0
 26 27  2  0
 27 28  1  0
 28 29  2  0
 17  7  1  0
 29 20  1  0
 15 10  1  0
 28 23  1  0
  3 30  1  0
  4 31  1  0
  4 32  1  0
  8 33  1  0
  8 34  1  0
  9 35  1  1
 11 36  1  0
 12 37  1  0
 13 38  1  0
 14 39  1  0
 15 40  1  0
 16 41  1  0
 16 42  1  0
 17 43  1  6
 18 44  1  0
 18 45  1  0
 19 46  1  0
 21 47  1  0
 22 48  1  0
 24 49  1  0
 25 50  1  0
 26 51  1  0
 27 52  1  0
M  END
>  <smiles>  (21) 
O=C(NCC(=O)N1C[C@H](c2ccccc2)C[C@H]1CO)c1ccc2ccccc2n1

>  <score_type>  (21) 
oracle

>  <origin>  (21) 
autodockgpu

>  <m_score__min__energy>  (21) 
-9.0399999999999991

>  <m_primary>  (21) 
energy

>  <rmsd>  (21) 
8.381042607883954

>  <m_score__min__rmsd>  (21) 
8.381042607883954

>  <meeko>  (21) 
{"free_energy": -8.62, "intermolecular_energy": -10.71, "internal_energy": -2.2, "cluster_size": 18, "cluster_id": 2, "rank_in_cluster": 8}

>  <energy>  (21) 
-7.71

>  <cluster_rmsd>  (21) 
1.93

>  <cluster>  (21) 
1

$$$$

     RDKit          3D

 52 55  0  0  0  0  0  0  0  0999 V2000
  141.0990   72.0220  221.3760 O   0  0  0  0  0  0  0  0  0  0  0  0
  140.4700   72.4000  222.3960 C   0  0  0  0  0  0  0  0  0  0  0  0
  139.9310   73.7340  222.3330 N   0  0  0  0  0  0  0  0  0  0  0  0
  140.1960   74.4510  221.0920 C   0  0  0  0  0  0  0  0  0  0  0  0
  139.0350   75.2450  220.6550 C   0  0  0  0  0  0  0  0  0  0  0  0
  138.2120   74.8780  219.7750 O   0  0  0  0  0  0  0  0  0  0  0  0
  138.8140   76.5200  221.2580 N   0  0  0  0  0  0  0  0  0  0  0  0
  139.6040   77.6810  220.9510 C   0  0  0  0  0  0  0  0  0  0  0  0
  139.3110   78.6920  221.9970 C   0  0  2  0  0  0  0  0  0  0  0  0
  140.5520   79.3310  222.5380 C   0  0  0  0  0  0  0  0  0  0  0  0
  140.4320   80.4860  223.3040 C   0  0  0  0  0  0  0  0  0  0  0  0
  141.5610   81.1140  223.8250 C   0  0  0  0  0  0  0  0  0  0  0  0
  142.8090   80.5830  223.5770 C   0  0  0  0  0  0  0  0  0  0  0  0
  142.9390   79.4460  222.8230 C   0  0  0  0  0  0  0  0  0  0  0  0
  141.8120   78.8230  222.3060 C   0  0  0  0  0  0  0  0  0  0  0  0
  138.5710   77.9400  223.0620 C   0  0  0  0  0  0  0  0  0  0  0  0
  137.8250   76.9140  222.2390 C   0  0  1  0  0  0  0  0  0  0  0  0
  136.6730   77.6100  221.5590 C   0  0  0  0  0  0  0  0  0  0  0  0
  136.2110   76.8980  220.4290 O   0  0  0  0  0  0  0  0  0  0  0  0
  140.2760   71.5720  223.5810 C   0  0  0  0  0  0  0  0  0  0  0  0
  139.5870   70.3730  223.3840 C   0  0  0  0  0  0  0  0  0  0  0  0
  139.3830   69.5630  224.4820 C   0  0  0  0  0  0  0  0  0  0  0  0
  139.8290   69.8970  225.7420 C   0  0  0  0  0  0  0  0  0  0  0  0
  139.6380   69.1060  226.8550 C   0  0  0  0  0  0  0  0  0  0  0  0
  140.0980   69.4690  228.1020 C   0  0  0  0  0  0  0  0  0  0  0  0
  140.7730   70.6780  228.2110 C   0  0  0  0  0  0  0  0  0  0  0  0
  140.9840   71.5010  227.1130 C   0  0  0  0  0  0  0  0  0  0  0  0
  140.5030   71.0910  225.8840 C   0  0  0  0  0  0  0  0  0  0  0  0
  140.7040   71.8880  224.7990 N   0  0  0  0  0  0  0  0  0  0  0  0
  139.3900   74.1450  223.1250 H   0  0  0  0  0  0  0  0  0  0  0  0
  141.0500   75.1266  221.2475 H   0  0  0  0  0  0  0  0  0  0  0  0
  140.4135   73.7083  220.3102 H   0  0  0  0  0  0  0  0  0  0  0  0
  140.6736   77.4243  220.9623 H   0  0  0  0  0  0  0  0  0  0  0  0
  139.3613   78.0685  219.9505 H   0  0  0  0  0  0  0  0  0  0  0  0
  138.7220   79.5278  221.5914 H   0  0  0  0  0  0  0  0  0  0  0  0
  139.4352   80.9078  223.5003 H   0  0  0  0  0  0  0  0  0  0  0  0
  141.4576   82.0269  224.4299 H   0  0  0  0  0  0  0  0  0  0  0  0
  143.7042   81.0741  223.9861 H   0  0  0  0  0  0  0  0  0  0  0  0
  143.9371   79.0271  222.6276 H   0  0  0  0  0  0  0  0  0  0  0  0
  141.9259   77.9105  221.7023 H   0  0  0  0  0  0  0  0  0  0  0  0
  139.2626   77.4614  223.7710 H   0  0  0  0  0  0  0  0  0  0  0  0
  137.9237   78.5698  223.6899 H   0  0  0  0  0  0  0  0  0  0  0  0
  137.4215   76.0651  222.8105 H   0  0  0  0  0  0  0  0  0  0  0  0
  135.8458   77.7101  222.2772 H   0  0  0  0  0  0  0  0  0  0  0  0
  137.0272   78.5936  221.2168 H   0  0  0  0  0  0  0  0  0  0  0  0
  136.8710   76.2380  220.1190 H   0  0  0  0  0  0  0  0  0  0  0  0
  139.2198   70.0846  222.3880 H   0  0  0  0  0  0  0  0  0  0  0  0
  138.8435   68.6140  224.3462 H   0  0  0  0  0  0  0  0  0  0  0  0
  139.1002   68.1529  226.7437 H   0  0  0  0  0  0  0  0  0  0  0  0
  139.9366   68.8250  228.9790 H   0  0  0  0  0  0  0  0  0  0  0  0
  141.1510   70.9923  229.1950 H   0  0  0  0  0  0  0  0  0  0  0  0
  141.5205   72.4554  227.2186 H   0  0  0  0  0  0  0  0  0  0  0  0
  1  2  2  0
  2  3  1  0
  3  4  1  0
  4  5  1  0
  5  6  2  0
  5  7  1  0
  7  8  1  0
  8  9  1  0
  9 10  1  0
 10 11  2  0
 11 12  1  0
 12 13  2  0
 13 14  1  0
 14 15  2  0
  9 16  1  0
 16 17  1  0
 17 18  1  0
 18 19  1  0
  2 20  1  0
 20 21  2  0
 21 22  1  0
 22 23  2  0
 23 24  1  0
 24 25  2  0
 25 26  1  0
 26 27  2  0
 27 28  1  0
 28 29  2  0
 17  7  1  0
 29 20  1  0
 15 10  1  0
 28 23  1  0
  3 30  1  0
  4 31  1  0
  4 32  1  0
  8 33  1  0
  8 34  1  0
  9 35  1  6
 11 36  1  0
 12 37  1  0
 13 38  1  0
 14 39  1  0
 15 40  1  0
 16 41  1  0
 16 42  1  0
 17 43  1  1
 18 44  1  0
 18 45  1  0
 19 46  1  0
 21 47  1  0
 22 48  1  0
 24 49  1  0
 25 50  1  0
 26 51  1  0
 27 52  1  0
M  END
>  <smiles>  (22) 
O=C(NCC(=O)N1C[C@H](c2ccccc2)C[C@H]1CO)c1ccc2ccccc2n1

>  <score_type>  (22) 
oracle

>  <origin>  (22) 
autodockgpu

>  <m_score__min__energy>  (22) 
-9.0399999999999991

>  <m_primary>  (22) 
energy

>  <rmsd>  (22) 
3.243574805754027

>  <m_score__min__rmsd>  (22) 
3.243574805754027

>  <meeko>  (22) 
{"free_energy": -7.97, "intermolecular_energy": -10.05, "internal_energy": -2.03, "cluster_size": 31, "cluster_id": 1, "rank_in_cluster": 15}

>  <energy>  (22) 
-7.69

>  <cluster_rmsd>  (22) 
1.79

>  <cluster>  (22) 
1

$$$$

     RDKit          3D

 52 55  0  0  0  0  0  0  0  0999 V2000
  141.1250   73.0490  222.3120 O   0  0  0  0  0  0  0  0  0  0  0  0
  140.0510   72.6240  222.8060 C   0  0  0  0  0  0  0  0  0  0  0  0
  138.8530   73.2690  222.3330 N   0  0  0  0  0  0  0  0  0  0  0  0
  139.0640   74.3230  221.3480 C   0  0  0  0  0  0  0  0  0  0  0  0
  139.3790   75.6140  221.9810 C   0  0  0  0  0  0  0  0  0  0  0  0
  138.7930   76.0700  222.9980 O   0  0  0  0  0  0  0  0  0  0  0  0
  140.4150   76.4170  221.4160 N   0  0  0  0  0  0  0  0  0  0  0  0
  141.1300   77.4150  222.1630 C   0  0  0  0  0  0  0  0  0  0  0  0
  141.8590   78.2520  221.1780 C   0  0  2  0  0  0  0  0  0  0  0  0
  141.7080   79.7160  221.4480 C   0  0  0  0  0  0  0  0  0  0  0  0
  141.9020   80.1830  222.7440 C   0  0  0  0  0  0  0  0  0  0  0  0
  141.7690   81.5380  223.0400 C   0  0  0  0  0  0  0  0  0  0  0  0
  141.4410   82.4230  222.0350 C   0  0  0  0  0  0  0  0  0  0  0  0
  141.2480   81.9750  220.7550 C   0  0  0  0  0  0  0  0  0  0  0  0
  141.3810   80.6240  220.4640 C   0  0  0  0  0  0  0  0  0  0  0  0
  141.2780   77.8750  219.8480 C   0  0  0  0  0  0  0  0  0  0  0  0
  140.9470   76.4170  220.0690 C   0  0  1  0  0  0  0  0  0  0  0  0
  142.2360   75.6350  220.0240 C   0  0  0  0  0  0  0  0  0  0  0  0
  142.3720   74.7680  221.1320 O   0  0  0  0  0  0  0  0  0  0  0  0
  139.9810   71.5520  223.7920 C   0  0  0  0  0  0  0  0  0  0  0  0
  139.3120   70.3940  223.3900 C   0  0  0  0  0  0  0  0  0  0  0  0
  139.2240   69.3570  224.2960 C   0  0  0  0  0  0  0  0  0  0  0  0
  139.7650   69.4310  225.5610 C   0  0  0  0  0  0  0  0  0  0  0  0
  139.6910   68.4100  226.4850 C   0  0  0  0  0  0  0  0  0  0  0  0
  140.2430   68.5150  227.7430 C   0  0  0  0  0  0  0  0  0  0  0  0
  140.8910   69.7020  228.0620 C   0  0  0  0  0  0  0  0  0  0  0  0
  140.9860   70.7520  227.1580 C   0  0  0  0  0  0  0  0  0  0  0  0
  140.4150   70.5950  225.9100 C   0  0  0  0  0  0  0  0  0  0  0  0
  140.5010   71.6160  225.0130 N   0  0  0  0  0  0  0  0  0  0  0  0
  137.9080   72.9910  222.6770 H   0  0  0  0  0  0  0  0  0  0  0  0
  139.8998   74.0351  220.6933 H   0  0  0  0  0  0  0  0  0  0  0  0
  138.1330   74.4438  220.7748 H   0  0  0  0  0  0  0  0  0  0  0  0
  140.4254   78.0343  222.7374 H   0  0  0  0  0  0  0  0  0  0  0  0
  141.8268   76.9491  222.8753 H   0  0  0  0  0  0  0  0  0  0  0  0
  142.9431   78.0717  221.2253 H   0  0  0  0  0  0  0  0  0  0  0  0
  142.1633   79.4746  223.5440 H   0  0  0  0  0  0  0  0  0  0  0  0
  141.9245   81.8988  224.0674 H   0  0  0  0  0  0  0  0  0  0  0  0
  141.3338   83.4939  222.2621 H   0  0  0  0  0  0  0  0  0  0  0  0
  140.9875   82.6861  219.9572 H   0  0  0  0  0  0  0  0  0  0  0  0
  141.2231   80.2733  219.4334 H   0  0  0  0  0  0  0  0  0  0  0  0
  140.3759   78.4625  219.6220 H   0  0  0  0  0  0  0  0  0  0  0  0
  141.9488   78.0595  218.9959 H   0  0  0  0  0  0  0  0  0  0  0  0
  140.2567   75.9808  219.3320 H   0  0  0  0  0  0  0  0  0  0  0  0
  142.2556   75.0367  219.1012 H   0  0  0  0  0  0  0  0  0  0  0  0
  143.0686   76.3533  220.0523 H   0  0  0  0  0  0  0  0  0  0  0  0
  141.8530   75.0810  221.9070 H   0  0  0  0  0  0  0  0  0  0  0  0
  138.8705   70.3114  222.3859 H   0  0  0  0  0  0  0  0  0  0  0  0
  138.7020   68.4361  223.9969 H   0  0  0  0  0  0  0  0  0  0  0  0
  139.1734   67.4797  226.2081 H   0  0  0  0  0  0  0  0  0  0  0  0
  140.1733   67.6902  228.4675 H   0  0  0  0  0  0  0  0  0  0  0  0
  141.3417   69.8132  229.0592 H   0  0  0  0  0  0  0  0  0  0  0  0
  141.5026   71.6846  227.4288 H   0  0  0  0  0  0  0  0  0  0  0  0
  1  2  2  0
  2  3  1  0
  3  4  1  0
  4  5  1  0
  5  6  2  0
  5  7  1  0
  7  8  1  0
  8  9  1  0
  9 10  1  0
 10 11  2  0
 11 12  1  0
 12 13  2  0
 13 14  1  0
 14 15  2  0
  9 16  1  0
 16 17  1  0
 17 18  1  0
 18 19  1  0
  2 20  1  0
 20 21  2  0
 21 22  1  0
 22 23  2  0
 23 24  1  0
 24 25  2  0
 25 26  1  0
 26 27  2  0
 27 28  1  0
 28 29  2  0
 17  7  1  0
 29 20  1  0
 15 10  1  0
 28 23  1  0
  3 30  1  0
  4 31  1  0
  4 32  1  0
  8 33  1  0
  8 34  1  0
  9 35  1  6
 11 36  1  0
 12 37  1  0
 13 38  1  0
 14 39  1  0
 15 40  1  0
 16 41  1  0
 16 42  1  0
 17 43  1  6
 18 44  1  0
 18 45  1  0
 19 46  1  0
 21 47  1  0
 22 48  1  0
 24 49  1  0
 25 50  1  0
 26 51  1  0
 27 52  1  0
M  END
>  <smiles>  (23) 
O=C(NCC(=O)N1C[C@H](c2ccccc2)C[C@H]1CO)c1ccc2ccccc2n1

>  <score_type>  (23) 
oracle

>  <origin>  (23) 
autodockgpu

>  <m_score__min__energy>  (23) 
-9.0399999999999991

>  <m_primary>  (23) 
energy

>  <rmsd>  (23) 
2.612999673494651

>  <m_score__min__rmsd>  (23) 
2.612999673494651

>  <meeko>  (23) 
{"free_energy": -8.33, "intermolecular_energy": -10.42, "internal_energy": -1.96, "cluster_size": 31, "cluster_id": 1, "rank_in_cluster": 6}

>  <energy>  (23) 
-7.69

>  <cluster_rmsd>  (23) 
1.84

>  <cluster>  (23) 
1

$$$$

     RDKit          3D

 52 55  0  0  0  0  0  0  0  0999 V2000
  137.0360   71.2200  221.3450 O   0  0  0  0  0  0  0  0  0  0  0  0
  137.6200   71.7520  222.3220 C   0  0  0  0  0  0  0  0  0  0  0  0
  137.6990   73.1900  222.2900 N   0  0  0  0  0  0  0  0  0  0  0  0
  137.0860   73.8180  221.1260 C   0  0  0  0  0  0  0  0  0  0  0  0
  138.0670   74.5660  220.3230 C   0  0  0  0  0  0  0  0  0  0  0  0
  137.8820   74.9290  219.1300 O   0  0  0  0  0  0  0  0  0  0  0  0
  139.3160   74.9120  220.9190 N   0  0  0  0  0  0  0  0  0  0  0  0
  139.4350   75.8420  222.0090 C   0  0  0  0  0  0  0  0  0  0  0  0
  140.8720   76.1960  222.1190 C   0  0  2  0  0  0  0  0  0  0  0  0
  141.0880   77.6700  222.2660 C   0  0  0  0  0  0  0  0  0  0  0  0
  140.9580   78.4820  221.1440 C   0  0  0  0  0  0  0  0  0  0  0  0
  141.1530   79.8580  221.2350 C   0  0  0  0  0  0  0  0  0  0  0  0
  141.4780   80.4190  222.4520 C   0  0  0  0  0  0  0  0  0  0  0  0
  141.6090   79.6290  223.5640 C   0  0  0  0  0  0  0  0  0  0  0  0
  141.4140   78.2580  223.4690 C   0  0  0  0  0  0  0  0  0  0  0  0
  141.4960   75.6720  220.8610 C   0  0  0  0  0  0  0  0  0  0  0  0
  140.6490   74.4470  220.5960 C   0  0  1  0  0  0  0  0  0  0  0  0
  141.0700   73.3720  221.5670 C   0  0  0  0  0  0  0  0  0  0  0  0
  140.2530   73.3460  222.7200 O   0  0  0  0  0  0  0  0  0  0  0  0
  138.1930   70.9980  223.4310 C   0  0  0  0  0  0  0  0  0  0  0  0
  137.7400   69.6840  223.5760 C   0  0  0  0  0  0  0  0  0  0  0  0
  138.2580   68.9390  224.6160 C   0  0  0  0  0  0  0  0  0  0  0  0
  139.1890   69.4440  225.4970 C   0  0  0  0  0  0  0  0  0  0  0  0
  139.7220   68.7200  226.5430 C   0  0  0  0  0  0  0  0  0  0  0  0
  140.6530   69.2540  227.4070 C   0  0  0  0  0  0  0  0  0  0  0  0
  141.0490   70.5680  227.1920 C   0  0  0  0  0  0  0  0  0  0  0  0
  140.5350   71.3280  226.1490 C   0  0  0  0  0  0  0  0  0  0  0  0
  139.6040   70.7450  225.3110 C   0  0  0  0  0  0  0  0  0  0  0  0
  139.0920   71.4770  224.2840 N   0  0  0  0  0  0  0  0  0  0  0  0
  138.1620   73.7310  223.0520 H   0  0  0  0  0  0  0  0  0  0  0  0
  136.6343   73.0365  220.4974 H   0  0  0  0  0  0  0  0  0  0  0  0
  136.3266   74.5289  221.4837 H   0  0  0  0  0  0  0  0  0  0  0  0
  138.8381   76.7430  221.8043 H   0  0  0  0  0  0  0  0  0  0  0  0
  139.0657   75.3996  222.9460 H   0  0  0  0  0  0  0  0  0  0  0  0
  141.3232   75.7572  223.0212 H   0  0  0  0  0  0  0  0  0  0  0  0
  140.6983   78.0324  220.1743 H   0  0  0  0  0  0  0  0  0  0  0  0
  141.0485   80.4926  220.3426 H   0  0  0  0  0  0  0  0  0  0  0  0
  141.6327   81.5052  222.5305 H   0  0  0  0  0  0  0  0  0  0  0  0
  141.8688   80.0815  224.5324 H   0  0  0  0  0  0  0  0  0  0  0  0
  141.5212   77.6318  224.3670 H   0  0  0  0  0  0  0  0  0  0  0  0
  141.4187   76.4000  220.0400 H   0  0  0  0  0  0  0  0  0  0  0  0
  142.5729   75.4645  220.9456 H   0  0  0  0  0  0  0  0  0  0  0  0
  140.7286   74.0383  219.5779 H   0  0  0  0  0  0  0  0  0  0  0  0
  141.0054   72.3955  221.0647 H   0  0  0  0  0  0  0  0  0  0  0  0
  142.0997   73.5896  221.8869 H   0  0  0  0  0  0  0  0  0  0  0  0
  140.0660   72.4260  223.0140 H   0  0  0  0  0  0  0  0  0  0  0  0
  136.9968   69.2584  222.8856 H   0  0  0  0  0  0  0  0  0  0  0  0
  137.9143   67.9023  224.7464 H   0  0  0  0  0  0  0  0  0  0  0  0
  139.3927   67.6812  226.6925 H   0  0  0  0  0  0  0  0  0  0  0  0
  141.0673   68.6618  228.2362 H   0  0  0  0  0  0  0  0  0  0  0  0
  141.7909   71.0196  227.8670 H   0  0  0  0  0  0  0  0  0  0  0  0
  140.8608   72.3672  225.9943 H   0  0  0  0  0  0  0  0  0  0  0  0
  1  2  2  0
  2  3  1  0
  3  4  1  0
  4  5  1  0
  5  6  2  0
  5  7  1  0
  7  8  1  0
  8  9  1  0
  9 10  1  0
 10 11  2  0
 11 12  1  0
 12 13  2  0
 13 14  1  0
 14 15  2  0
  9 16  1  0
 16 17  1  0
 17 18  1  0
 18 19  1  0
  2 20  1  0
 20 21  2  0
 21 22  1  0
 22 23  2  0
 23 24  1  0
 24 25  2  0
 25 26  1  0
 26 27  2  0
 27 28  1  0
 28 29  2  0
 17  7  1  0
 29 20  1  0
 15 10  1  0
 28 23  1  0
  3 30  1  0
  4 31  1  0
  4 32  1  0
  8 33  1  0
  8 34  1  0
  9 35  1  1
 11 36  1  0
 12 37  1  0
 13 38  1  0
 14 39  1  0
 15 40  1  0
 16 41  1  0
 16 42  1  0
 17 43  1  6
 18 44  1  0
 18 45  1  0
 19 46  1  0
 21 47  1  0
 22 48  1  0
 24 49  1  0
 25 50  1  0
 26 51  1  0
 27 52  1  0
M  END
>  <smiles>  (24) 
O=C(NCC(=O)N1C[C@H](c2ccccc2)C[C@H]1CO)c1ccc2ccccc2n1

>  <score_type>  (24) 
oracle

>  <origin>  (24) 
autodockgpu

>  <m_score__min__energy>  (24) 
-9.0399999999999991

>  <m_primary>  (24) 
energy

>  <rmsd>  (24) 
2.6183887411866396

>  <m_score__min__rmsd>  (24) 
2.6183887411866396

>  <meeko>  (24) 
{"free_energy": -7.59, "intermolecular_energy": -9.68, "internal_energy": -2.96, "cluster_size": 31, "cluster_id": 1, "rank_in_cluster": 28}

>  <energy>  (24) 
-7.65

>  <cluster_rmsd>  (24) 
1.84

>  <cluster>  (24) 
1

$$$$

     RDKit          3D

 52 55  0  0  0  0  0  0  0  0999 V2000
  137.7210   70.6750  221.4120 O   0  0  0  0  0  0  0  0  0  0  0  0
  138.1090   71.3290  222.4120 C   0  0  0  0  0  0  0  0  0  0  0  0
  137.9450   72.7570  222.3200 N   0  0  0  0  0  0  0  0  0  0  0  0
  137.3510   73.2340  221.0770 C   0  0  0  0  0  0  0  0  0  0  0  0
  137.7910   74.5980  220.7420 C   0  0  0  0  0  0  0  0  0  0  0  0
  137.1220   75.4140  220.0540 O   0  0  0  0  0  0  0  0  0  0  0  0
  139.0600   75.0430  221.2210 N   0  0  0  0  0  0  0  0  0  0  0  0
  139.2130   75.8680  222.3880 C   0  0  0  0  0  0  0  0  0  0  0  0
  140.6010   76.3930  222.3660 C   0  0  2  0  0  0  0  0  0  0  0  0
  140.6620   77.8610  222.6540 C   0  0  0  0  0  0  0  0  0  0  0  0
  139.5040   78.5120  223.0670 C   0  0  0  0  0  0  0  0  0  0  0  0
  139.5150   79.8770  223.3430 C   0  0  0  0  0  0  0  0  0  0  0  0
  140.6880   80.5880  223.2040 C   0  0  0  0  0  0  0  0  0  0  0  0
  141.8350   79.9580  222.7970 C   0  0  0  0  0  0  0  0  0  0  0  0
  141.8190   78.5970  222.5230 C   0  0  0  0  0  0  0  0  0  0  0  0
  141.1090   76.0810  220.9910 C   0  0  0  0  0  0  0  0  0  0  0  0
  140.3830   74.7900  220.6900 C   0  0  1  0  0  0  0  0  0  0  0  0
  141.0510   73.6880  221.4730 C   0  0  0  0  0  0  0  0  0  0  0  0
  140.3450   73.3700  222.6560 O   0  0  0  0  0  0  0  0  0  0  0  0
  138.6910   70.7210  223.6020 C   0  0  0  0  0  0  0  0  0  0  0  0
  138.5050   69.3420  223.7380 C   0  0  0  0  0  0  0  0  0  0  0  0
  139.0400   68.7300  224.8530 C   0  0  0  0  0  0  0  0  0  0  0  0
  139.7370   69.4250  225.8170 C   0  0  0  0  0  0  0  0  0  0  0  0
  140.2800   68.8370  226.9400 C   0  0  0  0  0  0  0  0  0  0  0  0
  140.9720   69.5600  227.8860 C   0  0  0  0  0  0  0  0  0  0  0  0
  141.1110   70.9260  227.6750 C   0  0  0  0  0  0  0  0  0  0  0  0
  140.5780   71.5540  226.5570 C   0  0  0  0  0  0  0  0  0  0  0  0
  139.8920   70.7830  225.6380 C   0  0  0  0  0  0  0  0  0  0  0  0
  139.3640   71.3840  224.5360 N   0  0  0  0  0  0  0  0  0  0  0  0
  138.2330   73.3940  223.0950 H   0  0  0  0  0  0  0  0  0  0  0  0
  137.6431   72.5565  220.2612 H   0  0  0  0  0  0  0  0  0  0  0  0
  136.2590   73.2524  221.2081 H   0  0  0  0  0  0  0  0  0  0  0  0
  138.4935   76.6996  222.3603 H   0  0  0  0  0  0  0  0  0  0  0  0
  139.0248   75.2910  223.3054 H   0  0  0  0  0  0  0  0  0  0  0  0
  141.2157   75.9299  223.1519 H   0  0  0  0  0  0  0  0  0  0  0  0
  138.5694   77.9424  223.1768 H   0  0  0  0  0  0  0  0  0  0  0  0
  138.5949   80.3839  223.6694 H   0  0  0  0  0  0  0  0  0  0  0  0
  140.7033   81.6663  223.4208 H   0  0  0  0  0  0  0  0  0  0  0  0
  142.7679   80.5304  222.6875 H   0  0  0  0  0  0  0  0  0  0  0  0
  142.7439   78.0991  222.1965 H   0  0  0  0  0  0  0  0  0  0  0  0
  140.8397   76.8705  220.2740 H   0  0  0  0  0  0  0  0  0  0  0  0
  142.2044   76.0071  220.9226 H   0  0  0  0  0  0  0  0  0  0  0  0
  140.3736   74.4986  219.6293 H   0  0  0  0  0  0  0  0  0  0  0  0
  141.1076   72.7890  220.8417 H   0  0  0  0  0  0  0  0  0  0  0  0
  142.0530   74.0382  221.7615 H   0  0  0  0  0  0  0  0  0  0  0  0
  140.3820   72.4080  222.8560 H   0  0  0  0  0  0  0  0  0  0  0  0
  137.9515   68.7651  222.9825 H   0  0  0  0  0  0  0  0  0  0  0  0
  138.9048   67.6454  224.9770 H   0  0  0  0  0  0  0  0  0  0  0  0
  140.1562   67.7537  227.0851 H   0  0  0  0  0  0  0  0  0  0  0  0
  141.3988   69.0739  228.7757 H   0  0  0  0  0  0  0  0  0  0  0  0
  141.6591   71.5276  228.4150 H   0  0  0  0  0  0  0  0  0  0  0  0
  140.6987   72.6370  226.4069 H   0  0  0  0  0  0  0  0  0  0  0  0
  1  2  2  0
  2  3  1  0
  3  4  1  0
  4  5  1  0
  5  6  2  0
  5  7  1  0
  7  8  1  0
  8  9  1  0
  9 10  1  0
 10 11  2  0
 11 12  1  0
 12 13  2  0
 13 14  1  0
 14 15  2  0
  9 16  1  0
 16 17  1  0
 17 18  1  0
 18 19  1  0
  2 20  1  0
 20 21  2  0
 21 22  1  0
 22 23  2  0
 23 24  1  0
 24 25  2  0
 25 26  1  0
 26 27  2  0
 27 28  1  0
 28 29  2  0
 17  7  1  0
 29 20  1  0
 15 10  1  0
 28 23  1  0
  3 30  1  0
  4 31  1  0
  4 32  1  0
  8 33  1  0
  8 34  1  0
  9 35  1  1
 11 36  1  0
 12 37  1  0
 13 38  1  0
 14 39  1  0
 15 40  1  0
 16 41  1  0
 16 42  1  0
 17 43  1  6
 18 44  1  0
 18 45  1  0
 19 46  1  0
 21 47  1  0
 22 48  1  0
 24 49  1  0
 25 50  1  0
 26 51  1  0
 27 52  1  0
M  END
>  <smiles>  (25) 
O=C(NCC(=O)N1C[C@H](c2ccccc2)C[C@H]1CO)c1ccc2ccccc2n1

>  <score_type>  (25) 
oracle

>  <origin>  (25) 
autodockgpu

>  <m_score__min__energy>  (25) 
-9.0399999999999991

>  <m_primary>  (25) 
energy

>  <rmsd>  (25) 
2.614178221322816

>  <m_score__min__rmsd>  (25) 
2.614178221322816

>  <meeko>  (25) 
{"free_energy": -8.05, "intermolecular_energy": -10.14, "internal_energy": -2.82, "cluster_size": 31, "cluster_id": 1, "rank_in_cluster": 12}

>  <energy>  (25) 
-7.65

>  <cluster_rmsd>  (25) 
1.8

>  <cluster>  (25) 
1

$$$$

     RDKit          3D

 52 55  0  0  0  0  0  0  0  0999 V2000
  136.6620   71.8270  221.4180 O   0  0  0  0  0  0  0  0  0  0  0  0
  137.4800   72.1900  222.2990 C   0  0  0  0  0  0  0  0  0  0  0  0
  137.7920   73.5960  222.3150 N   0  0  0  0  0  0  0  0  0  0  0  0
  137.1100   74.3940  221.3020 C   0  0  0  0  0  0  0  0  0  0  0  0
  138.0580   75.0740  220.4050 C   0  0  0  0  0  0  0  0  0  0  0  0
  137.7950   75.4210  219.2230 O   0  0  0  0  0  0  0  0  0  0  0  0
  139.3680   75.3670  220.8910 N   0  0  0  0  0  0  0  0  0  0  0  0
  139.6110   76.1840  222.0480 C   0  0  0  0  0  0  0  0  0  0  0  0
  141.0530   76.5350  222.0330 C   0  0  2  0  0  0  0  0  0  0  0  0
  141.2910   77.9880  222.3010 C   0  0  0  0  0  0  0  0  0  0  0  0
  141.3350   78.8700  221.2270 C   0  0  0  0  0  0  0  0  0  0  0  0
  141.5560   80.2300  221.4310 C   0  0  0  0  0  0  0  0  0  0  0  0
  141.7330   80.7040  222.7140 C   0  0  0  0  0  0  0  0  0  0  0  0
  141.6920   79.8450  223.7800 C   0  0  0  0  0  0  0  0  0  0  0  0
  141.4710   78.4900  223.5720 C   0  0  0  0  0  0  0  0  0  0  0  0
  141.5300   76.1420  220.6670 C   0  0  0  0  0  0  0  0  0  0  0  0
  140.6540   74.9450  220.3770 C   0  0  1  0  0  0  0  0  0  0  0  0
  141.1750   73.7810  221.1820 C   0  0  0  0  0  0  0  0  0  0  0  0
  140.4010   73.5460  222.3420 O   0  0  0  0  0  0  0  0  0  0  0  0
  138.0930   71.2800  223.2590 C   0  0  0  0  0  0  0  0  0  0  0  0
  137.4510   70.0510  223.4320 C   0  0  0  0  0  0  0  0  0  0  0  0
  138.0000   69.1630  224.3340 C   0  0  0  0  0  0  0  0  0  0  0  0
  139.1400   69.4470  225.0550 C   0  0  0  0  0  0  0  0  0  0  0  0
  139.7090   68.5780  225.9610 C   0  0  0  0  0  0  0  0  0  0  0  0
  140.8490   68.8920  226.6660 C   0  0  0  0  0  0  0  0  0  0  0  0
  141.4240   70.1360  226.4340 C   0  0  0  0  0  0  0  0  0  0  0  0
  140.8800   71.0380  225.5290 C   0  0  0  0  0  0  0  0  0  0  0  0
  139.7350   70.6730  224.8480 C   0  0  0  0  0  0  0  0  0  0  0  0
  139.1910   71.5470  223.9580 N   0  0  0  0  0  0  0  0  0  0  0  0
  138.4580   74.0030  223.0070 H   0  0  0  0  0  0  0  0  0  0  0  0
  136.4664   73.7328  220.7031 H   0  0  0  0  0  0  0  0  0  0  0  0
  136.5185   75.1645  221.8182 H   0  0  0  0  0  0  0  0  0  0  0  0
  138.9990   77.0969  222.0017 H   0  0  0  0  0  0  0  0  0  0  0  0
  139.3459   75.6479  222.9712 H   0  0  0  0  0  0  0  0  0  0  0  0
  141.5999   76.0125  222.8317 H   0  0  0  0  0  0  0  0  0  0  0  0
  141.1937   78.4894  220.2047 H   0  0  0  0  0  0  0  0  0  0  0  0
  141.5891   80.9206  220.5755 H   0  0  0  0  0  0  0  0  0  0  0  0
  141.9079   81.7769  222.8820 H   0  0  0  0  0  0  0  0  0  0  0  0
  141.8342   80.2286  224.8011 H   0  0  0  0  0  0  0  0  0  0  0  0
  141.4391   77.8074  224.4340 H   0  0  0  0  0  0  0  0  0  0  0  0
  141.3651   76.9475  219.9363 H   0  0  0  0  0  0  0  0  0  0  0  0
  142.6086   75.9336  220.6105 H   0  0  0  0  0  0  0  0  0  0  0  0
  140.6180   74.6404  219.3206 H   0  0  0  0  0  0  0  0  0  0  0  0
  141.1551   72.8783  220.5537 H   0  0  0  0  0  0  0  0  0  0  0  0
  142.1993   74.0227  221.5021 H   0  0  0  0  0  0  0  0  0  0  0  0
  139.9090   72.6960  222.2850 H   0  0  0  0  0  0  0  0  0  0  0  0
  136.5399   69.8003  222.8689 H   0  0  0  0  0  0  0  0  0  0  0  0
  137.5087   68.1902  224.4837 H   0  0  0  0  0  0  0  0  0  0  0  0
  139.2355   67.5990  226.1266 H   0  0  0  0  0  0  0  0  0  0  0  0
  141.2881   68.1853  227.3855 H   0  0  0  0  0  0  0  0  0  0  0  0
  142.3359   70.4139  226.9829 H   0  0  0  0  0  0  0  0  0  0  0  0
  141.3491   72.0183  225.3588 H   0  0  0  0  0  0  0  0  0  0  0  0
  1  2  2  0
  2  3  1  0
  3  4  1  0
  4  5  1  0
  5  6  2  0
  5  7  1  0
  7  8  1  0
  8  9  1  0
  9 10  1  0
 10 11  2  0
 11 12  1  0
 12 13  2  0
 13 14  1  0
 14 15  2  0
  9 16  1  0
 16 17  1  0
 17 18  1  0
 18 19  1  0
  2 20  1  0
 20 21  2  0
 21 22  1  0
 22 23  2  0
 23 24  1  0
 24 25  2  0
 25 26  1  0
 26 27  2  0
 27 28  1  0
 28 29  2  0
 17  7  1  0
 29 20  1  0
 15 10  1  0
 28 23  1  0
  3 30  1  0
  4 31  1  0
  4 32  1  0
  8 33  1  0
  8 34  1  0
  9 35  1  1
 11 36  1  0
 12 37  1  0
 13 38  1  0
 14 39  1  0
 15 40  1  0
 16 41  1  0
 16 42  1  0
 17 43  1  6
 18 44  1  0
 18 45  1  0
 19 46  1  0
 21 47  1  0
 22 48  1  0
 24 49  1  0
 25 50  1  0
 26 51  1  0
 27 52  1  0
M  END
>  <smiles>  (26) 
O=C(NCC(=O)N1C[C@H](c2ccccc2)C[C@H]1CO)c1ccc2ccccc2n1

>  <score_type>  (26) 
oracle

>  <origin>  (26) 
autodockgpu

>  <m_score__min__energy>  (26) 
-9.0399999999999991

>  <m_primary>  (26) 
energy

>  <rmsd>  (26) 
2.685691102124093

>  <m_score__min__rmsd>  (26) 
2.685691102124093

>  <meeko>  (26) 
{"free_energy": -7.52, "intermolecular_energy": -9.6, "internal_energy": -2.98, "cluster_size": 31, "cluster_id": 1, "rank_in_cluster": 30}

>  <energy>  (26) 
-7.62

>  <cluster_rmsd>  (26) 
1.81

>  <cluster>  (26) 
1

$$$$

     RDKit          3D

 52 55  0  0  0  0  0  0  0  0999 V2000
  136.8970   71.3570  221.3380 O   0  0  0  0  0  0  0  0  0  0  0  0
  137.5440   71.8300  222.3060 C   0  0  0  0  0  0  0  0  0  0  0  0
  137.6580   73.2650  222.3340 N   0  0  0  0  0  0  0  0  0  0  0  0
  137.0040   73.9610  221.2320 C   0  0  0  0  0  0  0  0  0  0  0  0
  137.9540   74.7640  220.4460 C   0  0  0  0  0  0  0  0  0  0  0  0
  137.7660   75.1220  219.2520 O   0  0  0  0  0  0  0  0  0  0  0  0
  139.1750   75.1740  221.0610 N   0  0  0  0  0  0  0  0  0  0  0  0
  139.2230   75.9710  222.2550 C   0  0  0  0  0  0  0  0  0  0  0  0
  140.6150   76.4690  222.3860 C   0  0  2  0  0  0  0  0  0  0  0  0
  140.6720   77.9290  222.7110 C   0  0  0  0  0  0  0  0  0  0  0  0
  139.5030   78.5780  223.0940 C   0  0  0  0  0  0  0  0  0  0  0  0
  139.5110   79.9360  223.4030 C   0  0  0  0  0  0  0  0  0  0  0  0
  140.6920   80.6430  223.3270 C   0  0  0  0  0  0  0  0  0  0  0  0
  141.8500   80.0150  222.9500 C   0  0  0  0  0  0  0  0  0  0  0  0
  141.8380   78.6610  222.6430 C   0  0  0  0  0  0  0  0  0  0  0  0
  141.2550   76.1750  221.0620 C   0  0  0  0  0  0  0  0  0  0  0  0
  140.5410   74.9050  220.6610 C   0  0  1  0  0  0  0  0  0  0  0  0
  141.1060   73.7740  221.4830 C   0  0  0  0  0  0  0  0  0  0  0  0
  140.2340   73.3850  222.5260 O   0  0  0  0  0  0  0  0  0  0  0  0
  138.1520   71.0130  223.3500 C   0  0  0  0  0  0  0  0  0  0  0  0
  137.7300   69.6820  223.4090 C   0  0  0  0  0  0  0  0  0  0  0  0
  138.2820   68.8780  224.3850 C   0  0  0  0  0  0  0  0  0  0  0  0
  139.2180   69.3400  225.2840 C   0  0  0  0  0  0  0  0  0  0  0  0
  139.7840   68.5570  226.2680 C   0  0  0  0  0  0  0  0  0  0  0  0
  140.7180   69.0490  227.1520 C   0  0  0  0  0  0  0  0  0  0  0  0
  141.0820   70.3840  227.0240 C   0  0  0  0  0  0  0  0  0  0  0  0
  140.5340   71.2030  226.0460 C   0  0  0  0  0  0  0  0  0  0  0  0
  139.6010   70.6600  225.1840 C   0  0  0  0  0  0  0  0  0  0  0  0
  139.0550   71.4510  224.2200 N   0  0  0  0  0  0  0  0  0  0  0  0
  138.1730   73.7600  223.0950 H   0  0  0  0  0  0  0  0  0  0  0  0
  136.5352   73.2175  220.5706 H   0  0  0  0  0  0  0  0  0  0  0  0
  136.2539   74.6432  221.6584 H   0  0  0  0  0  0  0  0  0  0  0  0
  138.5248   76.8171  222.1732 H   0  0  0  0  0  0  0  0  0  0  0  0
  138.9325   75.3788  223.1353 H   0  0  0  0  0  0  0  0  0  0  0  0
  141.1382   75.9782  223.2199 H   0  0  0  0  0  0  0  0  0  0  0  0
  138.5615   78.0123  223.1535 H   0  0  0  0  0  0  0  0  0  0  0  0
  138.5817   80.4408  223.7055 H   0  0  0  0  0  0  0  0  0  0  0  0
  140.7048   81.7157  223.5700 H   0  0  0  0  0  0  0  0  0  0  0  0
  142.7896   80.5839  222.8905 H   0  0  0  0  0  0  0  0  0  0  0  0
  142.7724   78.1653  222.3412 H   0  0  0  0  0  0  0  0  0  0  0  0
  141.0736   76.9839  220.3390 H   0  0  0  0  0  0  0  0  0  0  0  0
  142.3502   76.0813  221.1029 H   0  0  0  0  0  0  0  0  0  0  0  0
  140.6347   74.6350  219.5988 H   0  0  0  0  0  0  0  0  0  0  0  0
  141.2791   72.9097  220.8249 H   0  0  0  0  0  0  0  0  0  0  0  0
  142.0439   74.1235  221.9393 H   0  0  0  0  0  0  0  0  0  0  0  0
  140.1350   72.4070  222.5740 H   0  0  0  0  0  0  0  0  0  0  0  0
  136.9841   69.2892  222.7023 H   0  0  0  0  0  0  0  0  0  0  0  0
  137.9623   67.8274  224.4477 H   0  0  0  0  0  0  0  0  0  0  0  0
  139.4789   67.5033  226.3495 H   0  0  0  0  0  0  0  0  0  0  0  0
  141.1595   68.4093  227.9304 H   0  0  0  0  0  0  0  0  0  0  0  0
  141.8256   70.8039  227.7174 H   0  0  0  0  0  0  0  0  0  0  0  0
  140.8351   72.2575  225.9597 H   0  0  0  0  0  0  0  0  0  0  0  0
  1  2  2  0
  2  3  1  0
  3  4  1  0
  4  5  1  0
  5  6  2  0
  5  7  1  0
  7  8  1  0
  8  9  1  0
  9 10  1  0
 10 11  2  0
 11 12  1  0
 12 13  2  0
 13 14  1  0
 14 15  2  0
  9 16  1  0
 16 17  1  0
 17 18  1  0
 18 19  1  0
  2 20  1  0
 20 21  2  0
 21 22  1  0
 22 23  2  0
 23 24  1  0
 24 25  2  0
 25 26  1  0
 26 27  2  0
 27 28  1  0
 28 29  2  0
 17  7  1  0
 29 20  1  0
 15 10  1  0
 28 23  1  0
  3 30  1  0
  4 31  1  0
  4 32  1  0
  8 33  1  0
  8 34  1  0
  9 35  1  1
 11 36  1  0
 12 37  1  0
 13 38  1  0
 14 39  1  0
 15 40  1  0
 16 41  1  0
 16 42  1  0
 17 43  1  6
 18 44  1  0
 18 45  1  0
 19 46  1  0
 21 47  1  0
 22 48  1  0
 24 49  1  0
 25 50  1  0
 26 51  1  0
 27 52  1  0
M  END
>  <smiles>  (27) 
O=C(NCC(=O)N1C[C@H](c2ccccc2)C[C@H]1CO)c1ccc2ccccc2n1

>  <score_type>  (27) 
oracle

>  <origin>  (27) 
autodockgpu

>  <m_score__min__energy>  (27) 
-9.0399999999999991

>  <m_primary>  (27) 
energy

>  <rmsd>  (27) 
2.6795631286781987

>  <m_score__min__rmsd>  (27) 
2.6795631286781987

>  <meeko>  (27) 
{"free_energy": -7.65, "intermolecular_energy": -9.74, "internal_energy": -2.96, "cluster_size": 31, "cluster_id": 1, "rank_in_cluster": 24}

>  <energy>  (27) 
-7.61

>  <cluster_rmsd>  (27) 
1.47

>  <cluster>  (27) 
1

$$$$

     RDKit          3D

 52 55  0  0  0  0  0  0  0  0999 V2000
  139.4410   71.5920  221.1330 O   0  0  0  0  0  0  0  0  0  0  0  0
  140.2860   71.8130  222.0350 C   0  0  0  0  0  0  0  0  0  0  0  0
  141.4280   72.5950  221.6380 N   0  0  0  0  0  0  0  0  0  0  0  0
  141.4340   73.0170  220.2420 C   0  0  0  0  0  0  0  0  0  0  0  0
  141.8120   74.4330  220.0950 C   0  0  0  0  0  0  0  0  0  0  0  0
  142.7980   74.8410  219.4260 O   0  0  0  0  0  0  0  0  0  0  0  0
  141.0190   75.4220  220.7500 N   0  0  0  0  0  0  0  0  0  0  0  0
  141.1930   76.8330  220.5380 C   0  0  0  0  0  0  0  0  0  0  0  0
  140.4490   77.5270  221.6190 C   0  0  2  0  0  0  0  0  0  0  0  0
  141.2470   78.6260  222.2490 C   0  0  0  0  0  0  0  0  0  0  0  0
  141.8080   79.6010  221.4310 C   0  0  0  0  0  0  0  0  0  0  0  0
  142.5600   80.6390  221.9750 C   0  0  0  0  0  0  0  0  0  0  0  0
  142.7480   80.6990  223.3400 C   0  0  0  0  0  0  0  0  0  0  0  0
  142.2000   79.7440  224.1550 C   0  0  0  0  0  0  0  0  0  0  0  0
  141.4520   78.7110  223.6090 C   0  0  0  0  0  0  0  0  0  0  0  0
  140.1170   76.4520  222.6090 C   0  0  0  0  0  0  0  0  0  0  0  0
  139.9420   75.2540  221.7030 C   0  0  1  0  0  0  0  0  0  0  0  0
  138.6110   75.3900  221.0060 C   0  0  0  0  0  0  0  0  0  0  0  0
  138.3740   74.3320  220.0980 O   0  0  0  0  0  0  0  0  0  0  0  0
  140.1560   71.3270  223.4040 C   0  0  0  0  0  0  0  0  0  0  0  0
  139.3600   70.1910  223.5770 C   0  0  0  0  0  0  0  0  0  0  0  0
  139.2110   69.7030  224.8580 C   0  0  0  0  0  0  0  0  0  0  0  0
  139.8110   70.2900  225.9500 C   0  0  0  0  0  0  0  0  0  0  0  0
  139.6770   69.8220  227.2400 C   0  0  0  0  0  0  0  0  0  0  0  0
  140.2910   70.4320  228.3110 C   0  0  0  0  0  0  0  0  0  0  0  0
  141.0640   71.5570  228.0520 C   0  0  0  0  0  0  0  0  0  0  0  0
  141.2220   72.0580  226.7670 C   0  0  0  0  0  0  0  0  0  0  0  0
  140.5850   71.4080  225.7270 C   0  0  0  0  0  0  0  0  0  0  0  0
  140.7310   71.8880  224.4620 N   0  0  0  0  0  0  0  0  0  0  0  0
  142.1890   72.8370  222.3100 H   0  0  0  0  0  0  0  0  0  0  0  0
  142.1541   72.3978  219.6870 H   0  0  0  0  0  0  0  0  0  0  0  0
  140.4152   72.8945  219.8457 H   0  0  0  0  0  0  0  0  0  0  0  0
  142.2605   77.0938  220.5860 H   0  0  0  0  0  0  0  0  0  0  0  0
  140.8179   77.1314  219.5479 H   0  0  0  0  0  0  0  0  0  0  0  0
  139.5498   78.0258  221.2282 H   0  0  0  0  0  0  0  0  0  0  0  0
  141.6560   79.5516  220.3427 H   0  0  0  0  0  0  0  0  0  0  0  0
  143.0009   81.4056  221.3208 H   0  0  0  0  0  0  0  0  0  0  0  0
  143.3403   81.5170  223.7760 H   0  0  0  0  0  0  0  0  0  0  0  0
  142.3531   79.7962  225.2430 H   0  0  0  0  0  0  0  0  0  0  0  0
  141.0162   77.9486  224.2714 H   0  0  0  0  0  0  0  0  0  0  0  0
  140.9373   76.2979  223.3255 H   0  0  0  0  0  0  0  0  0  0  0  0
  139.2403   76.6734  223.2354 H   0  0  0  0  0  0  0  0  0  0  0  0
  139.9642   74.2790  222.2119 H   0  0  0  0  0  0  0  0  0  0  0  0
  137.8130   75.3927  221.7631 H   0  0  0  0  0  0  0  0  0  0  0  0
  138.6230   76.3298  220.4345 H   0  0  0  0  0  0  0  0  0  0  0  0
  138.6060   73.4590  220.4870 H   0  0  0  0  0  0  0  0  0  0  0  0
  138.8698   69.7036  222.7214 H   0  0  0  0  0  0  0  0  0  0  0  0
  138.5884   68.8097  225.0139 H   0  0  0  0  0  0  0  0  0  0  0  0
  139.0582   68.9305  227.4198 H   0  0  0  0  0  0  0  0  0  0  0  0
  140.1739   70.0432  229.3333 H   0  0  0  0  0  0  0  0  0  0  0  0
  141.5651   72.0652  228.8890 H   0  0  0  0  0  0  0  0  0  0  0  0
  141.8386   72.9498  226.5813 H   0  0  0  0  0  0  0  0  0  0  0  0
  1  2  2  0
  2  3  1  0
  3  4  1  0
  4  5  1  0
  5  6  2  0
  5  7  1  0
  7  8  1  0
  8  9  1  0
  9 10  1  0
 10 11  2  0
 11 12  1  0
 12 13  2  0
 13 14  1  0
 14 15  2  0
  9 16  1  0
 16 17  1  0
 17 18  1  0
 18 19  1  0
  2 20  1  0
 20 21  2  0
 21 22  1  0
 22 23  2  0
 23 24  1  0
 24 25  2  0
 25 26  1  0
 26 27  2  0
 27 28  1  0
 28 29  2  0
 17  7  1  0
 29 20  1  0
 15 10  1  0
 28 23  1  0
  3 30  1  0
  4 31  1  0
  4 32  1  0
  8 33  1  0
  8 34  1  0
  9 35  1  6
 11 36  1  0
 12 37  1  0
 13 38  1  0
 14 39  1  0
 15 40  1  0
 16 41  1  0
 16 42  1  0
 17 43  1  1
 18 44  1  0
 18 45  1  0
 19 46  1  0
 21 47  1  0
 22 48  1  0
 24 49  1  0
 25 50  1  0
 26 51  1  0
 27 52  1  0
M  END
>  <smiles>  (28) 
O=C(NCC(=O)N1C[C@H](c2ccccc2)C[C@H]1CO)c1ccc2ccccc2n1

>  <score_type>  (28) 
oracle

>  <origin>  (28) 
autodockgpu

>  <m_score__min__energy>  (28) 
-9.0399999999999991

>  <m_primary>  (28) 
energy

>  <rmsd>  (28) 
3.0263103271785625

>  <m_score__min__rmsd>  (28) 
3.0263103271785625

>  <meeko>  (28) 
{"free_energy": -7.61, "intermolecular_energy": -9.7, "internal_energy": -2.37, "cluster_size": 31, "cluster_id": 1, "rank_in_cluster": 27}

>  <energy>  (28) 
-7.59

>  <cluster_rmsd>  (28) 
1.74

>  <cluster>  (28) 
1

$$$$

     RDKit          3D

 52 55  0  0  0  0  0  0  0  0999 V2000
  137.3620   71.1370  221.8530 O   0  0  0  0  0  0  0  0  0  0  0  0
  138.1450   71.7730  222.6020 C   0  0  0  0  0  0  0  0  0  0  0  0
  138.2780   73.1770  222.3120 N   0  0  0  0  0  0  0  0  0  0  0  0
  137.4810   73.6560  221.1890 C   0  0  0  0  0  0  0  0  0  0  0  0
  138.1300   74.7770  220.4900 C   0  0  0  0  0  0  0  0  0  0  0  0
  137.6690   75.3380  219.4610 O   0  0  0  0  0  0  0  0  0  0  0  0
  139.3680   75.2740  220.9990 N   0  0  0  0  0  0  0  0  0  0  0  0
  139.4890   75.9120  222.2810 C   0  0  0  0  0  0  0  0  0  0  0  0
  140.8130   76.5820  222.3070 C   0  0  2  0  0  0  0  0  0  0  0  0
  140.7360   77.9830  222.8310 C   0  0  0  0  0  0  0  0  0  0  0  0
  139.5040   78.6290  222.8390 C   0  0  0  0  0  0  0  0  0  0  0  0
  139.3880   79.9320  223.3160 C   0  0  0  0  0  0  0  0  0  0  0  0
  140.5080   80.5870  223.7840 C   0  0  0  0  0  0  0  0  0  0  0  0
  141.7270   79.9610  223.7800 C   0  0  0  0  0  0  0  0  0  0  0  0
  141.8380   78.6610  223.3040 C   0  0  0  0  0  0  0  0  0  0  0  0
  141.2860   76.5530  220.8850 C   0  0  0  0  0  0  0  0  0  0  0  0
  140.6840   75.2560  220.3960 C   0  0  1  0  0  0  0  0  0  0  0  0
  141.4970   74.1210  220.9670 C   0  0  0  0  0  0  0  0  0  0  0  0
  140.8380   73.4810  222.0420 O   0  0  0  0  0  0  0  0  0  0  0  0
  138.8870   71.1640  223.7000 C   0  0  0  0  0  0  0  0  0  0  0  0
  139.9900   71.8850  224.1660 C   0  0  0  0  0  0  0  0  0  0  0  0
  140.7180   71.3410  225.2040 C   0  0  0  0  0  0  0  0  0  0  0  0
  140.3970   70.1320  225.7820 C   0  0  0  0  0  0  0  0  0  0  0  0
  141.1080   69.5680  226.8190 C   0  0  0  0  0  0  0  0  0  0  0  0
  140.7600   68.3560  227.3750 C   0  0  0  0  0  0  0  0  0  0  0  0
  139.6500   67.7050  226.8520 C   0  0  0  0  0  0  0  0  0  0  0  0
  138.9090   68.2430  225.8080 C   0  0  0  0  0  0  0  0  0  0  0  0
  139.3000   69.4600  225.2860 C   0  0  0  0  0  0  0  0  0  0  0  0
  138.5830   70.0000  224.2620 N   0  0  0  0  0  0  0  0  0  0  0  0
  138.9020   73.7970  222.8740 H   0  0  0  0  0  0  0  0  0  0  0  0
  137.3372   72.8295  220.4775 H   0  0  0  0  0  0  0  0  0  0  0  0
  136.5185   74.0135  221.5837 H   0  0  0  0  0  0  0  0  0  0  0  0
  138.6873   76.6538  222.4113 H   0  0  0  0  0  0  0  0  0  0  0  0
  139.4038   75.1775  223.0954 H   0  0  0  0  0  0  0  0  0  0  0  0
  141.5072   76.0684  222.9884 H   0  0  0  0  0  0  0  0  0  0  0  0
  138.6122   78.1050  222.4646 H   0  0  0  0  0  0  0  0  0  0  0  0
  138.4100   80.4355  223.3196 H   0  0  0  0  0  0  0  0  0  0  0  0
  140.4223   81.6164  224.1621 H   0  0  0  0  0  0  0  0  0  0  0  0
  142.6173   80.4880  224.1537 H   0  0  0  0  0  0  0  0  0  0  0  0
  142.8201   78.1655  223.3047 H   0  0  0  0  0  0  0  0  0  0  0  0
  140.9036   77.4135  220.3163 H   0  0  0  0  0  0  0  0  0  0  0  0
  142.3788   76.6113  220.7736 H   0  0  0  0  0  0  0  0  0  0  0  0
  140.6563   75.1404  219.3024 H   0  0  0  0  0  0  0  0  0  0  0  0
  141.6803   73.3819  220.1732 H   0  0  0  0  0  0  0  0  0  0  0  0
  142.4398   74.5394  221.3493 H   0  0  0  0  0  0  0  0  0  0  0  0
  140.3170   72.7030  221.7390 H   0  0  0  0  0  0  0  0  0  0  0  0
  140.2678   72.8518  223.7209 H   0  0  0  0  0  0  0  0  0  0  0  0
  141.5890   71.8942  225.5852 H   0  0  0  0  0  0  0  0  0  0  0  0
  141.9829   70.1033  227.2164 H   0  0  0  0  0  0  0  0  0  0  0  0
  141.3397   67.9204  228.2022 H   0  0  0  0  0  0  0  0  0  0  0  0
  139.3494   66.7359  227.2768 H   0  0  0  0  0  0  0  0  0  0  0  0
  138.0325   67.7129  225.4070 H   0  0  0  0  0  0  0  0  0  0  0  0
  1  2  2  0
  2  3  1  0
  3  4  1  0
  4  5  1  0
  5  6  2  0
  5  7  1  0
  7  8  1  0
  8  9  1  0
  9 10  1  0
 10 11  2  0
 11 12  1  0
 12 13  2  0
 13 14  1  0
 14 15  2  0
  9 16  1  0
 16 17  1  0
 17 18  1  0
 18 19  1  0
  2 20  1  0
 20 21  2  0
 21 22  1  0
 22 23  2  0
 23 24  1  0
 24 25  2  0
 25 26  1  0
 26 27  2  0
 27 28  1  0
 28 29  2  0
 17  7  1  0
 29 20  1  0
 15 10  1  0
 28 23  1  0
  3 30  1  0
  4 31  1  0
  4 32  1  0
  8 33  1  0
  8 34  1  0
  9 35  1  1
 11 36  1  0
 12 37  1  0
 13 38  1  0
 14 39  1  0
 15 40  1  0
 16 41  1  0
 16 42  1  0
 17 43  1  6
 18 44  1  0
 18 45  1  0
 19 46  1  0
 21 47  1  0
 22 48  1  0
 24 49  1  0
 25 50  1  0
 26 51  1  0
 27 52  1  0
M  END
>  <smiles>  (29) 
O=C(NCC(=O)N1C[C@H](c2ccccc2)C[C@H]1CO)c1ccc2ccccc2n1

>  <score_type>  (29) 
oracle

>  <origin>  (29) 
autodockgpu

>  <m_score__min__energy>  (29) 
-9.0399999999999991

>  <m_primary>  (29) 
energy

>  <rmsd>  (29) 
3.3030454954248216

>  <m_score__min__rmsd>  (29) 
3.3030454954248216

>  <meeko>  (29) 
{"free_energy": -8.01, "intermolecular_energy": -10.09, "internal_energy": -2.07, "cluster_size": 31, "cluster_id": 1, "rank_in_cluster": 14}

>  <energy>  (29) 
-7.52

>  <cluster_rmsd>  (29) 
1.79

>  <cluster>  (29) 
1

$$$$

     RDKit          3D

 52 55  0  0  0  0  0  0  0  0999 V2000
  139.3660   74.6130  222.4360 O   0  0  0  0  0  0  0  0  0  0  0  0
  140.1750   75.0570  221.5840 C   0  0  0  0  0  0  0  0  0  0  0  0
  140.5840   74.1200  220.5690 N   0  0  0  0  0  0  0  0  0  0  0  0
  139.9950   72.7910  220.6800 C   0  0  0  0  0  0  0  0  0  0  0  0
  140.5900   72.0140  221.7800 C   0  0  0  0  0  0  0  0  0  0  0  0
  141.8290   71.8990  221.9820 O   0  0  0  0  0  0  0  0  0  0  0  0
  139.7210   71.3390  222.6880 N   0  0  0  0  0  0  0  0  0  0  0  0
  139.8620   71.4180  224.1160 C   0  0  0  0  0  0  0  0  0  0  0  0
  139.0210   70.3410  224.6940 C   0  0  2  0  0  0  0  0  0  0  0  0
  139.7360   69.5650  225.7570 C   0  0  0  0  0  0  0  0  0  0  0  0
  140.3040   70.2540  226.8230 C   0  0  0  0  0  0  0  0  0  0  0  0
  140.9800   69.5710  227.8310 C   0  0  0  0  0  0  0  0  0  0  0  0
  141.0860   68.1980  227.7690 C   0  0  0  0  0  0  0  0  0  0  0  0
  140.5310   67.5080  226.7230 C   0  0  0  0  0  0  0  0  0  0  0  0
  139.8580   68.1930  225.7200 C   0  0  0  0  0  0  0  0  0  0  0  0
  138.6560   69.4710  223.5300 C   0  0  0  0  0  0  0  0  0  0  0  0
  138.5850   70.4840  222.4100 C   0  0  1  0  0  0  0  0  0  0  0  0
  137.3030   71.2630  222.5690 C   0  0  0  0  0  0  0  0  0  0  0  0
  137.4960   72.6510  222.3830 O   0  0  0  0  0  0  0  0  0  0  0  0
  140.6890   76.4220  221.5890 C   0  0  0  0  0  0  0  0  0  0  0  0
  140.9380   76.9860  220.3360 C   0  0  0  0  0  0  0  0  0  0  0  0
  141.4270   78.2760  220.2990 C   0  0  0  0  0  0  0  0  0  0  0  0
  141.6710   79.0080  221.4400 C   0  0  0  0  0  0  0  0  0  0  0  0
  142.1580   80.2980  221.4310 C   0  0  0  0  0  0  0  0  0  0  0  0
  142.3920   81.0040  222.5900 C   0  0  0  0  0  0  0  0  0  0  0  0
  142.1170   80.3690  223.7950 C   0  0  0  0  0  0  0  0  0  0  0  0
  141.6250   79.0710  223.8440 C   0  0  0  0  0  0  0  0  0  0  0  0
  141.4090   78.4070  222.6520 C   0  0  0  0  0  0  0  0  0  0  0  0
  140.9270   77.1340  222.6850 N   0  0  0  0  0  0  0  0  0  0  0  0
  141.2520   74.3870  219.8140 H   0  0  0  0  0  0  0  0  0  0  0  0
  138.9152   72.8952  220.8623 H   0  0  0  0  0  0  0  0  0  0  0  0
  140.1898   72.2535  219.7402 H   0  0  0  0  0  0  0  0  0  0  0  0
  140.9141   71.2699  224.4007 H   0  0  0  0  0  0  0  0  0  0  0  0
  139.5479   72.4044  224.4880 H   0  0  0  0  0  0  0  0  0  0  0  0
  138.1353   70.7535  225.1993 H   0  0  0  0  0  0  0  0  0  0  0  0
  140.2185   71.3496  226.8706 H   0  0  0  0  0  0  0  0  0  0  0  0
  141.4263   70.1234  228.6710 H   0  0  0  0  0  0  0  0  0  0  0  0
  141.6185   67.6537  228.5628 H   0  0  0  0  0  0  0  0  0  0  0  0
  140.6186   66.4124  226.6780 H   0  0  0  0  0  0  0  0  0  0  0  0
  139.4157   67.6320  224.8835 H   0  0  0  0  0  0  0  0  0  0  0  0
  139.4285   68.7120  223.3374 H   0  0  0  0  0  0  0  0  0  0  0  0
  137.7306   68.8938  223.6732 H   0  0  0  0  0  0  0  0  0  0  0  0
  138.6033   70.0577  221.3961 H   0  0  0  0  0  0  0  0  0  0  0  0
  136.5755   70.9037  221.8263 H   0  0  0  0  0  0  0  0  0  0  0  0
  136.9375   71.1069  223.5947 H   0  0  0  0  0  0  0  0  0  0  0  0
  138.0680   73.0370  223.0840 H   0  0  0  0  0  0  0  0  0  0  0  0
  140.7509   76.4216  219.4106 H   0  0  0  0  0  0  0  0  0  0  0  0
  141.6296   78.7372  219.3211 H   0  0  0  0  0  0  0  0  0  0  0  0
  142.3669   80.7799  220.4645 H   0  0  0  0  0  0  0  0  0  0  0  0
  142.7820   82.0322  222.5629 H   0  0  0  0  0  0  0  0  0  0  0  0
  142.2939   80.9095  224.7366 H   0  0  0  0  0  0  0  0  0  0  0  0
  141.4128   78.5842  224.8073 H   0  0  0  0  0  0  0  0  0  0  0  0
  1  2  2  0
  2  3  1  0
  3  4  1  0
  4  5  1  0
  5  6  2  0
  5  7  1  0
  7  8  1  0
  8  9  1  0
  9 10  1  0
 10 11  2  0
 11 12  1  0
 12 13  2  0
 13 14  1  0
 14 15  2  0
  9 16  1  0
 16 17  1  0
 17 18  1  0
 18 19  1  0
  2 20  1  0
 20 21  2  0
 21 22  1  0
 22 23  2  0
 23 24  1  0
 24 25  2  0
 25 26  1  0
 26 27  2  0
 27 28  1  0
 28 29  2  0
 17  7  1  0
 29 20  1  0
 15 10  1  0
 28 23  1  0
  3 30  1  0
  4 31  1  0
  4 32  1  0
  8 33  1  0
  8 34  1  0
  9 35  1  1
 11 36  1  0
 12 37  1  0
 13 38  1  0
 14 39  1  0
 15 40  1  0
 16 41  1  0
 16 42  1  0
 17 43  1  6
 18 44  1  0
 18 45  1  0
 19 46  1  0
 21 47  1  0
 22 48  1  0
 24 49  1  0
 25 50  1  0
 26 51  1  0
 27 52  1  0
M  END
>  <smiles>  (30) 
O=C(NCC(=O)N1C[C@H](c2ccccc2)C[C@H]1CO)c1ccc2ccccc2n1

>  <score_type>  (30) 
oracle

>  <origin>  (30) 
autodockgpu

>  <m_score__min__energy>  (30) 
-9.0399999999999991

>  <m_primary>  (30) 
energy

>  <rmsd>  (30) 
8.402162721744808

>  <m_score__min__rmsd>  (30) 
8.402162721744808

>  <meeko>  (30) 
{"free_energy": -8.71, "intermolecular_energy": -10.79, "internal_energy": -2.13, "cluster_size": 18, "cluster_id": 2, "rank_in_cluster": 5}

>  <energy>  (30) 
-7.52

>  <cluster_rmsd>  (30) 
1.75

>  <cluster>  (30) 
1

$$$$

     RDKit          3D

 52 55  0  0  0  0  0  0  0  0999 V2000
  136.1150   71.5270  221.8290 O   0  0  0  0  0  0  0  0  0  0  0  0
  137.0320   71.9700  222.5660 C   0  0  0  0  0  0  0  0  0  0  0  0
  137.3350   73.3690  222.4070 N   0  0  0  0  0  0  0  0  0  0  0  0
  136.5300   74.0680  221.4110 C   0  0  0  0  0  0  0  0  0  0  0  0
  137.2780   75.1580  220.7640 C   0  0  0  0  0  0  0  0  0  0  0  0
  136.8330   75.8660  219.8230 O   0  0  0  0  0  0  0  0  0  0  0  0
  138.6000   75.4440  221.2210 N   0  0  0  0  0  0  0  0  0  0  0  0
  138.8710   76.2080  222.4090 C   0  0  0  0  0  0  0  0  0  0  0  0
  140.3080   76.5780  222.3650 C   0  0  2  0  0  0  0  0  0  0  0  0
  140.5360   78.0200  222.6960 C   0  0  0  0  0  0  0  0  0  0  0  0
  141.8190   78.5420  222.5720 C   0  0  0  0  0  0  0  0  0  0  0  0
  142.0770   79.8780  222.8720 C   0  0  0  0  0  0  0  0  0  0  0  0
  141.0460   80.6890  223.2970 C   0  0  0  0  0  0  0  0  0  0  0  0
  139.7780   80.1860  223.4240 C   0  0  0  0  0  0  0  0  0  0  0  0
  139.5260   78.8540  223.1240 C   0  0  0  0  0  0  0  0  0  0  0  0
  140.7440   76.2600  220.9670 C   0  0  0  0  0  0  0  0  0  0  0  0
  139.8740   75.0660  220.6460 C   0  0  1  0  0  0  0  0  0  0  0  0
  140.4350   73.8720  221.3760 C   0  0  0  0  0  0  0  0  0  0  0  0
  139.9470   73.7780  222.7000 O   0  0  0  0  0  0  0  0  0  0  0  0
  137.7620   71.1540  223.5290 C   0  0  0  0  0  0  0  0  0  0  0  0
  137.1850   69.9210  223.8480 C   0  0  0  0  0  0  0  0  0  0  0  0
  137.8460   69.1210  224.7570 C   0  0  0  0  0  0  0  0  0  0  0  0
  139.0330   69.4950  225.3480 C   0  0  0  0  0  0  0  0  0  0  0  0
  139.7130   68.7140  226.2590 C   0  0  0  0  0  0  0  0  0  0  0  0
  140.8990   69.1160  226.8320 C   0  0  0  0  0  0  0  0  0  0  0  0
  141.4030   70.3560  226.4600 C   0  0  0  0  0  0  0  0  0  0  0  0
  140.7480   71.1710  225.5450 C   0  0  0  0  0  0  0  0  0  0  0  0
  139.5610   70.7200  225.0000 C   0  0  0  0  0  0  0  0  0  0  0  0
  138.9070   71.5070  224.1030 N   0  0  0  0  0  0  0  0  0  0  0  0
  138.0770   73.8370  222.9710 H   0  0  0  0  0  0  0  0  0  0  0  0
  136.2138   73.3485  220.6413 H   0  0  0  0  0  0  0  0  0  0  0  0
  135.6624   74.5089  221.9238 H   0  0  0  0  0  0  0  0  0  0  0  0
  138.2474   77.1140  222.4266 H   0  0  0  0  0  0  0  0  0  0  0  0
  138.6420   75.6248  223.3131 H   0  0  0  0  0  0  0  0  0  0  0  0
  140.8874   76.0239  223.1182 H   0  0  0  0  0  0  0  0  0  0  0  0
  142.6397   77.8926  222.2332 H   0  0  0  0  0  0  0  0  0  0  0  0
  143.0949   80.2825  222.7706 H   0  0  0  0  0  0  0  0  0  0  0  0
  141.2425   81.7448  223.5352 H   0  0  0  0  0  0  0  0  0  0  0  0
  138.9594   80.8375  223.7637 H   0  0  0  0  0  0  0  0  0  0  0  0
  138.5050   78.4586  223.2295 H   0  0  0  0  0  0  0  0  0  0  0  0
  140.5447   77.0982  220.2831 H   0  0  0  0  0  0  0  0  0  0  0  0
  141.8227   76.0701  220.8652 H   0  0  0  0  0  0  0  0  0  0  0  0
  139.8079   74.8130  219.5775 H   0  0  0  0  0  0  0  0  0  0  0  0
  140.1553   72.9592  220.8297 H   0  0  0  0  0  0  0  0  0  0  0  0
  141.5276   73.9894  221.4262 H   0  0  0  0  0  0  0  0  0  0  0  0
  139.3690   72.9920  222.8210 H   0  0  0  0  0  0  0  0  0  0  0  0
  136.2375   69.6002  223.3904 H   0  0  0  0  0  0  0  0  0  0  0  0
  137.4083   68.1467  225.0201 H   0  0  0  0  0  0  0  0  0  0  0  0
  139.2934   67.7361  226.5376 H   0  0  0  0  0  0  0  0  0  0  0  0
  141.4273   68.4793  227.5569 H   0  0  0  0  0  0  0  0  0  0  0  0
  142.3483   70.7028  226.9029 H   0  0  0  0  0  0  0  0  0  0  0  0
  141.1634   72.1494  225.2619 H   0  0  0  0  0  0  0  0  0  0  0  0
  1  2  2  0
  2  3  1  0
  3  4  1  0
  4  5  1  0
  5  6  2  0
  5  7  1  0
  7  8  1  0
  8  9  1  0
  9 10  1  0
 10 11  2  0
 11 12  1  0
 12 13  2  0
 13 14  1  0
 14 15  2  0
  9 16  1  0
 16 17  1  0
 17 18  1  0
 18 19  1  0
  2 20  1  0
 20 21  2  0
 21 22  1  0
 22 23  2  0
 23 24  1  0
 24 25  2  0
 25 26  1  0
 26 27  2  0
 27 28  1  0
 28 29  2  0
 17  7  1  0
 29 20  1  0
 15 10  1  0
 28 23  1  0
  3 30  1  0
  4 31  1  0
  4 32  1  0
  8 33  1  0
  8 34  1  0
  9 35  1  1
 11 36  1  0
 12 37  1  0
 13 38  1  0
 14 39  1  0
 15 40  1  0
 16 41  1  0
 16 42  1  0
 17 43  1  6
 18 44  1  0
 18 45  1  0
 19 46  1  0
 21 47  1  0
 22 48  1  0
 24 49  1  0
 25 50  1  0
 26 51  1  0
 27 52  1  0
M  END
>  <smiles>  (31) 
O=C(NCC(=O)N1C[C@H](c2ccccc2)C[C@H]1CO)c1ccc2ccccc2n1

>  <score_type>  (31) 
oracle

>  <origin>  (31) 
autodockgpu

>  <m_score__min__energy>  (31) 
-9.0399999999999991

>  <m_primary>  (31) 
energy

>  <rmsd>  (31) 
2.889781074468045

>  <m_score__min__rmsd>  (31) 
2.889781074468045

>  <meeko>  (31) 
{"free_energy": -7.71, "intermolecular_energy": -9.8, "internal_energy": -2.86, "cluster_size": 31, "cluster_id": 1, "rank_in_cluster": 21}

>  <energy>  (31) 
-7.48

>  <cluster_rmsd>  (31) 
1.76

>  <cluster>  (31) 
1

$$$$

     RDKit          3D

 52 55  0  0  0  0  0  0  0  0999 V2000
  137.4650   70.7030  221.6210 O   0  0  0  0  0  0  0  0  0  0  0  0
  138.0390   71.3860  222.5050 C   0  0  0  0  0  0  0  0  0  0  0  0
  138.0560   72.8080  222.2780 N   0  0  0  0  0  0  0  0  0  0  0  0
  137.4020   73.2470  221.0510 C   0  0  0  0  0  0  0  0  0  0  0  0
  138.1170   74.3650  220.4150 C   0  0  0  0  0  0  0  0  0  0  0  0
  137.6930   75.0060  219.4160 O   0  0  0  0  0  0  0  0  0  0  0  0
  139.3790   74.7620  220.9510 N   0  0  0  0  0  0  0  0  0  0  0  0
  139.5110   75.6820  222.0480 C   0  0  0  0  0  0  0  0  0  0  0  0
  140.9330   76.1030  222.0890 C   0  0  2  0  0  0  0  0  0  0  0  0
  141.0870   77.5840  222.2480 C   0  0  0  0  0  0  0  0  0  0  0  0
  140.8930   78.4010  221.1390 C   0  0  0  0  0  0  0  0  0  0  0  0
  141.0280   79.7840  221.2430 C   0  0  0  0  0  0  0  0  0  0  0  0
  141.3580   80.3450  222.4580 C   0  0  0  0  0  0  0  0  0  0  0  0
  141.5530   79.5500  223.5570 C   0  0  0  0  0  0  0  0  0  0  0  0
  141.4170   78.1720  223.4490 C   0  0  0  0  0  0  0  0  0  0  0  0
  141.5140   75.6260  220.7920 C   0  0  0  0  0  0  0  0  0  0  0  0
  140.7130   74.3660  220.5510 C   0  0  1  0  0  0  0  0  0  0  0  0
  141.2350   73.3000  221.4810 C   0  0  0  0  0  0  0  0  0  0  0  0
  140.5330   73.2710  222.7080 O   0  0  0  0  0  0  0  0  0  0  0  0
  138.6570   70.8130  223.6950 C   0  0  0  0  0  0  0  0  0  0  0  0
  138.4940   69.4360  223.8670 C   0  0  0  0  0  0  0  0  0  0  0  0
  139.0640   68.8580  224.9830 C   0  0  0  0  0  0  0  0  0  0  0  0
  139.7740   69.5840  225.9130 C   0  0  0  0  0  0  0  0  0  0  0  0
  140.3530   69.0310  227.0360 C   0  0  0  0  0  0  0  0  0  0  0  0
  141.0570   69.7850  227.9480 C   0  0  0  0  0  0  0  0  0  0  0  0
  141.1710   71.1480  227.7020 C   0  0  0  0  0  0  0  0  0  0  0  0
  140.6030   71.7410  226.5820 C   0  0  0  0  0  0  0  0  0  0  0  0
  139.9060   70.9400  225.6990 C   0  0  0  0  0  0  0  0  0  0  0  0
  139.3430   71.5070  224.5970 N   0  0  0  0  0  0  0  0  0  0  0  0
  138.5050   73.4660  222.9520 H   0  0  0  0  0  0  0  0  0  0  0  0
  137.3646   72.4028  220.3468 H   0  0  0  0  0  0  0  0  0  0  0  0
  136.3908   73.5938  221.3102 H   0  0  0  0  0  0  0  0  0  0  0  0
  138.8622   76.5559  221.8888 H   0  0  0  0  0  0  0  0  0  0  0  0
  139.2128   75.2099  222.9957 H   0  0  0  0  0  0  0  0  0  0  0  0
  141.4511   75.6746  222.9597 H   0  0  0  0  0  0  0  0  0  0  0  0
  140.6304   77.9508  220.1703 H   0  0  0  0  0  0  0  0  0  0  0  0
  140.8723   80.4235  220.3617 H   0  0  0  0  0  0  0  0  0  0  0  0
  141.4654   81.4362  222.5459 H   0  0  0  0  0  0  0  0  0  0  0  0
  141.8170   80.0029  224.5240 H   0  0  0  0  0  0  0  0  0  0  0  0
  141.5752   77.5408  224.3359 H   0  0  0  0  0  0  0  0  0  0  0  0
  141.3599   76.3606  219.9879 H   0  0  0  0  0  0  0  0  0  0  0  0
  142.6024   75.4686  220.8179 H   0  0  0  0  0  0  0  0  0  0  0  0
  140.7574   73.9758  219.5235 H   0  0  0  0  0  0  0  0  0  0  0  0
  141.1319   72.3207  220.9907 H   0  0  0  0  0  0  0  0  0  0  0  0
  142.2883   73.5293  221.7000 H   0  0  0  0  0  0  0  0  0  0  0  0
  140.4580   72.3580  223.0650 H   0  0  0  0  0  0  0  0  0  0  0  0
  137.9312   68.8339  223.1385 H   0  0  0  0  0  0  0  0  0  0  0  0
  138.9466   67.7750  225.1356 H   0  0  0  0  0  0  0  0  0  0  0  0
  140.2487   67.9497  227.2091 H   0  0  0  0  0  0  0  0  0  0  0  0
  141.5121   69.3257  228.8379 H   0  0  0  0  0  0  0  0  0  0  0  0
  141.7269   71.7750  228.4146 H   0  0  0  0  0  0  0  0  0  0  0  0
  140.7057   72.8214  226.4028 H   0  0  0  0  0  0  0  0  0  0  0  0
  1  2  2  0
  2  3  1  0
  3  4  1  0
  4  5  1  0
  5  6  2  0
  5  7  1  0
  7  8  1  0
  8  9  1  0
  9 10  1  0
 10 11  2  0
 11 12  1  0
 12 13  2  0
 13 14  1  0
 14 15  2  0
  9 16  1  0
 16 17  1  0
 17 18  1  0
 18 19  1  0
  2 20  1  0
 20 21  2  0
 21 22  1  0
 22 23  2  0
 23 24  1  0
 24 25  2  0
 25 26  1  0
 26 27  2  0
 27 28  1  0
 28 29  2  0
 17  7  1  0
 29 20  1  0
 15 10  1  0
 28 23  1  0
  3 30  1  0
  4 31  1  0
  4 32  1  0
  8 33  1  0
  8 34  1  0
  9 35  1  1
 11 36  1  0
 12 37  1  0
 13 38  1  0
 14 39  1  0
 15 40  1  0
 16 41  1  0
 16 42  1  0
 17 43  1  6
 18 44  1  0
 18 45  1  0
 19 46  1  0
 21 47  1  0
 22 48  1  0
 24 49  1  0
 25 50  1  0
 26 51  1  0
 27 52  1  0
M  END
>  <smiles>  (32) 
O=C(NCC(=O)N1C[C@H](c2ccccc2)C[C@H]1CO)c1ccc2ccccc2n1

>  <score_type>  (32) 
oracle

>  <origin>  (32) 
autodockgpu

>  <m_score__min__energy>  (32) 
-9.0399999999999991

>  <m_primary>  (32) 
energy

>  <rmsd>  (32) 
2.5672177704716637

>  <m_score__min__rmsd>  (32) 
2.5672177704716637

>  <meeko>  (32) 
{"free_energy": -7.74, "intermolecular_energy": -9.83, "internal_energy": -2.92, "cluster_size": 31, "cluster_id": 1, "rank_in_cluster": 19}

>  <energy>  (32) 
-8.9

>  <cluster_rmsd>  (32) 
0.0

>  <cluster>  (32) 
2

$$$$

     RDKit          3D

 52 55  0  0  0  0  0  0  0  0999 V2000
  137.2740   70.9480  221.4290 O   0  0  0  0  0  0  0  0  0  0  0  0
  137.8240   71.5610  222.3770 C   0  0  0  0  0  0  0  0  0  0  0  0
  137.8070   72.9980  222.2800 N   0  0  0  0  0  0  0  0  0  0  0  0
  137.1510   73.5310  221.0920 C   0  0  0  0  0  0  0  0  0  0  0  0
  137.9840   74.5290  220.4020 C   0  0  0  0  0  0  0  0  0  0  0  0
  137.7250   75.0130  219.2680 O   0  0  0  0  0  0  0  0  0  0  0  0
  139.1720   74.9900  221.0470 N   0  0  0  0  0  0  0  0  0  0  0  0
  139.1560   75.8000  222.2340 C   0  0  0  0  0  0  0  0  0  0  0  0
  140.5240   76.3510  222.3980 C   0  0  2  0  0  0  0  0  0  0  0  0
  140.5170   77.8160  222.7100 C   0  0  0  0  0  0  0  0  0  0  0  0
  139.2960   78.4770  222.7950 C   0  0  0  0  0  0  0  0  0  0  0  0
  139.2440   79.8400  223.0800 C   0  0  0  0  0  0  0  0  0  0  0  0
  140.4170   80.5370  223.2790 C   0  0  0  0  0  0  0  0  0  0  0  0
  141.6250   79.8960  223.1970 C   0  0  0  0  0  0  0  0  0  0  0  0
  141.6720   78.5380  222.9120 C   0  0  0  0  0  0  0  0  0  0  0  0
  141.2110   76.0700  221.0960 C   0  0  0  0  0  0  0  0  0  0  0  0
  140.5570   74.7690  220.6880 C   0  0  1  0  0  0  0  0  0  0  0  0
  141.1410   73.6680  221.5370 C   0  0  0  0  0  0  0  0  0  0  0  0
  140.3300   73.3720  222.6570 O   0  0  0  0  0  0  0  0  0  0  0  0
  138.4490   70.8980  223.5160 C   0  0  0  0  0  0  0  0  0  0  0  0
  138.2360   69.5200  223.6140 C   0  0  0  0  0  0  0  0  0  0  0  0
  138.8090   68.8580  224.6800 C   0  0  0  0  0  0  0  0  0  0  0  0
  139.5700   69.5020  225.6310 C   0  0  0  0  0  0  0  0  0  0  0  0
  140.1530   68.8640  226.7040 C   0  0  0  0  0  0  0  0  0  0  0  0
  140.9090   69.5370  227.6380 C   0  0  0  0  0  0  0  0  0  0  0  0
  141.0700   70.9060  227.4670 C   0  0  0  0  0  0  0  0  0  0  0  0
  140.4980   71.5840  226.3980 C   0  0  0  0  0  0  0  0  0  0  0  0
  139.7500   70.8610  225.4890 C   0  0  0  0  0  0  0  0  0  0  0  0
  139.1830   71.5130  224.4370 N   0  0  0  0  0  0  0  0  0  0  0  0
  138.2350   73.6030  223.0150 H   0  0  0  0  0  0  0  0  0  0  0  0
  136.9431   72.7022  220.3993 H   0  0  0  0  0  0  0  0  0  0  0  0
  136.2220   74.0264  221.4107 H   0  0  0  0  0  0  0  0  0  0  0  0
  138.4292   76.6183  222.1238 H   0  0  0  0  0  0  0  0  0  0  0  0
  138.8628   75.2060  223.1122 H   0  0  0  0  0  0  0  0  0  0  0  0
  141.0418   75.8874  223.2506 H   0  0  0  0  0  0  0  0  0  0  0  0
  138.3621   77.9181  222.6356 H   0  0  0  0  0  0  0  0  0  0  0  0
  138.2747   80.3559  223.1457 H   0  0  0  0  0  0  0  0  0  0  0  0
  140.3827   81.6130  223.5047 H   0  0  0  0  0  0  0  0  0  0  0  0
  142.5575   80.4571  223.3569 H   0  0  0  0  0  0  0  0  0  0  0  0
  142.6462   78.0314  222.8466 H   0  0  0  0  0  0  0  0  0  0  0  0
  141.0192   76.8648  220.3601 H   0  0  0  0  0  0  0  0  0  0  0  0
  142.3074   76.0188  221.1680 H   0  0  0  0  0  0  0  0  0  0  0  0
  140.6908   74.4925  219.6318 H   0  0  0  0  0  0  0  0  0  0  0  0
  141.2411   72.7614  220.9222 H   0  0  0  0  0  0  0  0  0  0  0  0
  142.1188   74.0091  221.9079 H   0  0  0  0  0  0  0  0  0  0  0  0
  140.4320   72.4360  222.9440 H   0  0  0  0  0  0  0  0  0  0  0  0
  137.6328   68.9825  222.8675 H   0  0  0  0  0  0  0  0  0  0  0  0
  138.6522   67.7733  224.7745 H   0  0  0  0  0  0  0  0  0  0  0  0
  140.0097   67.7794  226.8187 H   0  0  0  0  0  0  0  0  0  0  0  0
  141.3681   69.0101  228.4875 H   0  0  0  0  0  0  0  0  0  0  0  0
  141.6675   71.4693  228.1989 H   0  0  0  0  0  0  0  0  0  0  0  0
  140.6370   72.6686  226.2784 H   0  0  0  0  0  0  0  0  0  0  0  0
  1  2  2  0
  2  3  1  0
  3  4  1  0
  4  5  1  0
  5  6  2  0
  5  7  1  0
  7  8  1  0
  8  9  1  0
  9 10  1  0
 10 11  2  0
 11 12  1  0
 12 13  2  0
 13 14  1  0
 14 15  2  0
  9 16  1  0
 16 17  1  0
 17 18  1  0
 18 19  1  0
  2 20  1  0
 20 21  2  0
 21 22  1  0
 22 23  2  0
 23 24  1  0
 24 25  2  0
 25 26  1  0
 26 27  2  0
 27 28  1  0
 28 29  2  0
 17  7  1  0
 29 20  1  0
 15 10  1  0
 28 23  1  0
  3 30  1  0
  4 31  1  0
  4 32  1  0
  8 33  1  0
  8 34  1  0
  9 35  1  1
 11 36  1  0
 12 37  1  0
 13 38  1  0
 14 39  1  0
 15 40  1  0
 16 41  1  0
 16 42  1  0
 17 43  1  6
 18 44  1  0
 18 45  1  0
 19 46  1  0
 21 47  1  0
 22 48  1  0
 24 49  1  0
 25 50  1  0
 26 51  1  0
 27 52  1  0
M  END
>  <smiles>  (33) 
O=C(NCC(=O)N1C[C@H](c2ccccc2)C[C@H]1CO)c1ccc2ccccc2n1

>  <score_type>  (33) 
oracle

>  <origin>  (33) 
autodockgpu

>  <m_score__min__energy>  (33) 
-9.0399999999999991

>  <m_primary>  (33) 
energy

>  <rmsd>  (33) 
2.6264752898814465

>  <m_score__min__rmsd>  (33) 
2.6264752898814465

>  <meeko>  (33) 
{"free_energy": -7.69, "intermolecular_energy": -9.78, "internal_energy": -2.95, "cluster_size": 31, "cluster_id": 1, "rank_in_cluster": 22}

>  <energy>  (33) 
-8.89

>  <cluster_rmsd>  (33) 
0.13

>  <cluster>  (33) 
2

$$$$

     RDKit          3D

 52 55  0  0  0  0  0  0  0  0999 V2000
  136.7470   71.5610  221.3860 O   0  0  0  0  0  0  0  0  0  0  0  0
  137.4380   72.0140  222.3330 C   0  0  0  0  0  0  0  0  0  0  0  0
  137.6300   73.4420  222.3330 N   0  0  0  0  0  0  0  0  0  0  0  0
  136.9930   74.1520  221.2300 C   0  0  0  0  0  0  0  0  0  0  0  0
  137.9510   74.9870  220.4860 C   0  0  0  0  0  0  0  0  0  0  0  0
  137.7850   75.3750  219.2990 O   0  0  0  0  0  0  0  0  0  0  0  0
  139.1530   75.3940  221.1390 N   0  0  0  0  0  0  0  0  0  0  0  0
  139.1660   76.1840  222.3390 C   0  0  0  0  0  0  0  0  0  0  0  0
  140.5530   76.6830  222.5130 C   0  0  2  0  0  0  0  0  0  0  0  0
  140.5990   78.1410  222.8490 C   0  0  0  0  0  0  0  0  0  0  0  0
  141.8310   78.7310  223.1120 C   0  0  0  0  0  0  0  0  0  0  0  0
  141.9180   80.0840  223.4310 C   0  0  0  0  0  0  0  0  0  0  0  0
  140.7700   80.8440  223.4850 C   0  0  0  0  0  0  0  0  0  0  0  0
  139.5500   80.2740  223.2290 C   0  0  0  0  0  0  0  0  0  0  0  0
  139.4670   78.9250  222.9120 C   0  0  0  0  0  0  0  0  0  0  0  0
  141.2310   76.3980  221.2070 C   0  0  0  0  0  0  0  0  0  0  0  0
  140.5300   75.1290  220.7770 C   0  0  1  0  0  0  0  0  0  0  0  0
  141.0720   73.9930  221.6080 C   0  0  0  0  0  0  0  0  0  0  0  0
  140.0430   73.2340  222.2110 O   0  0  0  0  0  0  0  0  0  0  0  0
  138.0200   71.1830  223.3800 C   0  0  0  0  0  0  0  0  0  0  0  0
  137.3900   69.9570  223.6100 C   0  0  0  0  0  0  0  0  0  0  0  0
  137.9120   69.1440  224.5940 C   0  0  0  0  0  0  0  0  0  0  0  0
  139.0130   69.4980  225.3420 C   0  0  0  0  0  0  0  0  0  0  0  0
  139.5540   68.7030  226.3310 C   0  0  0  0  0  0  0  0  0  0  0  0
  140.6570   69.0870  227.0610 C   0  0  0  0  0  0  0  0  0  0  0  0
  141.2220   70.3220  226.7690 C   0  0  0  0  0  0  0  0  0  0  0  0
  140.7070   71.1490  225.7810 C   0  0  0  0  0  0  0  0  0  0  0  0
  139.5990   70.7170  225.0770 C   0  0  0  0  0  0  0  0  0  0  0  0
  139.0820   71.5180  224.1050 N   0  0  0  0  0  0  0  0  0  0  0  0
  138.1860   73.9200  223.0750 H   0  0  0  0  0  0  0  0  0  0  0  0
  136.5529   73.4162  220.5408 H   0  0  0  0  0  0  0  0  0  0  0  0
  136.2213   74.8130  221.6514 H   0  0  0  0  0  0  0  0  0  0  0  0
  138.4693   77.0297  222.2425 H   0  0  0  0  0  0  0  0  0  0  0  0
  138.8514   75.5860  223.2070 H   0  0  0  0  0  0  0  0  0  0  0  0
  141.0525   76.1876  223.3586 H   0  0  0  0  0  0  0  0  0  0  0  0
  142.7463   78.1225  223.0676 H   0  0  0  0  0  0  0  0  0  0  0  0
  142.8962   80.5425  223.6383 H   0  0  0  0  0  0  0  0  0  0  0  0
  140.8329   81.9134  223.7348 H   0  0  0  0  0  0  0  0  0  0  0  0
  138.6368   80.8855  223.2747 H   0  0  0  0  0  0  0  0  0  0  0  0
  138.4840   78.4754  222.7082 H   0  0  0  0  0  0  0  0  0  0  0  0
  141.0698   77.2113  220.4842 H   0  0  0  0  0  0  0  0  0  0  0  0
  142.3247   76.3050  221.2792 H   0  0  0  0  0  0  0  0  0  0  0  0
  140.6550   74.8661  219.7162 H   0  0  0  0  0  0  0  0  0  0  0  0
  141.6663   73.3321  220.9599 H   0  0  0  0  0  0  0  0  0  0  0  0
  141.6873   74.4255  222.4107 H   0  0  0  0  0  0  0  0  0  0  0  0
  140.0500   73.3220  223.1900 H   0  0  0  0  0  0  0  0  0  0  0  0
  136.5089   69.6513  223.0268 H   0  0  0  0  0  0  0  0  0  0  0  0
  137.4301   68.1746  224.7892 H   0  0  0  0  0  0  0  0  0  0  0  0
  139.0887   67.7293  226.5439 H   0  0  0  0  0  0  0  0  0  0  0  0
  141.0750   68.4398  227.8461 H   0  0  0  0  0  0  0  0  0  0  0  0
  142.1032   70.6540  227.3375 H   0  0  0  0  0  0  0  0  0  0  0  0
  141.1688   72.1234  225.5637 H   0  0  0  0  0  0  0  0  0  0  0  0
  1  2  2  0
  2  3  1  0
  3  4  1  0
  4  5  1  0
  5  6  2  0
  5  7  1  0
  7  8  1  0
  8  9  1  0
  9 10  1  0
 10 11  2  0
 11 12  1  0
 12 13  2  0
 13 14  1  0
 14 15  2  0
  9 16  1  0
 16 17  1  0
 17 18  1  0
 18 19  1  0
  2 20  1  0
 20 21  2  0
 21 22  1  0
 22 23  2  0
 23 24  1  0
 24 25  2  0
 25 26  1  0
 26 27  2  0
 27 28  1  0
 28 29  2  0
 17  7  1  0
 29 20  1  0
 15 10  1  0
 28 23  1  0
  3 30  1  0
  4 31  1  0
  4 32  1  0
  8 33  1  0
  8 34  1  0
  9 35  1  1
 11 36  1  0
 12 37  1  0
 13 38  1  0
 14 39  1  0
 15 40  1  0
 16 41  1  0
 16 42  1  0
 17 43  1  6
 18 44  1  0
 18 45  1  0
 19 46  1  0
 21 47  1  0
 22 48  1  0
 24 49  1  0
 25 50  1  0
 26 51  1  0
 27 52  1  0
M  END
>  <smiles>  (34) 
O=C(NCC(=O)N1C[C@H](c2ccccc2)C[C@H]1CO)c1ccc2ccccc2n1

>  <score_type>  (34) 
oracle

>  <origin>  (34) 
autodockgpu

>  <m_score__min__energy>  (34) 
-9.0399999999999991

>  <m_primary>  (34) 
energy

>  <rmsd>  (34) 
2.78586324576462

>  <m_score__min__rmsd>  (34) 
2.78586324576462

>  <meeko>  (34) 
{"free_energy": -7.69, "intermolecular_energy": -9.77, "internal_energy": -2.71, "cluster_size": 31, "cluster_id": 1, "rank_in_cluster": 23}

>  <energy>  (34) 
-8.88

>  <cluster_rmsd>  (34) 
0.1

>  <cluster>  (34) 
2

$$$$

     RDKit          3D

 52 55  0  0  0  0  0  0  0  0999 V2000
  138.2620   73.5060  220.3570 O   0  0  0  0  0  0  0  0  0  0  0  0
  137.9870   73.9360  221.5050 C   0  0  0  0  0  0  0  0  0  0  0  0
  137.2920   73.0120  222.3630 N   0  0  0  0  0  0  0  0  0  0  0  0
  137.0100   71.7090  221.7720 C   0  0  0  0  0  0  0  0  0  0  0  0
  137.5750   70.6080  222.5690 C   0  0  0  0  0  0  0  0  0  0  0  0
  137.0070   69.4990  222.7540 O   0  0  0  0  0  0  0  0  0  0  0  0
  138.8510   70.7930  223.1810 N   0  0  0  0  0  0  0  0  0  0  0  0
  139.5930   69.7210  223.7870 C   0  0  0  0  0  0  0  0  0  0  0  0
  140.6700   70.3450  224.5960 C   0  0  2  0  0  0  0  0  0  0  0  0
  140.7810   69.7430  225.9610 C   0  0  0  0  0  0  0  0  0  0  0  0
  140.9750   70.5840  227.0520 C   0  0  0  0  0  0  0  0  0  0  0  0
  141.0860   70.0650  228.3400 C   0  0  0  0  0  0  0  0  0  0  0  0
  141.0030   68.7020  228.5330 C   0  0  0  0  0  0  0  0  0  0  0  0
  140.8140   67.8630  227.4650 C   0  0  0  0  0  0  0  0  0  0  0  0
  140.7030   68.3850  226.1840 C   0  0  0  0  0  0  0  0  0  0  0  0
  140.3070   71.7980  224.6640 C   0  0  0  0  0  0  0  0  0  0  0  0
  139.6350   72.0020  223.3250 C   0  0  1  0  0  0  0  0  0  0  0  0
  140.7100   72.0480  222.2680 C   0  0  0  0  0  0  0  0  0  0  0  0
  140.9730   73.3670  221.8320 O   0  0  0  0  0  0  0  0  0  0  0  0
  138.3310   75.2740  221.9720 C   0  0  0  0  0  0  0  0  0  0  0  0
  137.2540   76.1100  222.2790 C   0  0  0  0  0  0  0  0  0  0  0  0
  137.5400   77.3850  222.7230 C   0  0  0  0  0  0  0  0  0  0  0  0
  138.8290   77.8470  222.8700 C   0  0  0  0  0  0  0  0  0  0  0  0
  139.1410   79.1150  223.3120 C   0  0  0  0  0  0  0  0  0  0  0  0
  140.4420   79.5470  223.4490 C   0  0  0  0  0  0  0  0  0  0  0  0
  141.4530   78.6520  223.1220 C   0  0  0  0  0  0  0  0  0  0  0  0
  141.1780   77.3670  222.6740 C   0  0  0  0  0  0  0  0  0  0  0  0
  139.8560   76.9830  222.5550 C   0  0  0  0  0  0  0  0  0  0  0  0
  139.5710   75.7260  222.1170 N   0  0  0  0  0  0  0  0  0  0  0  0
  137.0170   73.2680  223.3370 H   0  0  0  0  0  0  0  0  0  0  0  0
  135.9199   71.5771  221.7067 H   0  0  0  0  0  0  0  0  0  0  0  0
  137.4747   71.6802  220.7754 H   0  0  0  0  0  0  0  0  0  0  0  0
  138.9336   69.1223  224.4326 H   0  0  0  0  0  0  0  0  0  0  0  0
  140.0131   69.0514  223.0220 H   0  0  0  0  0  0  0  0  0  0  0  0
  141.6577   70.1831  224.1396 H   0  0  0  0  0  0  0  0  0  0  0  0
  141.0415   71.6708  226.8959 H   0  0  0  0  0  0  0  0  0  0  0  0
  141.2387   70.7375  229.1970 H   0  0  0  0  0  0  0  0  0  0  0  0
  141.0888   68.2862  229.5478 H   0  0  0  0  0  0  0  0  0  0  0  0
  140.7504   66.7764  227.6236 H   0  0  0  0  0  0  0  0  0  0  0  0
  140.5504   67.7045  225.3334 H   0  0  0  0  0  0  0  0  0  0  0  0
  139.6164   72.0014  225.4957 H   0  0  0  0  0  0  0  0  0  0  0  0
  141.1618   72.4666  224.8441 H   0  0  0  0  0  0  0  0  0  0  0  0
  139.0336   72.9193  223.2416 H   0  0  0  0  0  0  0  0  0  0  0  0
  141.6346   71.6212  222.6840 H   0  0  0  0  0  0  0  0  0  0  0  0
  140.3571   71.4695  221.4015 H   0  0  0  0  0  0  0  0  0  0  0  0
  140.1860   73.7730  221.4040 H   0  0  0  0  0  0  0  0  0  0  0  0
  136.2154   75.7641  222.1706 H   0  0  0  0  0  0  0  0  0  0  0  0
  136.7058   78.0585  222.9691 H   0  0  0  0  0  0  0  0  0  0  0  0
  138.3229   79.8057  223.5640 H   0  0  0  0  0  0  0  0  0  0  0  0
  140.6717   80.5625  223.8040 H   0  0  0  0  0  0  0  0  0  0  0  0
  142.5012   78.9705  223.2208 H   0  0  0  0  0  0  0  0  0  0  0  0
  141.9920   76.6721  222.4202 H   0  0  0  0  0  0  0  0  0  0  0  0
  1  2  2  0
  2  3  1  0
  3  4  1  0
  4  5  1  0
  5  6  2  0
  5  7  1  0
  7  8  1  0
  8  9  1  0
  9 10  1  0
 10 11  2  0
 11 12  1  0
 12 13  2  0
 13 14  1  0
 14 15  2  0
  9 16  1  0
 16 17  1  0
 17 18  1  0
 18 19  1  0
  2 20  1  0
 20 21  2  0
 21 22  1  0
 22 23  2  0
 23 24  1  0
 24 25  2  0
 25 26  1  0
 26 27  2  0
 27 28  1  0
 28 29  2  0
 17  7  1  0
 29 20  1  0
 15 10  1  0
 28 23  1  0
  3 30  1  0
  4 31  1  0
  4 32  1  0
  8 33  1  0
  8 34  1  0
  9 35  1  6
 11 36  1  0
 12 37  1  0
 13 38  1  0
 14 39  1  0
 15 40  1  0
 16 41  1  0
 16 42  1  0
 17 43  1  1
 18 44  1  0
 18 45  1  0
 19 46  1  0
 21 47  1  0
 22 48  1  0
 24 49  1  0
 25 50  1  0
 26 51  1  0
 27 52  1  0
M  END
>  <smiles>  (35) 
O=C(NCC(=O)N1C[C@H](c2ccccc2)C[C@H]1CO)c1ccc2ccccc2n1

>  <score_type>  (35) 
oracle

>  <origin>  (35) 
autodockgpu

>  <m_score__min__energy>  (35) 
-9.0399999999999991

>  <m_primary>  (35) 
energy

>  <rmsd>  (35) 
7.520538943664027

>  <m_score__min__rmsd>  (35) 
7.520538943664027

>  <meeko>  (35) 
{"free_energy": -7.4, "intermolecular_energy": -9.49, "internal_energy": -2.6, "cluster_size": 18, "cluster_id": 2, "rank_in_cluster": 17}

>  <energy>  (35) 
-8.86

>  <cluster_rmsd>  (35) 
0.1

>  <cluster>  (35) 
2

$$$$

     RDKit          3D

 52 55  0  0  0  0  0  0  0  0999 V2000
  138.0440   75.2810  222.2390 O   0  0  0  0  0  0  0  0  0  0  0  0
  139.2290   75.6900  222.1570 C   0  0  0  0  0  0  0  0  0  0  0  0
  140.1890   74.7230  221.6880 N   0  0  0  0  0  0  0  0  0  0  0  0
  139.6410   73.4090  221.3740 C   0  0  0  0  0  0  0  0  0  0  0  0
  140.2720   72.3440  222.1700 C   0  0  0  0  0  0  0  0  0  0  0  0
  141.4980   72.0570  222.1300 O   0  0  0  0  0  0  0  0  0  0  0  0
  139.4550   71.5740  223.0520 N   0  0  0  0  0  0  0  0  0  0  0  0
  139.6660   71.5230  224.4730 C   0  0  0  0  0  0  0  0  0  0  0  0
  138.8650   70.3840  224.9870 C   0  0  2  0  0  0  0  0  0  0  0  0
  139.6390   69.5230  225.9360 C   0  0  0  0  0  0  0  0  0  0  0  0
  139.7720   68.1670  225.6550 C   0  0  0  0  0  0  0  0  0  0  0  0
  140.4820   67.3290  226.5120 C   0  0  0  0  0  0  0  0  0  0  0  0
  141.0570   67.8520  227.6510 C   0  0  0  0  0  0  0  0  0  0  0  0
  140.9320   69.1860  227.9380 C   0  0  0  0  0  0  0  0  0  0  0  0
  140.2240   70.0180  227.0810 C   0  0  0  0  0  0  0  0  0  0  0  0
  138.4510   69.6210  223.7640 C   0  0  0  0  0  0  0  0  0  0  0  0
  138.3150   70.7340  222.7500 C   0  0  1  0  0  0  0  0  0  0  0  0
  137.0350   71.4760  223.0430 C   0  0  0  0  0  0  0  0  0  0  0  0
  137.0400   72.7810  222.5000 O   0  0  0  0  0  0  0  0  0  0  0  0
  139.6440   77.0430  222.5060 C   0  0  0  0  0  0  0  0  0  0  0  0
  138.6140   77.9640  222.7170 C   0  0  0  0  0  0  0  0  0  0  0  0
  138.9670   79.2560  223.0470 C   0  0  0  0  0  0  0  0  0  0  0  0
  140.2800   79.6570  223.1710 C   0  0  0  0  0  0  0  0  0  0  0  0
  140.6590   80.9410  223.5000 C   0  0  0  0  0  0  0  0  0  0  0  0
  141.9800   81.3110  223.6160 C   0  0  0  0  0  0  0  0  0  0  0  0
  142.9420   80.3340  223.3890 C   0  0  0  0  0  0  0  0  0  0  0  0
  142.5990   79.0300  223.0560 C   0  0  0  0  0  0  0  0  0  0  0  0
  141.2590   78.7120  222.9520 C   0  0  0  0  0  0  0  0  0  0  0  0
  140.9070   77.4380  222.6270 N   0  0  0  0  0  0  0  0  0  0  0  0
  141.1990   74.9600  221.5820 H   0  0  0  0  0  0  0  0  0  0  0  0
  138.5609   73.4156  221.5824 H   0  0  0  0  0  0  0  0  0  0  0  0
  139.8401   73.2028  220.3120 H   0  0  0  0  0  0  0  0  0  0  0  0
  140.7324   71.3648  224.6917 H   0  0  0  0  0  0  0  0  0  0  0  0
  139.3613   72.4660  224.9505 H   0  0  0  0  0  0  0  0  0  0  0  0
  138.0012   70.7343  225.5711 H   0  0  0  0  0  0  0  0  0  0  0  0
  139.3116   67.7520  224.7463 H   0  0  0  0  0  0  0  0  0  0  0  0
  140.5832   66.2581  226.2818 H   0  0  0  0  0  0  0  0  0  0  0  0
  141.6184   67.1955  228.3321 H   0  0  0  0  0  0  0  0  0  0  0  0
  141.3928   69.5980  228.8479 H   0  0  0  0  0  0  0  0  0  0  0  0
  140.1288   71.0876  227.3196 H   0  0  0  0  0  0  0  0  0  0  0  0
  139.2204   68.8946  223.4634 H   0  0  0  0  0  0  0  0  0  0  0  0
  137.5397   69.0194  223.8964 H   0  0  0  0  0  0  0  0  0  0  0  0
  138.2870   70.4057  221.7005 H   0  0  0  0  0  0  0  0  0  0  0  0
  136.1932   70.9153  222.6106 H   0  0  0  0  0  0  0  0  0  0  0  0
  136.9373   71.5642  224.1351 H   0  0  0  0  0  0  0  0  0  0  0  0
  137.4300   73.4350  223.1230 H   0  0  0  0  0  0  0  0  0  0  0  0
  137.5585   77.6688  222.6231 H   0  0  0  0  0  0  0  0  0  0  0  0
  138.1701   79.9947  223.2178 H   0  0  0  0  0  0  0  0  0  0  0  0
  139.8788   81.6962  223.6760 H   0  0  0  0  0  0  0  0  0  0  0  0
  142.2633   82.3410  223.8784 H   0  0  0  0  0  0  0  0  0  0  0  0
  144.0055   80.6012  223.4756 H   0  0  0  0  0  0  0  0  0  0  0  0
  143.3745   78.2701  222.8796 H   0  0  0  0  0  0  0  0  0  0  0  0
  1  2  2  0
  2  3  1  0
  3  4  1  0
  4  5  1  0
  5  6  2  0
  5  7  1  0
  7  8  1  0
  8  9  1  0
  9 10  1  0
 10 11  2  0
 11 12  1  0
 12 13  2  0
 13 14  1  0
 14 15  2  0
  9 16  1  0
 16 17  1  0
 17 18  1  0
 18 19  1  0
  2 20  1  0
 20 21  2  0
 21 22  1  0
 22 23  2  0
 23 24  1  0
 24 25  2  0
 25 26  1  0
 26 27  2  0
 27 28  1  0
 28 29  2  0
 17  7  1  0
 29 20  1  0
 15 10  1  0
 28 23  1  0
  3 30  1  0
  4 31  1  0
  4 32  1  0
  8 33  1  0
  8 34  1  0
  9 35  1  1
 11 36  1  0
 12 37  1  0
 13 38  1  0
 14 39  1  0
 15 40  1  0
 16 41  1  0
 16 42  1  0
 17 43  1  6
 18 44  1  0
 18 45  1  0
 19 46  1  0
 21 47  1  0
 22 48  1  0
 24 49  1  0
 25 50  1  0
 26 51  1  0
 27 52  1  0
M  END
>  <smiles>  (36) 
O=C(NCC(=O)N1C[C@H](c2ccccc2)C[C@H]1CO)c1ccc2ccccc2n1

>  <score_type>  (36) 
oracle

>  <origin>  (36) 
autodockgpu

>  <m_score__min__energy>  (36) 
-9.0399999999999991

>  <m_primary>  (36) 
energy

>  <rmsd>  (36) 
8.486361571944343

>  <m_score__min__rmsd>  (36) 
8.486361571944343

>  <meeko>  (36) 
{"free_energy": -8.57, "intermolecular_energy": -10.66, "internal_energy": -2.21, "cluster_size": 18, "cluster_id": 2, "rank_in_cluster": 11}

>  <energy>  (36) 
-8.71

>  <cluster_rmsd>  (36) 
0.28

>  <cluster>  (36) 
2

$$$$

     RDKit          3D

 52 55  0  0  0  0  0  0  0  0999 V2000
  139.2820   71.0400  221.1980 O   0  0  0  0  0  0  0  0  0  0  0  0
  139.0660   71.6070  222.2980 C   0  0  0  0  0  0  0  0  0  0  0  0
  138.4430   72.9030  222.2160 N   0  0  0  0  0  0  0  0  0  0  0  0
  138.1550   73.3670  220.8640 C   0  0  0  0  0  0  0  0  0  0  0  0
  138.3370   74.8220  220.7300 C   0  0  0  0  0  0  0  0  0  0  0  0
  137.4650   75.6100  220.2780 O   0  0  0  0  0  0  0  0  0  0  0  0
  139.5810   75.3940  221.1330 N   0  0  0  0  0  0  0  0  0  0  0  0
  139.7510   76.1140  222.3650 C   0  0  0  0  0  0  0  0  0  0  0  0
  141.0460   76.8320  222.2710 C   0  0  2  0  0  0  0  0  0  0  0  0
  140.9430   78.2580  222.7140 C   0  0  0  0  0  0  0  0  0  0  0  0
  142.1020   79.0250  222.7830 C   0  0  0  0  0  0  0  0  0  0  0  0
  142.0520   80.3550  223.1930 C   0  0  0  0  0  0  0  0  0  0  0  0
  140.8390   80.9150  223.5330 C   0  0  0  0  0  0  0  0  0  0  0  0
  139.6910   80.1700  223.4700 C   0  0  0  0  0  0  0  0  0  0  0  0
  139.7450   78.8440  223.0610 C   0  0  0  0  0  0  0  0  0  0  0  0
  141.4370   76.7320  220.8270 C   0  0  0  0  0  0  0  0  0  0  0  0
  140.8600   75.3850  220.4540 C   0  0  1  0  0  0  0  0  0  0  0  0
  141.7490   74.3190  221.0420 C   0  0  0  0  0  0  0  0  0  0  0  0
  141.0610   73.5010  221.9680 O   0  0  0  0  0  0  0  0  0  0  0  0
  139.4060   71.0240  223.5910 C   0  0  0  0  0  0  0  0  0  0  0  0
  139.1520   69.6570  223.7320 C   0  0  0  0  0  0  0  0  0  0  0  0
  139.4600   69.0700  224.9420 C   0  0  0  0  0  0  0  0  0  0  0  0
  139.9990   69.7780  225.9930 C   0  0  0  0  0  0  0  0  0  0  0  0
  140.3160   69.2150  227.2120 C   0  0  0  0  0  0  0  0  0  0  0  0
  140.8550   69.9510  228.2440 C   0  0  0  0  0  0  0  0  0  0  0  0
  141.0760   71.3040  228.0200 C   0  0  0  0  0  0  0  0  0  0  0  0
  140.7700   71.9060  226.8070 C   0  0  0  0  0  0  0  0  0  0  0  0
  140.2310   71.1230  225.8040 C   0  0  0  0  0  0  0  0  0  0  0  0
  139.9270   71.7000  224.6090 N   0  0  0  0  0  0  0  0  0  0  0  0
  138.2180   73.4590  223.0700 H   0  0  0  0  0  0  0  0  0  0  0  0
  138.8321   72.8582  220.1621 H   0  0  0  0  0  0  0  0  0  0  0  0
  137.1032   73.1341  220.6415 H   0  0  0  0  0  0  0  0  0  0  0  0
  138.9292   76.8327  222.4993 H   0  0  0  0  0  0  0  0  0  0  0  0
  139.7431   75.4285  223.2253 H   0  0  0  0  0  0  0  0  0  0  0  0
  141.7988   76.3874  222.9386 H   0  0  0  0  0  0  0  0  0  0  0  0
  143.0685   78.5758  222.5107 H   0  0  0  0  0  0  0  0  0  0  0  0
  142.9731   80.9540  223.2451 H   0  0  0  0  0  0  0  0  0  0  0  0
  140.7927   81.9653  223.8565 H   0  0  0  0  0  0  0  0  0  0  0  0
  138.7263   80.6223  223.7434 H   0  0  0  0  0  0  0  0  0  0  0  0
  138.8184   78.2531  223.0133 H   0  0  0  0  0  0  0  0  0  0  0  0
  140.9881   77.5408  220.2317 H   0  0  0  0  0  0  0  0  0  0  0  0
  142.5182   76.8235  220.6466 H   0  0  0  0  0  0  0  0  0  0  0  0
  140.7739   75.1994  219.3732 H   0  0  0  0  0  0  0  0  0  0  0  0
  142.1313   73.6871  220.2268 H   0  0  0  0  0  0  0  0  0  0  0  0
  142.5685   74.8203  221.5778 H   0  0  0  0  0  0  0  0  0  0  0  0
  140.7070   72.6880  221.5430 H   0  0  0  0  0  0  0  0  0  0  0  0
  138.7217   69.0698  222.9074 H   0  0  0  0  0  0  0  0  0  0  0  0
  139.2676   67.9948  225.0722 H   0  0  0  0  0  0  0  0  0  0  0  0
  140.1320   68.1414  227.3650 H   0  0  0  0  0  0  0  0  0  0  0  0
  141.1012   69.4848  229.2094 H   0  0  0  0  0  0  0  0  0  0  0  0
  141.5057   71.9159  228.8268 H   0  0  0  0  0  0  0  0  0  0  0  0
  140.9520   72.9792  226.6483 H   0  0  0  0  0  0  0  0  0  0  0  0
  1  2  2  0
  2  3  1  0
  3  4  1  0
  4  5  1  0
  5  6  2  0
  5  7  1  0
  7  8  1  0
  8  9  1  0
  9 10  1  0
 10 11  2  0
 11 12  1  0
 12 13  2  0
 13 14  1  0
 14 15  2  0
  9 16  1  0
 16 17  1  0
 17 18  1  0
 18 19  1  0
  2 20  1  0
 20 21  2  0
 21 22  1  0
 22 23  2  0
 23 24  1  0
 24 25  2  0
 25 26  1  0
 26 27  2  0
 27 28  1  0
 28 29  2  0
 17  7  1  0
 29 20  1  0
 15 10  1  0
 28 23  1  0
  3 30  1  0
  4 31  1  0
  4 32  1  0
  8 33  1  0
  8 34  1  0
  9 35  1  1
 11 36  1  0
 12 37  1  0
 13 38  1  0
 14 39  1  0
 15 40  1  0
 16 41  1  0
 16 42  1  0
 17 43  1  6
 18 44  1  0
 18 45  1  0
 19 46  1  0
 21 47  1  0
 22 48  1  0
 24 49  1  0
 25 50  1  0
 26 51  1  0
 27 52  1  0
M  END
>  <smiles>  (37) 
O=C(NCC(=O)N1C[C@H](c2ccccc2)C[C@H]1CO)c1ccc2ccccc2n1

>  <score_type>  (37) 
oracle

>  <origin>  (37) 
autodockgpu

>  <m_score__min__energy>  (37) 
-9.0399999999999991

>  <m_primary>  (37) 
energy

>  <rmsd>  (37) 
2.5403897958322466

>  <m_score__min__rmsd>  (37) 
2.5403897958322466

>  <meeko>  (37) 
{"free_energy": -8.54, "intermolecular_energy": -10.63, "internal_energy": -2.15, "cluster_size": 31, "cluster_id": 1, "rank_in_cluster": 3}

>  <energy>  (37) 
-8.7

>  <cluster_rmsd>  (37) 
1.12

>  <cluster>  (37) 
2

$$$$

     RDKit          3D

 52 55  0  0  0  0  0  0  0  0999 V2000
  139.5320   74.4470  222.4440 O   0  0  0  0  0  0  0  0  0  0  0  0
  140.3240   74.9220  221.5910 C   0  0  0  0  0  0  0  0  0  0  0  0
  140.7290   74.0150  220.5480 N   0  0  0  0  0  0  0  0  0  0  0  0
  140.1600   72.6750  220.6360 C   0  0  0  0  0  0  0  0  0  0  0  0
  140.7320   71.9040  221.7520 C   0  0  0  0  0  0  0  0  0  0  0  0
  141.9600   71.6680  221.8980 O   0  0  0  0  0  0  0  0  0  0  0  0
  139.8490   71.3810  222.7430 N   0  0  0  0  0  0  0  0  0  0  0  0
  140.0680   71.5440  224.1540 C   0  0  0  0  0  0  0  0  0  0  0  0
  139.1590   70.5960  224.8450 C   0  0  2  0  0  0  0  0  0  0  0  0
  139.8500   69.8280  225.9290 C   0  0  0  0  0  0  0  0  0  0  0  0
  139.9170   68.4430  225.8330 C   0  0  0  0  0  0  0  0  0  0  0  0
  140.5480   67.6900  226.8200 C   0  0  0  0  0  0  0  0  0  0  0  0
  141.1120   68.3290  227.9040 C   0  0  0  0  0  0  0  0  0  0  0  0
  141.0520   69.6930  228.0110 C   0  0  0  0  0  0  0  0  0  0  0  0
  140.4220   70.4400  227.0240 C   0  0  0  0  0  0  0  0  0  0  0  0
  138.6570   69.6880  223.7640 C   0  0  0  0  0  0  0  0  0  0  0  0
  138.6250   70.6240  222.5770 C   0  0  1  0  0  0  0  0  0  0  0  0
  137.4320   71.5330  222.7340 C   0  0  0  0  0  0  0  0  0  0  0  0
  137.6490   72.8040  222.1530 O   0  0  0  0  0  0  0  0  0  0  0  0
  140.8200   76.2920  221.6220 C   0  0  0  0  0  0  0  0  0  0  0  0
  141.1210   76.8620  220.3820 C   0  0  0  0  0  0  0  0  0  0  0  0
  141.5950   78.1580  220.3700 C   0  0  0  0  0  0  0  0  0  0  0  0
  141.7760   78.8910  221.5220 C   0  0  0  0  0  0  0  0  0  0  0  0
  142.2480   80.1860  221.5380 C   0  0  0  0  0  0  0  0  0  0  0  0
  142.4180   80.8930  222.7070 C   0  0  0  0  0  0  0  0  0  0  0  0
  142.0950   80.2520  223.8970 C   0  0  0  0  0  0  0  0  0  0  0  0
  141.6170   78.9490  223.9220 C   0  0  0  0  0  0  0  0  0  0  0  0
  141.4650   78.2840  222.7200 C   0  0  0  0  0  0  0  0  0  0  0  0
  140.9970   77.0060  222.7290 N   0  0  0  0  0  0  0  0  0  0  0  0
  141.3830   74.3080  219.7900 H   0  0  0  0  0  0  0  0  0  0  0  0
  139.0732   72.7599  220.7835 H   0  0  0  0  0  0  0  0  0  0  0  0
  140.3951   72.1445  219.7015 H   0  0  0  0  0  0  0  0  0  0  0  0
  141.1144   71.3141  224.4032 H   0  0  0  0  0  0  0  0  0  0  0  0
  139.8672   72.5795  224.4660 H   0  0  0  0  0  0  0  0  0  0  0  0
  138.3425   71.1265  225.3568 H   0  0  0  0  0  0  0  0  0  0  0  0
  139.4663   67.9357  224.9672 H   0  0  0  0  0  0  0  0  0  0  0  0
  140.5961   66.5943  226.7356 H   0  0  0  0  0  0  0  0  0  0  0  0
  141.6126   67.7402  228.6867 H   0  0  0  0  0  0  0  0  0  0  0  0
  141.5028   70.1970  228.8786 H   0  0  0  0  0  0  0  0  0  0  0  0
  140.3788   71.5352  227.1173 H   0  0  0  0  0  0  0  0  0  0  0  0
  139.3448   68.8465  223.5941 H   0  0  0  0  0  0  0  0  0  0  0  0
  137.6900   69.2143  223.9885 H   0  0  0  0  0  0  0  0  0  0  0  0
  138.5518   70.1297  221.5970 H   0  0  0  0  0  0  0  0  0  0  0  0
  136.5634   71.0648  222.2478 H   0  0  0  0  0  0  0  0  0  0  0  0
  137.2578   71.6788  223.8103 H   0  0  0  0  0  0  0  0  0  0  0  0
  138.1700   73.3920  222.7450 H   0  0  0  0  0  0  0  0  0  0  0  0
  140.9848   76.2972  219.4480 H   0  0  0  0  0  0  0  0  0  0  0  0
  141.8376   78.6235  219.4033 H   0  0  0  0  0  0  0  0  0  0  0  0
  142.4976   80.6716  220.5831 H   0  0  0  0  0  0  0  0  0  0  0  0
  142.7952   81.9263  222.6994 H   0  0  0  0  0  0  0  0  0  0  0  0
  142.2218   80.7928  224.8465 H   0  0  0  0  0  0  0  0  0  0  0  0
  141.3657   78.4584  224.8739 H   0  0  0  0  0  0  0  0  0  0  0  0
  1  2  2  0
  2  3  1  0
  3  4  1  0
  4  5  1  0
  5  6  2  0
  5  7  1  0
  7  8  1  0
  8  9  1  0
  9 10  1  0
 10 11  2  0
 11 12  1  0
 12 13  2  0
 13 14  1  0
 14 15  2  0
  9 16  1  0
 16 17  1  0
 17 18  1  0
 18 19  1  0
  2 20  1  0
 20 21  2  0
 21 22  1  0
 22 23  2  0
 23 24  1  0
 24 25  2  0
 25 26  1  0
 26 27  2  0
 27 28  1  0
 28 29  2  0
 17  7  1  0
 29 20  1  0
 15 10  1  0
 28 23  1  0
  3 30  1  0
  4 31  1  0
  4 32  1  0
  8 33  1  0
  8 34  1  0
  9 35  1  1
 11 36  1  0
 12 37  1  0
 13 38  1  0
 14 39  1  0
 15 40  1  0
 16 41  1  0
 16 42  1  0
 17 43  1  6
 18 44  1  0
 18 45  1  0
 19 46  1  0
 21 47  1  0
 22 48  1  0
 24 49  1  0
 25 50  1  0
 26 51  1  0
 27 52  1  0
M  END
>  <smiles>  (38) 
O=C(NCC(=O)N1C[C@H](c2ccccc2)C[C@H]1CO)c1ccc2ccccc2n1

>  <score_type>  (38) 
oracle

>  <origin>  (38) 
autodockgpu

>  <m_score__min__energy>  (38) 
-9.0399999999999991

>  <m_primary>  (38) 
energy

>  <rmsd>  (38) 
8.337548884237934

>  <m_score__min__rmsd>  (38) 
8.337548884237934

>  <meeko>  (38) 
{"free_energy": -8.89, "intermolecular_energy": -10.98, "internal_energy": -2.13, "cluster_size": 18, "cluster_id": 2, "rank_in_cluster": 2}

>  <energy>  (38) 
-8.7

>  <cluster_rmsd>  (38) 
0.54

>  <cluster>  (38) 
2

$$$$

     RDKit          3D

 52 55  0  0  0  0  0  0  0  0999 V2000
  139.5670   74.4860  222.2940 O   0  0  0  0  0  0  0  0  0  0  0  0
  140.4040   74.9950  221.5080 C   0  0  0  0  0  0  0  0  0  0  0  0
  140.8950   74.1210  220.4740 N   0  0  0  0  0  0  0  0  0  0  0  0
  140.3460   72.7700  220.4920 C   0  0  0  0  0  0  0  0  0  0  0  0
  140.9200   71.9560  221.5760 C   0  0  0  0  0  0  0  0  0  0  0  0
  142.1430   71.6750  221.6840 O   0  0  0  0  0  0  0  0  0  0  0  0
  140.0450   71.4420  222.5800 N   0  0  0  0  0  0  0  0  0  0  0  0
  140.0580   71.9010  223.9410 C   0  0  0  0  0  0  0  0  0  0  0  0
  139.2780   70.9190  224.7350 C   0  0  2  0  0  0  0  0  0  0  0  0
  139.9720   70.5290  226.0030 C   0  0  0  0  0  0  0  0  0  0  0  0
  140.0990   69.1780  226.3100 C   0  0  0  0  0  0  0  0  0  0  0  0
  140.7360   68.7710  227.4800 C   0  0  0  0  0  0  0  0  0  0  0  0
  141.2430   69.7200  228.3430 C   0  0  0  0  0  0  0  0  0  0  0  0
  141.1230   71.0540  228.0510 C   0  0  0  0  0  0  0  0  0  0  0  0
  140.4880   71.4550  226.8840 C   0  0  0  0  0  0  0  0  0  0  0  0
  139.0970   69.7440  223.8230 C   0  0  0  0  0  0  0  0  0  0  0  0
  139.0240   70.4210  222.4740 C   0  0  1  0  0  0  0  0  0  0  0  0
  137.6650   71.0630  222.3490 C   0  0  0  0  0  0  0  0  0  0  0  0
  137.7510   72.4600  222.1540 O   0  0  0  0  0  0  0  0  0  0  0  0
  140.8710   76.3730  221.6040 C   0  0  0  0  0  0  0  0  0  0  0  0
  141.2290   76.9830  220.3990 C   0  0  0  0  0  0  0  0  0  0  0  0
  141.6770   78.2860  220.4490 C   0  0  0  0  0  0  0  0  0  0  0  0
  141.7810   78.9900  221.6290 C   0  0  0  0  0  0  0  0  0  0  0  0
  142.2260   80.2930  221.7050 C   0  0  0  0  0  0  0  0  0  0  0  0
  142.3180   80.9690  222.9020 C   0  0  0  0  0  0  0  0  0  0  0  0
  141.9430   80.2890  224.0540 C   0  0  0  0  0  0  0  0  0  0  0  0
  141.4900   78.9770  224.0160 C   0  0  0  0  0  0  0  0  0  0  0  0
  141.4160   78.3440  222.7900 C   0  0  0  0  0  0  0  0  0  0  0  0
  140.9740   77.0570  222.7380 N   0  0  0  0  0  0  0  0  0  0  0  0
  141.5920   74.4440  219.7680 H   0  0  0  0  0  0  0  0  0  0  0  0
  139.2567   72.8311  220.6324 H   0  0  0  0  0  0  0  0  0  0  0  0
  140.5974   72.2882  219.5356 H   0  0  0  0  0  0  0  0  0  0  0  0
  141.0919   71.9522  224.3130 H   0  0  0  0  0  0  0  0  0  0  0  0
  139.6214   72.9075  224.0211 H   0  0  0  0  0  0  0  0  0  0  0  0
  138.3174   71.3428  225.0632 H   0  0  0  0  0  0  0  0  0  0  0  0
  139.6920   68.4230  225.6213 H   0  0  0  0  0  0  0  0  0  0  0  0
  140.8340   67.7006  227.7140 H   0  0  0  0  0  0  0  0  0  0  0  0
  141.7457   69.4051  229.2694 H   0  0  0  0  0  0  0  0  0  0  0  0
  141.5302   71.8069  228.7419 H   0  0  0  0  0  0  0  0  0  0  0  0
  140.3951   72.5277  226.6587 H   0  0  0  0  0  0  0  0  0  0  0  0
  139.9519   69.0543  223.8811 H   0  0  0  0  0  0  0  0  0  0  0  0
  138.2222   69.1210  224.0610 H   0  0  0  0  0  0  0  0  0  0  0  0
  139.1682   69.7539  221.6113 H   0  0  0  0  0  0  0  0  0  0  0  0
  137.1400   70.6172  221.4913 H   0  0  0  0  0  0  0  0  0  0  0  0
  137.1199   70.8858  223.2879 H   0  0  0  0  0  0  0  0  0  0  0  0
  138.2150   72.9040  222.8990 H   0  0  0  0  0  0  0  0  0  0  0  0
  141.1560   76.4425  219.4437 H   0  0  0  0  0  0  0  0  0  0  0  0
  141.9626   78.7830  219.5102 H   0  0  0  0  0  0  0  0  0  0  0  0
  142.5173   80.8100  220.7788 H   0  0  0  0  0  0  0  0  0  0  0  0
  142.6751   82.0086  222.9440 H   0  0  0  0  0  0  0  0  0  0  0  0
  142.0067   80.8045  225.0236 H   0  0  0  0  0  0  0  0  0  0  0  0
  141.1974   78.4546  224.9388 H   0  0  0  0  0  0  0  0  0  0  0  0
  1  2  2  0
  2  3  1  0
  3  4  1  0
  4  5  1  0
  5  6  2  0
  5  7  1  0
  7  8  1  0
  8  9  1  0
  9 10  1  0
 10 11  2  0
 11 12  1  0
 12 13  2  0
 13 14  1  0
 14 15  2  0
  9 16  1  0
 16 17  1  0
 17 18  1  0
 18 19  1  0
  2 20  1  0
 20 21  2  0
 21 22  1  0
 22 23  2  0
 23 24  1  0
 24 25  2  0
 25 26  1  0
 26 27  2  0
 27 28  1  0
 28 29  2  0
 17  7  1  0
 29 20  1  0
 15 10  1  0
 28 23  1  0
  3 30  1  0
  4 31  1  0
  4 32  1  0
  8 33  1  0
  8 34  1  0
  9 35  1  1
 11 36  1  0
 12 37  1  0
 13 38  1  0
 14 39  1  0
 15 40  1  0
 16 41  1  0
 16 42  1  0
 17 43  1  6
 18 44  1  0
 18 45  1  0
 19 46  1  0
 21 47  1  0
 22 48  1  0
 24 49  1  0
 25 50  1  0
 26 51  1  0
 27 52  1  0
M  END
>  <smiles>  (39) 
O=C(NCC(=O)N1C[C@H](c2ccccc2)C[C@H]1CO)c1ccc2ccccc2n1

>  <score_type>  (39) 
oracle

>  <origin>  (39) 
autodockgpu

>  <m_score__min__energy>  (39) 
-9.0399999999999991

>  <m_primary>  (39) 
energy

>  <rmsd>  (39) 
8.311176983957486

>  <m_score__min__rmsd>  (39) 
8.311176983957486

>  <meeko>  (39) 
{"free_energy": -8.7, "intermolecular_energy": -10.78, "internal_energy": -2.14, "cluster_size": 18, "cluster_id": 2, "rank_in_cluster": 7}

>  <energy>  (39) 
-8.62

>  <cluster_rmsd>  (39) 
1.08

>  <cluster>  (39) 
2

$$$$

     RDKit          3D

 52 55  0  0  0  0  0  0  0  0999 V2000
  139.5720   74.4980  222.4490 O   0  0  0  0  0  0  0  0  0  0  0  0
  140.3270   74.9760  221.5660 C   0  0  0  0  0  0  0  0  0  0  0  0
  140.6800   74.0770  220.4980 N   0  0  0  0  0  0  0  0  0  0  0  0
  140.1080   72.7400  220.5990 C   0  0  0  0  0  0  0  0  0  0  0  0
  140.6850   71.9760  221.7180 C   0  0  0  0  0  0  0  0  0  0  0  0
  141.9160   71.7600  221.8730 O   0  0  0  0  0  0  0  0  0  0  0  0
  139.8030   71.4370  222.7030 N   0  0  0  0  0  0  0  0  0  0  0  0
  140.0350   71.5620  224.1160 C   0  0  0  0  0  0  0  0  0  0  0  0
  139.1210   70.6050  224.7890 C   0  0  2  0  0  0  0  0  0  0  0  0
  139.8110   69.8040  225.8480 C   0  0  0  0  0  0  0  0  0  0  0  0
  139.8410   68.4180  225.7290 C   0  0  0  0  0  0  0  0  0  0  0  0
  140.4710   67.6350  226.6920 C   0  0  0  0  0  0  0  0  0  0  0  0
  141.0700   68.2410  227.7760 C   0  0  0  0  0  0  0  0  0  0  0  0
  141.0460   69.6050  227.9050 C   0  0  0  0  0  0  0  0  0  0  0  0
  140.4180   70.3830  226.9420 C   0  0  0  0  0  0  0  0  0  0  0  0
  138.6010   69.7300  223.6890 C   0  0  0  0  0  0  0  0  0  0  0  0
  138.5710   70.6970  222.5270 C   0  0  1  0  0  0  0  0  0  0  0  0
  137.3880   71.6140  222.7150 C   0  0  0  0  0  0  0  0  0  0  0  0
  137.6140   72.8960  222.1640 O   0  0  0  0  0  0  0  0  0  0  0  0
  140.8310   76.3450  221.5860 C   0  0  0  0  0  0  0  0  0  0  0  0
  141.1260   76.9060  220.3410 C   0  0  0  0  0  0  0  0  0  0  0  0
  141.6070   78.1990  220.3200 C   0  0  0  0  0  0  0  0  0  0  0  0
  141.8020   78.9370  221.4670 C   0  0  0  0  0  0  0  0  0  0  0  0
  142.2810   80.2300  221.4720 C   0  0  0  0  0  0  0  0  0  0  0  0
  142.4640   80.9410  222.6370 C   0  0  0  0  0  0  0  0  0  0  0  0
  142.1470   80.3080  223.8320 C   0  0  0  0  0  0  0  0  0  0  0  0
  141.6620   79.0070  223.8670 C   0  0  0  0  0  0  0  0  0  0  0  0
  141.4960   78.3380  222.6700 C   0  0  0  0  0  0  0  0  0  0  0  0
  141.0210   77.0620  222.6880 N   0  0  0  0  0  0  0  0  0  0  0  0
  141.3010   74.3740  219.7130 H   0  0  0  0  0  0  0  0  0  0  0  0
  139.0223   72.8289  220.7521 H   0  0  0  0  0  0  0  0  0  0  0  0
  140.3357   72.2018  219.6671 H   0  0  0  0  0  0  0  0  0  0  0  0
  141.0809   71.3153  224.3510 H   0  0  0  0  0  0  0  0  0  0  0  0
  139.8479   72.5911  224.4564 H   0  0  0  0  0  0  0  0  0  0  0  0
  138.3133   71.1302  225.3198 H   0  0  0  0  0  0  0  0  0  0  0  0
  139.3616   67.9358  224.8644 H   0  0  0  0  0  0  0  0  0  0  0  0
  140.4909   66.5400  226.5889 H   0  0  0  0  0  0  0  0  0  0  0  0
  141.5691   67.6271  228.5402 H   0  0  0  0  0  0  0  0  0  0  0  0
  141.5246   70.0837  228.7721 H   0  0  0  0  0  0  0  0  0  0  0  0
  140.4045   71.4773  227.0534 H   0  0  0  0  0  0  0  0  0  0  0  0
  139.2782   68.8857  223.4924 H   0  0  0  0  0  0  0  0  0  0  0  0
  137.6306   69.2608  223.9085 H   0  0  0  0  0  0  0  0  0  0  0  0
  138.4864   70.2285  221.5354 H   0  0  0  0  0  0  0  0  0  0  0  0
  136.5113   71.1667  222.2237 H   0  0  0  0  0  0  0  0  0  0  0  0
  137.2226   71.7350  223.7957 H   0  0  0  0  0  0  0  0  0  0  0  0
  138.1760   73.4510  222.7500 H   0  0  0  0  0  0  0  0  0  0  0  0
  140.9801   76.3372  219.4108 H   0  0  0  0  0  0  0  0  0  0  0  0
  141.8441   78.6588  219.3492 H   0  0  0  0  0  0  0  0  0  0  0  0
  142.5252   80.7098  220.5128 H   0  0  0  0  0  0  0  0  0  0  0  0
  142.8470   81.9720  222.6218 H   0  0  0  0  0  0  0  0  0  0  0  0
  142.2840   80.8527  224.7778 H   0  0  0  0  0  0  0  0  0  0  0  0
  141.4164   78.5219  224.8232 H   0  0  0  0  0  0  0  0  0  0  0  0
  1  2  2  0
  2  3  1  0
  3  4  1  0
  4  5  1  0
  5  6  2  0
  5  7  1  0
  7  8  1  0
  8  9  1  0
  9 10  1  0
 10 11  2  0
 11 12  1  0
 12 13  2  0
 13 14  1  0
 14 15  2  0
  9 16  1  0
 16 17  1  0
 17 18  1  0
 18 19  1  0
  2 20  1  0
 20 21  2  0
 21 22  1  0
 22 23  2  0
 23 24  1  0
 24 25  2  0
 25 26  1  0
 26 27  2  0
 27 28  1  0
 28 29  2  0
 17  7  1  0
 29 20  1  0
 15 10  1  0
 28 23  1  0
  3 30  1  0
  4 31  1  0
  4 32  1  0
  8 33  1  0
  8 34  1  0
  9 35  1  1
 11 36  1  0
 12 37  1  0
 13 38  1  0
 14 39  1  0
 15 40  1  0
 16 41  1  0
 16 42  1  0
 17 43  1  6
 18 44  1  0
 18 45  1  0
 19 46  1  0
 21 47  1  0
 22 48  1  0
 24 49  1  0
 25 50  1  0
 26 51  1  0
 27 52  1  0
M  END
>  <smiles>  (40) 
O=C(NCC(=O)N1C[C@H](c2ccccc2)C[C@H]1CO)c1ccc2ccccc2n1

>  <score_type>  (40) 
oracle

>  <origin>  (40) 
autodockgpu

>  <m_score__min__energy>  (40) 
-9.0399999999999991

>  <m_primary>  (40) 
energy

>  <rmsd>  (40) 
8.350537711843947

>  <m_score__min__rmsd>  (40) 
8.350537711843947

>  <meeko>  (40) 
{"free_energy": -8.86, "intermolecular_energy": -10.95, "internal_energy": -2.12, "cluster_size": 18, "cluster_id": 2, "rank_in_cluster": 4}

>  <energy>  (40) 
-8.6

>  <cluster_rmsd>  (40) 
1.11

>  <cluster>  (40) 
2

$$$$

     RDKit          3D

 52 55  0  0  0  0  0  0  0  0999 V2000
  138.4820   75.0840  221.8600 O   0  0  0  0  0  0  0  0  0  0  0  0
  139.6380   75.5710  221.9330 C   0  0  0  0  0  0  0  0  0  0  0  0
  140.7070   74.6990  221.5200 N   0  0  0  0  0  0  0  0  0  0  0  0
  140.2890   73.3750  221.0750 C   0  0  0  0  0  0  0  0  0  0  0  0
  140.8380   72.3080  221.9270 C   0  0  0  0  0  0  0  0  0  0  0  0
  142.0420   71.9380  221.9180 O   0  0  0  0  0  0  0  0  0  0  0  0
  139.9610   71.6350  222.8300 N   0  0  0  0  0  0  0  0  0  0  0  0
  140.0000   71.8290  224.2540 C   0  0  0  0  0  0  0  0  0  0  0  0
  139.2030   70.7340  224.8610 C   0  0  2  0  0  0  0  0  0  0  0  0
  139.8990   70.0950  226.0210 C   0  0  0  0  0  0  0  0  0  0  0  0
  140.4120   70.9070  227.0270 C   0  0  0  0  0  0  0  0  0  0  0  0
  141.0690   70.3540  228.1230 C   0  0  0  0  0  0  0  0  0  0  0  0
  141.2120   68.9850  228.2100 C   0  0  0  0  0  0  0  0  0  0  0  0
  140.7120   68.1740  227.2240 C   0  0  0  0  0  0  0  0  0  0  0  0
  140.0570   68.7300  226.1340 C   0  0  0  0  0  0  0  0  0  0  0  0
  138.9800   69.7570  223.7460 C   0  0  0  0  0  0  0  0  0  0  0  0
  138.9110   70.6780  222.5500 C   0  0  1  0  0  0  0  0  0  0  0  0
  137.5680   71.3650  222.5690 C   0  0  0  0  0  0  0  0  0  0  0  0
  137.6640   72.7320  222.2220 O   0  0  0  0  0  0  0  0  0  0  0  0
  139.9180   76.9240  222.4000 C   0  0  0  0  0  0  0  0  0  0  0  0
  138.8030   77.7040  222.7200 C   0  0  0  0  0  0  0  0  0  0  0  0
  139.0280   78.9910  223.1640 C   0  0  0  0  0  0  0  0  0  0  0  0
  140.2930   79.5190  223.2980 C   0  0  0  0  0  0  0  0  0  0  0  0
  140.5440   80.8000  223.7390 C   0  0  0  0  0  0  0  0  0  0  0  0
  141.8230   81.2990  223.8620 C   0  0  0  0  0  0  0  0  0  0  0  0
  142.8750   80.4570  223.5230 C   0  0  0  0  0  0  0  0  0  0  0  0
  142.6610   79.1600  223.0750 C   0  0  0  0  0  0  0  0  0  0  0  0
  141.3600   78.7090  222.9690 C   0  0  0  0  0  0  0  0  0  0  0  0
  141.1350   77.4400  222.5320 N   0  0  0  0  0  0  0  0  0  0  0  0
  141.7040   75.0050  221.5400 H   0  0  0  0  0  0  0  0  0  0  0  0
  139.1906   73.3215  221.1024 H   0  0  0  0  0  0  0  0  0  0  0  0
  140.6695   73.2240  220.0540 H   0  0  0  0  0  0  0  0  0  0  0  0
  141.0387   71.7847  224.6134 H   0  0  0  0  0  0  0  0  0  0  0  0
  139.5906   72.8124  224.5284 H   0  0  0  0  0  0  0  0  0  0  0  0
  138.2581   71.1116  225.2788 H   0  0  0  0  0  0  0  0  0  0  0  0
  140.2973   71.9987  226.9559 H   0  0  0  0  0  0  0  0  0  0  0  0
  141.4711   71.0043  228.9138 H   0  0  0  0  0  0  0  0  0  0  0  0
  141.7292   68.5420  229.0739 H   0  0  0  0  0  0  0  0  0  0  0  0
  140.8300   67.0828  227.2968 H   0  0  0  0  0  0  0  0  0  0  0  0
  139.6579   68.0716  225.3483 H   0  0  0  0  0  0  0  0  0  0  0  0
  139.8163   69.0477  223.6596 H   0  0  0  0  0  0  0  0  0  0  0  0
  138.0910   69.1223  223.8760 H   0  0  0  0  0  0  0  0  0  0  0  0
  139.0277   70.1825  221.5749 H   0  0  0  0  0  0  0  0  0  0  0  0
  136.9028   70.8629  221.8511 H   0  0  0  0  0  0  0  0  0  0  0  0
  137.1707   71.3030  223.5929 H   0  0  0  0  0  0  0  0  0  0  0  0
  138.0880   73.2610  222.9350 H   0  0  0  0  0  0  0  0  0  0  0  0
  137.7823   77.3059  222.6214 H   0  0  0  0  0  0  0  0  0  0  0  0
  138.1630   79.6200  223.4210 H   0  0  0  0  0  0  0  0  0  0  0  0
  139.6942   81.4470  224.0021 H   0  0  0  0  0  0  0  0  0  0  0  0
  142.0040   82.3249  224.2152 H   0  0  0  0  0  0  0  0  0  0  0  0
  143.9066   80.8283  223.6120 H   0  0  0  0  0  0  0  0  0  0  0  0
  143.5068   78.5081  222.8111 H   0  0  0  0  0  0  0  0  0  0  0  0
  1  2  2  0
  2  3  1  0
  3  4  1  0
  4  5  1  0
  5  6  2  0
  5  7  1  0
  7  8  1  0
  8  9  1  0
  9 10  1  0
 10 11  2  0
 11 12  1  0
 12 13  2  0
 13 14  1  0
 14 15  2  0
  9 16  1  0
 16 17  1  0
 17 18  1  0
 18 19  1  0
  2 20  1  0
 20 21  2  0
 21 22  1  0
 22 23  2  0
 23 24  1  0
 24 25  2  0
 25 26  1  0
 26 27  2  0
 27 28  1  0
 28 29  2  0
 17  7  1  0
 29 20  1  0
 15 10  1  0
 28 23  1  0
  3 30  1  0
  4 31  1  0
  4 32  1  0
  8 33  1  0
  8 34  1  0
  9 35  1  1
 11 36  1  0
 12 37  1  0
 13 38  1  0
 14 39  1  0
 15 40  1  0
 16 41  1  0
 16 42  1  0
 17 43  1  6
 18 44  1  0
 18 45  1  0
 19 46  1  0
 21 47  1  0
 22 48  1  0
 24 49  1  0
 25 50  1  0
 26 51  1  0
 27 52  1  0
M  END
>  <smiles>  (41) 
O=C(NCC(=O)N1C[C@H](c2ccccc2)C[C@H]1CO)c1ccc2ccccc2n1

>  <score_type>  (41) 
oracle

>  <origin>  (41) 
autodockgpu

>  <m_score__min__energy>  (41) 
-9.0399999999999991

>  <m_primary>  (41) 
energy

>  <rmsd>  (41) 
8.350807221126074

>  <m_score__min__rmsd>  (41) 
8.350807221126074

>  <meeko>  (41) 
{"free_energy": -8.57, "intermolecular_energy": -10.65, "internal_energy": -2.22, "cluster_size": 18, "cluster_id": 2, "rank_in_cluster": 12}

>  <energy>  (41) 
-8.59

>  <cluster_rmsd>  (41) 
1.22

>  <cluster>  (41) 
2

$$$$

     RDKit          3D

 52 55  0  0  0  0  0  0  0  0999 V2000
  141.0350   73.0840  222.2780 O   0  0  0  0  0  0  0  0  0  0  0  0
  140.0060   72.6120  222.8210 C   0  0  0  0  0  0  0  0  0  0  0  0
  138.7550   73.1630  222.3650 N   0  0  0  0  0  0  0  0  0  0  0  0
  138.8700   74.1900  221.3360 C   0  0  0  0  0  0  0  0  0  0  0  0
  138.9740   75.5400  221.9140 C   0  0  0  0  0  0  0  0  0  0  0  0
  138.2170   75.9890  222.8140 O   0  0  0  0  0  0  0  0  0  0  0  0
  139.9970   76.4120  221.4320 N   0  0  0  0  0  0  0  0  0  0  0  0
  141.0040   76.9840  222.2820 C   0  0  0  0  0  0  0  0  0  0  0  0
  141.6530   78.0730  221.5100 C   0  0  2  0  0  0  0  0  0  0  0  0
  141.8080   79.3280  222.3110 C   0  0  0  0  0  0  0  0  0  0  0  0
  142.9560   79.4980  223.0780 C   0  0  0  0  0  0  0  0  0  0  0  0
  143.1390   80.6490  223.8400 C   0  0  0  0  0  0  0  0  0  0  0  0
  142.1700   81.6300  223.8330 C   0  0  0  0  0  0  0  0  0  0  0  0
  141.0340   81.4740  223.0820 C   0  0  0  0  0  0  0  0  0  0  0  0
  140.8560   80.3250  222.3240 C   0  0  0  0  0  0  0  0  0  0  0  0
  140.7630   78.2850  220.3230 C   0  0  0  0  0  0  0  0  0  0  0  0
  140.2410   76.8860  220.0860 C   0  0  1  0  0  0  0  0  0  0  0  0
  141.3440   76.0810  219.4480 C   0  0  0  0  0  0  0  0  0  0  0  0
  141.8740   75.1090  220.3280 O   0  0  0  0  0  0  0  0  0  0  0  0
  140.0330   71.5760  223.8470 C   0  0  0  0  0  0  0  0  0  0  0  0
  139.5060   70.3360  223.4780 C   0  0  0  0  0  0  0  0  0  0  0  0
  139.5130   69.3300  224.4230 C   0  0  0  0  0  0  0  0  0  0  0  0
  140.0150   69.5100  225.6940 C   0  0  0  0  0  0  0  0  0  0  0  0
  140.0330   68.5230  226.6560 C   0  0  0  0  0  0  0  0  0  0  0  0
  140.5420   68.7350  227.9180 C   0  0  0  0  0  0  0  0  0  0  0  0
  141.0470   69.9980  228.2020 C   0  0  0  0  0  0  0  0  0  0  0  0
  141.0450   71.0180  227.2600 C   0  0  0  0  0  0  0  0  0  0  0  0
  140.5230   70.7520  226.0080 C   0  0  0  0  0  0  0  0  0  0  0  0
  140.5150   71.7420  225.0740 N   0  0  0  0  0  0  0  0  0  0  0  0
  137.8410   72.8400  222.7490 H   0  0  0  0  0  0  0  0  0  0  0  0
  139.7691   73.9909  220.7344 H   0  0  0  0  0  0  0  0  0  0  0  0
  137.9614   74.1543  220.7170 H   0  0  0  0  0  0  0  0  0  0  0  0
  140.5427   77.3902  223.1943 H   0  0  0  0  0  0  0  0  0  0  0  0
  141.7397   76.2249  222.5862 H   0  0  0  0  0  0  0  0  0  0  0  0
  142.6783   77.8009  221.2191 H   0  0  0  0  0  0  0  0  0  0  0  0
  143.7279   78.7143  223.0826 H   0  0  0  0  0  0  0  0  0  0  0  0
  144.0502   80.7748  224.4433 H   0  0  0  0  0  0  0  0  0  0  0  0
  142.3092   82.5416  224.4326 H   0  0  0  0  0  0  0  0  0  0  0  0
  140.2636   82.2592  223.0801 H   0  0  0  0  0  0  0  0  0  0  0  0
  139.9412   80.2081  221.7244 H   0  0  0  0  0  0  0  0  0  0  0  0
  139.9464   78.9853  220.5527 H   0  0  0  0  0  0  0  0  0  0  0  0
  141.2714   78.7279  219.4539 H   0  0  0  0  0  0  0  0  0  0  0  0
  139.3539   76.8237  219.4385 H   0  0  0  0  0  0  0  0  0  0  0  0
  140.9427   75.5726  218.5589 H   0  0  0  0  0  0  0  0  0  0  0  0
  142.1561   76.7733  219.1811 H   0  0  0  0  0  0  0  0  0  0  0  0
  141.1650   74.6470  220.8300 H   0  0  0  0  0  0  0  0  0  0  0  0
  139.0997   70.1673  222.4698 H   0  0  0  0  0  0  0  0  0  0  0  0
  139.1020   68.3465  224.1513 H   0  0  0  0  0  0  0  0  0  0  0  0
  139.6267   67.5316  226.4071 H   0  0  0  0  0  0  0  0  0  0  0  0
  140.5486   67.9347  228.6727 H   0  0  0  0  0  0  0  0  0  0  0  0
  141.4603   70.1954  229.2021 H   0  0  0  0  0  0  0  0  0  0  0  0
  141.4483   72.0120  227.5037 H   0  0  0  0  0  0  0  0  0  0  0  0
  1  2  2  0
  2  3  1  0
  3  4  1  0
  4  5  1  0
  5  6  2  0
  5  7  1  0
  7  8  1  0
  8  9  1  0
  9 10  1  0
 10 11  2  0
 11 12  1  0
 12 13  2  0
 13 14  1  0
 14 15  2  0
  9 16  1  0
 16 17  1  0
 17 18  1  0
 18 19  1  0
  2 20  1  0
 20 21  2  0
 21 22  1  0
 22 23  2  0
 23 24  1  0
 24 25  2  0
 25 26  1  0
 26 27  2  0
 27 28  1  0
 28 29  2  0
 17  7  1  0
 29 20  1  0
 15 10  1  0
 28 23  1  0
  3 30  1  0
  4 31  1  0
  4 32  1  0
  8 33  1  0
  8 34  1  0
  9 35  1  6
 11 36  1  0
 12 37  1  0
 13 38  1  0
 14 39  1  0
 15 40  1  0
 16 41  1  0
 16 42  1  0
 17 43  1  6
 18 44  1  0
 18 45  1  0
 19 46  1  0
 21 47  1  0
 22 48  1  0
 24 49  1  0
 25 50  1  0
 26 51  1  0
 27 52  1  0
M  END
>  <smiles>  (42) 
O=C(NCC(=O)N1C[C@H](c2ccccc2)C[C@H]1CO)c1ccc2ccccc2n1

>  <score_type>  (42) 
oracle

>  <origin>  (42) 
autodockgpu

>  <m_score__min__energy>  (42) 
-9.0399999999999991

>  <m_primary>  (42) 
energy

>  <rmsd>  (42) 
2.6408139926837375

>  <m_score__min__rmsd>  (42) 
2.6408139926837375

>  <meeko>  (42) 
{"free_energy": -8.5, "intermolecular_energy": -10.59, "internal_energy": -2.08, "cluster_size": 31, "cluster_id": 1, "rank_in_cluster": 4}

>  <energy>  (42) 
-8.57

>  <cluster_rmsd>  (42) 
1.18

>  <cluster>  (42) 
2

$$$$

     RDKit          3D

 52 55  0  0  0  0  0  0  0  0999 V2000
  136.8730   71.6370  221.2570 O   0  0  0  0  0  0  0  0  0  0  0  0
  137.5830   72.0640  222.2010 C   0  0  0  0  0  0  0  0  0  0  0  0
  137.7430   73.4940  222.2600 N   0  0  0  0  0  0  0  0  0  0  0  0
  137.0540   74.2390  221.2120 C   0  0  0  0  0  0  0  0  0  0  0  0
  137.9800   75.0740  220.4300 C   0  0  0  0  0  0  0  0  0  0  0  0
  137.7580   75.4750  219.2560 O   0  0  0  0  0  0  0  0  0  0  0  0
  139.2160   75.4660  221.0260 N   0  0  0  0  0  0  0  0  0  0  0  0
  139.2950   76.2070  222.2540 C   0  0  0  0  0  0  0  0  0  0  0  0
  140.6870   76.7110  222.3650 C   0  0  2  0  0  0  0  0  0  0  0  0
  140.7430   78.1550  222.7560 C   0  0  0  0  0  0  0  0  0  0  0  0
  141.9810   78.7340  223.0120 C   0  0  0  0  0  0  0  0  0  0  0  0
  142.0790   80.0730  223.3810 C   0  0  0  0  0  0  0  0  0  0  0  0
  140.9330   80.8320  223.4930 C   0  0  0  0  0  0  0  0  0  0  0  0
  139.7060   80.2730  223.2440 C   0  0  0  0  0  0  0  0  0  0  0  0
  139.6140   78.9370  222.8770 C   0  0  0  0  0  0  0  0  0  0  0  0
  141.2880   76.4850  221.0110 C   0  0  0  0  0  0  0  0  0  0  0  0
  140.5710   75.2280  220.5720 C   0  0  1  0  0  0  0  0  0  0  0  0
  141.1700   74.0650  221.3240 C   0  0  0  0  0  0  0  0  0  0  0  0
  140.3210   73.6040  222.3560 O   0  0  0  0  0  0  0  0  0  0  0  0
  138.2190   71.2020  223.1900 C   0  0  0  0  0  0  0  0  0  0  0  0
  137.6850   69.9160  223.3150 C   0  0  0  0  0  0  0  0  0  0  0  0
  138.2590   69.0710  224.2420 C   0  0  0  0  0  0  0  0  0  0  0  0
  139.3220   69.4500  225.0320 C   0  0  0  0  0  0  0  0  0  0  0  0
  139.9140   68.6240  225.9650 C   0  0  0  0  0  0  0  0  0  0  0  0
  140.9760   69.0330  226.7390 C   0  0  0  0  0  0  0  0  0  0  0  0
  141.4460   70.3270  226.5520 C   0  0  0  0  0  0  0  0  0  0  0  0
  140.8770   71.1870  225.6230 C   0  0  0  0  0  0  0  0  0  0  0  0
  139.8130   70.7270  224.8710 C   0  0  0  0  0  0  0  0  0  0  0  0
  139.2450   71.5590  223.9550 N   0  0  0  0  0  0  0  0  0  0  0  0
  138.3120   73.9530  223.0050 H   0  0  0  0  0  0  0  0  0  0  0  0
  136.5606   73.5260  220.5351 H   0  0  0  0  0  0  0  0  0  0  0  0
  136.3208   74.9032  221.6929 H   0  0  0  0  0  0  0  0  0  0  0  0
  138.5882   77.0496  222.2335 H   0  0  0  0  0  0  0  0  0  0  0  0
  139.0365   75.5720  223.1142 H   0  0  0  0  0  0  0  0  0  0  0  0
  141.2393   76.1863  223.1585 H   0  0  0  0  0  0  0  0  0  0  0  0
  142.8939   78.1269  222.9219 H   0  0  0  0  0  0  0  0  0  0  0  0
  143.0629   80.5220  223.5816 H   0  0  0  0  0  0  0  0  0  0  0  0
  141.0036   81.8906  223.7834 H   0  0  0  0  0  0  0  0  0  0  0  0
  138.7949   80.8826  223.3349 H   0  0  0  0  0  0  0  0  0  0  0  0
  138.6257   78.4960  222.6799 H   0  0  0  0  0  0  0  0  0  0  0  0
  141.0787   77.3253  220.3326 H   0  0  0  0  0  0  0  0  0  0  0  0
  142.3846   76.3991  221.0145 H   0  0  0  0  0  0  0  0  0  0  0  0
  140.6337   75.0085  219.4959 H   0  0  0  0  0  0  0  0  0  0  0  0
  141.3495   73.2409  220.6179 H   0  0  0  0  0  0  0  0  0  0  0  0
  142.1081   74.4074  221.7853 H   0  0  0  0  0  0  0  0  0  0  0  0
  140.5070   72.6660  222.5900 H   0  0  0  0  0  0  0  0  0  0  0  0
  136.8366   69.5894  222.6957 H   0  0  0  0  0  0  0  0  0  0  0  0
  137.8522   68.0552  224.3548 H   0  0  0  0  0  0  0  0  0  0  0  0
  139.5239   67.6037  226.0947 H   0  0  0  0  0  0  0  0  0  0  0  0
  141.4356   68.3604  227.4782 H   0  0  0  0  0  0  0  0  0  0  0  0
  142.2936   70.6801  227.1577 H   0  0  0  0  0  0  0  0  0  0  0  0
  141.2631   72.2083  225.4889 H   0  0  0  0  0  0  0  0  0  0  0  0
  1  2  2  0
  2  3  1  0
  3  4  1  0
  4  5  1  0
  5  6  2  0
  5  7  1  0
  7  8  1  0
  8  9  1  0
  9 10  1  0
 10 11  2  0
 11 12  1  0
 12 13  2  0
 13 14  1  0
 14 15  2  0
  9 16  1  0
 16 17  1  0
 17 18  1  0
 18 19  1  0
  2 20  1  0
 20 21  2  0
 21 22  1  0
 22 23  2  0
 23 24  1  0
 24 25  2  0
 25 26  1  0
 26 27  2  0
 27 28  1  0
 28 29  2  0
 17  7  1  0
 29 20  1  0
 15 10  1  0
 28 23  1  0
  3 30  1  0
  4 31  1  0
  4 32  1  0
  8 33  1  0
  8 34  1  0
  9 35  1  1
 11 36  1  0
 12 37  1  0
 13 38  1  0
 14 39  1  0
 15 40  1  0
 16 41  1  0
 16 42  1  0
 17 43  1  6
 18 44  1  0
 18 45  1  0
 19 46  1  0
 21 47  1  0
 22 48  1  0
 24 49  1  0
 25 50  1  0
 26 51  1  0
 27 52  1  0
M  END
>  <smiles>  (43) 
O=C(NCC(=O)N1C[C@H](c2ccccc2)C[C@H]1CO)c1ccc2ccccc2n1

>  <score_type>  (43) 
oracle

>  <origin>  (43) 
autodockgpu

>  <m_score__min__energy>  (43) 
-9.0399999999999991

>  <m_primary>  (43) 
energy

>  <rmsd>  (43) 
2.712792452768913

>  <m_score__min__rmsd>  (43) 
2.712792452768913

>  <meeko>  (43) 
{"free_energy": -7.62, "intermolecular_energy": -9.7, "internal_energy": -2.96, "cluster_size": 31, "cluster_id": 1, "rank_in_cluster": 26}

>  <energy>  (43) 
-8.57

>  <cluster_rmsd>  (43) 
1.1

>  <cluster>  (43) 
2

$$$$

     RDKit          3D

 52 55  0  0  0  0  0  0  0  0999 V2000
  139.2610   72.7090  221.8820 O   0  0  0  0  0  0  0  0  0  0  0  0
  140.2590   72.1630  222.4160 C   0  0  0  0  0  0  0  0  0  0  0  0
  141.5010   72.3040  221.7010 N   0  0  0  0  0  0  0  0  0  0  0  0
  141.4170   73.0640  220.4590 C   0  0  0  0  0  0  0  0  0  0  0  0
  142.0040   74.4080  220.5940 C   0  0  0  0  0  0  0  0  0  0  0  0
  143.2260   74.6710  220.4340 O   0  0  0  0  0  0  0  0  0  0  0  0
  141.1450   75.4970  220.9290 N   0  0  0  0  0  0  0  0  0  0  0  0
  141.4590   76.8660  220.6240 C   0  0  0  0  0  0  0  0  0  0  0  0
  140.5250   77.7090  221.4120 C   0  0  2  0  0  0  0  0  0  0  0  0
  141.2210   78.8400  222.1030 C   0  0  0  0  0  0  0  0  0  0  0  0
  141.5380   78.7100  223.4510 C   0  0  0  0  0  0  0  0  0  0  0  0
  142.1830   79.7390  224.1330 C   0  0  0  0  0  0  0  0  0  0  0  0
  142.5090   80.8990  223.4620 C   0  0  0  0  0  0  0  0  0  0  0  0
  142.2010   81.0390  222.1340 C   0  0  0  0  0  0  0  0  0  0  0  0
  141.5590   80.0110  221.4580 C   0  0  0  0  0  0  0  0  0  0  0  0
  139.8940   76.7690  222.3940 C   0  0  0  0  0  0  0  0  0  0  0  0
  139.8620   75.4840  221.6000 C   0  0  1  0  0  0  0  0  0  0  0  0
  138.7490   75.5910  220.5870 C   0  0  0  0  0  0  0  0  0  0  0  0
  138.7390   74.5000  219.6880 O   0  0  0  0  0  0  0  0  0  0  0  0
  140.2030   71.4260  223.6740 C   0  0  0  0  0  0  0  0  0  0  0  0
  139.5820   70.1750  223.6230 C   0  0  0  0  0  0  0  0  0  0  0  0
  139.5080   69.4490  224.7940 C   0  0  0  0  0  0  0  0  0  0  0  0
  140.0170   69.9130  225.9870 C   0  0  0  0  0  0  0  0  0  0  0  0
  139.9560   69.2070  227.1700 C   0  0  0  0  0  0  0  0  0  0  0  0
  140.4750   69.6980  228.3470 C   0  0  0  0  0  0  0  0  0  0  0  0
  141.0750   70.9510  228.3100 C   0  0  0  0  0  0  0  0  0  0  0  0
  141.1560   71.6910  227.1380 C   0  0  0  0  0  0  0  0  0  0  0  0
  140.6190   71.1520  225.9840 C   0  0  0  0  0  0  0  0  0  0  0  0
  140.6910   71.8670  224.8280 N   0  0  0  0  0  0  0  0  0  0  0  0
  142.3900   71.8900  222.0570 H   0  0  0  0  0  0  0  0  0  0  0  0
  141.9570   72.5181  219.6713 H   0  0  0  0  0  0  0  0  0  0  0  0
  140.3535   73.1817  220.2039 H   0  0  0  0  0  0  0  0  0  0  0  0
  142.4987   77.0876  220.9068 H   0  0  0  0  0  0  0  0  0  0  0  0
  141.3539   77.0633  219.5469 H   0  0  0  0  0  0  0  0  0  0  0  0
  139.7808   78.1950  220.7640 H   0  0  0  0  0  0  0  0  0  0  0  0
  141.2764   77.7842  223.9844 H   0  0  0  0  0  0  0  0  0  0  0  0
  142.4306   79.6273  225.1989 H   0  0  0  0  0  0  0  0  0  0  0  0
  143.0184   81.7153  223.9951 H   0  0  0  0  0  0  0  0  0  0  0  0
  142.4627   81.9665  221.6037 H   0  0  0  0  0  0  0  0  0  0  0  0
  141.3162   80.1321  220.3920 H   0  0  0  0  0  0  0  0  0  0  0  0
  140.5061   76.6655  223.3021 H   0  0  0  0  0  0  0  0  0  0  0  0
  138.9094   77.0957  222.7598 H   0  0  0  0  0  0  0  0  0  0  0  0
  139.6962   74.5743  222.1958 H   0  0  0  0  0  0  0  0  0  0  0  0
  137.7869   75.6202  221.1194 H   0  0  0  0  0  0  0  0  0  0  0  0
  138.9110   76.5088  220.0027 H   0  0  0  0  0  0  0  0  0  0  0  0
  138.7030   73.6380  220.1610 H   0  0  0  0  0  0  0  0  0  0  0  0
  139.1670   69.7831  222.6827 H   0  0  0  0  0  0  0  0  0  0  0  0
  139.0238   68.4615  224.7742 H   0  0  0  0  0  0  0  0  0  0  0  0
  139.4760   68.2172  227.1735 H   0  0  0  0  0  0  0  0  0  0  0  0
  140.4169   69.1203  229.2813 H   0  0  0  0  0  0  0  0  0  0  0  0
  141.4978   71.3684  229.2357 H   0  0  0  0  0  0  0  0  0  0  0  0
  141.6353   72.6810  227.1281 H   0  0  0  0  0  0  0  0  0  0  0  0
  1  2  2  0
  2  3  1  0
  3  4  1  0
  4  5  1  0
  5  6  2  0
  5  7  1  0
  7  8  1  0
  8  9  1  0
  9 10  1  0
 10 11  2  0
 11 12  1  0
 12 13  2  0
 13 14  1  0
 14 15  2  0
  9 16  1  0
 16 17  1  0
 17 18  1  0
 18 19  1  0
  2 20  1  0
 20 21  2  0
 21 22  1  0
 22 23  2  0
 23 24  1  0
 24 25  2  0
 25 26  1  0
 26 27  2  0
 27 28  1  0
 28 29  2  0
 17  7  1  0
 29 20  1  0
 15 10  1  0
 28 23  1  0
  3 30  1  0
  4 31  1  0
  4 32  1  0
  8 33  1  0
  8 34  1  0
  9 35  1  6
 11 36  1  0
 12 37  1  0
 13 38  1  0
 14 39  1  0
 15 40  1  0
 16 41  1  0
 16 42  1  0
 17 43  1  1
 18 44  1  0
 18 45  1  0
 19 46  1  0
 21 47  1  0
 22 48  1  0
 24 49  1  0
 25 50  1  0
 26 51  1  0
 27 52  1  0
M  END
>  <smiles>  (44) 
O=C(NCC(=O)N1C[C@H](c2ccccc2)C[C@H]1CO)c1ccc2ccccc2n1

>  <score_type>  (44) 
oracle

>  <origin>  (44) 
autodockgpu

>  <m_score__min__energy>  (44) 
-9.0399999999999991

>  <m_primary>  (44) 
energy

>  <rmsd>  (44) 
2.976065224557135

>  <m_score__min__rmsd>  (44) 
2.976065224557135

>  <meeko>  (44) 
{"free_energy": -8.1, "intermolecular_energy": -10.19, "internal_energy": -2.2, "cluster_size": 31, "cluster_id": 1, "rank_in_cluster": 10}

>  <energy>  (44) 
-8.52

>  <cluster_rmsd>  (44) 
1.09

>  <cluster>  (44) 
2

$$$$

     RDKit          3D

 52 55  0  0  0  0  0  0  0  0999 V2000
  139.5920   74.4360  222.5180 O   0  0  0  0  0  0  0  0  0  0  0  0
  140.3170   74.9170  221.6120 C   0  0  0  0  0  0  0  0  0  0  0  0
  140.6300   74.0230  220.5270 N   0  0  0  0  0  0  0  0  0  0  0  0
  140.0580   72.6860  220.6410 C   0  0  0  0  0  0  0  0  0  0  0  0
  140.6460   71.9290  221.7580 C   0  0  0  0  0  0  0  0  0  0  0  0
  141.8740   71.6780  221.8800 O   0  0  0  0  0  0  0  0  0  0  0  0
  139.7790   71.4380  222.7810 N   0  0  0  0  0  0  0  0  0  0  0  0
  140.0790   71.5460  224.1820 C   0  0  0  0  0  0  0  0  0  0  0  0
  139.1430   70.6420  224.8950 C   0  0  2  0  0  0  0  0  0  0  0  0
  139.8330   69.8000  225.9230 C   0  0  0  0  0  0  0  0  0  0  0  0
  139.8930   68.4240  225.7330 C   0  0  0  0  0  0  0  0  0  0  0  0
  140.5230   67.6040  226.6650 C   0  0  0  0  0  0  0  0  0  0  0  0
  141.0920   68.1650  227.7890 C   0  0  0  0  0  0  0  0  0  0  0  0
  141.0380   69.5200  227.9880 C   0  0  0  0  0  0  0  0  0  0  0  0
  140.4090   70.3330  227.0560 C   0  0  0  0  0  0  0  0  0  0  0  0
  138.5270   69.8000  223.8190 C   0  0  0  0  0  0  0  0  0  0  0  0
  138.5000   70.7700  222.6590 C   0  0  1  0  0  0  0  0  0  0  0  0
  137.3810   71.7510  222.8990 C   0  0  0  0  0  0  0  0  0  0  0  0
  137.5960   72.9790  222.2310 O   0  0  0  0  0  0  0  0  0  0  0  0
  140.8250   76.2840  221.6220 C   0  0  0  0  0  0  0  0  0  0  0  0
  141.1680   76.8180  220.3770 C   0  0  0  0  0  0  0  0  0  0  0  0
  141.6550   78.1090  220.3460 C   0  0  0  0  0  0  0  0  0  0  0  0
  141.8080   78.8710  221.4830 C   0  0  0  0  0  0  0  0  0  0  0  0
  142.2920   80.1620  221.4790 C   0  0  0  0  0  0  0  0  0  0  0  0
  142.4330   80.8980  222.6340 C   0  0  0  0  0  0  0  0  0  0  0  0
  142.0680   80.2920  223.8300 C   0  0  0  0  0  0  0  0  0  0  0  0
  141.5770   78.9940  223.8740 C   0  0  0  0  0  0  0  0  0  0  0  0
  141.4550   78.2990  222.6860 C   0  0  0  0  0  0  0  0  0  0  0  0
  140.9750   77.0250  222.7140 N   0  0  0  0  0  0  0  0  0  0  0  0
  141.2230   74.3230  219.7230 H   0  0  0  0  0  0  0  0  0  0  0  0
  138.9740   72.7761  220.8045 H   0  0  0  0  0  0  0  0  0  0  0  0
  140.2757   72.1424  219.7098 H   0  0  0  0  0  0  0  0  0  0  0  0
  141.1184   71.2394  224.3709 H   0  0  0  0  0  0  0  0  0  0  0  0
  139.9656   72.5834  224.5298 H   0  0  0  0  0  0  0  0  0  0  0  0
  138.3907   71.2111  225.4608 H   0  0  0  0  0  0  0  0  0  0  0  0
  139.4376   67.9784  224.8363 H   0  0  0  0  0  0  0  0  0  0  0  0
  140.5666   66.5164  226.5060 H   0  0  0  0  0  0  0  0  0  0  0  0
  141.5913   67.5223  228.5290 H   0  0  0  0  0  0  0  0  0  0  0  0
  141.4931   69.9628  228.8862 H   0  0  0  0  0  0  0  0  0  0  0  0
  140.3695   71.4194  227.2239 H   0  0  0  0  0  0  0  0  0  0  0  0
  139.1466   68.9197  223.5929 H   0  0  0  0  0  0  0  0  0  0  0  0
  137.5425   69.3853  224.0811 H   0  0  0  0  0  0  0  0  0  0  0  0
  138.3449   70.3101  221.6718 H   0  0  0  0  0  0  0  0  0  0  0  0
  136.4400   71.3108  222.5374 H   0  0  0  0  0  0  0  0  0  0  0  0
  137.3372   71.9565  223.9787 H   0  0  0  0  0  0  0  0  0  0  0  0
  138.1730   73.5820  222.7520 H   0  0  0  0  0  0  0  0  0  0  0  0
  141.0539   76.2302  219.4543 H   0  0  0  0  0  0  0  0  0  0  0  0
  141.9317   78.5464  219.3754 H   0  0  0  0  0  0  0  0  0  0  0  0
  142.5753   80.6198  220.5198 H   0  0  0  0  0  0  0  0  0  0  0  0
  142.8201   81.9274  222.6109 H   0  0  0  0  0  0  0  0  0  0  0  0
  142.1709   80.8566  224.7684 H   0  0  0  0  0  0  0  0  0  0  0  0
  141.2924   78.5308  224.8302 H   0  0  0  0  0  0  0  0  0  0  0  0
  1  2  2  0
  2  3  1  0
  3  4  1  0
  4  5  1  0
  5  6  2  0
  5  7  1  0
  7  8  1  0
  8  9  1  0
  9 10  1  0
 10 11  2  0
 11 12  1  0
 12 13  2  0
 13 14  1  0
 14 15  2  0
  9 16  1  0
 16 17  1  0
 17 18  1  0
 18 19  1  0
  2 20  1  0
 20 21  2  0
 21 22  1  0
 22 23  2  0
 23 24  1  0
 24 25  2  0
 25 26  1  0
 26 27  2  0
 27 28  1  0
 28 29  2  0
 17  7  1  0
 29 20  1  0
 15 10  1  0
 28 23  1  0
  3 30  1  0
  4 31  1  0
  4 32  1  0
  8 33  1  0
  8 34  1  0
  9 35  1  1
 11 36  1  0
 12 37  1  0
 13 38  1  0
 14 39  1  0
 15 40  1  0
 16 41  1  0
 16 42  1  0
 17 43  1  6
 18 44  1  0
 18 45  1  0
 19 46  1  0
 21 47  1  0
 22 48  1  0
 24 49  1  0
 25 50  1  0
 26 51  1  0
 27 52  1  0
M  END
>  <smiles>  (45) 
O=C(NCC(=O)N1C[C@H](c2ccccc2)C[C@H]1CO)c1ccc2ccccc2n1

>  <score_type>  (45) 
oracle

>  <origin>  (45) 
autodockgpu

>  <m_score__min__energy>  (45) 
-9.0399999999999991

>  <m_primary>  (45) 
energy

>  <rmsd>  (45) 
8.336439518727415

>  <m_score__min__rmsd>  (45) 
8.336439518727415

>  <meeko>  (45) 
{"free_energy": -8.9, "intermolecular_energy": -10.99, "internal_energy": -2.1, "cluster_size": 18, "cluster_id": 2, "rank_in_cluster": 1}

>  <energy>  (45) 
-8.35

>  <cluster_rmsd>  (45) 
1.19

>  <cluster>  (45) 
2

$$$$

     RDKit          3D

 52 55  0  0  0  0  0  0  0  0999 V2000
  136.7020   72.0460  221.2860 O   0  0  0  0  0  0  0  0  0  0  0  0
  137.4770   72.3850  222.2150 C   0  0  0  0  0  0  0  0  0  0  0  0
  137.7500   73.7960  222.3110 N   0  0  0  0  0  0  0  0  0  0  0  0
  137.0850   74.6250  221.3130 C   0  0  0  0  0  0  0  0  0  0  0  0
  138.0480   75.3680  220.4830 C   0  0  0  0  0  0  0  0  0  0  0  0
  137.8350   75.7270  219.2950 O   0  0  0  0  0  0  0  0  0  0  0  0
  139.3120   75.7130  221.0480 N   0  0  0  0  0  0  0  0  0  0  0  0
  139.4500   76.4510  222.2730 C   0  0  0  0  0  0  0  0  0  0  0  0
  140.8620   76.9020  222.3490 C   0  0  2  0  0  0  0  0  0  0  0  0
  140.9810   78.3430  222.7370 C   0  0  0  0  0  0  0  0  0  0  0  0
  139.8340   79.0360  223.1090 C   0  0  0  0  0  0  0  0  0  0  0  0
  139.9000   80.3780  223.4750 C   0  0  0  0  0  0  0  0  0  0  0  0
  141.1170   81.0250  223.4680 C   0  0  0  0  0  0  0  0  0  0  0  0
  142.2550   80.3540  223.1030 C   0  0  0  0  0  0  0  0  0  0  0  0
  142.1840   79.0160  222.7390 C   0  0  0  0  0  0  0  0  0  0  0  0
  141.4190   76.6540  220.9800 C   0  0  0  0  0  0  0  0  0  0  0  0
  140.6450   75.4250  220.5610 C   0  0  1  0  0  0  0  0  0  0  0  0
  141.2190   74.2400  221.2980 C   0  0  0  0  0  0  0  0  0  0  0  0
  140.3740   73.8020  222.3430 O   0  0  0  0  0  0  0  0  0  0  0  0
  138.0780   71.4440  223.1530 C   0  0  0  0  0  0  0  0  0  0  0  0
  137.3890   70.2420  223.3390 C   0  0  0  0  0  0  0  0  0  0  0  0
  137.9260   69.3260  224.2210 C   0  0  0  0  0  0  0  0  0  0  0  0
  139.0970   69.5570  224.9080 C   0  0  0  0  0  0  0  0  0  0  0  0
  139.6540   68.6590  225.7930 C   0  0  0  0  0  0  0  0  0  0  0  0
  140.8280   68.9200  226.4650 C   0  0  0  0  0  0  0  0  0  0  0  0
  141.4490   70.1390  226.2220 C   0  0  0  0  0  0  0  0  0  0  0  0
  140.9180   71.0690  225.3370 C   0  0  0  0  0  0  0  0  0  0  0  0
  139.7390   70.7580  224.6890 C   0  0  0  0  0  0  0  0  0  0  0  0
  139.2070   71.6590  223.8190 N   0  0  0  0  0  0  0  0  0  0  0  0
  138.3790   74.1840  223.0480 H   0  0  0  0  0  0  0  0  0  0  0  0
  136.4788   73.9787  220.6612 H   0  0  0  0  0  0  0  0  0  0  0  0
  136.4573   75.3567  221.8426 H   0  0  0  0  0  0  0  0  0  0  0  0
  138.7753   77.3198  222.2691 H   0  0  0  0  0  0  0  0  0  0  0  0
  139.1894   75.8263  223.1401 H   0  0  0  0  0  0  0  0  0  0  0  0
  141.4146   76.3571  223.1285 H   0  0  0  0  0  0  0  0  0  0  0  0
  138.8635   78.5181  223.1142 H   0  0  0  0  0  0  0  0  0  0  0  0
  138.9873   80.9179  223.7676 H   0  0  0  0  0  0  0  0  0  0  0  0
  141.1752   82.0848  223.7567 H   0  0  0  0  0  0  0  0  0  0  0  0
  143.2238   80.8751  223.0984 H   0  0  0  0  0  0  0  0  0  0  0  0
  143.1021   78.4847  222.4477 H   0  0  0  0  0  0  0  0  0  0  0  0
  141.2236   77.5015  220.3065 H   0  0  0  0  0  0  0  0  0  0  0  0
  142.5114   76.5275  220.9552 H   0  0  0  0  0  0  0  0  0  0  0  0
  140.6725   75.2035  219.4839 H   0  0  0  0  0  0  0  0  0  0  0  0
  141.3593   73.4136  220.5857 H   0  0  0  0  0  0  0  0  0  0  0  0
  142.1755   74.5501  221.7440 H   0  0  0  0  0  0  0  0  0  0  0  0
  140.1950   72.8360  222.2880 H   0  0  0  0  0  0  0  0  0  0  0  0
  136.4521   70.0335  222.8016 H   0  0  0  0  0  0  0  0  0  0  0  0
  137.3980   68.3744  224.3814 H   0  0  0  0  0  0  0  0  0  0  0  0
  139.1434   67.7007  225.9688 H   0  0  0  0  0  0  0  0  0  0  0  0
  141.2576   68.1907  227.1676 H   0  0  0  0  0  0  0  0  0  0  0  0
  142.3876   70.3743  226.7451 H   0  0  0  0  0  0  0  0  0  0  0  0
  141.4241   72.0290  225.1570 H   0  0  0  0  0  0  0  0  0  0  0  0
  1  2  2  0
  2  3  1  0
  3  4  1  0
  4  5  1  0
  5  6  2  0
  5  7  1  0
  7  8  1  0
  8  9  1  0
  9 10  1  0
 10 11  2  0
 11 12  1  0
 12 13  2  0
 13 14  1  0
 14 15  2  0
  9 16  1  0
 16 17  1  0
 17 18  1  0
 18 19  1  0
  2 20  1  0
 20 21  2  0
 21 22  1  0
 22 23  2  0
 23 24  1  0
 24 25  2  0
 25 26  1  0
 26 27  2  0
 27 28  1  0
 28 29  2  0
 17  7  1  0
 29 20  1  0
 15 10  1  0
 28 23  1  0
  3 30  1  0
  4 31  1  0
  4 32  1  0
  8 33  1  0
  8 34  1  0
  9 35  1  1
 11 36  1  0
 12 37  1  0
 13 38  1  0
 14 39  1  0
 15 40  1  0
 16 41  1  0
 16 42  1  0
 17 43  1  6
 18 44  1  0
 18 45  1  0
 19 46  1  0
 21 47  1  0
 22 48  1  0
 24 49  1  0
 25 50  1  0
 26 51  1  0
 27 52  1  0
M  END
>  <smiles>  (46) 
O=C(NCC(=O)N1C[C@H](c2ccccc2)C[C@H]1CO)c1ccc2ccccc2n1

>  <score_type>  (46) 
oracle

>  <origin>  (46) 
autodockgpu

>  <m_score__min__energy>  (46) 
-9.0399999999999991

>  <m_primary>  (46) 
energy

>  <rmsd>  (46) 
2.8167362386505683

>  <m_score__min__rmsd>  (46) 
2.8167362386505683

>  <meeko>  (46) 
{"free_energy": -7.65, "intermolecular_energy": -9.74, "internal_energy": -2.98, "cluster_size": 31, "cluster_id": 1, "rank_in_cluster": 25}

>  <energy>  (46) 
-8.33

>  <cluster_rmsd>  (46) 
1.1

>  <cluster>  (46) 
2

$$$$

     RDKit          3D

 52 55  0  0  0  0  0  0  0  0999 V2000
  137.9850   75.3060  222.2750 O   0  0  0  0  0  0  0  0  0  0  0  0
  139.1710   75.7150  222.2110 C   0  0  0  0  0  0  0  0  0  0  0  0
  140.1370   74.7480  221.7540 N   0  0  0  0  0  0  0  0  0  0  0  0
  139.5930   73.4340  221.4320 C   0  0  0  0  0  0  0  0  0  0  0  0
  140.2340   72.3650  222.2160 C   0  0  0  0  0  0  0  0  0  0  0  0
  141.4630   72.0920  222.1760 O   0  0  0  0  0  0  0  0  0  0  0  0
  139.4220   71.5740  223.0830 N   0  0  0  0  0  0  0  0  0  0  0  0
  139.6270   71.5070  224.5040 C   0  0  0  0  0  0  0  0  0  0  0  0
  138.8370   70.3520  225.0000 C   0  0  2  0  0  0  0  0  0  0  0  0
  139.6170   69.4880  225.9420 C   0  0  0  0  0  0  0  0  0  0  0  0
  140.1560   70.0610  227.0890 C   0  0  0  0  0  0  0  0  0  0  0  0
  140.8900   69.2950  227.9900 C   0  0  0  0  0  0  0  0  0  0  0  0
  141.0840   67.9530  227.7400 C   0  0  0  0  0  0  0  0  0  0  0  0
  140.5600   67.3770  226.6130 C   0  0  0  0  0  0  0  0  0  0  0  0
  139.8280   68.1450  225.7170 C   0  0  0  0  0  0  0  0  0  0  0  0
  138.4400   69.6000  223.7660 C   0  0  0  0  0  0  0  0  0  0  0  0
  138.2940   70.7230  222.7650 C   0  0  1  0  0  0  0  0  0  0  0  0
  137.0040   71.4450  223.0610 C   0  0  0  0  0  0  0  0  0  0  0  0
  137.0100   72.7720  222.5720 O   0  0  0  0  0  0  0  0  0  0  0  0
  139.5820   77.0680  222.5660 C   0  0  0  0  0  0  0  0  0  0  0  0
  138.5480   77.9790  222.8000 C   0  0  0  0  0  0  0  0  0  0  0  0
  138.8970   79.2710  223.1370 C   0  0  0  0  0  0  0  0  0  0  0  0
  140.2080   79.6800  223.2460 C   0  0  0  0  0  0  0  0  0  0  0  0
  140.5820   80.9640  223.5820 C   0  0  0  0  0  0  0  0  0  0  0  0
  141.9030   81.3420  223.6830 C   0  0  0  0  0  0  0  0  0  0  0  0
  142.8680   80.3740  223.4330 C   0  0  0  0  0  0  0  0  0  0  0  0
  142.5300   79.0710  223.0940 C   0  0  0  0  0  0  0  0  0  0  0  0
  141.1900   78.7440  223.0050 C   0  0  0  0  0  0  0  0  0  0  0  0
  140.8430   77.4700  222.6730 N   0  0  0  0  0  0  0  0  0  0  0  0
  141.1490   74.9850  221.6640 H   0  0  0  0  0  0  0  0  0  0  0  0
  138.5141   73.4338  221.6466 H   0  0  0  0  0  0  0  0  0  0  0  0
  139.7866   73.2375  220.3672 H   0  0  0  0  0  0  0  0  0  0  0  0
  140.6942   71.3584  224.7256 H   0  0  0  0  0  0  0  0  0  0  0  0
  139.3089   72.4401  224.9920 H   0  0  0  0  0  0  0  0  0  0  0  0
  137.9661   70.6844  225.5840 H   0  0  0  0  0  0  0  0  0  0  0  0
  140.0004   71.1319  227.2864 H   0  0  0  0  0  0  0  0  0  0  0  0
  141.3121   69.7568  228.8947 H   0  0  0  0  0  0  0  0  0  0  0  0
  141.6622   67.3421  228.4488 H   0  0  0  0  0  0  0  0  0  0  0  0
  140.7190   66.3062  226.4178 H   0  0  0  0  0  0  0  0  0  0  0  0
  139.4106   67.6744  224.8146 H   0  0  0  0  0  0  0  0  0  0  0  0
  139.2207   68.8879  223.4604 H   0  0  0  0  0  0  0  0  0  0  0  0
  137.5360   68.9849  223.8861 H   0  0  0  0  0  0  0  0  0  0  0  0
  138.2747   70.4070  221.7116 H   0  0  0  0  0  0  0  0  0  0  0  0
  136.1751   70.8973  222.5889 H   0  0  0  0  0  0  0  0  0  0  0  0
  136.8844   71.4883  224.1536 H   0  0  0  0  0  0  0  0  0  0  0  0
  137.5580   73.3650  223.1340 H   0  0  0  0  0  0  0  0  0  0  0  0
  137.4935   77.6768  222.7184 H   0  0  0  0  0  0  0  0  0  0  0  0
  138.0975   80.0025  223.3259 H   0  0  0  0  0  0  0  0  0  0  0  0
  139.7990   81.7119  223.7760 H   0  0  0  0  0  0  0  0  0  0  0  0
  142.1832   82.3713  223.9514 H   0  0  0  0  0  0  0  0  0  0  0  0
  143.9308   80.6482  223.5058 H   0  0  0  0  0  0  0  0  0  0  0  0
  143.3085   78.3182  222.9012 H   0  0  0  0  0  0  0  0  0  0  0  0
  1  2  2  0
  2  3  1  0
  3  4  1  0
  4  5  1  0
  5  6  2  0
  5  7  1  0
  7  8  1  0
  8  9  1  0
  9 10  1  0
 10 11  2  0
 11 12  1  0
 12 13  2  0
 13 14  1  0
 14 15  2  0
  9 16  1  0
 16 17  1  0
 17 18  1  0
 18 19  1  0
  2 20  1  0
 20 21  2  0
 21 22  1  0
 22 23  2  0
 23 24  1  0
 24 25  2  0
 25 26  1  0
 26 27  2  0
 27 28  1  0
 28 29  2  0
 17  7  1  0
 29 20  1  0
 15 10  1  0
 28 23  1  0
  3 30  1  0
  4 31  1  0
  4 32  1  0
  8 33  1  0
  8 34  1  0
  9 35  1  1
 11 36  1  0
 12 37  1  0
 13 38  1  0
 14 39  1  0
 15 40  1  0
 16 41  1  0
 16 42  1  0
 17 43  1  6
 18 44  1  0
 18 45  1  0
 19 46  1  0
 21 47  1  0
 22 48  1  0
 24 49  1  0
 25 50  1  0
 26 51  1  0
 27 52  1  0
M  END
>  <smiles>  (47) 
O=C(NCC(=O)N1C[C@H](c2ccccc2)C[C@H]1CO)c1ccc2ccccc2n1

>  <score_type>  (47) 
oracle

>  <origin>  (47) 
autodockgpu

>  <m_score__min__energy>  (47) 
-9.0399999999999991

>  <m_primary>  (47) 
energy

>  <rmsd>  (47) 
8.497188461875336

>  <m_score__min__rmsd>  (47) 
8.497188461875336

>  <meeko>  (47) 
{"free_energy": -8.59, "intermolecular_energy": -10.68, "internal_energy": -2.21, "cluster_size": 18, "cluster_id": 2, "rank_in_cluster": 10}

>  <energy>  (47) 
-7.87

>  <cluster_rmsd>  (47) 
1.61

>  <cluster>  (47) 
2

$$$$

     RDKit          3D

 52 55  0  0  0  0  0  0  0  0999 V2000
  137.4330   71.3510  221.0390 O   0  0  0  0  0  0  0  0  0  0  0  0
  137.7540   71.8640  222.1400 C   0  0  0  0  0  0  0  0  0  0  0  0
  137.6020   73.2940  222.2260 N   0  0  0  0  0  0  0  0  0  0  0  0
  137.0940   73.9360  221.0190 C   0  0  0  0  0  0  0  0  0  0  0  0
  137.6040   75.3090  220.8700 C   0  0  0  0  0  0  0  0  0  0  0  0
  136.9450   76.2640  220.3800 O   0  0  0  0  0  0  0  0  0  0  0  0
  138.9340   75.5950  221.3030 N   0  0  0  0  0  0  0  0  0  0  0  0
  139.2270   76.4270  222.4380 C   0  0  0  0  0  0  0  0  0  0  0  0
  140.6710   76.7620  222.3650 C   0  0  2  0  0  0  0  0  0  0  0  0
  140.9330   78.2170  222.6030 C   0  0  0  0  0  0  0  0  0  0  0  0
  140.2650   79.1550  221.8230 C   0  0  0  0  0  0  0  0  0  0  0  0
  140.4810   80.5180  222.0090 C   0  0  0  0  0  0  0  0  0  0  0  0
  141.3680   80.9400  222.9770 C   0  0  0  0  0  0  0  0  0  0  0  0
  142.0330   80.0250  223.7500 C   0  0  0  0  0  0  0  0  0  0  0  0
  141.8150   78.6670  223.5620 C   0  0  0  0  0  0  0  0  0  0  0  0
  141.0950   76.3440  220.9890 C   0  0  0  0  0  0  0  0  0  0  0  0
  140.1960   75.1520  220.7490 C   0  0  1  0  0  0  0  0  0  0  0  0
  140.7340   73.9950  221.5530 C   0  0  0  0  0  0  0  0  0  0  0  0
  139.9620   73.7450  222.7100 O   0  0  0  0  0  0  0  0  0  0  0  0
  138.2520   71.0980  223.2760 C   0  0  0  0  0  0  0  0  0  0  0  0
  137.6790   69.8370  223.4620 C   0  0  0  0  0  0  0  0  0  0  0  0
  138.1220   69.0820  224.5280 C   0  0  0  0  0  0  0  0  0  0  0  0
  139.0940   69.5270  225.3980 C   0  0  0  0  0  0  0  0  0  0  0  0
  139.5540   68.7920  226.4700 C   0  0  0  0  0  0  0  0  0  0  0  0
  140.5280   69.2660  227.3220 C   0  0  0  0  0  0  0  0  0  0  0  0
  141.0440   70.5300  227.0660 C   0  0  0  0  0  0  0  0  0  0  0  0
  140.6060   71.2990  225.9960 C   0  0  0  0  0  0  0  0  0  0  0  0
  139.6270   70.7770  225.1720 C   0  0  0  0  0  0  0  0  0  0  0  0
  139.1880   71.5200  224.1190 N   0  0  0  0  0  0  0  0  0  0  0  0
  137.8390   73.8190  223.0950 H   0  0  0  0  0  0  0  0  0  0  0  0
  137.4040   73.3449  220.1447 H   0  0  0  0  0  0  0  0  0  0  0  0
  135.9978   73.9865  221.0959 H   0  0  0  0  0  0  0  0  0  0  0  0
  138.6231   77.3456  222.3997 H   0  0  0  0  0  0  0  0  0  0  0  0
  138.9900   75.9081  223.3785 H   0  0  0  0  0  0  0  0  0  0  0  0
  141.2414   76.2448  223.1506 H   0  0  0  0  0  0  0  0  0  0  0  0
  139.5584   78.8165  221.0509 H   0  0  0  0  0  0  0  0  0  0  0  0
  139.9478   81.2530  221.3881 H   0  0  0  0  0  0  0  0  0  0  0  0
  141.5422   82.0154  223.1291 H   0  0  0  0  0  0  0  0  0  0  0  0
  142.7402   80.3667  224.5202 H   0  0  0  0  0  0  0  0  0  0  0  0
  142.3537   77.9397  224.1872 H   0  0  0  0  0  0  0  0  0  0  0  0
  140.9125   77.1404  220.2525 H   0  0  0  0  0  0  0  0  0  0  0  0
  142.1687   76.1232  220.8969 H   0  0  0  0  0  0  0  0  0  0  0  0
  140.1183   74.8324  219.6993 H   0  0  0  0  0  0  0  0  0  0  0  0
  140.7302   73.0934  220.9228 H   0  0  0  0  0  0  0  0  0  0  0  0
  141.7534   74.2529  221.8761 H   0  0  0  0  0  0  0  0  0  0  0  0
  140.0130   72.8020  222.9860 H   0  0  0  0  0  0  0  0  0  0  0  0
  136.9014   69.4595  222.7817 H   0  0  0  0  0  0  0  0  0  0  0  0
  137.6827   68.0866  224.6900 H   0  0  0  0  0  0  0  0  0  0  0  0
  139.1293   67.7936  226.6513 H   0  0  0  0  0  0  0  0  0  0  0  0
  140.8834   68.6660  228.1727 H   0  0  0  0  0  0  0  0  0  0  0  0
  141.8224   70.9336  227.7303 H   0  0  0  0  0  0  0  0  0  0  0  0
  141.0273   72.2978  225.8091 H   0  0  0  0  0  0  0  0  0  0  0  0
  1  2  2  0
  2  3  1  0
  3  4  1  0
  4  5  1  0
  5  6  2  0
  5  7  1  0
  7  8  1  0
  8  9  1  0
  9 10  1  0
 10 11  2  0
 11 12  1  0
 12 13  2  0
 13 14  1  0
 14 15  2  0
  9 16  1  0
 16 17  1  0
 17 18  1  0
 18 19  1  0
  2 20  1  0
 20 21  2  0
 21 22  1  0
 22 23  2  0
 23 24  1  0
 24 25  2  0
 25 26  1  0
 26 27  2  0
 27 28  1  0
 28 29  2  0
 17  7  1  0
 29 20  1  0
 15 10  1  0
 28 23  1  0
  3 30  1  0
  4 31  1  0
  4 32  1  0
  8 33  1  0
  8 34  1  0
  9 35  1  1
 11 36  1  0
 12 37  1  0
 13 38  1  0
 14 39  1  0
 15 40  1  0
 16 41  1  0
 16 42  1  0
 17 43  1  6
 18 44  1  0
 18 45  1  0
 19 46  1  0
 21 47  1  0
 22 48  1  0
 24 49  1  0
 25 50  1  0
 26 51  1  0
 27 52  1  0
M  END
>  <smiles>  (48) 
O=C(NCC(=O)N1C[C@H](c2ccccc2)C[C@H]1CO)c1ccc2ccccc2n1

>  <score_type>  (48) 
oracle

>  <origin>  (48) 
autodockgpu

>  <m_score__min__energy>  (48) 
-9.0399999999999991

>  <m_primary>  (48) 
energy

>  <rmsd>  (48) 
2.7145334698814945

>  <m_score__min__rmsd>  (48) 
2.7145334698814945

>  <meeko>  (48) 
{"free_energy": -7.88, "intermolecular_energy": -9.96, "internal_energy": -2.76, "cluster_size": 31, "cluster_id": 1, "rank_in_cluster": 16}

>  <energy>  (48) 
-7.4

>  <cluster_rmsd>  (48) 
1.89

>  <cluster>  (48) 
2

$$$$

     RDKit          3D

 52 55  0  0  0  0  0  0  0  0999 V2000
  136.6200   71.4450  221.2850 O   0  0  0  0  0  0  0  0  0  0  0  0
  137.3420   71.9160  222.1990 C   0  0  0  0  0  0  0  0  0  0  0  0
  137.5130   73.3460  222.1810 N   0  0  0  0  0  0  0  0  0  0  0  0
  136.8190   74.0390  221.1010 C   0  0  0  0  0  0  0  0  0  0  0  0
  137.5710   75.2120  220.6270 C   0  0  0  0  0  0  0  0  0  0  0  0
  137.1130   76.0790  219.8350 O   0  0  0  0  0  0  0  0  0  0  0  0
  138.9100   75.3960  221.0830 N   0  0  0  0  0  0  0  0  0  0  0  0
  139.2510   76.2360  222.1990 C   0  0  0  0  0  0  0  0  0  0  0  0
  140.7200   76.4420  222.1510 C   0  0  2  0  0  0  0  0  0  0  0  0
  141.1030   77.8750  222.3500 C   0  0  0  0  0  0  0  0  0  0  0  0
  141.5900   78.2750  223.5900 C   0  0  0  0  0  0  0  0  0  0  0  0
  141.9560   79.5990  223.8180 C   0  0  0  0  0  0  0  0  0  0  0  0
  141.8330   80.5220  222.8010 C   0  0  0  0  0  0  0  0  0  0  0  0
  141.3530   80.1410  221.5750 C   0  0  0  0  0  0  0  0  0  0  0  0
  140.9900   78.8200  221.3520 C   0  0  0  0  0  0  0  0  0  0  0  0
  141.1350   75.9440  220.8000 C   0  0  0  0  0  0  0  0  0  0  0  0
  140.1410   74.8270  220.5750 C   0  0  1  0  0  0  0  0  0  0  0  0
  140.5580   73.6550  221.4270 C   0  0  0  0  0  0  0  0  0  0  0  0
  139.9760   73.6970  222.7140 O   0  0  0  0  0  0  0  0  0  0  0  0
  137.9810   71.1020  223.2270 C   0  0  0  0  0  0  0  0  0  0  0  0
  137.4860   69.8040  223.3750 C   0  0  0  0  0  0  0  0  0  0  0  0
  138.0640   69.0040  224.3390 C   0  0  0  0  0  0  0  0  0  0  0  0
  139.0950   69.4390  225.1420 C   0  0  0  0  0  0  0  0  0  0  0  0
  139.6890   68.6590  226.1120 C   0  0  0  0  0  0  0  0  0  0  0  0
  140.7190   69.1240  226.9000 C   0  0  0  0  0  0  0  0  0  0  0  0
  141.1520   70.4270  226.6870 C   0  0  0  0  0  0  0  0  0  0  0  0
  140.5780   71.2420  225.7210 C   0  0  0  0  0  0  0  0  0  0  0  0
  139.5480   70.7270  224.9570 C   0  0  0  0  0  0  0  0  0  0  0  0
  138.9750   71.5140  224.0050 N   0  0  0  0  0  0  0  0  0  0  0  0
  138.0920   73.8390  222.8950 H   0  0  0  0  0  0  0  0  0  0  0  0
  136.6822   73.3416  220.2614 H   0  0  0  0  0  0  0  0  0  0  0  0
  135.8509   74.3893  221.4883 H   0  0  0  0  0  0  0  0  0  0  0  0
  138.7308   77.2019  222.1182 H   0  0  0  0  0  0  0  0  0  0  0  0
  138.9498   75.7701  223.1488 H   0  0  0  0  0  0  0  0  0  0  0  0
  141.2258   75.9036  222.9660 H   0  0  0  0  0  0  0  0  0  0  0  0
  141.6871   77.5369  224.3998 H   0  0  0  0  0  0  0  0  0  0  0  0
  142.3403   79.9062  224.8018 H   0  0  0  0  0  0  0  0  0  0  0  0
  142.1215   81.5692  222.9745 H   0  0  0  0  0  0  0  0  0  0  0  0
  141.2555   80.8820  220.7679 H   0  0  0  0  0  0  0  0  0  0  0  0
  140.6066   78.5225  220.3648 H   0  0  0  0  0  0  0  0  0  0  0  0
  141.0385   76.7285  220.0350 H   0  0  0  0  0  0  0  0  0  0  0  0
  142.1870   75.6282  220.7410 H   0  0  0  0  0  0  0  0  0  0  0  0
  140.0590   74.4806  219.5342 H   0  0  0  0  0  0  0  0  0  0  0  0
  140.2469   72.7255  220.9277 H   0  0  0  0  0  0  0  0  0  0  0  0
  141.6504   73.6977  221.5488 H   0  0  0  0  0  0  0  0  0  0  0  0
  139.5350   72.8480  222.9430 H   0  0  0  0  0  0  0  0  0  0  0  0
  136.6642   69.4329  222.7450 H   0  0  0  0  0  0  0  0  0  0  0  0
  137.6869   67.9792  224.4714 H   0  0  0  0  0  0  0  0  0  0  0  0
  139.3281   67.6307  226.2616 H   0  0  0  0  0  0  0  0  0  0  0  0
  141.1813   68.4876  227.6690 H   0  0  0  0  0  0  0  0  0  0  0  0
  141.9733   70.8241  227.3016 H   0  0  0  0  0  0  0  0  0  0  0  0
  140.9339   72.2715  225.5675 H   0  0  0  0  0  0  0  0  0  0  0  0
  1  2  2  0
  2  3  1  0
  3  4  1  0
  4  5  1  0
  5  6  2  0
  5  7  1  0
  7  8  1  0
  8  9  1  0
  9 10  1  0
 10 11  2  0
 11 12  1  0
 12 13  2  0
 13 14  1  0
 14 15  2  0
  9 16  1  0
 16 17  1  0
 17 18  1  0
 18 19  1  0
  2 20  1  0
 20 21  2  0
 21 22  1  0
 22 23  2  0
 23 24  1  0
 24 25  2  0
 25 26  1  0
 26 27  2  0
 27 28  1  0
 28 29  2  0
 17  7  1  0
 29 20  1  0
 15 10  1  0
 28 23  1  0
  3 30  1  0
  4 31  1  0
  4 32  1  0
  8 33  1  0
  8 34  1  0
  9 35  1  1
 11 36  1  0
 12 37  1  0
 13 38  1  0
 14 39  1  0
 15 40  1  0
 16 41  1  0
 16 42  1  0
 17 43  1  6
 18 44  1  0
 18 45  1  0
 19 46  1  0
 21 47  1  0
 22 48  1  0
 24 49  1  0
 25 50  1  0
 26 51  1  0
 27 52  1  0
M  END
>  <smiles>  (49) 
O=C(NCC(=O)N1C[C@H](c2ccccc2)C[C@H]1CO)c1ccc2ccccc2n1

>  <score_type>  (49) 
oracle

>  <origin>  (49) 
autodockgpu

>  <m_score__min__energy>  (49) 
-9.0399999999999991

>  <m_primary>  (49) 
energy

>  <rmsd>  (49) 
2.7204700745797528

>  <m_score__min__rmsd>  (49) 
2.7204700745797528

>  <meeko>  (49) 
{"free_energy": -7.78, "intermolecular_energy": -9.87, "internal_energy": -2.86, "cluster_size": 31, "cluster_id": 1, "rank_in_cluster": 18}

>  <energy>  (49) 
-6.85

>  <cluster_rmsd>  (49) 
1.8

>  <cluster>  (49) 
2

$$$$

     RDKit          3D

 52 55  0  0  0  0  0  0  0  0999 V2000
  137.4480   71.0640  221.7430 O   0  0  0  0  0  0  0  0  0  0  0  0
  138.2190   71.5100  222.6290 C   0  0  0  0  0  0  0  0  0  0  0  0
  138.5970   72.8930  222.4840 N   0  0  0  0  0  0  0  0  0  0  0  0
  138.0260   73.5730  221.3270 C   0  0  0  0  0  0  0  0  0  0  0  0
  138.1150   75.0370  221.4490 C   0  0  0  0  0  0  0  0  0  0  0  0
  137.1230   75.8130  221.4630 O   0  0  0  0  0  0  0  0  0  0  0  0
  139.4070   75.6360  221.5580 N   0  0  0  0  0  0  0  0  0  0  0  0
  139.8270   76.3910  222.7060 C   0  0  0  0  0  0  0  0  0  0  0  0
  141.0580   77.1220  222.3150 C   0  0  2  0  0  0  0  0  0  0  0  0
  141.0280   78.5590  222.7350 C   0  0  0  0  0  0  0  0  0  0  0  0
  142.2200   79.2750  222.7620 C   0  0  0  0  0  0  0  0  0  0  0  0
  142.2370   80.6130  223.1490 C   0  0  0  0  0  0  0  0  0  0  0  0
  141.0590   81.2310  223.5110 C   0  0  0  0  0  0  0  0  0  0  0  0
  139.8780   80.5350  223.4890 C   0  0  0  0  0  0  0  0  0  0  0  0
  139.8660   79.2020  223.1020 C   0  0  0  0  0  0  0  0  0  0  0  0
  141.1280   76.9880  220.8230 C   0  0  0  0  0  0  0  0  0  0  0  0
  140.5070   75.6250  220.6170 C   0  0  1  0  0  0  0  0  0  0  0  0
  141.5220   74.5860  221.0230 C   0  0  0  0  0  0  0  0  0  0  0  0
  141.0500   73.7570  222.0660 O   0  0  0  0  0  0  0  0  0  0  0  0
  138.7200   70.7140  223.7430 C   0  0  0  0  0  0  0  0  0  0  0  0
  138.4260   69.3480  223.6990 C   0  0  0  0  0  0  0  0  0  0  0  0
  138.8810   68.5620  224.7370 C   0  0  0  0  0  0  0  0  0  0  0  0
  139.6020   69.0730  225.7940 C   0  0  0  0  0  0  0  0  0  0  0  0
  140.0680   68.3090  226.8430 C   0  0  0  0  0  0  0  0  0  0  0  0
  140.7870   68.8510  227.8850 C   0  0  0  0  0  0  0  0  0  0  0  0
  141.0350   70.2180  227.8520 C   0  0  0  0  0  0  0  0  0  0  0  0
  140.5820   71.0200  226.8120 C   0  0  0  0  0  0  0  0  0  0  0  0
  139.8660   70.4260  225.7910 C   0  0  0  0  0  0  0  0  0  0  0  0
  139.4150   71.2000  224.7650 N   0  0  0  0  0  0  0  0  0  0  0  0
  139.2320   73.3620  223.1650 H   0  0  0  0  0  0  0  0  0  0  0  0
  138.5711   73.2579  220.4250 H   0  0  0  0  0  0  0  0  0  0  0  0
  136.9620   73.3012  221.2639 H   0  0  0  0  0  0  0  0  0  0  0  0
  139.0412   77.1030  222.9986 H   0  0  0  0  0  0  0  0  0  0  0  0
  140.0179   75.7294  223.5638 H   0  0  0  0  0  0  0  0  0  0  0  0
  141.9453   76.7045  222.8134 H   0  0  0  0  0  0  0  0  0  0  0  0
  143.1591   78.7795  222.4747 H   0  0  0  0  0  0  0  0  0  0  0  0
  143.1838   81.1727  223.1657 H   0  0  0  0  0  0  0  0  0  0  0  0
  141.0667   82.2870  223.8188 H   0  0  0  0  0  0  0  0  0  0  0  0
  138.9405   81.0326  223.7779 H   0  0  0  0  0  0  0  0  0  0  0  0
  138.9143   78.6506  223.0881 H   0  0  0  0  0  0  0  0  0  0  0  0
  140.5467   77.7752  220.3205 H   0  0  0  0  0  0  0  0  0  0  0  0
  142.1425   77.0873  220.4095 H   0  0  0  0  0  0  0  0  0  0  0  0
  140.1906   75.4098  219.5857 H   0  0  0  0  0  0  0  0  0  0  0  0
  141.7553   73.9587  220.1500 H   0  0  0  0  0  0  0  0  0  0  0  0
  142.4161   75.1123  221.3885 H   0  0  0  0  0  0  0  0  0  0  0  0
  140.6740   72.9150  221.7230 H   0  0  0  0  0  0  0  0  0  0  0  0
  137.8522   68.9154  222.8662 H   0  0  0  0  0  0  0  0  0  0  0  0
  138.6595   67.4847  224.7203 H   0  0  0  0  0  0  0  0  0  0  0  0
  139.8582   67.2292  226.8477 H   0  0  0  0  0  0  0  0  0  0  0  0
  141.1515   68.2250  228.7128 H   0  0  0  0  0  0  0  0  0  0  0  0
  141.6059   70.6778  228.6722 H   0  0  0  0  0  0  0  0  0  0  0  0
  140.7882   72.1004  226.8019 H   0  0  0  0  0  0  0  0  0  0  0  0
  1  2  2  0
  2  3  1  0
  3  4  1  0
  4  5  1  0
  5  6  2  0
  5  7  1  0
  7  8  1  0
  8  9  1  0
  9 10  1  0
 10 11  2  0
 11 12  1  0
 12 13  2  0
 13 14  1  0
 14 15  2  0
  9 16  1  0
 16 17  1  0
 17 18  1  0
 18 19  1  0
  2 20  1  0
 20 21  2  0
 21 22  1  0
 22 23  2  0
 23 24  1  0
 24 25  2  0
 25 26  1  0
 26 27  2  0
 27 28  1  0
 28 29  2  0
 17  7  1  0
 29 20  1  0
 15 10  1  0
 28 23  1  0
  3 30  1  0
  4 31  1  0
  4 32  1  0
  8 33  1  0
  8 34  1  0
  9 35  1  1
 11 36  1  0
 12 37  1  0
 13 38  1  0
 14 39  1  0
 15 40  1  0
 16 41  1  0
 16 42  1  0
 17 43  1  6
 18 44  1  0
 18 45  1  0
 19 46  1  0
 21 47  1  0
 22 48  1  0
 24 49  1  0
 25 50  1  0
 26 51  1  0
 27 52  1  0
M  END
>  <smiles>  (50) 
O=C(NCC(=O)N1C[C@H](c2ccccc2)C[C@H]1CO)c1ccc2ccccc2n1

>  <score_type>  (50) 
oracle

>  <origin>  (50) 
autodockgpu

>  <m_score__min__energy>  (50) 
-9.0399999999999991

>  <m_primary>  (50) 
energy

>  <rmsd>  (50) 
2.5998338655854942

>  <m_score__min__rmsd>  (50) 
2.5998338655854942

>  <meeko>  (50) 
{"free_energy": -8.24, "intermolecular_energy": -10.32, "internal_energy": -2.18, "cluster_size": 31, "cluster_id": 1, "rank_in_cluster": 7}

>  <energy>  (50) 
-8.5

>  <cluster_rmsd>  (50) 
0.0

>  <cluster>  (50) 
3

$$$$
