
     RDKit          3D

 47 50  0  0  0  0  0  0  0  0999 V2000
  145.0220   73.7270  217.4050 C   0  0  0  0  0  0  0  0  0  0  0  0
  145.2740   72.8330  218.9260 S   0  0  0  0  0  0  0  0  0  0  0  0
  146.3940   73.4120  219.7390 O   0  0  0  0  0  0  0  0  0  0  0  0
  145.6110   71.4260  218.5500 O   0  0  0  0  0  0  0  0  0  0  0  0
  143.8240   72.8500  219.8690 C   0  0  0  0  0  0  0  0  0  0  0  0
  143.3240   71.6760  220.3850 C   0  0  0  0  0  0  0  0  0  0  0  0
  142.1570   71.6670  221.1490 C   0  0  0  0  0  0  0  0  0  0  0  0
  141.4580   72.8180  221.4180 C   0  0  0  0  0  0  0  0  0  0  0  0
  140.2300   72.8650  222.2110 C   0  0  0  0  0  0  0  0  0  0  0  0
  139.5280   71.8230  222.5580 C   0  0  0  0  0  0  0  0  0  0  0  0
  139.6460   70.9540  223.6870 C   0  0  0  0  0  0  0  0  0  0  0  0
  140.1750   71.5130  224.8280 N   0  0  0  0  0  0  0  0  0  0  0  0
  140.3690   70.8950  225.9690 C   0  0  0  0  0  0  0  0  0  0  0  0
  140.9030   71.5650  227.0280 C   0  0  0  0  0  0  0  0  0  0  0  0
  141.0860   70.8680  228.2060 C   0  0  0  0  0  0  0  0  0  0  0  0
  140.7540   69.5380  228.3540 C   0  0  0  0  0  0  0  0  0  0  0  0
  140.2170   68.9020  227.2530 C   0  0  0  0  0  0  0  0  0  0  0  0
  140.0270   69.5690  226.0770 C   0  0  0  0  0  0  0  0  0  0  0  0
  139.4970   68.9740  224.9670 C   0  0  0  0  0  0  0  0  0  0  0  0
  139.1810   67.7600  225.0560 O   0  0  0  0  0  0  0  0  0  0  0  0
  139.3140   69.6720  223.7880 N   0  0  0  0  0  0  0  0  0  0  0  0
  138.7540   68.8780  222.7550 C   0  0  0  0  0  0  0  0  0  0  0  0
  137.3800   68.5810  222.7980 C   0  0  0  0  0  0  0  0  0  0  0  0
  136.7980   67.7750  221.8380 C   0  0  0  0  0  0  0  0  0  0  0  0
  137.5940   67.2570  220.8220 C   0  0  0  0  0  0  0  0  0  0  0  0
  138.9460   67.5400  220.7650 C   0  0  0  0  0  0  0  0  0  0  0  0
  139.5490   68.3490  221.7230 C   0  0  0  0  0  0  0  0  0  0  0  0
  141.9900   73.9920  220.8800 C   0  0  0  0  0  0  0  0  0  0  0  0
  143.1340   74.0150  220.1300 C   0  0  0  0  0  0  0  0  0  0  0  0
  144.7300   74.7628  217.6326 H   0  0  0  0  0  0  0  0  0  0  0  0
  145.9547   73.7286  216.8218 H   0  0  0  0  0  0  0  0  0  0  0  0
  144.2258   73.2413  216.8218 H   0  0  0  0  0  0  0  0  0  0  0  0
  143.8526   70.7308  220.1920 H   0  0  0  0  0  0  0  0  0  0  0  0
  141.7862   70.7110  221.5472 H   0  0  0  0  0  0  0  0  0  0  0  0
  139.8725   73.8523  222.5387 H   0  0  0  0  0  0  0  0  0  0  0  0
  138.7094   71.5705  221.8680 H   0  0  0  0  0  0  0  0  0  0  0  0
  141.1794   72.6267  226.9475 H   0  0  0  0  0  0  0  0  0  0  0  0
  141.5172   71.3992  229.0673 H   0  0  0  0  0  0  0  0  0  0  0  0
  140.9099   69.0084  229.3054 H   0  0  0  0  0  0  0  0  0  0  0  0
  139.9376   67.8405  227.3242 H   0  0  0  0  0  0  0  0  0  0  0  0
  136.7602   68.9958  223.6066 H   0  0  0  0  0  0  0  0  0  0  0  0
  135.7226   67.5469  221.8769 H   0  0  0  0  0  0  0  0  0  0  0  0
  137.1416   66.6133  220.0532 H   0  0  0  0  0  0  0  0  0  0  0  0
  139.5539   67.1195  219.9504 H   0  0  0  0  0  0  0  0  0  0  0  0
  140.6254   68.5702  221.6740 H   0  0  0  0  0  0  0  0  0  0  0  0
  141.4657   74.9406  221.0677 H   0  0  0  0  0  0  0  0  0  0  0  0
  143.5064   74.9705  219.7320 H   0  0  0  0  0  0  0  0  0  0  0  0
  1  2  1  0
  2  3  2  0
  2  4  2  0
  2  5  1  0
  5  6  2  0
  6  7  1  0
  7  8  2  0
  8  9  1  0
  9 10  2  0
 10 11  1  0
 11 12  2  0
 12 13  1  0
 13 14  2  0
 14 15  1  0
 15 16  2  0
 16 17  1  0
 17 18  2  0
 18 19  1  0
 19 20  2  0
 19 21  1  0
 21 22  1  0
 22 23  2  0
 23 24  1  0
 24 25  2  0
 25 26  1  0
 26 27  2  0
  8 28  1  0
 28 29  2  0
 29  5  1  0
 21 11  1  0
 27 22  1  0
 18 13  1  0
  1 30  1  0
  1 31  1  0
  1 32  1  0
  6 33  1  0
  7 34  1  0
  9 35  1  0
 10 36  1  0
 14 37  1  0
 15 38  1  0
 16 39  1  0
 17 40  1  0
 23 41  1  0
 24 42  1  0
 25 43  1  0
 26 44  1  0
 27 45  1  0
 28 46  1  0
 29 47  1  0
M  END
>  <smiles>  (1) 
CS(=O)(=O)c1ccc(/C=C/c2nc3ccccc3c(=O)n2-c2ccccc2)cc1

>  <score_type>  (1) 
oracle

>  <origin>  (1) 
autodockgpu

>  <m_score__min__energy>  (1) 
-8.9199999999999999

>  <m_primary>  (1) 
energy

>  <rmsd>  (1) 
11.661840658613981

>  <m_score__min__rmsd>  (1) 
11.661840658613981

>  <meeko>  (1) 
{"free_energy": -8.71, "intermolecular_energy": -10.2, "internal_energy": -1.37, "cluster_size": 36, "cluster_id": 2, "rank_in_cluster": 16}

>  <energy>  (1) 
-8.92

>  <cluster_rmsd>  (1) 
0.0

>  <cluster>  (1) 
1

$$$$

     RDKit          3D

 47 50  0  0  0  0  0  0  0  0999 V2000
  132.9190   71.4610  226.9780 C   0  0  0  0  0  0  0  0  0  0  0  0
  133.2290   72.9130  225.9920 S   0  0  0  0  0  0  0  0  0  0  0  0
  133.5300   74.1140  226.8380 O   0  0  0  0  0  0  0  0  0  0  0  0
  131.9910   73.1670  225.1930 O   0  0  0  0  0  0  0  0  0  0  0  0
  134.5590   72.6280  224.9220 C   0  0  0  0  0  0  0  0  0  0  0  0
  135.0800   73.6630  224.1800 C   0  0  0  0  0  0  0  0  0  0  0  0
  136.1530   73.4550  223.3120 C   0  0  0  0  0  0  0  0  0  0  0  0
  136.7320   72.2210  223.1590 C   0  0  0  0  0  0  0  0  0  0  0  0
  137.8560   71.9480  222.2630 C   0  0  0  0  0  0  0  0  0  0  0  0
  138.8220   71.1100  222.5160 C   0  0  0  0  0  0  0  0  0  0  0  0
  139.1550   70.4060  223.7150 C   0  0  0  0  0  0  0  0  0  0  0  0
  139.7350   71.1530  224.7140 N   0  0  0  0  0  0  0  0  0  0  0  0
  140.1160   70.7070  225.8880 C   0  0  0  0  0  0  0  0  0  0  0  0
  140.6810   71.5550  226.7920 C   0  0  0  0  0  0  0  0  0  0  0  0
  141.0640   71.0330  228.0120 C   0  0  0  0  0  0  0  0  0  0  0  0
  140.9000   69.7060  228.3490 C   0  0  0  0  0  0  0  0  0  0  0  0
  140.3240   68.8870  227.3990 C   0  0  0  0  0  0  0  0  0  0  0  0
  139.9370   69.3780  226.1860 C   0  0  0  0  0  0  0  0  0  0  0  0
  139.3630   68.5980  225.2220 C   0  0  0  0  0  0  0  0  0  0  0  0
  139.1950   67.3810  225.4870 O   0  0  0  0  0  0  0  0  0  0  0  0
  138.9800   69.1210  224.0010 N   0  0  0  0  0  0  0  0  0  0  0  0
  138.4050   68.1520  223.1390 C   0  0  0  0  0  0  0  0  0  0  0  0
  137.0510   68.2780  222.7840 C   0  0  0  0  0  0  0  0  0  0  0  0
  136.4350   67.3350  221.9830 C   0  0  0  0  0  0  0  0  0  0  0  0
  137.1790   66.2510  221.5290 C   0  0  0  0  0  0  0  0  0  0  0  0
  138.5120   66.1110  221.8690 C   0  0  0  0  0  0  0  0  0  0  0  0
  139.1470   67.0510  222.6750 C   0  0  0  0  0  0  0  0  0  0  0  0
  136.1810   71.1910  223.9250 C   0  0  0  0  0  0  0  0  0  0  0  0
  135.1300   71.3810  224.7800 C   0  0  0  0  0  0  0  0  0  0  0  0
  132.9750   71.7234  228.0448 H   0  0  0  0  0  0  0  0  0  0  0  0
  131.9170   71.0693  226.7489 H   0  0  0  0  0  0  0  0  0  0  0  0
  133.6737   70.6942  226.7489 H   0  0  0  0  0  0  0  0  0  0  0  0
  134.6445   74.6689  224.2722 H   0  0  0  0  0  0  0  0  0  0  0  0
  136.5455   74.3048  222.7342 H   0  0  0  0  0  0  0  0  0  0  0  0
  137.8883   72.4894  221.3060 H   0  0  0  0  0  0  0  0  0  0  0  0
  139.4918   70.9117  221.6663 H   0  0  0  0  0  0  0  0  0  0  0  0
  140.8273   72.6199  226.5582 H   0  0  0  0  0  0  0  0  0  0  0  0
  141.5217   71.7081  228.7501 H   0  0  0  0  0  0  0  0  0  0  0  0
  141.2136   69.3182  229.3294 H   0  0  0  0  0  0  0  0  0  0  0  0
  140.1744   67.8206  227.6234 H   0  0  0  0  0  0  0  0  0  0  0  0
  136.4730   69.1398  223.1490 H   0  0  0  0  0  0  0  0  0  0  0  0
  135.3748   67.4399  221.7093 H   0  0  0  0  0  0  0  0  0  0  0  0
  136.7001   65.4942  220.8903 H   0  0  0  0  0  0  0  0  0  0  0  0
  139.0784   65.2444  221.4971 H   0  0  0  0  0  0  0  0  0  0  0  0
  140.2074   66.9353  222.9437 H   0  0  0  0  0  0  0  0  0  0  0  0
  136.6112   70.1825  223.8369 H   0  0  0  0  0  0  0  0  0  0  0  0
  134.7373   70.5321  225.3589 H   0  0  0  0  0  0  0  0  0  0  0  0
  1  2  1  0
  2  3  2  0
  2  4  2  0
  2  5  1  0
  5  6  2  0
  6  7  1  0
  7  8  2  0
  8  9  1  0
  9 10  2  0
 10 11  1  0
 11 12  2  0
 12 13  1  0
 13 14  2  0
 14 15  1  0
 15 16  2  0
 16 17  1  0
 17 18  2  0
 18 19  1  0
 19 20  2  0
 19 21  1  0
 21 22  1  0
 22 23  2  0
 23 24  1  0
 24 25  2  0
 25 26  1  0
 26 27  2  0
  8 28  1  0
 28 29  2  0
 29  5  1  0
 21 11  1  0
 27 22  1  0
 18 13  1  0
  1 30  1  0
  1 31  1  0
  1 32  1  0
  6 33  1  0
  7 34  1  0
  9 35  1  0
 10 36  1  0
 14 37  1  0
 15 38  1  0
 16 39  1  0
 17 40  1  0
 23 41  1  0
 24 42  1  0
 25 43  1  0
 26 44  1  0
 27 45  1  0
 28 46  1  0
 29 47  1  0
M  END
>  <smiles>  (2) 
CS(=O)(=O)c1ccc(/C=C/c2nc3ccccc3c(=O)n2-c2ccccc2)cc1

>  <score_type>  (2) 
oracle

>  <origin>  (2) 
autodockgpu

>  <m_score__min__energy>  (2) 
-8.9199999999999999

>  <m_primary>  (2) 
energy

>  <rmsd>  (2) 
12.020938188120128

>  <m_score__min__rmsd>  (2) 
12.020938188120128

>  <meeko>  (2) 
{"free_energy": -8.25, "intermolecular_energy": -9.74, "internal_energy": -1.62, "cluster_size": 11, "cluster_id": 3, "rank_in_cluster": 11}

>  <energy>  (2) 
-8.9

>  <cluster_rmsd>  (2) 
0.08

>  <cluster>  (2) 
1

$$$$

     RDKit          3D

 47 50  0  0  0  0  0  0  0  0999 V2000
  146.6890   73.4860  221.1750 C   0  0  0  0  0  0  0  0  0  0  0  0
  145.6870   72.6660  219.9500 S   0  0  0  0  0  0  0  0  0  0  0  0
  146.1420   71.2580  219.7020 O   0  0  0  0  0  0  0  0  0  0  0  0
  145.8120   73.4560  218.6870 O   0  0  0  0  0  0  0  0  0  0  0  0
  144.0320   72.6430  220.4570 C   0  0  0  0  0  0  0  0  0  0  0  0
  143.3200   73.8180  220.5350 C   0  0  0  0  0  0  0  0  0  0  0  0
  141.9850   73.8210  220.9410 C   0  0  0  0  0  0  0  0  0  0  0  0
  141.3270   72.6650  221.2790 C   0  0  0  0  0  0  0  0  0  0  0  0
  139.9300   72.6120  221.7110 C   0  0  0  0  0  0  0  0  0  0  0  0
  139.3390   71.5540  222.1890 C   0  0  0  0  0  0  0  0  0  0  0  0
  139.4870   70.8930  223.4480 C   0  0  0  0  0  0  0  0  0  0  0  0
  140.1420   71.6000  224.4300 N   0  0  0  0  0  0  0  0  0  0  0  0
  140.3830   71.1820  225.6500 C   0  0  0  0  0  0  0  0  0  0  0  0
  141.0440   71.9840  226.5300 C   0  0  0  0  0  0  0  0  0  0  0  0
  141.2730   71.4940  227.8010 C   0  0  0  0  0  0  0  0  0  0  0  0
  140.8640   70.2430  228.2120 C   0  0  0  0  0  0  0  0  0  0  0  0
  140.1990   69.4680  227.2840 C   0  0  0  0  0  0  0  0  0  0  0  0
  139.9610   69.9290  226.0210 C   0  0  0  0  0  0  0  0  0  0  0  0
  139.3060   69.1910  225.0760 C   0  0  0  0  0  0  0  0  0  0  0  0
  138.9150   68.0420  225.4070 O   0  0  0  0  0  0  0  0  0  0  0  0
  139.0770   69.6810  223.8040 N   0  0  0  0  0  0  0  0  0  0  0  0
  138.3840   68.7640  222.9730 C   0  0  0  0  0  0  0  0  0  0  0  0
  136.9870   68.8800  222.8530 C   0  0  0  0  0  0  0  0  0  0  0  0
  136.2630   67.9840  222.0910 C   0  0  0  0  0  0  0  0  0  0  0  0
  136.9370   66.9570  221.4390 C   0  0  0  0  0  0  0  0  0  0  0  0
  138.3100   66.8290  221.5450 C   0  0  0  0  0  0  0  0  0  0  0  0
  139.0550   67.7230  222.3090 C   0  0  0  0  0  0  0  0  0  0  0  0
  142.0770   71.4900  221.1900 C   0  0  0  0  0  0  0  0  0  0  0  0
  143.3860   71.4720  220.7930 C   0  0  0  0  0  0  0  0  0  0  0  0
  146.3435   73.2033  222.1803 H   0  0  0  0  0  0  0  0  0  0  0  0
  147.7397   73.1853  221.0503 H   0  0  0  0  0  0  0  0  0  0  0  0
  146.6021   74.5755  221.0503 H   0  0  0  0  0  0  0  0  0  0  0  0
  143.8099   74.7676  220.2738 H   0  0  0  0  0  0  0  0  0  0  0  0
  141.4443   74.7776  220.9916 H   0  0  0  0  0  0  0  0  0  0  0  0
  139.3350   73.5333  221.6259 H   0  0  0  0  0  0  0  0  0  0  0  0
  138.6047   71.0930  221.5120 H   0  0  0  0  0  0  0  0  0  0  0  0
  141.3842   72.9886  226.2384 H   0  0  0  0  0  0  0  0  0  0  0  0
  141.8073   72.1325  228.5199 H   0  0  0  0  0  0  0  0  0  0  0  0
  141.0587   69.8798  229.2319 H   0  0  0  0  0  0  0  0  0  0  0  0
  139.8549   68.4621  227.5664 H   0  0  0  0  0  0  0  0  0  0  0  0
  136.4640   69.6958  223.3734 H   0  0  0  0  0  0  0  0  0  0  0  0
  135.1710   68.0811  222.0013 H   0  0  0  0  0  0  0  0  0  0  0  0
  136.3703   66.2367  220.8307 H   0  0  0  0  0  0  0  0  0  0  0  0
  138.8205   66.0093  221.0182 H   0  0  0  0  0  0  0  0  0  0  0  0
  140.1467   67.6167  222.3913 H   0  0  0  0  0  0  0  0  0  0  0  0
  141.5936   70.5369  221.4507 H   0  0  0  0  0  0  0  0  0  0  0  0
  143.9275   70.5159  220.7414 H   0  0  0  0  0  0  0  0  0  0  0  0
  1  2  1  0
  2  3  2  0
  2  4  2  0
  2  5  1  0
  5  6  2  0
  6  7  1  0
  7  8  2  0
  8  9  1  0
  9 10  2  0
 10 11  1  0
 11 12  2  0
 12 13  1  0
 13 14  2  0
 14 15  1  0
 15 16  2  0
 16 17  1  0
 17 18  2  0
 18 19  1  0
 19 20  2  0
 19 21  1  0
 21 22  1  0
 22 23  2  0
 23 24  1  0
 24 25  2  0
 25 26  1  0
 26 27  2  0
  8 28  1  0
 28 29  2  0
 29  5  1  0
 21 11  1  0
 27 22  1  0
 18 13  1  0
  1 30  1  0
  1 31  1  0
  1 32  1  0
  6 33  1  0
  7 34  1  0
  9 35  1  0
 10 36  1  0
 14 37  1  0
 15 38  1  0
 16 39  1  0
 17 40  1  0
 23 41  1  0
 24 42  1  0
 25 43  1  0
 26 44  1  0
 27 45  1  0
 28 46  1  0
 29 47  1  0
M  END
>  <smiles>  (3) 
CS(=O)(=O)c1ccc(/C=C/c2nc3ccccc3c(=O)n2-c2ccccc2)cc1

>  <score_type>  (3) 
oracle

>  <origin>  (3) 
autodockgpu

>  <m_score__min__energy>  (3) 
-8.9199999999999999

>  <m_primary>  (3) 
energy

>  <rmsd>  (3) 
11.5070439085622

>  <m_score__min__rmsd>  (3) 
11.5070439085622

>  <meeko>  (3) 
{"free_energy": -8.83, "intermolecular_energy": -10.32, "internal_energy": -1.41, "cluster_size": 36, "cluster_id": 2, "rank_in_cluster": 8}

>  <energy>  (3) 
-8.85

>  <cluster_rmsd>  (3) 
0.19

>  <cluster>  (3) 
1

$$$$

     RDKit          3D

 47 50  0  0  0  0  0  0  0  0999 V2000
  139.9420   68.8080  228.3650 C   0  0  0  0  0  0  0  0  0  0  0  0
  140.0990   68.0790  226.7460 S   0  0  0  0  0  0  0  0  0  0  0  0
  139.0170   67.0760  226.4730 O   0  0  0  0  0  0  0  0  0  0  0  0
  141.4280   67.3970  226.7050 O   0  0  0  0  0  0  0  0  0  0  0  0
  140.0430   69.3130  225.5330 C   0  0  0  0  0  0  0  0  0  0  0  0
  139.2940   69.1260  224.3940 C   0  0  0  0  0  0  0  0  0  0  0  0
  139.2350   70.1080  223.4050 C   0  0  0  0  0  0  0  0  0  0  0  0
  139.9160   71.2950  223.5210 C   0  0  0  0  0  0  0  0  0  0  0  0
  139.8900   72.3560  222.5150 C   0  0  0  0  0  0  0  0  0  0  0  0
  140.9460   72.8810  221.9600 C   0  0  0  0  0  0  0  0  0  0  0  0
  141.2090   74.2220  221.5400 C   0  0  0  0  0  0  0  0  0  0  0  0
  140.3200   75.1770  221.9770 N   0  0  0  0  0  0  0  0  0  0  0  0
  140.3760   76.4610  221.7090 C   0  0  0  0  0  0  0  0  0  0  0  0
  139.4290   77.3050  222.2050 C   0  0  0  0  0  0  0  0  0  0  0  0
  139.5350   78.6470  221.8910 C   0  0  0  0  0  0  0  0  0  0  0  0
  140.5460   79.1600  221.1080 C   0  0  0  0  0  0  0  0  0  0  0  0
  141.4800   78.2650  220.6290 C   0  0  0  0  0  0  0  0  0  0  0  0
  141.3980   76.9350  220.9230 C   0  0  0  0  0  0  0  0  0  0  0  0
  142.3050   76.0190  220.4670 C   0  0  0  0  0  0  0  0  0  0  0  0
  143.2440   76.4440  219.7480 O   0  0  0  0  0  0  0  0  0  0  0  0
  142.1990   74.6770  220.7810 N   0  0  0  0  0  0  0  0  0  0  0  0
  143.2340   73.8920  220.2120 C   0  0  0  0  0  0  0  0  0  0  0  0
  144.4850   73.8530  220.8530 C   0  0  0  0  0  0  0  0  0  0  0  0
  145.5370   73.1380  220.3140 C   0  0  0  0  0  0  0  0  0  0  0  0
  145.3420   72.4520  219.1200 C   0  0  0  0  0  0  0  0  0  0  0  0
  144.1190   72.4800  218.4770 C   0  0  0  0  0  0  0  0  0  0  0  0
  143.0480   73.1950  219.0060 C   0  0  0  0  0  0  0  0  0  0  0  0
  140.6670   71.4540  224.6870 C   0  0  0  0  0  0  0  0  0  0  0  0
  140.7340   70.4990  225.6650 C   0  0  0  0  0  0  0  0  0  0  0  0
  140.1080   68.0371  229.1319 H   0  0  0  0  0  0  0  0  0  0  0  0
  140.6886   69.6075  228.4811 H   0  0  0  0  0  0  0  0  0  0  0  0
  138.9325   69.2293  228.4811 H   0  0  0  0  0  0  0  0  0  0  0  0
  138.7337   68.1887  224.2614 H   0  0  0  0  0  0  0  0  0  0  0  0
  138.6260   69.9266  222.5071 H   0  0  0  0  0  0  0  0  0  0  0  0
  138.9070   72.7392  222.2038 H   0  0  0  0  0  0  0  0  0  0  0  0
  141.7717   72.1753  221.7859 H   0  0  0  0  0  0  0  0  0  0  0  0
  138.6077   76.9314  222.8341 H   0  0  0  0  0  0  0  0  0  0  0  0
  138.7758   79.3385  222.2852 H   0  0  0  0  0  0  0  0  0  0  0  0
  140.6056   80.2335  220.8756 H   0  0  0  0  0  0  0  0  0  0  0  0
  142.3049   78.6296  219.9993 H   0  0  0  0  0  0  0  0  0  0  0  0
  144.6279   74.3995  221.7969 H   0  0  0  0  0  0  0  0  0  0  0  0
  146.5129   73.1117  220.8209 H   0  0  0  0  0  0  0  0  0  0  0  0
  146.1725   71.8793  218.6814 H   0  0  0  0  0  0  0  0  0  0  0  0
  143.9899   71.9293  217.5335 H   0  0  0  0  0  0  0  0  0  0  0  0
  142.0764   73.2140  218.4907 H   0  0  0  0  0  0  0  0  0  0  0  0
  141.2301   72.3887  224.8259 H   0  0  0  0  0  0  0  0  0  0  0  0
  141.3435   70.6788  226.5629 H   0  0  0  0  0  0  0  0  0  0  0  0
  1  2  1  0
  2  3  2  0
  2  4  2  0
  2  5  1  0
  5  6  2  0
  6  7  1  0
  7  8  2  0
  8  9  1  0
  9 10  2  0
 10 11  1  0
 11 12  2  0
 12 13  1  0
 13 14  2  0
 14 15  1  0
 15 16  2  0
 16 17  1  0
 17 18  2  0
 18 19  1  0
 19 20  2  0
 19 21  1  0
 21 22  1  0
 22 23  2  0
 23 24  1  0
 24 25  2  0
 25 26  1  0
 26 27  2  0
  8 28  1  0
 28 29  2  0
 29  5  1  0
 21 11  1  0
 27 22  1  0
 18 13  1  0
  1 30  1  0
  1 31  1  0
  1 32  1  0
  6 33  1  0
  7 34  1  0
  9 35  1  0
 10 36  1  0
 14 37  1  0
 15 38  1  0
 16 39  1  0
 17 40  1  0
 23 41  1  0
 24 42  1  0
 25 43  1  0
 26 44  1  0
 27 45  1  0
 28 46  1  0
 29 47  1  0
M  END
>  <smiles>  (4) 
CS(=O)(=O)c1ccc(/C=C/c2nc3ccccc3c(=O)n2-c2ccccc2)cc1

>  <score_type>  (4) 
oracle

>  <origin>  (4) 
autodockgpu

>  <m_score__min__energy>  (4) 
-8.9199999999999999

>  <m_primary>  (4) 
energy

>  <rmsd>  (4) 
5.050782034807682

>  <m_score__min__rmsd>  (4) 
5.050782034807682

>  <meeko>  (4) 
{"free_energy": -8.9, "intermolecular_energy": -10.39, "internal_energy": -1.18, "cluster_size": 3, "cluster_id": 1, "rank_in_cluster": 2}

>  <energy>  (4) 
-8.9

>  <cluster_rmsd>  (4) 
0.0

>  <cluster>  (4) 
2

$$$$

     RDKit          3D

 47 50  0  0  0  0  0  0  0  0999 V2000
  146.4940   73.3750  221.3380 C   0  0  0  0  0  0  0  0  0  0  0  0
  145.7190   72.5170  219.9820 S   0  0  0  0  0  0  0  0  0  0  0  0
  146.3580   71.1850  219.7200 O   0  0  0  0  0  0  0  0  0  0  0  0
  145.8740   73.3860  218.7750 O   0  0  0  0  0  0  0  0  0  0  0  0
  144.0370   72.2820  220.3130 C   0  0  0  0  0  0  0  0  0  0  0  0
  143.4670   71.0410  220.1380 C   0  0  0  0  0  0  0  0  0  0  0  0
  142.1130   70.8300  220.4000 C   0  0  0  0  0  0  0  0  0  0  0  0
  141.2940   71.8400  220.8400 C   0  0  0  0  0  0  0  0  0  0  0  0
  139.8700   71.6740  221.1290 C   0  0  0  0  0  0  0  0  0  0  0  0
  139.3360   71.7600  222.3150 C   0  0  0  0  0  0  0  0  0  0  0  0
  139.5130   70.9450  223.4770 C   0  0  0  0  0  0  0  0  0  0  0  0
  140.0490   71.5710  224.5780 N   0  0  0  0  0  0  0  0  0  0  0  0
  140.2930   71.0110  225.7400 C   0  0  0  0  0  0  0  0  0  0  0  0
  140.8280   71.7450  226.7550 C   0  0  0  0  0  0  0  0  0  0  0  0
  141.0650   71.1060  227.9560 C   0  0  0  0  0  0  0  0  0  0  0  0
  140.7840   69.7730  228.1690 C   0  0  0  0  0  0  0  0  0  0  0  0
  140.2430   69.0720  227.1110 C   0  0  0  0  0  0  0  0  0  0  0  0
  140.0000   69.6800  225.9140 C   0  0  0  0  0  0  0  0  0  0  0  0
  139.4650   69.0190  224.8440 C   0  0  0  0  0  0  0  0  0  0  0  0
  139.1940   67.8000  224.9940 O   0  0  0  0  0  0  0  0  0  0  0  0
  139.2280   69.6590  223.6420 N   0  0  0  0  0  0  0  0  0  0  0  0
  138.6710   68.8020  222.6590 C   0  0  0  0  0  0  0  0  0  0  0  0
  139.4970   68.3320  221.6210 C   0  0  0  0  0  0  0  0  0  0  0  0
  138.9900   67.5320  220.6160 C   0  0  0  0  0  0  0  0  0  0  0  0
  137.6410   67.1920  220.6430 C   0  0  0  0  0  0  0  0  0  0  0  0
  136.8150   67.6440  221.6560 C   0  0  0  0  0  0  0  0  0  0  0  0
  137.3100   68.4520  222.6760 C   0  0  0  0  0  0  0  0  0  0  0  0
  141.9020   73.0860  221.0080 C   0  0  0  0  0  0  0  0  0  0  0  0
  143.2280   73.3070  220.7550 C   0  0  0  0  0  0  0  0  0  0  0  0
  146.1245   72.9659  222.2899 H   0  0  0  0  0  0  0  0  0  0  0  0
  147.5845   73.2423  221.2806 H   0  0  0  0  0  0  0  0  0  0  0  0
  146.2515   74.4464  221.2806 H   0  0  0  0  0  0  0  0  0  0  0  0
  144.0880   70.2039  219.7866 H   0  0  0  0  0  0  0  0  0  0  0  0
  141.6897   69.8259  220.2497 H   0  0  0  0  0  0  0  0  0  0  0  0
  139.2000   71.4608  220.2830 H   0  0  0  0  0  0  0  0  0  0  0  0
  138.6338   72.5969  222.4433 H   0  0  0  0  0  0  0  0  0  0  0  0
  141.0634   72.8113  226.6224 H   0  0  0  0  0  0  0  0  0  0  0  0
  141.4987   71.6883  228.7823 H   0  0  0  0  0  0  0  0  0  0  0  0
  140.9820   69.2908  229.1377 H   0  0  0  0  0  0  0  0  0  0  0  0
  140.0037   68.0055  227.2345 H   0  0  0  0  0  0  0  0  0  0  0  0
  140.5623   68.6059  221.6101 H   0  0  0  0  0  0  0  0  0  0  0  0
  139.6418   67.1695  219.8075 H   0  0  0  0  0  0  0  0  0  0  0  0
  137.2259   66.5551  219.8479 H   0  0  0  0  0  0  0  0  0  0  0  0
  135.7520   67.3611  221.6558 H   0  0  0  0  0  0  0  0  0  0  0  0
  136.6489   68.8094  223.4793 H   0  0  0  0  0  0  0  0  0  0  0  0
  141.2869   73.9275  221.3596 H   0  0  0  0  0  0  0  0  0  0  0  0
  143.6522   74.3107  220.9055 H   0  0  0  0  0  0  0  0  0  0  0  0
  1  2  1  0
  2  3  2  0
  2  4  2  0
  2  5  1  0
  5  6  2  0
  6  7  1  0
  7  8  2  0
  8  9  1  0
  9 10  2  0
 10 11  1  0
 11 12  2  0
 12 13  1  0
 13 14  2  0
 14 15  1  0
 15 16  2  0
 16 17  1  0
 17 18  2  0
 18 19  1  0
 19 20  2  0
 19 21  1  0
 21 22  1  0
 22 23  2  0
 23 24  1  0
 24 25  2  0
 25 26  1  0
 26 27  2  0
  8 28  1  0
 28 29  2  0
 29  5  1  0
 21 11  1  0
 27 22  1  0
 18 13  1  0
  1 30  1  0
  1 31  1  0
  1 32  1  0
  6 33  1  0
  7 34  1  0
  9 35  1  0
 10 36  1  0
 14 37  1  0
 15 38  1  0
 16 39  1  0
 17 40  1  0
 23 41  1  0
 24 42  1  0
 25 43  1  0
 26 44  1  0
 27 45  1  0
 28 46  1  0
 29 47  1  0
M  END
>  <smiles>  (5) 
CS(=O)(=O)c1ccc(/C=C/c2nc3ccccc3c(=O)n2-c2ccccc2)cc1

>  <score_type>  (5) 
oracle

>  <origin>  (5) 
autodockgpu

>  <m_score__min__energy>  (5) 
-8.9199999999999999

>  <m_primary>  (5) 
energy

>  <rmsd>  (5) 
11.420534547582179

>  <m_score__min__rmsd>  (5) 
11.420534547582179

>  <meeko>  (5) 
{"free_energy": -8.79, "intermolecular_energy": -10.28, "internal_energy": -1.54, "cluster_size": 36, "cluster_id": 2, "rank_in_cluster": 9}

>  <energy>  (5) 
-8.88

>  <cluster_rmsd>  (5) 
0.15

>  <cluster>  (5) 
2

$$$$

     RDKit          3D

 47 50  0  0  0  0  0  0  0  0999 V2000
  146.7060   73.7600  220.8830 C   0  0  0  0  0  0  0  0  0  0  0  0
  145.7120   72.7540  219.7980 S   0  0  0  0  0  0  0  0  0  0  0  0
  146.2230   71.3460  219.7110 O   0  0  0  0  0  0  0  0  0  0  0  0
  145.7720   73.3870  218.4450 O   0  0  0  0  0  0  0  0  0  0  0  0
  144.0730   72.7270  220.3530 C   0  0  0  0  0  0  0  0  0  0  0  0
  143.3710   73.9030  220.4840 C   0  0  0  0  0  0  0  0  0  0  0  0
  142.0480   73.9030  220.9280 C   0  0  0  0  0  0  0  0  0  0  0  0
  141.3930   72.7410  221.2530 C   0  0  0  0  0  0  0  0  0  0  0  0
  140.0090   72.6850  221.7240 C   0  0  0  0  0  0  0  0  0  0  0  0
  139.4110   71.6070  222.1480 C   0  0  0  0  0  0  0  0  0  0  0  0
  139.5820   70.8620  223.3570 C   0  0  0  0  0  0  0  0  0  0  0  0
  140.1130   71.5500  224.4220 N   0  0  0  0  0  0  0  0  0  0  0  0
  140.3510   71.0590  225.6160 C   0  0  0  0  0  0  0  0  0  0  0  0
  140.8820   71.8500  226.5880 C   0  0  0  0  0  0  0  0  0  0  0  0
  141.1130   71.2820  227.8260 C   0  0  0  0  0  0  0  0  0  0  0  0
  140.8300   69.9630  228.1150 C   0  0  0  0  0  0  0  0  0  0  0  0
  140.2930   69.2030  227.0970 C   0  0  0  0  0  0  0  0  0  0  0  0
  140.0560   69.7400  225.8650 C   0  0  0  0  0  0  0  0  0  0  0  0
  139.5260   69.0180  224.8330 C   0  0  0  0  0  0  0  0  0  0  0  0
  139.2530   67.8100  225.0520 O   0  0  0  0  0  0  0  0  0  0  0  0
  139.2950   69.5870  223.5940 N   0  0  0  0  0  0  0  0  0  0  0  0
  138.7420   68.6750  222.6600 C   0  0  0  0  0  0  0  0  0  0  0  0
  139.5480   68.2140  221.6030 C   0  0  0  0  0  0  0  0  0  0  0  0
  139.0410   67.3600  220.6430 C   0  0  0  0  0  0  0  0  0  0  0  0
  137.7130   66.9570  220.7360 C   0  0  0  0  0  0  0  0  0  0  0  0
  136.9070   67.3990  221.7690 C   0  0  0  0  0  0  0  0  0  0  0  0
  137.4010   68.2610  222.7440 C   0  0  0  0  0  0  0  0  0  0  0  0
  142.1330   71.5650  221.1100 C   0  0  0  0  0  0  0  0  0  0  0  0
  143.4300   71.5510  220.6750 C   0  0  0  0  0  0  0  0  0  0  0  0
  146.4668   73.5179  221.9290 H   0  0  0  0  0  0  0  0  0  0  0  0
  147.7712   73.5602  220.6948 H   0  0  0  0  0  0  0  0  0  0  0  0
  146.4934   74.8227  220.6948 H   0  0  0  0  0  0  0  0  0  0  0  0
  143.8595   74.8567  220.2352 H   0  0  0  0  0  0  0  0  0  0  0  0
  141.5150   74.8608  221.0201 H   0  0  0  0  0  0  0  0  0  0  0  0
  139.4308   73.6208  221.7201 H   0  0  0  0  0  0  0  0  0  0  0  0
  138.6499   71.2042  221.4636 H   0  0  0  0  0  0  0  0  0  0  0  0
  141.1194   72.9065  226.3943 H   0  0  0  0  0  0  0  0  0  0  0  0
  141.5431   71.9114  228.6191 H   0  0  0  0  0  0  0  0  0  0  0  0
  141.0236   69.5374  229.1107 H   0  0  0  0  0  0  0  0  0  0  0  0
  140.0516   68.1458  227.2813 H   0  0  0  0  0  0  0  0  0  0  0  0
  140.5972   68.5384  221.5402 H   0  0  0  0  0  0  0  0  0  0  0  0
  139.6768   67.0046  219.8188 H   0  0  0  0  0  0  0  0  0  0  0  0
  137.2981   66.2772  219.9772 H   0  0  0  0  0  0  0  0  0  0  0  0
  135.8603   67.0646  221.8210 H   0  0  0  0  0  0  0  0  0  0  0  0
  136.7556   68.6110  223.5632 H   0  0  0  0  0  0  0  0  0  0  0  0
  141.6515   70.6076  221.3582 H   0  0  0  0  0  0  0  0  0  0  0  0
  143.9639   70.5938  220.5815 H   0  0  0  0  0  0  0  0  0  0  0  0
  1  2  1  0
  2  3  2  0
  2  4  2  0
  2  5  1  0
  5  6  2  0
  6  7  1  0
  7  8  2  0
  8  9  1  0
  9 10  2  0
 10 11  1  0
 11 12  2  0
 12 13  1  0
 13 14  2  0
 14 15  1  0
 15 16  2  0
 16 17  1  0
 17 18  2  0
 18 19  1  0
 19 20  2  0
 19 21  1  0
 21 22  1  0
 22 23  2  0
 23 24  1  0
 24 25  2  0
 25 26  1  0
 26 27  2  0
  8 28  1  0
 28 29  2  0
 29  5  1  0
 21 11  1  0
 27 22  1  0
 18 13  1  0
  1 30  1  0
  1 31  1  0
  1 32  1  0
  6 33  1  0
  7 34  1  0
  9 35  1  0
 10 36  1  0
 14 37  1  0
 15 38  1  0
 16 39  1  0
 17 40  1  0
 23 41  1  0
 24 42  1  0
 25 43  1  0
 26 44  1  0
 27 45  1  0
 28 46  1  0
 29 47  1  0
M  END
>  <smiles>  (6) 
CS(=O)(=O)c1ccc(/C=C/c2nc3ccccc3c(=O)n2-c2ccccc2)cc1

>  <score_type>  (6) 
oracle

>  <origin>  (6) 
autodockgpu

>  <m_score__min__energy>  (6) 
-8.9199999999999999

>  <m_primary>  (6) 
energy

>  <rmsd>  (6) 
11.408990490078878

>  <m_score__min__rmsd>  (6) 
11.408990490078878

>  <meeko>  (6) 
{"free_energy": -8.86, "intermolecular_energy": -10.35, "internal_energy": -1.43, "cluster_size": 36, "cluster_id": 2, "rank_in_cluster": 5}

>  <energy>  (6) 
-8.88

>  <cluster_rmsd>  (6) 
0.09

>  <cluster>  (6) 
2

$$$$

     RDKit          3D

 47 50  0  0  0  0  0  0  0  0999 V2000
  146.3560   73.7800  220.9900 C   0  0  0  0  0  0  0  0  0  0  0  0
  145.3150   72.9260  219.8230 S   0  0  0  0  0  0  0  0  0  0  0  0
  145.8070   71.5370  219.5410 O   0  0  0  0  0  0  0  0  0  0  0  0
  145.3360   73.7240  218.5590 O   0  0  0  0  0  0  0  0  0  0  0  0
  143.6960   72.8400  220.4260 C   0  0  0  0  0  0  0  0  0  0  0  0
  143.2110   71.6550  220.9310 C   0  0  0  0  0  0  0  0  0  0  0  0
  141.9090   71.5640  221.4230 C   0  0  0  0  0  0  0  0  0  0  0  0
  141.0580   72.6410  221.4270 C   0  0  0  0  0  0  0  0  0  0  0  0
  139.6850   72.6010  221.9290 C   0  0  0  0  0  0  0  0  0  0  0  0
  139.1060   71.5440  222.4270 C   0  0  0  0  0  0  0  0  0  0  0  0
  139.3150   70.8650  223.6670 C   0  0  0  0  0  0  0  0  0  0  0  0
  140.0210   71.5560  224.6240 N   0  0  0  0  0  0  0  0  0  0  0  0
  140.3230   71.1200  225.8240 C   0  0  0  0  0  0  0  0  0  0  0  0
  141.0310   71.9070  226.6810 C   0  0  0  0  0  0  0  0  0  0  0  0
  141.3220   71.3980  227.9320 C   0  0  0  0  0  0  0  0  0  0  0  0
  140.9290   70.1430  228.3450 C   0  0  0  0  0  0  0  0  0  0  0  0
  140.2140   69.3830  227.4410 C   0  0  0  0  0  0  0  0  0  0  0  0
  139.9150   69.8630  226.1990 C   0  0  0  0  0  0  0  0  0  0  0  0
  139.2090   69.1410  225.2780 C   0  0  0  0  0  0  0  0  0  0  0  0
  138.8300   67.9890  225.6130 O   0  0  0  0  0  0  0  0  0  0  0  0
  138.9180   69.6500  224.0270 N   0  0  0  0  0  0  0  0  0  0  0  0
  138.1800   68.7470  223.2190 C   0  0  0  0  0  0  0  0  0  0  0  0
  138.8540   67.6730  222.6120 C   0  0  0  0  0  0  0  0  0  0  0  0
  138.1860   66.7930  221.7820 C   0  0  0  0  0  0  0  0  0  0  0  0
  136.8280   66.9860  221.5520 C   0  0  0  0  0  0  0  0  0  0  0  0
  136.1490   68.0370  222.1410 C   0  0  0  0  0  0  0  0  0  0  0  0
  136.8070   68.9320  222.9800 C   0  0  0  0  0  0  0  0  0  0  0  0
  141.5790   73.8290  220.9080 C   0  0  0  0  0  0  0  0  0  0  0  0
  142.8540   73.9320  220.4220 C   0  0  0  0  0  0  0  0  0  0  0  0
  146.0451   73.5249  222.0139 H   0  0  0  0  0  0  0  0  0  0  0  0
  147.4024   73.4768  220.8383 H   0  0  0  0  0  0  0  0  0  0  0  0
  146.2631   74.8655  220.8383 H   0  0  0  0  0  0  0  0  0  0  0  0
  143.8597   70.7667  220.9468 H   0  0  0  0  0  0  0  0  0  0  0  0
  141.5539   70.6013  221.8193 H   0  0  0  0  0  0  0  0  0  0  0  0
  139.0980   73.5301  221.8832 H   0  0  0  0  0  0  0  0  0  0  0  0
  138.3282   71.1020  221.7869 H   0  0  0  0  0  0  0  0  0  0  0  0
  141.3602   72.9145  226.3868 H   0  0  0  0  0  0  0  0  0  0  0  0
  141.8947   72.0242  228.6319 H   0  0  0  0  0  0  0  0  0  0  0  0
  141.1737   69.7645  229.3484 H   0  0  0  0  0  0  0  0  0  0  0  0
  139.8800   68.3745  227.7264 H   0  0  0  0  0  0  0  0  0  0  0  0
  139.9284   67.5311  222.8004 H   0  0  0  0  0  0  0  0  0  0  0  0
  138.7193   65.9540  221.3112 H   0  0  0  0  0  0  0  0  0  0  0  0
  136.2861   66.2926  220.8920 H   0  0  0  0  0  0  0  0  0  0  0  0
  135.0747   68.1675  221.9439 H   0  0  0  0  0  0  0  0  0  0  0  0
  136.2637   69.7670  223.4465 H   0  0  0  0  0  0  0  0  0  0  0  0
  140.9357   74.7211  220.8893 H   0  0  0  0  0  0  0  0  0  0  0  0
  143.2102   74.8939  220.0248 H   0  0  0  0  0  0  0  0  0  0  0  0
  1  2  1  0
  2  3  2  0
  2  4  2  0
  2  5  1  0
  5  6  2  0
  6  7  1  0
  7  8  2  0
  8  9  1  0
  9 10  2  0
 10 11  1  0
 11 12  2  0
 12 13  1  0
 13 14  2  0
 14 15  1  0
 15 16  2  0
 16 17  1  0
 17 18  2  0
 18 19  1  0
 19 20  2  0
 19 21  1  0
 21 22  1  0
 22 23  2  0
 23 24  1  0
 24 25  2  0
 25 26  1  0
 26 27  2  0
  8 28  1  0
 28 29  2  0
 29  5  1  0
 21 11  1  0
 27 22  1  0
 18 13  1  0
  1 30  1  0
  1 31  1  0
  1 32  1  0
  6 33  1  0
  7 34  1  0
  9 35  1  0
 10 36  1  0
 14 37  1  0
 15 38  1  0
 16 39  1  0
 17 40  1  0
 23 41  1  0
 24 42  1  0
 25 43  1  0
 26 44  1  0
 27 45  1  0
 28 46  1  0
 29 47  1  0
M  END
>  <smiles>  (7) 
CS(=O)(=O)c1ccc(/C=C/c2nc3ccccc3c(=O)n2-c2ccccc2)cc1

>  <score_type>  (7) 
oracle

>  <origin>  (7) 
autodockgpu

>  <m_score__min__energy>  (7) 
-8.9199999999999999

>  <m_primary>  (7) 
energy

>  <rmsd>  (7) 
11.66215787541522

>  <m_score__min__rmsd>  (7) 
11.66215787541522

>  <meeko>  (7) 
{"free_energy": -8.69, "intermolecular_energy": -10.18, "internal_energy": -1.38, "cluster_size": 36, "cluster_id": 2, "rank_in_cluster": 19}

>  <energy>  (7) 
-8.87

>  <cluster_rmsd>  (7) 
0.31

>  <cluster>  (7) 
2

$$$$

     RDKit          3D

 47 50  0  0  0  0  0  0  0  0999 V2000
  144.5960   68.6080  217.6290 C   0  0  0  0  0  0  0  0  0  0  0  0
  145.0640   69.4970  219.1010 S   0  0  0  0  0  0  0  0  0  0  0  0
  146.0920   70.5530  218.8180 O   0  0  0  0  0  0  0  0  0  0  0  0
  145.6350   68.4920  220.0500 O   0  0  0  0  0  0  0  0  0  0  0  0
  143.6730   70.2400  219.8120 C   0  0  0  0  0  0  0  0  0  0  0  0
  142.4300   69.6700  219.6530 C   0  0  0  0  0  0  0  0  0  0  0  0
  141.2960   70.2520  220.2190 C   0  0  0  0  0  0  0  0  0  0  0  0
  141.3650   71.4100  220.9530 C   0  0  0  0  0  0  0  0  0  0  0  0
  140.2080   72.0620  221.5670 C   0  0  0  0  0  0  0  0  0  0  0  0
  139.3190   71.4590  222.3050 C   0  0  0  0  0  0  0  0  0  0  0  0
  139.4560   70.7670  223.5480 C   0  0  0  0  0  0  0  0  0  0  0  0
  140.0570   71.4670  224.5680 N   0  0  0  0  0  0  0  0  0  0  0  0
  140.2790   71.0210  225.7820 C   0  0  0  0  0  0  0  0  0  0  0  0
  140.8860   71.8190  226.7040 C   0  0  0  0  0  0  0  0  0  0  0  0
  141.0960   71.3000  227.9670 C   0  0  0  0  0  0  0  0  0  0  0  0
  140.7210   70.0240  228.3290 C   0  0  0  0  0  0  0  0  0  0  0  0
  140.1100   69.2540  227.3600 C   0  0  0  0  0  0  0  0  0  0  0  0
  139.8910   69.7440  226.1050 C   0  0  0  0  0  0  0  0  0  0  0  0
  139.2890   69.0120  225.1210 C   0  0  0  0  0  0  0  0  0  0  0  0
  138.9300   67.8410  225.4070 O   0  0  0  0  0  0  0  0  0  0  0  0
  139.0790   69.5310  223.8570 N   0  0  0  0  0  0  0  0  0  0  0  0
  138.4420   68.6160  222.9810 C   0  0  0  0  0  0  0  0  0  0  0  0
  137.0440   68.6710  222.8420 C   0  0  0  0  0  0  0  0  0  0  0  0
  136.3740   67.7720  222.0350 C   0  0  0  0  0  0  0  0  0  0  0  0
  137.1060   66.8040  221.3550 C   0  0  0  0  0  0  0  0  0  0  0  0
  138.4810   66.7360  221.4790 C   0  0  0  0  0  0  0  0  0  0  0  0
  139.1720   67.6340  222.2890 C   0  0  0  0  0  0  0  0  0  0  0  0
  142.6390   71.9630  221.0970 C   0  0  0  0  0  0  0  0  0  0  0  0
  143.7600   71.4030  220.5480 C   0  0  0  0  0  0  0  0  0  0  0  0
  144.1007   67.6671  217.9108 H   0  0  0  0  0  0  0  0  0  0  0  0
  143.9045   69.2225  217.0338 H   0  0  0  0  0  0  0  0  0  0  0  0
  145.4940   68.3857  217.0338 H   0  0  0  0  0  0  0  0  0  0  0  0
  142.3298   68.7420  219.0710 H   0  0  0  0  0  0  0  0  0  0  0  0
  140.3184   69.7694  220.0731 H   0  0  0  0  0  0  0  0  0  0  0  0
  140.0790   73.1404  221.3929 H   0  0  0  0  0  0  0  0  0  0  0  0
  138.2945   71.4873  221.9054 H   0  0  0  0  0  0  0  0  0  0  0  0
  141.1987   72.8429  226.4513 H   0  0  0  0  0  0  0  0  0  0  0  0
  141.5858   71.9354  228.7196 H   0  0  0  0  0  0  0  0  0  0  0  0
  140.9003   69.6373  229.3430 H   0  0  0  0  0  0  0  0  0  0  0  0
  139.7944   68.2287  227.6031 H   0  0  0  0  0  0  0  0  0  0  0  0
  136.4754   69.4412  223.3838 H   0  0  0  0  0  0  0  0  0  0  0  0
  135.2799   67.8208  221.9318 H   0  0  0  0  0  0  0  0  0  0  0  0
  136.5833   66.0827  220.7096 H   0  0  0  0  0  0  0  0  0  0  0  0
  139.0373   65.9618  220.9303 H   0  0  0  0  0  0  0  0  0  0  0  0
  140.2662   67.5760  222.3852 H   0  0  0  0  0  0  0  0  0  0  0  0
  142.7462   72.8908  221.6781 H   0  0  0  0  0  0  0  0  0  0  0  0
  144.7383   71.8841  220.6948 H   0  0  0  0  0  0  0  0  0  0  0  0
  1  2  1  0
  2  3  2  0
  2  4  2  0
  2  5  1  0
  5  6  2  0
  6  7  1  0
  7  8  2  0
  8  9  1  0
  9 10  2  0
 10 11  1  0
 11 12  2  0
 12 13  1  0
 13 14  2  0
 14 15  1  0
 15 16  2  0
 16 17  1  0
 17 18  2  0
 18 19  1  0
 19 20  2  0
 19 21  1  0
 21 22  1  0
 22 23  2  0
 23 24  1  0
 24 25  2  0
 25 26  1  0
 26 27  2  0
  8 28  1  0
 28 29  2  0
 29  5  1  0
 21 11  1  0
 27 22  1  0
 18 13  1  0
  1 30  1  0
  1 31  1  0
  1 32  1  0
  6 33  1  0
  7 34  1  0
  9 35  1  0
 10 36  1  0
 14 37  1  0
 15 38  1  0
 16 39  1  0
 17 40  1  0
 23 41  1  0
 24 42  1  0
 25 43  1  0
 26 44  1  0
 27 45  1  0
 28 46  1  0
 29 47  1  0
M  END
>  <smiles>  (8) 
CS(=O)(=O)c1ccc(/C=C/c2nc3ccccc3c(=O)n2-c2ccccc2)cc1

>  <score_type>  (8) 
oracle

>  <origin>  (8) 
autodockgpu

>  <m_score__min__energy>  (8) 
-8.9199999999999999

>  <m_primary>  (8) 
energy

>  <rmsd>  (8) 
11.668387855396995

>  <m_score__min__rmsd>  (8) 
11.668387855396995

>  <meeko>  (8) 
{"free_energy": -8.38, "intermolecular_energy": -9.88, "internal_energy": -1.57, "cluster_size": 36, "cluster_id": 2, "rank_in_cluster": 31}

>  <energy>  (8) 
-8.86

>  <cluster_rmsd>  (8) 
0.39

>  <cluster>  (8) 
2

$$$$

     RDKit          3D

 47 50  0  0  0  0  0  0  0  0999 V2000
  144.9960   73.6670  217.3850 C   0  0  0  0  0  0  0  0  0  0  0  0
  145.2680   72.7960  218.9160 S   0  0  0  0  0  0  0  0  0  0  0  0
  146.3940   73.3920  219.7090 O   0  0  0  0  0  0  0  0  0  0  0  0
  145.6060   71.3850  218.5580 O   0  0  0  0  0  0  0  0  0  0  0  0
  143.8270   72.8210  219.8740 C   0  0  0  0  0  0  0  0  0  0  0  0
  143.1680   74.0080  220.0960 C   0  0  0  0  0  0  0  0  0  0  0  0
  142.0040   74.0500  220.8650 C   0  0  0  0  0  0  0  0  0  0  0  0
  141.4690   72.9200  221.4310 C   0  0  0  0  0  0  0  0  0  0  0  0
  140.2540   72.9070  222.2460 C   0  0  0  0  0  0  0  0  0  0  0  0
  139.5810   71.8360  222.5620 C   0  0  0  0  0  0  0  0  0  0  0  0
  139.6870   70.9700  223.6950 C   0  0  0  0  0  0  0  0  0  0  0  0
  140.2160   71.5280  224.8350 N   0  0  0  0  0  0  0  0  0  0  0  0
  140.4000   70.9130  225.9800 C   0  0  0  0  0  0  0  0  0  0  0  0
  140.9360   71.5820  227.0380 C   0  0  0  0  0  0  0  0  0  0  0  0
  141.1080   70.8860  228.2190 C   0  0  0  0  0  0  0  0  0  0  0  0
  140.7630   69.5600  228.3700 C   0  0  0  0  0  0  0  0  0  0  0  0
  140.2240   68.9260  227.2690 C   0  0  0  0  0  0  0  0  0  0  0  0
  140.0440   69.5910  226.0910 C   0  0  0  0  0  0  0  0  0  0  0  0
  139.5140   68.9960  224.9810 C   0  0  0  0  0  0  0  0  0  0  0  0
  139.1850   67.7860  225.0730 O   0  0  0  0  0  0  0  0  0  0  0  0
  139.3420   69.6920  223.7990 N   0  0  0  0  0  0  0  0  0  0  0  0
  138.7780   68.9000  222.7660 C   0  0  0  0  0  0  0  0  0  0  0  0
  137.4280   68.5180  222.8650 C   0  0  0  0  0  0  0  0  0  0  0  0
  136.8470   67.7100  221.9070 C   0  0  0  0  0  0  0  0  0  0  0  0
  137.6190   67.2750  220.8350 C   0  0  0  0  0  0  0  0  0  0  0  0
  138.9480   67.6420  220.7220 C   0  0  0  0  0  0  0  0  0  0  0  0
  139.5500   68.4550  221.6790 C   0  0  0  0  0  0  0  0  0  0  0  0
  142.1610   71.7310  221.1880 C   0  0  0  0  0  0  0  0  0  0  0  0
  143.3020   71.6760  220.4360 C   0  0  0  0  0  0  0  0  0  0  0  0
  144.6745   74.6966  217.6010 H   0  0  0  0  0  0  0  0  0  0  0  0
  145.9301   73.6887  216.8045 H   0  0  0  0  0  0  0  0  0  0  0  0
  144.2155   73.1533  216.8045 H   0  0  0  0  0  0  0  0  0  0  0  0
  143.5642   74.9375  219.6611 H   0  0  0  0  0  0  0  0  0  0  0  0
  141.5014   75.0158  221.0218 H   0  0  0  0  0  0  0  0  0  0  0  0
  139.8808   73.8719  222.6197 H   0  0  0  0  0  0  0  0  0  0  0  0
  138.8035   71.5517  221.8377 H   0  0  0  0  0  0  0  0  0  0  0  0
  141.2224   72.6408  226.9552 H   0  0  0  0  0  0  0  0  0  0  0  0
  141.5412   71.4156  229.0804 H   0  0  0  0  0  0  0  0  0  0  0  0
  140.9104   69.0318  229.3236 H   0  0  0  0  0  0  0  0  0  0  0  0
  139.9347   67.8672  227.3422 H   0  0  0  0  0  0  0  0  0  0  0  0
  136.8265   68.8675  223.7171 H   0  0  0  0  0  0  0  0  0  0  0  0
  135.7905   67.4153  221.9906 H   0  0  0  0  0  0  0  0  0  0  0  0
  137.1668   66.6305  220.0668 H   0  0  0  0  0  0  0  0  0  0  0  0
  139.5376   67.2866  219.8641 H   0  0  0  0  0  0  0  0  0  0  0  0
  140.6076   68.7429  221.5862 H   0  0  0  0  0  0  0  0  0  0  0  0
  141.7710   70.7979  221.6206 H   0  0  0  0  0  0  0  0  0  0  0  0
  143.8052   70.7107  220.2781 H   0  0  0  0  0  0  0  0  0  0  0  0
  1  2  1  0
  2  3  2  0
  2  4  2  0
  2  5  1  0
  5  6  2  0
  6  7  1  0
  7  8  2  0
  8  9  1  0
  9 10  2  0
 10 11  1  0
 11 12  2  0
 12 13  1  0
 13 14  2  0
 14 15  1  0
 15 16  2  0
 16 17  1  0
 17 18  2  0
 18 19  1  0
 19 20  2  0
 19 21  1  0
 21 22  1  0
 22 23  2  0
 23 24  1  0
 24 25  2  0
 25 26  1  0
 26 27  2  0
  8 28  1  0
 28 29  2  0
 29  5  1  0
 21 11  1  0
 27 22  1  0
 18 13  1  0
  1 30  1  0
  1 31  1  0
  1 32  1  0
  6 33  1  0
  7 34  1  0
  9 35  1  0
 10 36  1  0
 14 37  1  0
 15 38  1  0
 16 39  1  0
 17 40  1  0
 23 41  1  0
 24 42  1  0
 25 43  1  0
 26 44  1  0
 27 45  1  0
 28 46  1  0
 29 47  1  0
M  END
>  <smiles>  (9) 
CS(=O)(=O)c1ccc(/C=C/c2nc3ccccc3c(=O)n2-c2ccccc2)cc1

>  <score_type>  (9) 
oracle

>  <origin>  (9) 
autodockgpu

>  <m_score__min__energy>  (9) 
-8.9199999999999999

>  <m_primary>  (9) 
energy

>  <rmsd>  (9) 
11.659760721057621

>  <m_score__min__rmsd>  (9) 
11.659760721057621

>  <meeko>  (9) 
{"free_energy": -8.74, "intermolecular_energy": -10.23, "internal_energy": -1.36, "cluster_size": 36, "cluster_id": 2, "rank_in_cluster": 13}

>  <energy>  (9) 
-8.86

>  <cluster_rmsd>  (9) 
0.57

>  <cluster>  (9) 
2

$$$$

     RDKit          3D

 47 50  0  0  0  0  0  0  0  0999 V2000
  132.0320   74.3390  225.2350 C   0  0  0  0  0  0  0  0  0  0  0  0
  133.5560   73.9670  226.0810 S   0  0  0  0  0  0  0  0  0  0  0  0
  133.3500   73.0040  227.2130 O   0  0  0  0  0  0  0  0  0  0  0  0
  134.0790   75.2600  226.6210 O   0  0  0  0  0  0  0  0  0  0  0  0
  134.7010   73.2980  224.9700 C   0  0  0  0  0  0  0  0  0  0  0  0
  135.3120   74.1070  224.0400 C   0  0  0  0  0  0  0  0  0  0  0  0
  136.2390   73.5880  223.1360 C   0  0  0  0  0  0  0  0  0  0  0  0
  136.5820   72.2580  223.1320 C   0  0  0  0  0  0  0  0  0  0  0  0
  137.5450   71.6620  222.2070 C   0  0  0  0  0  0  0  0  0  0  0  0
  138.6780   71.1230  222.5590 C   0  0  0  0  0  0  0  0  0  0  0  0
  139.0480   70.4260  223.7520 C   0  0  0  0  0  0  0  0  0  0  0  0
  139.6690   71.1770  224.7220 N   0  0  0  0  0  0  0  0  0  0  0  0
  140.0880   70.7380  225.8860 C   0  0  0  0  0  0  0  0  0  0  0  0
  140.6910   71.5880  226.7620 C   0  0  0  0  0  0  0  0  0  0  0  0
  141.1130   71.0730  227.9720 C   0  0  0  0  0  0  0  0  0  0  0  0
  140.9500   69.7510  228.3270 C   0  0  0  0  0  0  0  0  0  0  0  0
  140.3340   68.9290  227.4050 C   0  0  0  0  0  0  0  0  0  0  0  0
  139.9090   69.4130  226.2020 C   0  0  0  0  0  0  0  0  0  0  0  0
  139.2940   68.6300  225.2660 C   0  0  0  0  0  0  0  0  0  0  0  0
  139.1260   67.4160  225.5470 O   0  0  0  0  0  0  0  0  0  0  0  0
  138.8720   69.1450  224.0550 N   0  0  0  0  0  0  0  0  0  0  0  0
  138.2600   68.1740  223.2220 C   0  0  0  0  0  0  0  0  0  0  0  0
  139.0340   67.0970  222.7550 C   0  0  0  0  0  0  0  0  0  0  0  0
  138.4950   66.1500  221.9060 C   0  0  0  0  0  0  0  0  0  0  0  0
  137.1650   66.2760  221.5160 C   0  0  0  0  0  0  0  0  0  0  0  0
  136.3900   67.3280  221.9670 C   0  0  0  0  0  0  0  0  0  0  0  0
  136.9180   68.2920  222.8220 C   0  0  0  0  0  0  0  0  0  0  0  0
  135.9450   71.4640  224.0880 C   0  0  0  0  0  0  0  0  0  0  0  0
  135.0340   71.9600  224.9800 C   0  0  0  0  0  0  0  0  0  0  0  0
  131.2403   74.5323  225.9738 H   0  0  0  0  0  0  0  0  0  0  0  0
  132.1706   75.2297  224.6045 H   0  0  0  0  0  0  0  0  0  0  0  0
  131.7446   73.4846  224.6045 H   0  0  0  0  0  0  0  0  0  0  0  0
  135.0660   75.1787  224.0088 H   0  0  0  0  0  0  0  0  0  0  0  0
  136.7087   74.2631  222.4055 H   0  0  0  0  0  0  0  0  0  0  0  0
  137.2948   71.6692  221.1359 H   0  0  0  0  0  0  0  0  0  0  0  0
  139.4830   71.2201  221.8157 H   0  0  0  0  0  0  0  0  0  0  0  0
  140.8372   72.6497  226.5143 H   0  0  0  0  0  0  0  0  0  0  0  0
  141.6028   71.7504  228.6870 H   0  0  0  0  0  0  0  0  0  0  0  0
  141.2946   69.3691  229.2993 H   0  0  0  0  0  0  0  0  0  0  0  0
  140.1832   67.8659  227.6440 H   0  0  0  0  0  0  0  0  0  0  0  0
  140.0840   67.0073  223.0703 H   0  0  0  0  0  0  0  0  0  0  0  0
  139.1067   65.3104  221.5443 H   0  0  0  0  0  0  0  0  0  0  0  0
  136.7246   65.5284  220.8398 H   0  0  0  0  0  0  0  0  0  0  0  0
  135.3408   67.4048  221.6458 H   0  0  0  0  0  0  0  0  0  0  0  0
  136.2977   69.1282  223.1768 H   0  0  0  0  0  0  0  0  0  0  0  0
  136.1866   70.3915  224.1255 H   0  0  0  0  0  0  0  0  0  0  0  0
  134.5634   71.2861  225.7110 H   0  0  0  0  0  0  0  0  0  0  0  0
  1  2  1  0
  2  3  2  0
  2  4  2  0
  2  5  1  0
  5  6  2  0
  6  7  1  0
  7  8  2  0
  8  9  1  0
  9 10  2  0
 10 11  1  0
 11 12  2  0
 12 13  1  0
 13 14  2  0
 14 15  1  0
 15 16  2  0
 16 17  1  0
 17 18  2  0
 18 19  1  0
 19 20  2  0
 19 21  1  0
 21 22  1  0
 22 23  2  0
 23 24  1  0
 24 25  2  0
 25 26  1  0
 26 27  2  0
  8 28  1  0
 28 29  2  0
 29  5  1  0
 21 11  1  0
 27 22  1  0
 18 13  1  0
  1 30  1  0
  1 31  1  0
  1 32  1  0
  6 33  1  0
  7 34  1  0
  9 35  1  0
 10 36  1  0
 14 37  1  0
 15 38  1  0
 16 39  1  0
 17 40  1  0
 23 41  1  0
 24 42  1  0
 25 43  1  0
 26 44  1  0
 27 45  1  0
 28 46  1  0
 29 47  1  0
M  END
>  <smiles>  (10) 
CS(=O)(=O)c1ccc(/C=C/c2nc3ccccc3c(=O)n2-c2ccccc2)cc1

>  <score_type>  (10) 
oracle

>  <origin>  (10) 
autodockgpu

>  <m_score__min__energy>  (10) 
-8.9199999999999999

>  <m_primary>  (10) 
energy

>  <rmsd>  (10) 
12.060941463888145

>  <m_score__min__rmsd>  (10) 
12.060941463888145

>  <meeko>  (10) 
{"free_energy": -8.51, "intermolecular_energy": -10.0, "internal_energy": -1.61, "cluster_size": 11, "cluster_id": 3, "rank_in_cluster": 2}

>  <energy>  (10) 
-8.85

>  <cluster_rmsd>  (10) 
0.29

>  <cluster>  (10) 
2

$$$$

     RDKit          3D

 47 50  0  0  0  0  0  0  0  0999 V2000
  144.7770   71.3420  217.1940 C   0  0  0  0  0  0  0  0  0  0  0  0
  145.1000   71.5200  218.9380 S   0  0  0  0  0  0  0  0  0  0  0  0
  146.0420   72.6520  219.2230 O   0  0  0  0  0  0  0  0  0  0  0  0
  145.7150   70.2370  219.3980 O   0  0  0  0  0  0  0  0  0  0  0  0
  143.6180   71.7900  219.7900 C   0  0  0  0  0  0  0  0  0  0  0  0
  143.4010   72.9880  220.4320 C   0  0  0  0  0  0  0  0  0  0  0  0
  142.2130   73.2260  221.1230 C   0  0  0  0  0  0  0  0  0  0  0  0
  141.2150   72.2850  221.1960 C   0  0  0  0  0  0  0  0  0  0  0  0
  139.9530   72.4820  221.9070 C   0  0  0  0  0  0  0  0  0  0  0  0
  139.2460   71.5290  222.4460 C   0  0  0  0  0  0  0  0  0  0  0  0
  139.4500   70.7850  223.6500 C   0  0  0  0  0  0  0  0  0  0  0  0
  140.0680   71.4560  224.6790 N   0  0  0  0  0  0  0  0  0  0  0  0
  140.3500   70.9620  225.8620 C   0  0  0  0  0  0  0  0  0  0  0  0
  140.9680   71.7350  226.7970 C   0  0  0  0  0  0  0  0  0  0  0  0
  141.2410   71.1660  228.0250 C   0  0  0  0  0  0  0  0  0  0  0  0
  140.9170   69.8630  228.3410 C   0  0  0  0  0  0  0  0  0  0  0  0
  140.2930   69.1200  227.3600 C   0  0  0  0  0  0  0  0  0  0  0  0
  140.0130   69.6600  226.1380 C   0  0  0  0  0  0  0  0  0  0  0  0
  139.3950   68.9550  225.1430 C   0  0  0  0  0  0  0  0  0  0  0  0
  139.0820   67.7620  225.3870 O   0  0  0  0  0  0  0  0  0  0  0  0
  139.1220   69.5250  223.9140 N   0  0  0  0  0  0  0  0  0  0  0  0
  138.4800   68.6320  223.0190 C   0  0  0  0  0  0  0  0  0  0  0  0
  137.0880   68.7350  222.8400 C   0  0  0  0  0  0  0  0  0  0  0  0
  136.4120   67.8590  222.0140 C   0  0  0  0  0  0  0  0  0  0  0  0
  137.1290   66.8660  221.3550 C   0  0  0  0  0  0  0  0  0  0  0  0
  138.4970   66.7500  221.5190 C   0  0  0  0  0  0  0  0  0  0  0  0
  139.1940   67.6240  222.3490 C   0  0  0  0  0  0  0  0  0  0  0  0
  141.4660   71.0810  220.5350 C   0  0  0  0  0  0  0  0  0  0  0  0
  142.6260   70.8340  219.8530 C   0  0  0  0  0  0  0  0  0  0  0  0
  143.8219   70.8157  217.0498 H   0  0  0  0  0  0  0  0  0  0  0  0
  144.7214   72.3369  216.7280 H   0  0  0  0  0  0  0  0  0  0  0  0
  145.5883   70.7636  216.7280 H   0  0  0  0  0  0  0  0  0  0  0  0
  144.1753   73.7686  220.3997 H   0  0  0  0  0  0  0  0  0  0  0  0
  142.0712   74.1950  221.6239 H   0  0  0  0  0  0  0  0  0  0  0  0
  139.5720   73.5103  221.9935 H   0  0  0  0  0  0  0  0  0  0  0  0
  138.3436   71.2512  221.8817 H   0  0  0  0  0  0  0  0  0  0  0  0
  141.2408   72.7785  226.5812 H   0  0  0  0  0  0  0  0  0  0  0  0
  141.7407   71.7812  228.7878 H   0  0  0  0  0  0  0  0  0  0  0  0
  141.1454   69.4362  229.3288 H   0  0  0  0  0  0  0  0  0  0  0  0
  140.0166   68.0754  227.5660 H   0  0  0  0  0  0  0  0  0  0  0  0
  136.5306   69.5244  223.3655 H   0  0  0  0  0  0  0  0  0  0  0  0
  135.3237   67.9451  221.8793 H   0  0  0  0  0  0  0  0  0  0  0  0
  136.6004   66.1632  220.6942 H   0  0  0  0  0  0  0  0  0  0  0  0
  139.0420   65.9566  220.9866 H   0  0  0  0  0  0  0  0  0  0  0  0
  140.2822   67.5274  222.4777 H   0  0  0  0  0  0  0  0  0  0  0  0
  140.6964   70.2956  220.5639 H   0  0  0  0  0  0  0  0  0  0  0  0
  142.7685   69.8656  219.3511 H   0  0  0  0  0  0  0  0  0  0  0  0
  1  2  1  0
  2  3  2  0
  2  4  2  0
  2  5  1  0
  5  6  2  0
  6  7  1  0
  7  8  2  0
  8  9  1  0
  9 10  2  0
 10 11  1  0
 11 12  2  0
 12 13  1  0
 13 14  2  0
 14 15  1  0
 15 16  2  0
 16 17  1  0
 17 18  2  0
 18 19  1  0
 19 20  2  0
 19 21  1  0
 21 22  1  0
 22 23  2  0
 23 24  1  0
 24 25  2  0
 25 26  1  0
 26 27  2  0
  8 28  1  0
 28 29  2  0
 29  5  1  0
 21 11  1  0
 27 22  1  0
 18 13  1  0
  1 30  1  0
  1 31  1  0
  1 32  1  0
  6 33  1  0
  7 34  1  0
  9 35  1  0
 10 36  1  0
 14 37  1  0
 15 38  1  0
 16 39  1  0
 17 40  1  0
 23 41  1  0
 24 42  1  0
 25 43  1  0
 26 44  1  0
 27 45  1  0
 28 46  1  0
 29 47  1  0
M  END
>  <smiles>  (11) 
CS(=O)(=O)c1ccc(/C=C/c2nc3ccccc3c(=O)n2-c2ccccc2)cc1

>  <score_type>  (11) 
oracle

>  <origin>  (11) 
autodockgpu

>  <m_score__min__energy>  (11) 
-8.9199999999999999

>  <m_primary>  (11) 
energy

>  <rmsd>  (11) 
11.70920137068982

>  <m_score__min__rmsd>  (11) 
11.70920137068982

>  <meeko>  (11) 
{"free_energy": -8.34, "intermolecular_energy": -9.83, "internal_energy": -1.42, "cluster_size": 36, "cluster_id": 2, "rank_in_cluster": 32}

>  <energy>  (11) 
-8.83

>  <cluster_rmsd>  (11) 
0.17

>  <cluster>  (11) 
2

$$$$

     RDKit          3D

 47 50  0  0  0  0  0  0  0  0999 V2000
  146.6930   73.7130  220.9340 C   0  0  0  0  0  0  0  0  0  0  0  0
  145.6790   72.7370  219.8410 S   0  0  0  0  0  0  0  0  0  0  0  0
  146.1650   71.3220  219.7360 O   0  0  0  0  0  0  0  0  0  0  0  0
  145.7460   73.3840  218.4950 O   0  0  0  0  0  0  0  0  0  0  0  0
  144.0410   72.7320  220.3990 C   0  0  0  0  0  0  0  0  0  0  0  0
  143.4360   71.5460  220.7480 C   0  0  0  0  0  0  0  0  0  0  0  0
  142.1160   71.5200  221.2010 C   0  0  0  0  0  0  0  0  0  0  0  0
  141.3680   72.6650  221.3180 C   0  0  0  0  0  0  0  0  0  0  0  0
  139.9820   72.6930  221.7860 C   0  0  0  0  0  0  0  0  0  0  0  0
  139.3310   71.6630  222.2460 C   0  0  0  0  0  0  0  0  0  0  0  0
  139.5100   70.9070  223.4460 C   0  0  0  0  0  0  0  0  0  0  0  0
  140.0490   71.5860  224.5130 N   0  0  0  0  0  0  0  0  0  0  0  0
  140.2960   71.0850  225.7010 C   0  0  0  0  0  0  0  0  0  0  0  0
  140.8350   71.8680  226.6760 C   0  0  0  0  0  0  0  0  0  0  0  0
  141.0750   71.2890  227.9080 C   0  0  0  0  0  0  0  0  0  0  0  0
  140.7940   69.9690  228.1870 C   0  0  0  0  0  0  0  0  0  0  0  0
  140.2500   69.2160  227.1670 C   0  0  0  0  0  0  0  0  0  0  0  0
  140.0040   69.7640  225.9410 C   0  0  0  0  0  0  0  0  0  0  0  0
  139.4660   69.0510  224.9070 C   0  0  0  0  0  0  0  0  0  0  0  0
  139.1950   67.8410  225.1180 O   0  0  0  0  0  0  0  0  0  0  0  0
  139.2260   69.6300  223.6750 N   0  0  0  0  0  0  0  0  0  0  0  0
  138.6660   68.7260  222.7370 C   0  0  0  0  0  0  0  0  0  0  0  0
  137.3010   68.4010  222.8390 C   0  0  0  0  0  0  0  0  0  0  0  0
  136.7210   67.4910  221.9760 C   0  0  0  0  0  0  0  0  0  0  0  0
  137.5100   66.8950  220.9980 C   0  0  0  0  0  0  0  0  0  0  0  0
  138.8530   67.2030  220.8830 C   0  0  0  0  0  0  0  0  0  0  0  0
  139.4540   68.1170  221.7440 C   0  0  0  0  0  0  0  0  0  0  0  0
  142.0100   73.8510  220.9560 C   0  0  0  0  0  0  0  0  0  0  0  0
  143.3020   73.8910  220.5110 C   0  0  0  0  0  0  0  0  0  0  0  0
  146.4433   73.4727  221.9780 H   0  0  0  0  0  0  0  0  0  0  0  0
  147.7536   73.4873  220.7494 H   0  0  0  0  0  0  0  0  0  0  0  0
  146.5079   74.7815  220.7494 H   0  0  0  0  0  0  0  0  0  0  0  0
  144.0007   70.6054  220.6688 H   0  0  0  0  0  0  0  0  0  0  0  0
  141.6625   70.5551  221.4718 H   0  0  0  0  0  0  0  0  0  0  0  0
  139.4504   73.6552  221.7464 H   0  0  0  0  0  0  0  0  0  0  0  0
  138.5067   71.3175  221.6048 H   0  0  0  0  0  0  0  0  0  0  0  0
  141.0715   72.9259  226.4894 H   0  0  0  0  0  0  0  0  0  0  0  0
  141.5109   71.9113  228.7034 H   0  0  0  0  0  0  0  0  0  0  0  0
  140.9944   69.5355  229.1779 H   0  0  0  0  0  0  0  0  0  0  0  0
  140.0106   68.1571  227.3444 H   0  0  0  0  0  0  0  0  0  0  0  0
  136.6867   68.8781  223.6168 H   0  0  0  0  0  0  0  0  0  0  0  0
  135.6529   67.2421  222.0611 H   0  0  0  0  0  0  0  0  0  0  0  0
  137.0592   66.1683  220.3062 H   0  0  0  0  0  0  0  0  0  0  0  0
  139.4551   66.7189  220.1000 H   0  0  0  0  0  0  0  0  0  0  0  0
  140.5231   68.3579  221.6496 H   0  0  0  0  0  0  0  0  0  0  0  0
  141.4511   74.7954  221.0323 H   0  0  0  0  0  0  0  0  0  0  0  0
  143.7559   74.8556  220.2400 H   0  0  0  0  0  0  0  0  0  0  0  0
  1  2  1  0
  2  3  2  0
  2  4  2  0
  2  5  1  0
  5  6  2  0
  6  7  1  0
  7  8  2  0
  8  9  1  0
  9 10  2  0
 10 11  1  0
 11 12  2  0
 12 13  1  0
 13 14  2  0
 14 15  1  0
 15 16  2  0
 16 17  1  0
 17 18  2  0
 18 19  1  0
 19 20  2  0
 19 21  1  0
 21 22  1  0
 22 23  2  0
 23 24  1  0
 24 25  2  0
 25 26  1  0
 26 27  2  0
  8 28  1  0
 28 29  2  0
 29  5  1  0
 21 11  1  0
 27 22  1  0
 18 13  1  0
  1 30  1  0
  1 31  1  0
  1 32  1  0
  6 33  1  0
  7 34  1  0
  9 35  1  0
 10 36  1  0
 14 37  1  0
 15 38  1  0
 16 39  1  0
 17 40  1  0
 23 41  1  0
 24 42  1  0
 25 43  1  0
 26 44  1  0
 27 45  1  0
 28 46  1  0
 29 47  1  0
M  END
>  <smiles>  (12) 
CS(=O)(=O)c1ccc(/C=C/c2nc3ccccc3c(=O)n2-c2ccccc2)cc1

>  <score_type>  (12) 
oracle

>  <origin>  (12) 
autodockgpu

>  <m_score__min__energy>  (12) 
-8.9199999999999999

>  <m_primary>  (12) 
energy

>  <rmsd>  (12) 
11.574943193162644

>  <m_score__min__rmsd>  (12) 
11.574943193162644

>  <meeko>  (12) 
{"free_energy": -8.85, "intermolecular_energy": -10.34, "internal_energy": -1.43, "cluster_size": 36, "cluster_id": 2, "rank_in_cluster": 7}

>  <energy>  (12) 
-8.79

>  <cluster_rmsd>  (12) 
0.61

>  <cluster>  (12) 
2

$$$$

     RDKit          3D

 47 50  0  0  0  0  0  0  0  0999 V2000
  131.9240   75.0080  225.2820 C   0  0  0  0  0  0  0  0  0  0  0  0
  133.3300   74.4080  226.1990 S   0  0  0  0  0  0  0  0  0  0  0  0
  132.9320   73.4210  227.2560 O   0  0  0  0  0  0  0  0  0  0  0  0
  133.9640   75.5980  226.8460 O   0  0  0  0  0  0  0  0  0  0  0  0
  134.4620   73.6610  225.1260 C   0  0  0  0  0  0  0  0  0  0  0  0
  134.6580   72.2990  225.1700 C   0  0  0  0  0  0  0  0  0  0  0  0
  135.5660   71.6770  224.3130 C   0  0  0  0  0  0  0  0  0  0  0  0
  136.3000   72.3870  223.3950 C   0  0  0  0  0  0  0  0  0  0  0  0
  137.2640   71.7850  222.4750 C   0  0  0  0  0  0  0  0  0  0  0  0
  138.4570   71.3800  222.8080 C   0  0  0  0  0  0  0  0  0  0  0  0
  138.8980   70.5950  223.9190 C   0  0  0  0  0  0  0  0  0  0  0  0
  139.5710   71.2730  224.9090 N   0  0  0  0  0  0  0  0  0  0  0  0
  140.0580   70.7470  226.0080 C   0  0  0  0  0  0  0  0  0  0  0  0
  140.7070   71.5310  226.9130 C   0  0  0  0  0  0  0  0  0  0  0  0
  141.2000   70.9270  228.0530 C   0  0  0  0  0  0  0  0  0  0  0  0
  141.0640   69.5790  228.3110 C   0  0  0  0  0  0  0  0  0  0  0  0
  140.4000   68.8270  227.3640 C   0  0  0  0  0  0  0  0  0  0  0  0
  139.9040   69.4000  226.2290 C   0  0  0  0  0  0  0  0  0  0  0  0
  139.2400   68.6880  225.2700 C   0  0  0  0  0  0  0  0  0  0  0  0
  139.0940   67.4540  225.4630 O   0  0  0  0  0  0  0  0  0  0  0  0
  138.7470   69.2930  224.1290 N   0  0  0  0  0  0  0  0  0  0  0  0
  138.0920   68.3840  223.2590 C   0  0  0  0  0  0  0  0  0  0  0  0
  138.8490   67.3730  222.6410 C   0  0  0  0  0  0  0  0  0  0  0  0
  138.2650   66.4920  221.7510 C   0  0  0  0  0  0  0  0  0  0  0  0
  136.9080   66.6190  221.4720 C   0  0  0  0  0  0  0  0  0  0  0  0
  136.1490   67.6070  222.0720 C   0  0  0  0  0  0  0  0  0  0  0  0
  136.7210   68.5030  222.9700 C   0  0  0  0  0  0  0  0  0  0  0  0
  136.0790   73.7650  223.3750 C   0  0  0  0  0  0  0  0  0  0  0  0
  135.1920   74.3890  224.2090 C   0  0  0  0  0  0  0  0  0  0  0  0
  131.1441   75.3408  225.9827 H   0  0  0  0  0  0  0  0  0  0  0  0
  132.2327   75.8528  224.6487 H   0  0  0  0  0  0  0  0  0  0  0  0
  131.5276   74.2006  224.6487 H   0  0  0  0  0  0  0  0  0  0  0  0
  134.0905   71.6926  225.8913 H   0  0  0  0  0  0  0  0  0  0  0  0
  135.6978   70.5866  224.3743 H   0  0  0  0  0  0  0  0  0  0  0  0
  136.9598   71.6652  221.4247 H   0  0  0  0  0  0  0  0  0  0  0  0
  139.2568   71.6937  222.1211 H   0  0  0  0  0  0  0  0  0  0  0  0
  140.8344   72.6101  226.7416 H   0  0  0  0  0  0  0  0  0  0  0  0
  141.7263   71.5509  228.7904 H   0  0  0  0  0  0  0  0  0  0  0  0
  141.4660   69.1249  229.2287 H   0  0  0  0  0  0  0  0  0  0  0  0
  140.2681   67.7471  227.5265 H   0  0  0  0  0  0  0  0  0  0  0  0
  139.9212   67.2821  222.8693 H   0  0  0  0  0  0  0  0  0  0  0  0
  138.8631   65.7034  221.2711 H   0  0  0  0  0  0  0  0  0  0  0  0
  136.4323   65.9240  220.7644 H   0  0  0  0  0  0  0  0  0  0  0  0
  135.0775   67.6858  221.8360 H   0  0  0  0  0  0  0  0  0  0  0  0
  136.1133   69.2880  223.4439 H   0  0  0  0  0  0  0  0  0  0  0  0
  136.6435   74.3770  222.6561 H   0  0  0  0  0  0  0  0  0  0  0  0
  135.0598   75.4793  224.1480 H   0  0  0  0  0  0  0  0  0  0  0  0
  1  2  1  0
  2  3  2  0
  2  4  2  0
  2  5  1  0
  5  6  2  0
  6  7  1  0
  7  8  2  0
  8  9  1  0
  9 10  2  0
 10 11  1  0
 11 12  2  0
 12 13  1  0
 13 14  2  0
 14 15  1  0
 15 16  2  0
 16 17  1  0
 17 18  2  0
 18 19  1  0
 19 20  2  0
 19 21  1  0
 21 22  1  0
 22 23  2  0
 23 24  1  0
 24 25  2  0
 25 26  1  0
 26 27  2  0
  8 28  1  0
 28 29  2  0
 29  5  1  0
 21 11  1  0
 27 22  1  0
 18 13  1  0
  1 30  1  0
  1 31  1  0
  1 32  1  0
  6 33  1  0
  7 34  1  0
  9 35  1  0
 10 36  1  0
 14 37  1  0
 15 38  1  0
 16 39  1  0
 17 40  1  0
 23 41  1  0
 24 42  1  0
 25 43  1  0
 26 44  1  0
 27 45  1  0
 28 46  1  0
 29 47  1  0
M  END
>  <smiles>  (13) 
CS(=O)(=O)c1ccc(/C=C/c2nc3ccccc3c(=O)n2-c2ccccc2)cc1

>  <score_type>  (13) 
oracle

>  <origin>  (13) 
autodockgpu

>  <m_score__min__energy>  (13) 
-8.9199999999999999

>  <m_primary>  (13) 
energy

>  <rmsd>  (13) 
12.011110737927726

>  <m_score__min__rmsd>  (13) 
12.011110737927726

>  <meeko>  (13) 
{"free_energy": -8.47, "intermolecular_energy": -9.96, "internal_energy": -1.55, "cluster_size": 11, "cluster_id": 3, "rank_in_cluster": 5}

>  <energy>  (13) 
-8.78

>  <cluster_rmsd>  (13) 
0.58

>  <cluster>  (13) 
2

$$$$

     RDKit          3D

 47 50  0  0  0  0  0  0  0  0999 V2000
  146.6760   73.7530  220.9610 C   0  0  0  0  0  0  0  0  0  0  0  0
  145.6780   72.7740  219.8560 S   0  0  0  0  0  0  0  0  0  0  0  0
  146.1830   71.3660  219.7410 O   0  0  0  0  0  0  0  0  0  0  0  0
  145.7420   73.4330  218.5160 O   0  0  0  0  0  0  0  0  0  0  0  0
  144.0390   72.7420  220.4090 C   0  0  0  0  0  0  0  0  0  0  0  0
  143.4620   71.5510  220.7850 C   0  0  0  0  0  0  0  0  0  0  0  0
  142.1420   71.5040  221.2350 C   0  0  0  0  0  0  0  0  0  0  0  0
  141.3650   72.6320  221.3210 C   0  0  0  0  0  0  0  0  0  0  0  0
  139.9770   72.6390  221.7840 C   0  0  0  0  0  0  0  0  0  0  0  0
  139.3500   71.6050  222.2700 C   0  0  0  0  0  0  0  0  0  0  0  0
  139.4950   70.9320  223.5240 C   0  0  0  0  0  0  0  0  0  0  0  0
  140.1610   71.6250  224.5080 N   0  0  0  0  0  0  0  0  0  0  0  0
  140.4020   71.1940  225.7240 C   0  0  0  0  0  0  0  0  0  0  0  0
  141.0760   71.9810  226.6080 C   0  0  0  0  0  0  0  0  0  0  0  0
  141.3030   71.4790  227.8750 C   0  0  0  0  0  0  0  0  0  0  0  0
  140.8810   70.2300  228.2770 C   0  0  0  0  0  0  0  0  0  0  0  0
  140.2030   69.4700  227.3460 C   0  0  0  0  0  0  0  0  0  0  0  0
  139.9660   69.9430  226.0880 C   0  0  0  0  0  0  0  0  0  0  0  0
  139.2990   69.2200  225.1390 C   0  0  0  0  0  0  0  0  0  0  0  0
  138.8960   68.0740  225.4630 O   0  0  0  0  0  0  0  0  0  0  0  0
  139.0720   69.7230  223.8720 N   0  0  0  0  0  0  0  0  0  0  0  0
  138.3650   68.8210  223.0370 C   0  0  0  0  0  0  0  0  0  0  0  0
  136.9620   68.9050  222.9820 C   0  0  0  0  0  0  0  0  0  0  0  0
  136.2260   68.0190  222.2180 C   0  0  0  0  0  0  0  0  0  0  0  0
  136.8960   67.0360  221.4970 C   0  0  0  0  0  0  0  0  0  0  0  0
  138.2750   66.9400  221.5380 C   0  0  0  0  0  0  0  0  0  0  0  0
  139.0310   67.8230  222.3040 C   0  0  0  0  0  0  0  0  0  0  0  0
  141.9790   73.8250  220.9330 C   0  0  0  0  0  0  0  0  0  0  0  0
  143.2720   73.8850  220.4900 C   0  0  0  0  0  0  0  0  0  0  0  0
  146.4223   73.5041  222.0020 H   0  0  0  0  0  0  0  0  0  0  0  0
  147.7398   73.5385  220.7816 H   0  0  0  0  0  0  0  0  0  0  0  0
  146.4819   74.8208  220.7816 H   0  0  0  0  0  0  0  0  0  0  0  0
  144.0495   70.6227  220.7301 H   0  0  0  0  0  0  0  0  0  0  0  0
  141.7119   70.5352  221.5292 H   0  0  0  0  0  0  0  0  0  0  0  0
  139.4221   73.5864  221.7169 H   0  0  0  0  0  0  0  0  0  0  0  0
  138.5827   71.1796  221.6065 H   0  0  0  0  0  0  0  0  0  0  0  0
  141.4280   72.9833  226.3226 H   0  0  0  0  0  0  0  0  0  0  0  0
  141.8464   72.1059  228.5973 H   0  0  0  0  0  0  0  0  0  0  0  0
  141.0757   69.8563  229.2931 H   0  0  0  0  0  0  0  0  0  0  0  0
  139.8477   68.4663  227.6224 H   0  0  0  0  0  0  0  0  0  0  0  0
  136.4430   69.6872  223.5554 H   0  0  0  0  0  0  0  0  0  0  0  0
  135.1289   68.0900  222.1808 H   0  0  0  0  0  0  0  0  0  0  0  0
  136.3209   66.3250  220.8856 H   0  0  0  0  0  0  0  0  0  0  0  0
  138.7815   66.1550  220.9573 H   0  0  0  0  0  0  0  0  0  0  0  0
  140.1275   67.7415  222.3352 H   0  0  0  0  0  0  0  0  0  0  0  0
  141.3975   74.7572  220.9859 H   0  0  0  0  0  0  0  0  0  0  0  0
  143.7034   74.8532  220.1960 H   0  0  0  0  0  0  0  0  0  0  0  0
  1  2  1  0
  2  3  2  0
  2  4  2  0
  2  5  1  0
  5  6  2  0
  6  7  1  0
  7  8  2  0
  8  9  1  0
  9 10  2  0
 10 11  1  0
 11 12  2  0
 12 13  1  0
 13 14  2  0
 14 15  1  0
 15 16  2  0
 16 17  1  0
 17 18  2  0
 18 19  1  0
 19 20  2  0
 19 21  1  0
 21 22  1  0
 22 23  2  0
 23 24  1  0
 24 25  2  0
 25 26  1  0
 26 27  2  0
  8 28  1  0
 28 29  2  0
 29  5  1  0
 21 11  1  0
 27 22  1  0
 18 13  1  0
  1 30  1  0
  1 31  1  0
  1 32  1  0
  6 33  1  0
  7 34  1  0
  9 35  1  0
 10 36  1  0
 14 37  1  0
 15 38  1  0
 16 39  1  0
 17 40  1  0
 23 41  1  0
 24 42  1  0
 25 43  1  0
 26 44  1  0
 27 45  1  0
 28 46  1  0
 29 47  1  0
M  END
>  <smiles>  (14) 
CS(=O)(=O)c1ccc(/C=C/c2nc3ccccc3c(=O)n2-c2ccccc2)cc1

>  <score_type>  (14) 
oracle

>  <origin>  (14) 
autodockgpu

>  <m_score__min__energy>  (14) 
-8.9199999999999999

>  <m_primary>  (14) 
energy

>  <rmsd>  (14) 
11.520752884127688

>  <m_score__min__rmsd>  (14) 
11.520752884127688

>  <meeko>  (14) 
{"free_energy": -8.88, "intermolecular_energy": -10.37, "internal_energy": -1.4, "cluster_size": 36, "cluster_id": 2, "rank_in_cluster": 2}

>  <energy>  (14) 
-8.78

>  <cluster_rmsd>  (14) 
0.37

>  <cluster>  (14) 
2

$$$$

     RDKit          3D

 47 50  0  0  0  0  0  0  0  0999 V2000
  139.9570   68.7460  228.3790 C   0  0  0  0  0  0  0  0  0  0  0  0
  140.1060   68.0420  226.7490 S   0  0  0  0  0  0  0  0  0  0  0  0
  139.0310   67.0340  226.4710 O   0  0  0  0  0  0  0  0  0  0  0  0
  141.4410   67.3730  226.6860 O   0  0  0  0  0  0  0  0  0  0  0  0
  140.0290   69.2930  225.5550 C   0  0  0  0  0  0  0  0  0  0  0  0
  140.7240   70.4660  225.7410 C   0  0  0  0  0  0  0  0  0  0  0  0
  140.6760   71.4860  224.7900 C   0  0  0  0  0  0  0  0  0  0  0  0
  139.9400   71.3690  223.6380 C   0  0  0  0  0  0  0  0  0  0  0  0
  139.8550   72.4070  222.6100 C   0  0  0  0  0  0  0  0  0  0  0  0
  140.8700   72.8800  221.9440 C   0  0  0  0  0  0  0  0  0  0  0  0
  141.1730   74.2150  221.5310 C   0  0  0  0  0  0  0  0  0  0  0  0
  140.3130   75.1940  221.9710 N   0  0  0  0  0  0  0  0  0  0  0  0
  140.4060   76.4770  221.7090 C   0  0  0  0  0  0  0  0  0  0  0  0
  139.4850   77.3460  222.2070 C   0  0  0  0  0  0  0  0  0  0  0  0
  139.6300   78.6850  221.9010 C   0  0  0  0  0  0  0  0  0  0  0  0
  140.6570   79.1720  221.1200 C   0  0  0  0  0  0  0  0  0  0  0  0
  141.5650   78.2520  220.6380 C   0  0  0  0  0  0  0  0  0  0  0  0
  141.4430   76.9240  220.9270 C   0  0  0  0  0  0  0  0  0  0  0  0
  142.3230   75.9840  220.4680 C   0  0  0  0  0  0  0  0  0  0  0  0
  143.2760   76.3840  219.7510 O   0  0  0  0  0  0  0  0  0  0  0  0
  142.1770   74.6440  220.7750 N   0  0  0  0  0  0  0  0  0  0  0  0
  143.1890   73.8310  220.2040 C   0  0  0  0  0  0  0  0  0  0  0  0
  144.4480   73.7780  220.8270 C   0  0  0  0  0  0  0  0  0  0  0  0
  145.4790   73.0360  220.2840 C   0  0  0  0  0  0  0  0  0  0  0  0
  145.2540   72.3360  219.1040 C   0  0  0  0  0  0  0  0  0  0  0  0
  144.0220   72.3760  218.4780 C   0  0  0  0  0  0  0  0  0  0  0  0
  142.9730   73.1190  219.0110 C   0  0  0  0  0  0  0  0  0  0  0  0
  139.2460   70.1680  223.4790 C   0  0  0  0  0  0  0  0  0  0  0  0
  139.2850   69.1590  224.4020 C   0  0  0  0  0  0  0  0  0  0  0  0
  140.1228   67.9627  229.1333 H   0  0  0  0  0  0  0  0  0  0  0  0
  140.7068   69.5409  228.5050 H   0  0  0  0  0  0  0  0  0  0  0  0
  138.9494   69.1690  228.5050 H   0  0  0  0  0  0  0  0  0  0  0  0
  141.3257   70.6015  226.6519 H   0  0  0  0  0  0  0  0  0  0  0  0
  141.2446   72.4105  224.9690 H   0  0  0  0  0  0  0  0  0  0  0  0
  138.8605   72.8184  222.3827 H   0  0  0  0  0  0  0  0  0  0  0  0
  141.6174   72.1280  221.6510 H   0  0  0  0  0  0  0  0  0  0  0  0
  138.6520   76.9935  222.8330 H   0  0  0  0  0  0  0  0  0  0  0  0
  138.8915   79.3965  222.2990 H   0  0  0  0  0  0  0  0  0  0  0  0
  140.7479   80.2442  220.8919 H   0  0  0  0  0  0  0  0  0  0  0  0
  142.4010   78.5946  220.0105 H   0  0  0  0  0  0  0  0  0  0  0  0
  144.6147   74.3355  221.7605 H   0  0  0  0  0  0  0  0  0  0  0  0
  146.4617   72.9996  220.7770 H   0  0  0  0  0  0  0  0  0  0  0  0
  146.0677   71.7420  218.6623 H   0  0  0  0  0  0  0  0  0  0  0  0
  143.8688   71.8127  217.5457 H   0  0  0  0  0  0  0  0  0  0  0  0
  141.9946   73.1487  218.5091 H   0  0  0  0  0  0  0  0  0  0  0  0
  138.6410   70.0268  222.5713 H   0  0  0  0  0  0  0  0  0  0  0  0
  138.7183   68.2334  224.2228 H   0  0  0  0  0  0  0  0  0  0  0  0
  1  2  1  0
  2  3  2  0
  2  4  2  0
  2  5  1  0
  5  6  2  0
  6  7  1  0
  7  8  2  0
  8  9  1  0
  9 10  2  0
 10 11  1  0
 11 12  2  0
 12 13  1  0
 13 14  2  0
 14 15  1  0
 15 16  2  0
 16 17  1  0
 17 18  2  0
 18 19  1  0
 19 20  2  0
 19 21  1  0
 21 22  1  0
 22 23  2  0
 23 24  1  0
 24 25  2  0
 25 26  1  0
 26 27  2  0
  8 28  1  0
 28 29  2  0
 29  5  1  0
 21 11  1  0
 27 22  1  0
 18 13  1  0
  1 30  1  0
  1 31  1  0
  1 32  1  0
  6 33  1  0
  7 34  1  0
  9 35  1  0
 10 36  1  0
 14 37  1  0
 15 38  1  0
 16 39  1  0
 17 40  1  0
 23 41  1  0
 24 42  1  0
 25 43  1  0
 26 44  1  0
 27 45  1  0
 28 46  1  0
 29 47  1  0
M  END
>  <smiles>  (15) 
CS(=O)(=O)c1ccc(/C=C/c2nc3ccccc3c(=O)n2-c2ccccc2)cc1

>  <score_type>  (15) 
oracle

>  <origin>  (15) 
autodockgpu

>  <m_score__min__energy>  (15) 
-8.9199999999999999

>  <m_primary>  (15) 
energy

>  <rmsd>  (15) 
5.047570216263759

>  <m_score__min__rmsd>  (15) 
5.047570216263759

>  <meeko>  (15) 
{"free_energy": -8.92, "intermolecular_energy": -10.41, "internal_energy": -1.17, "cluster_size": 3, "cluster_id": 1, "rank_in_cluster": 1}

>  <energy>  (15) 
-8.77

>  <cluster_rmsd>  (15) 
0.4

>  <cluster>  (15) 
2

$$$$

     RDKit          3D

 47 50  0  0  0  0  0  0  0  0999 V2000
  146.4880   73.3980  221.3200 C   0  0  0  0  0  0  0  0  0  0  0  0
  145.7150   72.5240  219.9720 S   0  0  0  0  0  0  0  0  0  0  0  0
  146.3490   71.1860  219.7330 O   0  0  0  0  0  0  0  0  0  0  0  0
  145.8800   73.3750  218.7540 O   0  0  0  0  0  0  0  0  0  0  0  0
  144.0310   72.3010  220.3000 C   0  0  0  0  0  0  0  0  0  0  0  0
  143.4420   71.0770  220.0780 C   0  0  0  0  0  0  0  0  0  0  0  0
  142.0860   70.8760  220.3370 C   0  0  0  0  0  0  0  0  0  0  0  0
  141.2830   71.8800  220.8180 C   0  0  0  0  0  0  0  0  0  0  0  0
  139.8570   71.7230  221.1040 C   0  0  0  0  0  0  0  0  0  0  0  0
  139.3240   71.7970  222.2910 C   0  0  0  0  0  0  0  0  0  0  0  0
  139.5080   70.9760  223.4470 C   0  0  0  0  0  0  0  0  0  0  0  0
  140.0480   71.5960  224.5500 N   0  0  0  0  0  0  0  0  0  0  0  0
  140.2980   71.0290  225.7070 C   0  0  0  0  0  0  0  0  0  0  0  0
  140.8380   71.7580  226.7230 C   0  0  0  0  0  0  0  0  0  0  0  0
  141.0810   71.1120  227.9200 C   0  0  0  0  0  0  0  0  0  0  0  0
  140.8040   69.7770  228.1260 C   0  0  0  0  0  0  0  0  0  0  0  0
  140.2590   69.0820  227.0660 C   0  0  0  0  0  0  0  0  0  0  0  0
  140.0090   69.6970  225.8730 C   0  0  0  0  0  0  0  0  0  0  0  0
  139.4700   69.0410  224.8020 C   0  0  0  0  0  0  0  0  0  0  0  0
  139.2020   67.8210  224.9460 O   0  0  0  0  0  0  0  0  0  0  0  0
  139.2270   69.6880  223.6050 N   0  0  0  0  0  0  0  0  0  0  0  0
  138.6670   68.8360  222.6190 C   0  0  0  0  0  0  0  0  0  0  0  0
  137.3010   68.5110  222.7000 C   0  0  0  0  0  0  0  0  0  0  0  0
  136.7200   67.6490  221.7900 C   0  0  0  0  0  0  0  0  0  0  0  0
  137.5090   67.1040  220.7830 C   0  0  0  0  0  0  0  0  0  0  0  0
  138.8540   67.4130  220.6870 C   0  0  0  0  0  0  0  0  0  0  0  0
  139.4550   68.2780  221.5970 C   0  0  0  0  0  0  0  0  0  0  0  0
  141.9100   73.1100  221.0310 C   0  0  0  0  0  0  0  0  0  0  0  0
  143.2380   73.3210  220.7830 C   0  0  0  0  0  0  0  0  0  0  0  0
  146.1275   72.9904  222.2760 H   0  0  0  0  0  0  0  0  0  0  0  0
  147.5795   73.2764  221.2579 H   0  0  0  0  0  0  0  0  0  0  0  0
  146.2340   74.4665  221.2579 H   0  0  0  0  0  0  0  0  0  0  0  0
  144.0491   70.2454  219.6908 H   0  0  0  0  0  0  0  0  0  0  0  0
  141.6477   69.8845  220.1504 H   0  0  0  0  0  0  0  0  0  0  0  0
  139.1853   71.5282  220.2549 H   0  0  0  0  0  0  0  0  0  0  0  0
  138.6160   72.6280  222.4257 H   0  0  0  0  0  0  0  0  0  0  0  0
  141.0727   72.8250  226.5949 H   0  0  0  0  0  0  0  0  0  0  0  0
  141.5163   71.6904  228.7483 H   0  0  0  0  0  0  0  0  0  0  0  0
  141.0080   69.2889  229.0904 H   0  0  0  0  0  0  0  0  0  0  0  0
  140.0219   68.0144  227.1841 H   0  0  0  0  0  0  0  0  0  0  0  0
  136.6861   68.9496  223.4997 H   0  0  0  0  0  0  0  0  0  0  0  0
  135.6514   67.3981  221.8608 H   0  0  0  0  0  0  0  0  0  0  0  0
  137.0571   66.4172  220.0522 H   0  0  0  0  0  0  0  0  0  0  0  0
  139.4566   66.9692  219.8808 H   0  0  0  0  0  0  0  0  0  0  0  0
  140.5251   68.5202  221.5181 H   0  0  0  0  0  0  0  0  0  0  0  0
  141.3082   73.9466  221.4156 H   0  0  0  0  0  0  0  0  0  0  0  0
  143.6774   74.3119  220.9701 H   0  0  0  0  0  0  0  0  0  0  0  0
  1  2  1  0
  2  3  2  0
  2  4  2  0
  2  5  1  0
  5  6  2  0
  6  7  1  0
  7  8  2  0
  8  9  1  0
  9 10  2  0
 10 11  1  0
 11 12  2  0
 12 13  1  0
 13 14  2  0
 14 15  1  0
 15 16  2  0
 16 17  1  0
 17 18  2  0
 18 19  1  0
 19 20  2  0
 19 21  1  0
 21 22  1  0
 22 23  2  0
 23 24  1  0
 24 25  2  0
 25 26  1  0
 26 27  2  0
  8 28  1  0
 28 29  2  0
 29  5  1  0
 21 11  1  0
 27 22  1  0
 18 13  1  0
  1 30  1  0
  1 31  1  0
  1 32  1  0
  6 33  1  0
  7 34  1  0
  9 35  1  0
 10 36  1  0
 14 37  1  0
 15 38  1  0
 16 39  1  0
 17 40  1  0
 23 41  1  0
 24 42  1  0
 25 43  1  0
 26 44  1  0
 27 45  1  0
 28 46  1  0
 29 47  1  0
M  END
>  <smiles>  (16) 
CS(=O)(=O)c1ccc(/C=C/c2nc3ccccc3c(=O)n2-c2ccccc2)cc1

>  <score_type>  (16) 
oracle

>  <origin>  (16) 
autodockgpu

>  <m_score__min__energy>  (16) 
-8.9199999999999999

>  <m_primary>  (16) 
energy

>  <rmsd>  (16) 
11.545452270321096

>  <m_score__min__rmsd>  (16) 
11.545452270321096

>  <meeko>  (16) 
{"free_energy": -8.78, "intermolecular_energy": -10.27, "internal_energy": -1.54, "cluster_size": 36, "cluster_id": 2, "rank_in_cluster": 10}

>  <energy>  (16) 
-8.74

>  <cluster_rmsd>  (16) 
0.93

>  <cluster>  (16) 
2

$$$$

     RDKit          3D

 47 50  0  0  0  0  0  0  0  0999 V2000
  146.3740   73.3470  221.3580 C   0  0  0  0  0  0  0  0  0  0  0  0
  145.6510   72.4920  219.9710 S   0  0  0  0  0  0  0  0  0  0  0  0
  146.3140   71.1710  219.7170 O   0  0  0  0  0  0  0  0  0  0  0  0
  145.8310   73.3740  218.7770 O   0  0  0  0  0  0  0  0  0  0  0  0
  143.9630   72.2320  220.2500 C   0  0  0  0  0  0  0  0  0  0  0  0
  143.3840   71.0340  219.9010 C   0  0  0  0  0  0  0  0  0  0  0  0
  142.0250   70.8040  220.1180 C   0  0  0  0  0  0  0  0  0  0  0  0
  141.2110   71.7520  220.6840 C   0  0  0  0  0  0  0  0  0  0  0  0
  139.7810   71.5640  220.9330 C   0  0  0  0  0  0  0  0  0  0  0  0
  139.2160   71.6280  222.1050 C   0  0  0  0  0  0  0  0  0  0  0  0
  139.4600   70.8810  223.3000 C   0  0  0  0  0  0  0  0  0  0  0  0
  140.0830   71.5600  224.3210 N   0  0  0  0  0  0  0  0  0  0  0  0
  140.3990   71.0660  225.4950 C   0  0  0  0  0  0  0  0  0  0  0  0
  141.0170   71.8480  226.4230 C   0  0  0  0  0  0  0  0  0  0  0  0
  141.3280   71.2770  227.6420 C   0  0  0  0  0  0  0  0  0  0  0  0
  141.0410   69.9660  227.9550 C   0  0  0  0  0  0  0  0  0  0  0  0
  140.4150   69.2140  226.9820 C   0  0  0  0  0  0  0  0  0  0  0  0
  140.0980   69.7540  225.7690 C   0  0  0  0  0  0  0  0  0  0  0  0
  139.4780   69.0410  224.7820 C   0  0  0  0  0  0  0  0  0  0  0  0
  139.1980   67.8400  225.0240 O   0  0  0  0  0  0  0  0  0  0  0  0
  139.1670   69.6130  223.5620 N   0  0  0  0  0  0  0  0  0  0  0  0
  138.5280   68.7100  222.6740 C   0  0  0  0  0  0  0  0  0  0  0  0
  137.1300   68.5720  222.7370 C   0  0  0  0  0  0  0  0  0  0  0  0
  136.4670   67.6730  221.9240 C   0  0  0  0  0  0  0  0  0  0  0  0
  137.2060   66.9000  221.0340 C   0  0  0  0  0  0  0  0  0  0  0  0
  138.5810   67.0230  220.9590 C   0  0  0  0  0  0  0  0  0  0  0  0
  139.2650   67.9230  221.7710 C   0  0  0  0  0  0  0  0  0  0  0  0
  141.8280   72.9570  221.0270 C   0  0  0  0  0  0  0  0  0  0  0  0
  143.1590   73.1960  220.8200 C   0  0  0  0  0  0  0  0  0  0  0  0
  146.0017   72.9067  222.2947 H   0  0  0  0  0  0  0  0  0  0  0  0
  147.4691   73.2510  221.3176 H   0  0  0  0  0  0  0  0  0  0  0  0
  146.0974   74.4109  221.3176 H   0  0  0  0  0  0  0  0  0  0  0  0
  144.0011   70.2462  219.4444 H   0  0  0  0  0  0  0  0  0  0  0  0
  141.5940   69.8347  219.8268 H   0  0  0  0  0  0  0  0  0  0  0  0
  139.1362   71.3532  220.0671 H   0  0  0  0  0  0  0  0  0  0  0  0
  138.4191   72.3815  222.1896 H   0  0  0  0  0  0  0  0  0  0  0  0
  141.2604   72.8992  226.2092 H   0  0  0  0  0  0  0  0  0  0  0  0
  141.8287   71.8986  228.3989 H   0  0  0  0  0  0  0  0  0  0  0  0
  141.2990   69.5387  228.9352 H   0  0  0  0  0  0  0  0  0  0  0  0
  140.1673   68.1621  227.1872 H   0  0  0  0  0  0  0  0  0  0  0  0
  136.5559   69.1889  223.4440 H   0  0  0  0  0  0  0  0  0  0  0  0
  135.3732   67.5701  221.9794 H   0  0  0  0  0  0  0  0  0  0  0  0
  136.6892   66.1812  220.3811 H   0  0  0  0  0  0  0  0  0  0  0  0
  139.1427   66.4004  220.2471 H   0  0  0  0  0  0  0  0  0  0  0  0
  140.3592   68.0168  221.7078 H   0  0  0  0  0  0  0  0  0  0  0  0
  141.2166   73.7491  221.4839 H   0  0  0  0  0  0  0  0  0  0  0  0
  143.5911   74.1649  221.1107 H   0  0  0  0  0  0  0  0  0  0  0  0
  1  2  1  0
  2  3  2  0
  2  4  2  0
  2  5  1  0
  5  6  2  0
  6  7  1  0
  7  8  2  0
  8  9  1  0
  9 10  2  0
 10 11  1  0
 11 12  2  0
 12 13  1  0
 13 14  2  0
 14 15  1  0
 15 16  2  0
 16 17  1  0
 17 18  2  0
 18 19  1  0
 19 20  2  0
 19 21  1  0
 21 22  1  0
 22 23  2  0
 23 24  1  0
 24 25  2  0
 25 26  1  0
 26 27  2  0
  8 28  1  0
 28 29  2  0
 29  5  1  0
 21 11  1  0
 27 22  1  0
 18 13  1  0
  1 30  1  0
  1 31  1  0
  1 32  1  0
  6 33  1  0
  7 34  1  0
  9 35  1  0
 10 36  1  0
 14 37  1  0
 15 38  1  0
 16 39  1  0
 17 40  1  0
 23 41  1  0
 24 42  1  0
 25 43  1  0
 26 44  1  0
 27 45  1  0
 28 46  1  0
 29 47  1  0
M  END
>  <smiles>  (17) 
CS(=O)(=O)c1ccc(/C=C/c2nc3ccccc3c(=O)n2-c2ccccc2)cc1

>  <score_type>  (17) 
oracle

>  <origin>  (17) 
autodockgpu

>  <m_score__min__energy>  (17) 
-8.9199999999999999

>  <m_primary>  (17) 
energy

>  <rmsd>  (17) 
11.533754816036582

>  <m_score__min__rmsd>  (17) 
11.533754816036582

>  <meeko>  (17) 
{"free_energy": -8.62, "intermolecular_energy": -10.11, "internal_energy": -1.55, "cluster_size": 36, "cluster_id": 2, "rank_in_cluster": 26}

>  <energy>  (17) 
-8.73

>  <cluster_rmsd>  (17) 
0.96

>  <cluster>  (17) 
2

$$$$

     RDKit          3D

 47 50  0  0  0  0  0  0  0  0999 V2000
  146.6810   73.7320  220.8190 C   0  0  0  0  0  0  0  0  0  0  0  0
  145.6750   72.7230  219.7480 S   0  0  0  0  0  0  0  0  0  0  0  0
  146.1970   71.3210  219.6430 O   0  0  0  0  0  0  0  0  0  0  0  0
  145.7010   73.3640  218.3980 O   0  0  0  0  0  0  0  0  0  0  0  0
  144.0480   72.6770  220.3360 C   0  0  0  0  0  0  0  0  0  0  0  0
  143.2860   73.8230  220.3480 C   0  0  0  0  0  0  0  0  0  0  0  0
  141.9720   73.8070  220.8160 C   0  0  0  0  0  0  0  0  0  0  0  0
  141.3840   72.6580  221.2830 C   0  0  0  0  0  0  0  0  0  0  0  0
  140.0120   72.5860  221.7860 C   0  0  0  0  0  0  0  0  0  0  0  0
  139.4360   71.5020  222.2240 C   0  0  0  0  0  0  0  0  0  0  0  0
  139.5310   70.8440  223.4900 C   0  0  0  0  0  0  0  0  0  0  0  0
  140.1910   71.5320  224.4820 N   0  0  0  0  0  0  0  0  0  0  0  0
  140.3900   71.1120  225.7090 C   0  0  0  0  0  0  0  0  0  0  0  0
  141.0620   71.8930  226.5990 C   0  0  0  0  0  0  0  0  0  0  0  0
  141.2440   71.4030  227.8780 C   0  0  0  0  0  0  0  0  0  0  0  0
  140.7770   70.1710  228.2860 C   0  0  0  0  0  0  0  0  0  0  0  0
  140.1030   69.4170  227.3480 C   0  0  0  0  0  0  0  0  0  0  0  0
  139.9110   69.8790  226.0780 C   0  0  0  0  0  0  0  0  0  0  0  0
  139.2470   69.1610  225.1230 C   0  0  0  0  0  0  0  0  0  0  0  0
  138.8050   68.0300  225.4520 O   0  0  0  0  0  0  0  0  0  0  0  0
  139.0660   69.6510  223.8440 N   0  0  0  0  0  0  0  0  0  0  0  0
  138.3560   68.7570  223.0030 C   0  0  0  0  0  0  0  0  0  0  0  0
  139.0760   67.7950  222.2730 C   0  0  0  0  0  0  0  0  0  0  0  0
  138.4330   66.9320  221.4070 C   0  0  0  0  0  0  0  0  0  0  0  0
  137.0530   67.0260  221.2660 C   0  0  0  0  0  0  0  0  0  0  0  0
  136.3280   67.9650  221.9760 C   0  0  0  0  0  0  0  0  0  0  0  0
  136.9600   68.8440  222.8520 C   0  0  0  0  0  0  0  0  0  0  0  0
  142.1810   71.5120  221.2580 C   0  0  0  0  0  0  0  0  0  0  0  0
  143.4710   71.5140  220.8020 C   0  0  0  0  0  0  0  0  0  0  0  0
  146.4480   73.4983  221.8683 H   0  0  0  0  0  0  0  0  0  0  0  0
  147.7440   73.5261  220.6248 H   0  0  0  0  0  0  0  0  0  0  0  0
  146.4719   74.7943  220.6248 H   0  0  0  0  0  0  0  0  0  0  0  0
  143.7196   74.7657  219.9831 H   0  0  0  0  0  0  0  0  0  0  0  0
  141.3910   74.7410  220.8106 H   0  0  0  0  0  0  0  0  0  0  0  0
  139.4233   73.5151  221.7952 H   0  0  0  0  0  0  0  0  0  0  0  0
  138.7668   71.0129  221.5009 H   0  0  0  0  0  0  0  0  0  0  0  0
  141.4474   72.8817  226.3093 H   0  0  0  0  0  0  0  0  0  0  0  0
  141.7869   72.0247  228.6051 H   0  0  0  0  0  0  0  0  0  0  0  0
  140.9347   69.8066  229.3118 H   0  0  0  0  0  0  0  0  0  0  0  0
  139.7138   68.4270  227.6281 H   0  0  0  0  0  0  0  0  0  0  0  0
  140.1674   67.7286  222.3932 H   0  0  0  0  0  0  0  0  0  0  0  0
  139.0033   66.1828  220.8383 H   0  0  0  0  0  0  0  0  0  0  0  0
  136.5305   66.3434  220.5797 H   0  0  0  0  0  0  0  0  0  0  0  0
  135.2369   68.0185  221.8472 H   0  0  0  0  0  0  0  0  0  0  0  0
  136.3798   69.5907  223.4141 H   0  0  0  0  0  0  0  0  0  0  0  0
  141.7530   70.5659  221.6208 H   0  0  0  0  0  0  0  0  0  0  0  0
  144.0528   70.5804  220.8071 H   0  0  0  0  0  0  0  0  0  0  0  0
  1  2  1  0
  2  3  2  0
  2  4  2  0
  2  5  1  0
  5  6  2  0
  6  7  1  0
  7  8  2  0
  8  9  1  0
  9 10  2  0
 10 11  1  0
 11 12  2  0
 12 13  1  0
 13 14  2  0
 14 15  1  0
 15 16  2  0
 16 17  1  0
 17 18  2  0
 18 19  1  0
 19 20  2  0
 19 21  1  0
 21 22  1  0
 22 23  2  0
 23 24  1  0
 24 25  2  0
 25 26  1  0
 26 27  2  0
  8 28  1  0
 28 29  2  0
 29  5  1  0
 21 11  1  0
 27 22  1  0
 18 13  1  0
  1 30  1  0
  1 31  1  0
  1 32  1  0
  6 33  1  0
  7 34  1  0
  9 35  1  0
 10 36  1  0
 14 37  1  0
 15 38  1  0
 16 39  1  0
 17 40  1  0
 23 41  1  0
 24 42  1  0
 25 43  1  0
 26 44  1  0
 27 45  1  0
 28 46  1  0
 29 47  1  0
M  END
>  <smiles>  (18) 
CS(=O)(=O)c1ccc(/C=C/c2nc3ccccc3c(=O)n2-c2ccccc2)cc1

>  <score_type>  (18) 
oracle

>  <origin>  (18) 
autodockgpu

>  <m_score__min__energy>  (18) 
-8.9199999999999999

>  <m_primary>  (18) 
energy

>  <rmsd>  (18) 
11.547855559934082

>  <m_score__min__rmsd>  (18) 
11.547855559934082

>  <meeko>  (18) 
{"free_energy": -8.88, "intermolecular_energy": -10.37, "internal_energy": -1.38, "cluster_size": 36, "cluster_id": 2, "rank_in_cluster": 3}

>  <energy>  (18) 
-8.72

>  <cluster_rmsd>  (18) 
0.98

>  <cluster>  (18) 
2

$$$$

     RDKit          3D

 47 50  0  0  0  0  0  0  0  0999 V2000
  146.3970   73.2130  221.0740 C   0  0  0  0  0  0  0  0  0  0  0  0
  145.3950   72.3630  219.8700 S   0  0  0  0  0  0  0  0  0  0  0  0
  145.8300   70.9400  219.6800 O   0  0  0  0  0  0  0  0  0  0  0  0
  145.5480   73.1030  218.5800 O   0  0  0  0  0  0  0  0  0  0  0  0
  143.7350   72.3860  220.3570 C   0  0  0  0  0  0  0  0  0  0  0  0
  143.1590   73.5600  220.7860 C   0  0  0  0  0  0  0  0  0  0  0  0
  141.8220   73.6010  221.1820 C   0  0  0  0  0  0  0  0  0  0  0  0
  141.0270   72.4820  221.1640 C   0  0  0  0  0  0  0  0  0  0  0  0
  139.6220   72.4690  221.5700 C   0  0  0  0  0  0  0  0  0  0  0  0
  139.0190   71.4590  222.1320 C   0  0  0  0  0  0  0  0  0  0  0  0
  139.3030   70.7640  223.3490 C   0  0  0  0  0  0  0  0  0  0  0  0
  139.9040   71.5040  224.3410 N   0  0  0  0  0  0  0  0  0  0  0  0
  140.2480   71.0640  225.5290 C   0  0  0  0  0  0  0  0  0  0  0  0
  140.8390   71.9030  226.4250 C   0  0  0  0  0  0  0  0  0  0  0  0
  141.1810   71.3880  227.6600 C   0  0  0  0  0  0  0  0  0  0  0  0
  140.9520   70.0770  228.0200 C   0  0  0  0  0  0  0  0  0  0  0  0
  140.3520   69.2670  227.0780 C   0  0  0  0  0  0  0  0  0  0  0  0
  140.0050   69.7510  225.8510 C   0  0  0  0  0  0  0  0  0  0  0  0
  139.4080   68.9790  224.8930 C   0  0  0  0  0  0  0  0  0  0  0  0
  139.1810   67.7760  225.1780 O   0  0  0  0  0  0  0  0  0  0  0  0
  139.0660   69.4950  223.6570 N   0  0  0  0  0  0  0  0  0  0  0  0
  138.4600   68.5360  222.8060 C   0  0  0  0  0  0  0  0  0  0  0  0
  137.0560   68.4690  222.7500 C   0  0  0  0  0  0  0  0  0  0  0  0
  136.4200   67.5230  221.9700 C   0  0  0  0  0  0  0  0  0  0  0  0
  137.1910   66.6300  221.2340 C   0  0  0  0  0  0  0  0  0  0  0  0
  138.5730   66.6820  221.2760 C   0  0  0  0  0  0  0  0  0  0  0  0
  139.2300   67.6280  222.0570 C   0  0  0  0  0  0  0  0  0  0  0  0
  141.6400   71.3070  220.7250 C   0  0  0  0  0  0  0  0  0  0  0  0
  142.9500   71.2530  220.3330 C   0  0  0  0  0  0  0  0  0  0  0  0
  146.0689   72.9346  222.0863 H   0  0  0  0  0  0  0  0  0  0  0  0
  147.4513   72.9296  220.9394 H   0  0  0  0  0  0  0  0  0  0  0  0
  146.2893   74.2994  220.9394 H   0  0  0  0  0  0  0  0  0  0  0  0
  143.7618   74.4796  220.8171 H   0  0  0  0  0  0  0  0  0  0  0  0
  141.3929   74.5565  221.5180 H   0  0  0  0  0  0  0  0  0  0  0  0
  139.0305   73.3784  221.3878 H   0  0  0  0  0  0  0  0  0  0  0  0
  138.1478   71.0786  221.5786 H   0  0  0  0  0  0  0  0  0  0  0  0
  141.0372   72.9553  226.1733 H   0  0  0  0  0  0  0  0  0  0  0  0
  141.6591   72.0560  228.3916 H   0  0  0  0  0  0  0  0  0  0  0  0
  141.2345   69.6947  229.0120 H   0  0  0  0  0  0  0  0  0  0  0  0
  140.1501   68.2132  227.3206 H   0  0  0  0  0  0  0  0  0  0  0  0
  136.4558   69.1805  223.3361 H   0  0  0  0  0  0  0  0  0  0  0  0
  135.3216   67.4768  221.9317 H   0  0  0  0  0  0  0  0  0  0  0  0
  136.6954   65.8718  220.6098 H   0  0  0  0  0  0  0  0  0  0  0  0
  139.1608   65.9653  220.6836 H   0  0  0  0  0  0  0  0  0  0  0  0
  140.3289   67.6649  222.0880 H   0  0  0  0  0  0  0  0  0  0  0  0
  141.0434   70.3834  220.6928 H   0  0  0  0  0  0  0  0  0  0  0  0
  143.3799   70.2982  219.9961 H   0  0  0  0  0  0  0  0  0  0  0  0
  1  2  1  0
  2  3  2  0
  2  4  2  0
  2  5  1  0
  5  6  2  0
  6  7  1  0
  7  8  2  0
  8  9  1  0
  9 10  2  0
 10 11  1  0
 11 12  2  0
 12 13  1  0
 13 14  2  0
 14 15  1  0
 15 16  2  0
 16 17  1  0
 17 18  2  0
 18 19  1  0
 19 20  2  0
 19 21  1  0
 21 22  1  0
 22 23  2  0
 23 24  1  0
 24 25  2  0
 25 26  1  0
 26 27  2  0
  8 28  1  0
 28 29  2  0
 29  5  1  0
 21 11  1  0
 27 22  1  0
 18 13  1  0
  1 30  1  0
  1 31  1  0
  1 32  1  0
  6 33  1  0
  7 34  1  0
  9 35  1  0
 10 36  1  0
 14 37  1  0
 15 38  1  0
 16 39  1  0
 17 40  1  0
 23 41  1  0
 24 42  1  0
 25 43  1  0
 26 44  1  0
 27 45  1  0
 28 46  1  0
 29 47  1  0
M  END
>  <smiles>  (19) 
CS(=O)(=O)c1ccc(/C=C/c2nc3ccccc3c(=O)n2-c2ccccc2)cc1

>  <score_type>  (19) 
oracle

>  <origin>  (19) 
autodockgpu

>  <m_score__min__energy>  (19) 
-8.9199999999999999

>  <m_primary>  (19) 
energy

>  <rmsd>  (19) 
11.612295169224309

>  <m_score__min__rmsd>  (19) 
11.612295169224309

>  <meeko>  (19) 
{"free_energy": -8.55, "intermolecular_energy": -10.04, "internal_energy": -1.49, "cluster_size": 36, "cluster_id": 2, "rank_in_cluster": 28}

>  <energy>  (19) 
-8.71

>  <cluster_rmsd>  (19) 
0.92

>  <cluster>  (19) 
2

$$$$

     RDKit          3D

 47 50  0  0  0  0  0  0  0  0999 V2000
  144.9660   73.7210  217.2940 C   0  0  0  0  0  0  0  0  0  0  0  0
  145.2760   72.8130  218.7960 S   0  0  0  0  0  0  0  0  0  0  0  0
  146.4260   73.3840  219.5720 O   0  0  0  0  0  0  0  0  0  0  0  0
  145.5990   71.4090  218.3950 O   0  0  0  0  0  0  0  0  0  0  0  0
  143.8620   72.8190  219.7940 C   0  0  0  0  0  0  0  0  0  0  0  0
  143.1840   73.9950  220.0200 C   0  0  0  0  0  0  0  0  0  0  0  0
  142.0410   74.0210  220.8200 C   0  0  0  0  0  0  0  0  0  0  0  0
  141.5470   72.8880  221.4150 C   0  0  0  0  0  0  0  0  0  0  0  0
  140.3550   72.8600  222.2640 C   0  0  0  0  0  0  0  0  0  0  0  0
  139.6670   71.7890  222.5450 C   0  0  0  0  0  0  0  0  0  0  0  0
  139.7300   70.9110  223.6720 C   0  0  0  0  0  0  0  0  0  0  0  0
  140.2590   71.4440  224.8250 N   0  0  0  0  0  0  0  0  0  0  0  0
  140.4070   70.8150  225.9670 C   0  0  0  0  0  0  0  0  0  0  0  0
  140.9470   71.4590  227.0390 C   0  0  0  0  0  0  0  0  0  0  0  0
  141.0810   70.7490  228.2160 C   0  0  0  0  0  0  0  0  0  0  0  0
  140.6940   69.4330  228.3510 C   0  0  0  0  0  0  0  0  0  0  0  0
  140.1530   68.8240  227.2370 C   0  0  0  0  0  0  0  0  0  0  0  0
  140.0110   69.5030  226.0620 C   0  0  0  0  0  0  0  0  0  0  0  0
  139.4790   68.9330  224.9390 C   0  0  0  0  0  0  0  0  0  0  0  0
  139.1130   67.7330  225.0160 O   0  0  0  0  0  0  0  0  0  0  0  0
  139.3460   69.6430  223.7610 N   0  0  0  0  0  0  0  0  0  0  0  0
  138.7740   68.8770  222.7140 C   0  0  0  0  0  0  0  0  0  0  0  0
  139.5680   68.5520  221.5990 C   0  0  0  0  0  0  0  0  0  0  0  0
  139.0440   67.8450  220.5340 C   0  0  0  0  0  0  0  0  0  0  0  0
  137.7090   67.4560  220.5780 C   0  0  0  0  0  0  0  0  0  0  0  0
  136.9140   67.7660  221.6660 C   0  0  0  0  0  0  0  0  0  0  0  0
  137.4260   68.4780  222.7470 C   0  0  0  0  0  0  0  0  0  0  0  0
  142.2570   71.7110  221.1680 C   0  0  0  0  0  0  0  0  0  0  0  0
  143.3780   71.6710  220.3850 C   0  0  0  0  0  0  0  0  0  0  0  0
  144.6198   74.7349  217.5433 H   0  0  0  0  0  0  0  0  0  0  0  0
  145.8934   73.7844  216.7059 H   0  0  0  0  0  0  0  0  0  0  0  0
  144.1934   73.2041  216.7059 H   0  0  0  0  0  0  0  0  0  0  0  0
  143.5481   74.9273  219.5637 H   0  0  0  0  0  0  0  0  0  0  0  0
  141.5212   74.9775  220.9781 H   0  0  0  0  0  0  0  0  0  0  0  0
  140.0148   73.8124  222.6966 H   0  0  0  0  0  0  0  0  0  0  0  0
  138.9141   71.5156  221.7911 H   0  0  0  0  0  0  0  0  0  0  0  0
  141.2657   72.5095  226.9695 H   0  0  0  0  0  0  0  0  0  0  0  0
  141.5176   71.2583  229.0878 H   0  0  0  0  0  0  0  0  0  0  0  0
  140.8109   68.8933  229.3023 H   0  0  0  0  0  0  0  0  0  0  0  0
  139.8310   67.7739  227.2973 H   0  0  0  0  0  0  0  0  0  0  0  0
  140.6221   68.8656  221.5748 H   0  0  0  0  0  0  0  0  0  0  0  0
  139.6716   67.5940  219.6662 H   0  0  0  0  0  0  0  0  0  0  0  0
  137.2799   66.8939  219.7354 H   0  0  0  0  0  0  0  0  0  0  0  0
  135.8618   67.4454  221.6775 H   0  0  0  0  0  0  0  0  0  0  0  0
  136.7890   68.7235  223.6095 H   0  0  0  0  0  0  0  0  0  0  0  0
  141.8993   70.7755  221.6228 H   0  0  0  0  0  0  0  0  0  0  0  0
  143.8978   70.7148  220.2254 H   0  0  0  0  0  0  0  0  0  0  0  0
  1  2  1  0
  2  3  2  0
  2  4  2  0
  2  5  1  0
  5  6  2  0
  6  7  1  0
  7  8  2  0
  8  9  1  0
  9 10  2  0
 10 11  1  0
 11 12  2  0
 12 13  1  0
 13 14  2  0
 14 15  1  0
 15 16  2  0
 16 17  1  0
 17 18  2  0
 18 19  1  0
 19 20  2  0
 19 21  1  0
 21 22  1  0
 22 23  2  0
 23 24  1  0
 24 25  2  0
 25 26  1  0
 26 27  2  0
  8 28  1  0
 28 29  2  0
 29  5  1  0
 21 11  1  0
 27 22  1  0
 18 13  1  0
  1 30  1  0
  1 31  1  0
  1 32  1  0
  6 33  1  0
  7 34  1  0
  9 35  1  0
 10 36  1  0
 14 37  1  0
 15 38  1  0
 16 39  1  0
 17 40  1  0
 23 41  1  0
 24 42  1  0
 25 43  1  0
 26 44  1  0
 27 45  1  0
 28 46  1  0
 29 47  1  0
M  END
>  <smiles>  (20) 
CS(=O)(=O)c1ccc(/C=C/c2nc3ccccc3c(=O)n2-c2ccccc2)cc1

>  <score_type>  (20) 
oracle

>  <origin>  (20) 
autodockgpu

>  <m_score__min__energy>  (20) 
-8.9199999999999999

>  <m_primary>  (20) 
energy

>  <rmsd>  (20) 
11.520429262500185

>  <m_score__min__rmsd>  (20) 
11.520429262500185

>  <meeko>  (20) 
{"free_energy": -8.7, "intermolecular_energy": -10.19, "internal_energy": -1.34, "cluster_size": 36, "cluster_id": 2, "rank_in_cluster": 18}

>  <energy>  (20) 
-8.71

>  <cluster_rmsd>  (20) 
0.87

>  <cluster>  (20) 
2

$$$$

     RDKit          3D

 47 50  0  0  0  0  0  0  0  0999 V2000
  144.0820   67.0170  218.5870 C   0  0  0  0  0  0  0  0  0  0  0  0
  144.6670   68.6410  219.0310 S   0  0  0  0  0  0  0  0  0  0  0  0
  145.2390   69.3740  217.8530 O   0  0  0  0  0  0  0  0  0  0  0  0
  145.7340   68.4520  220.0610 O   0  0  0  0  0  0  0  0  0  0  0  0
  143.3730   69.5740  219.7020 C   0  0  0  0  0  0  0  0  0  0  0  0
  143.6390   70.7700  220.3280 C   0  0  0  0  0  0  0  0  0  0  0  0
  142.6100   71.5380  220.8750 C   0  0  0  0  0  0  0  0  0  0  0  0
  141.2980   71.1390  220.8150 C   0  0  0  0  0  0  0  0  0  0  0  0
  140.1820   71.9030  221.3720 C   0  0  0  0  0  0  0  0  0  0  0  0
  139.2880   71.4250  222.1910 C   0  0  0  0  0  0  0  0  0  0  0  0
  139.4390   70.7210  223.4270 C   0  0  0  0  0  0  0  0  0  0  0  0
  140.0340   71.4190  224.4510 N   0  0  0  0  0  0  0  0  0  0  0  0
  140.2670   70.9640  225.6600 C   0  0  0  0  0  0  0  0  0  0  0  0
  140.8670   71.7600  226.5880 C   0  0  0  0  0  0  0  0  0  0  0  0
  141.0890   71.2310  227.8440 C   0  0  0  0  0  0  0  0  0  0  0  0
  140.7330   69.9460  228.1940 C   0  0  0  0  0  0  0  0  0  0  0  0
  140.1290   69.1780  227.2200 C   0  0  0  0  0  0  0  0  0  0  0  0
  139.8990   69.6780  225.9710 C   0  0  0  0  0  0  0  0  0  0  0  0
  139.3030   68.9480  224.9810 C   0  0  0  0  0  0  0  0  0  0  0  0
  138.9620   67.7690  225.2560 O   0  0  0  0  0  0  0  0  0  0  0  0
  139.0810   69.4780  223.7240 N   0  0  0  0  0  0  0  0  0  0  0  0
  138.4540   68.5630  222.8400 C   0  0  0  0  0  0  0  0  0  0  0  0
  137.0490   68.5330  222.7800 C   0  0  0  0  0  0  0  0  0  0  0  0
  136.3910   67.6290  221.9680 C   0  0  0  0  0  0  0  0  0  0  0  0
  137.1420   66.7430  221.2030 C   0  0  0  0  0  0  0  0  0  0  0  0
  138.5240   66.7590  221.2490 C   0  0  0  0  0  0  0  0  0  0  0  0
  139.2030   67.6620  222.0630 C   0  0  0  0  0  0  0  0  0  0  0  0
  141.0610   69.9210  220.1730 C   0  0  0  0  0  0  0  0  0  0  0  0
  142.0600   69.1590  219.6320 C   0  0  0  0  0  0  0  0  0  0  0  0
  143.8741   66.4398  219.5001 H   0  0  0  0  0  0  0  0  0  0  0  0
  143.1604   67.1088  217.9935 H   0  0  0  0  0  0  0  0  0  0  0  0
  144.8504   66.5000  217.9935 H   0  0  0  0  0  0  0  0  0  0  0  0
  144.6774   71.1259  220.3984 H   0  0  0  0  0  0  0  0  0  0  0  0
  142.8573   72.4897  221.3680 H   0  0  0  0  0  0  0  0  0  0  0  0
  140.0905   72.9590  221.0779 H   0  0  0  0  0  0  0  0  0  0  0  0
  138.2457   71.5901  221.8807 H   0  0  0  0  0  0  0  0  0  0  0  0
  141.1650   72.7906  226.3449 H   0  0  0  0  0  0  0  0  0  0  0  0
  141.5730   71.8651  228.6014 H   0  0  0  0  0  0  0  0  0  0  0  0
  140.9218   69.5513  229.2032 H   0  0  0  0  0  0  0  0  0  0  0  0
  139.8279   68.1461  227.4538 H   0  0  0  0  0  0  0  0  0  0  0  0
  136.4654   69.2396  223.3884 H   0  0  0  0  0  0  0  0  0  0  0  0
  135.2919   67.6105  221.9274 H   0  0  0  0  0  0  0  0  0  0  0  0
  136.6294   66.0193  220.5522 H   0  0  0  0  0  0  0  0  0  0  0  0
  139.0951   66.0482  220.6337 H   0  0  0  0  0  0  0  0  0  0  0  0
  140.3024   67.6702  222.0974 H   0  0  0  0  0  0  0  0  0  0  0  0
  140.0250   69.5586  220.0993 H   0  0  0  0  0  0  0  0  0  0  0  0
  141.8139   68.2078  219.1373 H   0  0  0  0  0  0  0  0  0  0  0  0
  1  2  1  0
  2  3  2  0
  2  4  2  0
  2  5  1  0
  5  6  2  0
  6  7  1  0
  7  8  2  0
  8  9  1  0
  9 10  2  0
 10 11  1  0
 11 12  2  0
 12 13  1  0
 13 14  2  0
 14 15  1  0
 15 16  2  0
 16 17  1  0
 17 18  2  0
 18 19  1  0
 19 20  2  0
 19 21  1  0
 21 22  1  0
 22 23  2  0
 23 24  1  0
 24 25  2  0
 25 26  1  0
 26 27  2  0
  8 28  1  0
 28 29  2  0
 29  5  1  0
 21 11  1  0
 27 22  1  0
 18 13  1  0
  1 30  1  0
  1 31  1  0
  1 32  1  0
  6 33  1  0
  7 34  1  0
  9 35  1  0
 10 36  1  0
 14 37  1  0
 15 38  1  0
 16 39  1  0
 17 40  1  0
 23 41  1  0
 24 42  1  0
 25 43  1  0
 26 44  1  0
 27 45  1  0
 28 46  1  0
 29 47  1  0
M  END
>  <smiles>  (21) 
CS(=O)(=O)c1ccc(/C=C/c2nc3ccccc3c(=O)n2-c2ccccc2)cc1

>  <score_type>  (21) 
oracle

>  <origin>  (21) 
autodockgpu

>  <m_score__min__energy>  (21) 
-8.9199999999999999

>  <m_primary>  (21) 
energy

>  <rmsd>  (21) 
11.681036902237645

>  <m_score__min__rmsd>  (21) 
11.681036902237645

>  <meeko>  (21) 
{"free_energy": -8.08, "intermolecular_energy": -9.57, "internal_energy": -1.7, "cluster_size": 36, "cluster_id": 2, "rank_in_cluster": 36}

>  <energy>  (21) 
-8.7

>  <cluster_rmsd>  (21) 
1.0

>  <cluster>  (21) 
2

$$$$

     RDKit          3D

 47 50  0  0  0  0  0  0  0  0999 V2000
  145.1790   73.7470  217.3210 C   0  0  0  0  0  0  0  0  0  0  0  0
  145.3950   72.8310  218.8340 S   0  0  0  0  0  0  0  0  0  0  0  0
  146.4760   73.4150  219.6960 O   0  0  0  0  0  0  0  0  0  0  0  0
  145.7690   71.4360  218.4470 O   0  0  0  0  0  0  0  0  0  0  0  0
  143.9130   72.8060  219.7280 C   0  0  0  0  0  0  0  0  0  0  0  0
  143.1710   73.9570  219.8630 C   0  0  0  0  0  0  0  0  0  0  0  0
  141.9730   73.9570  220.5780 C   0  0  0  0  0  0  0  0  0  0  0  0
  141.4840   72.8220  221.1750 C   0  0  0  0  0  0  0  0  0  0  0  0
  140.2360   72.7680  221.9360 C   0  0  0  0  0  0  0  0  0  0  0  0
  139.6340   71.6710  222.3010 C   0  0  0  0  0  0  0  0  0  0  0  0
  139.6730   70.9540  223.5380 C   0  0  0  0  0  0  0  0  0  0  0  0
  140.3060   71.5850  224.5830 N   0  0  0  0  0  0  0  0  0  0  0  0
  140.4530   71.1060  225.7960 C   0  0  0  0  0  0  0  0  0  0  0  0
  141.1050   71.8350  226.7450 C   0  0  0  0  0  0  0  0  0  0  0  0
  141.2320   71.2840  228.0050 C   0  0  0  0  0  0  0  0  0  0  0  0
  140.7320   70.0430  228.3390 C   0  0  0  0  0  0  0  0  0  0  0  0
  140.0810   69.3430  227.3440 C   0  0  0  0  0  0  0  0  0  0  0  0
  139.9430   69.8660  226.0900 C   0  0  0  0  0  0  0  0  0  0  0  0
  139.3040   69.2030  225.0800 C   0  0  0  0  0  0  0  0  0  0  0  0
  138.8330   68.0660  225.3400 O   0  0  0  0  0  0  0  0  0  0  0  0
  139.1770   69.7540  223.8190 N   0  0  0  0  0  0  0  0  0  0  0  0
  138.4850   68.9120  222.9130 C   0  0  0  0  0  0  0  0  0  0  0  0
  137.0790   68.9490  222.8910 C   0  0  0  0  0  0  0  0  0  0  0  0
  136.3590   68.1150  222.0570 C   0  0  0  0  0  0  0  0  0  0  0  0
  137.0470   67.2310  221.2330 C   0  0  0  0  0  0  0  0  0  0  0  0
  138.4290   67.1810  221.2410 C   0  0  0  0  0  0  0  0  0  0  0  0
  139.1700   68.0140  222.0750 C   0  0  0  0  0  0  0  0  0  0  0  0
  142.2600   71.6710  221.0200 C   0  0  0  0  0  0  0  0  0  0  0  0
  143.4360   71.6560  220.3210 C   0  0  0  0  0  0  0  0  0  0  0  0
  144.9324   74.7926  217.5574 H   0  0  0  0  0  0  0  0  0  0  0  0
  146.1098   73.7131  216.7358 H   0  0  0  0  0  0  0  0  0  0  0  0
  144.3614   73.3008  216.7358 H   0  0  0  0  0  0  0  0  0  0  0  0
  143.5272   74.8896  219.4010 H   0  0  0  0  0  0  0  0  0  0  0  0
  141.4037   74.8941  220.6658 H   0  0  0  0  0  0  0  0  0  0  0  0
  139.7713   73.7234  222.2212 H   0  0  0  0  0  0  0  0  0  0  0  0
  138.9896   71.2226  221.5305 H   0  0  0  0  0  0  0  0  0  0  0  0
  141.5163   72.8290  226.5151 H   0  0  0  0  0  0  0  0  0  0  0  0
  141.7571   71.8627  228.7792 H   0  0  0  0  0  0  0  0  0  0  0  0
  140.8469   69.6301  229.3521 H   0  0  0  0  0  0  0  0  0  0  0  0
  139.6667   68.3481  227.5643 H   0  0  0  0  0  0  0  0  0  0  0  0
  136.5449   69.6520  223.5472 H   0  0  0  0  0  0  0  0  0  0  0  0
  135.2596   68.1498  222.0451 H   0  0  0  0  0  0  0  0  0  0  0  0
  136.4840   66.5621  220.5654 H   0  0  0  0  0  0  0  0  0  0  0  0
  138.9500   66.4734  220.5793 H   0  0  0  0  0  0  0  0  0  0  0  0
  140.2691   67.9706  222.0784 H   0  0  0  0  0  0  0  0  0  0  0  0
  141.9101   70.7352  221.4803 H   0  0  0  0  0  0  0  0  0  0  0  0
  144.0055   70.7192  220.2313 H   0  0  0  0  0  0  0  0  0  0  0  0
  1  2  1  0
  2  3  2  0
  2  4  2  0
  2  5  1  0
  5  6  2  0
  6  7  1  0
  7  8  2  0
  8  9  1  0
  9 10  2  0
 10 11  1  0
 11 12  2  0
 12 13  1  0
 13 14  2  0
 14 15  1  0
 15 16  2  0
 16 17  1  0
 17 18  2  0
 18 19  1  0
 19 20  2  0
 19 21  1  0
 21 22  1  0
 22 23  2  0
 23 24  1  0
 24 25  2  0
 25 26  1  0
 26 27  2  0
  8 28  1  0
 28 29  2  0
 29  5  1  0
 21 11  1  0
 27 22  1  0
 18 13  1  0
  1 30  1  0
  1 31  1  0
  1 32  1  0
  6 33  1  0
  7 34  1  0
  9 35  1  0
 10 36  1  0
 14 37  1  0
 15 38  1  0
 16 39  1  0
 17 40  1  0
 23 41  1  0
 24 42  1  0
 25 43  1  0
 26 44  1  0
 27 45  1  0
 28 46  1  0
 29 47  1  0
M  END
>  <smiles>  (22) 
CS(=O)(=O)c1ccc(/C=C/c2nc3ccccc3c(=O)n2-c2ccccc2)cc1

>  <score_type>  (22) 
oracle

>  <origin>  (22) 
autodockgpu

>  <m_score__min__energy>  (22) 
-8.9199999999999999

>  <m_primary>  (22) 
energy

>  <rmsd>  (22) 
11.513693693018778

>  <m_score__min__rmsd>  (22) 
11.513693693018778

>  <meeko>  (22) 
{"free_energy": -8.66, "intermolecular_energy": -10.15, "internal_energy": -1.32, "cluster_size": 36, "cluster_id": 2, "rank_in_cluster": 24}

>  <energy>  (22) 
-8.69

>  <cluster_rmsd>  (22) 
0.33

>  <cluster>  (22) 
2

$$$$

     RDKit          3D

 47 50  0  0  0  0  0  0  0  0999 V2000
  132.8470   71.5140  226.9150 C   0  0  0  0  0  0  0  0  0  0  0  0
  133.2150   72.9780  225.9670 S   0  0  0  0  0  0  0  0  0  0  0  0
  133.5450   74.1480  226.8460 O   0  0  0  0  0  0  0  0  0  0  0  0
  131.9940   73.2910  225.1630 O   0  0  0  0  0  0  0  0  0  0  0  0
  134.5460   72.6760  224.9050 C   0  0  0  0  0  0  0  0  0  0  0  0
  135.0840   73.7030  224.1640 C   0  0  0  0  0  0  0  0  0  0  0  0
  136.1580   73.4810  223.3020 C   0  0  0  0  0  0  0  0  0  0  0  0
  136.7230   72.2390  223.1540 C   0  0  0  0  0  0  0  0  0  0  0  0
  137.8490   71.9510  222.2640 C   0  0  0  0  0  0  0  0  0  0  0  0
  138.7880   71.0820  222.5110 C   0  0  0  0  0  0  0  0  0  0  0  0
  139.1340   70.4030  223.7200 C   0  0  0  0  0  0  0  0  0  0  0  0
  139.7280   71.1690  224.6960 N   0  0  0  0  0  0  0  0  0  0  0  0
  140.1230   70.7460  225.8740 C   0  0  0  0  0  0  0  0  0  0  0  0
  140.7000   71.6110  226.7540 C   0  0  0  0  0  0  0  0  0  0  0  0
  141.0970   71.1140  227.9800 C   0  0  0  0  0  0  0  0  0  0  0  0
  140.9350   69.7950  228.3460 C   0  0  0  0  0  0  0  0  0  0  0  0
  140.3460   68.9580  227.4210 C   0  0  0  0  0  0  0  0  0  0  0  0
  139.9450   69.4250  226.2020 C   0  0  0  0  0  0  0  0  0  0  0  0
  139.3580   68.6260  225.2610 C   0  0  0  0  0  0  0  0  0  0  0  0
  139.1910   67.4140  225.5530 O   0  0  0  0  0  0  0  0  0  0  0  0
  138.9610   69.1240  224.0350 N   0  0  0  0  0  0  0  0  0  0  0  0
  138.3750   68.1390  223.2000 C   0  0  0  0  0  0  0  0  0  0  0  0
  139.1680   67.0660  222.7570 C   0  0  0  0  0  0  0  0  0  0  0  0
  138.6550   66.1050  221.9070 C   0  0  0  0  0  0  0  0  0  0  0  0
  137.3320   66.2140  221.4920 C   0  0  0  0  0  0  0  0  0  0  0  0
  136.5370   67.2620  221.9180 C   0  0  0  0  0  0  0  0  0  0  0  0
  137.0390   68.2380  222.7740 C   0  0  0  0  0  0  0  0  0  0  0  0
  136.1560   71.2170  223.9180 C   0  0  0  0  0  0  0  0  0  0  0  0
  135.1030   71.4210  224.7670 C   0  0  0  0  0  0  0  0  0  0  0  0
  132.9058   71.7478  227.9883 H   0  0  0  0  0  0  0  0  0  0  0  0
  131.8330   71.1643  226.6709 H   0  0  0  0  0  0  0  0  0  0  0  0
  133.5751   70.7264  226.6709 H   0  0  0  0  0  0  0  0  0  0  0  0
  134.6607   74.7144  224.2527 H   0  0  0  0  0  0  0  0  0  0  0  0
  136.5635   74.3250  222.7247 H   0  0  0  0  0  0  0  0  0  0  0  0
  137.9066   72.5089  221.3177 H   0  0  0  0  0  0  0  0  0  0  0  0
  139.4186   70.8292  221.6459 H   0  0  0  0  0  0  0  0  0  0  0  0
  140.8450   72.6706  226.4967 H   0  0  0  0  0  0  0  0  0  0  0  0
  141.5646   71.8034  228.6983 H   0  0  0  0  0  0  0  0  0  0  0  0
  141.2603   69.4268  229.3302 H   0  0  0  0  0  0  0  0  0  0  0  0
  140.1969   67.8969  227.6695 H   0  0  0  0  0  0  0  0  0  0  0  0
  140.2129   66.9903  223.0922 H   0  0  0  0  0  0  0  0  0  0  0  0
  139.2819   65.2685  221.5646 H   0  0  0  0  0  0  0  0  0  0  0  0
  136.9120   65.4555  220.8151 H   0  0  0  0  0  0  0  0  0  0  0  0
  135.4935   67.3253  221.5757 H   0  0  0  0  0  0  0  0  0  0  0  0
  136.4031   69.0701  223.1104 H   0  0  0  0  0  0  0  0  0  0  0  0
  136.5745   70.2032  223.8334 H   0  0  0  0  0  0  0  0  0  0  0  0
  134.6968   70.5775  225.3446 H   0  0  0  0  0  0  0  0  0  0  0  0
  1  2  1  0
  2  3  2  0
  2  4  2  0
  2  5  1  0
  5  6  2  0
  6  7  1  0
  7  8  2  0
  8  9  1  0
  9 10  2  0
 10 11  1  0
 11 12  2  0
 12 13  1  0
 13 14  2  0
 14 15  1  0
 15 16  2  0
 16 17  1  0
 17 18  2  0
 18 19  1  0
 19 20  2  0
 19 21  1  0
 21 22  1  0
 22 23  2  0
 23 24  1  0
 24 25  2  0
 25 26  1  0
 26 27  2  0
  8 28  1  0
 28 29  2  0
 29  5  1  0
 21 11  1  0
 27 22  1  0
 18 13  1  0
  1 30  1  0
  1 31  1  0
  1 32  1  0
  6 33  1  0
  7 34  1  0
  9 35  1  0
 10 36  1  0
 14 37  1  0
 15 38  1  0
 16 39  1  0
 17 40  1  0
 23 41  1  0
 24 42  1  0
 25 43  1  0
 26 44  1  0
 27 45  1  0
 28 46  1  0
 29 47  1  0
M  END
>  <smiles>  (23) 
CS(=O)(=O)c1ccc(/C=C/c2nc3ccccc3c(=O)n2-c2ccccc2)cc1

>  <score_type>  (23) 
oracle

>  <origin>  (23) 
autodockgpu

>  <m_score__min__energy>  (23) 
-8.9199999999999999

>  <m_primary>  (23) 
energy

>  <rmsd>  (23) 
12.0511573159839

>  <m_score__min__rmsd>  (23) 
12.0511573159839

>  <meeko>  (23) 
{"free_energy": -8.25, "intermolecular_energy": -9.75, "internal_energy": -1.61, "cluster_size": 11, "cluster_id": 3, "rank_in_cluster": 10}

>  <energy>  (23) 
-8.69

>  <cluster_rmsd>  (23) 
0.63

>  <cluster>  (23) 
2

$$$$

     RDKit          3D

 47 50  0  0  0  0  0  0  0  0999 V2000
  144.9430   73.7190  217.1360 C   0  0  0  0  0  0  0  0  0  0  0  0
  145.2560   72.7930  218.6260 S   0  0  0  0  0  0  0  0  0  0  0  0
  146.3950   73.3670  219.4170 O   0  0  0  0  0  0  0  0  0  0  0  0
  145.5990   71.4000  218.2060 O   0  0  0  0  0  0  0  0  0  0  0  0
  143.8380   72.7670  219.6170 C   0  0  0  0  0  0  0  0  0  0  0  0
  143.3180   71.5660  220.0450 C   0  0  0  0  0  0  0  0  0  0  0  0
  142.1760   71.5240  220.8450 C   0  0  0  0  0  0  0  0  0  0  0  0
  141.5230   72.6650  221.2370 C   0  0  0  0  0  0  0  0  0  0  0  0
  140.3220   72.6770  222.0730 C   0  0  0  0  0  0  0  0  0  0  0  0
  139.6390   71.6190  222.4080 C   0  0  0  0  0  0  0  0  0  0  0  0
  139.6880   70.8130  223.5880 C   0  0  0  0  0  0  0  0  0  0  0  0
  140.2430   71.4020  224.7000 N   0  0  0  0  0  0  0  0  0  0  0  0
  140.3850   70.8420  225.8780 C   0  0  0  0  0  0  0  0  0  0  0  0
  140.9530   71.5370  226.9020 C   0  0  0  0  0  0  0  0  0  0  0  0
  141.0780   70.9000  228.1220 C   0  0  0  0  0  0  0  0  0  0  0  0
  140.6560   69.6060  228.3430 C   0  0  0  0  0  0  0  0  0  0  0  0
  140.0880   68.9440  227.2750 C   0  0  0  0  0  0  0  0  0  0  0  0
  139.9530   69.5510  226.0600 C   0  0  0  0  0  0  0  0  0  0  0  0
  139.3940   68.9270  224.9800 C   0  0  0  0  0  0  0  0  0  0  0  0
  138.9960   67.7450  225.1370 O   0  0  0  0  0  0  0  0  0  0  0  0
  139.2690   69.5640  223.7600 N   0  0  0  0  0  0  0  0  0  0  0  0
  138.6660   68.7500  222.7680 C   0  0  0  0  0  0  0  0  0  0  0  0
  139.4590   68.2690  221.7110 C   0  0  0  0  0  0  0  0  0  0  0  0
  138.9070   67.5090  220.6970 C   0  0  0  0  0  0  0  0  0  0  0  0
  137.5470   67.2220  220.7370 C   0  0  0  0  0  0  0  0  0  0  0  0
  136.7530   67.6850  221.7700 C   0  0  0  0  0  0  0  0  0  0  0  0
  137.2920   68.4530  222.7980 C   0  0  0  0  0  0  0  0  0  0  0  0
  142.0740   73.8670  220.7870 C   0  0  0  0  0  0  0  0  0  0  0  0
  143.1930   73.9240  220.0030 C   0  0  0  0  0  0  0  0  0  0  0  0
  144.6009   74.7310  217.3983 H   0  0  0  0  0  0  0  0  0  0  0  0
  145.8683   73.7864  216.5450 H   0  0  0  0  0  0  0  0  0  0  0  0
  144.1666   73.2112  216.5450 H   0  0  0  0  0  0  0  0  0  0  0  0
  143.8099   70.6267  219.7520 H   0  0  0  0  0  0  0  0  0  0  0  0
  141.7878   70.5477  221.1710 H   0  0  0  0  0  0  0  0  0  0  0  0
  139.9701   73.6502  222.4459 H   0  0  0  0  0  0  0  0  0  0  0  0
  138.9029   71.2918  221.6590 H   0  0  0  0  0  0  0  0  0  0  0  0
  141.3008   72.5712  226.7627 H   0  0  0  0  0  0  0  0  0  0  0  0
  141.5359   71.4514  228.9564 H   0  0  0  0  0  0  0  0  0  0  0  0
  140.7673   69.1242  229.3256 H   0  0  0  0  0  0  0  0  0  0  0  0
  139.7378   67.9093  227.4044 H   0  0  0  0  0  0  0  0  0  0  0  0
  140.5341   68.5009  221.6908 H   0  0  0  0  0  0  0  0  0  0  0  0
  139.5330   67.1375  219.8723 H   0  0  0  0  0  0  0  0  0  0  0  0
  137.0964   66.6181  219.9355 H   0  0  0  0  0  0  0  0  0  0  0  0
  135.6800   67.4429  221.7795 H   0  0  0  0  0  0  0  0  0  0  0  0
  136.6561   68.8201  223.6171 H   0  0  0  0  0  0  0  0  0  0  0  0
  141.5862   74.8096  221.0761 H   0  0  0  0  0  0  0  0  0  0  0  0
  143.5820   74.9001  219.6775 H   0  0  0  0  0  0  0  0  0  0  0  0
  1  2  1  0
  2  3  2  0
  2  4  2  0
  2  5  1  0
  5  6  2  0
  6  7  1  0
  7  8  2  0
  8  9  1  0
  9 10  2  0
 10 11  1  0
 11 12  2  0
 12 13  1  0
 13 14  2  0
 14 15  1  0
 15 16  2  0
 16 17  1  0
 17 18  2  0
 18 19  1  0
 19 20  2  0
 19 21  1  0
 21 22  1  0
 22 23  2  0
 23 24  1  0
 24 25  2  0
 25 26  1  0
 26 27  2  0
  8 28  1  0
 28 29  2  0
 29  5  1  0
 21 11  1  0
 27 22  1  0
 18 13  1  0
  1 30  1  0
  1 31  1  0
  1 32  1  0
  6 33  1  0
  7 34  1  0
  9 35  1  0
 10 36  1  0
 14 37  1  0
 15 38  1  0
 16 39  1  0
 17 40  1  0
 23 41  1  0
 24 42  1  0
 25 43  1  0
 26 44  1  0
 27 45  1  0
 28 46  1  0
 29 47  1  0
M  END
>  <smiles>  (24) 
CS(=O)(=O)c1ccc(/C=C/c2nc3ccccc3c(=O)n2-c2ccccc2)cc1

>  <score_type>  (24) 
oracle

>  <origin>  (24) 
autodockgpu

>  <m_score__min__energy>  (24) 
-8.9199999999999999

>  <m_primary>  (24) 
energy

>  <rmsd>  (24) 
11.572979978705613

>  <m_score__min__rmsd>  (24) 
11.572979978705613

>  <meeko>  (24) 
{"free_energy": -8.67, "intermolecular_energy": -10.17, "internal_energy": -1.32, "cluster_size": 36, "cluster_id": 2, "rank_in_cluster": 22}

>  <energy>  (24) 
-8.68

>  <cluster_rmsd>  (24) 
1.02

>  <cluster>  (24) 
2

$$$$

     RDKit          3D

 47 50  0  0  0  0  0  0  0  0999 V2000
  144.6560   68.8030  217.6370 C   0  0  0  0  0  0  0  0  0  0  0  0
  145.0960   69.5840  219.1770 S   0  0  0  0  0  0  0  0  0  0  0  0
  146.1780   70.6070  219.0000 O   0  0  0  0  0  0  0  0  0  0  0  0
  145.5810   68.5020  220.0890 O   0  0  0  0  0  0  0  0  0  0  0  0
  143.7060   70.3460  219.8720 C   0  0  0  0  0  0  0  0  0  0  0  0
  142.4570   69.7960  219.6940 C   0  0  0  0  0  0  0  0  0  0  0  0
  141.3250   70.3950  220.2470 C   0  0  0  0  0  0  0  0  0  0  0  0
  141.4020   71.5490  220.9860 C   0  0  0  0  0  0  0  0  0  0  0  0
  140.2480   72.2170  221.5860 C   0  0  0  0  0  0  0  0  0  0  0  0
  139.3650   71.6360  222.3490 C   0  0  0  0  0  0  0  0  0  0  0  0
  139.5290   70.8560  223.5350 C   0  0  0  0  0  0  0  0  0  0  0  0
  140.0730   71.5080  224.6170 N   0  0  0  0  0  0  0  0  0  0  0  0
  140.3080   70.9810  225.7960 C   0  0  0  0  0  0  0  0  0  0  0  0
  140.8530   71.7380  226.7880 C   0  0  0  0  0  0  0  0  0  0  0  0
  141.0790   71.1330  228.0100 C   0  0  0  0  0  0  0  0  0  0  0  0
  140.7790   69.8110  228.2630 C   0  0  0  0  0  0  0  0  0  0  0  0
  140.2290   69.0860  227.2260 C   0  0  0  0  0  0  0  0  0  0  0  0
  139.9960   69.6600  226.0110 C   0  0  0  0  0  0  0  0  0  0  0  0
  139.4530   68.9740  224.9610 C   0  0  0  0  0  0  0  0  0  0  0  0
  139.1640   67.7640  225.1480 O   0  0  0  0  0  0  0  0  0  0  0  0
  139.2260   69.5790  223.7390 N   0  0  0  0  0  0  0  0  0  0  0  0
  138.6580   68.7000  222.7820 C   0  0  0  0  0  0  0  0  0  0  0  0
  139.4880   68.1540  221.7860 C   0  0  0  0  0  0  0  0  0  0  0  0
  138.9720   67.3290  220.8060 C   0  0  0  0  0  0  0  0  0  0  0  0
  137.6110   67.0410  220.8170 C   0  0  0  0  0  0  0  0  0  0  0  0
  136.7810   67.5680  221.7890 C   0  0  0  0  0  0  0  0  0  0  0  0
  137.2840   68.4020  222.7840 C   0  0  0  0  0  0  0  0  0  0  0  0
  142.6830   72.0820  221.1490 C   0  0  0  0  0  0  0  0  0  0  0  0
  143.8020   71.5060  220.6130 C   0  0  0  0  0  0  0  0  0  0  0  0
  144.1255   67.8614  217.8418 H   0  0  0  0  0  0  0  0  0  0  0  0
  144.0029   69.4736  217.0592 H   0  0  0  0  0  0  0  0  0  0  0  0
  145.5679   68.5919  217.0592 H   0  0  0  0  0  0  0  0  0  0  0  0
  142.3499   68.8715  219.1077 H   0  0  0  0  0  0  0  0  0  0  0  0
  140.3418   69.9287  220.0860 H   0  0  0  0  0  0  0  0  0  0  0  0
  140.1151   73.2890  221.3782 H   0  0  0  0  0  0  0  0  0  0  0  0
  138.3216   71.7679  222.0267 H   0  0  0  0  0  0  0  0  0  0  0  0
  141.1050   72.7958  226.6223 H   0  0  0  0  0  0  0  0  0  0  0  0
  141.5190   71.7345  228.8190 H   0  0  0  0  0  0  0  0  0  0  0  0
  140.9694   69.3556  229.2460 H   0  0  0  0  0  0  0  0  0  0  0  0
  139.9742   68.0273  227.3818 H   0  0  0  0  0  0  0  0  0  0  0  0
  140.5630   68.3874  221.7878 H   0  0  0  0  0  0  0  0  0  0  0  0
  139.6265   66.9065  220.0294 H   0  0  0  0  0  0  0  0  0  0  0  0
  137.1893   66.3847  220.0414 H   0  0  0  0  0  0  0  0  0  0  0  0
  135.7083   67.3250  221.7761 H   0  0  0  0  0  0  0  0  0  0  0  0
  136.6202   68.8191  223.5556 H   0  0  0  0  0  0  0  0  0  0  0  0
  142.7969   73.0062  221.7346 H   0  0  0  0  0  0  0  0  0  0  0  0
  144.7858   71.9711  220.7739 H   0  0  0  0  0  0  0  0  0  0  0  0
  1  2  1  0
  2  3  2  0
  2  4  2  0
  2  5  1  0
  5  6  2  0
  6  7  1  0
  7  8  2  0
  8  9  1  0
  9 10  2  0
 10 11  1  0
 11 12  2  0
 12 13  1  0
 13 14  2  0
 14 15  1  0
 15 16  2  0
 16 17  1  0
 17 18  2  0
 18 19  1  0
 19 20  2  0
 19 21  1  0
 21 22  1  0
 22 23  2  0
 23 24  1  0
 24 25  2  0
 25 26  1  0
 26 27  2  0
  8 28  1  0
 28 29  2  0
 29  5  1  0
 21 11  1  0
 27 22  1  0
 18 13  1  0
  1 30  1  0
  1 31  1  0
  1 32  1  0
  6 33  1  0
  7 34  1  0
  9 35  1  0
 10 36  1  0
 14 37  1  0
 15 38  1  0
 16 39  1  0
 17 40  1  0
 23 41  1  0
 24 42  1  0
 25 43  1  0
 26 44  1  0
 27 45  1  0
 28 46  1  0
 29 47  1  0
M  END
>  <smiles>  (25) 
CS(=O)(=O)c1ccc(/C=C/c2nc3ccccc3c(=O)n2-c2ccccc2)cc1

>  <score_type>  (25) 
oracle

>  <origin>  (25) 
autodockgpu

>  <m_score__min__energy>  (25) 
-8.9199999999999999

>  <m_primary>  (25) 
energy

>  <rmsd>  (25) 
11.517397163698705

>  <m_score__min__rmsd>  (25) 
11.517397163698705

>  <meeko>  (25) 
{"free_energy": -8.29, "intermolecular_energy": -9.79, "internal_energy": -1.66, "cluster_size": 36, "cluster_id": 2, "rank_in_cluster": 34}

>  <energy>  (25) 
-8.67

>  <cluster_rmsd>  (25) 
0.98

>  <cluster>  (25) 
2

$$$$

     RDKit          3D

 47 50  0  0  0  0  0  0  0  0999 V2000
  131.6430   73.3630  225.5820 C   0  0  0  0  0  0  0  0  0  0  0  0
  133.2520   73.4230  226.3460 S   0  0  0  0  0  0  0  0  0  0  0  0
  133.3640   72.4660  227.4970 O   0  0  0  0  0  0  0  0  0  0  0  0
  133.4440   74.8200  226.8440 O   0  0  0  0  0  0  0  0  0  0  0  0
  134.4760   73.0500  225.1810 C   0  0  0  0  0  0  0  0  0  0  0  0
  135.0290   74.0530  224.4180 C   0  0  0  0  0  0  0  0  0  0  0  0
  136.0170   73.7740  223.4730 C   0  0  0  0  0  0  0  0  0  0  0  0
  136.4780   72.4980  223.2620 C   0  0  0  0  0  0  0  0  0  0  0  0
  137.5100   72.1510  222.2850 C   0  0  0  0  0  0  0  0  0  0  0  0
  138.5660   71.4320  222.5430 C   0  0  0  0  0  0  0  0  0  0  0  0
  138.9440   70.7210  223.7250 C   0  0  0  0  0  0  0  0  0  0  0  0
  139.5940   71.4550  224.6900 N   0  0  0  0  0  0  0  0  0  0  0  0
  140.0250   71.0000  225.8430 C   0  0  0  0  0  0  0  0  0  0  0  0
  140.6580   71.8340  226.7140 C   0  0  0  0  0  0  0  0  0  0  0  0
  141.0920   71.3040  227.9140 C   0  0  0  0  0  0  0  0  0  0  0  0
  140.9120   69.9820  228.2620 C   0  0  0  0  0  0  0  0  0  0  0  0
  140.2660   69.1770  227.3460 C   0  0  0  0  0  0  0  0  0  0  0  0
  139.8290   69.6770  226.1540 C   0  0  0  0  0  0  0  0  0  0  0  0
  139.1850   68.9110  225.2230 C   0  0  0  0  0  0  0  0  0  0  0  0
  139.0000   67.6980  225.4990 O   0  0  0  0  0  0  0  0  0  0  0  0
  138.7510   69.4410  224.0220 N   0  0  0  0  0  0  0  0  0  0  0  0
  138.1090   68.4860  223.1940 C   0  0  0  0  0  0  0  0  0  0  0  0
  136.7110   68.5480  223.0460 C   0  0  0  0  0  0  0  0  0  0  0  0
  136.0360   67.6130  222.2860 C   0  0  0  0  0  0  0  0  0  0  0  0
  136.7600   66.6020  221.6640 C   0  0  0  0  0  0  0  0  0  0  0  0
  138.1340   66.5270  221.7980 C   0  0  0  0  0  0  0  0  0  0  0  0
  138.8310   67.4600  222.5610 C   0  0  0  0  0  0  0  0  0  0  0  0
  135.8970   71.5030  224.0510 C   0  0  0  0  0  0  0  0  0  0  0  0
  134.9280   71.7630  224.9810 C   0  0  0  0  0  0  0  0  0  0  0  0
  130.8677   73.3341  226.3618 H   0  0  0  0  0  0  0  0  0  0  0  0
  131.5006   74.2565  224.9563 H   0  0  0  0  0  0  0  0  0  0  0  0
  131.5676   72.4614  224.9563 H   0  0  0  0  0  0  0  0  0  0  0  0
  134.6872   75.0895  224.5551 H   0  0  0  0  0  0  0  0  0  0  0  0
  136.4384   74.5995  222.8805 H   0  0  0  0  0  0  0  0  0  0  0  0
  137.3857   72.5241  221.2577 H   0  0  0  0  0  0  0  0  0  0  0  0
  139.2858   71.3601  221.7143 H   0  0  0  0  0  0  0  0  0  0  0  0
  140.8185   72.8946  226.4702 H   0  0  0  0  0  0  0  0  0  0  0  0
  141.6052   71.9680  228.6251 H   0  0  0  0  0  0  0  0  0  0  0  0
  141.2670   69.5872  229.2254 H   0  0  0  0  0  0  0  0  0  0  0  0
  140.1007   68.1151  227.5806 H   0  0  0  0  0  0  0  0  0  0  0  0
  136.1481   69.3522  223.5424 H   0  0  0  0  0  0  0  0  0  0  0  0
  134.9430   67.6673  222.1745 H   0  0  0  0  0  0  0  0  0  0  0  0
  136.2324   65.8516  221.0570 H   0  0  0  0  0  0  0  0  0  0  0  0
  138.6844   65.7186  221.2946 H   0  0  0  0  0  0  0  0  0  0  0  0
  139.9240   67.3953  222.6661 H   0  0  0  0  0  0  0  0  0  0  0  0
  136.2334   70.4641  223.9188 H   0  0  0  0  0  0  0  0  0  0  0  0
  134.5060   70.9383  225.5742 H   0  0  0  0  0  0  0  0  0  0  0  0
  1  2  1  0
  2  3  2  0
  2  4  2  0
  2  5  1  0
  5  6  2  0
  6  7  1  0
  7  8  2  0
  8  9  1  0
  9 10  2  0
 10 11  1  0
 11 12  2  0
 12 13  1  0
 13 14  2  0
 14 15  1  0
 15 16  2  0
 16 17  1  0
 17 18  2  0
 18 19  1  0
 19 20  2  0
 19 21  1  0
 21 22  1  0
 22 23  2  0
 23 24  1  0
 24 25  2  0
 25 26  1  0
 26 27  2  0
  8 28  1  0
 28 29  2  0
 29  5  1  0
 21 11  1  0
 27 22  1  0
 18 13  1  0
  1 30  1  0
  1 31  1  0
  1 32  1  0
  6 33  1  0
  7 34  1  0
  9 35  1  0
 10 36  1  0
 14 37  1  0
 15 38  1  0
 16 39  1  0
 17 40  1  0
 23 41  1  0
 24 42  1  0
 25 43  1  0
 26 44  1  0
 27 45  1  0
 28 46  1  0
 29 47  1  0
M  END
>  <smiles>  (26) 
CS(=O)(=O)c1ccc(/C=C/c2nc3ccccc3c(=O)n2-c2ccccc2)cc1

>  <score_type>  (26) 
oracle

>  <origin>  (26) 
autodockgpu

>  <m_score__min__energy>  (26) 
-8.9199999999999999

>  <m_primary>  (26) 
energy

>  <rmsd>  (26) 
11.816899826744432

>  <m_score__min__rmsd>  (26) 
11.816899826744432

>  <meeko>  (26) 
{"free_energy": -8.29, "intermolecular_energy": -9.78, "internal_energy": -1.7, "cluster_size": 11, "cluster_id": 3, "rank_in_cluster": 9}

>  <energy>  (26) 
-8.66

>  <cluster_rmsd>  (26) 
0.79

>  <cluster>  (26) 
2

$$$$

     RDKit          3D

 47 50  0  0  0  0  0  0  0  0999 V2000
  145.2410   73.3850  217.5120 C   0  0  0  0  0  0  0  0  0  0  0  0
  145.4640   72.7210  219.1500 S   0  0  0  0  0  0  0  0  0  0  0  0
  146.4870   73.4890  219.9340 O   0  0  0  0  0  0  0  0  0  0  0  0
  145.9250   71.3080  218.9850 O   0  0  0  0  0  0  0  0  0  0  0  0
  143.9610   72.7430  220.0080 C   0  0  0  0  0  0  0  0  0  0  0  0
  143.2930   73.9320  220.1960 C   0  0  0  0  0  0  0  0  0  0  0  0
  142.0800   73.9710  220.8840 C   0  0  0  0  0  0  0  0  0  0  0  0
  141.5020   72.8390  221.4010 C   0  0  0  0  0  0  0  0  0  0  0  0
  140.2340   72.8240  222.1300 C   0  0  0  0  0  0  0  0  0  0  0  0
  139.5800   71.7480  222.4630 C   0  0  0  0  0  0  0  0  0  0  0  0
  139.6910   70.9090  223.6160 C   0  0  0  0  0  0  0  0  0  0  0  0
  140.2160   71.4970  224.7430 N   0  0  0  0  0  0  0  0  0  0  0  0
  140.4040   70.9100  225.9020 C   0  0  0  0  0  0  0  0  0  0  0  0
  140.9350   71.6080  226.9440 C   0  0  0  0  0  0  0  0  0  0  0  0
  141.1110   70.9420  228.1420 C   0  0  0  0  0  0  0  0  0  0  0  0
  140.7750   69.6170  228.3240 C   0  0  0  0  0  0  0  0  0  0  0  0
  140.2410   68.9540  227.2380 C   0  0  0  0  0  0  0  0  0  0  0  0
  140.0570   69.5890  226.0450 C   0  0  0  0  0  0  0  0  0  0  0  0
  139.5300   68.9650  224.9490 C   0  0  0  0  0  0  0  0  0  0  0  0
  139.2100   67.7550  225.0700 O   0  0  0  0  0  0  0  0  0  0  0  0
  139.3540   69.6320  223.7510 N   0  0  0  0  0  0  0  0  0  0  0  0
  138.7960   68.8120  222.7370 C   0  0  0  0  0  0  0  0  0  0  0  0
  137.4460   68.4320  222.8390 C   0  0  0  0  0  0  0  0  0  0  0  0
  136.8700   67.5980  221.9000 C   0  0  0  0  0  0  0  0  0  0  0  0
  137.6480   67.1350  220.8440 C   0  0  0  0  0  0  0  0  0  0  0  0
  138.9770   67.4990  220.7280 C   0  0  0  0  0  0  0  0  0  0  0  0
  139.5740   68.3370  221.6660 C   0  0  0  0  0  0  0  0  0  0  0  0
  142.2040   71.6490  221.1930 C   0  0  0  0  0  0  0  0  0  0  0  0
  143.3940   71.5950  220.5210 C   0  0  0  0  0  0  0  0  0  0  0  0
  144.8915   74.4256  217.5826 H   0  0  0  0  0  0  0  0  0  0  0  0
  146.1983   73.3556  216.9710 H   0  0  0  0  0  0  0  0  0  0  0  0
  144.4955   72.7837  216.9710 H   0  0  0  0  0  0  0  0  0  0  0  0
  143.7215   74.8638  219.7984 H   0  0  0  0  0  0  0  0  0  0  0  0
  141.5720   74.9377  221.0159 H   0  0  0  0  0  0  0  0  0  0  0  0
  139.8007   73.7931  222.4183 H   0  0  0  0  0  0  0  0  0  0  0  0
  138.8159   71.4323  221.7374 H   0  0  0  0  0  0  0  0  0  0  0  0
  141.2144   72.6664  226.8356 H   0  0  0  0  0  0  0  0  0  0  0  0
  141.5395   71.4951  228.9908 H   0  0  0  0  0  0  0  0  0  0  0  0
  140.9256   69.1122  229.2897 H   0  0  0  0  0  0  0  0  0  0  0  0
  139.9589   67.8953  227.3361 H   0  0  0  0  0  0  0  0  0  0  0  0
  136.8399   68.8040  223.6782 H   0  0  0  0  0  0  0  0  0  0  0  0
  135.8133   67.3049  221.9861 H   0  0  0  0  0  0  0  0  0  0  0  0
  137.1999   66.4702  220.0908 H   0  0  0  0  0  0  0  0  0  0  0  0
  139.5709   67.1211  219.8827 H   0  0  0  0  0  0  0  0  0  0  0  0
  140.6323   68.6217  221.5714 H   0  0  0  0  0  0  0  0  0  0  0  0
  141.7806   70.7135  221.5874 H   0  0  0  0  0  0  0  0  0  0  0  0
  143.9028   70.6287  220.3886 H   0  0  0  0  0  0  0  0  0  0  0  0
  1  2  1  0
  2  3  2  0
  2  4  2  0
  2  5  1  0
  5  6  2  0
  6  7  1  0
  7  8  2  0
  8  9  1  0
  9 10  2  0
 10 11  1  0
 11 12  2  0
 12 13  1  0
 13 14  2  0
 14 15  1  0
 15 16  2  0
 16 17  1  0
 17 18  2  0
 18 19  1  0
 19 20  2  0
 19 21  1  0
 21 22  1  0
 22 23  2  0
 23 24  1  0
 24 25  2  0
 25 26  1  0
 26 27  2  0
  8 28  1  0
 28 29  2  0
 29  5  1  0
 21 11  1  0
 27 22  1  0
 18 13  1  0
  1 30  1  0
  1 31  1  0
  1 32  1  0
  6 33  1  0
  7 34  1  0
  9 35  1  0
 10 36  1  0
 14 37  1  0
 15 38  1  0
 16 39  1  0
 17 40  1  0
 23 41  1  0
 24 42  1  0
 25 43  1  0
 26 44  1  0
 27 45  1  0
 28 46  1  0
 29 47  1  0
M  END
>  <smiles>  (27) 
CS(=O)(=O)c1ccc(/C=C/c2nc3ccccc3c(=O)n2-c2ccccc2)cc1

>  <score_type>  (27) 
oracle

>  <origin>  (27) 
autodockgpu

>  <m_score__min__energy>  (27) 
-8.9199999999999999

>  <m_primary>  (27) 
energy

>  <rmsd>  (27) 
11.668762635821409

>  <m_score__min__rmsd>  (27) 
11.668762635821409

>  <meeko>  (27) 
{"free_energy": -8.71, "intermolecular_energy": -10.2, "internal_energy": -1.37, "cluster_size": 36, "cluster_id": 2, "rank_in_cluster": 17}

>  <energy>  (27) 
-8.66

>  <cluster_rmsd>  (27) 
0.86

>  <cluster>  (27) 
2

$$$$

     RDKit          3D

 47 50  0  0  0  0  0  0  0  0999 V2000
  146.6730   73.5290  221.1030 C   0  0  0  0  0  0  0  0  0  0  0  0
  145.6480   72.6800  219.9180 S   0  0  0  0  0  0  0  0  0  0  0  0
  146.0940   71.2640  219.7000 O   0  0  0  0  0  0  0  0  0  0  0  0
  145.7540   73.4360  218.6330 O   0  0  0  0  0  0  0  0  0  0  0  0
  144.0020   72.6770  220.4530 C   0  0  0  0  0  0  0  0  0  0  0  0
  143.2810   73.8490  220.4690 C   0  0  0  0  0  0  0  0  0  0  0  0
  141.9530   73.8680  220.8970 C   0  0  0  0  0  0  0  0  0  0  0  0
  141.3100   72.7310  221.3170 C   0  0  0  0  0  0  0  0  0  0  0  0
  139.9220   72.6950  221.7760 C   0  0  0  0  0  0  0  0  0  0  0  0
  139.3070   71.6290  222.2040 C   0  0  0  0  0  0  0  0  0  0  0  0
  139.5000   70.8560  223.3910 C   0  0  0  0  0  0  0  0  0  0  0  0
  140.0340   71.5240  224.4680 N   0  0  0  0  0  0  0  0  0  0  0  0
  140.2910   71.0060  225.6460 C   0  0  0  0  0  0  0  0  0  0  0  0
  140.8220   71.7800  226.6330 C   0  0  0  0  0  0  0  0  0  0  0  0
  141.0740   71.1840  227.8540 C   0  0  0  0  0  0  0  0  0  0  0  0
  140.8110   69.8550  228.1120 C   0  0  0  0  0  0  0  0  0  0  0  0
  140.2740   69.1130  227.0800 C   0  0  0  0  0  0  0  0  0  0  0  0
  140.0160   69.6780  225.8650 C   0  0  0  0  0  0  0  0  0  0  0  0
  139.4840   68.9750  224.8210 C   0  0  0  0  0  0  0  0  0  0  0  0
  139.2290   67.7590  225.0120 O   0  0  0  0  0  0  0  0  0  0  0  0
  139.2330   69.5720  223.5990 N   0  0  0  0  0  0  0  0  0  0  0  0
  138.6820   68.6760  222.6480 C   0  0  0  0  0  0  0  0  0  0  0  0
  139.4900   68.2330  221.5860 C   0  0  0  0  0  0  0  0  0  0  0  0
  138.9850   67.3950  220.6100 C   0  0  0  0  0  0  0  0  0  0  0  0
  137.6570   66.9920  220.6920 C   0  0  0  0  0  0  0  0  0  0  0  0
  136.8480   67.4170  221.7300 C   0  0  0  0  0  0  0  0  0  0  0  0
  137.3400   68.2620  222.7210 C   0  0  0  0  0  0  0  0  0  0  0  0
  142.0690   71.5580  221.2900 C   0  0  0  0  0  0  0  0  0  0  0  0
  143.3710   71.5250  220.8730 C   0  0  0  0  0  0  0  0  0  0  0  0
  146.3528   73.2638  222.1214 H   0  0  0  0  0  0  0  0  0  0  0  0
  147.7224   73.2320  220.9595 H   0  0  0  0  0  0  0  0  0  0  0  0
  146.5765   74.6153  220.9595 H   0  0  0  0  0  0  0  0  0  0  0  0
  143.7582   74.7839  220.1398 H   0  0  0  0  0  0  0  0  0  0  0  0
  141.4057   74.8222  220.8977 H   0  0  0  0  0  0  0  0  0  0  0  0
  139.3552   73.6376  221.7587 H   0  0  0  0  0  0  0  0  0  0  0  0
  138.5074   71.2635  221.5429 H   0  0  0  0  0  0  0  0  0  0  0  0
  141.0429   72.8442  226.4638 H   0  0  0  0  0  0  0  0  0  0  0  0
  141.5047   71.7986  228.6582 H   0  0  0  0  0  0  0  0  0  0  0  0
  141.0196   69.4073  229.0949 H   0  0  0  0  0  0  0  0  0  0  0  0
  140.0501   68.0479  227.2395 H   0  0  0  0  0  0  0  0  0  0  0  0
  140.5394   68.5582  221.5312 H   0  0  0  0  0  0  0  0  0  0  0  0
  139.6232   67.0526  219.7821 H   0  0  0  0  0  0  0  0  0  0  0  0
  137.2439   66.3257  219.9204 H   0  0  0  0  0  0  0  0  0  0  0  0
  135.8009   67.0826  221.7732 H   0  0  0  0  0  0  0  0  0  0  0  0
  136.6925   68.5988  223.5440 H   0  0  0  0  0  0  0  0  0  0  0  0
  141.5984   70.6197  221.6187 H   0  0  0  0  0  0  0  0  0  0  0  0
  143.9196   70.5715  220.8726 H   0  0  0  0  0  0  0  0  0  0  0  0
  1  2  1  0
  2  3  2  0
  2  4  2  0
  2  5  1  0
  5  6  2  0
  6  7  1  0
  7  8  2  0
  8  9  1  0
  9 10  2  0
 10 11  1  0
 11 12  2  0
 12 13  1  0
 13 14  2  0
 14 15  1  0
 15 16  2  0
 16 17  1  0
 17 18  2  0
 18 19  1  0
 19 20  2  0
 19 21  1  0
 21 22  1  0
 22 23  2  0
 23 24  1  0
 24 25  2  0
 25 26  1  0
 26 27  2  0
  8 28  1  0
 28 29  2  0
 29  5  1  0
 21 11  1  0
 27 22  1  0
 18 13  1  0
  1 30  1  0
  1 31  1  0
  1 32  1  0
  6 33  1  0
  7 34  1  0
  9 35  1  0
 10 36  1  0
 14 37  1  0
 15 38  1  0
 16 39  1  0
 17 40  1  0
 23 41  1  0
 24 42  1  0
 25 43  1  0
 26 44  1  0
 27 45  1  0
 28 46  1  0
 29 47  1  0
M  END
>  <smiles>  (28) 
CS(=O)(=O)c1ccc(/C=C/c2nc3ccccc3c(=O)n2-c2ccccc2)cc1

>  <score_type>  (28) 
oracle

>  <origin>  (28) 
autodockgpu

>  <m_score__min__energy>  (28) 
-8.9199999999999999

>  <m_primary>  (28) 
energy

>  <rmsd>  (28) 
11.441989674356964

>  <m_score__min__rmsd>  (28) 
11.441989674356964

>  <meeko>  (28) 
{"free_energy": -8.77, "intermolecular_energy": -10.26, "internal_energy": -1.45, "cluster_size": 36, "cluster_id": 2, "rank_in_cluster": 12}

>  <energy>  (28) 
-8.65

>  <cluster_rmsd>  (28) 
0.66

>  <cluster>  (28) 
2

$$$$

     RDKit          3D

 47 50  0  0  0  0  0  0  0  0999 V2000
  146.6810   73.7310  220.8270 C   0  0  0  0  0  0  0  0  0  0  0  0
  145.6500   72.7390  219.7640 S   0  0  0  0  0  0  0  0  0  0  0  0
  146.1500   71.3300  219.6500 O   0  0  0  0  0  0  0  0  0  0  0  0
  145.6720   73.3830  218.4150 O   0  0  0  0  0  0  0  0  0  0  0  0
  144.0280   72.7160  220.3680 C   0  0  0  0  0  0  0  0  0  0  0  0
  143.3050   73.8840  220.4470 C   0  0  0  0  0  0  0  0  0  0  0  0
  141.9960   73.8860  220.9300 C   0  0  0  0  0  0  0  0  0  0  0  0
  141.3750   72.7350  221.3450 C   0  0  0  0  0  0  0  0  0  0  0  0
  140.0060   72.6820  221.8600 C   0  0  0  0  0  0  0  0  0  0  0  0
  139.4100   71.6000  222.2760 C   0  0  0  0  0  0  0  0  0  0  0  0
  139.5250   70.8900  223.5120 C   0  0  0  0  0  0  0  0  0  0  0  0
  140.1430   71.5620  224.5410 N   0  0  0  0  0  0  0  0  0  0  0  0
  140.3510   71.0960  225.7500 C   0  0  0  0  0  0  0  0  0  0  0  0
  140.9780   71.8660  226.6820 C   0  0  0  0  0  0  0  0  0  0  0  0
  141.1720   71.3270  227.9390 C   0  0  0  0  0  0  0  0  0  0  0  0
  140.7610   70.0570  228.2850 C   0  0  0  0  0  0  0  0  0  0  0  0
  140.1320   69.3160  227.3070 C   0  0  0  0  0  0  0  0  0  0  0  0
  139.9290   69.8260  226.0570 C   0  0  0  0  0  0  0  0  0  0  0  0
  139.3090   69.1220  225.0630 C   0  0  0  0  0  0  0  0  0  0  0  0
  138.9180   67.9580  225.3360 O   0  0  0  0  0  0  0  0  0  0  0  0
  139.1150   69.6610  223.8060 N   0  0  0  0  0  0  0  0  0  0  0  0
  138.4550   68.7740  222.9180 C   0  0  0  0  0  0  0  0  0  0  0  0
  137.0590   68.8650  222.7820 C   0  0  0  0  0  0  0  0  0  0  0  0
  136.3660   67.9930  221.9630 C   0  0  0  0  0  0  0  0  0  0  0  0
  137.0740   67.0180  221.2690 C   0  0  0  0  0  0  0  0  0  0  0  0
  138.4480   66.9150  221.3900 C   0  0  0  0  0  0  0  0  0  0  0  0
  139.1610   67.7840  222.2110 C   0  0  0  0  0  0  0  0  0  0  0  0
  142.1340   71.5670  221.2530 C   0  0  0  0  0  0  0  0  0  0  0  0
  143.4180   71.5500  220.7810 C   0  0  0  0  0  0  0  0  0  0  0  0
  146.4474   73.5062  221.8781 H   0  0  0  0  0  0  0  0  0  0  0  0
  147.7387   73.5023  220.6294 H   0  0  0  0  0  0  0  0  0  0  0  0
  146.4932   74.7967  220.6294 H   0  0  0  0  0  0  0  0  0  0  0  0
  143.7655   74.8296  220.1248 H   0  0  0  0  0  0  0  0  0  0  0  0
  141.4462   74.8374  220.9795 H   0  0  0  0  0  0  0  0  0  0  0  0
  139.4389   73.6237  221.8988 H   0  0  0  0  0  0  0  0  0  0  0  0
  138.7019   71.1606  221.5580 H   0  0  0  0  0  0  0  0  0  0  0  0
  141.3188   72.8839  226.4417 H   0  0  0  0  0  0  0  0  0  0  0  0
  141.6781   71.9396  228.6996 H   0  0  0  0  0  0  0  0  0  0  0  0
  140.9273   69.6536  229.2948 H   0  0  0  0  0  0  0  0  0  0  0  0
  139.7880   68.2970  227.5378 H   0  0  0  0  0  0  0  0  0  0  0  0
  136.5099   69.6412  223.3352 H   0  0  0  0  0  0  0  0  0  0  0  0
  135.2733   68.0692  221.8621 H   0  0  0  0  0  0  0  0  0  0  0  0
  136.5336   66.3185  220.6143 H   0  0  0  0  0  0  0  0  0  0  0  0
  138.9848   66.1354  220.8296 H   0  0  0  0  0  0  0  0  0  0  0  0
  140.2536   67.6983  222.3049 H   0  0  0  0  0  0  0  0  0  0  0  0
  141.6795   70.6182  221.5743 H   0  0  0  0  0  0  0  0  0  0  0  0
  143.9682   70.5988  220.7305 H   0  0  0  0  0  0  0  0  0  0  0  0
  1  2  1  0
  2  3  2  0
  2  4  2  0
  2  5  1  0
  5  6  2  0
  6  7  1  0
  7  8  2  0
  8  9  1  0
  9 10  2  0
 10 11  1  0
 11 12  2  0
 12 13  1  0
 13 14  2  0
 14 15  1  0
 15 16  2  0
 16 17  1  0
 17 18  2  0
 18 19  1  0
 19 20  2  0
 19 21  1  0
 21 22  1  0
 22 23  2  0
 23 24  1  0
 24 25  2  0
 25 26  1  0
 26 27  2  0
  8 28  1  0
 28 29  2  0
 29  5  1  0
 21 11  1  0
 27 22  1  0
 18 13  1  0
  1 30  1  0
  1 31  1  0
  1 32  1  0
  6 33  1  0
  7 34  1  0
  9 35  1  0
 10 36  1  0
 14 37  1  0
 15 38  1  0
 16 39  1  0
 17 40  1  0
 23 41  1  0
 24 42  1  0
 25 43  1  0
 26 44  1  0
 27 45  1  0
 28 46  1  0
 29 47  1  0
M  END
>  <smiles>  (29) 
CS(=O)(=O)c1ccc(/C=C/c2nc3ccccc3c(=O)n2-c2ccccc2)cc1

>  <score_type>  (29) 
oracle

>  <origin>  (29) 
autodockgpu

>  <m_score__min__energy>  (29) 
-8.9199999999999999

>  <m_primary>  (29) 
energy

>  <rmsd>  (29) 
11.551800532731228

>  <m_score__min__rmsd>  (29) 
11.551800532731228

>  <meeko>  (29) 
{"free_energy": -8.9, "intermolecular_energy": -10.4, "internal_energy": -1.39, "cluster_size": 36, "cluster_id": 2, "rank_in_cluster": 1}

>  <energy>  (29) 
-8.62

>  <cluster_rmsd>  (29) 
0.59

>  <cluster>  (29) 
2

$$$$

     RDKit          3D

 47 50  0  0  0  0  0  0  0  0999 V2000
  131.4940   72.6130  225.7460 C   0  0  0  0  0  0  0  0  0  0  0  0
  133.0890   72.7040  226.5360 S   0  0  0  0  0  0  0  0  0  0  0  0
  133.2390   71.6800  227.6220 O   0  0  0  0  0  0  0  0  0  0  0  0
  133.2020   74.0730  227.1270 O   0  0  0  0  0  0  0  0  0  0  0  0
  134.3430   72.4740  225.3660 C   0  0  0  0  0  0  0  0  0  0  0  0
  134.8260   73.5480  224.6530 C   0  0  0  0  0  0  0  0  0  0  0  0
  135.8370   73.3830  223.7060 C   0  0  0  0  0  0  0  0  0  0  0  0
  136.3920   72.1560  223.4430 C   0  0  0  0  0  0  0  0  0  0  0  0
  137.4520   71.9280  222.4610 C   0  0  0  0  0  0  0  0  0  0  0  0
  138.5750   71.3150  222.7080 C   0  0  0  0  0  0  0  0  0  0  0  0
  138.9860   70.5420  223.8380 C   0  0  0  0  0  0  0  0  0  0  0  0
  139.5930   71.2360  224.8580 N   0  0  0  0  0  0  0  0  0  0  0  0
  140.0440   70.7230  225.9780 C   0  0  0  0  0  0  0  0  0  0  0  0
  140.6290   71.5230  226.9120 C   0  0  0  0  0  0  0  0  0  0  0  0
  141.0850   70.9310  228.0740 C   0  0  0  0  0  0  0  0  0  0  0  0
  140.9740   69.5800  228.3240 C   0  0  0  0  0  0  0  0  0  0  0  0
  140.3750   68.8110  227.3480 C   0  0  0  0  0  0  0  0  0  0  0  0
  139.9160   69.3720  226.1920 C   0  0  0  0  0  0  0  0  0  0  0  0
  139.3170   68.6420  225.2030 C   0  0  0  0  0  0  0  0  0  0  0  0
  139.1950   67.4050  225.3900 O   0  0  0  0  0  0  0  0  0  0  0  0
  138.8600   69.2350  224.0410 N   0  0  0  0  0  0  0  0  0  0  0  0
  138.2710   68.3100  223.1420 C   0  0  0  0  0  0  0  0  0  0  0  0
  136.9000   68.4270  222.8500 C   0  0  0  0  0  0  0  0  0  0  0  0
  136.2720   67.5230  222.0150 C   0  0  0  0  0  0  0  0  0  0  0  0
  137.0190   66.4880  221.4620 C   0  0  0  0  0  0  0  0  0  0  0  0
  138.3680   66.3590  221.7370 C   0  0  0  0  0  0  0  0  0  0  0  0
  139.0160   67.2610  222.5760 C   0  0  0  0  0  0  0  0  0  0  0  0
  135.8810   71.0870  224.1820 C   0  0  0  0  0  0  0  0  0  0  0  0
  134.8900   71.2330  225.1140 C   0  0  0  0  0  0  0  0  0  0  0  0
  130.7069   72.5681  226.5131 H   0  0  0  0  0  0  0  0  0  0  0  0
  131.3442   73.5041  225.1187 H   0  0  0  0  0  0  0  0  0  0  0  0
  131.4465   71.7107  225.1187 H   0  0  0  0  0  0  0  0  0  0  0  0
  134.4091   74.5500  224.8325 H   0  0  0  0  0  0  0  0  0  0  0  0
  136.1999   74.2625  223.1539 H   0  0  0  0  0  0  0  0  0  0  0  0
  137.2891   72.3014  221.4392 H   0  0  0  0  0  0  0  0  0  0  0  0
  139.3323   71.4077  221.9156 H   0  0  0  0  0  0  0  0  0  0  0  0
  140.7350   72.6053  226.7466 H   0  0  0  0  0  0  0  0  0  0  0  0
  141.5590   71.5677  228.8355 H   0  0  0  0  0  0  0  0  0  0  0  0
  141.3460   69.1355  229.2589 H   0  0  0  0  0  0  0  0  0  0  0  0
  140.2656   67.7277  227.5042 H   0  0  0  0  0  0  0  0  0  0  0  0
  136.3196   69.2499  223.2927 H   0  0  0  0  0  0  0  0  0  0  0  0
  135.1994   67.6201  221.7912 H   0  0  0  0  0  0  0  0  0  0  0  0
  136.5295   65.7618  220.7964 H   0  0  0  0  0  0  0  0  0  0  0  0
  138.9368   65.5322  221.2865 H   0  0  0  0  0  0  0  0  0  0  0  0
  140.0894   67.1551  222.7918 H   0  0  0  0  0  0  0  0  0  0  0  0
  136.2937   70.0825  224.0070 H   0  0  0  0  0  0  0  0  0  0  0  0
  134.5267   70.3540  225.6666 H   0  0  0  0  0  0  0  0  0  0  0  0
  1  2  1  0
  2  3  2  0
  2  4  2  0
  2  5  1  0
  5  6  2  0
  6  7  1  0
  7  8  2  0
  8  9  1  0
  9 10  2  0
 10 11  1  0
 11 12  2  0
 12 13  1  0
 13 14  2  0
 14 15  1  0
 15 16  2  0
 16 17  1  0
 17 18  2  0
 18 19  1  0
 19 20  2  0
 19 21  1  0
 21 22  1  0
 22 23  2  0
 23 24  1  0
 24 25  2  0
 25 26  1  0
 26 27  2  0
  8 28  1  0
 28 29  2  0
 29  5  1  0
 21 11  1  0
 27 22  1  0
 18 13  1  0
  1 30  1  0
  1 31  1  0
  1 32  1  0
  6 33  1  0
  7 34  1  0
  9 35  1  0
 10 36  1  0
 14 37  1  0
 15 38  1  0
 16 39  1  0
 17 40  1  0
 23 41  1  0
 24 42  1  0
 25 43  1  0
 26 44  1  0
 27 45  1  0
 28 46  1  0
 29 47  1  0
M  END
>  <smiles>  (30) 
CS(=O)(=O)c1ccc(/C=C/c2nc3ccccc3c(=O)n2-c2ccccc2)cc1

>  <score_type>  (30) 
oracle

>  <origin>  (30) 
autodockgpu

>  <m_score__min__energy>  (30) 
-8.9199999999999999

>  <m_primary>  (30) 
energy

>  <rmsd>  (30) 
11.99360806500943

>  <m_score__min__rmsd>  (30) 
11.99360806500943

>  <meeko>  (30) 
{"free_energy": -8.47, "intermolecular_energy": -9.96, "internal_energy": -1.62, "cluster_size": 11, "cluster_id": 3, "rank_in_cluster": 4}

>  <energy>  (30) 
-8.61

>  <cluster_rmsd>  (30) 
0.76

>  <cluster>  (30) 
2

$$$$

     RDKit          3D

 47 50  0  0  0  0  0  0  0  0999 V2000
  131.9730   74.5080  225.2160 C   0  0  0  0  0  0  0  0  0  0  0  0
  133.4600   74.0700  226.0960 S   0  0  0  0  0  0  0  0  0  0  0  0
  133.1940   73.0850  227.1950 O   0  0  0  0  0  0  0  0  0  0  0  0
  134.0040   75.3330  226.6830 O   0  0  0  0  0  0  0  0  0  0  0  0
  134.6180   73.3950  225.0010 C   0  0  0  0  0  0  0  0  0  0  0  0
  134.9010   72.0490  225.0410 C   0  0  0  0  0  0  0  0  0  0  0  0
  135.8310   71.4850  224.1670 C   0  0  0  0  0  0  0  0  0  0  0  0
  136.5000   72.2390  223.2360 C   0  0  0  0  0  0  0  0  0  0  0  0
  137.4840   71.7000  222.2970 C   0  0  0  0  0  0  0  0  0  0  0  0
  138.6440   71.2100  222.6350 C   0  0  0  0  0  0  0  0  0  0  0  0
  139.0400   70.4650  223.7900 C   0  0  0  0  0  0  0  0  0  0  0  0
  139.6520   71.1820  224.7910 N   0  0  0  0  0  0  0  0  0  0  0  0
  140.0910   70.6960  225.9290 C   0  0  0  0  0  0  0  0  0  0  0  0
  140.6820   71.5160  226.8410 C   0  0  0  0  0  0  0  0  0  0  0  0
  141.1270   70.9530  228.0220 C   0  0  0  0  0  0  0  0  0  0  0  0
  140.9980   69.6110  228.3110 C   0  0  0  0  0  0  0  0  0  0  0  0
  140.3930   68.8210  227.3550 C   0  0  0  0  0  0  0  0  0  0  0  0
  139.9460   69.3530  226.1810 C   0  0  0  0  0  0  0  0  0  0  0  0
  139.3420   68.6030  225.2120 C   0  0  0  0  0  0  0  0  0  0  0  0
  139.2040   67.3730  225.4340 O   0  0  0  0  0  0  0  0  0  0  0  0
  138.8970   69.1670  224.0310 N   0  0  0  0  0  0  0  0  0  0  0  0
  138.3010   68.2230  223.1560 C   0  0  0  0  0  0  0  0  0  0  0  0
  136.9410   68.3690  222.8270 C   0  0  0  0  0  0  0  0  0  0  0  0
  136.3040   67.4500  222.0150 C   0  0  0  0  0  0  0  0  0  0  0  0
  137.0310   66.3710  221.5220 C   0  0  0  0  0  0  0  0  0  0  0  0
  138.3680   66.2130  221.8350 C   0  0  0  0  0  0  0  0  0  0  0  0
  139.0250   67.1290  222.6530 C   0  0  0  0  0  0  0  0  0  0  0  0
  136.1920   73.6010  223.2200 C   0  0  0  0  0  0  0  0  0  0  0  0
  135.2820   74.1670  224.0710 C   0  0  0  0  0  0  0  0  0  0  0  0
  131.1760   74.7428  225.9369 H   0  0  0  0  0  0  0  0  0  0  0  0
  132.1665   75.3873  224.5840 H   0  0  0  0  0  0  0  0  0  0  0  0
  131.6589   73.6642  224.5840 H   0  0  0  0  0  0  0  0  0  0  0  0
  134.3867   71.4084  225.7725 H   0  0  0  0  0  0  0  0  0  0  0  0
  136.0336   70.4054  224.2260 H   0  0  0  0  0  0  0  0  0  0  0  0
  137.2263   71.7088  221.2276 H   0  0  0  0  0  0  0  0  0  0  0  0
  139.4513   71.4011  221.9127 H   0  0  0  0  0  0  0  0  0  0  0  0
  140.8014   72.5916  226.6442 H   0  0  0  0  0  0  0  0  0  0  0  0
  141.6065   71.6059  228.7662 H   0  0  0  0  0  0  0  0  0  0  0  0
  141.3607   69.1895  229.2601 H   0  0  0  0  0  0  0  0  0  0  0  0
  140.2691   67.7442  227.5427 H   0  0  0  0  0  0  0  0  0  0  0  0
  136.3767   69.2268  223.2217 H   0  0  0  0  0  0  0  0  0  0  0  0
  135.2400   67.5695  221.7627 H   0  0  0  0  0  0  0  0  0  0  0  0
  136.5348   65.6334  220.8741 H   0  0  0  0  0  0  0  0  0  0  0  0
  138.9210   65.3516  221.4323 H   0  0  0  0  0  0  0  0  0  0  0  0
  140.0889   66.9986  222.9002 H   0  0  0  0  0  0  0  0  0  0  0  0
  136.7033   74.2472  222.4914 H   0  0  0  0  0  0  0  0  0  0  0  0
  135.0785   75.2464  224.0128 H   0  0  0  0  0  0  0  0  0  0  0  0
  1  2  1  0
  2  3  2  0
  2  4  2  0
  2  5  1  0
  5  6  2  0
  6  7  1  0
  7  8  2  0
  8  9  1  0
  9 10  2  0
 10 11  1  0
 11 12  2  0
 12 13  1  0
 13 14  2  0
 14 15  1  0
 15 16  2  0
 16 17  1  0
 17 18  2  0
 18 19  1  0
 19 20  2  0
 19 21  1  0
 21 22  1  0
 22 23  2  0
 23 24  1  0
 24 25  2  0
 25 26  1  0
 26 27  2  0
  8 28  1  0
 28 29  2  0
 29  5  1  0
 21 11  1  0
 27 22  1  0
 18 13  1  0
  1 30  1  0
  1 31  1  0
  1 32  1  0
  6 33  1  0
  7 34  1  0
  9 35  1  0
 10 36  1  0
 14 37  1  0
 15 38  1  0
 16 39  1  0
 17 40  1  0
 23 41  1  0
 24 42  1  0
 25 43  1  0
 26 44  1  0
 27 45  1  0
 28 46  1  0
 29 47  1  0
M  END
>  <smiles>  (31) 
CS(=O)(=O)c1ccc(/C=C/c2nc3ccccc3c(=O)n2-c2ccccc2)cc1

>  <score_type>  (31) 
oracle

>  <origin>  (31) 
autodockgpu

>  <m_score__min__energy>  (31) 
-8.9199999999999999

>  <m_primary>  (31) 
energy

>  <rmsd>  (31) 
12.022956717231168

>  <m_score__min__rmsd>  (31) 
12.022956717231168

>  <meeko>  (31) 
{"free_energy": -8.53, "intermolecular_energy": -10.03, "internal_energy": -1.57, "cluster_size": 11, "cluster_id": 3, "rank_in_cluster": 1}

>  <energy>  (31) 
-8.55

>  <cluster_rmsd>  (31) 
0.42

>  <cluster>  (31) 
2

$$$$

     RDKit          3D

 47 50  0  0  0  0  0  0  0  0999 V2000
  144.9660   73.7500  217.3080 C   0  0  0  0  0  0  0  0  0  0  0  0
  145.2650   72.8570  218.8210 S   0  0  0  0  0  0  0  0  0  0  0  0
  146.4000   73.4450  219.6060 O   0  0  0  0  0  0  0  0  0  0  0  0
  145.6040   71.4530  218.4360 O   0  0  0  0  0  0  0  0  0  0  0  0
  143.8390   72.8600  219.8020 C   0  0  0  0  0  0  0  0  0  0  0  0
  143.1610   74.0360  220.0280 C   0  0  0  0  0  0  0  0  0  0  0  0
  142.0100   74.0600  220.8160 C   0  0  0  0  0  0  0  0  0  0  0  0
  141.5040   72.9230  221.3950 C   0  0  0  0  0  0  0  0  0  0  0  0
  140.3030   72.8930  222.2290 C   0  0  0  0  0  0  0  0  0  0  0  0
  139.6330   71.8160  222.5290 C   0  0  0  0  0  0  0  0  0  0  0  0
  139.7200   70.9490  223.6630 C   0  0  0  0  0  0  0  0  0  0  0  0
  140.2520   71.5000  224.8050 N   0  0  0  0  0  0  0  0  0  0  0  0
  140.4210   70.8840  225.9510 C   0  0  0  0  0  0  0  0  0  0  0  0
  140.9620   71.5460  227.0110 C   0  0  0  0  0  0  0  0  0  0  0  0
  141.1190   70.8490  228.1940 C   0  0  0  0  0  0  0  0  0  0  0  0
  140.7530   69.5280  228.3450 C   0  0  0  0  0  0  0  0  0  0  0  0
  140.2100   68.9010  227.2420 C   0  0  0  0  0  0  0  0  0  0  0  0
  140.0460   69.5670  226.0620 C   0  0  0  0  0  0  0  0  0  0  0  0
  139.5110   68.9800  224.9500 C   0  0  0  0  0  0  0  0  0  0  0  0
  139.1650   67.7740  225.0420 O   0  0  0  0  0  0  0  0  0  0  0  0
  139.3550   69.6770  223.7670 N   0  0  0  0  0  0  0  0  0  0  0  0
  138.7850   68.8920  222.7330 C   0  0  0  0  0  0  0  0  0  0  0  0
  139.5820   68.5420  221.6280 C   0  0  0  0  0  0  0  0  0  0  0  0
  139.0590   67.8170  220.5750 C   0  0  0  0  0  0  0  0  0  0  0  0
  137.7230   67.4330  220.6220 C   0  0  0  0  0  0  0  0  0  0  0  0
  136.9240   67.7680  221.7000 C   0  0  0  0  0  0  0  0  0  0  0  0
  137.4350   68.4990  222.7690 C   0  0  0  0  0  0  0  0  0  0  0  0
  142.2150   71.7470  221.1470 C   0  0  0  0  0  0  0  0  0  0  0  0
  143.3450   71.7090  220.3770 C   0  0  0  0  0  0  0  0  0  0  0  0
  144.6249   74.7686  217.5447 H   0  0  0  0  0  0  0  0  0  0  0  0
  145.8959   73.8014  216.7227 H   0  0  0  0  0  0  0  0  0  0  0  0
  144.1926   73.2311  216.7227 H   0  0  0  0  0  0  0  0  0  0  0  0
  143.5318   74.9702  219.5811 H   0  0  0  0  0  0  0  0  0  0  0  0
  141.4932   75.0174  220.9779 H   0  0  0  0  0  0  0  0  0  0  0  0
  139.9385   73.8492  222.6326 H   0  0  0  0  0  0  0  0  0  0  0  0
  138.8748   71.5258  221.7868 H   0  0  0  0  0  0  0  0  0  0  0  0
  141.2640   72.6005  226.9284 H   0  0  0  0  0  0  0  0  0  0  0  0
  141.5568   71.3730  229.0564 H   0  0  0  0  0  0  0  0  0  0  0  0
  140.8876   68.9988  229.2999 H   0  0  0  0  0  0  0  0  0  0  0  0
  139.9043   67.8469  227.3151 H   0  0  0  0  0  0  0  0  0  0  0  0
  140.6376   68.8503  221.6021 H   0  0  0  0  0  0  0  0  0  0  0  0
  139.6884   67.5479  219.7139 H   0  0  0  0  0  0  0  0  0  0  0  0
  137.2957   66.8545  219.7897 H   0  0  0  0  0  0  0  0  0  0  0  0
  135.8703   67.4525  221.7130 H   0  0  0  0  0  0  0  0  0  0  0  0
  136.7960   68.7638  223.6243 H   0  0  0  0  0  0  0  0  0  0  0  0
  141.8500   70.8090  221.5908 H   0  0  0  0  0  0  0  0  0  0  0  0
  143.8634   70.7524  220.2155 H   0  0  0  0  0  0  0  0  0  0  0  0
  1  2  1  0
  2  3  2  0
  2  4  2  0
  2  5  1  0
  5  6  2  0
  6  7  1  0
  7  8  2  0
  8  9  1  0
  9 10  2  0
 10 11  1  0
 11 12  2  0
 12 13  1  0
 13 14  2  0
 14 15  1  0
 15 16  2  0
 16 17  1  0
 17 18  2  0
 18 19  1  0
 19 20  2  0
 19 21  1  0
 21 22  1  0
 22 23  2  0
 23 24  1  0
 24 25  2  0
 25 26  1  0
 26 27  2  0
  8 28  1  0
 28 29  2  0
 29  5  1  0
 21 11  1  0
 27 22  1  0
 18 13  1  0
  1 30  1  0
  1 31  1  0
  1 32  1  0
  6 33  1  0
  7 34  1  0
  9 35  1  0
 10 36  1  0
 14 37  1  0
 15 38  1  0
 16 39  1  0
 17 40  1  0
 23 41  1  0
 24 42  1  0
 25 43  1  0
 26 44  1  0
 27 45  1  0
 28 46  1  0
 29 47  1  0
M  END
>  <smiles>  (32) 
CS(=O)(=O)c1ccc(/C=C/c2nc3ccccc3c(=O)n2-c2ccccc2)cc1

>  <score_type>  (32) 
oracle

>  <origin>  (32) 
autodockgpu

>  <m_score__min__energy>  (32) 
-8.9199999999999999

>  <m_primary>  (32) 
energy

>  <rmsd>  (32) 
11.483477200378966

>  <m_score__min__rmsd>  (32) 
11.483477200378966

>  <meeko>  (32) 
{"free_energy": -8.72, "intermolecular_energy": -10.21, "internal_energy": -1.36, "cluster_size": 36, "cluster_id": 2, "rank_in_cluster": 15}

>  <energy>  (32) 
-8.45

>  <cluster_rmsd>  (32) 
1.7

>  <cluster>  (32) 
2

$$$$

     RDKit          3D

 47 50  0  0  0  0  0  0  0  0999 V2000
  144.9770   73.7050  217.9700 C   0  0  0  0  0  0  0  0  0  0  0  0
  145.0980   73.1240  219.6500 S   0  0  0  0  0  0  0  0  0  0  0  0
  145.7300   74.1410  220.5530 O   0  0  0  0  0  0  0  0  0  0  0  0
  145.9440   71.8920  219.6220 O   0  0  0  0  0  0  0  0  0  0  0  0
  143.5240   72.7320  220.2550 C   0  0  0  0  0  0  0  0  0  0  0  0
  142.7000   73.7270  220.7270 C   0  0  0  0  0  0  0  0  0  0  0  0
  141.4280   73.4330  221.2180 C   0  0  0  0  0  0  0  0  0  0  0  0
  140.9440   72.1490  221.2540 C   0  0  0  0  0  0  0  0  0  0  0  0
  139.6200   71.7850  221.7590 C   0  0  0  0  0  0  0  0  0  0  0  0
  139.2880   71.7530  223.0190 C   0  0  0  0  0  0  0  0  0  0  0  0
  139.5130   70.7550  224.0170 C   0  0  0  0  0  0  0  0  0  0  0  0
  140.1350   71.1790  225.1680 N   0  0  0  0  0  0  0  0  0  0  0  0
  140.4350   70.4300  226.2030 C   0  0  0  0  0  0  0  0  0  0  0  0
  141.0550   70.9760  227.2860 C   0  0  0  0  0  0  0  0  0  0  0  0
  141.3480   70.1420  228.3480 C   0  0  0  0  0  0  0  0  0  0  0  0
  141.0410   68.7980  228.3580 C   0  0  0  0  0  0  0  0  0  0  0  0
  140.4140   68.2920  227.2380 C   0  0  0  0  0  0  0  0  0  0  0  0
  140.1150   69.0950  226.1750 C   0  0  0  0  0  0  0  0  0  0  0  0
  139.4940   68.6300  225.0500 C   0  0  0  0  0  0  0  0  0  0  0  0
  139.1960   67.4090  225.0150 O   0  0  0  0  0  0  0  0  0  0  0  0
  139.2010   69.4640  223.9870 N   0  0  0  0  0  0  0  0  0  0  0  0
  138.5580   68.7920  222.9160 C   0  0  0  0  0  0  0  0  0  0  0  0
  139.3380   68.3260  221.8420 C   0  0  0  0  0  0  0  0  0  0  0  0
  138.7520   67.7060  220.7560 C   0  0  0  0  0  0  0  0  0  0  0  0
  137.3700   67.5460  220.7370 C   0  0  0  0  0  0  0  0  0  0  0  0
  136.5890   67.9970  221.7850 C   0  0  0  0  0  0  0  0  0  0  0  0
  137.1630   68.6250  222.8870 C   0  0  0  0  0  0  0  0  0  0  0  0
  141.8040   71.1610  220.7690 C   0  0  0  0  0  0  0  0  0  0  0  0
  143.0540   71.4360  220.2840 C   0  0  0  0  0  0  0  0  0  0  0  0
  144.7527   74.7819  217.9697 H   0  0  0  0  0  0  0  0  0  0  0  0
  145.9311   73.5290  217.4516 H   0  0  0  0  0  0  0  0  0  0  0  0
  144.1725   73.1628  217.4516 H   0  0  0  0  0  0  0  0  0  0  0  0
  143.0493   74.7700  220.7171 H   0  0  0  0  0  0  0  0  0  0  0  0
  140.7948   74.2533  221.5868 H   0  0  0  0  0  0  0  0  0  0  0  0
  138.8484   71.5189  221.0215 H   0  0  0  0  0  0  0  0  0  0  0  0
  138.7445   72.6414  223.3729 H   0  0  0  0  0  0  0  0  0  0  0  0
  141.3137   72.0448  227.3142 H   0  0  0  0  0  0  0  0  0  0  0  0
  141.8503   70.5710  229.2276 H   0  0  0  0  0  0  0  0  0  0  0  0
  141.2847   68.1585  229.2192 H   0  0  0  0  0  0  0  0  0  0  0  0
  140.1508   67.2246  227.2009 H   0  0  0  0  0  0  0  0  0  0  0  0
  140.4298   68.4573  221.8676 H   0  0  0  0  0  0  0  0  0  0  0  0
  139.3680   67.3445  219.9194 H   0  0  0  0  0  0  0  0  0  0  0  0
  136.8924   67.0542  219.8768 H   0  0  0  0  0  0  0  0  0  0  0  0
  135.4985   67.8576  221.7475 H   0  0  0  0  0  0  0  0  0  0  0  0
  136.5374   68.9831  223.7179 H   0  0  0  0  0  0  0  0  0  0  0  0
  141.4615   70.1157  220.7772 H   0  0  0  0  0  0  0  0  0  0  0  0
  143.6885   70.6169  219.9145 H   0  0  0  0  0  0  0  0  0  0  0  0
  1  2  1  0
  2  3  2  0
  2  4  2  0
  2  5  1  0
  5  6  2  0
  6  7  1  0
  7  8  2  0
  8  9  1  0
  9 10  2  0
 10 11  1  0
 11 12  2  0
 12 13  1  0
 13 14  2  0
 14 15  1  0
 15 16  2  0
 16 17  1  0
 17 18  2  0
 18 19  1  0
 19 20  2  0
 19 21  1  0
 21 22  1  0
 22 23  2  0
 23 24  1  0
 24 25  2  0
 25 26  1  0
 26 27  2  0
  8 28  1  0
 28 29  2  0
 29  5  1  0
 21 11  1  0
 27 22  1  0
 18 13  1  0
  1 30  1  0
  1 31  1  0
  1 32  1  0
  6 33  1  0
  7 34  1  0
  9 35  1  0
 10 36  1  0
 14 37  1  0
 15 38  1  0
 16 39  1  0
 17 40  1  0
 23 41  1  0
 24 42  1  0
 25 43  1  0
 26 44  1  0
 27 45  1  0
 28 46  1  0
 29 47  1  0
M  END
>  <smiles>  (33) 
CS(=O)(=O)c1ccc(/C=C/c2nc3ccccc3c(=O)n2-c2ccccc2)cc1

>  <score_type>  (33) 
oracle

>  <origin>  (33) 
autodockgpu

>  <m_score__min__energy>  (33) 
-8.9199999999999999

>  <m_primary>  (33) 
energy

>  <rmsd>  (33) 
11.873584278915983

>  <m_score__min__rmsd>  (33) 
11.873584278915983

>  <meeko>  (33) 
{"free_energy": -8.33, "intermolecular_energy": -9.82, "internal_energy": -1.51, "cluster_size": 36, "cluster_id": 2, "rank_in_cluster": 33}

>  <energy>  (33) 
-8.39

>  <cluster_rmsd>  (33) 
0.8

>  <cluster>  (33) 
2

$$$$

     RDKit          3D

 47 50  0  0  0  0  0  0  0  0999 V2000
  144.9320   73.7670  217.2200 C   0  0  0  0  0  0  0  0  0  0  0  0
  145.2580   72.8400  218.7060 S   0  0  0  0  0  0  0  0  0  0  0  0
  146.4250   73.3930  219.4700 O   0  0  0  0  0  0  0  0  0  0  0  0
  145.5620   71.4380  218.2840 O   0  0  0  0  0  0  0  0  0  0  0  0
  143.8610   72.8470  219.7270 C   0  0  0  0  0  0  0  0  0  0  0  0
  143.4110   71.6740  220.2880 C   0  0  0  0  0  0  0  0  0  0  0  0
  142.2870   71.6580  221.1150 C   0  0  0  0  0  0  0  0  0  0  0  0
  141.5840   72.8010  221.4030 C   0  0  0  0  0  0  0  0  0  0  0  0
  140.4000   72.8400  222.2610 C   0  0  0  0  0  0  0  0  0  0  0  0
  139.6710   71.8050  222.5710 C   0  0  0  0  0  0  0  0  0  0  0  0
  139.7390   70.9190  223.6920 C   0  0  0  0  0  0  0  0  0  0  0  0
  140.2750   71.4430  224.8450 N   0  0  0  0  0  0  0  0  0  0  0  0
  140.4290   70.8060  225.9820 C   0  0  0  0  0  0  0  0  0  0  0  0
  140.9760   71.4420  227.0540 C   0  0  0  0  0  0  0  0  0  0  0  0
  141.1160   70.7240  228.2270 C   0  0  0  0  0  0  0  0  0  0  0  0
  140.7280   69.4070  228.3550 C   0  0  0  0  0  0  0  0  0  0  0  0
  140.1800   68.8070  227.2400 C   0  0  0  0  0  0  0  0  0  0  0  0
  140.0320   69.4940  226.0700 C   0  0  0  0  0  0  0  0  0  0  0  0
  139.4920   68.9330  224.9460 C   0  0  0  0  0  0  0  0  0  0  0  0
  139.1250   67.7330  225.0180 O   0  0  0  0  0  0  0  0  0  0  0  0
  139.3530   69.6520  223.7740 N   0  0  0  0  0  0  0  0  0  0  0  0
  138.7740   68.8930  222.7250 C   0  0  0  0  0  0  0  0  0  0  0  0
  139.5630   68.5690  221.6060 C   0  0  0  0  0  0  0  0  0  0  0  0
  139.0310   67.8710  220.5400 C   0  0  0  0  0  0  0  0  0  0  0  0
  137.6950   67.4870  220.5860 C   0  0  0  0  0  0  0  0  0  0  0  0
  136.9050   67.7960  221.6780 C   0  0  0  0  0  0  0  0  0  0  0  0
  137.4240   68.5000  222.7610 C   0  0  0  0  0  0  0  0  0  0  0  0
  142.0640   73.9750  220.8190 C   0  0  0  0  0  0  0  0  0  0  0  0
  143.1650   74.0050  220.0070 C   0  0  0  0  0  0  0  0  0  0  0  0
  144.5779   74.7739  217.4862 H   0  0  0  0  0  0  0  0  0  0  0  0
  145.8557   73.8477  216.6281 H   0  0  0  0  0  0  0  0  0  0  0  0
  144.1611   73.2518  216.6281 H   0  0  0  0  0  0  0  0  0  0  0  0
  143.9452   70.7348  220.0815 H   0  0  0  0  0  0  0  0  0  0  0  0
  141.9553   70.7028  221.5481 H   0  0  0  0  0  0  0  0  0  0  0  0
  140.1029   73.8148  222.6752 H   0  0  0  0  0  0  0  0  0  0  0  0
  138.8713   71.5747  221.8517 H   0  0  0  0  0  0  0  0  0  0  0  0
  141.2960   72.4924  226.9891 H   0  0  0  0  0  0  0  0  0  0  0  0
  141.5579   71.2272  229.0997 H   0  0  0  0  0  0  0  0  0  0  0  0
  140.8497   68.8603  229.3018 H   0  0  0  0  0  0  0  0  0  0  0  0
  139.8568   67.7570  227.2949 H   0  0  0  0  0  0  0  0  0  0  0  0
  140.6189   68.8762  221.5800 H   0  0  0  0  0  0  0  0  0  0  0  0
  139.6540   67.6226  219.6681 H   0  0  0  0  0  0  0  0  0  0  0  0
  137.2611   66.9301  219.7425 H   0  0  0  0  0  0  0  0  0  0  0  0
  135.8512   67.4809  221.6911 H   0  0  0  0  0  0  0  0  0  0  0  0
  136.7913   68.7439  223.6271 H   0  0  0  0  0  0  0  0  0  0  0  0
  141.5336   74.9174  221.0206 H   0  0  0  0  0  0  0  0  0  0  0  0
  143.4978   74.9599  219.5741 H   0  0  0  0  0  0  0  0  0  0  0  0
  1  2  1  0
  2  3  2  0
  2  4  2  0
  2  5  1  0
  5  6  2  0
  6  7  1  0
  7  8  2  0
  8  9  1  0
  9 10  2  0
 10 11  1  0
 11 12  2  0
 12 13  1  0
 13 14  2  0
 14 15  1  0
 15 16  2  0
 16 17  1  0
 17 18  2  0
 18 19  1  0
 19 20  2  0
 19 21  1  0
 21 22  1  0
 22 23  2  0
 23 24  1  0
 24 25  2  0
 25 26  1  0
 26 27  2  0
  8 28  1  0
 28 29  2  0
 29  5  1  0
 21 11  1  0
 27 22  1  0
 18 13  1  0
  1 30  1  0
  1 31  1  0
  1 32  1  0
  6 33  1  0
  7 34  1  0
  9 35  1  0
 10 36  1  0
 14 37  1  0
 15 38  1  0
 16 39  1  0
 17 40  1  0
 23 41  1  0
 24 42  1  0
 25 43  1  0
 26 44  1  0
 27 45  1  0
 28 46  1  0
 29 47  1  0
M  END
>  <smiles>  (34) 
CS(=O)(=O)c1ccc(/C=C/c2nc3ccccc3c(=O)n2-c2ccccc2)cc1

>  <score_type>  (34) 
oracle

>  <origin>  (34) 
autodockgpu

>  <m_score__min__energy>  (34) 
-8.9199999999999999

>  <m_primary>  (34) 
energy

>  <rmsd>  (34) 
11.525074329587625

>  <m_score__min__rmsd>  (34) 
11.525074329587625

>  <meeko>  (34) 
{"free_energy": -8.68, "intermolecular_energy": -10.17, "internal_energy": -1.34, "cluster_size": 36, "cluster_id": 2, "rank_in_cluster": 21}

>  <energy>  (34) 
-8.38

>  <cluster_rmsd>  (34) 
1.62

>  <cluster>  (34) 
2

$$$$

     RDKit          3D

 47 50  0  0  0  0  0  0  0  0999 V2000
  146.3950   73.7310  221.0150 C   0  0  0  0  0  0  0  0  0  0  0  0
  145.5450   72.6820  219.8520 S   0  0  0  0  0  0  0  0  0  0  0  0
  146.1910   71.3330  219.7350 O   0  0  0  0  0  0  0  0  0  0  0  0
  145.5970   73.3720  218.5270 O   0  0  0  0  0  0  0  0  0  0  0  0
  143.8960   72.4770  220.3350 C   0  0  0  0  0  0  0  0  0  0  0  0
  143.2930   71.2450  220.2240 C   0  0  0  0  0  0  0  0  0  0  0  0
  141.9650   71.0590  220.6080 C   0  0  0  0  0  0  0  0  0  0  0  0
  141.2040   72.0860  221.1090 C   0  0  0  0  0  0  0  0  0  0  0  0
  139.8090   71.9460  221.5250 C   0  0  0  0  0  0  0  0  0  0  0  0
  139.3950   71.9720  222.7600 C   0  0  0  0  0  0  0  0  0  0  0  0
  139.5610   71.0260  223.8190 C   0  0  0  0  0  0  0  0  0  0  0  0
  140.1070   71.5120  224.9840 N   0  0  0  0  0  0  0  0  0  0  0  0
  140.3450   70.8180  226.0720 C   0  0  0  0  0  0  0  0  0  0  0  0
  140.8920   71.4210  227.1640 C   0  0  0  0  0  0  0  0  0  0  0  0
  141.1210   70.6440  228.2820 C   0  0  0  0  0  0  0  0  0  0  0  0
  140.8220   69.2990  228.3400 C   0  0  0  0  0  0  0  0  0  0  0  0
  140.2700   68.7330  227.2090 C   0  0  0  0  0  0  0  0  0  0  0  0
  140.0340   69.4800  226.0910 C   0  0  0  0  0  0  0  0  0  0  0  0
  139.4880   68.9550  224.9530 C   0  0  0  0  0  0  0  0  0  0  0  0
  139.2010   67.7310  224.9600 O   0  0  0  0  0  0  0  0  0  0  0  0
  139.2590   69.7330  223.8330 N   0  0  0  0  0  0  0  0  0  0  0  0
  138.6900   69.0040  222.7590 C   0  0  0  0  0  0  0  0  0  0  0  0
  139.5120   68.6320  221.6800 C   0  0  0  0  0  0  0  0  0  0  0  0
  138.9930   67.9600  220.5900 C   0  0  0  0  0  0  0  0  0  0  0  0
  137.6370   67.6530  220.5730 C   0  0  0  0  0  0  0  0  0  0  0  0
  136.8140   68.0100  221.6250 C   0  0  0  0  0  0  0  0  0  0  0  0
  137.3200   68.6880  222.7310 C   0  0  0  0  0  0  0  0  0  0  0  0
  141.8440   73.3240  221.2080 C   0  0  0  0  0  0  0  0  0  0  0  0
  143.1450   73.5200  220.8360 C   0  0  0  0  0  0  0  0  0  0  0  0
  146.1438   73.4210  222.0401 H   0  0  0  0  0  0  0  0  0  0  0  0
  147.4808   73.6444  220.8614 H   0  0  0  0  0  0  0  0  0  0  0  0
  146.0851   74.7752  220.8614 H   0  0  0  0  0  0  0  0  0  0  0  0
  143.8666   70.3946  219.8267 H   0  0  0  0  0  0  0  0  0  0  0  0
  141.5145   70.0606  220.5065 H   0  0  0  0  0  0  0  0  0  0  0  0
  139.0537   71.8086  220.7372 H   0  0  0  0  0  0  0  0  0  0  0  0
  138.8228   72.8709  223.0333 H   0  0  0  0  0  0  0  0  0  0  0  0
  141.1431   72.4919  227.1554 H   0  0  0  0  0  0  0  0  0  0  0  0
  141.5632   71.1207  229.1692 H   0  0  0  0  0  0  0  0  0  0  0  0
  141.0146   68.7050  229.2456 H   0  0  0  0  0  0  0  0  0  0  0  0
  140.0161   67.6627  227.2083 H   0  0  0  0  0  0  0  0  0  0  0  0
  140.5835   68.8797  221.7043 H   0  0  0  0  0  0  0  0  0  0  0  0
  139.6419   67.6726  219.7495 H   0  0  0  0  0  0  0  0  0  0  0  0
  137.2129   67.1184  219.7102 H   0  0  0  0  0  0  0  0  0  0  0  0
  135.7446   67.7549  221.5878 H   0  0  0  0  0  0  0  0  0  0  0  0
  136.6616   68.9706  223.5657 H   0  0  0  0  0  0  0  0  0  0  0  0
  141.2758   74.1792  221.6028 H   0  0  0  0  0  0  0  0  0  0  0  0
  143.5967   74.5179  220.9371 H   0  0  0  0  0  0  0  0  0  0  0  0
  1  2  1  0
  2  3  2  0
  2  4  2  0
  2  5  1  0
  5  6  2  0
  6  7  1  0
  7  8  2  0
  8  9  1  0
  9 10  2  0
 10 11  1  0
 11 12  2  0
 12 13  1  0
 13 14  2  0
 14 15  1  0
 15 16  2  0
 16 17  1  0
 17 18  2  0
 18 19  1  0
 19 20  2  0
 19 21  1  0
 21 22  1  0
 22 23  2  0
 23 24  1  0
 24 25  2  0
 25 26  1  0
 26 27  2  0
  8 28  1  0
 28 29  2  0
 29  5  1  0
 21 11  1  0
 27 22  1  0
 18 13  1  0
  1 30  1  0
  1 31  1  0
  1 32  1  0
  6 33  1  0
  7 34  1  0
  9 35  1  0
 10 36  1  0
 14 37  1  0
 15 38  1  0
 16 39  1  0
 17 40  1  0
 23 41  1  0
 24 42  1  0
 25 43  1  0
 26 44  1  0
 27 45  1  0
 28 46  1  0
 29 47  1  0
M  END
>  <smiles>  (35) 
CS(=O)(=O)c1ccc(/C=C/c2nc3ccccc3c(=O)n2-c2ccccc2)cc1

>  <score_type>  (35) 
oracle

>  <origin>  (35) 
autodockgpu

>  <m_score__min__energy>  (35) 
-8.9199999999999999

>  <m_primary>  (35) 
energy

>  <rmsd>  (35) 
11.516893021249368

>  <m_score__min__rmsd>  (35) 
11.516893021249368

>  <meeko>  (35) 
{"free_energy": -8.69, "intermolecular_energy": -10.18, "internal_energy": -1.54, "cluster_size": 36, "cluster_id": 2, "rank_in_cluster": 20}

>  <energy>  (35) 
-8.34

>  <cluster_rmsd>  (35) 
1.08

>  <cluster>  (35) 
2

$$$$

     RDKit          3D

 47 50  0  0  0  0  0  0  0  0999 V2000
  146.6580   73.7770  220.6960 C   0  0  0  0  0  0  0  0  0  0  0  0
  145.6240   72.7160  219.7060 S   0  0  0  0  0  0  0  0  0  0  0  0
  146.1310   71.3050  219.6750 O   0  0  0  0  0  0  0  0  0  0  0  0
  145.6310   73.2760  218.3200 O   0  0  0  0  0  0  0  0  0  0  0  0
  144.0070   72.7210  220.3240 C   0  0  0  0  0  0  0  0  0  0  0  0
  143.3560   71.5320  220.5580 C   0  0  0  0  0  0  0  0  0  0  0  0
  142.0530   71.5140  221.0570 C   0  0  0  0  0  0  0  0  0  0  0  0
  141.3660   72.6700  221.3330 C   0  0  0  0  0  0  0  0  0  0  0  0
  140.0000   72.7080  221.8550 C   0  0  0  0  0  0  0  0  0  0  0  0
  139.3460   71.6730  222.3020 C   0  0  0  0  0  0  0  0  0  0  0  0
  139.5260   70.8990  223.4910 C   0  0  0  0  0  0  0  0  0  0  0  0
  140.0610   71.5640  224.5700 N   0  0  0  0  0  0  0  0  0  0  0  0
  140.3080   71.0450  225.7500 C   0  0  0  0  0  0  0  0  0  0  0  0
  140.8420   71.8140  226.7380 C   0  0  0  0  0  0  0  0  0  0  0  0
  141.0820   71.2170  227.9610 C   0  0  0  0  0  0  0  0  0  0  0  0
  140.8050   69.8910  228.2190 C   0  0  0  0  0  0  0  0  0  0  0  0
  140.2650   69.1530  227.1860 C   0  0  0  0  0  0  0  0  0  0  0  0
  140.0200   69.7200  225.9690 C   0  0  0  0  0  0  0  0  0  0  0  0
  139.4860   69.0210  224.9230 C   0  0  0  0  0  0  0  0  0  0  0  0
  139.2180   67.8070  225.1140 O   0  0  0  0  0  0  0  0  0  0  0  0
  139.2460   69.6180  223.7000 N   0  0  0  0  0  0  0  0  0  0  0  0
  138.6910   68.7270  222.7470 C   0  0  0  0  0  0  0  0  0  0  0  0
  139.4960   68.2840  221.6820 C   0  0  0  0  0  0  0  0  0  0  0  0
  138.9870   67.4510  220.7050 C   0  0  0  0  0  0  0  0  0  0  0  0
  137.6580   67.0510  220.7880 C   0  0  0  0  0  0  0  0  0  0  0  0
  136.8520   67.4750  221.8280 C   0  0  0  0  0  0  0  0  0  0  0  0
  137.3480   68.3160  222.8210 C   0  0  0  0  0  0  0  0  0  0  0  0
  142.0540   73.8600  221.0850 C   0  0  0  0  0  0  0  0  0  0  0  0
  143.3320   73.8920  220.5960 C   0  0  0  0  0  0  0  0  0  0  0  0
  146.4686   73.5827  221.7620 H   0  0  0  0  0  0  0  0  0  0  0  0
  147.7151   73.5748  220.4686 H   0  0  0  0  0  0  0  0  0  0  0  0
  146.4287   74.8285  220.4686 H   0  0  0  0  0  0  0  0  0  0  0  0
  143.8698   70.5821  220.3488 H   0  0  0  0  0  0  0  0  0  0  0  0
  141.5622   70.5457  221.2343 H   0  0  0  0  0  0  0  0  0  0  0  0
  139.4874   73.6811  221.8715 H   0  0  0  0  0  0  0  0  0  0  0  0
  138.5187   71.3397  221.6582 H   0  0  0  0  0  0  0  0  0  0  0  0
  141.0748   72.8756  226.5686 H   0  0  0  0  0  0  0  0  0  0  0  0
  141.5144   71.8284  228.7667 H   0  0  0  0  0  0  0  0  0  0  0  0
  141.0054   69.4423  229.2031 H   0  0  0  0  0  0  0  0  0  0  0  0
  140.0282   68.0908  227.3458 H   0  0  0  0  0  0  0  0  0  0  0  0
  140.5464   68.6057  221.6265 H   0  0  0  0  0  0  0  0  0  0  0  0
  139.6227   67.1096  219.8747 H   0  0  0  0  0  0  0  0  0  0  0  0
  137.2420   66.3878  220.0152 H   0  0  0  0  0  0  0  0  0  0  0  0
  135.8041   67.1434  221.8718 H   0  0  0  0  0  0  0  0  0  0  0  0
  136.7028   68.6519  223.6461 H   0  0  0  0  0  0  0  0  0  0  0  0
  141.5463   74.8136  221.2919 H   0  0  0  0  0  0  0  0  0  0  0  0
  143.8244   74.8595  220.4186 H   0  0  0  0  0  0  0  0  0  0  0  0
  1  2  1  0
  2  3  2  0
  2  4  2  0
  2  5  1  0
  5  6  2  0
  6  7  1  0
  7  8  2  0
  8  9  1  0
  9 10  2  0
 10 11  1  0
 11 12  2  0
 12 13  1  0
 13 14  2  0
 14 15  1  0
 15 16  2  0
 16 17  1  0
 17 18  2  0
 18 19  1  0
 19 20  2  0
 19 21  1  0
 21 22  1  0
 22 23  2  0
 23 24  1  0
 24 25  2  0
 25 26  1  0
 26 27  2  0
  8 28  1  0
 28 29  2  0
 29  5  1  0
 21 11  1  0
 27 22  1  0
 18 13  1  0
  1 30  1  0
  1 31  1  0
  1 32  1  0
  6 33  1  0
  7 34  1  0
  9 35  1  0
 10 36  1  0
 14 37  1  0
 15 38  1  0
 16 39  1  0
 17 40  1  0
 23 41  1  0
 24 42  1  0
 25 43  1  0
 26 44  1  0
 27 45  1  0
 28 46  1  0
 29 47  1  0
M  END
>  <smiles>  (36) 
CS(=O)(=O)c1ccc(/C=C/c2nc3ccccc3c(=O)n2-c2ccccc2)cc1

>  <score_type>  (36) 
oracle

>  <origin>  (36) 
autodockgpu

>  <m_score__min__energy>  (36) 
-8.9199999999999999

>  <m_primary>  (36) 
energy

>  <rmsd>  (36) 
11.44032020954355

>  <m_score__min__rmsd>  (36) 
11.44032020954355

>  <meeko>  (36) 
{"free_energy": -8.78, "intermolecular_energy": -10.27, "internal_energy": -1.43, "cluster_size": 36, "cluster_id": 2, "rank_in_cluster": 11}

>  <energy>  (36) 
-8.33

>  <cluster_rmsd>  (36) 
1.01

>  <cluster>  (36) 
2

$$$$

     RDKit          3D

 47 50  0  0  0  0  0  0  0  0999 V2000
  146.3940   73.7620  220.8290 C   0  0  0  0  0  0  0  0  0  0  0  0
  145.5990   72.6070  219.7290 S   0  0  0  0  0  0  0  0  0  0  0  0
  146.3010   71.2820  219.7010 O   0  0  0  0  0  0  0  0  0  0  0  0
  145.6340   73.2150  218.3640 O   0  0  0  0  0  0  0  0  0  0  0  0
  143.9550   72.3650  220.2130 C   0  0  0  0  0  0  0  0  0  0  0  0
  143.2460   73.3970  220.7850 C   0  0  0  0  0  0  0  0  0  0  0  0
  141.9200   73.2220  221.1810 C   0  0  0  0  0  0  0  0  0  0  0  0
  141.2670   72.0260  221.0220 C   0  0  0  0  0  0  0  0  0  0  0  0
  139.8800   71.7890  221.4200 C   0  0  0  0  0  0  0  0  0  0  0  0
  139.4320   71.8710  222.6420 C   0  0  0  0  0  0  0  0  0  0  0  0
  139.5830   70.9800  223.7500 C   0  0  0  0  0  0  0  0  0  0  0  0
  140.1230   71.5230  224.8930 N   0  0  0  0  0  0  0  0  0  0  0  0
  140.3460   70.8860  226.0180 C   0  0  0  0  0  0  0  0  0  0  0  0
  140.8880   71.5420  227.0810 C   0  0  0  0  0  0  0  0  0  0  0  0
  141.1030   70.8230  228.2410 C   0  0  0  0  0  0  0  0  0  0  0  0
  140.7930   69.4850  228.3670 C   0  0  0  0  0  0  0  0  0  0  0  0
  140.2460   68.8650  227.2620 C   0  0  0  0  0  0  0  0  0  0  0  0
  140.0250   69.5530  226.1040 C   0  0  0  0  0  0  0  0  0  0  0  0
  139.4850   68.9720  224.9910 C   0  0  0  0  0  0  0  0  0  0  0  0
  139.1880   67.7530  225.0610 O   0  0  0  0  0  0  0  0  0  0  0  0
  139.2710   69.6920  223.8300 N   0  0  0  0  0  0  0  0  0  0  0  0
  138.7050   68.9110  222.7910 C   0  0  0  0  0  0  0  0  0  0  0  0
  137.3400   68.5760  222.8610 C   0  0  0  0  0  0  0  0  0  0  0  0
  136.7540   67.7810  221.8950 C   0  0  0  0  0  0  0  0  0  0  0  0
  137.5360   67.3120  220.8450 C   0  0  0  0  0  0  0  0  0  0  0  0
  138.8780   67.6320  220.7600 C   0  0  0  0  0  0  0  0  0  0  0  0
  139.4850   68.4310  221.7250 C   0  0  0  0  0  0  0  0  0  0  0  0
  142.0130   70.9990  220.4390 C   0  0  0  0  0  0  0  0  0  0  0  0
  143.3140   71.1560  220.0450 C   0  0  0  0  0  0  0  0  0  0  0  0
  146.1946   73.4723  221.8713 H   0  0  0  0  0  0  0  0  0  0  0  0
  147.4789   73.7541  220.6473 H   0  0  0  0  0  0  0  0  0  0  0  0
  145.9992   74.7725  220.6473 H   0  0  0  0  0  0  0  0  0  0  0  0
  143.7317   74.3730  220.9318 H   0  0  0  0  0  0  0  0  0  0  0  0
  141.3821   74.0678  221.6341 H   0  0  0  0  0  0  0  0  0  0  0  0
  139.1618   71.5220  220.6307 H   0  0  0  0  0  0  0  0  0  0  0  0
  138.8409   72.7738  222.8553 H   0  0  0  0  0  0  0  0  0  0  0  0
  141.1462   72.6094  227.0182 H   0  0  0  0  0  0  0  0  0  0  0  0
  141.5424   71.3425  229.1053 H   0  0  0  0  0  0  0  0  0  0  0  0
  140.9732   68.9378  229.3041 H   0  0  0  0  0  0  0  0  0  0  0  0
  139.9836   67.7981  227.3154 H   0  0  0  0  0  0  0  0  0  0  0  0
  136.7312   68.9523  223.6963 H   0  0  0  0  0  0  0  0  0  0  0  0
  135.6863   67.5232  221.9554 H   0  0  0  0  0  0  0  0  0  0  0  0
  137.0800   66.6772  220.0710 H   0  0  0  0  0  0  0  0  0  0  0  0
  139.4745   67.2501  219.9184 H   0  0  0  0  0  0  0  0  0  0  0  0
  140.5538   68.6816  221.6546 H   0  0  0  0  0  0  0  0  0  0  0  0
  141.5333   70.0204  220.2900 H   0  0  0  0  0  0  0  0  0  0  0  0
  143.8525   70.3112  219.5908 H   0  0  0  0  0  0  0  0  0  0  0  0
  1  2  1  0
  2  3  2  0
  2  4  2  0
  2  5  1  0
  5  6  2  0
  6  7  1  0
  7  8  2  0
  8  9  1  0
  9 10  2  0
 10 11  1  0
 11 12  2  0
 12 13  1  0
 13 14  2  0
 14 15  1  0
 15 16  2  0
 16 17  1  0
 17 18  2  0
 18 19  1  0
 19 20  2  0
 19 21  1  0
 21 22  1  0
 22 23  2  0
 23 24  1  0
 24 25  2  0
 25 26  1  0
 26 27  2  0
  8 28  1  0
 28 29  2  0
 29  5  1  0
 21 11  1  0
 27 22  1  0
 18 13  1  0
  1 30  1  0
  1 31  1  0
  1 32  1  0
  6 33  1  0
  7 34  1  0
  9 35  1  0
 10 36  1  0
 14 37  1  0
 15 38  1  0
 16 39  1  0
 17 40  1  0
 23 41  1  0
 24 42  1  0
 25 43  1  0
 26 44  1  0
 27 45  1  0
 28 46  1  0
 29 47  1  0
M  END
>  <smiles>  (37) 
CS(=O)(=O)c1ccc(/C=C/c2nc3ccccc3c(=O)n2-c2ccccc2)cc1

>  <score_type>  (37) 
oracle

>  <origin>  (37) 
autodockgpu

>  <m_score__min__energy>  (37) 
-8.9199999999999999

>  <m_primary>  (37) 
energy

>  <rmsd>  (37) 
11.68280745047351

>  <m_score__min__rmsd>  (37) 
11.68280745047351

>  <meeko>  (37) 
{"free_energy": -8.86, "intermolecular_energy": -10.35, "internal_energy": -1.49, "cluster_size": 36, "cluster_id": 2, "rank_in_cluster": 6}

>  <energy>  (37) 
-8.29

>  <cluster_rmsd>  (37) 
1.6

>  <cluster>  (37) 
2

$$$$

     RDKit          3D

 47 50  0  0  0  0  0  0  0  0999 V2000
  146.4160   73.4280  221.2480 C   0  0  0  0  0  0  0  0  0  0  0  0
  145.6630   72.5150  219.9160 S   0  0  0  0  0  0  0  0  0  0  0  0
  146.3160   71.1790  219.7110 O   0  0  0  0  0  0  0  0  0  0  0  0
  145.8250   73.3400  218.6790 O   0  0  0  0  0  0  0  0  0  0  0  0
  143.9800   72.2780  220.2370 C   0  0  0  0  0  0  0  0  0  0  0  0
  143.3710   71.0950  219.8830 C   0  0  0  0  0  0  0  0  0  0  0  0
  142.0140   70.8840  220.1340 C   0  0  0  0  0  0  0  0  0  0  0  0
  141.2320   71.8350  220.7390 C   0  0  0  0  0  0  0  0  0  0  0  0
  139.8070   71.6660  221.0240 C   0  0  0  0  0  0  0  0  0  0  0  0
  139.2740   71.7260  222.2110 C   0  0  0  0  0  0  0  0  0  0  0  0
  139.4820   70.9120  223.3680 C   0  0  0  0  0  0  0  0  0  0  0  0
  140.0250   71.5440  224.4630 N   0  0  0  0  0  0  0  0  0  0  0  0
  140.2960   70.9860  225.6190 C   0  0  0  0  0  0  0  0  0  0  0  0
  140.8350   71.7260  226.6270 C   0  0  0  0  0  0  0  0  0  0  0  0
  141.1010   71.0880  227.8230 C   0  0  0  0  0  0  0  0  0  0  0  0
  140.8460   69.7500  228.0370 C   0  0  0  0  0  0  0  0  0  0  0  0
  140.3000   69.0430  226.9860 C   0  0  0  0  0  0  0  0  0  0  0  0
  140.0280   69.6500  225.7940 C   0  0  0  0  0  0  0  0  0  0  0  0
  139.4870   68.9820  224.7310 C   0  0  0  0  0  0  0  0  0  0  0  0
  139.2380   67.7590  224.8810 O   0  0  0  0  0  0  0  0  0  0  0  0
  139.2210   69.6210  223.5340 N   0  0  0  0  0  0  0  0  0  0  0  0
  138.6630   68.7570  222.5570 C   0  0  0  0  0  0  0  0  0  0  0  0
  139.4920   68.2690  221.5310 C   0  0  0  0  0  0  0  0  0  0  0  0
  138.9840   67.4610  220.5320 C   0  0  0  0  0  0  0  0  0  0  0  0
  137.6320   67.1320  220.5550 C   0  0  0  0  0  0  0  0  0  0  0  0
  136.8040   67.6020  221.5570 C   0  0  0  0  0  0  0  0  0  0  0  0
  137.2990   68.4180  222.5710 C   0  0  0  0  0  0  0  0  0  0  0  0
  141.8790   73.0240  221.0860 C   0  0  0  0  0  0  0  0  0  0  0  0
  143.2080   73.2440  220.8460 C   0  0  0  0  0  0  0  0  0  0  0  0
  146.0777   73.0178  222.2109 H   0  0  0  0  0  0  0  0  0  0  0  0
  147.5105   73.3435  221.1777 H   0  0  0  0  0  0  0  0  0  0  0  0
  146.1247   74.4864  221.1777 H   0  0  0  0  0  0  0  0  0  0  0  0
  143.9618   70.3053  219.3957 H   0  0  0  0  0  0  0  0  0  0  0  0
  141.5586   69.9274  219.8381 H   0  0  0  0  0  0  0  0  0  0  0  0
  139.1364   71.4742  220.1734 H   0  0  0  0  0  0  0  0  0  0  0  0
  138.5430   72.5369  222.3456 H   0  0  0  0  0  0  0  0  0  0  0  0
  141.0514   72.7962  226.4934 H   0  0  0  0  0  0  0  0  0  0  0  0
  141.5372   71.6757  228.6442 H   0  0  0  0  0  0  0  0  0  0  0  0
  141.0676   69.2688  229.0010 H   0  0  0  0  0  0  0  0  0  0  0  0
  140.0802   67.9724  227.1104 H   0  0  0  0  0  0  0  0  0  0  0  0
  140.5595   68.5343  221.5238 H   0  0  0  0  0  0  0  0  0  0  0  0
  139.6375   67.0839  219.7315 H   0  0  0  0  0  0  0  0  0  0  0  0
  137.2166   66.4891  219.7649 H   0  0  0  0  0  0  0  0  0  0  0  0
  135.7388   67.3275  221.5534 H   0  0  0  0  0  0  0  0  0  0  0  0
  136.6363   68.7896  223.3665 H   0  0  0  0  0  0  0  0  0  0  0  0
  141.2942   73.8180  221.5735 H   0  0  0  0  0  0  0  0  0  0  0  0
  143.6644   74.2002  221.1416 H   0  0  0  0  0  0  0  0  0  0  0  0
  1  2  1  0
  2  3  2  0
  2  4  2  0
  2  5  1  0
  5  6  2  0
  6  7  1  0
  7  8  2  0
  8  9  1  0
  9 10  2  0
 10 11  1  0
 11 12  2  0
 12 13  1  0
 13 14  2  0
 14 15  1  0
 15 16  2  0
 16 17  1  0
 17 18  2  0
 18 19  1  0
 19 20  2  0
 19 21  1  0
 21 22  1  0
 22 23  2  0
 23 24  1  0
 24 25  2  0
 25 26  1  0
 26 27  2  0
  8 28  1  0
 28 29  2  0
 29  5  1  0
 21 11  1  0
 27 22  1  0
 18 13  1  0
  1 30  1  0
  1 31  1  0
  1 32  1  0
  6 33  1  0
  7 34  1  0
  9 35  1  0
 10 36  1  0
 14 37  1  0
 15 38  1  0
 16 39  1  0
 17 40  1  0
 23 41  1  0
 24 42  1  0
 25 43  1  0
 26 44  1  0
 27 45  1  0
 28 46  1  0
 29 47  1  0
M  END
>  <smiles>  (38) 
CS(=O)(=O)c1ccc(/C=C/c2nc3ccccc3c(=O)n2-c2ccccc2)cc1

>  <score_type>  (38) 
oracle

>  <origin>  (38) 
autodockgpu

>  <m_score__min__energy>  (38) 
-8.9199999999999999

>  <m_primary>  (38) 
energy

>  <rmsd>  (38) 
11.413645712458228

>  <m_score__min__rmsd>  (38) 
11.413645712458228

>  <meeko>  (38) 
{"free_energy": -8.65, "intermolecular_energy": -10.14, "internal_energy": -1.56, "cluster_size": 36, "cluster_id": 2, "rank_in_cluster": 25}

>  <energy>  (38) 
-8.26

>  <cluster_rmsd>  (38) 
0.65

>  <cluster>  (38) 
2

$$$$

     RDKit          3D

 47 50  0  0  0  0  0  0  0  0999 V2000
  144.9630   73.7570  217.2960 C   0  0  0  0  0  0  0  0  0  0  0  0
  145.2780   72.8910  218.8210 S   0  0  0  0  0  0  0  0  0  0  0  0
  146.4080   73.5060  219.5940 O   0  0  0  0  0  0  0  0  0  0  0  0
  145.6350   71.4860  218.4560 O   0  0  0  0  0  0  0  0  0  0  0  0
  143.8550   72.8900  219.8060 C   0  0  0  0  0  0  0  0  0  0  0  0
  143.1720   74.0630  220.0310 C   0  0  0  0  0  0  0  0  0  0  0  0
  142.0220   74.0840  220.8210 C   0  0  0  0  0  0  0  0  0  0  0  0
  141.5250   72.9460  221.4060 C   0  0  0  0  0  0  0  0  0  0  0  0
  140.3260   72.9120  222.2430 C   0  0  0  0  0  0  0  0  0  0  0  0
  139.6540   71.8340  222.5380 C   0  0  0  0  0  0  0  0  0  0  0  0
  139.7400   70.9630  223.6680 C   0  0  0  0  0  0  0  0  0  0  0  0
  140.2740   71.5080  224.8130 N   0  0  0  0  0  0  0  0  0  0  0  0
  140.4420   70.8860  225.9560 C   0  0  0  0  0  0  0  0  0  0  0  0
  140.9850   71.5430  227.0190 C   0  0  0  0  0  0  0  0  0  0  0  0
  141.1400   70.8410  228.1990 C   0  0  0  0  0  0  0  0  0  0  0  0
  140.7720   69.5200  228.3440 C   0  0  0  0  0  0  0  0  0  0  0  0
  140.2270   68.8990  227.2390 C   0  0  0  0  0  0  0  0  0  0  0  0
  140.0640   69.5700  226.0620 C   0  0  0  0  0  0  0  0  0  0  0  0
  139.5280   68.9880  224.9470 C   0  0  0  0  0  0  0  0  0  0  0  0
  139.1790   67.7830  225.0340 O   0  0  0  0  0  0  0  0  0  0  0  0
  139.3730   69.6900  223.7670 N   0  0  0  0  0  0  0  0  0  0  0  0
  138.8010   68.9110  222.7290 C   0  0  0  0  0  0  0  0  0  0  0  0
  137.4500   68.5340  222.8310 C   0  0  0  0  0  0  0  0  0  0  0  0
  136.8600   67.7370  221.8680 C   0  0  0  0  0  0  0  0  0  0  0  0
  137.6250   67.3110  220.7880 C   0  0  0  0  0  0  0  0  0  0  0  0
  138.9540   67.6730  220.6710 C   0  0  0  0  0  0  0  0  0  0  0  0
  139.5650   68.4740  221.6330 C   0  0  0  0  0  0  0  0  0  0  0  0
  142.2400   71.7720  221.1590 C   0  0  0  0  0  0  0  0  0  0  0  0
  143.3680   71.7380  220.3870 C   0  0  0  0  0  0  0  0  0  0  0  0
  144.5948   74.7694  217.5186 H   0  0  0  0  0  0  0  0  0  0  0  0
  145.8939   73.8252  216.7140 H   0  0  0  0  0  0  0  0  0  0  0  0
  144.2058   73.2111  216.7140 H   0  0  0  0  0  0  0  0  0  0  0  0
  143.5379   74.9979  219.5815 H   0  0  0  0  0  0  0  0  0  0  0  0
  141.4993   75.0388  220.9794 H   0  0  0  0  0  0  0  0  0  0  0  0
  139.9644   73.8661  222.6540 H   0  0  0  0  0  0  0  0  0  0  0  0
  138.8957   71.5477  221.7943 H   0  0  0  0  0  0  0  0  0  0  0  0
  141.2898   72.5970  226.9404 H   0  0  0  0  0  0  0  0  0  0  0  0
  141.5778   71.3607  229.0640 H   0  0  0  0  0  0  0  0  0  0  0  0
  140.9067   68.9862  229.2963 H   0  0  0  0  0  0  0  0  0  0  0  0
  139.9187   67.8453  227.3080 H   0  0  0  0  0  0  0  0  0  0  0  0
  136.8543   68.8782  223.6893 H   0  0  0  0  0  0  0  0  0  0  0  0
  135.8031   67.4447  221.9546 H   0  0  0  0  0  0  0  0  0  0  0  0
  137.1660   66.6767  220.0154 H   0  0  0  0  0  0  0  0  0  0  0  0
  139.5371   67.3236  219.8062 H   0  0  0  0  0  0  0  0  0  0  0  0
  140.6232   68.7586  221.5370 H   0  0  0  0  0  0  0  0  0  0  0  0
  141.8798   70.8333  221.6052 H   0  0  0  0  0  0  0  0  0  0  0  0
  143.8914   70.7837  220.2280 H   0  0  0  0  0  0  0  0  0  0  0  0
  1  2  1  0
  2  3  2  0
  2  4  2  0
  2  5  1  0
  5  6  2  0
  6  7  1  0
  7  8  2  0
  8  9  1  0
  9 10  2  0
 10 11  1  0
 11 12  2  0
 12 13  1  0
 13 14  2  0
 14 15  1  0
 15 16  2  0
 16 17  1  0
 17 18  2  0
 18 19  1  0
 19 20  2  0
 19 21  1  0
 21 22  1  0
 22 23  2  0
 23 24  1  0
 24 25  2  0
 25 26  1  0
 26 27  2  0
  8 28  1  0
 28 29  2  0
 29  5  1  0
 21 11  1  0
 27 22  1  0
 18 13  1  0
  1 30  1  0
  1 31  1  0
  1 32  1  0
  6 33  1  0
  7 34  1  0
  9 35  1  0
 10 36  1  0
 14 37  1  0
 15 38  1  0
 16 39  1  0
 17 40  1  0
 23 41  1  0
 24 42  1  0
 25 43  1  0
 26 44  1  0
 27 45  1  0
 28 46  1  0
 29 47  1  0
M  END
>  <smiles>  (39) 
CS(=O)(=O)c1ccc(/C=C/c2nc3ccccc3c(=O)n2-c2ccccc2)cc1

>  <score_type>  (39) 
oracle

>  <origin>  (39) 
autodockgpu

>  <m_score__min__energy>  (39) 
-8.9199999999999999

>  <m_primary>  (39) 
energy

>  <rmsd>  (39) 
11.65562053083169

>  <m_score__min__rmsd>  (39) 
11.65562053083169

>  <meeko>  (39) 
{"free_energy": -8.73, "intermolecular_energy": -10.22, "internal_energy": -1.33, "cluster_size": 36, "cluster_id": 2, "rank_in_cluster": 14}

>  <energy>  (39) 
-8.08

>  <cluster_rmsd>  (39) 
1.98

>  <cluster>  (39) 
2

$$$$

     RDKit          3D

 47 50  0  0  0  0  0  0  0  0999 V2000
  146.6760   73.4030  221.7340 C   0  0  0  0  0  0  0  0  0  0  0  0
  145.9180   72.7300  220.2680 S   0  0  0  0  0  0  0  0  0  0  0  0
  146.5040   71.4010  219.8910 O   0  0  0  0  0  0  0  0  0  0  0  0
  146.1620   73.7090  219.1650 O   0  0  0  0  0  0  0  0  0  0  0  0
  144.2150   72.5470  220.5130 C   0  0  0  0  0  0  0  0  0  0  0  0
  143.6580   71.2900  220.5730 C   0  0  0  0  0  0  0  0  0  0  0  0
  142.2870   71.1210  220.7700 C   0  0  0  0  0  0  0  0  0  0  0  0
  141.4380   72.1900  220.9130 C   0  0  0  0  0  0  0  0  0  0  0  0
  139.9950   72.0690  221.1200 C   0  0  0  0  0  0  0  0  0  0  0  0
  139.4080   72.0760  222.2840 C   0  0  0  0  0  0  0  0  0  0  0  0
  139.5650   71.2110  223.4120 C   0  0  0  0  0  0  0  0  0  0  0  0
  140.1000   71.7830  224.5430 N   0  0  0  0  0  0  0  0  0  0  0  0
  140.3280   71.1710  225.6810 C   0  0  0  0  0  0  0  0  0  0  0  0
  140.8640   71.8550  226.7300 C   0  0  0  0  0  0  0  0  0  0  0  0
  141.0830   71.1630  227.9060 C   0  0  0  0  0  0  0  0  0  0  0  0
  140.7840   69.8260  228.0600 C   0  0  0  0  0  0  0  0  0  0  0  0
  140.2430   69.1770  226.9690 C   0  0  0  0  0  0  0  0  0  0  0  0
  140.0170   69.8380  225.7960 C   0  0  0  0  0  0  0  0  0  0  0  0
  139.4830   69.2300  224.6960 C   0  0  0  0  0  0  0  0  0  0  0  0
  139.1950   68.0090  224.7910 O   0  0  0  0  0  0  0  0  0  0  0  0
  139.2640   69.9220  223.5200 N   0  0  0  0  0  0  0  0  0  0  0  0
  138.7050   69.1150  222.4970 C   0  0  0  0  0  0  0  0  0  0  0  0
  139.5470   68.6230  221.4840 C   0  0  0  0  0  0  0  0  0  0  0  0
  139.0410   67.8690  220.4430 C   0  0  0  0  0  0  0  0  0  0  0  0
  137.6770   67.6000  220.4080 C   0  0  0  0  0  0  0  0  0  0  0  0
  136.8340   68.0750  221.3960 C   0  0  0  0  0  0  0  0  0  0  0  0
  137.3270   68.8370  222.4520 C   0  0  0  0  0  0  0  0  0  0  0  0
  142.0330   73.4520  220.8470 C   0  0  0  0  0  0  0  0  0  0  0  0
  143.3750   73.6320  220.6540 C   0  0  0  0  0  0  0  0  0  0  0  0
  146.1940   72.9751  222.6254 H   0  0  0  0  0  0  0  0  0  0  0  0
  147.7472   73.1530  221.7407 H   0  0  0  0  0  0  0  0  0  0  0  0
  146.5546   74.4963  221.7407 H   0  0  0  0  0  0  0  0  0  0  0  0
  144.3030   70.4056  220.4641 H   0  0  0  0  0  0  0  0  0  0  0  0
  141.8748   70.1020  220.8119 H   0  0  0  0  0  0  0  0  0  0  0  0
  139.3589   71.9645  220.2287 H   0  0  0  0  0  0  0  0  0  0  0  0
  138.6700   72.8801  222.4212 H   0  0  0  0  0  0  0  0  0  0  0  0
  141.1142   72.9227  226.6439 H   0  0  0  0  0  0  0  0  0  0  0  0
  141.5164   71.7046  228.7597 H   0  0  0  0  0  0  0  0  0  0  0  0
  140.9682   69.3008  229.0088 H   0  0  0  0  0  0  0  0  0  0  0  0
  139.9896   68.1093  227.0457 H   0  0  0  0  0  0  0  0  0  0  0  0
  140.6244   68.8417  221.5210 H   0  0  0  0  0  0  0  0  0  0  0  0
  139.7063   67.4875  219.6544 H   0  0  0  0  0  0  0  0  0  0  0  0
  137.2631   67.0013  219.5833 H   0  0  0  0  0  0  0  0  0  0  0  0
  135.7589   67.8477  221.3470 H   0  0  0  0  0  0  0  0  0  0  0  0
  136.6525   69.2138  223.2350 H   0  0  0  0  0  0  0  0  0  0  0  0
  141.3938   74.3407  220.9551 H   0  0  0  0  0  0  0  0  0  0  0  0
  143.7880   74.6506  220.6109 H   0  0  0  0  0  0  0  0  0  0  0  0
  1  2  1  0
  2  3  2  0
  2  4  2  0
  2  5  1  0
  5  6  2  0
  6  7  1  0
  7  8  2  0
  8  9  1  0
  9 10  2  0
 10 11  1  0
 11 12  2  0
 12 13  1  0
 13 14  2  0
 14 15  1  0
 15 16  2  0
 16 17  1  0
 17 18  2  0
 18 19  1  0
 19 20  2  0
 19 21  1  0
 21 22  1  0
 22 23  2  0
 23 24  1  0
 24 25  2  0
 25 26  1  0
 26 27  2  0
  8 28  1  0
 28 29  2  0
 29  5  1  0
 21 11  1  0
 27 22  1  0
 18 13  1  0
  1 30  1  0
  1 31  1  0
  1 32  1  0
  6 33  1  0
  7 34  1  0
  9 35  1  0
 10 36  1  0
 14 37  1  0
 15 38  1  0
 16 39  1  0
 17 40  1  0
 23 41  1  0
 24 42  1  0
 25 43  1  0
 26 44  1  0
 27 45  1  0
 28 46  1  0
 29 47  1  0
M  END
>  <smiles>  (40) 
CS(=O)(=O)c1ccc(/C=C/c2nc3ccccc3c(=O)n2-c2ccccc2)cc1

>  <score_type>  (40) 
oracle

>  <origin>  (40) 
autodockgpu

>  <m_score__min__energy>  (40) 
-8.9199999999999999

>  <m_primary>  (40) 
energy

>  <rmsd>  (40) 
11.19053021093705

>  <m_score__min__rmsd>  (40) 
11.19053021093705

>  <meeko>  (40) 
{"free_energy": -8.26, "intermolecular_energy": -9.75, "internal_energy": -1.58, "cluster_size": 36, "cluster_id": 2, "rank_in_cluster": 35}

>  <energy>  (40) 
-8.53

>  <cluster_rmsd>  (40) 
0.0

>  <cluster>  (40) 
3

$$$$

     RDKit          3D

 47 50  0  0  0  0  0  0  0  0999 V2000
  145.2300   73.4090  217.8130 C   0  0  0  0  0  0  0  0  0  0  0  0
  145.3640   72.9090  219.5180 S   0  0  0  0  0  0  0  0  0  0  0  0
  146.2500   73.8280  220.3060 O   0  0  0  0  0  0  0  0  0  0  0  0
  145.9500   71.5330  219.5220 O   0  0  0  0  0  0  0  0  0  0  0  0
  143.7960   72.8720  220.2490 C   0  0  0  0  0  0  0  0  0  0  0  0
  143.0980   74.0420  220.4430 C   0  0  0  0  0  0  0  0  0  0  0  0
  141.8320   74.0340  221.0300 C   0  0  0  0  0  0  0  0  0  0  0  0
  141.2300   72.8700  221.4370 C   0  0  0  0  0  0  0  0  0  0  0  0
  139.9070   72.8060  222.0580 C   0  0  0  0  0  0  0  0  0  0  0  0
  139.3130   71.7070  222.4310 C   0  0  0  0  0  0  0  0  0  0  0  0
  139.4990   70.8980  223.5960 C   0  0  0  0  0  0  0  0  0  0  0  0
  140.0660   71.5220  224.6820 N   0  0  0  0  0  0  0  0  0  0  0  0
  140.3230   70.9660  225.8430 C   0  0  0  0  0  0  0  0  0  0  0  0
  140.8900   71.6980  226.8420 C   0  0  0  0  0  0  0  0  0  0  0  0
  141.1390   71.0630  228.0430 C   0  0  0  0  0  0  0  0  0  0  0  0
  140.8410   69.7360  228.2710 C   0  0  0  0  0  0  0  0  0  0  0  0
  140.2680   69.0370  227.2280 C   0  0  0  0  0  0  0  0  0  0  0  0
  140.0120   69.6410  226.0310 C   0  0  0  0  0  0  0  0  0  0  0  0
  139.4460   68.9820  224.9760 C   0  0  0  0  0  0  0  0  0  0  0  0
  139.1590   67.7680  225.1400 O   0  0  0  0  0  0  0  0  0  0  0  0
  139.1970   69.6170  223.7740 N   0  0  0  0  0  0  0  0  0  0  0  0
  138.6080   68.7630  222.8080 C   0  0  0  0  0  0  0  0  0  0  0  0
  137.2260   68.5100  222.8780 C   0  0  0  0  0  0  0  0  0  0  0  0
  136.6150   67.6500  221.9870 C   0  0  0  0  0  0  0  0  0  0  0  0
  137.3890   67.0320  221.0100 C   0  0  0  0  0  0  0  0  0  0  0  0
  138.7480   67.2690  220.9260 C   0  0  0  0  0  0  0  0  0  0  0  0
  139.3810   68.1320  221.8170 C   0  0  0  0  0  0  0  0  0  0  0  0
  141.9620   71.7000  221.2270 C   0  0  0  0  0  0  0  0  0  0  0  0
  143.2040   71.6930  220.6530 C   0  0  0  0  0  0  0  0  0  0  0  0
  144.9455   74.4704  217.7634 H   0  0  0  0  0  0  0  0  0  0  0  0
  146.1984   73.2651  217.3115 H   0  0  0  0  0  0  0  0  0  0  0  0
  144.4633   72.8001  217.3115 H   0  0  0  0  0  0  0  0  0  0  0  0
  143.5446   74.9976  220.1308 H   0  0  0  0  0  0  0  0  0  0  0  0
  141.3018   74.9875  221.1704 H   0  0  0  0  0  0  0  0  0  0  0  0
  139.3745   73.7544  222.2222 H   0  0  0  0  0  0  0  0  0  0  0  0
  138.5425   71.3420  221.7359 H   0  0  0  0  0  0  0  0  0  0  0  0
  141.1411   72.7591  226.6971 H   0  0  0  0  0  0  0  0  0  0  0  0
  141.5972   71.6439  228.8570 H   0  0  0  0  0  0  0  0  0  0  0  0
  141.0502   69.2570  229.2389 H   0  0  0  0  0  0  0  0  0  0  0  0
  140.0134   67.9755  227.3636 H   0  0  0  0  0  0  0  0  0  0  0  0
  136.6232   69.0045  223.6539 H   0  0  0  0  0  0  0  0  0  0  0  0
  135.5339   67.4567  222.0487 H   0  0  0  0  0  0  0  0  0  0  0  0
  136.9128   66.3454  220.2946 H   0  0  0  0  0  0  0  0  0  0  0  0
  139.3382   66.7687  220.1441 H   0  0  0  0  0  0  0  0  0  0  0  0
  140.4632   68.3163  221.7471 H   0  0  0  0  0  0  0  0  0  0  0  0
  141.5207   70.7412  221.5368 H   0  0  0  0  0  0  0  0  0  0  0  0
  143.7348   70.7398  220.5125 H   0  0  0  0  0  0  0  0  0  0  0  0
  1  2  1  0
  2  3  2  0
  2  4  2  0
  2  5  1  0
  5  6  2  0
  6  7  1  0
  7  8  2  0
  8  9  1  0
  9 10  2  0
 10 11  1  0
 11 12  2  0
 12 13  1  0
 13 14  2  0
 14 15  1  0
 15 16  2  0
 16 17  1  0
 17 18  2  0
 18 19  1  0
 19 20  2  0
 19 21  1  0
 21 22  1  0
 22 23  2  0
 23 24  1  0
 24 25  2  0
 25 26  1  0
 26 27  2  0
  8 28  1  0
 28 29  2  0
 29  5  1  0
 21 11  1  0
 27 22  1  0
 18 13  1  0
  1 30  1  0
  1 31  1  0
  1 32  1  0
  6 33  1  0
  7 34  1  0
  9 35  1  0
 10 36  1  0
 14 37  1  0
 15 38  1  0
 16 39  1  0
 17 40  1  0
 23 41  1  0
 24 42  1  0
 25 43  1  0
 26 44  1  0
 27 45  1  0
 28 46  1  0
 29 47  1  0
M  END
>  <smiles>  (41) 
CS(=O)(=O)c1ccc(/C=C/c2nc3ccccc3c(=O)n2-c2ccccc2)cc1

>  <score_type>  (41) 
oracle

>  <origin>  (41) 
autodockgpu

>  <m_score__min__energy>  (41) 
-8.9199999999999999

>  <m_primary>  (41) 
energy

>  <rmsd>  (41) 
11.662928864017582

>  <m_score__min__rmsd>  (41) 
11.662928864017582

>  <meeko>  (41) 
{"free_energy": -8.66, "intermolecular_energy": -10.16, "internal_energy": -1.41, "cluster_size": 36, "cluster_id": 2, "rank_in_cluster": 23}

>  <energy>  (41) 
-8.51

>  <cluster_rmsd>  (41) 
0.12

>  <cluster>  (41) 
3

$$$$

     RDKit          3D

 47 50  0  0  0  0  0  0  0  0999 V2000
  144.6650   68.3140  217.6750 C   0  0  0  0  0  0  0  0  0  0  0  0
  145.1240   69.3790  219.0280 S   0  0  0  0  0  0  0  0  0  0  0  0
  146.0590   70.4690  218.5940 O   0  0  0  0  0  0  0  0  0  0  0  0
  145.8040   68.5200  220.0450 O   0  0  0  0  0  0  0  0  0  0  0  0
  143.7110   70.0930  219.7260 C   0  0  0  0  0  0  0  0  0  0  0  0
  142.4800   69.5020  219.5460 C   0  0  0  0  0  0  0  0  0  0  0  0
  141.3290   70.0610  220.1010 C   0  0  0  0  0  0  0  0  0  0  0  0
  141.3680   71.2140  220.8440 C   0  0  0  0  0  0  0  0  0  0  0  0
  140.1920   71.8420  221.4460 C   0  0  0  0  0  0  0  0  0  0  0  0
  139.3210   71.2260  222.1940 C   0  0  0  0  0  0  0  0  0  0  0  0
  139.4650   70.6050  223.4740 C   0  0  0  0  0  0  0  0  0  0  0  0
  140.0530   71.3690  224.4540 N   0  0  0  0  0  0  0  0  0  0  0  0
  140.2800   70.9940  225.6910 C   0  0  0  0  0  0  0  0  0  0  0  0
  140.8730   71.8510  226.5690 C   0  0  0  0  0  0  0  0  0  0  0  0
  141.0880   71.4050  227.8580 C   0  0  0  0  0  0  0  0  0  0  0  0
  140.7320   70.1450  228.2900 C   0  0  0  0  0  0  0  0  0  0  0  0
  140.1350   69.3140  227.3640 C   0  0  0  0  0  0  0  0  0  0  0  0
  139.9120   69.7310  226.0840 C   0  0  0  0  0  0  0  0  0  0  0  0
  139.3230   68.9360  225.1400 C   0  0  0  0  0  0  0  0  0  0  0  0
  138.9820   67.7770  225.4900 O   0  0  0  0  0  0  0  0  0  0  0  0
  139.1070   69.3820  223.8500 N   0  0  0  0  0  0  0  0  0  0  0  0
  138.4870   68.4110  223.0240 C   0  0  0  0  0  0  0  0  0  0  0  0
  137.1230   68.5570  222.7110 C   0  0  0  0  0  0  0  0  0  0  0  0
  136.4640   67.6130  221.9480 C   0  0  0  0  0  0  0  0  0  0  0  0
  137.1710   66.5080  221.4880 C   0  0  0  0  0  0  0  0  0  0  0  0
  138.5120   66.3480  221.7850 C   0  0  0  0  0  0  0  0  0  0  0  0
  139.1920   67.2890  222.5540 C   0  0  0  0  0  0  0  0  0  0  0  0
  142.6300   71.7890  221.0080 C   0  0  0  0  0  0  0  0  0  0  0  0
  143.7680   71.2520  220.4700 C   0  0  0  0  0  0  0  0  0  0  0  0
  144.2589   67.3717  218.0715 H   0  0  0  0  0  0  0  0  0  0  0  0
  143.9016   68.8119  217.0591 H   0  0  0  0  0  0  0  0  0  0  0  0
  145.5512   68.1009  217.0591 H   0  0  0  0  0  0  0  0  0  0  0  0
  142.4036   68.5765  218.9565 H   0  0  0  0  0  0  0  0  0  0  0  0
  140.3617   69.5631  219.9384 H   0  0  0  0  0  0  0  0  0  0  0  0
  140.0312   72.9129  221.2530 H   0  0  0  0  0  0  0  0  0  0  0  0
  138.3069   71.1752  221.7708 H   0  0  0  0  0  0  0  0  0  0  0  0
  141.1705   72.8643  226.2612 H   0  0  0  0  0  0  0  0  0  0  0  0
  141.5666   72.0882  228.5751 H   0  0  0  0  0  0  0  0  0  0  0  0
  140.9152   69.8176  229.3240 H   0  0  0  0  0  0  0  0  0  0  0  0
  139.8340   68.2990  227.6626 H   0  0  0  0  0  0  0  0  0  0  0  0
  136.5735   69.4358  223.0794 H   0  0  0  0  0  0  0  0  0  0  0  0
  135.3972   67.7336  221.7082 H   0  0  0  0  0  0  0  0  0  0  0  0
  136.6564   65.7501  220.8791 H   0  0  0  0  0  0  0  0  0  0  0  0
  139.0492   65.4650  221.4085 H   0  0  0  0  0  0  0  0  0  0  0  0
  140.2585   67.1572  222.7888 H   0  0  0  0  0  0  0  0  0  0  0  0
  142.7131   72.7150  221.5959 H   0  0  0  0  0  0  0  0  0  0  0  0
  144.7357   71.7491  220.6326 H   0  0  0  0  0  0  0  0  0  0  0  0
  1  2  1  0
  2  3  2  0
  2  4  2  0
  2  5  1  0
  5  6  2  0
  6  7  1  0
  7  8  2  0
  8  9  1  0
  9 10  2  0
 10 11  1  0
 11 12  2  0
 12 13  1  0
 13 14  2  0
 14 15  1  0
 15 16  2  0
 16 17  1  0
 17 18  2  0
 18 19  1  0
 19 20  2  0
 19 21  1  0
 21 22  1  0
 22 23  2  0
 23 24  1  0
 24 25  2  0
 25 26  1  0
 26 27  2  0
  8 28  1  0
 28 29  2  0
 29  5  1  0
 21 11  1  0
 27 22  1  0
 18 13  1  0
  1 30  1  0
  1 31  1  0
  1 32  1  0
  6 33  1  0
  7 34  1  0
  9 35  1  0
 10 36  1  0
 14 37  1  0
 15 38  1  0
 16 39  1  0
 17 40  1  0
 23 41  1  0
 24 42  1  0
 25 43  1  0
 26 44  1  0
 27 45  1  0
 28 46  1  0
 29 47  1  0
M  END
>  <smiles>  (42) 
CS(=O)(=O)c1ccc(/C=C/c2nc3ccccc3c(=O)n2-c2ccccc2)cc1

>  <score_type>  (42) 
oracle

>  <origin>  (42) 
autodockgpu

>  <m_score__min__energy>  (42) 
-8.9199999999999999

>  <m_primary>  (42) 
energy

>  <rmsd>  (42) 
11.710135736649978

>  <m_score__min__rmsd>  (42) 
11.710135736649978

>  <meeko>  (42) 
{"free_energy": -8.45, "intermolecular_energy": -9.94, "internal_energy": -1.51, "cluster_size": 36, "cluster_id": 2, "rank_in_cluster": 29}

>  <energy>  (42) 
-8.48

>  <cluster_rmsd>  (42) 
0.63

>  <cluster>  (42) 
3

$$$$

     RDKit          3D

 47 50  0  0  0  0  0  0  0  0999 V2000
  132.0030   74.7900  225.2160 C   0  0  0  0  0  0  0  0  0  0  0  0
  133.4660   74.2900  226.1030 S   0  0  0  0  0  0  0  0  0  0  0  0
  133.1590   73.2770  227.1670 O   0  0  0  0  0  0  0  0  0  0  0  0
  134.0300   75.5200  226.7380 O   0  0  0  0  0  0  0  0  0  0  0  0
  134.6240   73.6220  225.0050 C   0  0  0  0  0  0  0  0  0  0  0  0
  134.9140   72.2770  225.0430 C   0  0  0  0  0  0  0  0  0  0  0  0
  135.8440   71.7180  224.1650 C   0  0  0  0  0  0  0  0  0  0  0  0
  136.5080   72.4770  223.2330 C   0  0  0  0  0  0  0  0  0  0  0  0
  137.4920   71.9430  222.2920 C   0  0  0  0  0  0  0  0  0  0  0  0
  138.6200   71.3850  222.6320 C   0  0  0  0  0  0  0  0  0  0  0  0
  138.9840   70.6640  223.8110 C   0  0  0  0  0  0  0  0  0  0  0  0
  139.6640   71.3780  224.7700 N   0  0  0  0  0  0  0  0  0  0  0  0
  140.0900   70.9110  225.9210 C   0  0  0  0  0  0  0  0  0  0  0  0
  140.7540   71.7250  226.7870 C   0  0  0  0  0  0  0  0  0  0  0  0
  141.1800   71.1830  227.9830 C   0  0  0  0  0  0  0  0  0  0  0  0
  140.9630   69.8670  228.3340 C   0  0  0  0  0  0  0  0  0  0  0  0
  140.2860   69.0820  227.4240 C   0  0  0  0  0  0  0  0  0  0  0  0
  139.8550   69.5940  226.2340 C   0  0  0  0  0  0  0  0  0  0  0  0
  139.1810   68.8480  225.3090 C   0  0  0  0  0  0  0  0  0  0  0  0
  138.9620   67.6410  225.5870 O   0  0  0  0  0  0  0  0  0  0  0  0
  138.7550   69.3910  224.1110 N   0  0  0  0  0  0  0  0  0  0  0  0
  138.0770   68.4550  223.2890 C   0  0  0  0  0  0  0  0  0  0  0  0
  138.8250   67.4580  222.6370 C   0  0  0  0  0  0  0  0  0  0  0  0
  138.2150   66.5530  221.7900 C   0  0  0  0  0  0  0  0  0  0  0  0
  136.8420   66.6390  221.5900 C   0  0  0  0  0  0  0  0  0  0  0  0
  136.0910   67.6120  222.2240 C   0  0  0  0  0  0  0  0  0  0  0  0
  136.6890   68.5330  223.0790 C   0  0  0  0  0  0  0  0  0  0  0  0
  136.1920   73.8370  223.2200 C   0  0  0  0  0  0  0  0  0  0  0  0
  135.2820   74.3980  224.0740 C   0  0  0  0  0  0  0  0  0  0  0  0
  131.2137   75.0598  225.9331 H   0  0  0  0  0  0  0  0  0  0  0  0
  132.2367   75.6593  224.5838 H   0  0  0  0  0  0  0  0  0  0  0  0
  131.6558   73.9595  224.5838 H   0  0  0  0  0  0  0  0  0  0  0  0
  134.4055   71.6333  225.7759 H   0  0  0  0  0  0  0  0  0  0  0  0
  136.0508   70.6391  224.2212 H   0  0  0  0  0  0  0  0  0  0  0  0
  137.2635   72.0177  221.2186 H   0  0  0  0  0  0  0  0  0  0  0  0
  139.4245   71.4857  221.8886 H   0  0  0  0  0  0  0  0  0  0  0  0
  140.9448   72.7802  226.5417 H   0  0  0  0  0  0  0  0  0  0  0  0
  141.7182   71.8317  228.6898 H   0  0  0  0  0  0  0  0  0  0  0  0
  141.3135   69.4622  229.2949 H   0  0  0  0  0  0  0  0  0  0  0  0
  140.0901   68.0259  227.6610 H   0  0  0  0  0  0  0  0  0  0  0  0
  139.9106   67.3981  222.8038 H   0  0  0  0  0  0  0  0  0  0  0  0
  138.8062   65.7768  221.2820 H   0  0  0  0  0  0  0  0  0  0  0  0
  136.3459   65.9231  220.9181 H   0  0  0  0  0  0  0  0  0  0  0  0
  135.0058   67.6586  222.0500 H   0  0  0  0  0  0  0  0  0  0  0  0
  136.0880   69.3061  223.5802 H   0  0  0  0  0  0  0  0  0  0  0  0
  136.6974   74.4867  222.4903 H   0  0  0  0  0  0  0  0  0  0  0  0
  135.0736   75.4766  224.0175 H   0  0  0  0  0  0  0  0  0  0  0  0
  1  2  1  0
  2  3  2  0
  2  4  2  0
  2  5  1  0
  5  6  2  0
  6  7  1  0
  7  8  2  0
  8  9  1  0
  9 10  2  0
 10 11  1  0
 11 12  2  0
 12 13  1  0
 13 14  2  0
 14 15  1  0
 15 16  2  0
 16 17  1  0
 17 18  2  0
 18 19  1  0
 19 20  2  0
 19 21  1  0
 21 22  1  0
 22 23  2  0
 23 24  1  0
 24 25  2  0
 25 26  1  0
 26 27  2  0
  8 28  1  0
 28 29  2  0
 29  5  1  0
 21 11  1  0
 27 22  1  0
 18 13  1  0
  1 30  1  0
  1 31  1  0
  1 32  1  0
  6 33  1  0
  7 34  1  0
  9 35  1  0
 10 36  1  0
 14 37  1  0
 15 38  1  0
 16 39  1  0
 17 40  1  0
 23 41  1  0
 24 42  1  0
 25 43  1  0
 26 44  1  0
 27 45  1  0
 28 46  1  0
 29 47  1  0
M  END
>  <smiles>  (43) 
CS(=O)(=O)c1ccc(/C=C/c2nc3ccccc3c(=O)n2-c2ccccc2)cc1

>  <score_type>  (43) 
oracle

>  <origin>  (43) 
autodockgpu

>  <m_score__min__energy>  (43) 
-8.9199999999999999

>  <m_primary>  (43) 
energy

>  <rmsd>  (43) 
11.895310067050703

>  <m_score__min__rmsd>  (43) 
11.895310067050703

>  <meeko>  (43) 
{"free_energy": -8.39, "intermolecular_energy": -9.88, "internal_energy": -1.67, "cluster_size": 11, "cluster_id": 3, "rank_in_cluster": 8}

>  <energy>  (43) 
-8.47

>  <cluster_rmsd>  (43) 
0.64

>  <cluster>  (43) 
3

$$$$

     RDKit          3D

 47 50  0  0  0  0  0  0  0  0999 V2000
  146.6800   73.7460  220.8540 C   0  0  0  0  0  0  0  0  0  0  0  0
  145.6490   72.7420  219.8030 S   0  0  0  0  0  0  0  0  0  0  0  0
  146.1400   71.3270  219.7190 O   0  0  0  0  0  0  0  0  0  0  0  0
  145.6840   73.3600  218.4430 O   0  0  0  0  0  0  0  0  0  0  0  0
  144.0230   72.7410  220.3960 C   0  0  0  0  0  0  0  0  0  0  0  0
  143.3160   73.9190  220.4720 C   0  0  0  0  0  0  0  0  0  0  0  0
  142.0040   73.9400  220.9460 C   0  0  0  0  0  0  0  0  0  0  0  0
  141.3640   72.7970  221.3560 C   0  0  0  0  0  0  0  0  0  0  0  0
  139.9920   72.7630  221.8620 C   0  0  0  0  0  0  0  0  0  0  0  0
  139.3760   71.6890  222.2690 C   0  0  0  0  0  0  0  0  0  0  0  0
  139.5400   70.9160  223.4610 C   0  0  0  0  0  0  0  0  0  0  0  0
  140.0700   71.5790  224.5430 N   0  0  0  0  0  0  0  0  0  0  0  0
  140.3030   71.0600  225.7260 C   0  0  0  0  0  0  0  0  0  0  0  0
  140.8330   71.8270  226.7180 C   0  0  0  0  0  0  0  0  0  0  0  0
  141.0580   71.2310  227.9440 C   0  0  0  0  0  0  0  0  0  0  0  0
  140.7710   69.9070  228.2020 C   0  0  0  0  0  0  0  0  0  0  0  0
  140.2360   69.1710  227.1640 C   0  0  0  0  0  0  0  0  0  0  0  0
  140.0050   69.7370  225.9440 C   0  0  0  0  0  0  0  0  0  0  0  0
  139.4750   69.0400  224.8950 C   0  0  0  0  0  0  0  0  0  0  0  0
  139.1990   67.8280  225.0850 O   0  0  0  0  0  0  0  0  0  0  0  0
  139.2500   69.6370  223.6680 N   0  0  0  0  0  0  0  0  0  0  0  0
  138.6980   68.7470  222.7120 C   0  0  0  0  0  0  0  0  0  0  0  0
  137.3400   68.3970  222.8160 C   0  0  0  0  0  0  0  0  0  0  0  0
  136.7690   67.4990  221.9350 C   0  0  0  0  0  0  0  0  0  0  0  0
  137.5590   66.9420  220.9350 C   0  0  0  0  0  0  0  0  0  0  0  0
  138.8950   67.2760  220.8180 C   0  0  0  0  0  0  0  0  0  0  0  0
  139.4880   68.1780  221.6970 C   0  0  0  0  0  0  0  0  0  0  0  0
  142.1070   71.6180  221.2670 C   0  0  0  0  0  0  0  0  0  0  0  0
  143.3940   71.5830  220.8040 C   0  0  0  0  0  0  0  0  0  0  0  0
  146.4539   73.5258  221.9078 H   0  0  0  0  0  0  0  0  0  0  0  0
  147.7378   73.5225  220.6515 H   0  0  0  0  0  0  0  0  0  0  0  0
  146.4846   74.8094  220.6515 H   0  0  0  0  0  0  0  0  0  0  0  0
  143.7924   74.8582  220.1543 H   0  0  0  0  0  0  0  0  0  0  0  0
  141.4675   74.8992  220.9924 H   0  0  0  0  0  0  0  0  0  0  0  0
  139.4397   73.7135  221.9019 H   0  0  0  0  0  0  0  0  0  0  0  0
  138.6022   71.3154  221.5823 H   0  0  0  0  0  0  0  0  0  0  0  0
  141.0743   72.8868  226.5490 H   0  0  0  0  0  0  0  0  0  0  0  0
  141.4864   71.8415  228.7526 H   0  0  0  0  0  0  0  0  0  0  0  0
  140.9596   69.4585  229.1886 H   0  0  0  0  0  0  0  0  0  0  0  0
  139.9917   68.1103  227.3230 H   0  0  0  0  0  0  0  0  0  0  0  0
  136.7238   68.8444  223.6098 H   0  0  0  0  0  0  0  0  0  0  0  0
  135.7063   67.2288  222.0230 H   0  0  0  0  0  0  0  0  0  0  0  0
  137.1146   66.2261  220.2278 H   0  0  0  0  0  0  0  0  0  0  0  0
  139.4988   66.8223  220.0183 H   0  0  0  0  0  0  0  0  0  0  0  0
  140.5519   68.4402  221.5998 H   0  0  0  0  0  0  0  0  0  0  0  0
  141.6365   70.6753  221.5832 H   0  0  0  0  0  0  0  0  0  0  0  0
  143.9312   70.6243  220.7567 H   0  0  0  0  0  0  0  0  0  0  0  0
  1  2  1  0
  2  3  2  0
  2  4  2  0
  2  5  1  0
  5  6  2  0
  6  7  1  0
  7  8  2  0
  8  9  1  0
  9 10  2  0
 10 11  1  0
 11 12  2  0
 12 13  1  0
 13 14  2  0
 14 15  1  0
 15 16  2  0
 16 17  1  0
 17 18  2  0
 18 19  1  0
 19 20  2  0
 19 21  1  0
 21 22  1  0
 22 23  2  0
 23 24  1  0
 24 25  2  0
 25 26  1  0
 26 27  2  0
  8 28  1  0
 28 29  2  0
 29  5  1  0
 21 11  1  0
 27 22  1  0
 18 13  1  0
  1 30  1  0
  1 31  1  0
  1 32  1  0
  6 33  1  0
  7 34  1  0
  9 35  1  0
 10 36  1  0
 14 37  1  0
 15 38  1  0
 16 39  1  0
 17 40  1  0
 23 41  1  0
 24 42  1  0
 25 43  1  0
 26 44  1  0
 27 45  1  0
 28 46  1  0
 29 47  1  0
M  END
>  <smiles>  (44) 
CS(=O)(=O)c1ccc(/C=C/c2nc3ccccc3c(=O)n2-c2ccccc2)cc1

>  <score_type>  (44) 
oracle

>  <origin>  (44) 
autodockgpu

>  <m_score__min__energy>  (44) 
-8.9199999999999999

>  <m_primary>  (44) 
energy

>  <rmsd>  (44) 
11.580633692496635

>  <m_score__min__rmsd>  (44) 
11.580633692496635

>  <meeko>  (44) 
{"free_energy": -8.87, "intermolecular_energy": -10.36, "internal_energy": -1.42, "cluster_size": 36, "cluster_id": 2, "rank_in_cluster": 4}

>  <energy>  (44) 
-8.47

>  <cluster_rmsd>  (44) 
0.27

>  <cluster>  (44) 
3

$$$$

     RDKit          3D

 47 50  0  0  0  0  0  0  0  0999 V2000
  131.4530   72.5920  225.8670 C   0  0  0  0  0  0  0  0  0  0  0  0
  133.0600   72.6990  226.6300 S   0  0  0  0  0  0  0  0  0  0  0  0
  133.2270   71.6950  227.7320 O   0  0  0  0  0  0  0  0  0  0  0  0
  133.1810   74.0780  227.1950 O   0  0  0  0  0  0  0  0  0  0  0  0
  134.2960   72.4490  225.4450 C   0  0  0  0  0  0  0  0  0  0  0  0
  134.8370   73.5230  224.7760 C   0  0  0  0  0  0  0  0  0  0  0  0
  135.8360   73.3430  223.8180 C   0  0  0  0  0  0  0  0  0  0  0  0
  136.3190   72.0980  223.5000 C   0  0  0  0  0  0  0  0  0  0  0  0
  137.3620   71.8540  222.5050 C   0  0  0  0  0  0  0  0  0  0  0  0
  138.5030   71.2730  222.7490 C   0  0  0  0  0  0  0  0  0  0  0  0
  138.9370   70.5110  223.8790 C   0  0  0  0  0  0  0  0  0  0  0  0
  139.5580   71.2180  224.8820 N   0  0  0  0  0  0  0  0  0  0  0  0
  140.0310   70.7170  225.9990 C   0  0  0  0  0  0  0  0  0  0  0  0
  140.6270   71.5290  226.9160 C   0  0  0  0  0  0  0  0  0  0  0  0
  141.1070   70.9500  228.0740 C   0  0  0  0  0  0  0  0  0  0  0  0
  141.0080   69.6000  228.3390 C   0  0  0  0  0  0  0  0  0  0  0  0
  140.3960   68.8190  227.3800 C   0  0  0  0  0  0  0  0  0  0  0  0
  139.9140   69.3670  226.2270 C   0  0  0  0  0  0  0  0  0  0  0  0
  139.3020   68.6260  225.2550 C   0  0  0  0  0  0  0  0  0  0  0  0
  139.1900   67.3900  225.4550 O   0  0  0  0  0  0  0  0  0  0  0  0
  138.8220   69.2060  224.0960 N   0  0  0  0  0  0  0  0  0  0  0  0
  138.2220   68.2700  223.2160 C   0  0  0  0  0  0  0  0  0  0  0  0
  139.0250   67.2660  222.6440 C   0  0  0  0  0  0  0  0  0  0  0  0
  138.4960   66.3600  221.7460 C   0  0  0  0  0  0  0  0  0  0  0  0
  137.1490   66.4520  221.4120 C   0  0  0  0  0  0  0  0  0  0  0  0
  136.3450   67.4320  221.9650 C   0  0  0  0  0  0  0  0  0  0  0  0
  136.8620   68.3540  222.8700 C   0  0  0  0  0  0  0  0  0  0  0  0
  135.7500   71.0290  224.1960 C   0  0  0  0  0  0  0  0  0  0  0  0
  134.7710   71.1910  225.1380 C   0  0  0  0  0  0  0  0  0  0  0  0
  130.6793   72.5405  226.6473 H   0  0  0  0  0  0  0  0  0  0  0  0
  131.2842   73.4809  225.2414 H   0  0  0  0  0  0  0  0  0  0  0  0
  131.4036   71.6886  225.2414 H   0  0  0  0  0  0  0  0  0  0  0  0
  134.4769   74.5381  224.9995 H   0  0  0  0  0  0  0  0  0  0  0  0
  136.2479   74.2236  223.3033 H   0  0  0  0  0  0  0  0  0  0  0  0
  137.1696   72.1853  221.4739 H   0  0  0  0  0  0  0  0  0  0  0  0
  139.2560   71.3875  221.9553 H   0  0  0  0  0  0  0  0  0  0  0  0
  140.7228   72.6106  226.7398 H   0  0  0  0  0  0  0  0  0  0  0  0
  141.5914   71.5962  228.8208 H   0  0  0  0  0  0  0  0  0  0  0  0
  141.3987   69.1662  229.2713 H   0  0  0  0  0  0  0  0  0  0  0  0
  140.2950   67.7366  227.5478 H   0  0  0  0  0  0  0  0  0  0  0  0
  140.0889   67.2019  222.9159 H   0  0  0  0  0  0  0  0  0  0  0  0
  139.1297   65.5782  221.3020 H   0  0  0  0  0  0  0  0  0  0  0  0
  136.7171   65.7353  220.6980 H   0  0  0  0  0  0  0  0  0  0  0  0
  135.2823   67.4833  221.6856 H   0  0  0  0  0  0  0  0  0  0  0  0
  136.2193   69.1330  223.3060 H   0  0  0  0  0  0  0  0  0  0  0  0
  136.1049   70.0111  223.9770 H   0  0  0  0  0  0  0  0  0  0  0  0
  134.3596   70.3112  225.6544 H   0  0  0  0  0  0  0  0  0  0  0  0
  1  2  1  0
  2  3  2  0
  2  4  2  0
  2  5  1  0
  5  6  2  0
  6  7  1  0
  7  8  2  0
  8  9  1  0
  9 10  2  0
 10 11  1  0
 11 12  2  0
 12 13  1  0
 13 14  2  0
 14 15  1  0
 15 16  2  0
 16 17  1  0
 17 18  2  0
 18 19  1  0
 19 20  2  0
 19 21  1  0
 21 22  1  0
 22 23  2  0
 23 24  1  0
 24 25  2  0
 25 26  1  0
 26 27  2  0
  8 28  1  0
 28 29  2  0
 29  5  1  0
 21 11  1  0
 27 22  1  0
 18 13  1  0
  1 30  1  0
  1 31  1  0
  1 32  1  0
  6 33  1  0
  7 34  1  0
  9 35  1  0
 10 36  1  0
 14 37  1  0
 15 38  1  0
 16 39  1  0
 17 40  1  0
 23 41  1  0
 24 42  1  0
 25 43  1  0
 26 44  1  0
 27 45  1  0
 28 46  1  0
 29 47  1  0
M  END
>  <smiles>  (45) 
CS(=O)(=O)c1ccc(/C=C/c2nc3ccccc3c(=O)n2-c2ccccc2)cc1

>  <score_type>  (45) 
oracle

>  <origin>  (45) 
autodockgpu

>  <m_score__min__energy>  (45) 
-8.9199999999999999

>  <m_primary>  (45) 
energy

>  <rmsd>  (45) 
12.038452805661567

>  <m_score__min__rmsd>  (45) 
12.038452805661567

>  <meeko>  (45) 
{"free_energy": -8.45, "intermolecular_energy": -9.95, "internal_energy": -1.63, "cluster_size": 11, "cluster_id": 3, "rank_in_cluster": 6}

>  <energy>  (45) 
-8.45

>  <cluster_rmsd>  (45) 
0.66

>  <cluster>  (45) 
3

$$$$

     RDKit          3D

 47 50  0  0  0  0  0  0  0  0999 V2000
  146.3790   73.0370  221.9540 C   0  0  0  0  0  0  0  0  0  0  0  0
  145.4280   73.5460  220.5360 S   0  0  0  0  0  0  0  0  0  0  0  0
  145.9580   72.9580  219.2620 O   0  0  0  0  0  0  0  0  0  0  0  0
  145.5170   75.0370  220.4670 O   0  0  0  0  0  0  0  0  0  0  0  0
  143.7740   73.0740  220.7310 C   0  0  0  0  0  0  0  0  0  0  0  0
  143.4400   71.7390  220.7810 C   0  0  0  0  0  0  0  0  0  0  0  0
  142.1140   71.3370  220.9390 C   0  0  0  0  0  0  0  0  0  0  0  0
  141.0900   72.2450  221.0500 C   0  0  0  0  0  0  0  0  0  0  0  0
  139.6830   71.8780  221.2160 C   0  0  0  0  0  0  0  0  0  0  0  0
  139.0700   71.7810  222.3610 C   0  0  0  0  0  0  0  0  0  0  0  0
  139.3410   70.9550  223.4970 C   0  0  0  0  0  0  0  0  0  0  0  0
  139.9280   71.5800  224.5720 N   0  0  0  0  0  0  0  0  0  0  0  0
  140.2590   71.0100  225.7070 C   0  0  0  0  0  0  0  0  0  0  0  0
  140.8370   71.7430  226.6990 C   0  0  0  0  0  0  0  0  0  0  0  0
  141.1660   71.0930  227.8720 C   0  0  0  0  0  0  0  0  0  0  0  0
  140.9350   69.7500  228.0810 C   0  0  0  0  0  0  0  0  0  0  0  0
  140.3480   69.0500  227.0470 C   0  0  0  0  0  0  0  0  0  0  0  0
  140.0140   69.6690  225.8770 C   0  0  0  0  0  0  0  0  0  0  0  0
  139.4300   69.0090  224.8320 C   0  0  0  0  0  0  0  0  0  0  0  0
  139.2020   67.7810  224.9780 O   0  0  0  0  0  0  0  0  0  0  0  0
  139.1020   69.6590  223.6570 N   0  0  0  0  0  0  0  0  0  0  0  0
  138.5080   68.8010  222.6970 C   0  0  0  0  0  0  0  0  0  0  0  0
  137.1280   68.5420  222.7810 C   0  0  0  0  0  0  0  0  0  0  0  0
  136.5120   67.6780  221.8960 C   0  0  0  0  0  0  0  0  0  0  0  0
  137.2800   67.0640  220.9120 C   0  0  0  0  0  0  0  0  0  0  0  0
  138.6370   67.3080  220.8140 C   0  0  0  0  0  0  0  0  0  0  0  0
  139.2740   68.1750  221.6980 C   0  0  0  0  0  0  0  0  0  0  0  0
  141.4610   73.5900  220.9960 C   0  0  0  0  0  0  0  0  0  0  0  0
  142.7570   73.9980  220.8420 C   0  0  0  0  0  0  0  0  0  0  0  0
  145.8470   73.3218  222.8737 H   0  0  0  0  0  0  0  0  0  0  0  0
  146.5148   71.9456  221.9319 H   0  0  0  0  0  0  0  0  0  0  0  0
  147.3624   73.5294  221.9319 H   0  0  0  0  0  0  0  0  0  0  0  0
  144.2304   70.9788  220.6951 H   0  0  0  0  0  0  0  0  0  0  0  0
  141.8819   70.2624  220.9757 H   0  0  0  0  0  0  0  0  0  0  0  0
  139.1003   71.6687  220.3068 H   0  0  0  0  0  0  0  0  0  0  0  0
  138.1996   72.4442  222.4731 H   0  0  0  0  0  0  0  0  0  0  0  0
  141.0351   72.8173  226.5699 H   0  0  0  0  0  0  0  0  0  0  0  0
  141.6352   71.6750  228.6789 H   0  0  0  0  0  0  0  0  0  0  0  0
  141.2059   69.2596  229.0276 H   0  0  0  0  0  0  0  0  0  0  0  0
  140.1458   67.9755  227.1674 H   0  0  0  0  0  0  0  0  0  0  0  0
  136.5306   69.0344  223.5625 H   0  0  0  0  0  0  0  0  0  0  0  0
  135.4326   67.4791  221.9683 H   0  0  0  0  0  0  0  0  0  0  0  0
  136.8005   66.3744  220.2017 H   0  0  0  0  0  0  0  0  0  0  0  0
  139.2219   66.8102  220.0266 H   0  0  0  0  0  0  0  0  0  0  0  0
  140.3542   68.3662  221.6164 H   0  0  0  0  0  0  0  0  0  0  0  0
  140.6757   74.3555  221.0811 H   0  0  0  0  0  0  0  0  0  0  0  0
  142.9900   75.0725  220.8064 H   0  0  0  0  0  0  0  0  0  0  0  0
  1  2  1  0
  2  3  2  0
  2  4  2  0
  2  5  1  0
  5  6  2  0
  6  7  1  0
  7  8  2  0
  8  9  1  0
  9 10  2  0
 10 11  1  0
 11 12  2  0
 12 13  1  0
 13 14  2  0
 14 15  1  0
 15 16  2  0
 16 17  1  0
 17 18  2  0
 18 19  1  0
 19 20  2  0
 19 21  1  0
 21 22  1  0
 22 23  2  0
 23 24  1  0
 24 25  2  0
 25 26  1  0
 26 27  2  0
  8 28  1  0
 28 29  2  0
 29  5  1  0
 21 11  1  0
 27 22  1  0
 18 13  1  0
  1 30  1  0
  1 31  1  0
  1 32  1  0
  6 33  1  0
  7 34  1  0
  9 35  1  0
 10 36  1  0
 14 37  1  0
 15 38  1  0
 16 39  1  0
 17 40  1  0
 23 41  1  0
 24 42  1  0
 25 43  1  0
 26 44  1  0
 27 45  1  0
 28 46  1  0
 29 47  1  0
M  END
>  <smiles>  (46) 
CS(=O)(=O)c1ccc(/C=C/c2nc3ccccc3c(=O)n2-c2ccccc2)cc1

>  <score_type>  (46) 
oracle

>  <origin>  (46) 
autodockgpu

>  <m_score__min__energy>  (46) 
-8.9199999999999999

>  <m_primary>  (46) 
energy

>  <rmsd>  (46) 
11.591986769122437

>  <m_score__min__rmsd>  (46) 
11.591986769122437

>  <meeko>  (46) 
{"free_energy": -8.61, "intermolecular_energy": -10.1, "internal_energy": -1.53, "cluster_size": 36, "cluster_id": 2, "rank_in_cluster": 27}

>  <energy>  (46) 
-8.42

>  <cluster_rmsd>  (46) 
0.61

>  <cluster>  (46) 
3

$$$$

     RDKit          3D

 47 50  0  0  0  0  0  0  0  0999 V2000
  131.4020   72.7650  225.7370 C   0  0  0  0  0  0  0  0  0  0  0  0
  132.9930   72.8050  226.5390 S   0  0  0  0  0  0  0  0  0  0  0  0
  133.1070   71.7670  227.6150 O   0  0  0  0  0  0  0  0  0  0  0  0
  133.1380   74.1640  227.1450 O   0  0  0  0  0  0  0  0  0  0  0  0
  134.2490   72.5540  225.3750 C   0  0  0  0  0  0  0  0  0  0  0  0
  134.6950   71.2790  225.1080 C   0  0  0  0  0  0  0  0  0  0  0  0
  135.7050   71.0550  224.1730 C   0  0  0  0  0  0  0  0  0  0  0  0
  136.2970   72.0840  223.4830 C   0  0  0  0  0  0  0  0  0  0  0  0
  137.3600   71.9040  222.4940 C   0  0  0  0  0  0  0  0  0  0  0  0
  138.4570   71.2300  222.6960 C   0  0  0  0  0  0  0  0  0  0  0  0
  138.9000   70.4910  223.8370 C   0  0  0  0  0  0  0  0  0  0  0  0
  139.5180   71.2190  224.8270 N   0  0  0  0  0  0  0  0  0  0  0  0
  139.9960   70.7390  225.9510 C   0  0  0  0  0  0  0  0  0  0  0  0
  140.5880   71.5710  226.8530 C   0  0  0  0  0  0  0  0  0  0  0  0
  141.0760   71.0140  228.0190 C   0  0  0  0  0  0  0  0  0  0  0  0
  140.9880   69.6680  228.3060 C   0  0  0  0  0  0  0  0  0  0  0  0
  140.3800   68.8670  227.3610 C   0  0  0  0  0  0  0  0  0  0  0  0
  139.8910   69.3930  226.2000 C   0  0  0  0  0  0  0  0  0  0  0  0
  139.2830   68.6310  225.2420 C   0  0  0  0  0  0  0  0  0  0  0  0
  139.1820   67.3970  225.4620 O   0  0  0  0  0  0  0  0  0  0  0  0
  138.7960   69.1880  224.0750 N   0  0  0  0  0  0  0  0  0  0  0  0
  138.2020   68.2340  223.2110 C   0  0  0  0  0  0  0  0  0  0  0  0
  139.0030   67.2030  222.6870 C   0  0  0  0  0  0  0  0  0  0  0  0
  138.4810   66.2750  221.8060 C   0  0  0  0  0  0  0  0  0  0  0  0
  137.1420   66.3740  221.4410 C   0  0  0  0  0  0  0  0  0  0  0  0
  136.3410   67.3810  221.9470 C   0  0  0  0  0  0  0  0  0  0  0  0
  136.8510   68.3240  222.8340 C   0  0  0  0  0  0  0  0  0  0  0  0
  135.8230   73.3640  223.7770 C   0  0  0  0  0  0  0  0  0  0  0  0
  134.8320   73.5990  224.6910 C   0  0  0  0  0  0  0  0  0  0  0  0
  130.6081   72.7450  226.4981 H   0  0  0  0  0  0  0  0  0  0  0  0
  131.2854   73.6605  225.1089 H   0  0  0  0  0  0  0  0  0  0  0  0
  131.3305   71.8648  225.1089 H   0  0  0  0  0  0  0  0  0  0  0  0
  134.2486   70.4256  225.6394 H   0  0  0  0  0  0  0  0  0  0  0  0
  136.0372   70.0238  223.9826 H   0  0  0  0  0  0  0  0  0  0  0  0
  137.2233   72.3717  221.5078 H   0  0  0  0  0  0  0  0  0  0  0  0
  139.1581   71.2296  221.8484 H   0  0  0  0  0  0  0  0  0  0  0  0
  140.6744   72.6503  226.6591 H   0  0  0  0  0  0  0  0  0  0  0  0
  141.5579   71.6757  228.7538 H   0  0  0  0  0  0  0  0  0  0  0  0
  141.3839   69.2523  229.2443 H   0  0  0  0  0  0  0  0  0  0  0  0
  140.2878   67.7866  227.5463 H   0  0  0  0  0  0  0  0  0  0  0  0
  140.0603   67.1345  222.9828 H   0  0  0  0  0  0  0  0  0  0  0  0
  139.1134   65.4716  221.4002 H   0  0  0  0  0  0  0  0  0  0  0  0
  136.7149   65.6413  220.7405 H   0  0  0  0  0  0  0  0  0  0  0  0
  135.2851   67.4375  221.6439 H   0  0  0  0  0  0  0  0  0  0  0  0
  136.2096   69.1240  223.2322 H   0  0  0  0  0  0  0  0  0  0  0  0
  136.2660   74.2221  223.2503 H   0  0  0  0  0  0  0  0  0  0  0  0
  134.4982   74.6297  224.8812 H   0  0  0  0  0  0  0  0  0  0  0  0
  1  2  1  0
  2  3  2  0
  2  4  2  0
  2  5  1  0
  5  6  2  0
  6  7  1  0
  7  8  2  0
  8  9  1  0
  9 10  2  0
 10 11  1  0
 11 12  2  0
 12 13  1  0
 13 14  2  0
 14 15  1  0
 15 16  2  0
 16 17  1  0
 17 18  2  0
 18 19  1  0
 19 20  2  0
 19 21  1  0
 21 22  1  0
 22 23  2  0
 23 24  1  0
 24 25  2  0
 25 26  1  0
 26 27  2  0
  8 28  1  0
 28 29  2  0
 29  5  1  0
 21 11  1  0
 27 22  1  0
 18 13  1  0
  1 30  1  0
  1 31  1  0
  1 32  1  0
  6 33  1  0
  7 34  1  0
  9 35  1  0
 10 36  1  0
 14 37  1  0
 15 38  1  0
 16 39  1  0
 17 40  1  0
 23 41  1  0
 24 42  1  0
 25 43  1  0
 26 44  1  0
 27 45  1  0
 28 46  1  0
 29 47  1  0
M  END
>  <smiles>  (47) 
CS(=O)(=O)c1ccc(/C=C/c2nc3ccccc3c(=O)n2-c2ccccc2)cc1

>  <score_type>  (47) 
oracle

>  <origin>  (47) 
autodockgpu

>  <m_score__min__energy>  (47) 
-8.9199999999999999

>  <m_primary>  (47) 
energy

>  <rmsd>  (47) 
12.036540327064941

>  <m_score__min__rmsd>  (47) 
12.036540327064941

>  <meeko>  (47) 
{"free_energy": -8.48, "intermolecular_energy": -9.97, "internal_energy": -1.61, "cluster_size": 11, "cluster_id": 3, "rank_in_cluster": 3}

>  <energy>  (47) 
-8.39

>  <cluster_rmsd>  (47) 
0.28

>  <cluster>  (47) 
3

$$$$

     RDKit          3D

 47 50  0  0  0  0  0  0  0  0999 V2000
  131.3680   73.2590  225.7150 C   0  0  0  0  0  0  0  0  0  0  0  0
  132.9260   73.0920  226.5650 S   0  0  0  0  0  0  0  0  0  0  0  0
  132.8920   71.9990  227.5920 O   0  0  0  0  0  0  0  0  0  0  0  0
  133.1930   74.3980  227.2410 O   0  0  0  0  0  0  0  0  0  0  0  0
  134.1880   72.7600  225.4280 C   0  0  0  0  0  0  0  0  0  0  0  0
  134.6810   71.4810  225.3010 C   0  0  0  0  0  0  0  0  0  0  0  0
  135.6980   71.1920  224.3900 C   0  0  0  0  0  0  0  0  0  0  0  0
  136.2470   72.1600  223.5860 C   0  0  0  0  0  0  0  0  0  0  0  0
  137.3140   71.9110  222.6160 C   0  0  0  0  0  0  0  0  0  0  0  0
  138.5020   71.4660  222.9150 C   0  0  0  0  0  0  0  0  0  0  0  0
  138.9420   70.6350  223.9930 C   0  0  0  0  0  0  0  0  0  0  0  0
  139.5910   71.2740  225.0230 N   0  0  0  0  0  0  0  0  0  0  0  0
  140.0740   70.7040  226.1020 C   0  0  0  0  0  0  0  0  0  0  0  0
  140.6990   71.4530  227.0520 C   0  0  0  0  0  0  0  0  0  0  0  0
  141.1880   70.8020  228.1670 C   0  0  0  0  0  0  0  0  0  0  0  0
  141.0700   69.4410  228.3580 C   0  0  0  0  0  0  0  0  0  0  0  0
  140.4290   68.7250  227.3670 C   0  0  0  0  0  0  0  0  0  0  0  0
  139.9380   69.3450  226.2550 C   0  0  0  0  0  0  0  0  0  0  0  0
  139.2970   68.6700  225.2540 C   0  0  0  0  0  0  0  0  0  0  0  0
  139.1680   67.4260  225.3860 O   0  0  0  0  0  0  0  0  0  0  0  0
  138.8080   69.3220  224.1380 N   0  0  0  0  0  0  0  0  0  0  0  0
  138.1790   68.4470  223.2170 C   0  0  0  0  0  0  0  0  0  0  0  0
  136.7840   68.5220  223.0540 C   0  0  0  0  0  0  0  0  0  0  0  0
  136.1210   67.6600  222.2020 C   0  0  0  0  0  0  0  0  0  0  0  0
  136.8560   66.7100  221.5000 C   0  0  0  0  0  0  0  0  0  0  0  0
  138.2280   66.6230  221.6470 C   0  0  0  0  0  0  0  0  0  0  0  0
  138.9120   67.4830  222.5020 C   0  0  0  0  0  0  0  0  0  0  0  0
  135.7260   73.4460  223.7390 C   0  0  0  0  0  0  0  0  0  0  0  0
  134.7290   73.7440  224.6280 C   0  0  0  0  0  0  0  0  0  0  0  0
  130.5558   73.3461  226.4518 H   0  0  0  0  0  0  0  0  0  0  0  0
  131.3891   74.1600  225.0844 H   0  0  0  0  0  0  0  0  0  0  0  0
  131.1977   72.3740  225.0844 H   0  0  0  0  0  0  0  0  0  0  0  0
  134.2677   70.6758  225.9261 H   0  0  0  0  0  0  0  0  0  0  0  0
  136.0702   70.1597  224.3140 H   0  0  0  0  0  0  0  0  0  0  0  0
  137.0976   72.1143  221.5568 H   0  0  0  0  0  0  0  0  0  0  0  0
  139.2978   71.7816  222.2242 H   0  0  0  0  0  0  0  0  0  0  0  0
  140.8106   72.5410  226.9349 H   0  0  0  0  0  0  0  0  0  0  0  0
  141.6960   71.3972  228.9401 H   0  0  0  0  0  0  0  0  0  0  0  0
  141.4681   68.9492  229.2578 H   0  0  0  0  0  0  0  0  0  0  0  0
  140.3121   67.6366  227.4755 H   0  0  0  0  0  0  0  0  0  0  0  0
  136.2127   69.2778  223.6129 H   0  0  0  0  0  0  0  0  0  0  0  0
  135.0296   67.7238  222.0806 H   0  0  0  0  0  0  0  0  0  0  0  0
  136.3385   66.0186  220.8187 H   0  0  0  0  0  0  0  0  0  0  0  0
  138.7870   65.8637  221.0805 H   0  0  0  0  0  0  0  0  0  0  0  0
  140.0036   67.4099  222.6159 H   0  0  0  0  0  0  0  0  0  0  0  0
  136.1350   74.2560  223.1173 H   0  0  0  0  0  0  0  0  0  0  0  0
  134.3566   74.7762  224.7048 H   0  0  0  0  0  0  0  0  0  0  0  0
  1  2  1  0
  2  3  2  0
  2  4  2  0
  2  5  1  0
  5  6  2  0
  6  7  1  0
  7  8  2  0
  8  9  1  0
  9 10  2  0
 10 11  1  0
 11 12  2  0
 12 13  1  0
 13 14  2  0
 14 15  1  0
 15 16  2  0
 16 17  1  0
 17 18  2  0
 18 19  1  0
 19 20  2  0
 19 21  1  0
 21 22  1  0
 22 23  2  0
 23 24  1  0
 24 25  2  0
 25 26  1  0
 26 27  2  0
  8 28  1  0
 28 29  2  0
 29  5  1  0
 21 11  1  0
 27 22  1  0
 18 13  1  0
  1 30  1  0
  1 31  1  0
  1 32  1  0
  6 33  1  0
  7 34  1  0
  9 35  1  0
 10 36  1  0
 14 37  1  0
 15 38  1  0
 16 39  1  0
 17 40  1  0
 23 41  1  0
 24 42  1  0
 25 43  1  0
 26 44  1  0
 27 45  1  0
 28 46  1  0
 29 47  1  0
M  END
>  <smiles>  (48) 
CS(=O)(=O)c1ccc(/C=C/c2nc3ccccc3c(=O)n2-c2ccccc2)cc1

>  <score_type>  (48) 
oracle

>  <origin>  (48) 
autodockgpu

>  <m_score__min__energy>  (48) 
-8.9199999999999999

>  <m_primary>  (48) 
energy

>  <rmsd>  (48) 
12.020690526826424

>  <m_score__min__rmsd>  (48) 
12.020690526826424

>  <meeko>  (48) 
{"free_energy": -8.42, "intermolecular_energy": -9.91, "internal_energy": -1.64, "cluster_size": 11, "cluster_id": 3, "rank_in_cluster": 7}

>  <energy>  (48) 
-8.29

>  <cluster_rmsd>  (48) 
0.47

>  <cluster>  (48) 
3

$$$$

     RDKit          3D

 47 50  0  0  0  0  0  0  0  0999 V2000
  139.9690   68.7280  228.4130 C   0  0  0  0  0  0  0  0  0  0  0  0
  140.1260   68.0550  226.7710 S   0  0  0  0  0  0  0  0  0  0  0  0
  139.0580   67.0450  226.4720 O   0  0  0  0  0  0  0  0  0  0  0  0
  141.4650   67.3950  226.6990 O   0  0  0  0  0  0  0  0  0  0  0  0
  140.0440   69.3260  225.6000 C   0  0  0  0  0  0  0  0  0  0  0  0
  139.2830   69.1680  224.4630 C   0  0  0  0  0  0  0  0  0  0  0  0
  139.2030   70.1810  223.5070 C   0  0  0  0  0  0  0  0  0  0  0  0
  139.8720   71.3710  223.6540 C   0  0  0  0  0  0  0  0  0  0  0  0
  139.8230   72.4640  222.6830 C   0  0  0  0  0  0  0  0  0  0  0  0
  140.8400   72.8850  221.9850 C   0  0  0  0  0  0  0  0  0  0  0  0
  141.1830   74.1990  221.5390 C   0  0  0  0  0  0  0  0  0  0  0  0
  140.3250   75.2080  221.9110 N   0  0  0  0  0  0  0  0  0  0  0  0
  140.4530   76.4790  221.6100 C   0  0  0  0  0  0  0  0  0  0  0  0
  139.5290   77.3810  222.0420 C   0  0  0  0  0  0  0  0  0  0  0  0
  139.7110   78.7060  221.6960 C   0  0  0  0  0  0  0  0  0  0  0  0
  140.7770   79.1480  220.9410 C   0  0  0  0  0  0  0  0  0  0  0  0
  141.6860   78.1960  220.5270 C   0  0  0  0  0  0  0  0  0  0  0  0
  141.5280   76.8800  220.8550 C   0  0  0  0  0  0  0  0  0  0  0  0
  142.4070   75.9100  220.4640 C   0  0  0  0  0  0  0  0  0  0  0  0
  143.3950   76.2680  219.7730 O   0  0  0  0  0  0  0  0  0  0  0  0
  142.2240   74.5840  220.8100 N   0  0  0  0  0  0  0  0  0  0  0  0
  143.2430   73.7350  220.3080 C   0  0  0  0  0  0  0  0  0  0  0  0
  142.9190   72.8120  219.2980 C   0  0  0  0  0  0  0  0  0  0  0  0
  143.8660   71.9330  218.8080 C   0  0  0  0  0  0  0  0  0  0  0  0
  145.1550   71.9740  219.3310 C   0  0  0  0  0  0  0  0  0  0  0  0
  145.4910   72.8750  220.3240 C   0  0  0  0  0  0  0  0  0  0  0  0
  144.5480   73.7670  220.8290 C   0  0  0  0  0  0  0  0  0  0  0  0
  140.6350   71.5000  224.8170 C   0  0  0  0  0  0  0  0  0  0  0  0
  140.7220   70.5160  225.7620 C   0  0  0  0  0  0  0  0  0  0  0  0
  140.1539   67.9356  229.1532 H   0  0  0  0  0  0  0  0  0  0  0  0
  140.7027   69.5360  228.5498 H   0  0  0  0  0  0  0  0  0  0  0  0
  138.9534   69.1279  228.5498 H   0  0  0  0  0  0  0  0  0  0  0  0
  138.7305   68.2298  224.3064 H   0  0  0  0  0  0  0  0  0  0  0  0
  138.5865   70.0218  222.6100 H   0  0  0  0  0  0  0  0  0  0  0  0
  138.8569   72.9675  222.5308 H   0  0  0  0  0  0  0  0  0  0  0  0
  141.5517   72.0996  221.6906 H   0  0  0  0  0  0  0  0  0  0  0  0
  138.6661   77.0651  222.6466 H   0  0  0  0  0  0  0  0  0  0  0  0
  138.9704   79.4435  222.0390 H   0  0  0  0  0  0  0  0  0  0  0  0
  140.8971   80.2100  220.6809 H   0  0  0  0  0  0  0  0  0  0  0  0
  142.5525   78.5024  219.9226 H   0  0  0  0  0  0  0  0  0  0  0  0
  141.8969   72.7893  218.8920 H   0  0  0  0  0  0  0  0  0  0  0  0
  143.6054   71.2132  218.0181 H   0  0  0  0  0  0  0  0  0  0  0  0
  145.9175   71.2794  218.9487 H   0  0  0  0  0  0  0  0  0  0  0  0
  146.5169   72.8877  220.7207 H   0  0  0  0  0  0  0  0  0  0  0  0
  144.8191   74.4821  221.6196 H   0  0  0  0  0  0  0  0  0  0  0  0
  141.1907   72.4353  224.9797 H   0  0  0  0  0  0  0  0  0  0  0  0
  141.3381   70.6747  226.6593 H   0  0  0  0  0  0  0  0  0  0  0  0
  1  2  1  0
  2  3  2  0
  2  4  2  0
  2  5  1  0
  5  6  2  0
  6  7  1  0
  7  8  2  0
  8  9  1  0
  9 10  2  0
 10 11  1  0
 11 12  2  0
 12 13  1  0
 13 14  2  0
 14 15  1  0
 15 16  2  0
 16 17  1  0
 17 18  2  0
 18 19  1  0
 19 20  2  0
 19 21  1  0
 21 22  1  0
 22 23  2  0
 23 24  1  0
 24 25  2  0
 25 26  1  0
 26 27  2  0
  8 28  1  0
 28 29  2  0
 29  5  1  0
 21 11  1  0
 27 22  1  0
 18 13  1  0
  1 30  1  0
  1 31  1  0
  1 32  1  0
  6 33  1  0
  7 34  1  0
  9 35  1  0
 10 36  1  0
 14 37  1  0
 15 38  1  0
 16 39  1  0
 17 40  1  0
 23 41  1  0
 24 42  1  0
 25 43  1  0
 26 44  1  0
 27 45  1  0
 28 46  1  0
 29 47  1  0
M  END
>  <smiles>  (49) 
CS(=O)(=O)c1ccc(/C=C/c2nc3ccccc3c(=O)n2-c2ccccc2)cc1

>  <score_type>  (49) 
oracle

>  <origin>  (49) 
autodockgpu

>  <m_score__min__energy>  (49) 
-8.9199999999999999

>  <m_primary>  (49) 
energy

>  <rmsd>  (49) 
5.1985234553765824

>  <m_score__min__rmsd>  (49) 
5.1985234553765824

>  <meeko>  (49) 
{"free_energy": -8.85, "intermolecular_energy": -10.34, "internal_energy": -1.16, "cluster_size": 3, "cluster_id": 1, "rank_in_cluster": 3}

>  <energy>  (49) 
-8.25

>  <cluster_rmsd>  (49) 
0.9

>  <cluster>  (49) 
3

$$$$

     RDKit          3D

 47 50  0  0  0  0  0  0  0  0999 V2000
  145.9760   70.5830  219.2900 C   0  0  0  0  0  0  0  0  0  0  0  0
  145.5660   72.3100  219.4440 S   0  0  0  0  0  0  0  0  0  0  0  0
  145.5700   73.0100  218.1170 O   0  0  0  0  0  0  0  0  0  0  0  0
  146.6010   72.9240  220.3310 O   0  0  0  0  0  0  0  0  0  0  0  0
  144.0040   72.4860  220.1690 C   0  0  0  0  0  0  0  0  0  0  0  0
  143.2760   71.3710  220.5150 C   0  0  0  0  0  0  0  0  0  0  0  0
  142.0160   71.4900  221.1020 C   0  0  0  0  0  0  0  0  0  0  0  0
  141.4490   72.7140  221.3580 C   0  0  0  0  0  0  0  0  0  0  0  0
  140.1320   72.8960  221.9690 C   0  0  0  0  0  0  0  0  0  0  0  0
  139.3990   71.9340  222.4560 C   0  0  0  0  0  0  0  0  0  0  0  0
  139.5500   71.1610  223.6490 C   0  0  0  0  0  0  0  0  0  0  0  0
  140.1840   71.7850  224.6980 N   0  0  0  0  0  0  0  0  0  0  0  0
  140.4250   71.2580  225.8760 C   0  0  0  0  0  0  0  0  0  0  0  0
  141.0650   71.9850  226.8330 C   0  0  0  0  0  0  0  0  0  0  0  0
  141.2930   71.3830  228.0550 C   0  0  0  0  0  0  0  0  0  0  0  0
  140.9030   70.0920  228.3430 C   0  0  0  0  0  0  0  0  0  0  0  0
  140.2580   69.3960  227.3410 C   0  0  0  0  0  0  0  0  0  0  0  0
  140.0220   69.9690  226.1250 C   0  0  0  0  0  0  0  0  0  0  0  0
  139.3860   69.3110  225.1090 C   0  0  0  0  0  0  0  0  0  0  0  0
  139.0130   68.1300  225.3280 O   0  0  0  0  0  0  0  0  0  0  0  0
  139.1580   69.9140  223.8860 N   0  0  0  0  0  0  0  0  0  0  0  0
  138.4870   69.0680  222.9680 C   0  0  0  0  0  0  0  0  0  0  0  0
  137.0880   68.9490  223.0530 C   0  0  0  0  0  0  0  0  0  0  0  0
  136.3950   68.1030  222.2090 C   0  0  0  0  0  0  0  0  0  0  0  0
  137.1020   67.3650  221.2660 C   0  0  0  0  0  0  0  0  0  0  0  0
  138.4780   67.4700  221.1680 C   0  0  0  0  0  0  0  0  0  0  0  0
  139.1920   68.3170  222.0110 C   0  0  0  0  0  0  0  0  0  0  0  0
  142.2120   73.8260  220.9950 C   0  0  0  0  0  0  0  0  0  0  0  0
  143.4490   73.7230  220.4200 C   0  0  0  0  0  0  0  0  0  0  0  0
  146.0811   70.1404  220.2915 H   0  0  0  0  0  0  0  0  0  0  0  0
  145.1762   70.0637  218.7417 H   0  0  0  0  0  0  0  0  0  0  0  0
  146.9239   70.4787  218.7417 H   0  0  0  0  0  0  0  0  0  0  0  0
  143.6936   70.3710  220.3260 H   0  0  0  0  0  0  0  0  0  0  0  0
  141.4614   70.5778  221.3671 H   0  0  0  0  0  0  0  0  0  0  0  0
  139.7311   73.9190  222.0213 H   0  0  0  0  0  0  0  0  0  0  0  0
  138.5193   71.6744  221.8487 H   0  0  0  0  0  0  0  0  0  0  0  0
  141.3898   73.0179  226.6392 H   0  0  0  0  0  0  0  0  0  0  0  0
  141.8101   71.9606  228.8353 H   0  0  0  0  0  0  0  0  0  0  0  0
  141.0971   69.6380  229.3260 H   0  0  0  0  0  0  0  0  0  0  0  0
  139.9288   68.3627  227.5254 H   0  0  0  0  0  0  0  0  0  0  0  0
  136.5381   69.5378  223.8020 H   0  0  0  0  0  0  0  0  0  0  0  0
  135.3010   68.0145  222.2817 H   0  0  0  0  0  0  0  0  0  0  0  0
  136.5599   66.6886  220.5888 H   0  0  0  0  0  0  0  0  0  0  0  0
  139.0151   66.8762  220.4138 H   0  0  0  0  0  0  0  0  0  0  0  0
  140.2861   68.3972  221.9300 H   0  0  0  0  0  0  0  0  0  0  0  0
  141.8000   74.8291  221.1796 H   0  0  0  0  0  0  0  0  0  0  0  0
  144.0054   74.6344  220.1557 H   0  0  0  0  0  0  0  0  0  0  0  0
  1  2  1  0
  2  3  2  0
  2  4  2  0
  2  5  1  0
  5  6  2  0
  6  7  1  0
  7  8  2  0
  8  9  1  0
  9 10  2  0
 10 11  1  0
 11 12  2  0
 12 13  1  0
 13 14  2  0
 14 15  1  0
 15 16  2  0
 16 17  1  0
 17 18  2  0
 18 19  1  0
 19 20  2  0
 19 21  1  0
 21 22  1  0
 22 23  2  0
 23 24  1  0
 24 25  2  0
 25 26  1  0
 26 27  2  0
  8 28  1  0
 28 29  2  0
 29  5  1  0
 21 11  1  0
 27 22  1  0
 18 13  1  0
  1 30  1  0
  1 31  1  0
  1 32  1  0
  6 33  1  0
  7 34  1  0
  9 35  1  0
 10 36  1  0
 14 37  1  0
 15 38  1  0
 16 39  1  0
 17 40  1  0
 23 41  1  0
 24 42  1  0
 25 43  1  0
 26 44  1  0
 27 45  1  0
 28 46  1  0
 29 47  1  0
M  END
>  <smiles>  (50) 
CS(=O)(=O)c1ccc(/C=C/c2nc3ccccc3c(=O)n2-c2ccccc2)cc1

>  <score_type>  (50) 
oracle

>  <origin>  (50) 
autodockgpu

>  <m_score__min__energy>  (50) 
-8.9199999999999999

>  <m_primary>  (50) 
energy

>  <rmsd>  (50) 
11.446154272331967

>  <m_score__min__rmsd>  (50) 
11.446154272331967

>  <meeko>  (50) 
{"free_energy": -8.39, "intermolecular_energy": -9.88, "internal_energy": -1.43, "cluster_size": 36, "cluster_id": 2, "rank_in_cluster": 30}

>  <energy>  (50) 
-8.25

>  <cluster_rmsd>  (50) 
0.9

>  <cluster>  (50) 
3

$$$$
