
     RDKit          3D

 70 74  0  0  0  0  0  0  0  0999 V2000
  142.2120   81.0150  221.7270 C   0  0  0  0  0  0  0  0  0  0  0  0
  141.5960   81.0240  223.0430 N   0  0  0  0  0  0  0  0  0  0  0  0
  142.0190   79.8540  223.7900 C   0  0  0  0  0  0  0  0  0  0  0  0
  141.2550   78.6090  223.4480 C   0  0  0  0  0  0  0  0  0  0  0  0
  139.8140   78.7910  223.4420 N   0  0  0  0  0  0  0  0  0  0  0  0
  139.2050   78.4150  222.2060 C   0  0  0  0  0  0  0  0  0  0  0  0
  139.0790   76.9560  222.1150 C   0  0  0  0  0  0  0  0  0  0  0  0
  137.9310   76.2440  222.3810 C   0  0  0  0  0  0  0  0  0  0  0  0
  137.8520   74.8700  222.2840 C   0  0  0  0  0  0  0  0  0  0  0  0
  138.9640   74.1150  221.8980 C   0  0  0  0  0  0  0  0  0  0  0  0
  138.8650   72.6660  221.8040 C   0  0  0  0  0  0  0  0  0  0  0  0
  139.7710   71.8250  222.2280 C   0  0  0  0  0  0  0  0  0  0  0  0
  139.6250   71.1300  223.5080 C   0  0  0  0  0  0  0  0  0  0  0  0
  140.3730   71.5980  224.5320 N   0  0  0  0  0  0  0  0  0  0  0  0
  140.3700   71.0480  225.7400 C   0  0  0  0  0  0  0  0  0  0  0  0
  141.1100   71.4860  226.8120 C   0  0  0  0  0  0  0  0  0  0  0  0
  141.0690   70.8800  228.0500 C   0  0  0  0  0  0  0  0  0  0  0  0
  140.2490   69.7650  228.2540 C   0  0  0  0  0  0  0  0  0  0  0  0
  139.5220   69.3510  227.1600 C   0  0  0  0  0  0  0  0  0  0  0  0
  139.5530   69.9430  225.9320 C   0  0  0  0  0  0  0  0  0  0  0  0
  138.7960   69.4720  224.8900 C   0  0  0  0  0  0  0  0  0  0  0  0
  138.0740   68.4600  225.1330 O   0  0  0  0  0  0  0  0  0  0  0  0
  138.8080   70.0490  223.6520 N   0  0  0  0  0  0  0  0  0  0  0  0
  138.0340   69.5310  222.5750 C   0  0  0  0  0  0  0  0  0  0  0  0
  138.5800   68.3820  221.8200 C   0  0  0  0  0  0  0  0  0  0  0  0
  138.4920   67.0770  222.5330 C   0  0  0  0  0  0  0  0  0  0  0  0
  139.4940   66.0650  221.9770 C   0  0  0  0  0  0  0  0  0  0  0  0
  139.5940   66.2560  220.5020 C   0  0  0  0  0  0  0  0  0  0  0  0
  140.1640   67.6010  220.1090 C   0  0  0  0  0  0  0  0  0  0  0  0
  139.9380   68.6360  221.2000 C   0  0  0  0  0  0  0  0  0  0  0  0
  140.1090   74.8250  221.6330 C   0  0  0  0  0  0  0  0  0  0  0  0
  140.1880   76.2080  221.7320 C   0  0  0  0  0  0  0  0  0  0  0  0
  139.4950   80.1390  223.8460 C   0  0  0  0  0  0  0  0  0  0  0  0
  140.1610   81.1490  222.9330 C   0  0  0  0  0  0  0  0  0  0  0  0
  143.3066   80.9990  221.8346 H   0  0  0  0  0  0  0  0  0  0  0  0
  141.8847   80.1215  221.1751 H   0  0  0  0  0  0  0  0  0  0  0  0
  141.9110   81.9176  221.1751 H   0  0  0  0  0  0  0  0  0  0  0  0
  143.0842   79.6757  223.5813 H   0  0  0  0  0  0  0  0  0  0  0  0
  141.8280   80.0656  224.8524 H   0  0  0  0  0  0  0  0  0  0  0  0
  141.5668   78.2740  222.4477 H   0  0  0  0  0  0  0  0  0  0  0  0
  141.4821   77.8680  224.2287 H   0  0  0  0  0  0  0  0  0  0  0  0
  138.2050   78.8688  222.1430 H   0  0  0  0  0  0  0  0  0  0  0  0
  139.8364   78.7687  221.3776 H   0  0  0  0  0  0  0  0  0  0  0  0
  137.0314   76.7986  222.6862 H   0  0  0  0  0  0  0  0  0  0  0  0
  136.9033   74.3625  222.5130 H   0  0  0  0  0  0  0  0  0  0  0  0
  137.9593   72.2471  221.3412 H   0  0  0  0  0  0  0  0  0  0  0  0
  140.6614   71.6355  221.6105 H   0  0  0  0  0  0  0  0  0  0  0  0
  141.7646   72.3595  226.6764 H   0  0  0  0  0  0  0  0  0  0  0  0
  141.6802   71.2727  228.8760 H   0  0  0  0  0  0  0  0  0  0  0  0
  140.1888   69.2522  229.2253 H   0  0  0  0  0  0  0  0  0  0  0  0
  138.8667   68.4766  227.2864 H   0  0  0  0  0  0  0  0  0  0  0  0
  137.0637   69.2195  222.9891 H   0  0  0  0  0  0  0  0  0  0  0  0
  137.9980   70.3505  221.8421 H   0  0  0  0  0  0  0  0  0  0  0  0
  137.8913   68.2814  220.9682 H   0  0  0  0  0  0  0  0  0  0  0  0
  138.7022   67.2383  223.6006 H   0  0  0  0  0  0  0  0  0  0  0  0
  137.4788   66.6734  222.3895 H   0  0  0  0  0  0  0  0  0  0  0  0
  140.4790   66.2265  222.4392 H   0  0  0  0  0  0  0  0  0  0  0  0
  139.1585   65.0418  222.2016 H   0  0  0  0  0  0  0  0  0  0  0  0
  140.2430   65.4685  220.0914 H   0  0  0  0  0  0  0  0  0  0  0  0
  138.5724   66.2048  220.0973 H   0  0  0  0  0  0  0  0  0  0  0  0
  141.2448   67.4950  219.9338 H   0  0  0  0  0  0  0  0  0  0  0  0
  139.6537   67.9414  219.1959 H   0  0  0  0  0  0  0  0  0  0  0  0
  140.7206   68.5447  221.9676 H   0  0  0  0  0  0  0  0  0  0  0  0
  139.9780   69.6500  220.7756 H   0  0  0  0  0  0  0  0  0  0  0  0
  141.0085   74.2707  221.3270 H   0  0  0  0  0  0  0  0  0  0  0  0
  141.1365   76.7170  221.5054 H   0  0  0  0  0  0  0  0  0  0  0  0
  138.4048   80.2792  223.8037 H   0  0  0  0  0  0  0  0  0  0  0  0
  139.8630   80.2952  224.8708 H   0  0  0  0  0  0  0  0  0  0  0  0
  139.8551   80.9612  221.8932 H   0  0  0  0  0  0  0  0  0  0  0  0
  139.8576   82.1648  223.2264 H   0  0  0  0  0  0  0  0  0  0  0  0
  1  2  1  0
  2  3  1  0
  3  4  1  0
  4  5  1  0
  5  6  1  0
  6  7  1  0
  7  8  2  0
  8  9  1  0
  9 10  2  0
 10 11  1  0
 11 12  2  0
 12 13  1  0
 13 14  2  0
 14 15  1  0
 15 16  2  0
 16 17  1  0
 17 18  2  0
 18 19  1  0
 19 20  2  0
 20 21  1  0
 21 22  2  0
 21 23  1  0
 23 24  1  0
 24 25  1  0
 25 26  1  0
 26 27  1  0
 27 28  1  0
 28 29  1  0
 29 30  1  0
 10 31  1  0
 31 32  2  0
  5 33  1  0
 33 34  1  0
 34  2  1  0
 32  7  1  0
 23 13  1  0
 30 25  1  0
 20 15  1  0
  1 35  1  0
  1 36  1  0
  1 37  1  0
  3 38  1  0
  3 39  1  0
  4 40  1  0
  4 41  1  0
  6 42  1  0
  6 43  1  0
  8 44  1  0
  9 45  1  0
 11 46  1  0
 12 47  1  0
 16 48  1  0
 17 49  1  0
 18 50  1  0
 19 51  1  0
 24 52  1  0
 24 53  1  0
 25 54  1  0
 26 55  1  0
 26 56  1  0
 27 57  1  0
 27 58  1  0
 28 59  1  0
 28 60  1  0
 29 61  1  0
 29 62  1  0
 30 63  1  0
 30 64  1  0
 31 65  1  0
 32 66  1  0
 33 67  1  0
 33 68  1  0
 34 69  1  0
 34 70  1  0
M  END
>  <smiles>  (1) 
CN1CCN(Cc2ccc(/C=C/c3nc4ccccc4c(=O)n3CC3CCCCC3)cc2)CC1

>  <score_type>  (1) 
oracle

>  <origin>  (1) 
autodockgpu

>  <m_score__min__energy>  (1) 
-9.5099999999999998

>  <m_primary>  (1) 
energy

>  <rmsd>  (1) 
6.658021934163051

>  <m_score__min__rmsd>  (1) 
6.658021934163051

>  <meeko>  (1) 
{"free_energy": -8.71, "intermolecular_energy": -10.8, "internal_energy": -1.65, "cluster_size": 47, "cluster_id": 1, "rank_in_cluster": 45}

>  <energy>  (1) 
-9.51

>  <cluster_rmsd>  (1) 
0.0

>  <cluster>  (1) 
1

$$$$

     RDKit          3D

 70 74  0  0  0  0  0  0  0  0999 V2000
  141.5040   82.1560  221.8900 C   0  0  0  0  0  0  0  0  0  0  0  0
  141.3460   81.5140  223.1840 N   0  0  0  0  0  0  0  0  0  0  0  0
  142.5260   80.7280  223.4890 C   0  0  0  0  0  0  0  0  0  0  0  0
  142.5430   79.3800  222.8290 C   0  0  0  0  0  0  0  0  0  0  0  0
  141.3060   78.6370  222.9910 N   0  0  0  0  0  0  0  0  0  0  0  0
  140.7290   78.2310  221.7490 C   0  0  0  0  0  0  0  0  0  0  0  0
  140.2930   76.8310  221.8140 C   0  0  0  0  0  0  0  0  0  0  0  0
  139.0200   76.4140  222.1330 C   0  0  0  0  0  0  0  0  0  0  0  0
  138.6480   75.0870  222.1840 C   0  0  0  0  0  0  0  0  0  0  0  0
  139.5720   74.0740  221.9060 C   0  0  0  0  0  0  0  0  0  0  0  0
  139.1640   72.6790  221.9680 C   0  0  0  0  0  0  0  0  0  0  0  0
  139.9630   71.6750  222.2190 C   0  0  0  0  0  0  0  0  0  0  0  0
  139.9470   70.9940  223.5140 C   0  0  0  0  0  0  0  0  0  0  0  0
  140.4370   71.6900  224.5640 N   0  0  0  0  0  0  0  0  0  0  0  0
  140.5170   71.1890  225.7890 C   0  0  0  0  0  0  0  0  0  0  0  0
  141.0040   71.8550  226.8890 C   0  0  0  0  0  0  0  0  0  0  0  0
  141.0630   71.2890  228.1440 C   0  0  0  0  0  0  0  0  0  0  0  0
  140.6150   69.9780  228.3410 C   0  0  0  0  0  0  0  0  0  0  0  0
  140.1340   69.3390  227.2200 C   0  0  0  0  0  0  0  0  0  0  0  0
  140.0700   69.8890  225.9740 C   0  0  0  0  0  0  0  0  0  0  0  0
  139.5730   69.1850  224.9050 C   0  0  0  0  0  0  0  0  0  0  0  0
  139.1840   68.0040  225.1440 O   0  0  0  0  0  0  0  0  0  0  0  0
  139.4960   69.7150  223.6480 N   0  0  0  0  0  0  0  0  0  0  0  0
  139.0000   68.9610  222.5470 C   0  0  0  0  0  0  0  0  0  0  0  0
  137.5340   68.8450  222.3920 C   0  0  0  0  0  0  0  0  0  0  0  0
  136.7470   69.4860  223.4820 C   0  0  0  0  0  0  0  0  0  0  0  0
  135.3310   68.9140  223.5630 C   0  0  0  0  0  0  0  0  0  0  0  0
  134.8510   68.6340  222.1800 C   0  0  0  0  0  0  0  0  0  0  0  0
  135.6490   67.5590  221.4750 C   0  0  0  0  0  0  0  0  0  0  0  0
  137.0540   67.4510  222.0470 C   0  0  0  0  0  0  0  0  0  0  0  0
  140.8410   74.4900  221.5880 C   0  0  0  0  0  0  0  0  0  0  0  0
  141.2150   75.8260  221.5370 C   0  0  0  0  0  0  0  0  0  0  0  0
  140.3960   79.3850  223.8230 C   0  0  0  0  0  0  0  0  0  0  0  0
  140.1200   80.7520  223.2280 C   0  0  0  0  0  0  0  0  0  0  0  0
  141.7646   83.2148  222.0354 H   0  0  0  0  0  0  0  0  0  0  0  0
  142.3056   81.6550  221.3275 H   0  0  0  0  0  0  0  0  0  0  0  0
  140.5614   82.0843  221.3275 H   0  0  0  0  0  0  0  0  0  0  0  0
  143.4118   81.2886  223.1557 H   0  0  0  0  0  0  0  0  0  0  0  0
  142.5226   80.5531  224.5750 H   0  0  0  0  0  0  0  0  0  0  0  0
  142.7250   79.5218  221.7535 H   0  0  0  0  0  0  0  0  0  0  0  0
  143.3371   78.7936  223.3143 H   0  0  0  0  0  0  0  0  0  0  0  0
  139.8613   78.8698  221.5277 H   0  0  0  0  0  0  0  0  0  0  0  0
  141.4865   78.3297  220.9575 H   0  0  0  0  0  0  0  0  0  0  0  0
  138.2614   77.1780  222.3586 H   0  0  0  0  0  0  0  0  0  0  0  0
  137.6131   74.8221  222.4462 H   0  0  0  0  0  0  0  0  0  0  0  0
  138.1026   72.4516  221.7902 H   0  0  0  0  0  0  0  0  0  0  0  0
  140.6618   71.3352  221.4404 H   0  0  0  0  0  0  0  0  0  0  0  0
  141.3629   72.8869  226.7613 H   0  0  0  0  0  0  0  0  0  0  0  0
  141.4620   71.8673  228.9904 H   0  0  0  0  0  0  0  0  0  0  0  0
  140.6451   69.4900  229.3264 H   0  0  0  0  0  0  0  0  0  0  0  0
  139.7741   68.3064  227.3388 H   0  0  0  0  0  0  0  0  0  0  0  0
  139.3907   69.4253  221.6295 H   0  0  0  0  0  0  0  0  0  0  0  0
  139.3389   67.9328  222.7419 H   0  0  0  0  0  0  0  0  0  0  0  0
  137.3197   69.4495  221.4983 H   0  0  0  0  0  0  0  0  0  0  0  0
  137.2577   69.3128  224.4408 H   0  0  0  0  0  0  0  0  0  0  0  0
  136.6723   70.5621  223.2664 H   0  0  0  0  0  0  0  0  0  0  0  0
  135.3407   67.9822  224.1476 H   0  0  0  0  0  0  0  0  0  0  0  0
  134.6618   69.6359  224.0539 H   0  0  0  0  0  0  0  0  0  0  0  0
  133.8010   68.3106  222.2338 H   0  0  0  0  0  0  0  0  0  0  0  0
  134.9703   69.5611  221.6001 H   0  0  0  0  0  0  0  0  0  0  0  0
  135.1366   66.5934  221.5979 H   0  0  0  0  0  0  0  0  0  0  0  0
  135.7264   67.8251  220.4105 H   0  0  0  0  0  0  0  0  0  0  0  0
  137.0401   66.8273  222.9530 H   0  0  0  0  0  0  0  0  0  0  0  0
  137.7287   66.9885  221.3115 H   0  0  0  0  0  0  0  0  0  0  0  0
  141.5998   73.7263  221.3622 H   0  0  0  0  0  0  0  0  0  0  0  0
  142.2496   76.0927  221.2753 H   0  0  0  0  0  0  0  0  0  0  0  0
  139.4492   78.8318  223.9094 H   0  0  0  0  0  0  0  0  0  0  0  0
  140.8541   79.5185  224.8141 H   0  0  0  0  0  0  0  0  0  0  0  0
  139.7241   80.6350  222.2084 H   0  0  0  0  0  0  0  0  0  0  0  0
  139.3819   81.2803  223.8494 H   0  0  0  0  0  0  0  0  0  0  0  0
  1  2  1  0
  2  3  1  0
  3  4  1  0
  4  5  1  0
  5  6  1  0
  6  7  1  0
  7  8  2  0
  8  9  1  0
  9 10  2  0
 10 11  1  0
 11 12  2  0
 12 13  1  0
 13 14  2  0
 14 15  1  0
 15 16  2  0
 16 17  1  0
 17 18  2  0
 18 19  1  0
 19 20  2  0
 20 21  1  0
 21 22  2  0
 21 23  1  0
 23 24  1  0
 24 25  1  0
 25 26  1  0
 26 27  1  0
 27 28  1  0
 28 29  1  0
 29 30  1  0
 10 31  1  0
 31 32  2  0
  5 33  1  0
 33 34  1  0
 34  2  1  0
 32  7  1  0
 23 13  1  0
 30 25  1  0
 20 15  1  0
  1 35  1  0
  1 36  1  0
  1 37  1  0
  3 38  1  0
  3 39  1  0
  4 40  1  0
  4 41  1  0
  6 42  1  0
  6 43  1  0
  8 44  1  0
  9 45  1  0
 11 46  1  0
 12 47  1  0
 16 48  1  0
 17 49  1  0
 18 50  1  0
 19 51  1  0
 24 52  1  0
 24 53  1  0
 25 54  1  0
 26 55  1  0
 26 56  1  0
 27 57  1  0
 27 58  1  0
 28 59  1  0
 28 60  1  0
 29 61  1  0
 29 62  1  0
 30 63  1  0
 30 64  1  0
 31 65  1  0
 32 66  1  0
 33 67  1  0
 33 68  1  0
 34 69  1  0
 34 70  1  0
M  END
>  <smiles>  (2) 
CN1CCN(Cc2ccc(/C=C/c3nc4ccccc4c(=O)n3CC3CCCCC3)cc2)CC1

>  <score_type>  (2) 
oracle

>  <origin>  (2) 
autodockgpu

>  <m_score__min__energy>  (2) 
-9.5099999999999998

>  <m_primary>  (2) 
energy

>  <rmsd>  (2) 
6.773932003409857

>  <m_score__min__rmsd>  (2) 
6.773932003409857

>  <meeko>  (2) 
{"free_energy": -9.48, "intermolecular_energy": -11.57, "internal_energy": -1.68, "cluster_size": 47, "cluster_id": 1, "rank_in_cluster": 3}

>  <energy>  (2) 
-9.5

>  <cluster_rmsd>  (2) 
0.27

>  <cluster>  (2) 
1

$$$$

     RDKit          3D

 70 74  0  0  0  0  0  0  0  0999 V2000
  141.4580   82.0070  221.8450 C   0  0  0  0  0  0  0  0  0  0  0  0
  141.0760   81.3880  223.1030 N   0  0  0  0  0  0  0  0  0  0  0  0
  142.2290   80.7450  223.7040 C   0  0  0  0  0  0  0  0  0  0  0  0
  142.5320   79.3900  223.1370 C   0  0  0  0  0  0  0  0  0  0  0  0
  141.3720   78.5190  223.0560 N   0  0  0  0  0  0  0  0  0  0  0  0
  141.1370   78.0170  221.7390 C   0  0  0  0  0  0  0  0  0  0  0  0
  140.6470   76.6350  221.7930 C   0  0  0  0  0  0  0  0  0  0  0  0
  141.3820   75.5220  221.4490 C   0  0  0  0  0  0  0  0  0  0  0  0
  140.8860   74.2370  221.5130 C   0  0  0  0  0  0  0  0  0  0  0  0
  139.5770   73.9960  221.9430 C   0  0  0  0  0  0  0  0  0  0  0  0
  139.0680   72.6340  222.0010 C   0  0  0  0  0  0  0  0  0  0  0  0
  139.7980   71.5710  222.2160 C   0  0  0  0  0  0  0  0  0  0  0  0
  139.8420   70.9310  223.5310 C   0  0  0  0  0  0  0  0  0  0  0  0
  140.3620   71.6660  224.5380 N   0  0  0  0  0  0  0  0  0  0  0  0
  140.4960   71.2050  225.7750 C   0  0  0  0  0  0  0  0  0  0  0  0
  141.0170   71.9120  226.8330 C   0  0  0  0  0  0  0  0  0  0  0  0
  141.1320   71.3870  228.1030 C   0  0  0  0  0  0  0  0  0  0  0  0
  140.7110   70.0770  228.3570 C   0  0  0  0  0  0  0  0  0  0  0  0
  140.1960   69.3970  227.2770 C   0  0  0  0  0  0  0  0  0  0  0  0
  140.0760   69.9050  226.0180 C   0  0  0  0  0  0  0  0  0  0  0  0
  139.5490   69.1620  224.9920 C   0  0  0  0  0  0  0  0  0  0  0  0
  139.1860   67.9840  225.2810 O   0  0  0  0  0  0  0  0  0  0  0  0
  139.4150   69.6510  223.7230 N   0  0  0  0  0  0  0  0  0  0  0  0
  138.8880   68.8560  222.6650 C   0  0  0  0  0  0  0  0  0  0  0  0
  137.4180   68.7960  222.5120 C   0  0  0  0  0  0  0  0  0  0  0  0
  136.9200   69.2140  221.1720 C   0  0  0  0  0  0  0  0  0  0  0  0
  135.4490   69.6270  221.2230 C   0  0  0  0  0  0  0  0  0  0  0  0
  134.7390   68.7390  222.1870 C   0  0  0  0  0  0  0  0  0  0  0  0
  135.2200   68.8940  223.6120 C   0  0  0  0  0  0  0  0  0  0  0  0
  136.6480   69.4180  223.6580 C   0  0  0  0  0  0  0  0  0  0  0  0
  138.8440   75.1050  222.2860 C   0  0  0  0  0  0  0  0  0  0  0  0
  139.3450   76.3990  222.2210 C   0  0  0  0  0  0  0  0  0  0  0  0
  140.2260   79.1860  223.6230 C   0  0  0  0  0  0  0  0  0  0  0  0
  139.9550   80.4970  222.9110 C   0  0  0  0  0  0  0  0  0  0  0  0
  142.0259   82.9272  222.0467 H   0  0  0  0  0  0  0  0  0  0  0  0
  142.0830   81.3095  221.2680 H   0  0  0  0  0  0  0  0  0  0  0  0
  140.5543   82.2528  221.2680 H   0  0  0  0  0  0  0  0  0  0  0  0
  143.1062   81.3901  223.5478 H   0  0  0  0  0  0  0  0  0  0  0  0
  141.9958   80.6010  224.7693 H   0  0  0  0  0  0  0  0  0  0  0  0
  142.9398   79.5206  222.1238 H   0  0  0  0  0  0  0  0  0  0  0  0
  143.2488   78.9088  223.8186 H   0  0  0  0  0  0  0  0  0  0  0  0
  140.3861   78.6476  221.2404 H   0  0  0  0  0  0  0  0  0  0  0  0
  142.0830   78.0362  221.1781 H   0  0  0  0  0  0  0  0  0  0  0  0
  142.4172   75.6656  221.1058 H   0  0  0  0  0  0  0  0  0  0  0  0
  141.5271   73.3917  221.2225 H   0  0  0  0  0  0  0  0  0  0  0  0
  137.9879   72.4879  221.8528 H   0  0  0  0  0  0  0  0  0  0  0  0
  140.3913   71.1491  221.3914 H   0  0  0  0  0  0  0  0  0  0  0  0
  141.3576   72.9433  226.6584 H   0  0  0  0  0  0  0  0  0  0  0  0
  141.5541   71.9972  228.9151 H   0  0  0  0  0  0  0  0  0  0  0  0
  140.7867   69.6204  229.3549 H   0  0  0  0  0  0  0  0  0  0  0  0
  139.8551   68.3644  227.4426 H   0  0  0  0  0  0  0  0  0  0  0  0
  139.2998   69.2485  221.7235 H   0  0  0  0  0  0  0  0  0  0  0  0
  139.1816   67.8270  222.9198 H   0  0  0  0  0  0  0  0  0  0  0  0
  137.1961   67.7202  222.5700 H   0  0  0  0  0  0  0  0  0  0  0  0
  137.5183   70.0667  220.8187 H   0  0  0  0  0  0  0  0  0  0  0  0
  137.0139   68.3582  220.4873 H   0  0  0  0  0  0  0  0  0  0  0  0
  135.3690   70.6728  221.5544 H   0  0  0  0  0  0  0  0  0  0  0  0
  134.9978   69.5343  220.2241 H   0  0  0  0  0  0  0  0  0  0  0  0
  133.6653   68.9758  222.1536 H   0  0  0  0  0  0  0  0  0  0  0  0
  134.9453   67.7014  221.8855 H   0  0  0  0  0  0  0  0  0  0  0  0
  134.5615   69.6010  224.1379 H   0  0  0  0  0  0  0  0  0  0  0  0
  135.1959   67.9068  224.0966 H   0  0  0  0  0  0  0  0  0  0  0  0
  136.6462   70.5131  223.5543 H   0  0  0  0  0  0  0  0  0  0  0  0
  137.1178   69.1562  224.6175 H   0  0  0  0  0  0  0  0  0  0  0  0
  137.8088   74.9618  222.6293 H   0  0  0  0  0  0  0  0  0  0  0  0
  138.7054   77.2456  222.5110 H   0  0  0  0  0  0  0  0  0  0  0  0
  139.3452   78.5344  223.5251 H   0  0  0  0  0  0  0  0  0  0  0  0
  140.4317   79.3979  224.6826 H   0  0  0  0  0  0  0  0  0  0  0  0
  139.8156   80.3089  221.8362 H   0  0  0  0  0  0  0  0  0  0  0  0
  139.0449   80.9575  223.3228 H   0  0  0  0  0  0  0  0  0  0  0  0
  1  2  1  0
  2  3  1  0
  3  4  1  0
  4  5  1  0
  5  6  1  0
  6  7  1  0
  7  8  2  0
  8  9  1  0
  9 10  2  0
 10 11  1  0
 11 12  2  0
 12 13  1  0
 13 14  2  0
 14 15  1  0
 15 16  2  0
 16 17  1  0
 17 18  2  0
 18 19  1  0
 19 20  2  0
 20 21  1  0
 21 22  2  0
 21 23  1  0
 23 24  1  0
 24 25  1  0
 25 26  1  0
 26 27  1  0
 27 28  1  0
 28 29  1  0
 29 30  1  0
 10 31  1  0
 31 32  2  0
  5 33  1  0
 33 34  1  0
 34  2  1  0
 32  7  1  0
 23 13  1  0
 30 25  1  0
 20 15  1  0
  1 35  1  0
  1 36  1  0
  1 37  1  0
  3 38  1  0
  3 39  1  0
  4 40  1  0
  4 41  1  0
  6 42  1  0
  6 43  1  0
  8 44  1  0
  9 45  1  0
 11 46  1  0
 12 47  1  0
 16 48  1  0
 17 49  1  0
 18 50  1  0
 19 51  1  0
 24 52  1  0
 24 53  1  0
 25 54  1  0
 26 55  1  0
 26 56  1  0
 27 57  1  0
 27 58  1  0
 28 59  1  0
 28 60  1  0
 29 61  1  0
 29 62  1  0
 30 63  1  0
 30 64  1  0
 31 65  1  0
 32 66  1  0
 33 67  1  0
 33 68  1  0
 34 69  1  0
 34 70  1  0
M  END
>  <smiles>  (3) 
CN1CCN(Cc2ccc(/C=C/c3nc4ccccc4c(=O)n3CC3CCCCC3)cc2)CC1

>  <score_type>  (3) 
oracle

>  <origin>  (3) 
autodockgpu

>  <m_score__min__energy>  (3) 
-9.5099999999999998

>  <m_primary>  (3) 
energy

>  <rmsd>  (3) 
6.5557803358389375

>  <m_score__min__rmsd>  (3) 
6.5557803358389375

>  <meeko>  (3) 
{"free_energy": -9.35, "intermolecular_energy": -11.43, "internal_energy": -1.76, "cluster_size": 47, "cluster_id": 1, "rank_in_cluster": 17}

>  <energy>  (3) 
-9.48

>  <cluster_rmsd>  (3) 
0.21

>  <cluster>  (3) 
1

$$$$

     RDKit          3D

 70 74  0  0  0  0  0  0  0  0999 V2000
  141.4270   82.0110  221.9840 C   0  0  0  0  0  0  0  0  0  0  0  0
  141.1270   81.3420  223.2390 N   0  0  0  0  0  0  0  0  0  0  0  0
  142.3080   80.6490  223.7190 C   0  0  0  0  0  0  0  0  0  0  0  0
  142.5340   79.3160  223.0690 C   0  0  0  0  0  0  0  0  0  0  0  0
  141.3510   78.4740  223.0410 N   0  0  0  0  0  0  0  0  0  0  0  0
  141.0030   78.0380  221.7260 C   0  0  0  0  0  0  0  0  0  0  0  0
  140.5190   76.6530  221.7510 C   0  0  0  0  0  0  0  0  0  0  0  0
  139.2180   76.2760  221.9990 C   0  0  0  0  0  0  0  0  0  0  0  0
  138.8000   74.9620  222.0140 C   0  0  0  0  0  0  0  0  0  0  0  0
  139.7020   73.9210  221.7700 C   0  0  0  0  0  0  0  0  0  0  0  0
  139.2460   72.5400  221.7930 C   0  0  0  0  0  0  0  0  0  0  0  0
  139.9860   71.5120  222.1160 C   0  0  0  0  0  0  0  0  0  0  0  0
  139.9140   70.9100  223.4480 C   0  0  0  0  0  0  0  0  0  0  0  0
  140.4640   71.6200  224.4580 N   0  0  0  0  0  0  0  0  0  0  0  0
  140.5030   71.1850  225.7110 C   0  0  0  0  0  0  0  0  0  0  0  0
  141.0490   71.8690  226.7710 C   0  0  0  0  0  0  0  0  0  0  0  0
  141.0610   71.3740  228.0570 C   0  0  0  0  0  0  0  0  0  0  0  0
  140.5010   70.1200  228.3280 C   0  0  0  0  0  0  0  0  0  0  0  0
  139.9640   69.4620  227.2440 C   0  0  0  0  0  0  0  0  0  0  0  0
  139.9450   69.9420  225.9690 C   0  0  0  0  0  0  0  0  0  0  0  0
  139.3870   69.2240  224.9410 C   0  0  0  0  0  0  0  0  0  0  0  0
  138.8970   68.0970  225.2450 O   0  0  0  0  0  0  0  0  0  0  0  0
  139.3540   69.6850  223.6550 N   0  0  0  0  0  0  0  0  0  0  0  0
  138.7920   68.9150  222.5970 C   0  0  0  0  0  0  0  0  0  0  0  0
  137.3270   68.9750  222.4000 C   0  0  0  0  0  0  0  0  0  0  0  0
  136.9020   69.6030  221.1180 C   0  0  0  0  0  0  0  0  0  0  0  0
  135.4590   70.1030  221.1880 C   0  0  0  0  0  0  0  0  0  0  0  0
  134.6620   69.1430  222.0030 C   0  0  0  0  0  0  0  0  0  0  0  0
  135.1040   69.0710  223.4480 C   0  0  0  0  0  0  0  0  0  0  0  0
  136.5590   69.4870  223.6010 C   0  0  0  0  0  0  0  0  0  0  0  0
  140.9990   74.2970  221.5220 C   0  0  0  0  0  0  0  0  0  0  0  0
  141.4190   75.6210  221.5080 C   0  0  0  0  0  0  0  0  0  0  0  0
  140.2680   79.1360  223.7250 C   0  0  0  0  0  0  0  0  0  0  0  0
  139.9750   80.4840  223.0960 C   0  0  0  0  0  0  0  0  0  0  0  0
  141.8691   82.9968  222.1905 H   0  0  0  0  0  0  0  0  0  0  0  0
  142.1390   81.4037  221.4058 H   0  0  0  0  0  0  0  0  0  0  0  0
  140.5000   82.1387  221.4058 H   0  0  0  0  0  0  0  0  0  0  0  0
  143.1854   81.2831  223.5240 H   0  0  0  0  0  0  0  0  0  0  0  0
  142.1548   80.4604  224.7918 H   0  0  0  0  0  0  0  0  0  0  0  0
  142.8645   79.4857  222.0336 H   0  0  0  0  0  0  0  0  0  0  0  0
  143.2905   78.7890  223.6690 H   0  0  0  0  0  0  0  0  0  0  0  0
  140.2121   78.6899  221.3267 H   0  0  0  0  0  0  0  0  0  0  0  0
  141.8974   78.0891  221.0877 H   0  0  0  0  0  0  0  0  0  0  0  0
  138.4746   77.0628  222.1950 H   0  0  0  0  0  0  0  0  0  0  0  0
  137.7448   74.7297  222.2203 H   0  0  0  0  0  0  0  0  0  0  0  0
  138.1989   72.3459  221.5177 H   0  0  0  0  0  0  0  0  0  0  0  0
  140.6772   71.0907  221.3712 H   0  0  0  0  0  0  0  0  0  0  0  0
  141.4966   72.8563  226.5842 H   0  0  0  0  0  0  0  0  0  0  0  0
  141.5102   71.9637  228.8698 H   0  0  0  0  0  0  0  0  0  0  0  0
  140.4906   69.6887  229.3399 H   0  0  0  0  0  0  0  0  0  0  0  0
  139.5161   68.4731  227.4211 H   0  0  0  0  0  0  0  0  0  0  0  0
  139.2624   69.2514  221.6613 H   0  0  0  0  0  0  0  0  0  0  0  0
  138.9897   67.8707  222.8806 H   0  0  0  0  0  0  0  0  0  0  0  0
  137.0362   67.9185  222.3040 H   0  0  0  0  0  0  0  0  0  0  0  0
  137.5645   70.4537  220.9002 H   0  0  0  0  0  0  0  0  0  0  0  0
  136.9650   68.8433  220.3250 H   0  0  0  0  0  0  0  0  0  0  0  0
  135.4338   71.0976  221.6573 H   0  0  0  0  0  0  0  0  0  0  0  0
  135.0372   70.1763  220.1747 H   0  0  0  0  0  0  0  0  0  0  0  0
  133.6073   69.4542  221.9760 H   0  0  0  0  0  0  0  0  0  0  0  0
  134.8118   68.1442  221.5672 H   0  0  0  0  0  0  0  0  0  0  0  0
  134.4739   69.7426  224.0496 H   0  0  0  0  0  0  0  0  0  0  0  0
  135.0017   68.0310  223.7915 H   0  0  0  0  0  0  0  0  0  0  0  0
  136.6296   70.5837  223.6481 H   0  0  0  0  0  0  0  0  0  0  0  0
  136.9786   69.0673  224.5272 H   0  0  0  0  0  0  0  0  0  0  0  0
  141.7425   73.5107  221.3246 H   0  0  0  0  0  0  0  0  0  0  0  0
  142.4739   75.8555  221.3027 H   0  0  0  0  0  0  0  0  0  0  0  0
  139.3671   78.5076  223.6662 H   0  0  0  0  0  0  0  0  0  0  0  0
  140.5586   79.2933  224.7742 H   0  0  0  0  0  0  0  0  0  0  0  0
  139.7487   80.3489  222.0280 H   0  0  0  0  0  0  0  0  0  0  0  0
  139.1110   80.9432  223.5986 H   0  0  0  0  0  0  0  0  0  0  0  0
  1  2  1  0
  2  3  1  0
  3  4  1  0
  4  5  1  0
  5  6  1  0
  6  7  1  0
  7  8  2  0
  8  9  1  0
  9 10  2  0
 10 11  1  0
 11 12  2  0
 12 13  1  0
 13 14  2  0
 14 15  1  0
 15 16  2  0
 16 17  1  0
 17 18  2  0
 18 19  1  0
 19 20  2  0
 20 21  1  0
 21 22  2  0
 21 23  1  0
 23 24  1  0
 24 25  1  0
 25 26  1  0
 26 27  1  0
 27 28  1  0
 28 29  1  0
 29 30  1  0
 10 31  1  0
 31 32  2  0
  5 33  1  0
 33 34  1  0
 34  2  1  0
 32  7  1  0
 23 13  1  0
 30 25  1  0
 20 15  1  0
  1 35  1  0
  1 36  1  0
  1 37  1  0
  3 38  1  0
  3 39  1  0
  4 40  1  0
  4 41  1  0
  6 42  1  0
  6 43  1  0
  8 44  1  0
  9 45  1  0
 11 46  1  0
 12 47  1  0
 16 48  1  0
 17 49  1  0
 18 50  1  0
 19 51  1  0
 24 52  1  0
 24 53  1  0
 25 54  1  0
 26 55  1  0
 26 56  1  0
 27 57  1  0
 27 58  1  0
 28 59  1  0
 28 60  1  0
 29 61  1  0
 29 62  1  0
 30 63  1  0
 30 64  1  0
 31 65  1  0
 32 66  1  0
 33 67  1  0
 33 68  1  0
 34 69  1  0
 34 70  1  0
M  END
>  <smiles>  (4) 
CN1CCN(Cc2ccc(/C=C/c3nc4ccccc4c(=O)n3CC3CCCCC3)cc2)CC1

>  <score_type>  (4) 
oracle

>  <origin>  (4) 
autodockgpu

>  <m_score__min__energy>  (4) 
-9.5099999999999998

>  <m_primary>  (4) 
energy

>  <rmsd>  (4) 
6.74289361327889

>  <m_score__min__rmsd>  (4) 
6.74289361327889

>  <meeko>  (4) 
{"free_energy": -9.23, "intermolecular_energy": -11.31, "internal_energy": -1.8, "cluster_size": 47, "cluster_id": 1, "rank_in_cluster": 26}

>  <energy>  (4) 
-9.47

>  <cluster_rmsd>  (4) 
0.34

>  <cluster>  (4) 
1

$$$$

     RDKit          3D

 70 74  0  0  0  0  0  0  0  0999 V2000
  139.5490   81.2220  222.7150 C   0  0  0  0  0  0  0  0  0  0  0  0
  140.6260   80.4910  223.3590 N   0  0  0  0  0  0  0  0  0  0  0  0
  141.8810   80.7740  222.6880 C   0  0  0  0  0  0  0  0  0  0  0  0
  142.0940   79.9730  221.4380 C   0  0  0  0  0  0  0  0  0  0  0  0
  141.8460   78.5520  221.6060 N   0  0  0  0  0  0  0  0  0  0  0  0
  140.8810   78.0370  220.6870 C   0  0  0  0  0  0  0  0  0  0  0  0
  140.4090   76.7170  221.1190 C   0  0  0  0  0  0  0  0  0  0  0  0
  139.1240   76.4290  221.5210 C   0  0  0  0  0  0  0  0  0  0  0  0
  138.7180   75.1730  221.9200 C   0  0  0  0  0  0  0  0  0  0  0  0
  139.6170   74.1020  221.9350 C   0  0  0  0  0  0  0  0  0  0  0  0
  139.1730   72.7840  222.3630 C   0  0  0  0  0  0  0  0  0  0  0  0
  139.9360   71.7250  222.4400 C   0  0  0  0  0  0  0  0  0  0  0  0
  139.9410   70.8750  223.6310 C   0  0  0  0  0  0  0  0  0  0  0  0
  140.4220   71.4330  224.7640 N   0  0  0  0  0  0  0  0  0  0  0  0
  140.5190   70.7730  225.9100 C   0  0  0  0  0  0  0  0  0  0  0  0
  140.9980   71.2950  227.0880 C   0  0  0  0  0  0  0  0  0  0  0  0
  141.0760   70.5660  228.2560 C   0  0  0  0  0  0  0  0  0  0  0  0
  140.6570   69.2310  228.2750 C   0  0  0  0  0  0  0  0  0  0  0  0
  140.1820   68.7390  227.0790 C   0  0  0  0  0  0  0  0  0  0  0  0
  140.1000   69.4500  225.9190 C   0  0  0  0  0  0  0  0  0  0  0  0
  139.6130   68.8870  224.7660 C   0  0  0  0  0  0  0  0  0  0  0  0
  139.2500   67.6760  224.8430 O   0  0  0  0  0  0  0  0  0  0  0  0
  139.5180   69.5800  223.5930 N   0  0  0  0  0  0  0  0  0  0  0  0
  139.0320   68.9720  222.4000 C   0  0  0  0  0  0  0  0  0  0  0  0
  137.6450   68.4580  222.4020 C   0  0  0  0  0  0  0  0  0  0  0  0
  137.4930   67.0920  221.8270 C   0  0  0  0  0  0  0  0  0  0  0  0
  136.0550   66.8280  221.3810 C   0  0  0  0  0  0  0  0  0  0  0  0
  135.1290   67.4840  222.3470 C   0  0  0  0  0  0  0  0  0  0  0  0
  135.2450   68.9910  222.3610 C   0  0  0  0  0  0  0  0  0  0  0  0
  136.6170   69.4430  221.8850 C   0  0  0  0  0  0  0  0  0  0  0  0
  140.8990   74.3880  221.5340 C   0  0  0  0  0  0  0  0  0  0  0  0
  141.3070   75.6530  221.1330 C   0  0  0  0  0  0  0  0  0  0  0  0
  141.5220   78.2770  222.9850 C   0  0  0  0  0  0  0  0  0  0  0  0
  140.3150   79.0820  223.4270 C   0  0  0  0  0  0  0  0  0  0  0  0
  138.8966   81.6648  223.4819 H   0  0  0  0  0  0  0  0  0  0  0  0
  139.9717   82.0206  222.0876 H   0  0  0  0  0  0  0  0  0  0  0  0
  138.9629   80.5343  222.0876 H   0  0  0  0  0  0  0  0  0  0  0  0
  141.8994   81.8415  222.4231 H   0  0  0  0  0  0  0  0  0  0  0  0
  142.6859   80.4989  223.3854 H   0  0  0  0  0  0  0  0  0  0  0  0
  141.4151   80.3546  220.6611 H   0  0  0  0  0  0  0  0  0  0  0  0
  143.1529   80.0841  221.1615 H   0  0  0  0  0  0  0  0  0  0  0  0
  140.0263   78.7275  220.6357 H   0  0  0  0  0  0  0  0  0  0  0  0
  141.3511   77.9389  219.6974 H   0  0  0  0  0  0  0  0  0  0  0  0
  138.3834   77.2424  221.5240 H   0  0  0  0  0  0  0  0  0  0  0  0
  137.6750   75.0117  222.2300 H   0  0  0  0  0  0  0  0  0  0  0  0
  138.1154   72.6700  222.6430 H   0  0  0  0  0  0  0  0  0  0  0  0
  140.5876   71.4678  221.5919 H   0  0  0  0  0  0  0  0  0  0  0  0
  141.3345   72.3422  227.0995 H   0  0  0  0  0  0  0  0  0  0  0  0
  141.4672   71.0334  229.1717 H   0  0  0  0  0  0  0  0  0  0  0  0
  140.7038   68.6149  229.1851 H   0  0  0  0  0  0  0  0  0  0  0  0
  139.8431   67.6927  227.0587 H   0  0  0  0  0  0  0  0  0  0  0  0
  139.1027   69.7214  221.5978 H   0  0  0  0  0  0  0  0  0  0  0  0
  139.6583   68.0769  222.2710 H   0  0  0  0  0  0  0  0  0  0  0  0
  137.4147   68.3393  223.4710 H   0  0  0  0  0  0  0  0  0  0  0  0
  138.1603   66.9938  220.9581 H   0  0  0  0  0  0  0  0  0  0  0  0
  137.7526   66.3594  222.6054 H   0  0  0  0  0  0  0  0  0  0  0  0
  135.8967   67.2442  220.3751 H   0  0  0  0  0  0  0  0  0  0  0  0
  135.8632   65.7452  221.3531 H   0  0  0  0  0  0  0  0  0  0  0  0
  134.0968   67.2162  222.0772 H   0  0  0  0  0  0  0  0  0  0  0  0
  135.4020   67.1280  223.3514 H   0  0  0  0  0  0  0  0  0  0  0  0
  134.4774   69.4158  221.6975 H   0  0  0  0  0  0  0  0  0  0  0  0
  135.1027   69.3411  223.3940 H   0  0  0  0  0  0  0  0  0  0  0  0
  136.6415   69.4641  220.7855 H   0  0  0  0  0  0  0  0  0  0  0  0
  136.8360   70.4534  222.2608 H   0  0  0  0  0  0  0  0  0  0  0  0
  141.6393   73.5744  221.5303 H   0  0  0  0  0  0  0  0  0  0  0  0
  142.3498   75.8163  220.8233 H   0  0  0  0  0  0  0  0  0  0  0  0
  141.3008   77.2052  223.0964 H   0  0  0  0  0  0  0  0  0  0  0  0
  142.3814   78.5585  223.6113 H   0  0  0  0  0  0  0  0  0  0  0  0
  139.4646   78.8616  222.7650 H   0  0  0  0  0  0  0  0  0  0  0  0
  140.0532   78.8133  224.4611 H   0  0  0  0  0  0  0  0  0  0  0  0
  1  2  1  0
  2  3  1  0
  3  4  1  0
  4  5  1  0
  5  6  1  0
  6  7  1  0
  7  8  2  0
  8  9  1  0
  9 10  2  0
 10 11  1  0
 11 12  2  0
 12 13  1  0
 13 14  2  0
 14 15  1  0
 15 16  2  0
 16 17  1  0
 17 18  2  0
 18 19  1  0
 19 20  2  0
 20 21  1  0
 21 22  2  0
 21 23  1  0
 23 24  1  0
 24 25  1  0
 25 26  1  0
 26 27  1  0
 27 28  1  0
 28 29  1  0
 29 30  1  0
 10 31  1  0
 31 32  2  0
  5 33  1  0
 33 34  1  0
 34  2  1  0
 32  7  1  0
 23 13  1  0
 30 25  1  0
 20 15  1  0
  1 35  1  0
  1 36  1  0
  1 37  1  0
  3 38  1  0
  3 39  1  0
  4 40  1  0
  4 41  1  0
  6 42  1  0
  6 43  1  0
  8 44  1  0
  9 45  1  0
 11 46  1  0
 12 47  1  0
 16 48  1  0
 17 49  1  0
 18 50  1  0
 19 51  1  0
 24 52  1  0
 24 53  1  0
 25 54  1  0
 26 55  1  0
 26 56  1  0
 27 57  1  0
 27 58  1  0
 28 59  1  0
 28 60  1  0
 29 61  1  0
 29 62  1  0
 30 63  1  0
 30 64  1  0
 31 65  1  0
 32 66  1  0
 33 67  1  0
 33 68  1  0
 34 69  1  0
 34 70  1  0
M  END
>  <smiles>  (5) 
CN1CCN(Cc2ccc(/C=C/c3nc4ccccc4c(=O)n3CC3CCCCC3)cc2)CC1

>  <score_type>  (5) 
oracle

>  <origin>  (5) 
autodockgpu

>  <m_score__min__energy>  (5) 
-9.5099999999999998

>  <m_primary>  (5) 
energy

>  <rmsd>  (5) 
6.448832163470639

>  <m_score__min__rmsd>  (5) 
6.448832163470639

>  <meeko>  (5) 
{"free_energy": -8.72, "intermolecular_energy": -10.8, "internal_energy": -1.59, "cluster_size": 47, "cluster_id": 1, "rank_in_cluster": 44}

>  <energy>  (5) 
-9.45

>  <cluster_rmsd>  (5) 
0.36

>  <cluster>  (5) 
1

$$$$

     RDKit          3D

 70 74  0  0  0  0  0  0  0  0999 V2000
  141.4990   81.7730  221.7950 C   0  0  0  0  0  0  0  0  0  0  0  0
  141.1230   81.2500  223.0970 N   0  0  0  0  0  0  0  0  0  0  0  0
  142.1880   80.4120  223.6160 C   0  0  0  0  0  0  0  0  0  0  0  0
  142.1860   79.0180  223.0620 C   0  0  0  0  0  0  0  0  0  0  0  0
  140.8840   78.3760  223.1040 N   0  0  0  0  0  0  0  0  0  0  0  0
  140.4450   77.9110  221.8270 C   0  0  0  0  0  0  0  0  0  0  0  0
  140.2900   76.4520  221.8320 C   0  0  0  0  0  0  0  0  0  0  0  0
  139.1070   75.7830  222.0550 C   0  0  0  0  0  0  0  0  0  0  0  0
  139.0020   74.4080  222.0520 C   0  0  0  0  0  0  0  0  0  0  0  0
  140.1220   73.6050  221.8160 C   0  0  0  0  0  0  0  0  0  0  0  0
  139.9940   72.1560  221.8200 C   0  0  0  0  0  0  0  0  0  0  0  0
  139.0610   71.4890  222.4470 C   0  0  0  0  0  0  0  0  0  0  0  0
  139.3340   70.7970  223.7070 C   0  0  0  0  0  0  0  0  0  0  0  0
  139.9060   71.5350  224.6840 N   0  0  0  0  0  0  0  0  0  0  0  0
  140.2410   71.0340  225.8660 C   0  0  0  0  0  0  0  0  0  0  0  0
  140.8220   71.7420  226.8920 C   0  0  0  0  0  0  0  0  0  0  0  0
  141.1500   71.1740  228.1040 C   0  0  0  0  0  0  0  0  0  0  0  0
  140.8930   69.8170  228.3320 C   0  0  0  0  0  0  0  0  0  0  0  0
  140.3120   69.1370  227.2850 C   0  0  0  0  0  0  0  0  0  0  0  0
  139.9830   69.6880  226.0820 C   0  0  0  0  0  0  0  0  0  0  0  0
  139.4030   68.9430  225.0870 C   0  0  0  0  0  0  0  0  0  0  0  0
  139.1950   67.7210  225.3490 O   0  0  0  0  0  0  0  0  0  0  0  0
  139.0610   69.4720  223.8750 N   0  0  0  0  0  0  0  0  0  0  0  0
  138.4820   68.6770  222.8450 C   0  0  0  0  0  0  0  0  0  0  0  0
  137.0190   68.7620  222.6470 C   0  0  0  0  0  0  0  0  0  0  0  0
  136.2630   69.2520  223.8330 C   0  0  0  0  0  0  0  0  0  0  0  0
  134.7920   68.8400  223.7710 C   0  0  0  0  0  0  0  0  0  0  0  0
  134.3390   68.9040  222.3520 C   0  0  0  0  0  0  0  0  0  0  0  0
  135.0430   67.9130  221.4520 C   0  0  0  0  0  0  0  0  0  0  0  0
  136.4050   67.5310  222.0120 C   0  0  0  0  0  0  0  0  0  0  0  0
  141.3020   74.2720  221.5940 C   0  0  0  0  0  0  0  0  0  0  0  0
  141.4070   75.6560  221.5980 C   0  0  0  0  0  0  0  0  0  0  0  0
  139.9340   79.2490  223.7490 C   0  0  0  0  0  0  0  0  0  0  0  0
  139.8460   80.5790  223.0260 C   0  0  0  0  0  0  0  0  0  0  0  0
  142.1365   82.6598  221.9262 H   0  0  0  0  0  0  0  0  0  0  0  0
  142.0519   81.0034  221.2364 H   0  0  0  0  0  0  0  0  0  0  0  0
  140.5933   82.0519  221.2364 H   0  0  0  0  0  0  0  0  0  0  0  0
  143.1512   80.8822  223.3685 H   0  0  0  0  0  0  0  0  0  0  0  0
  142.0281   80.3258  224.7009 H   0  0  0  0  0  0  0  0  0  0  0  0
  142.5191   79.0599  222.0145 H   0  0  0  0  0  0  0  0  0  0  0  0
  142.8603   78.4200  223.6927 H   0  0  0  0  0  0  0  0  0  0  0  0
  139.4777   78.3762  221.5862 H   0  0  0  0  0  0  0  0  0  0  0  0
  141.1979   78.1843  221.0730 H   0  0  0  0  0  0  0  0  0  0  0  0
  138.1999   76.3755  222.2451 H   0  0  0  0  0  0  0  0  0  0  0  0
  138.0253   73.9372  222.2375 H   0  0  0  0  0  0  0  0  0  0  0  0
  140.7384   71.5781  221.2527 H   0  0  0  0  0  0  0  0  0  0  0  0
  138.0489   71.4470  222.0182 H   0  0  0  0  0  0  0  0  0  0  0  0
  141.0346   72.8102  226.7382 H   0  0  0  0  0  0  0  0  0  0  0  0
  141.6133   71.7864  228.8916 H   0  0  0  0  0  0  0  0  0  0  0  0
  141.1391   69.3260  229.2851 H   0  0  0  0  0  0  0  0  0  0  0  0
  140.0970   68.0680  227.4302 H   0  0  0  0  0  0  0  0  0  0  0  0
  138.9586   68.9697  221.8978 H   0  0  0  0  0  0  0  0  0  0  0  0
  138.6579   67.6393  223.1648 H   0  0  0  0  0  0  0  0  0  0  0  0
  136.9065   69.5574  221.8955 H   0  0  0  0  0  0  0  0  0  0  0  0
  136.7140   68.8302  224.7433 H   0  0  0  0  0  0  0  0  0  0  0  0
  136.3129   70.3508  223.8434 H   0  0  0  0  0  0  0  0  0  0  0  0
  134.6784   67.8137  224.1502 H   0  0  0  0  0  0  0  0  0  0  0  0
  134.1857   69.5179  224.3897 H   0  0  0  0  0  0  0  0  0  0  0  0
  133.2590   68.6973  222.3210 H   0  0  0  0  0  0  0  0  0  0  0  0
  134.5803   69.9103  221.9789 H   0  0  0  0  0  0  0  0  0  0  0  0
  134.4250   67.0074  221.3630 H   0  0  0  0  0  0  0  0  0  0  0  0
  135.1904   68.3808  220.4674 H   0  0  0  0  0  0  0  0  0  0  0  0
  136.2882   66.7410  222.7684 H   0  0  0  0  0  0  0  0  0  0  0  0
  137.0542   67.1549  221.2076 H   0  0  0  0  0  0  0  0  0  0  0  0
  142.2092   73.6797  221.4035 H   0  0  0  0  0  0  0  0  0  0  0  0
  142.3833   76.1284  221.4143 H   0  0  0  0  0  0  0  0  0  0  0  0
  138.9437   78.7701  223.7446 H   0  0  0  0  0  0  0  0  0  0  0  0
  140.2674   79.4308  224.7814 H   0  0  0  0  0  0  0  0  0  0  0  0
  139.5800   80.4070  221.9726 H   0  0  0  0  0  0  0  0  0  0  0  0
  139.0757   81.2046  223.5007 H   0  0  0  0  0  0  0  0  0  0  0  0
  1  2  1  0
  2  3  1  0
  3  4  1  0
  4  5  1  0
  5  6  1  0
  6  7  1  0
  7  8  2  0
  8  9  1  0
  9 10  2  0
 10 11  1  0
 11 12  2  0
 12 13  1  0
 13 14  2  0
 14 15  1  0
 15 16  2  0
 16 17  1  0
 17 18  2  0
 18 19  1  0
 19 20  2  0
 20 21  1  0
 21 22  2  0
 21 23  1  0
 23 24  1  0
 24 25  1  0
 25 26  1  0
 26 27  1  0
 27 28  1  0
 28 29  1  0
 29 30  1  0
 10 31  1  0
 31 32  2  0
  5 33  1  0
 33 34  1  0
 34  2  1  0
 32  7  1  0
 23 13  1  0
 30 25  1  0
 20 15  1  0
  1 35  1  0
  1 36  1  0
  1 37  1  0
  3 38  1  0
  3 39  1  0
  4 40  1  0
  4 41  1  0
  6 42  1  0
  6 43  1  0
  8 44  1  0
  9 45  1  0
 11 46  1  0
 12 47  1  0
 16 48  1  0
 17 49  1  0
 18 50  1  0
 19 51  1  0
 24 52  1  0
 24 53  1  0
 25 54  1  0
 26 55  1  0
 26 56  1  0
 27 57  1  0
 27 58  1  0
 28 59  1  0
 28 60  1  0
 29 61  1  0
 29 62  1  0
 30 63  1  0
 30 64  1  0
 31 65  1  0
 32 66  1  0
 33 67  1  0
 33 68  1  0
 34 69  1  0
 34 70  1  0
M  END
>  <smiles>  (6) 
CN1CCN(Cc2ccc(/C=C/c3nc4ccccc4c(=O)n3CC3CCCCC3)cc2)CC1

>  <score_type>  (6) 
oracle

>  <origin>  (6) 
autodockgpu

>  <m_score__min__energy>  (6) 
-9.5099999999999998

>  <m_primary>  (6) 
energy

>  <rmsd>  (6) 
6.80558656038519

>  <m_score__min__rmsd>  (6) 
6.80558656038519

>  <meeko>  (6) 
{"free_energy": -9.34, "intermolecular_energy": -11.42, "internal_energy": -1.65, "cluster_size": 47, "cluster_id": 1, "rank_in_cluster": 20}

>  <energy>  (6) 
-9.44

>  <cluster_rmsd>  (6) 
0.34

>  <cluster>  (6) 
1

$$$$

     RDKit          3D

 70 74  0  0  0  0  0  0  0  0999 V2000
  141.5520   81.7540  221.6220 C   0  0  0  0  0  0  0  0  0  0  0  0
  141.2070   81.2890  222.9550 N   0  0  0  0  0  0  0  0  0  0  0  0
  142.2660   80.4410  223.4680 C   0  0  0  0  0  0  0  0  0  0  0  0
  142.2060   79.0280  222.9680 C   0  0  0  0  0  0  0  0  0  0  0  0
  140.8890   78.4260  223.0790 N   0  0  0  0  0  0  0  0  0  0  0  0
  140.3930   77.9270  221.8350 C   0  0  0  0  0  0  0  0  0  0  0  0
  140.3780   76.4600  221.8350 C   0  0  0  0  0  0  0  0  0  0  0  0
  139.3640   75.6800  222.3440 C   0  0  0  0  0  0  0  0  0  0  0  0
  139.3870   74.3010  222.3260 C   0  0  0  0  0  0  0  0  0  0  0  0
  140.4700   73.6110  221.7730 C   0  0  0  0  0  0  0  0  0  0  0  0
  140.4790   72.1550  221.7650 C   0  0  0  0  0  0  0  0  0  0  0  0
  139.5270   71.3980  222.2430 C   0  0  0  0  0  0  0  0  0  0  0  0
  139.6520   70.7520  223.5500 C   0  0  0  0  0  0  0  0  0  0  0  0
  140.1770   71.5040  224.5430 N   0  0  0  0  0  0  0  0  0  0  0  0
  140.3810   71.0420  225.7700 C   0  0  0  0  0  0  0  0  0  0  0  0
  140.9090   71.7660  226.8130 C   0  0  0  0  0  0  0  0  0  0  0  0
  141.0990   71.2380  228.0720 C   0  0  0  0  0  0  0  0  0  0  0  0
  140.7490   69.9080  228.3320 C   0  0  0  0  0  0  0  0  0  0  0  0
  140.2240   69.2120  227.2670 C   0  0  0  0  0  0  0  0  0  0  0  0
  140.0310   69.7230  226.0180 C   0  0  0  0  0  0  0  0  0  0  0  0
  139.4990   68.9620  225.0070 C   0  0  0  0  0  0  0  0  0  0  0  0
  139.2020   67.7670  225.3010 O   0  0  0  0  0  0  0  0  0  0  0  0
  139.2930   69.4530  223.7480 N   0  0  0  0  0  0  0  0  0  0  0  0
  138.7620   68.6410  222.7050 C   0  0  0  0  0  0  0  0  0  0  0  0
  137.3000   68.6710  222.4830 C   0  0  0  0  0  0  0  0  0  0  0  0
  136.5180   69.2690  223.6010 C   0  0  0  0  0  0  0  0  0  0  0  0
  135.0570   68.8190  223.5670 C   0  0  0  0  0  0  0  0  0  0  0  0
  134.6220   68.7200  222.1450 C   0  0  0  0  0  0  0  0  0  0  0  0
  135.3590   67.6540  221.3650 C   0  0  0  0  0  0  0  0  0  0  0  0
  136.7210   67.3660  221.9780 C   0  0  0  0  0  0  0  0  0  0  0  0
  141.4810   74.3880  221.2650 C   0  0  0  0  0  0  0  0  0  0  0  0
  141.4580   75.7770  221.2850 C   0  0  0  0  0  0  0  0  0  0  0  0
  139.9860   79.3490  223.7210 C   0  0  0  0  0  0  0  0  0  0  0  0
  139.9100   80.6540  222.9530 C   0  0  0  0  0  0  0  0  0  0  0  0
  142.2058   82.6352  221.6989 H   0  0  0  0  0  0  0  0  0  0  0  0
  142.0769   80.9542  221.0791 H   0  0  0  0  0  0  0  0  0  0  0  0
  140.6344   82.0245  221.0791 H   0  0  0  0  0  0  0  0  0  0  0  0
  143.2322   80.8738  223.1694 H   0  0  0  0  0  0  0  0  0  0  0  0
  142.1427   80.3998  224.5603 H   0  0  0  0  0  0  0  0  0  0  0  0
  142.5030   79.0213  221.9089 H   0  0  0  0  0  0  0  0  0  0  0  0
  142.8853   78.4346  223.5976 H   0  0  0  0  0  0  0  0  0  0  0  0
  139.3696   78.2988  221.6788 H   0  0  0  0  0  0  0  0  0  0  0  0
  141.0523   78.2744  221.0259 H   0  0  0  0  0  0  0  0  0  0  0  0
  138.4914   76.1820  222.7874 H   0  0  0  0  0  0  0  0  0  0  0  0
  138.5435   73.7376  222.7516 H   0  0  0  0  0  0  0  0  0  0  0  0
  141.3532   71.6544  221.3232 H   0  0  0  0  0  0  0  0  0  0  0  0
  138.6131   71.2433  221.6507 H   0  0  0  0  0  0  0  0  0  0  0  0
  141.1925   72.8138  226.6346 H   0  0  0  0  0  0  0  0  0  0  0  0
  141.5254   71.8614  228.8717 H   0  0  0  0  0  0  0  0  0  0  0  0
  140.8846   69.4491  229.3225 H   0  0  0  0  0  0  0  0  0  0  0  0
  139.9383   68.1634  227.4366 H   0  0  0  0  0  0  0  0  0  0  0  0
  139.2426   68.9562  221.7671 H   0  0  0  0  0  0  0  0  0  0  0  0
  138.9723   67.6093  223.0233 H   0  0  0  0  0  0  0  0  0  0  0  0
  137.1806   69.3779  221.6488 H   0  0  0  0  0  0  0  0  0  0  0  0
  136.9656   68.9581  224.5565 H   0  0  0  0  0  0  0  0  0  0  0  0
  136.5444   70.3634  223.4937 H   0  0  0  0  0  0  0  0  0  0  0  0
  134.9605   67.8370  224.0531 H   0  0  0  0  0  0  0  0  0  0  0  0
  134.4279   69.5454  224.1023 H   0  0  0  0  0  0  0  0  0  0  0  0
  133.5472   68.4869  222.1244 H   0  0  0  0  0  0  0  0  0  0  0  0
  134.8468   69.6855  221.6683 H   0  0  0  0  0  0  0  0  0  0  0  0
  134.7618   66.7302  221.3676 H   0  0  0  0  0  0  0  0  0  0  0  0
  135.5093   68.0160  220.3372 H   0  0  0  0  0  0  0  0  0  0  0  0
  136.6109   66.6596  222.8140 H   0  0  0  0  0  0  0  0  0  0  0  0
  137.3888   66.9206  221.2259 H   0  0  0  0  0  0  0  0  0  0  0  0
  142.3528   73.8860  220.8199 H   0  0  0  0  0  0  0  0  0  0  0  0
  142.3017   76.3420  220.8620 H   0  0  0  0  0  0  0  0  0  0  0  0
  138.9833   78.8990  223.7666 H   0  0  0  0  0  0  0  0  0  0  0  0
  140.3594   79.5587  224.7342 H   0  0  0  0  0  0  0  0  0  0  0  0
  139.6020   80.4522  221.9165 H   0  0  0  0  0  0  0  0  0  0  0  0
  139.1752   81.3187  223.4307 H   0  0  0  0  0  0  0  0  0  0  0  0
  1  2  1  0
  2  3  1  0
  3  4  1  0
  4  5  1  0
  5  6  1  0
  6  7  1  0
  7  8  2  0
  8  9  1  0
  9 10  2  0
 10 11  1  0
 11 12  2  0
 12 13  1  0
 13 14  2  0
 14 15  1  0
 15 16  2  0
 16 17  1  0
 17 18  2  0
 18 19  1  0
 19 20  2  0
 20 21  1  0
 21 22  2  0
 21 23  1  0
 23 24  1  0
 24 25  1  0
 25 26  1  0
 26 27  1  0
 27 28  1  0
 28 29  1  0
 29 30  1  0
 10 31  1  0
 31 32  2  0
  5 33  1  0
 33 34  1  0
 34  2  1  0
 32  7  1  0
 23 13  1  0
 30 25  1  0
 20 15  1  0
  1 35  1  0
  1 36  1  0
  1 37  1  0
  3 38  1  0
  3 39  1  0
  4 40  1  0
  4 41  1  0
  6 42  1  0
  6 43  1  0
  8 44  1  0
  9 45  1  0
 11 46  1  0
 12 47  1  0
 16 48  1  0
 17 49  1  0
 18 50  1  0
 19 51  1  0
 24 52  1  0
 24 53  1  0
 25 54  1  0
 26 55  1  0
 26 56  1  0
 27 57  1  0
 27 58  1  0
 28 59  1  0
 28 60  1  0
 29 61  1  0
 29 62  1  0
 30 63  1  0
 30 64  1  0
 31 65  1  0
 32 66  1  0
 33 67  1  0
 33 68  1  0
 34 69  1  0
 34 70  1  0
M  END
>  <smiles>  (7) 
CN1CCN(Cc2ccc(/C=C/c3nc4ccccc4c(=O)n3CC3CCCCC3)cc2)CC1

>  <score_type>  (7) 
oracle

>  <origin>  (7) 
autodockgpu

>  <m_score__min__energy>  (7) 
-9.5099999999999998

>  <m_primary>  (7) 
energy

>  <rmsd>  (7) 
6.829686071122831

>  <m_score__min__rmsd>  (7) 
6.829686071122831

>  <meeko>  (7) 
{"free_energy": -9.38, "intermolecular_energy": -11.47, "internal_energy": -1.66, "cluster_size": 47, "cluster_id": 1, "rank_in_cluster": 8}

>  <energy>  (7) 
-9.44

>  <cluster_rmsd>  (7) 
1.23

>  <cluster>  (7) 
1

$$$$

     RDKit          3D

 70 74  0  0  0  0  0  0  0  0999 V2000
  140.0970   81.6350  221.9980 C   0  0  0  0  0  0  0  0  0  0  0  0
  141.1470   81.0780  222.8330 N   0  0  0  0  0  0  0  0  0  0  0  0
  142.1790   80.4920  221.9990 C   0  0  0  0  0  0  0  0  0  0  0  0
  141.8500   79.1150  221.5050 C   0  0  0  0  0  0  0  0  0  0  0  0
  141.3830   78.2180  222.5480 N   0  0  0  0  0  0  0  0  0  0  0  0
  140.1080   77.6400  222.2620 C   0  0  0  0  0  0  0  0  0  0  0  0
  140.2300   76.1930  222.0550 C   0  0  0  0  0  0  0  0  0  0  0  0
  141.3610   75.5530  221.5990 C   0  0  0  0  0  0  0  0  0  0  0  0
  141.4380   74.1880  221.4170 C   0  0  0  0  0  0  0  0  0  0  0  0
  140.3400   73.3670  221.6950 C   0  0  0  0  0  0  0  0  0  0  0  0
  140.4370   71.9280  221.4930 C   0  0  0  0  0  0  0  0  0  0  0  0
  139.5920   71.0490  221.9630 C   0  0  0  0  0  0  0  0  0  0  0  0
  139.7060   70.5380  223.3300 C   0  0  0  0  0  0  0  0  0  0  0  0
  140.2430   71.3790  224.2410 N   0  0  0  0  0  0  0  0  0  0  0  0
  140.4390   71.0420  225.5090 C   0  0  0  0  0  0  0  0  0  0  0  0
  140.9790   71.8600  226.4730 C   0  0  0  0  0  0  0  0  0  0  0  0
  141.1590   71.4610  227.7810 C   0  0  0  0  0  0  0  0  0  0  0  0
  140.7870   70.1720  228.1750 C   0  0  0  0  0  0  0  0  0  0  0  0
  140.2500   69.3780  227.1860 C   0  0  0  0  0  0  0  0  0  0  0  0
  140.0660   69.7610  225.8910 C   0  0  0  0  0  0  0  0  0  0  0  0
  139.5210   68.9110  224.9620 C   0  0  0  0  0  0  0  0  0  0  0  0
  139.2040   67.7560  225.3770 O   0  0  0  0  0  0  0  0  0  0  0  0
  139.3240   69.2720  223.6590 N   0  0  0  0  0  0  0  0  0  0  0  0
  138.7800   68.3670  222.7040 C   0  0  0  0  0  0  0  0  0  0  0  0
  137.3190   68.1350  222.7260 C   0  0  0  0  0  0  0  0  0  0  0  0
  136.7840   67.4560  221.5130 C   0  0  0  0  0  0  0  0  0  0  0  0
  135.2840   67.7030  221.3470 C   0  0  0  0  0  0  0  0  0  0  0  0
  134.6520   67.7170  222.6970 C   0  0  0  0  0  0  0  0  0  0  0  0
  135.1240   68.8590  223.5680 C   0  0  0  0  0  0  0  0  0  0  0  0
  136.5040   69.3410  223.1460 C   0  0  0  0  0  0  0  0  0  0  0  0
  139.2130   74.0040  222.1490 C   0  0  0  0  0  0  0  0  0  0  0  0
  139.1360   75.3790  222.3310 C   0  0  0  0  0  0  0  0  0  0  0  0
  141.4300   78.8900  223.8220 C   0  0  0  0  0  0  0  0  0  0  0  0
  140.5940   80.1550  223.7970 C   0  0  0  0  0  0  0  0  0  0  0  0
  139.3053   82.0550  222.6358 H   0  0  0  0  0  0  0  0  0  0  0  0
  140.5162   82.4293  221.3629 H   0  0  0  0  0  0  0  0  0  0  0  0
  139.6744   80.8425  221.3629 H   0  0  0  0  0  0  0  0  0  0  0  0
  142.3328   81.1453  221.1275 H   0  0  0  0  0  0  0  0  0  0  0  0
  143.0808   80.4013  222.6223 H   0  0  0  0  0  0  0  0  0  0  0  0
  141.0634   79.1987  220.7407 H   0  0  0  0  0  0  0  0  0  0  0  0
  142.7800   78.6860  221.1038 H   0  0  0  0  0  0  0  0  0  0  0  0
  139.4286   77.8281  223.1064 H   0  0  0  0  0  0  0  0  0  0  0  0
  139.7104   78.0966  221.3436 H   0  0  0  0  0  0  0  0  0  0  0  0
  142.2479   76.1613  221.3682 H   0  0  0  0  0  0  0  0  0  0  0  0
  142.3730   73.7401  221.0493 H   0  0  0  0  0  0  0  0  0  0  0  0
  141.2847   71.5531  220.9007 H   0  0  0  0  0  0  0  0  0  0  0  0
  138.7783   70.6856  221.3182 H   0  0  0  0  0  0  0  0  0  0  0  0
  141.2812   72.8787  226.1884 H   0  0  0  0  0  0  0  0  0  0  0  0
  141.5948   72.1563  228.5136 H   0  0  0  0  0  0  0  0  0  0  0  0
  140.9149   69.8153  229.2077 H   0  0  0  0  0  0  0  0  0  0  0  0
  139.9466   68.3574  227.4622 H   0  0  0  0  0  0  0  0  0  0  0  0
  139.0360   68.7510  221.7055 H   0  0  0  0  0  0  0  0  0  0  0  0
  139.2186   67.3927  222.9653 H   0  0  0  0  0  0  0  0  0  0  0  0
  137.1862   67.4043  223.5375 H   0  0  0  0  0  0  0  0  0  0  0  0
  137.3097   67.8411  220.6268 H   0  0  0  0  0  0  0  0  0  0  0  0
  136.9449   66.3736  221.6247 H   0  0  0  0  0  0  0  0  0  0  0  0
  135.1205   68.6712  220.8512 H   0  0  0  0  0  0  0  0  0  0  0  0
  134.8381   66.9078  220.7316 H   0  0  0  0  0  0  0  0  0  0  0  0
  133.5625   67.8014  222.5713 H   0  0  0  0  0  0  0  0  0  0  0  0
  134.9408   66.7828  223.2009 H   0  0  0  0  0  0  0  0  0  0  0  0
  134.4116   69.6928  223.4831 H   0  0  0  0  0  0  0  0  0  0  0  0
  135.1830   68.5024  224.6069 H   0  0  0  0  0  0  0  0  0  0  0  0
  136.4121   70.0405  222.3020 H   0  0  0  0  0  0  0  0  0  0  0  0
  136.9968   69.8603  223.9812 H   0  0  0  0  0  0  0  0  0  0  0  0
  138.3262   73.3957  222.3804 H   0  0  0  0  0  0  0  0  0  0  0  0
  138.2011   75.8285  222.6968 H   0  0  0  0  0  0  0  0  0  0  0  0
  141.0406   78.2161  224.5993 H   0  0  0  0  0  0  0  0  0  0  0  0
  142.4737   79.1624  224.0377 H   0  0  0  0  0  0  0  0  0  0  0  0
  139.5603   79.9060  223.5152 H   0  0  0  0  0  0  0  0  0  0  0  0
  140.6002   80.6187  224.7945 H   0  0  0  0  0  0  0  0  0  0  0  0
  1  2  1  0
  2  3  1  0
  3  4  1  0
  4  5  1  0
  5  6  1  0
  6  7  1  0
  7  8  2  0
  8  9  1  0
  9 10  2  0
 10 11  1  0
 11 12  2  0
 12 13  1  0
 13 14  2  0
 14 15  1  0
 15 16  2  0
 16 17  1  0
 17 18  2  0
 18 19  1  0
 19 20  2  0
 20 21  1  0
 21 22  2  0
 21 23  1  0
 23 24  1  0
 24 25  1  0
 25 26  1  0
 26 27  1  0
 27 28  1  0
 28 29  1  0
 29 30  1  0
 10 31  1  0
 31 32  2  0
  5 33  1  0
 33 34  1  0
 34  2  1  0
 32  7  1  0
 23 13  1  0
 30 25  1  0
 20 15  1  0
  1 35  1  0
  1 36  1  0
  1 37  1  0
  3 38  1  0
  3 39  1  0
  4 40  1  0
  4 41  1  0
  6 42  1  0
  6 43  1  0
  8 44  1  0
  9 45  1  0
 11 46  1  0
 12 47  1  0
 16 48  1  0
 17 49  1  0
 18 50  1  0
 19 51  1  0
 24 52  1  0
 24 53  1  0
 25 54  1  0
 26 55  1  0
 26 56  1  0
 27 57  1  0
 27 58  1  0
 28 59  1  0
 28 60  1  0
 29 61  1  0
 29 62  1  0
 30 63  1  0
 30 64  1  0
 31 65  1  0
 32 66  1  0
 33 67  1  0
 33 68  1  0
 34 69  1  0
 34 70  1  0
M  END
>  <smiles>  (8) 
CN1CCN(Cc2ccc(/C=C/c3nc4ccccc4c(=O)n3CC3CCCCC3)cc2)CC1

>  <score_type>  (8) 
oracle

>  <origin>  (8) 
autodockgpu

>  <m_score__min__energy>  (8) 
-9.5099999999999998

>  <m_primary>  (8) 
energy

>  <rmsd>  (8) 
6.654167206830929

>  <m_score__min__rmsd>  (8) 
6.654167206830929

>  <meeko>  (8) 
{"free_energy": -9.04, "intermolecular_energy": -11.13, "internal_energy": -1.76, "cluster_size": 47, "cluster_id": 1, "rank_in_cluster": 37}

>  <energy>  (8) 
-9.38

>  <cluster_rmsd>  (8) 
0.46

>  <cluster>  (8) 
1

$$$$

     RDKit          3D

 70 74  0  0  0  0  0  0  0  0999 V2000
  141.4350   82.0570  221.9720 C   0  0  0  0  0  0  0  0  0  0  0  0
  141.2770   81.3700  223.2420 N   0  0  0  0  0  0  0  0  0  0  0  0
  142.5160   80.7020  223.5950 C   0  0  0  0  0  0  0  0  0  0  0  0
  142.7080   79.3810  222.9120 C   0  0  0  0  0  0  0  0  0  0  0  0
  141.5490   78.5100  222.9910 N   0  0  0  0  0  0  0  0  0  0  0  0
  141.0830   78.0770  221.7110 C   0  0  0  0  0  0  0  0  0  0  0  0
  140.6410   76.6800  221.7670 C   0  0  0  0  0  0  0  0  0  0  0  0
  141.4010   75.5940  221.3930 C   0  0  0  0  0  0  0  0  0  0  0  0
  140.9490   74.2930  221.4610 C   0  0  0  0  0  0  0  0  0  0  0  0
  139.6620   74.0060  221.9260 C   0  0  0  0  0  0  0  0  0  0  0  0
  139.1990   72.6280  221.9870 C   0  0  0  0  0  0  0  0  0  0  0  0
  139.9620   71.5920  222.2210 C   0  0  0  0  0  0  0  0  0  0  0  0
  139.9570   70.9210  223.5220 C   0  0  0  0  0  0  0  0  0  0  0  0
  140.4710   71.6190  224.5590 N   0  0  0  0  0  0  0  0  0  0  0  0
  140.5620   71.1270  225.7870 C   0  0  0  0  0  0  0  0  0  0  0  0
  141.0740   71.7970  226.8740 C   0  0  0  0  0  0  0  0  0  0  0  0
  141.1440   71.2400  228.1330 C   0  0  0  0  0  0  0  0  0  0  0  0
  140.6840   69.9360  228.3470 C   0  0  0  0  0  0  0  0  0  0  0  0
  140.1790   69.2940  227.2390 C   0  0  0  0  0  0  0  0  0  0  0  0
  140.1030   69.8340  225.9890 C   0  0  0  0  0  0  0  0  0  0  0  0
  139.5830   69.1280  224.9330 C   0  0  0  0  0  0  0  0  0  0  0  0
  139.1840   67.9530  225.1870 O   0  0  0  0  0  0  0  0  0  0  0  0
  139.4940   69.6490  223.6730 N   0  0  0  0  0  0  0  0  0  0  0  0
  138.9730   68.8920  222.5850 C   0  0  0  0  0  0  0  0  0  0  0  0
  137.5050   68.8610  222.4040 C   0  0  0  0  0  0  0  0  0  0  0  0
  137.0350   69.3870  221.0920 C   0  0  0  0  0  0  0  0  0  0  0  0
  135.5670   69.8120  221.1510 C   0  0  0  0  0  0  0  0  0  0  0  0
  134.8320   68.8610  222.0310 C   0  0  0  0  0  0  0  0  0  0  0  0
  135.2900   68.9000  223.4720 C   0  0  0  0  0  0  0  0  0  0  0  0
  136.7220   69.4030  223.5810 C   0  0  0  0  0  0  0  0  0  0  0  0
  138.9030   75.0880  222.2990 C   0  0  0  0  0  0  0  0  0  0  0  0
  139.3590   76.3980  222.2300 C   0  0  0  0  0  0  0  0  0  0  0  0
  140.5230   79.1390  223.7860 C   0  0  0  0  0  0  0  0  0  0  0  0
  140.1370   80.4840  223.2040 C   0  0  0  0  0  0  0  0  0  0  0  0
  141.6781   83.1141  222.1547 H   0  0  0  0  0  0  0  0  0  0  0  0
  142.2486   81.5873  221.3997 H   0  0  0  0  0  0  0  0  0  0  0  0
  140.4980   81.9899  221.3997 H   0  0  0  0  0  0  0  0  0  0  0  0
  143.3545   81.3591  223.3208 H   0  0  0  0  0  0  0  0  0  0  0  0
  142.4744   80.5006  224.6756 H   0  0  0  0  0  0  0  0  0  0  0  0
  142.9307   79.5676  221.8511 H   0  0  0  0  0  0  0  0  0  0  0  0
  143.5320   78.8679  223.4295 H   0  0  0  0  0  0  0  0  0  0  0  0
  140.2393   78.7107  221.4003 H   0  0  0  0  0  0  0  0  0  0  0  0
  141.9076   78.1588  220.9876 H   0  0  0  0  0  0  0  0  0  0  0  0
  142.4205   75.7736  221.0211 H   0  0  0  0  0  0  0  0  0  0  0  0
  141.6088   73.4712  221.1457 H   0  0  0  0  0  0  0  0  0  0  0  0
  138.1268   72.4438  221.8241 H   0  0  0  0  0  0  0  0  0  0  0  0
  140.6210   71.2172  221.4240 H   0  0  0  0  0  0  0  0  0  0  0  0
  141.4441   72.8231  226.7321 H   0  0  0  0  0  0  0  0  0  0  0  0
  141.5613   71.8204  228.9690 H   0  0  0  0  0  0  0  0  0  0  0  0
  140.7233   69.4554  229.3357 H   0  0  0  0  0  0  0  0  0  0  0  0
  139.8084   68.2669  227.3720 H   0  0  0  0  0  0  0  0  0  0  0  0
  139.4084   69.3025  221.6620 H   0  0  0  0  0  0  0  0  0  0  0  0
  139.2445   67.8517  222.8175 H   0  0  0  0  0  0  0  0  0  0  0  0
  137.2708   67.7866  222.3762 H   0  0  0  0  0  0  0  0  0  0  0  0
  137.6481   70.2575  220.8157 H   0  0  0  0  0  0  0  0  0  0  0  0
  137.1322   68.5859  220.3445 H   0  0  0  0  0  0  0  0  0  0  0  0
  135.4921   70.8299  221.5611 H   0  0  0  0  0  0  0  0  0  0  0  0
  135.1320   69.8021  220.1407 H   0  0  0  0  0  0  0  0  0  0  0  0
  133.7615   69.1119  221.9984 H   0  0  0  0  0  0  0  0  0  0  0  0
  135.0330   67.8475  221.6536 H   0  0  0  0  0  0  0  0  0  0  0  0
  134.6296   69.5715  224.0403 H   0  0  0  0  0  0  0  0  0  0  0  0
  135.2477   67.8788  223.8786 H   0  0  0  0  0  0  0  0  0  0  0  0
  136.7329   70.5028  223.5607 H   0  0  0  0  0  0  0  0  0  0  0  0
  137.1727   69.0642  224.5255 H   0  0  0  0  0  0  0  0  0  0  0  0
  137.8835   74.9082  222.6708 H   0  0  0  0  0  0  0  0  0  0  0  0
  138.7004   77.2210  222.5444 H   0  0  0  0  0  0  0  0  0  0  0  0
  139.6361   78.4887  223.8094 H   0  0  0  0  0  0  0  0  0  0  0  0
  140.9121   79.2945  224.8031 H   0  0  0  0  0  0  0  0  0  0  0  0
  139.8095   80.3524  222.1622 H   0  0  0  0  0  0  0  0  0  0  0  0
  139.3161   80.9171  223.7944 H   0  0  0  0  0  0  0  0  0  0  0  0
  1  2  1  0
  2  3  1  0
  3  4  1  0
  4  5  1  0
  5  6  1  0
  6  7  1  0
  7  8  2  0
  8  9  1  0
  9 10  2  0
 10 11  1  0
 11 12  2  0
 12 13  1  0
 13 14  2  0
 14 15  1  0
 15 16  2  0
 16 17  1  0
 17 18  2  0
 18 19  1  0
 19 20  2  0
 20 21  1  0
 21 22  2  0
 21 23  1  0
 23 24  1  0
 24 25  1  0
 25 26  1  0
 26 27  1  0
 27 28  1  0
 28 29  1  0
 29 30  1  0
 10 31  1  0
 31 32  2  0
  5 33  1  0
 33 34  1  0
 34  2  1  0
 32  7  1  0
 23 13  1  0
 30 25  1  0
 20 15  1  0
  1 35  1  0
  1 36  1  0
  1 37  1  0
  3 38  1  0
  3 39  1  0
  4 40  1  0
  4 41  1  0
  6 42  1  0
  6 43  1  0
  8 44  1  0
  9 45  1  0
 11 46  1  0
 12 47  1  0
 16 48  1  0
 17 49  1  0
 18 50  1  0
 19 51  1  0
 24 52  1  0
 24 53  1  0
 25 54  1  0
 26 55  1  0
 26 56  1  0
 27 57  1  0
 27 58  1  0
 28 59  1  0
 28 60  1  0
 29 61  1  0
 29 62  1  0
 30 63  1  0
 30 64  1  0
 31 65  1  0
 32 66  1  0
 33 67  1  0
 33 68  1  0
 34 69  1  0
 34 70  1  0
M  END
>  <smiles>  (9) 
CN1CCN(Cc2ccc(/C=C/c3nc4ccccc4c(=O)n3CC3CCCCC3)cc2)CC1

>  <score_type>  (9) 
oracle

>  <origin>  (9) 
autodockgpu

>  <m_score__min__energy>  (9) 
-9.5099999999999998

>  <m_primary>  (9) 
energy

>  <rmsd>  (9) 
6.594769330691205

>  <m_score__min__rmsd>  (9) 
6.594769330691205

>  <meeko>  (9) 
{"free_energy": -9.34, "intermolecular_energy": -11.43, "internal_energy": -1.77, "cluster_size": 47, "cluster_id": 1, "rank_in_cluster": 19}

>  <energy>  (9) 
-9.38

>  <cluster_rmsd>  (9) 
0.35

>  <cluster>  (9) 
1

$$$$

     RDKit          3D

 70 74  0  0  0  0  0  0  0  0999 V2000
  141.4330   82.0440  221.9470 C   0  0  0  0  0  0  0  0  0  0  0  0
  141.1480   81.4360  223.2360 N   0  0  0  0  0  0  0  0  0  0  0  0
  142.2790   80.6310  223.6590 C   0  0  0  0  0  0  0  0  0  0  0  0
  142.3210   79.2690  223.0320 C   0  0  0  0  0  0  0  0  0  0  0  0
  141.0570   78.5560  223.1010 N   0  0  0  0  0  0  0  0  0  0  0  0
  140.5800   78.1340  221.8220 C   0  0  0  0  0  0  0  0  0  0  0  0
  140.2200   76.7120  221.8490 C   0  0  0  0  0  0  0  0  0  0  0  0
  141.0900   75.6710  221.6130 C   0  0  0  0  0  0  0  0  0  0  0  0
  140.7140   74.3450  221.6470 C   0  0  0  0  0  0  0  0  0  0  0  0
  139.3920   73.9840  221.9310 C   0  0  0  0  0  0  0  0  0  0  0  0
  139.0110   72.5800  221.9590 C   0  0  0  0  0  0  0  0  0  0  0  0
  139.8220   71.5890  222.2200 C   0  0  0  0  0  0  0  0  0  0  0  0
  139.8410   70.9450  223.5340 C   0  0  0  0  0  0  0  0  0  0  0  0
  140.3750   71.6630  224.5460 N   0  0  0  0  0  0  0  0  0  0  0  0
  140.4890   71.1960  225.7820 C   0  0  0  0  0  0  0  0  0  0  0  0
  141.0230   71.8860  226.8450 C   0  0  0  0  0  0  0  0  0  0  0  0
  141.1160   71.3550  228.1140 C   0  0  0  0  0  0  0  0  0  0  0  0
  140.6570   70.0570  228.3630 C   0  0  0  0  0  0  0  0  0  0  0  0
  140.1290   69.3940  227.2780 C   0  0  0  0  0  0  0  0  0  0  0  0
  140.0310   69.9080  226.0190 C   0  0  0  0  0  0  0  0  0  0  0  0
  139.4890   69.1820  224.9890 C   0  0  0  0  0  0  0  0  0  0  0  0
  139.0920   68.0140  225.2740 O   0  0  0  0  0  0  0  0  0  0  0  0
  139.3770   69.6770  223.7200 N   0  0  0  0  0  0  0  0  0  0  0  0
  138.8340   68.9000  222.6580 C   0  0  0  0  0  0  0  0  0  0  0  0
  137.3870   68.5940  222.6940 C   0  0  0  0  0  0  0  0  0  0  0  0
  136.7950   68.2540  221.3700 C   0  0  0  0  0  0  0  0  0  0  0  0
  135.2800   68.4570  221.3630 C   0  0  0  0  0  0  0  0  0  0  0  0
  134.7410   68.0600  222.6950 C   0  0  0  0  0  0  0  0  0  0  0  0
  135.2310   68.9370  223.8260 C   0  0  0  0  0  0  0  0  0  0  0  0
  136.5610   69.5900  223.4810 C   0  0  0  0  0  0  0  0  0  0  0  0
  138.5240   75.0210  222.1670 C   0  0  0  0  0  0  0  0  0  0  0  0
  138.9050   76.3570  222.1310 C   0  0  0  0  0  0  0  0  0  0  0  0
  140.0960   79.3430  223.8340 C   0  0  0  0  0  0  0  0  0  0  0  0
  139.9050   80.7020  223.1890 C   0  0  0  0  0  0  0  0  0  0  0  0
  141.8953   83.0302  222.1010 H   0  0  0  0  0  0  0  0  0  0  0  0
  142.1229   81.3998  221.3822 H   0  0  0  0  0  0  0  0  0  0  0  0
  140.4965   82.1622  221.3822 H   0  0  0  0  0  0  0  0  0  0  0  0
  143.2034   81.1643  223.3921 H   0  0  0  0  0  0  0  0  0  0  0  0
  142.1776   80.4812  224.7440 H   0  0  0  0  0  0  0  0  0  0  0  0
  142.5988   79.3821  221.9737 H   0  0  0  0  0  0  0  0  0  0  0  0
  143.0558   78.6769  223.5973 H   0  0  0  0  0  0  0  0  0  0  0  0
  139.6930   78.7265  221.5534 H   0  0  0  0  0  0  0  0  0  0  0  0
  141.3770   78.2842  221.0789 H   0  0  0  0  0  0  0  0  0  0  0  0
  142.1394   75.9098  221.3856 H   0  0  0  0  0  0  0  0  0  0  0  0
  141.4611   73.5624  221.4488 H   0  0  0  0  0  0  0  0  0  0  0  0
  137.9606   72.3340  221.7442 H   0  0  0  0  0  0  0  0  0  0  0  0
  140.5049   71.2313  221.4353 H   0  0  0  0  0  0  0  0  0  0  0  0
  141.3927   72.9080  226.6751 H   0  0  0  0  0  0  0  0  0  0  0  0
  141.5506   71.9513  228.9298 H   0  0  0  0  0  0  0  0  0  0  0  0
  140.7142   69.5964  229.3603 H   0  0  0  0  0  0  0  0  0  0  0  0
  139.7577   68.3712  227.4393 H   0  0  0  0  0  0  0  0  0  0  0  0
  139.0310   69.4423  221.7214 H   0  0  0  0  0  0  0  0  0  0  0  0
  139.3256   67.9206  222.7534 H   0  0  0  0  0  0  0  0  0  0  0  0
  137.3352   67.6595  223.2719 H   0  0  0  0  0  0  0  0  0  0  0  0
  137.2453   68.8991  220.6012 H   0  0  0  0  0  0  0  0  0  0  0  0
  137.0013   67.1936  221.1626 H   0  0  0  0  0  0  0  0  0  0  0  0
  135.0487   69.5149  221.1699 H   0  0  0  0  0  0  0  0  0  0  0  0
  134.8221   67.8425  220.5739 H   0  0  0  0  0  0  0  0  0  0  0  0
  133.6432   68.1185  222.6586 H   0  0  0  0  0  0  0  0  0  0  0  0
  135.0959   67.0388  222.8982 H   0  0  0  0  0  0  0  0  0  0  0  0
  134.4855   69.7223  224.0196 H   0  0  0  0  0  0  0  0  0  0  0  0
  135.3732   68.3081  224.7172 H   0  0  0  0  0  0  0  0  0  0  0  0
  136.3872   70.4912  222.8747 H   0  0  0  0  0  0  0  0  0  0  0  0
  137.0910   69.8813  224.3998 H   0  0  0  0  0  0  0  0  0  0  0  0
  137.4748   74.7827  222.3960 H   0  0  0  0  0  0  0  0  0  0  0  0
  138.1593   77.1414  222.3274 H   0  0  0  0  0  0  0  0  0  0  0  0
  139.1324   78.8127  223.8487 H   0  0  0  0  0  0  0  0  0  0  0  0
  140.4696   79.4894  224.8582 H   0  0  0  0  0  0  0  0  0  0  0  0
  139.5961   80.5706  222.1415 H   0  0  0  0  0  0  0  0  0  0  0  0
  139.1287   81.2602  223.7328 H   0  0  0  0  0  0  0  0  0  0  0  0
  1  2  1  0
  2  3  1  0
  3  4  1  0
  4  5  1  0
  5  6  1  0
  6  7  1  0
  7  8  2  0
  8  9  1  0
  9 10  2  0
 10 11  1  0
 11 12  2  0
 12 13  1  0
 13 14  2  0
 14 15  1  0
 15 16  2  0
 16 17  1  0
 17 18  2  0
 18 19  1  0
 19 20  2  0
 20 21  1  0
 21 22  2  0
 21 23  1  0
 23 24  1  0
 24 25  1  0
 25 26  1  0
 26 27  1  0
 27 28  1  0
 28 29  1  0
 29 30  1  0
 10 31  1  0
 31 32  2  0
  5 33  1  0
 33 34  1  0
 34  2  1  0
 32  7  1  0
 23 13  1  0
 30 25  1  0
 20 15  1  0
  1 35  1  0
  1 36  1  0
  1 37  1  0
  3 38  1  0
  3 39  1  0
  4 40  1  0
  4 41  1  0
  6 42  1  0
  6 43  1  0
  8 44  1  0
  9 45  1  0
 11 46  1  0
 12 47  1  0
 16 48  1  0
 17 49  1  0
 18 50  1  0
 19 51  1  0
 24 52  1  0
 24 53  1  0
 25 54  1  0
 26 55  1  0
 26 56  1  0
 27 57  1  0
 27 58  1  0
 28 59  1  0
 28 60  1  0
 29 61  1  0
 29 62  1  0
 30 63  1  0
 30 64  1  0
 31 65  1  0
 32 66  1  0
 33 67  1  0
 33 68  1  0
 34 69  1  0
 34 70  1  0
M  END
>  <smiles>  (10) 
CN1CCN(Cc2ccc(/C=C/c3nc4ccccc4c(=O)n3CC3CCCCC3)cc2)CC1

>  <score_type>  (10) 
oracle

>  <origin>  (10) 
autodockgpu

>  <m_score__min__energy>  (10) 
-9.5099999999999998

>  <m_primary>  (10) 
energy

>  <rmsd>  (10) 
6.587217575895822

>  <m_score__min__rmsd>  (10) 
6.587217575895822

>  <meeko>  (10) 
{"free_energy": -9.38, "intermolecular_energy": -11.46, "internal_energy": -1.74, "cluster_size": 47, "cluster_id": 1, "rank_in_cluster": 10}

>  <energy>  (10) 
-9.38

>  <cluster_rmsd>  (10) 
0.42

>  <cluster>  (10) 
1

$$$$

     RDKit          3D

 70 74  0  0  0  0  0  0  0  0999 V2000
  140.3550   81.7660  221.9720 C   0  0  0  0  0  0  0  0  0  0  0  0
  141.3530   81.0920  222.7860 N   0  0  0  0  0  0  0  0  0  0  0  0
  142.3040   80.4090  221.9290 C   0  0  0  0  0  0  0  0  0  0  0  0
  141.8230   79.0790  221.4290 C   0  0  0  0  0  0  0  0  0  0  0  0
  141.2800   78.2260  222.4710 N   0  0  0  0  0  0  0  0  0  0  0  0
  139.9470   77.7900  222.2010 C   0  0  0  0  0  0  0  0  0  0  0  0
  139.9020   76.3330  222.0390 C   0  0  0  0  0  0  0  0  0  0  0  0
  138.7660   75.5600  222.1360 C   0  0  0  0  0  0  0  0  0  0  0  0
  138.7650   74.1910  221.9770 C   0  0  0  0  0  0  0  0  0  0  0  0
  139.9500   73.5020  221.7000 C   0  0  0  0  0  0  0  0  0  0  0  0
  139.9310   72.0550  221.5380 C   0  0  0  0  0  0  0  0  0  0  0  0
  139.0730   71.2500  222.1060 C   0  0  0  0  0  0  0  0  0  0  0  0
  139.3310   70.6710  223.4260 C   0  0  0  0  0  0  0  0  0  0  0  0
  139.8900   71.4920  224.3420 N   0  0  0  0  0  0  0  0  0  0  0  0
  140.2100   71.0970  225.5670 C   0  0  0  0  0  0  0  0  0  0  0  0
  140.7780   71.8930  226.5340 C   0  0  0  0  0  0  0  0  0  0  0  0
  141.0900   71.4330  227.7960 C   0  0  0  0  0  0  0  0  0  0  0  0
  140.8300   70.1010  228.1380 C   0  0  0  0  0  0  0  0  0  0  0  0
  140.2620   69.3320  227.1470 C   0  0  0  0  0  0  0  0  0  0  0  0
  139.9480   69.7750  225.8970 C   0  0  0  0  0  0  0  0  0  0  0  0
  139.3810   68.9450  224.9630 C   0  0  0  0  0  0  0  0  0  0  0  0
  139.1700   67.7510  225.3290 O   0  0  0  0  0  0  0  0  0  0  0  0
  139.0550   69.3660  223.7050 N   0  0  0  0  0  0  0  0  0  0  0  0
  138.4890   68.4830  222.7420 C   0  0  0  0  0  0  0  0  0  0  0  0
  137.0350   68.5780  222.4880 C   0  0  0  0  0  0  0  0  0  0  0  0
  136.2540   69.1940  223.5970 C   0  0  0  0  0  0  0  0  0  0  0  0
  134.7760   68.8070  223.5260 C   0  0  0  0  0  0  0  0  0  0  0  0
  134.3700   68.7450  222.0930 C   0  0  0  0  0  0  0  0  0  0  0  0
  135.0780   67.6580  221.3160 C   0  0  0  0  0  0  0  0  0  0  0  0
  136.4130   67.3040  221.9540 C   0  0  0  0  0  0  0  0  0  0  0  0
  141.0830   74.2710  221.6020 C   0  0  0  0  0  0  0  0  0  0  0  0
  141.0830   75.6500  221.7640 C   0  0  0  0  0  0  0  0  0  0  0  0
  141.4180   78.8770  223.7510 C   0  0  0  0  0  0  0  0  0  0  0  0
  140.7200   80.2230  223.7500 C   0  0  0  0  0  0  0  0  0  0  0  0
  139.6220   82.2611  222.6259 H   0  0  0  0  0  0  0  0  0  0  0  0
  140.8466   82.5178  221.3371 H   0  0  0  0  0  0  0  0  0  0  0  0
  139.8412   81.0292  221.3371 H   0  0  0  0  0  0  0  0  0  0  0  0
  142.5117   81.0514  221.0605 H   0  0  0  0  0  0  0  0  0  0  0  0
  143.2014   80.2174  222.5356 H   0  0  0  0  0  0  0  0  0  0  0  0
  141.0379   79.2533  220.6785 H   0  0  0  0  0  0  0  0  0  0  0  0
  142.6962   78.5581  221.0093 H   0  0  0  0  0  0  0  0  0  0  0  0
  139.2953   78.0807  223.0381 H   0  0  0  0  0  0  0  0  0  0  0  0
  139.6025   78.2608  221.2684 H   0  0  0  0  0  0  0  0  0  0  0  0
  137.8107   76.0610  222.3514 H   0  0  0  0  0  0  0  0  0  0  0  0
  137.8211   73.6338  222.0691 H   0  0  0  0  0  0  0  0  0  0  0  0
  140.6967   71.6059  220.8884 H   0  0  0  0  0  0  0  0  0  0  0  0
  138.1380   71.0022  221.5822 H   0  0  0  0  0  0  0  0  0  0  0  0
  140.9931   72.9438  226.2898 H   0  0  0  0  0  0  0  0  0  0  0  0
  141.5428   72.1123  228.5332 H   0  0  0  0  0  0  0  0  0  0  0  0
  141.0641   69.6950  229.1332 H   0  0  0  0  0  0  0  0  0  0  0  0
  140.0451   68.2796  227.3823 H   0  0  0  0  0  0  0  0  0  0  0  0
  139.0015   68.6680  221.7864 H   0  0  0  0  0  0  0  0  0  0  0  0
  138.6298   67.4797  223.1705 H   0  0  0  0  0  0  0  0  0  0  0  0
  136.9642   69.2996  221.6608 H   0  0  0  0  0  0  0  0  0  0  0  0
  136.6670   68.8521  224.5575 H   0  0  0  0  0  0  0  0  0  0  0  0
  136.3286   70.2876  223.5049 H   0  0  0  0  0  0  0  0  0  0  0  0
  134.6272   67.8239  223.9964 H   0  0  0  0  0  0  0  0  0  0  0  0
  134.1660   69.5520  224.0580 H   0  0  0  0  0  0  0  0  0  0  0  0
  133.2869   68.5592  222.0450 H   0  0  0  0  0  0  0  0  0  0  0  0
  134.6471   69.7057  221.6345 H   0  0  0  0  0  0  0  0  0  0  0  0
  134.4420   66.7608  221.2940 H   0  0  0  0  0  0  0  0  0  0  0  0
  135.2665   68.0258  220.2966 H   0  0  0  0  0  0  0  0  0  0  0  0
  136.2549   66.5929  222.7782 H   0  0  0  0  0  0  0  0  0  0  0  0
  137.0777   66.8390  221.2111 H   0  0  0  0  0  0  0  0  0  0  0  0
  142.0378   73.7700  221.3844 H   0  0  0  0  0  0  0  0  0  0  0  0
  142.0264   76.2085  221.6741 H   0  0  0  0  0  0  0  0  0  0  0  0
  140.9718   78.2402  224.5291 H   0  0  0  0  0  0  0  0  0  0  0  0
  142.4878   79.0354  223.9519 H   0  0  0  0  0  0  0  0  0  0  0  0
  139.6618   80.0872  223.4822 H   0  0  0  0  0  0  0  0  0  0  0  0
  140.7896   80.6732  224.7512 H   0  0  0  0  0  0  0  0  0  0  0  0
  1  2  1  0
  2  3  1  0
  3  4  1  0
  4  5  1  0
  5  6  1  0
  6  7  1  0
  7  8  2  0
  8  9  1  0
  9 10  2  0
 10 11  1  0
 11 12  2  0
 12 13  1  0
 13 14  2  0
 14 15  1  0
 15 16  2  0
 16 17  1  0
 17 18  2  0
 18 19  1  0
 19 20  2  0
 20 21  1  0
 21 22  2  0
 21 23  1  0
 23 24  1  0
 24 25  1  0
 25 26  1  0
 26 27  1  0
 27 28  1  0
 28 29  1  0
 29 30  1  0
 10 31  1  0
 31 32  2  0
  5 33  1  0
 33 34  1  0
 34  2  1  0
 32  7  1  0
 23 13  1  0
 30 25  1  0
 20 15  1  0
  1 35  1  0
  1 36  1  0
  1 37  1  0
  3 38  1  0
  3 39  1  0
  4 40  1  0
  4 41  1  0
  6 42  1  0
  6 43  1  0
  8 44  1  0
  9 45  1  0
 11 46  1  0
 12 47  1  0
 16 48  1  0
 17 49  1  0
 18 50  1  0
 19 51  1  0
 24 52  1  0
 24 53  1  0
 25 54  1  0
 26 55  1  0
 26 56  1  0
 27 57  1  0
 27 58  1  0
 28 59  1  0
 28 60  1  0
 29 61  1  0
 29 62  1  0
 30 63  1  0
 30 64  1  0
 31 65  1  0
 32 66  1  0
 33 67  1  0
 33 68  1  0
 34 69  1  0
 34 70  1  0
M  END
>  <smiles>  (11) 
CN1CCN(Cc2ccc(/C=C/c3nc4ccccc4c(=O)n3CC3CCCCC3)cc2)CC1

>  <score_type>  (11) 
oracle

>  <origin>  (11) 
autodockgpu

>  <m_score__min__energy>  (11) 
-9.5099999999999998

>  <m_primary>  (11) 
energy

>  <rmsd>  (11) 
6.828867713698685

>  <m_score__min__rmsd>  (11) 
6.828867713698685

>  <meeko>  (11) 
{"free_energy": -9.09, "intermolecular_energy": -11.18, "internal_energy": -1.72, "cluster_size": 47, "cluster_id": 1, "rank_in_cluster": 33}

>  <energy>  (11) 
-9.37

>  <cluster_rmsd>  (11) 
0.52

>  <cluster>  (11) 
1

$$$$

     RDKit          3D

 70 74  0  0  0  0  0  0  0  0999 V2000
  140.6330   81.7690  222.2650 C   0  0  0  0  0  0  0  0  0  0  0  0
  141.6030   80.9250  222.9420 N   0  0  0  0  0  0  0  0  0  0  0  0
  142.4450   80.2640  221.9630 C   0  0  0  0  0  0  0  0  0  0  0  0
  141.8210   79.0450  221.3500 C   0  0  0  0  0  0  0  0  0  0  0  0
  141.2530   78.1290  222.3240 N   0  0  0  0  0  0  0  0  0  0  0  0
  139.8740   77.8420  222.0860 C   0  0  0  0  0  0  0  0  0  0  0  0
  139.6520   76.3930  222.0230 C   0  0  0  0  0  0  0  0  0  0  0  0
  140.6450   75.4440  221.9250 C   0  0  0  0  0  0  0  0  0  0  0  0
  140.3950   74.0890  221.8680 C   0  0  0  0  0  0  0  0  0  0  0  0
  139.0850   73.6010  221.9080 C   0  0  0  0  0  0  0  0  0  0  0  0
  138.8400   72.1680  221.8430 C   0  0  0  0  0  0  0  0  0  0  0  0
  139.7130   71.2440  222.1480 C   0  0  0  0  0  0  0  0  0  0  0  0
  139.7820   70.6760  223.4950 C   0  0  0  0  0  0  0  0  0  0  0  0
  140.3040   71.4710  224.4550 N   0  0  0  0  0  0  0  0  0  0  0  0
  140.4590   71.0790  225.7130 C   0  0  0  0  0  0  0  0  0  0  0  0
  140.9830   71.8490  226.7240 C   0  0  0  0  0  0  0  0  0  0  0  0
  141.1210   71.3940  228.0190 C   0  0  0  0  0  0  0  0  0  0  0  0
  140.7210   70.0950  228.3490 C   0  0  0  0  0  0  0  0  0  0  0  0
  140.2020   69.3500  227.3130 C   0  0  0  0  0  0  0  0  0  0  0  0
  140.0600   69.7890  226.0300 C   0  0  0  0  0  0  0  0  0  0  0  0
  139.5310   68.9850  225.0520 C   0  0  0  0  0  0  0  0  0  0  0  0
  139.1880   67.8190  225.4090 O   0  0  0  0  0  0  0  0  0  0  0  0
  139.3750   69.4030  223.7600 N   0  0  0  0  0  0  0  0  0  0  0  0
  138.8460   68.5460  222.7540 C   0  0  0  0  0  0  0  0  0  0  0  0
  137.3860   68.5730  222.5200 C   0  0  0  0  0  0  0  0  0  0  0  0
  136.9900   68.9490  221.1330 C   0  0  0  0  0  0  0  0  0  0  0  0
  135.5500   69.4590  221.0790 C   0  0  0  0  0  0  0  0  0  0  0  0
  134.7300   68.6720  222.0450 C   0  0  0  0  0  0  0  0  0  0  0  0
  135.1440   68.8730  223.4860 C   0  0  0  0  0  0  0  0  0  0  0  0
  136.5990   69.3050  223.5870 C   0  0  0  0  0  0  0  0  0  0  0  0
  138.0950   74.5460  222.0060 C   0  0  0  0  0  0  0  0  0  0  0  0
  138.3470   75.9110  222.0630 C   0  0  0  0  0  0  0  0  0  0  0  0
  141.5110   78.6170  223.6560 C   0  0  0  0  0  0  0  0  0  0  0  0
  140.9400   80.0100  223.8420 C   0  0  0  0  0  0  0  0  0  0  0  0
  140.0237   82.2991  223.0118 H   0  0  0  0  0  0  0  0  0  0  0  0
  141.1600   82.5010  221.6353 H   0  0  0  0  0  0  0  0  0  0  0  0
  139.9809   81.1458  221.6353 H   0  0  0  0  0  0  0  0  0  0  0  0
  142.6692   80.9802  221.1588 H   0  0  0  0  0  0  0  0  0  0  0  0
  143.3486   79.9285  222.4930 H   0  0  0  0  0  0  0  0  0  0  0  0
  141.0199   79.3694  220.6696 H   0  0  0  0  0  0  0  0  0  0  0  0
  142.6215   78.5023  220.8259 H   0  0  0  0  0  0  0  0  0  0  0  0
  139.2704   78.2651  222.9025 H   0  0  0  0  0  0  0  0  0  0  0  0
  139.5794   78.2883  221.1247 H   0  0  0  0  0  0  0  0  0  0  0  0
  141.6906   75.7840  221.8904 H   0  0  0  0  0  0  0  0  0  0  0  0
  141.2357   73.3839  221.7902 H   0  0  0  0  0  0  0  0  0  0  0  0
  137.8445   71.8372  221.5121 H   0  0  0  0  0  0  0  0  0  0  0  0
  140.4102   70.8860  221.3762 H   0  0  0  0  0  0  0  0  0  0  0  0
  141.3068   72.8739  226.4899 H   0  0  0  0  0  0  0  0  0  0  0  0
  141.5453   72.0523  228.7914 H   0  0  0  0  0  0  0  0  0  0  0  0
  140.8147   69.6944  229.3692 H   0  0  0  0  0  0  0  0  0  0  0  0
  139.8776   68.3233  227.5379 H   0  0  0  0  0  0  0  0  0  0  0  0
  139.3348   68.8134  221.8056 H   0  0  0  0  0  0  0  0  0  0  0  0
  139.0476   67.5296  223.1233 H   0  0  0  0  0  0  0  0  0  0  0  0
  137.0892   67.5185  222.6196 H   0  0  0  0  0  0  0  0  0  0  0  0
  137.6630   69.7404  220.7715 H   0  0  0  0  0  0  0  0  0  0  0  0
  137.0622   68.0529  220.4991 H   0  0  0  0  0  0  0  0  0  0  0  0
  135.5236   70.5242  221.3522 H   0  0  0  0  0  0  0  0  0  0  0  0
  135.1478   69.3420  220.0619 H   0  0  0  0  0  0  0  0  0  0  0  0
  133.6782   68.9759  221.9385 H   0  0  0  0  0  0  0  0  0  0  0  0
  134.8807   67.6083  221.8086 H   0  0  0  0  0  0  0  0  0  0  0  0
  134.5076   69.6487  223.9369 H   0  0  0  0  0  0  0  0  0  0  0  0
  135.0275   67.9171  224.0176 H   0  0  0  0  0  0  0  0  0  0  0  0
  136.6768   70.3907  223.4279 H   0  0  0  0  0  0  0  0  0  0  0  0
  136.9977   69.0658  224.5839 H   0  0  0  0  0  0  0  0  0  0  0  0
  137.0495   74.2058  222.0412 H   0  0  0  0  0  0  0  0  0  0  0  0
  137.5073   76.6174  222.1405 H   0  0  0  0  0  0  0  0  0  0  0  0
  141.0463   77.9369  224.3851 H   0  0  0  0  0  0  0  0  0  0  0  0
  142.5993   78.6597  223.8101 H   0  0  0  0  0  0  0  0  0  0  0  0
  139.8620   79.9969  223.6234 H   0  0  0  0  0  0  0  0  0  0  0  0
  141.0990   80.3364  224.8803 H   0  0  0  0  0  0  0  0  0  0  0  0
  1  2  1  0
  2  3  1  0
  3  4  1  0
  4  5  1  0
  5  6  1  0
  6  7  1  0
  7  8  2  0
  8  9  1  0
  9 10  2  0
 10 11  1  0
 11 12  2  0
 12 13  1  0
 13 14  2  0
 14 15  1  0
 15 16  2  0
 16 17  1  0
 17 18  2  0
 18 19  1  0
 19 20  2  0
 20 21  1  0
 21 22  2  0
 21 23  1  0
 23 24  1  0
 24 25  1  0
 25 26  1  0
 26 27  1  0
 27 28  1  0
 28 29  1  0
 29 30  1  0
 10 31  1  0
 31 32  2  0
  5 33  1  0
 33 34  1  0
 34  2  1  0
 32  7  1  0
 23 13  1  0
 30 25  1  0
 20 15  1  0
  1 35  1  0
  1 36  1  0
  1 37  1  0
  3 38  1  0
  3 39  1  0
  4 40  1  0
  4 41  1  0
  6 42  1  0
  6 43  1  0
  8 44  1  0
  9 45  1  0
 11 46  1  0
 12 47  1  0
 16 48  1  0
 17 49  1  0
 18 50  1  0
 19 51  1  0
 24 52  1  0
 24 53  1  0
 25 54  1  0
 26 55  1  0
 26 56  1  0
 27 57  1  0
 27 58  1  0
 28 59  1  0
 28 60  1  0
 29 61  1  0
 29 62  1  0
 30 63  1  0
 30 64  1  0
 31 65  1  0
 32 66  1  0
 33 67  1  0
 33 68  1  0
 34 69  1  0
 34 70  1  0
M  END
>  <smiles>  (12) 
CN1CCN(Cc2ccc(/C=C/c3nc4ccccc4c(=O)n3CC3CCCCC3)cc2)CC1

>  <score_type>  (12) 
oracle

>  <origin>  (12) 
autodockgpu

>  <m_score__min__energy>  (12) 
-9.5099999999999998

>  <m_primary>  (12) 
energy

>  <rmsd>  (12) 
6.5945538188178325

>  <m_score__min__rmsd>  (12) 
6.5945538188178325

>  <meeko>  (12) 
{"free_energy": -8.89, "intermolecular_energy": -10.98, "internal_energy": -1.9, "cluster_size": 47, "cluster_id": 1, "rank_in_cluster": 39}

>  <energy>  (12) 
-9.36

>  <cluster_rmsd>  (12) 
0.36

>  <cluster>  (12) 
1

$$$$

     RDKit          3D

 70 74  0  0  0  0  0  0  0  0999 V2000
  140.2750   81.7600  222.3880 C   0  0  0  0  0  0  0  0  0  0  0  0
  141.3590   80.9990  222.9860 N   0  0  0  0  0  0  0  0  0  0  0  0
  142.2600   80.5320  221.9490 C   0  0  0  0  0  0  0  0  0  0  0  0
  141.7860   79.2940  221.2470 C   0  0  0  0  0  0  0  0  0  0  0  0
  141.3610   78.2390  222.1500 N   0  0  0  0  0  0  0  0  0  0  0  0
  140.0260   77.7940  221.9050 C   0  0  0  0  0  0  0  0  0  0  0  0
  139.9680   76.3280  221.8700 C   0  0  0  0  0  0  0  0  0  0  0  0
  138.8210   75.5790  222.0090 C   0  0  0  0  0  0  0  0  0  0  0  0
  138.8060   74.2000  221.9710 C   0  0  0  0  0  0  0  0  0  0  0  0
  139.9890   73.4780  221.7830 C   0  0  0  0  0  0  0  0  0  0  0  0
  139.9570   72.0230  221.7490 C   0  0  0  0  0  0  0  0  0  0  0  0
  139.0710   71.2800  222.3580 C   0  0  0  0  0  0  0  0  0  0  0  0
  139.3460   70.6840  223.6650 C   0  0  0  0  0  0  0  0  0  0  0  0
  139.9310   71.4880  224.5800 N   0  0  0  0  0  0  0  0  0  0  0  0
  140.2690   71.0760  225.7950 C   0  0  0  0  0  0  0  0  0  0  0  0
  140.8620   71.8550  226.7600 C   0  0  0  0  0  0  0  0  0  0  0  0
  141.1920   71.3780  228.0110 C   0  0  0  0  0  0  0  0  0  0  0  0
  140.9250   70.0450  228.3430 C   0  0  0  0  0  0  0  0  0  0  0  0
  140.3310   69.2930  227.3540 C   0  0  0  0  0  0  0  0  0  0  0  0
  139.9990   69.7530  226.1150 C   0  0  0  0  0  0  0  0  0  0  0  0
  139.4060   68.9390  225.1830 C   0  0  0  0  0  0  0  0  0  0  0  0
  139.1900   67.7440  225.5390 O   0  0  0  0  0  0  0  0  0  0  0  0
  139.0620   69.3780  223.9350 N   0  0  0  0  0  0  0  0  0  0  0  0
  138.4690   68.5120  222.9730 C   0  0  0  0  0  0  0  0  0  0  0  0
  136.9980   68.5480  222.8240 C   0  0  0  0  0  0  0  0  0  0  0  0
  136.5250   68.8880  221.4520 C   0  0  0  0  0  0  0  0  0  0  0  0
  135.0890   69.4110  221.4670 C   0  0  0  0  0  0  0  0  0  0  0  0
  134.3200   68.6620  222.5020 C   0  0  0  0  0  0  0  0  0  0  0  0
  134.8190   68.9000  223.9090 C   0  0  0  0  0  0  0  0  0  0  0  0
  136.2810   69.3200  223.9120 C   0  0  0  0  0  0  0  0  0  0  0  0
  141.1330   74.2240  221.6440 C   0  0  0  0  0  0  0  0  0  0  0  0
  141.1460   75.6120  221.6840 C   0  0  0  0  0  0  0  0  0  0  0  0
  141.5810   78.6510  223.5150 C   0  0  0  0  0  0  0  0  0  0  0  0
  140.8390   79.9390  223.8170 C   0  0  0  0  0  0  0  0  0  0  0  0
  139.6522   82.1972  223.1823 H   0  0  0  0  0  0  0  0  0  0  0  0
  140.6922   82.5645  221.7645 H   0  0  0  0  0  0  0  0  0  0  0  0
  139.6601   81.0943  221.7645 H   0  0  0  0  0  0  0  0  0  0  0  0
  142.3738   81.3319  221.2025 H   0  0  0  0  0  0  0  0  0  0  0  0
  143.2101   80.2770  222.4413 H   0  0  0  0  0  0  0  0  0  0  0  0
  140.9360   79.5636  220.6029 H   0  0  0  0  0  0  0  0  0  0  0  0
  142.6389   78.9026  220.6731 H   0  0  0  0  0  0  0  0  0  0  0  0
  139.3693   78.1627  222.7067 H   0  0  0  0  0  0  0  0  0  0  0  0
  139.6950   78.1852  220.9316 H   0  0  0  0  0  0  0  0  0  0  0  0
  137.8677   76.1073  222.1580 H   0  0  0  0  0  0  0  0  0  0  0  0
  137.8536   73.6627  222.0898 H   0  0  0  0  0  0  0  0  0  0  0  0
  140.7371   71.5105  221.1670 H   0  0  0  0  0  0  0  0  0  0  0  0
  138.0981   71.0991  221.8776 H   0  0  0  0  0  0  0  0  0  0  0  0
  141.0832   72.9063  226.5236 H   0  0  0  0  0  0  0  0  0  0  0  0
  141.6647   72.0447  228.7473 H   0  0  0  0  0  0  0  0  0  0  0  0
  141.1733   69.6255  229.3291 H   0  0  0  0  0  0  0  0  0  0  0  0
  140.1074   68.2403  227.5816 H   0  0  0  0  0  0  0  0  0  0  0  0
  138.9037   68.7629  221.9942 H   0  0  0  0  0  0  0  0  0  0  0  0
  138.6843   67.4989  223.3437 H   0  0  0  0  0  0  0  0  0  0  0  0
  136.6986   67.5001  222.9729 H   0  0  0  0  0  0  0  0  0  0  0  0
  137.1826   69.6617  221.0289 H   0  0  0  0  0  0  0  0  0  0  0  0
  136.5523   67.9734  220.8415 H   0  0  0  0  0  0  0  0  0  0  0  0
  135.0881   70.4840  221.7091 H   0  0  0  0  0  0  0  0  0  0  0  0
  134.6269   69.2679  220.4791 H   0  0  0  0  0  0  0  0  0  0  0  0
  133.2667   68.9744  222.4480 H   0  0  0  0  0  0  0  0  0  0  0  0
  134.4470   67.5903  222.2890 H   0  0  0  0  0  0  0  0  0  0  0  0
  134.2167   69.6947  224.3734 H   0  0  0  0  0  0  0  0  0  0  0  0
  134.7258   67.9611  224.4745 H   0  0  0  0  0  0  0  0  0  0  0  0
  136.3586   70.3995  223.7154 H   0  0  0  0  0  0  0  0  0  0  0  0
  136.7352   69.1071  224.8910 H   0  0  0  0  0  0  0  0  0  0  0  0
  142.0863   73.6963  221.4935 H   0  0  0  0  0  0  0  0  0  0  0  0
  142.0978   76.1509  221.5674 H   0  0  0  0  0  0  0  0  0  0  0  0
  141.2225   77.8615  224.1919 H   0  0  0  0  0  0  0  0  0  0  0  0
  142.6576   78.8225  223.6615 H   0  0  0  0  0  0  0  0  0  0  0  0
  139.7674   79.8024  223.6096 H   0  0  0  0  0  0  0  0  0  0  0  0
  140.9763   80.2020  224.8762 H   0  0  0  0  0  0  0  0  0  0  0  0
  1  2  1  0
  2  3  1  0
  3  4  1  0
  4  5  1  0
  5  6  1  0
  6  7  1  0
  7  8  2  0
  8  9  1  0
  9 10  2  0
 10 11  1  0
 11 12  2  0
 12 13  1  0
 13 14  2  0
 14 15  1  0
 15 16  2  0
 16 17  1  0
 17 18  2  0
 18 19  1  0
 19 20  2  0
 20 21  1  0
 21 22  2  0
 21 23  1  0
 23 24  1  0
 24 25  1  0
 25 26  1  0
 26 27  1  0
 27 28  1  0
 28 29  1  0
 29 30  1  0
 10 31  1  0
 31 32  2  0
  5 33  1  0
 33 34  1  0
 34  2  1  0
 32  7  1  0
 23 13  1  0
 30 25  1  0
 20 15  1  0
  1 35  1  0
  1 36  1  0
  1 37  1  0
  3 38  1  0
  3 39  1  0
  4 40  1  0
  4 41  1  0
  6 42  1  0
  6 43  1  0
  8 44  1  0
  9 45  1  0
 11 46  1  0
 12 47  1  0
 16 48  1  0
 17 49  1  0
 18 50  1  0
 19 51  1  0
 24 52  1  0
 24 53  1  0
 25 54  1  0
 26 55  1  0
 26 56  1  0
 27 57  1  0
 27 58  1  0
 28 59  1  0
 28 60  1  0
 29 61  1  0
 29 62  1  0
 30 63  1  0
 30 64  1  0
 31 65  1  0
 32 66  1  0
 33 67  1  0
 33 68  1  0
 34 69  1  0
 34 70  1  0
M  END
>  <smiles>  (13) 
CN1CCN(Cc2ccc(/C=C/c3nc4ccccc4c(=O)n3CC3CCCCC3)cc2)CC1

>  <score_type>  (13) 
oracle

>  <origin>  (13) 
autodockgpu

>  <m_score__min__energy>  (13) 
-9.5099999999999998

>  <m_primary>  (13) 
energy

>  <rmsd>  (13) 
6.833487414113468

>  <m_score__min__rmsd>  (13) 
6.833487414113468

>  <meeko>  (13) 
{"free_energy": -9.08, "intermolecular_energy": -11.17, "internal_energy": -1.78, "cluster_size": 47, "cluster_id": 1, "rank_in_cluster": 35}

>  <energy>  (13) 
-9.36

>  <cluster_rmsd>  (13) 
0.55

>  <cluster>  (13) 
1

$$$$

     RDKit          3D

 70 74  0  0  0  0  0  0  0  0999 V2000
  140.1740   81.6380  222.3110 C   0  0  0  0  0  0  0  0  0  0  0  0
  141.3080   80.9700  222.9260 N   0  0  0  0  0  0  0  0  0  0  0  0
  142.2190   80.5040  221.8970 C   0  0  0  0  0  0  0  0  0  0  0  0
  141.8060   79.2070  221.2650 C   0  0  0  0  0  0  0  0  0  0  0  0
  141.4550   78.1760  222.2250 N   0  0  0  0  0  0  0  0  0  0  0  0
  140.1440   77.6450  222.0250 C   0  0  0  0  0  0  0  0  0  0  0  0
  140.1880   76.1810  221.9350 C   0  0  0  0  0  0  0  0  0  0  0  0
  139.1410   75.3390  222.2370 C   0  0  0  0  0  0  0  0  0  0  0  0
  139.2210   73.9660  222.1390 C   0  0  0  0  0  0  0  0  0  0  0  0
  140.4010   73.3460  221.7160 C   0  0  0  0  0  0  0  0  0  0  0  0
  140.4690   71.8950  221.6230 C   0  0  0  0  0  0  0  0  0  0  0  0
  139.5800   71.0710  222.1120 C   0  0  0  0  0  0  0  0  0  0  0  0
  139.6890   70.5560  223.4770 C   0  0  0  0  0  0  0  0  0  0  0  0
  140.2150   71.3960  224.3950 N   0  0  0  0  0  0  0  0  0  0  0  0
  140.4060   71.0550  225.6630 C   0  0  0  0  0  0  0  0  0  0  0  0
  140.9340   71.8720  226.6330 C   0  0  0  0  0  0  0  0  0  0  0  0
  141.1100   71.4690  227.9400 C   0  0  0  0  0  0  0  0  0  0  0  0
  140.7440   70.1750  228.3270 C   0  0  0  0  0  0  0  0  0  0  0  0
  140.2190   69.3820  227.3310 C   0  0  0  0  0  0  0  0  0  0  0  0
  140.0400   69.7700  226.0360 C   0  0  0  0  0  0  0  0  0  0  0  0
  139.5070   68.9190  225.1010 C   0  0  0  0  0  0  0  0  0  0  0  0
  139.1960   67.7610  225.5080 O   0  0  0  0  0  0  0  0  0  0  0  0
  139.3150   69.2850  223.7980 N   0  0  0  0  0  0  0  0  0  0  0  0
  138.7820   68.3800  222.8360 C   0  0  0  0  0  0  0  0  0  0  0  0
  137.3510   68.5060  222.4870 C   0  0  0  0  0  0  0  0  0  0  0  0
  136.5140   69.1530  223.5370 C   0  0  0  0  0  0  0  0  0  0  0  0
  135.0360   68.8000  223.3730 C   0  0  0  0  0  0  0  0  0  0  0  0
  134.7220   68.7310  221.9170 C   0  0  0  0  0  0  0  0  0  0  0  0
  135.4530   67.6200  221.1980 C   0  0  0  0  0  0  0  0  0  0  0  0
  136.7350   67.2420  221.9250 C   0  0  0  0  0  0  0  0  0  0  0  0
  141.4450   74.1850  221.4150 C   0  0  0  0  0  0  0  0  0  0  0  0
  141.3640   75.5680  221.5140 C   0  0  0  0  0  0  0  0  0  0  0  0
  141.6710   78.6670  223.5640 C   0  0  0  0  0  0  0  0  0  0  0  0
  140.8620   79.9240  223.8160 C   0  0  0  0  0  0  0  0  0  0  0  0
  139.5095   82.0294  223.0954 H   0  0  0  0  0  0  0  0  0  0  0  0
  140.5328   82.4690  221.6860 H   0  0  0  0  0  0  0  0  0  0  0  0
  139.6211   80.9213  221.6860 H   0  0  0  0  0  0  0  0  0  0  0  0
  142.2752   81.2708  221.1103 H   0  0  0  0  0  0  0  0  0  0  0  0
  143.1897   80.3286  222.3838 H   0  0  0  0  0  0  0  0  0  0  0  0
  140.9328   79.3959  220.6233 H   0  0  0  0  0  0  0  0  0  0  0  0
  142.6718   78.8361  220.6968 H   0  0  0  0  0  0  0  0  0  0  0  0
  139.5032   77.9361  222.8703 H   0  0  0  0  0  0  0  0  0  0  0  0
  139.7386   78.0461  221.0844 H   0  0  0  0  0  0  0  0  0  0  0  0
  138.1931   75.7842  222.5734 H   0  0  0  0  0  0  0  0  0  0  0  0
  138.3462   73.3509  222.3966 H   0  0  0  0  0  0  0  0  0  0  0  0
  141.3340   71.4589  221.1018 H   0  0  0  0  0  0  0  0  0  0  0  0
  138.7325   70.7583  221.4843 H   0  0  0  0  0  0  0  0  0  0  0  0
  141.2299   72.8942  226.3545 H   0  0  0  0  0  0  0  0  0  0  0  0
  141.5377   72.1640  228.6776 H   0  0  0  0  0  0  0  0  0  0  0  0
  140.8675   69.8149  229.3590 H   0  0  0  0  0  0  0  0  0  0  0  0
  139.9214   68.3579  227.6005 H   0  0  0  0  0  0  0  0  0  0  0  0
  139.3583   68.5110  221.9083 H   0  0  0  0  0  0  0  0  0  0  0  0
  138.8642   67.3915  223.3116 H   0  0  0  0  0  0  0  0  0  0  0  0
  137.3515   69.2200  221.6502 H   0  0  0  0  0  0  0  0  0  0  0  0
  136.8550   68.8125  224.5258 H   0  0  0  0  0  0  0  0  0  0  0  0
  136.6208   70.2435  223.4395 H   0  0  0  0  0  0  0  0  0  0  0  0
  134.8333   67.8260  223.8423 H   0  0  0  0  0  0  0  0  0  0  0  0
  134.4110   69.5654  223.8563 H   0  0  0  0  0  0  0  0  0  0  0  0
  133.6402   68.5692  221.8007 H   0  0  0  0  0  0  0  0  0  0  0  0
  135.0506   69.6800  221.4682 H   0  0  0  0  0  0  0  0  0  0  0  0
  134.7987   66.7375  221.1427 H   0  0  0  0  0  0  0  0  0  0  0  0
  135.7162   67.9726  220.1898 H   0  0  0  0  0  0  0  0  0  0  0  0
  136.5067   66.5434  222.7434 H   0  0  0  0  0  0  0  0  0  0  0  0
  137.4354   66.7542  221.2311 H   0  0  0  0  0  0  0  0  0  0  0  0
  142.3930   73.7398  221.0786 H   0  0  0  0  0  0  0  0  0  0  0  0
  142.2379   76.1846  221.2571 H   0  0  0  0  0  0  0  0  0  0  0  0
  141.3680   77.8931  224.2847 H   0  0  0  0  0  0  0  0  0  0  0  0
  142.7381   78.9060  223.6830 H   0  0  0  0  0  0  0  0  0  0  0  0
  139.7970   79.7172  223.6342 H   0  0  0  0  0  0  0  0  0  0  0  0
  141.0002   80.2461  224.8587 H   0  0  0  0  0  0  0  0  0  0  0  0
  1  2  1  0
  2  3  1  0
  3  4  1  0
  4  5  1  0
  5  6  1  0
  6  7  1  0
  7  8  2  0
  8  9  1  0
  9 10  2  0
 10 11  1  0
 11 12  2  0
 12 13  1  0
 13 14  2  0
 14 15  1  0
 15 16  2  0
 16 17  1  0
 17 18  2  0
 18 19  1  0
 19 20  2  0
 20 21  1  0
 21 22  2  0
 21 23  1  0
 23 24  1  0
 24 25  1  0
 25 26  1  0
 26 27  1  0
 27 28  1  0
 28 29  1  0
 29 30  1  0
 10 31  1  0
 31 32  2  0
  5 33  1  0
 33 34  1  0
 34  2  1  0
 32  7  1  0
 23 13  1  0
 30 25  1  0
 20 15  1  0
  1 35  1  0
  1 36  1  0
  1 37  1  0
  3 38  1  0
  3 39  1  0
  4 40  1  0
  4 41  1  0
  6 42  1  0
  6 43  1  0
  8 44  1  0
  9 45  1  0
 11 46  1  0
 12 47  1  0
 16 48  1  0
 17 49  1  0
 18 50  1  0
 19 51  1  0
 24 52  1  0
 24 53  1  0
 25 54  1  0
 26 55  1  0
 26 56  1  0
 27 57  1  0
 27 58  1  0
 28 59  1  0
 28 60  1  0
 29 61  1  0
 29 62  1  0
 30 63  1  0
 30 64  1  0
 31 65  1  0
 32 66  1  0
 33 67  1  0
 33 68  1  0
 34 69  1  0
 34 70  1  0
M  END
>  <smiles>  (14) 
CN1CCN(Cc2ccc(/C=C/c3nc4ccccc4c(=O)n3CC3CCCCC3)cc2)CC1

>  <score_type>  (14) 
oracle

>  <origin>  (14) 
autodockgpu

>  <m_score__min__energy>  (14) 
-9.5099999999999998

>  <m_primary>  (14) 
energy

>  <rmsd>  (14) 
6.8932512291164745

>  <m_score__min__rmsd>  (14) 
6.8932512291164745

>  <meeko>  (14) 
{"free_energy": -9.13, "intermolecular_energy": -11.22, "internal_energy": -1.73, "cluster_size": 47, "cluster_id": 1, "rank_in_cluster": 31}

>  <energy>  (14) 
-9.36

>  <cluster_rmsd>  (14) 
0.38

>  <cluster>  (14) 
1

$$$$

     RDKit          3D

 70 74  0  0  0  0  0  0  0  0999 V2000
  140.7120   82.0770  221.9520 C   0  0  0  0  0  0  0  0  0  0  0  0
  141.3090   81.2530  222.9880 N   0  0  0  0  0  0  0  0  0  0  0  0
  142.4900   80.5900  222.4680 C   0  0  0  0  0  0  0  0  0  0  0  0
  142.1890   79.3560  221.6690 C   0  0  0  0  0  0  0  0  0  0  0  0
  141.2680   78.4460  222.3270 N   0  0  0  0  0  0  0  0  0  0  0  0
  140.1190   78.1390  221.5340 C   0  0  0  0  0  0  0  0  0  0  0  0
  139.7750   76.7180  221.6510 C   0  0  0  0  0  0  0  0  0  0  0  0
  138.4980   76.2070  221.5870 C   0  0  0  0  0  0  0  0  0  0  0  0
  138.2130   74.8620  221.7010 C   0  0  0  0  0  0  0  0  0  0  0  0
  139.2370   73.9280  221.8920 C   0  0  0  0  0  0  0  0  0  0  0  0
  138.9190   72.5130  222.0140 C   0  0  0  0  0  0  0  0  0  0  0  0
  139.7920   71.5670  222.2410 C   0  0  0  0  0  0  0  0  0  0  0  0
  139.8300   70.8560  223.5190 C   0  0  0  0  0  0  0  0  0  0  0  0
  140.3360   71.5380  224.5700 N   0  0  0  0  0  0  0  0  0  0  0  0
  140.4630   71.0110  225.7810 C   0  0  0  0  0  0  0  0  0  0  0  0
  140.9690   71.6630  226.8800 C   0  0  0  0  0  0  0  0  0  0  0  0
  141.0770   71.0700  228.1200 C   0  0  0  0  0  0  0  0  0  0  0  0
  140.6650   69.7450  228.2990 C   0  0  0  0  0  0  0  0  0  0  0  0
  140.1640   69.1210  227.1780 C   0  0  0  0  0  0  0  0  0  0  0  0
  140.0510   69.6970  225.9480 C   0  0  0  0  0  0  0  0  0  0  0  0
  139.5390   69.0070  224.8780 C   0  0  0  0  0  0  0  0  0  0  0  0
  139.1830   67.8120  225.0990 O   0  0  0  0  0  0  0  0  0  0  0  0
  139.4120   69.5640  223.6360 N   0  0  0  0  0  0  0  0  0  0  0  0
  138.9000   68.8250  222.5320 C   0  0  0  0  0  0  0  0  0  0  0  0
  137.4320   68.7560  222.3670 C   0  0  0  0  0  0  0  0  0  0  0  0
  136.6590   69.4590  223.4280 C   0  0  0  0  0  0  0  0  0  0  0  0
  135.2230   68.9400  223.5130 C   0  0  0  0  0  0  0  0  0  0  0  0
  134.7460   68.6340  222.1340 C   0  0  0  0  0  0  0  0  0  0  0  0
  135.5100   67.5100  221.4710 C   0  0  0  0  0  0  0  0  0  0  0  0
  136.9060   67.3700  222.0600 C   0  0  0  0  0  0  0  0  0  0  0  0
  140.5100   74.4380  221.9560 C   0  0  0  0  0  0  0  0  0  0  0  0
  140.7950   75.7920  221.8410 C   0  0  0  0  0  0  0  0  0  0  0  0
  140.9360   78.9540  223.6350 C   0  0  0  0  0  0  0  0  0  0  0  0
  140.3330   80.3420  223.5390 C   0  0  0  0  0  0  0  0  0  0  0  0
  140.1272   82.8842  222.4171 H   0  0  0  0  0  0  0  0  0  0  0  0
  141.5056   82.5124  221.3270 H   0  0  0  0  0  0  0  0  0  0  0  0
  140.0510   81.4585  221.3270 H   0  0  0  0  0  0  0  0  0  0  0  0
  143.0294   81.2984  221.8221 H   0  0  0  0  0  0  0  0  0  0  0  0
  143.0874   80.2724  223.3354 H   0  0  0  0  0  0  0  0  0  0  0  0
  141.7482   79.6626  220.7090 H   0  0  0  0  0  0  0  0  0  0  0  0
  143.1387   78.8159  221.5407 H   0  0  0  0  0  0  0  0  0  0  0  0
  139.2691   78.7462  221.8789 H   0  0  0  0  0  0  0  0  0  0  0  0
  140.3449   78.3634  220.4811 H   0  0  0  0  0  0  0  0  0  0  0  0
  137.6626   76.9068  221.4374 H   0  0  0  0  0  0  0  0  0  0  0  0
  137.1692   74.5202  221.6411 H   0  0  0  0  0  0  0  0  0  0  0  0
  137.8649   72.2175  221.9072 H   0  0  0  0  0  0  0  0  0  0  0  0
  140.5133   71.2999  221.4546 H   0  0  0  0  0  0  0  0  0  0  0  0
  141.3028   72.7048  226.7651 H   0  0  0  0  0  0  0  0  0  0  0  0
  141.4868   71.6383  228.9680 H   0  0  0  0  0  0  0  0  0  0  0  0
  140.7365   69.2351  229.2711 H   0  0  0  0  0  0  0  0  0  0  0  0
  139.8296   68.0784  227.2835 H   0  0  0  0  0  0  0  0  0  0  0  0
  139.3117   69.2756  221.6169 H   0  0  0  0  0  0  0  0  0  0  0  0
  139.2046   67.7867  222.7299 H   0  0  0  0  0  0  0  0  0  0  0  0
  137.2465   69.3396  221.4532 H   0  0  0  0  0  0  0  0  0  0  0  0
  137.1548   69.2989  224.3968 H   0  0  0  0  0  0  0  0  0  0  0  0
  136.6245   70.5296  223.1776 H   0  0  0  0  0  0  0  0  0  0  0  0
  135.1945   68.0272  224.1262 H   0  0  0  0  0  0  0  0  0  0  0  0
  134.5753   69.6997  223.9750 H   0  0  0  0  0  0  0  0  0  0  0  0
  133.6844   68.3506  222.1869 H   0  0  0  0  0  0  0  0  0  0  0  0
  134.9048   69.5375  221.5270 H   0  0  0  0  0  0  0  0  0  0  0  0
  134.9621   66.5677  221.6191 H   0  0  0  0  0  0  0  0  0  0  0  0
  135.6058   67.7391  220.3994 H   0  0  0  0  0  0  0  0  0  0  0  0
  136.8621   66.7754  222.9844 H   0  0  0  0  0  0  0  0  0  0  0  0
  137.5702   66.8615  221.3456 H   0  0  0  0  0  0  0  0  0  0  0  0
  141.3460   73.7390  222.1059 H   0  0  0  0  0  0  0  0  0  0  0  0
  141.8382   76.1358  221.9008 H   0  0  0  0  0  0  0  0  0  0  0  0
  140.2101   78.2780  224.1104 H   0  0  0  0  0  0  0  0  0  0  0  0
  141.8568   79.0114  224.2340 H   0  0  0  0  0  0  0  0  0  0  0  0
  139.4483   80.3132  222.8859 H   0  0  0  0  0  0  0  0  0  0  0  0
  140.0370   80.6837  224.5418 H   0  0  0  0  0  0  0  0  0  0  0  0
  1  2  1  0
  2  3  1  0
  3  4  1  0
  4  5  1  0
  5  6  1  0
  6  7  1  0
  7  8  2  0
  8  9  1  0
  9 10  2  0
 10 11  1  0
 11 12  2  0
 12 13  1  0
 13 14  2  0
 14 15  1  0
 15 16  2  0
 16 17  1  0
 17 18  2  0
 18 19  1  0
 19 20  2  0
 20 21  1  0
 21 22  2  0
 21 23  1  0
 23 24  1  0
 24 25  1  0
 25 26  1  0
 26 27  1  0
 27 28  1  0
 28 29  1  0
 29 30  1  0
 10 31  1  0
 31 32  2  0
  5 33  1  0
 33 34  1  0
 34  2  1  0
 32  7  1  0
 23 13  1  0
 30 25  1  0
 20 15  1  0
  1 35  1  0
  1 36  1  0
  1 37  1  0
  3 38  1  0
  3 39  1  0
  4 40  1  0
  4 41  1  0
  6 42  1  0
  6 43  1  0
  8 44  1  0
  9 45  1  0
 11 46  1  0
 12 47  1  0
 16 48  1  0
 17 49  1  0
 18 50  1  0
 19 51  1  0
 24 52  1  0
 24 53  1  0
 25 54  1  0
 26 55  1  0
 26 56  1  0
 27 57  1  0
 27 58  1  0
 28 59  1  0
 28 60  1  0
 29 61  1  0
 29 62  1  0
 30 63  1  0
 30 64  1  0
 31 65  1  0
 32 66  1  0
 33 67  1  0
 33 68  1  0
 34 69  1  0
 34 70  1  0
M  END
>  <smiles>  (15) 
CN1CCN(Cc2ccc(/C=C/c3nc4ccccc4c(=O)n3CC3CCCCC3)cc2)CC1

>  <score_type>  (15) 
oracle

>  <origin>  (15) 
autodockgpu

>  <m_score__min__energy>  (15) 
-9.5099999999999998

>  <m_primary>  (15) 
energy

>  <rmsd>  (15) 
6.681870924768594

>  <m_score__min__rmsd>  (15) 
6.681870924768594

>  <meeko>  (15) 
{"free_energy": -8.85, "intermolecular_energy": -10.94, "internal_energy": -1.71, "cluster_size": 47, "cluster_id": 1, "rank_in_cluster": 41}

>  <energy>  (15) 
-9.35

>  <cluster_rmsd>  (15) 
0.41

>  <cluster>  (15) 
1

$$$$

     RDKit          3D

 70 74  0  0  0  0  0  0  0  0999 V2000
  141.3260   81.9880  221.5290 C   0  0  0  0  0  0  0  0  0  0  0  0
  141.0970   81.4460  222.8580 N   0  0  0  0  0  0  0  0  0  0  0  0
  142.2790   80.7380  223.3090 C   0  0  0  0  0  0  0  0  0  0  0  0
  142.3940   79.3440  222.7680 C   0  0  0  0  0  0  0  0  0  0  0  0
  141.1770   78.5640  222.9030 N   0  0  0  0  0  0  0  0  0  0  0  0
  140.7080   78.0340  221.6620 C   0  0  0  0  0  0  0  0  0  0  0  0
  140.4690   76.5910  221.7730 C   0  0  0  0  0  0  0  0  0  0  0  0
  139.3140   76.0160  222.2550 C   0  0  0  0  0  0  0  0  0  0  0  0
  139.1260   74.6530  222.3430 C   0  0  0  0  0  0  0  0  0  0  0  0
  140.1270   73.7650  221.9360 C   0  0  0  0  0  0  0  0  0  0  0  0
  139.9140   72.3290  222.0400 C   0  0  0  0  0  0  0  0  0  0  0  0
  138.9600   71.7620  222.7300 C   0  0  0  0  0  0  0  0  0  0  0  0
  139.2560   70.9220  223.8910 C   0  0  0  0  0  0  0  0  0  0  0  0
  139.8760   71.5280  224.9270 N   0  0  0  0  0  0  0  0  0  0  0  0
  140.2360   70.8860  226.0310 C   0  0  0  0  0  0  0  0  0  0  0  0
  140.8670   71.4570  227.1110 C   0  0  0  0  0  0  0  0  0  0  0  0
  141.2180   70.7440  228.2370 C   0  0  0  0  0  0  0  0  0  0  0  0
  140.9350   69.3760  228.3150 C   0  0  0  0  0  0  0  0  0  0  0  0
  140.3040   68.8360  227.2170 C   0  0  0  0  0  0  0  0  0  0  0  0
  139.9510   69.5300  226.0980 C   0  0  0  0  0  0  0  0  0  0  0  0
  139.3210   68.9180  225.0430 C   0  0  0  0  0  0  0  0  0  0  0  0
  139.0910   67.6790  225.1700 O   0  0  0  0  0  0  0  0  0  0  0  0
  138.9550   69.5930  223.9130 N   0  0  0  0  0  0  0  0  0  0  0  0
  138.3230   68.9360  222.8190 C   0  0  0  0  0  0  0  0  0  0  0  0
  139.1790   68.1810  221.8790 C   0  0  0  0  0  0  0  0  0  0  0  0
  139.5410   68.9260  220.6400 C   0  0  0  0  0  0  0  0  0  0  0  0
  139.9560   67.9770  219.5150 C   0  0  0  0  0  0  0  0  0  0  0  0
  140.7130   66.8390  220.1090 C   0  0  0  0  0  0  0  0  0  0  0  0
  139.8780   65.9800  221.0330 C   0  0  0  0  0  0  0  0  0  0  0  0
  138.7110   66.7660  221.6110 C   0  0  0  0  0  0  0  0  0  0  0  0
  141.2780   74.3380  221.4550 C   0  0  0  0  0  0  0  0  0  0  0  0
  141.4670   75.7110  221.3670 C   0  0  0  0  0  0  0  0  0  0  0  0
  140.1810   79.3370  223.6040 C   0  0  0  0  0  0  0  0  0  0  0  0
  139.8990   80.6390  222.8790 C   0  0  0  0  0  0  0  0  0  0  0  0
  141.7529   82.9983  221.6136 H   0  0  0  0  0  0  0  0  0  0  0  0
  142.0266   81.3384  220.9838 H   0  0  0  0  0  0  0  0  0  0  0  0
  140.3719   82.0375  220.9838 H   0  0  0  0  0  0  0  0  0  0  0  0
  143.1657   81.3069  222.9925 H   0  0  0  0  0  0  0  0  0  0  0  0
  142.2021   80.6513  224.4029 H   0  0  0  0  0  0  0  0  0  0  0  0
  142.6503   79.4059  221.7001 H   0  0  0  0  0  0  0  0  0  0  0  0
  143.1703   78.8334  223.3567 H   0  0  0  0  0  0  0  0  0  0  0  0
  139.7685   78.5357  221.3869 H   0  0  0  0  0  0  0  0  0  0  0  0
  141.4729   78.2080  220.8909 H   0  0  0  0  0  0  0  0  0  0  0  0
  138.5003   76.6778  222.5866 H   0  0  0  0  0  0  0  0  0  0  0  0
  138.1778   74.2594  222.7379 H   0  0  0  0  0  0  0  0  0  0  0  0
  140.6085   71.6713  221.4968 H   0  0  0  0  0  0  0  0  0  0  0  0
  137.9129   71.9194  222.4319 H   0  0  0  0  0  0  0  0  0  0  0  0
  141.1022   72.5309  227.0747 H   0  0  0  0  0  0  0  0  0  0  0  0
  141.7206   71.2504  229.0743 H   0  0  0  0  0  0  0  0  0  0  0  0
  141.1992   68.7719  229.1955 H   0  0  0  0  0  0  0  0  0  0  0  0
  140.0665   67.7623  227.2447 H   0  0  0  0  0  0  0  0  0  0  0  0
  137.5934   68.2280  223.2390 H   0  0  0  0  0  0  0  0  0  0  0  0
  137.9000   69.7514  222.2138 H   0  0  0  0  0  0  0  0  0  0  0  0
  140.1266   68.0693  222.4263 H   0  0  0  0  0  0  0  0  0  0  0  0
  138.6716   69.5133  220.3094 H   0  0  0  0  0  0  0  0  0  0  0  0
  140.3935   69.5823  220.8692 H   0  0  0  0  0  0  0  0  0  0  0  0
  139.0607   67.5982  219.0003 H   0  0  0  0  0  0  0  0  0  0  0  0
  140.5864   68.5091  218.7874 H   0  0  0  0  0  0  0  0  0  0  0  0
  141.0909   66.2070  219.2918 H   0  0  0  0  0  0  0  0  0  0  0  0
  141.5265   67.2691  220.7117 H   0  0  0  0  0  0  0  0  0  0  0  0
  139.4871   65.1208  220.4683 H   0  0  0  0  0  0  0  0  0  0  0  0
  140.5149   65.6414  221.8635 H   0  0  0  0  0  0  0  0  0  0  0  0
  137.8786   66.7791  220.8920 H   0  0  0  0  0  0  0  0  0  0  0  0
  138.3631   66.2981  222.5438 H   0  0  0  0  0  0  0  0  0  0  0  0
  142.0915   73.6764  221.1226 H   0  0  0  0  0  0  0  0  0  0  0  0
  142.4147   76.1064  220.9726 H   0  0  0  0  0  0  0  0  0  0  0  0
  139.2515   78.7524  223.6695 H   0  0  0  0  0  0  0  0  0  0  0  0
  140.5598   79.5694  224.6102 H   0  0  0  0  0  0  0  0  0  0  0  0
  139.5835   80.4237  221.8475 H   0  0  0  0  0  0  0  0  0  0  0  0
  139.0982   81.1838  223.4004 H   0  0  0  0  0  0  0  0  0  0  0  0
  1  2  1  0
  2  3  1  0
  3  4  1  0
  4  5  1  0
  5  6  1  0
  6  7  1  0
  7  8  2  0
  8  9  1  0
  9 10  2  0
 10 11  1  0
 11 12  2  0
 12 13  1  0
 13 14  2  0
 14 15  1  0
 15 16  2  0
 16 17  1  0
 17 18  2  0
 18 19  1  0
 19 20  2  0
 20 21  1  0
 21 22  2  0
 21 23  1  0
 23 24  1  0
 24 25  1  0
 25 26  1  0
 26 27  1  0
 27 28  1  0
 28 29  1  0
 29 30  1  0
 10 31  1  0
 31 32  2  0
  5 33  1  0
 33 34  1  0
 34  2  1  0
 32  7  1  0
 23 13  1  0
 30 25  1  0
 20 15  1  0
  1 35  1  0
  1 36  1  0
  1 37  1  0
  3 38  1  0
  3 39  1  0
  4 40  1  0
  4 41  1  0
  6 42  1  0
  6 43  1  0
  8 44  1  0
  9 45  1  0
 11 46  1  0
 12 47  1  0
 16 48  1  0
 17 49  1  0
 18 50  1  0
 19 51  1  0
 24 52  1  0
 24 53  1  0
 25 54  1  0
 26 55  1  0
 26 56  1  0
 27 57  1  0
 27 58  1  0
 28 59  1  0
 28 60  1  0
 29 61  1  0
 29 62  1  0
 30 63  1  0
 30 64  1  0
 31 65  1  0
 32 66  1  0
 33 67  1  0
 33 68  1  0
 34 69  1  0
 34 70  1  0
M  END
>  <smiles>  (16) 
CN1CCN(Cc2ccc(/C=C/c3nc4ccccc4c(=O)n3CC3CCCCC3)cc2)CC1

>  <score_type>  (16) 
oracle

>  <origin>  (16) 
autodockgpu

>  <m_score__min__energy>  (16) 
-9.5099999999999998

>  <m_primary>  (16) 
energy

>  <rmsd>  (16) 
6.7867242774814125

>  <m_score__min__rmsd>  (16) 
6.7867242774814125

>  <meeko>  (16) 
{"free_energy": -9.44, "intermolecular_energy": -11.53, "internal_energy": -1.62, "cluster_size": 47, "cluster_id": 1, "rank_in_cluster": 7}

>  <energy>  (16) 
-9.35

>  <cluster_rmsd>  (16) 
0.38

>  <cluster>  (16) 
1

$$$$

     RDKit          3D

 70 74  0  0  0  0  0  0  0  0999 V2000
  140.0450   81.6020  222.3490 C   0  0  0  0  0  0  0  0  0  0  0  0
  141.1930   80.9600  222.9650 N   0  0  0  0  0  0  0  0  0  0  0  0
  142.1480   80.5790  221.9420 C   0  0  0  0  0  0  0  0  0  0  0  0
  141.8110   79.2930  221.2460 C   0  0  0  0  0  0  0  0  0  0  0  0
  141.4840   78.2080  222.1540 N   0  0  0  0  0  0  0  0  0  0  0  0
  140.2040   77.6270  221.8980 C   0  0  0  0  0  0  0  0  0  0  0  0
  140.3060   76.1660  221.8130 C   0  0  0  0  0  0  0  0  0  0  0  0
  141.4090   75.4760  221.3620 C   0  0  0  0  0  0  0  0  0  0  0  0
  141.4670   74.1000  221.2970 C   0  0  0  0  0  0  0  0  0  0  0  0
  140.3790   73.3180  221.6980 C   0  0  0  0  0  0  0  0  0  0  0  0
  140.4560   71.8670  221.6190 C   0  0  0  0  0  0  0  0  0  0  0  0
  139.5670   71.0430  222.1090 C   0  0  0  0  0  0  0  0  0  0  0  0
  139.6780   70.5260  223.4730 C   0  0  0  0  0  0  0  0  0  0  0  0
  140.2060   71.3650  224.3910 N   0  0  0  0  0  0  0  0  0  0  0  0
  140.3980   71.0220  225.6580 C   0  0  0  0  0  0  0  0  0  0  0  0
  140.9280   71.8380  226.6290 C   0  0  0  0  0  0  0  0  0  0  0  0
  141.1050   71.4330  227.9350 C   0  0  0  0  0  0  0  0  0  0  0  0
  140.7400   70.1390  228.3210 C   0  0  0  0  0  0  0  0  0  0  0  0
  140.2130   69.3480  227.3250 C   0  0  0  0  0  0  0  0  0  0  0  0
  140.0320   69.7370  226.0310 C   0  0  0  0  0  0  0  0  0  0  0  0
  139.4970   68.8870  225.0950 C   0  0  0  0  0  0  0  0  0  0  0  0
  139.1860   67.7290  225.5020 O   0  0  0  0  0  0  0  0  0  0  0  0
  139.3040   69.2550  223.7940 N   0  0  0  0  0  0  0  0  0  0  0  0
  138.7690   68.3520  222.8310 C   0  0  0  0  0  0  0  0  0  0  0  0
  137.3010   68.1850  222.7800 C   0  0  0  0  0  0  0  0  0  0  0  0
  136.7800   67.7070  221.4680 C   0  0  0  0  0  0  0  0  0  0  0  0
  135.2970   68.0410  221.2980 C   0  0  0  0  0  0  0  0  0  0  0  0
  134.6220   67.8950  222.6180 C   0  0  0  0  0  0  0  0  0  0  0  0
  135.1100   68.8830  223.6540 C   0  0  0  0  0  0  0  0  0  0  0  0
  136.5220   69.3560  223.3430 C   0  0  0  0  0  0  0  0  0  0  0  0
  139.2790   74.0060  222.1470 C   0  0  0  0  0  0  0  0  0  0  0  0
  139.2210   75.3920  222.2120 C   0  0  0  0  0  0  0  0  0  0  0  0
  141.6450   78.6500  223.5170 C   0  0  0  0  0  0  0  0  0  0  0  0
  140.7730   79.8580  223.7990 C   0  0  0  0  0  0  0  0  0  0  0  0
  139.3713   81.9788  223.1327 H   0  0  0  0  0  0  0  0  0  0  0  0
  140.3855   82.4406  221.7239 H   0  0  0  0  0  0  0  0  0  0  0  0
  139.5088   80.8728  221.7239 H   0  0  0  0  0  0  0  0  0  0  0  0
  142.1879   81.3803  221.1894 H   0  0  0  0  0  0  0  0  0  0  0  0
  143.1134   80.4261  222.4467 H   0  0  0  0  0  0  0  0  0  0  0  0
  140.9463   79.4694  220.5894 H   0  0  0  0  0  0  0  0  0  0  0  0
  142.7064   78.9856  220.6858 H   0  0  0  0  0  0  0  0  0  0  0  0
  139.5163   77.8942  222.7139 H   0  0  0  0  0  0  0  0  0  0  0  0
  139.8260   78.0118  220.9393 H   0  0  0  0  0  0  0  0  0  0  0  0
  142.2883   76.0517  221.0372 H   0  0  0  0  0  0  0  0  0  0  0  0
  142.3798   73.6115  220.9253 H   0  0  0  0  0  0  0  0  0  0  0  0
  141.3274   71.4307  221.1088 H   0  0  0  0  0  0  0  0  0  0  0  0
  138.7179   70.7320  221.4826 H   0  0  0  0  0  0  0  0  0  0  0  0
  141.2243   72.8603  226.3515 H   0  0  0  0  0  0  0  0  0  0  0  0
  141.5331   72.1272  228.6731 H   0  0  0  0  0  0  0  0  0  0  0  0
  140.8657   69.7773  229.3522 H   0  0  0  0  0  0  0  0  0  0  0  0
  139.9152   68.3238  227.5939 H   0  0  0  0  0  0  0  0  0  0  0  0
  139.0937   68.7003  221.8394 H   0  0  0  0  0  0  0  0  0  0  0  0
  139.1483   67.3658  223.1369 H   0  0  0  0  0  0  0  0  0  0  0  0
  137.1112   67.3549  223.4764 H   0  0  0  0  0  0  0  0  0  0  0  0
  137.3498   68.1892  220.6601 H   0  0  0  0  0  0  0  0  0  0  0  0
  136.8940   66.6136  221.4292 H   0  0  0  0  0  0  0  0  0  0  0  0
  135.1889   69.0751  220.9390 H   0  0  0  0  0  0  0  0  0  0  0  0
  134.8402   67.3596  220.5652 H   0  0  0  0  0  0  0  0  0  0  0  0
  133.5415   68.0440  222.4756 H   0  0  0  0  0  0  0  0  0  0  0  0
  134.8565   66.8880  222.9934 H   0  0  0  0  0  0  0  0  0  0  0  0
  134.4355   69.7518  223.6666 H   0  0  0  0  0  0  0  0  0  0  0  0
  135.1186   68.3835  224.6340 H   0  0  0  0  0  0  0  0  0  0  0  0
  136.4876   70.1700  222.6039 H   0  0  0  0  0  0  0  0  0  0  0  0
  137.0068   69.7305  224.2566 H   0  0  0  0  0  0  0  0  0  0  0  0
  138.3995   73.4305  222.4715 H   0  0  0  0  0  0  0  0  0  0  0  0
  138.3087   75.8824  222.5824 H   0  0  0  0  0  0  0  0  0  0  0  0
  141.3603   77.8334  224.1968 H   0  0  0  0  0  0  0  0  0  0  0  0
  142.6969   78.9306  223.6742 H   0  0  0  0  0  0  0  0  0  0  0  0
  139.7235   79.6118  223.5802 H   0  0  0  0  0  0  0  0  0  0  0  0
  140.8701   80.1413  224.8574 H   0  0  0  0  0  0  0  0  0  0  0  0
  1  2  1  0
  2  3  1  0
  3  4  1  0
  4  5  1  0
  5  6  1  0
  6  7  1  0
  7  8  2  0
  8  9  1  0
  9 10  2  0
 10 11  1  0
 11 12  2  0
 12 13  1  0
 13 14  2  0
 14 15  1  0
 15 16  2  0
 16 17  1  0
 17 18  2  0
 18 19  1  0
 19 20  2  0
 20 21  1  0
 21 22  2  0
 21 23  1  0
 23 24  1  0
 24 25  1  0
 25 26  1  0
 26 27  1  0
 27 28  1  0
 28 29  1  0
 29 30  1  0
 10 31  1  0
 31 32  2  0
  5 33  1  0
 33 34  1  0
 34  2  1  0
 32  7  1  0
 23 13  1  0
 30 25  1  0
 20 15  1  0
  1 35  1  0
  1 36  1  0
  1 37  1  0
  3 38  1  0
  3 39  1  0
  4 40  1  0
  4 41  1  0
  6 42  1  0
  6 43  1  0
  8 44  1  0
  9 45  1  0
 11 46  1  0
 12 47  1  0
 16 48  1  0
 17 49  1  0
 18 50  1  0
 19 51  1  0
 24 52  1  0
 24 53  1  0
 25 54  1  0
 26 55  1  0
 26 56  1  0
 27 57  1  0
 27 58  1  0
 28 59  1  0
 28 60  1  0
 29 61  1  0
 29 62  1  0
 30 63  1  0
 30 64  1  0
 31 65  1  0
 32 66  1  0
 33 67  1  0
 33 68  1  0
 34 69  1  0
 34 70  1  0
M  END
>  <smiles>  (17) 
CN1CCN(Cc2ccc(/C=C/c3nc4ccccc4c(=O)n3CC3CCCCC3)cc2)CC1

>  <score_type>  (17) 
oracle

>  <origin>  (17) 
autodockgpu

>  <m_score__min__energy>  (17) 
-9.5099999999999998

>  <m_primary>  (17) 
energy

>  <rmsd>  (17) 
6.65541580682614

>  <m_score__min__rmsd>  (17) 
6.65541580682614

>  <meeko>  (17) 
{"free_energy": -9.12, "intermolecular_energy": -11.21, "internal_energy": -1.74, "cluster_size": 47, "cluster_id": 1, "rank_in_cluster": 32}

>  <energy>  (17) 
-9.35

>  <cluster_rmsd>  (17) 
0.41

>  <cluster>  (17) 
1

$$$$

     RDKit          3D

 70 74  0  0  0  0  0  0  0  0999 V2000
  140.2670   81.6900  222.3480 C   0  0  0  0  0  0  0  0  0  0  0  0
  141.3590   80.9650  222.9750 N   0  0  0  0  0  0  0  0  0  0  0  0
  142.2690   80.4720  221.9580 C   0  0  0  0  0  0  0  0  0  0  0  0
  141.8120   79.2040  221.3000 C   0  0  0  0  0  0  0  0  0  0  0  0
  141.3970   78.1770  222.2390 N   0  0  0  0  0  0  0  0  0  0  0  0
  140.0680   77.7060  222.0060 C   0  0  0  0  0  0  0  0  0  0  0  0
  140.0450   76.2410  221.9290 C   0  0  0  0  0  0  0  0  0  0  0  0
  138.9230   75.4590  222.0920 C   0  0  0  0  0  0  0  0  0  0  0  0
  138.9410   74.0830  222.0120 C   0  0  0  0  0  0  0  0  0  0  0  0
  140.1320   73.3970  221.7520 C   0  0  0  0  0  0  0  0  0  0  0  0
  140.1330   71.9430  221.6750 C   0  0  0  0  0  0  0  0  0  0  0  0
  139.2620   71.1620  222.2560 C   0  0  0  0  0  0  0  0  0  0  0  0
  139.4930   70.6300  223.5990 C   0  0  0  0  0  0  0  0  0  0  0  0
  140.0930   71.4620  224.4780 N   0  0  0  0  0  0  0  0  0  0  0  0
  140.3960   71.1060  225.7200 C   0  0  0  0  0  0  0  0  0  0  0  0
  141.0040   71.9140  226.6510 C   0  0  0  0  0  0  0  0  0  0  0  0
  141.2950   71.4960  227.9320 C   0  0  0  0  0  0  0  0  0  0  0  0
  140.9710   70.1950  228.3330 C   0  0  0  0  0  0  0  0  0  0  0  0
  140.3630   69.4120  227.3770 C   0  0  0  0  0  0  0  0  0  0  0  0
  140.0700   69.8140  226.1080 C   0  0  0  0  0  0  0  0  0  0  0  0
  139.4600   68.9730  225.2120 C   0  0  0  0  0  0  0  0  0  0  0  0
  139.1910   67.8080  225.6300 O   0  0  0  0  0  0  0  0  0  0  0  0
  139.1530   69.3540  223.9360 N   0  0  0  0  0  0  0  0  0  0  0  0
  138.5420   68.4580  223.0130 C   0  0  0  0  0  0  0  0  0  0  0  0
  137.0720   68.5160  222.8630 C   0  0  0  0  0  0  0  0  0  0  0  0
  136.6030   68.7850  221.4750 C   0  0  0  0  0  0  0  0  0  0  0  0
  135.1780   69.3380  221.4600 C   0  0  0  0  0  0  0  0  0  0  0  0
  134.3960   68.6670  222.5370 C   0  0  0  0  0  0  0  0  0  0  0  0
  134.9030   68.9760  223.9280 C   0  0  0  0  0  0  0  0  0  0  0  0
  136.3740   69.3650  223.9060 C   0  0  0  0  0  0  0  0  0  0  0  0
  141.2500   74.1760  221.5890 C   0  0  0  0  0  0  0  0  0  0  0  0
  141.2310   75.5620  221.6710 C   0  0  0  0  0  0  0  0  0  0  0  0
  141.6080   78.6400  223.5890 C   0  0  0  0  0  0  0  0  0  0  0  0
  140.8490   79.9280  223.8420 C   0  0  0  0  0  0  0  0  0  0  0  0
  139.6186   82.1205  223.1253 H   0  0  0  0  0  0  0  0  0  0  0  0
  140.6746   82.4974  221.7220 H   0  0  0  0  0  0  0  0  0  0  0  0
  139.6811   81.0009  221.7220 H   0  0  0  0  0  0  0  0  0  0  0  0
  142.3755   81.2458  221.1834 H   0  0  0  0  0  0  0  0  0  0  0  0
  143.2206   80.2466  222.4617 H   0  0  0  0  0  0  0  0  0  0  0  0
  140.9607   79.4399  220.6445 H   0  0  0  0  0  0  0  0  0  0  0  0
  142.6714   78.8026  220.7429 H   0  0  0  0  0  0  0  0  0  0  0  0
  139.4182   78.0349  222.8304 H   0  0  0  0  0  0  0  0  0  0  0  0
  139.7087   78.1168  221.0510 H   0  0  0  0  0  0  0  0  0  0  0  0
  137.9641   75.9577  222.2963 H   0  0  0  0  0  0  0  0  0  0  0  0
  138.0080   73.5179  222.1542 H   0  0  0  0  0  0  0  0  0  0  0  0
  140.9276   71.4660  221.0825 H   0  0  0  0  0  0  0  0  0  0  0  0
  138.3356   70.8989  221.7244 H   0  0  0  0  0  0  0  0  0  0  0  0
  141.2705   72.9410  226.3607 H   0  0  0  0  0  0  0  0  0  0  0  0
  141.7815   72.1846  228.6385 H   0  0  0  0  0  0  0  0  0  0  0  0
  141.1876   69.8223  229.3450 H   0  0  0  0  0  0  0  0  0  0  0  0
  140.0932   68.3836  227.6591 H   0  0  0  0  0  0  0  0  0  0  0  0
  138.9804   68.6571  222.0240 H   0  0  0  0  0  0  0  0  0  0  0  0
  138.7380   67.4582  223.4278 H   0  0  0  0  0  0  0  0  0  0  0  0
  136.7508   67.4848  223.0717 H   0  0  0  0  0  0  0  0  0  0  0  0
  137.2756   69.5187  221.0068 H   0  0  0  0  0  0  0  0  0  0  0  0
  136.6096   67.8356  220.9195 H   0  0  0  0  0  0  0  0  0  0  0  0
  135.1997   70.4231  221.6390 H   0  0  0  0  0  0  0  0  0  0  0  0
  134.7113   69.1474  220.4823 H   0  0  0  0  0  0  0  0  0  0  0  0
  133.3493   68.9977  222.4658 H   0  0  0  0  0  0  0  0  0  0  0  0
  134.5001   67.5823  222.3866 H   0  0  0  0  0  0  0  0  0  0  0  0
  134.3183   69.8087  224.3458 H   0  0  0  0  0  0  0  0  0  0  0  0
  134.7915   68.0735  224.5469 H   0  0  0  0  0  0  0  0  0  0  0  0
  136.4739   70.4295  223.6475 H   0  0  0  0  0  0  0  0  0  0  0  0
  136.8258   69.1998  224.8952 H   0  0  0  0  0  0  0  0  0  0  0  0
  142.2088   73.6777  221.3832 H   0  0  0  0  0  0  0  0  0  0  0  0
  142.1633   76.1286  221.5305 H   0  0  0  0  0  0  0  0  0  0  0  0
  141.2575   77.8708  224.2929 H   0  0  0  0  0  0  0  0  0  0  0  0
  142.6819   78.8299  223.7325 H   0  0  0  0  0  0  0  0  0  0  0  0
  139.7801   79.7704  223.6358 H   0  0  0  0  0  0  0  0  0  0  0  0
  140.9790   80.2304  224.8916 H   0  0  0  0  0  0  0  0  0  0  0  0
  1  2  1  0
  2  3  1  0
  3  4  1  0
  4  5  1  0
  5  6  1  0
  6  7  1  0
  7  8  2  0
  8  9  1  0
  9 10  2  0
 10 11  1  0
 11 12  2  0
 12 13  1  0
 13 14  2  0
 14 15  1  0
 15 16  2  0
 16 17  1  0
 17 18  2  0
 18 19  1  0
 19 20  2  0
 20 21  1  0
 21 22  2  0
 21 23  1  0
 23 24  1  0
 24 25  1  0
 25 26  1  0
 26 27  1  0
 27 28  1  0
 28 29  1  0
 29 30  1  0
 10 31  1  0
 31 32  2  0
  5 33  1  0
 33 34  1  0
 34  2  1  0
 32  7  1  0
 23 13  1  0
 30 25  1  0
 20 15  1  0
  1 35  1  0
  1 36  1  0
  1 37  1  0
  3 38  1  0
  3 39  1  0
  4 40  1  0
  4 41  1  0
  6 42  1  0
  6 43  1  0
  8 44  1  0
  9 45  1  0
 11 46  1  0
 12 47  1  0
 16 48  1  0
 17 49  1  0
 18 50  1  0
 19 51  1  0
 24 52  1  0
 24 53  1  0
 25 54  1  0
 26 55  1  0
 26 56  1  0
 27 57  1  0
 27 58  1  0
 28 59  1  0
 28 60  1  0
 29 61  1  0
 29 62  1  0
 30 63  1  0
 30 64  1  0
 31 65  1  0
 32 66  1  0
 33 67  1  0
 33 68  1  0
 34 69  1  0
 34 70  1  0
M  END
>  <smiles>  (18) 
CN1CCN(Cc2ccc(/C=C/c3nc4ccccc4c(=O)n3CC3CCCCC3)cc2)CC1

>  <score_type>  (18) 
oracle

>  <origin>  (18) 
autodockgpu

>  <m_score__min__energy>  (18) 
-9.5099999999999998

>  <m_primary>  (18) 
energy

>  <rmsd>  (18) 
6.8623078026973054

>  <m_score__min__rmsd>  (18) 
6.8623078026973054

>  <meeko>  (18) 
{"free_energy": -9.09, "intermolecular_energy": -11.17, "internal_energy": -1.81, "cluster_size": 47, "cluster_id": 1, "rank_in_cluster": 34}

>  <energy>  (18) 
-9.34

>  <cluster_rmsd>  (18) 
1.09

>  <cluster>  (18) 
1

$$$$

     RDKit          3D

 70 74  0  0  0  0  0  0  0  0999 V2000
  141.4700   82.0300  221.8040 C   0  0  0  0  0  0  0  0  0  0  0  0
  141.2890   81.4380  223.1180 N   0  0  0  0  0  0  0  0  0  0  0  0
  142.4030   80.5580  223.4170 C   0  0  0  0  0  0  0  0  0  0  0  0
  142.2840   79.1980  222.7950 C   0  0  0  0  0  0  0  0  0  0  0  0
  140.9910   78.5720  223.0060 N   0  0  0  0  0  0  0  0  0  0  0  0
  140.3480   78.1860  221.7900 C   0  0  0  0  0  0  0  0  0  0  0  0
  140.0280   76.7550  221.8060 C   0  0  0  0  0  0  0  0  0  0  0  0
  138.7700   76.2280  221.9940 C   0  0  0  0  0  0  0  0  0  0  0  0
  138.5080   74.8740  222.0020 C   0  0  0  0  0  0  0  0  0  0  0  0
  139.5370   73.9460  221.8130 C   0  0  0  0  0  0  0  0  0  0  0  0
  139.2440   72.5210  221.8280 C   0  0  0  0  0  0  0  0  0  0  0  0
  140.0950   71.5850  222.1580 C   0  0  0  0  0  0  0  0  0  0  0  0
  140.0460   70.9410  223.4710 C   0  0  0  0  0  0  0  0  0  0  0  0
  140.5270   71.6590  224.5100 N   0  0  0  0  0  0  0  0  0  0  0  0
  140.5780   71.1910  225.7510 C   0  0  0  0  0  0  0  0  0  0  0  0
  141.0550   71.8820  226.8390 C   0  0  0  0  0  0  0  0  0  0  0  0
  141.0830   71.3500  228.1110 C   0  0  0  0  0  0  0  0  0  0  0  0
  140.6130   70.0520  228.3360 C   0  0  0  0  0  0  0  0  0  0  0  0
  140.1430   69.3880  227.2250 C   0  0  0  0  0  0  0  0  0  0  0  0
  140.1090   69.9030  225.9630 C   0  0  0  0  0  0  0  0  0  0  0  0
  139.6220   69.1770  224.9060 C   0  0  0  0  0  0  0  0  0  0  0  0
  139.2110   68.0080  225.1690 O   0  0  0  0  0  0  0  0  0  0  0  0
  139.5750   69.6720  223.6330 N   0  0  0  0  0  0  0  0  0  0  0  0
  139.0880   68.8950  222.5440 C   0  0  0  0  0  0  0  0  0  0  0  0
  137.6230   68.8040  222.3600 C   0  0  0  0  0  0  0  0  0  0  0  0
  136.8250   69.4920  223.4130 C   0  0  0  0  0  0  0  0  0  0  0  0
  135.3960   68.9510  223.4780 C   0  0  0  0  0  0  0  0  0  0  0  0
  134.9420   68.6410  222.0920 C   0  0  0  0  0  0  0  0  0  0  0  0
  135.7320   67.5320  221.4350 C   0  0  0  0  0  0  0  0  0  0  0  0
  137.1220   67.4110  222.0420 C   0  0  0  0  0  0  0  0  0  0  0  0
  140.7920   74.4700  221.6250 C   0  0  0  0  0  0  0  0  0  0  0  0
  141.0540   75.8340  221.6180 C   0  0  0  0  0  0  0  0  0  0  0  0
  140.1720   79.4190  223.8380 C   0  0  0  0  0  0  0  0  0  0  0  0
  140.0020   80.7900  223.2120 C   0  0  0  0  0  0  0  0  0  0  0  0
  141.7900   83.0766  221.9143 H   0  0  0  0  0  0  0  0  0  0  0  0
  142.2374   81.4682  221.2513 H   0  0  0  0  0  0  0  0  0  0  0  0
  140.5196   81.9934  221.2513 H   0  0  0  0  0  0  0  0  0  0  0  0
  143.3259   81.0289  223.0474 H   0  0  0  0  0  0  0  0  0  0  0  0
  142.4124   80.4120  224.5072 H   0  0  0  0  0  0  0  0  0  0  0  0
  142.4503   79.2954  221.7120 H   0  0  0  0  0  0  0  0  0  0  0  0
  143.0352   78.5561  223.2783 H   0  0  0  0  0  0  0  0  0  0  0  0
  139.4186   78.7628  221.6738 H   0  0  0  0  0  0  0  0  0  0  0  0
  141.0289   78.3873  220.9499 H   0  0  0  0  0  0  0  0  0  0  0  0
  137.9307   76.9227  222.1456 H   0  0  0  0  0  0  0  0  0  0  0  0
  137.4783   74.5201  222.1588 H   0  0  0  0  0  0  0  0  0  0  0  0
  138.2298   72.2074  221.5399 H   0  0  0  0  0  0  0  0  0  0  0  0
  140.8632   71.2754  221.4341 H   0  0  0  0  0  0  0  0  0  0  0  0
  141.4311   72.9047  226.6886 H   0  0  0  0  0  0  0  0  0  0  0  0
  141.4748   71.9462  228.9483 H   0  0  0  0  0  0  0  0  0  0  0  0
  140.6185   69.5917  229.3351 H   0  0  0  0  0  0  0  0  0  0  0  0
  139.7663   68.3642  227.3664 H   0  0  0  0  0  0  0  0  0  0  0  0
  139.5081   69.3234  221.6221 H   0  0  0  0  0  0  0  0  0  0  0  0
  139.4015   67.8666  222.7766 H   0  0  0  0  0  0  0  0  0  0  0  0
  137.4409   69.3878  221.4456 H   0  0  0  0  0  0  0  0  0  0  0  0
  137.3105   69.3366  224.3878 H   0  0  0  0  0  0  0  0  0  0  0  0
  136.7772   70.5626  223.1649 H   0  0  0  0  0  0  0  0  0  0  0  0
  135.3733   68.0364  224.0888 H   0  0  0  0  0  0  0  0  0  0  0  0
  134.7308   69.6996  223.9331 H   0  0  0  0  0  0  0  0  0  0  0  0
  133.8846   68.3402  222.1306 H   0  0  0  0  0  0  0  0  0  0  0  0
  135.0945   69.5488  221.4898 H   0  0  0  0  0  0  0  0  0  0  0  0
  135.1968   66.5808  221.5720 H   0  0  0  0  0  0  0  0  0  0  0  0
  135.8386   67.7672  220.3657 H   0  0  0  0  0  0  0  0  0  0  0  0
  137.0748   66.8129  222.9640 H   0  0  0  0  0  0  0  0  0  0  0  0
  137.8031   66.9147  221.3351 H   0  0  0  0  0  0  0  0  0  0  0  0
  141.6313   73.7755  221.4724 H   0  0  0  0  0  0  0  0  0  0  0  0
  142.0831   76.1898  221.4622 H   0  0  0  0  0  0  0  0  0  0  0  0
  139.1827   78.9543  223.9618 H   0  0  0  0  0  0  0  0  0  0  0  0
  140.6657   79.5367  224.8139 H   0  0  0  0  0  0  0  0  0  0  0  0
  139.5708   80.6829  222.2057 H   0  0  0  0  0  0  0  0  0  0  0  0
  139.3297   81.3976  223.8357 H   0  0  0  0  0  0  0  0  0  0  0  0
  1  2  1  0
  2  3  1  0
  3  4  1  0
  4  5  1  0
  5  6  1  0
  6  7  1  0
  7  8  2  0
  8  9  1  0
  9 10  2  0
 10 11  1  0
 11 12  2  0
 12 13  1  0
 13 14  2  0
 14 15  1  0
 15 16  2  0
 16 17  1  0
 17 18  2  0
 18 19  1  0
 19 20  2  0
 20 21  1  0
 21 22  2  0
 21 23  1  0
 23 24  1  0
 24 25  1  0
 25 26  1  0
 26 27  1  0
 27 28  1  0
 28 29  1  0
 29 30  1  0
 10 31  1  0
 31 32  2  0
  5 33  1  0
 33 34  1  0
 34  2  1  0
 32  7  1  0
 23 13  1  0
 30 25  1  0
 20 15  1  0
  1 35  1  0
  1 36  1  0
  1 37  1  0
  3 38  1  0
  3 39  1  0
  4 40  1  0
  4 41  1  0
  6 42  1  0
  6 43  1  0
  8 44  1  0
  9 45  1  0
 11 46  1  0
 12 47  1  0
 16 48  1  0
 17 49  1  0
 18 50  1  0
 19 51  1  0
 24 52  1  0
 24 53  1  0
 25 54  1  0
 26 55  1  0
 26 56  1  0
 27 57  1  0
 27 58  1  0
 28 59  1  0
 28 60  1  0
 29 61  1  0
 29 62  1  0
 30 63  1  0
 30 64  1  0
 31 65  1  0
 32 66  1  0
 33 67  1  0
 33 68  1  0
 34 69  1  0
 34 70  1  0
M  END
>  <smiles>  (19) 
CN1CCN(Cc2ccc(/C=C/c3nc4ccccc4c(=O)n3CC3CCCCC3)cc2)CC1

>  <score_type>  (19) 
oracle

>  <origin>  (19) 
autodockgpu

>  <m_score__min__energy>  (19) 
-9.5099999999999998

>  <m_primary>  (19) 
energy

>  <rmsd>  (19) 
6.763359021077063

>  <m_score__min__rmsd>  (19) 
6.763359021077063

>  <meeko>  (19) 
{"free_energy": -9.36, "intermolecular_energy": -11.45, "internal_energy": -1.7, "cluster_size": 47, "cluster_id": 1, "rank_in_cluster": 12}

>  <energy>  (19) 
-9.34

>  <cluster_rmsd>  (19) 
0.41

>  <cluster>  (19) 
1

$$$$

     RDKit          3D

 70 74  0  0  0  0  0  0  0  0999 V2000
  141.4440   81.7990  221.6960 C   0  0  0  0  0  0  0  0  0  0  0  0
  141.1700   81.3150  223.0380 N   0  0  0  0  0  0  0  0  0  0  0  0
  142.2520   80.4560  223.4800 C   0  0  0  0  0  0  0  0  0  0  0  0
  142.1600   79.0510  222.9630 C   0  0  0  0  0  0  0  0  0  0  0  0
  140.8490   78.4500  223.1360 N   0  0  0  0  0  0  0  0  0  0  0  0
  140.2840   77.9720  221.9140 C   0  0  0  0  0  0  0  0  0  0  0  0
  140.2640   76.5060  221.8930 C   0  0  0  0  0  0  0  0  0  0  0  0
  139.2150   75.7230  222.3220 C   0  0  0  0  0  0  0  0  0  0  0  0
  139.2340   74.3450  222.2860 C   0  0  0  0  0  0  0  0  0  0  0  0
  140.3490   73.6570  221.7970 C   0  0  0  0  0  0  0  0  0  0  0  0
  140.3530   72.2020  221.7700 C   0  0  0  0  0  0  0  0  0  0  0  0
  139.4180   71.4410  222.2750 C   0  0  0  0  0  0  0  0  0  0  0  0
  139.5760   70.8080  223.5850 C   0  0  0  0  0  0  0  0  0  0  0  0
  140.1240   71.5700  224.5570 N   0  0  0  0  0  0  0  0  0  0  0  0
  140.3590   71.1210  225.7830 C   0  0  0  0  0  0  0  0  0  0  0  0
  140.9110   71.8560  226.8050 C   0  0  0  0  0  0  0  0  0  0  0  0
  141.1320   71.3410  228.0650 C   0  0  0  0  0  0  0  0  0  0  0  0
  140.7910   70.0130  228.3470 C   0  0  0  0  0  0  0  0  0  0  0  0
  140.2410   69.3050  227.3020 C   0  0  0  0  0  0  0  0  0  0  0  0
  140.0170   69.8040  226.0530 C   0  0  0  0  0  0  0  0  0  0  0  0
  139.4620   69.0330  225.0620 C   0  0  0  0  0  0  0  0  0  0  0  0
  139.1750   67.8390  225.3750 O   0  0  0  0  0  0  0  0  0  0  0  0
  139.2240   69.5100  223.8040 N   0  0  0  0  0  0  0  0  0  0  0  0
  138.6690   68.6870  222.7830 C   0  0  0  0  0  0  0  0  0  0  0  0
  137.2020   68.5030  222.7640 C   0  0  0  0  0  0  0  0  0  0  0  0
  136.6140   68.3710  221.4020 C   0  0  0  0  0  0  0  0  0  0  0  0
  135.1210   68.7020  221.4000 C   0  0  0  0  0  0  0  0  0  0  0  0
  134.5210   68.1990  222.6690 C   0  0  0  0  0  0  0  0  0  0  0  0
  135.0560   68.8940  223.9010 C   0  0  0  0  0  0  0  0  0  0  0  0
  136.4430   69.4670  223.6530 C   0  0  0  0  0  0  0  0  0  0  0  0
  141.3950   74.4360  221.3690 C   0  0  0  0  0  0  0  0  0  0  0  0
  141.3750   75.8240  221.4060 C   0  0  0  0  0  0  0  0  0  0  0  0
  139.9860   79.3660  223.8410 C   0  0  0  0  0  0  0  0  0  0  0  0
  139.8730   80.6830  223.0970 C   0  0  0  0  0  0  0  0  0  0  0  0
  141.9852   82.7549  221.7543 H   0  0  0  0  0  0  0  0  0  0  0  0
  142.0588   81.0618  221.1587 H   0  0  0  0  0  0  0  0  0  0  0  0
  140.4956   81.9468  221.1587 H   0  0  0  0  0  0  0  0  0  0  0  0
  143.2022   80.8905  223.1360 H   0  0  0  0  0  0  0  0  0  0  0  0
  142.1875   80.3985  224.5766 H   0  0  0  0  0  0  0  0  0  0  0  0
  142.3992   79.0596  221.8893 H   0  0  0  0  0  0  0  0  0  0  0  0
  142.8703   78.4466  223.5463 H   0  0  0  0  0  0  0  0  0  0  0  0
  139.2549   78.3489  221.8198 H   0  0  0  0  0  0  0  0  0  0  0  0
  140.8988   78.3302  221.0752 H   0  0  0  0  0  0  0  0  0  0  0  0
  138.3165   76.2227  222.7132 H   0  0  0  0  0  0  0  0  0  0  0  0
  138.3617   73.7799  222.6462 H   0  0  0  0  0  0  0  0  0  0  0  0
  141.2078   71.7049  221.2880 H   0  0  0  0  0  0  0  0  0  0  0  0
  138.4932   71.2729  221.7035 H   0  0  0  0  0  0  0  0  0  0  0  0
  141.1890   72.9021  226.6090 H   0  0  0  0  0  0  0  0  0  0  0  0
  141.5760   71.9734  228.8479 H   0  0  0  0  0  0  0  0  0  0  0  0
  140.9519   69.5645  229.3384 H   0  0  0  0  0  0  0  0  0  0  0  0
  139.9612   68.2577  227.4889 H   0  0  0  0  0  0  0  0  0  0  0  0
  138.9567   69.1256  221.8161 H   0  0  0  0  0  0  0  0  0  0  0  0
  139.0703   67.6837  222.9888 H   0  0  0  0  0  0  0  0  0  0  0  0
  137.0603   67.5152  223.2268 H   0  0  0  0  0  0  0  0  0  0  0  0
  137.1336   69.0604  220.7203 H   0  0  0  0  0  0  0  0  0  0  0  0
  136.7361   67.3283  221.0736 H   0  0  0  0  0  0  0  0  0  0  0  0
  134.9829   69.7911  221.3308 H   0  0  0  0  0  0  0  0  0  0  0  0
  134.6314   68.2255  220.5379 H   0  0  0  0  0  0  0  0  0  0  0  0
  133.4328   68.3536  222.6259 H   0  0  0  0  0  0  0  0  0  0  0  0
  134.7857   67.1348  222.7548 H   0  0  0  0  0  0  0  0  0  0  0  0
  134.3740   69.7122  224.1756 H   0  0  0  0  0  0  0  0  0  0  0  0
  135.1251   68.1561  224.7138 H   0  0  0  0  0  0  0  0  0  0  0  0
  136.3585   70.4444  223.1555 H   0  0  0  0  0  0  0  0  0  0  0  0
  136.9740   69.6025  224.6068 H   0  0  0  0  0  0  0  0  0  0  0  0
  142.2933   73.9362  220.9775 H   0  0  0  0  0  0  0  0  0  0  0  0
  142.2467   76.3905  221.0465 H   0  0  0  0  0  0  0  0  0  0  0  0
  138.9856   78.9184  223.9352 H   0  0  0  0  0  0  0  0  0  0  0  0
  140.4151   79.5592  224.8352 H   0  0  0  0  0  0  0  0  0  0  0  0
  139.5088   80.4972  222.0758 H   0  0  0  0  0  0  0  0  0  0  0  0
  139.1673   81.3424  223.6236 H   0  0  0  0  0  0  0  0  0  0  0  0
  1  2  1  0
  2  3  1  0
  3  4  1  0
  4  5  1  0
  5  6  1  0
  6  7  1  0
  7  8  2  0
  8  9  1  0
  9 10  2  0
 10 11  1  0
 11 12  2  0
 12 13  1  0
 13 14  2  0
 14 15  1  0
 15 16  2  0
 16 17  1  0
 17 18  2  0
 18 19  1  0
 19 20  2  0
 20 21  1  0
 21 22  2  0
 21 23  1  0
 23 24  1  0
 24 25  1  0
 25 26  1  0
 26 27  1  0
 27 28  1  0
 28 29  1  0
 29 30  1  0
 10 31  1  0
 31 32  2  0
  5 33  1  0
 33 34  1  0
 34  2  1  0
 32  7  1  0
 23 13  1  0
 30 25  1  0
 20 15  1  0
  1 35  1  0
  1 36  1  0
  1 37  1  0
  3 38  1  0
  3 39  1  0
  4 40  1  0
  4 41  1  0
  6 42  1  0
  6 43  1  0
  8 44  1  0
  9 45  1  0
 11 46  1  0
 12 47  1  0
 16 48  1  0
 17 49  1  0
 18 50  1  0
 19 51  1  0
 24 52  1  0
 24 53  1  0
 25 54  1  0
 26 55  1  0
 26 56  1  0
 27 57  1  0
 27 58  1  0
 28 59  1  0
 28 60  1  0
 29 61  1  0
 29 62  1  0
 30 63  1  0
 30 64  1  0
 31 65  1  0
 32 66  1  0
 33 67  1  0
 33 68  1  0
 34 69  1  0
 34 70  1  0
M  END
>  <smiles>  (20) 
CN1CCN(Cc2ccc(/C=C/c3nc4ccccc4c(=O)n3CC3CCCCC3)cc2)CC1

>  <score_type>  (20) 
oracle

>  <origin>  (20) 
autodockgpu

>  <m_score__min__energy>  (20) 
-9.5099999999999998

>  <m_primary>  (20) 
energy

>  <rmsd>  (20) 
6.835055484688019

>  <m_score__min__rmsd>  (20) 
6.835055484688019

>  <meeko>  (20) 
{"free_energy": -9.36, "intermolecular_energy": -11.45, "internal_energy": -1.7, "cluster_size": 47, "cluster_id": 1, "rank_in_cluster": 13}

>  <energy>  (20) 
-9.34

>  <cluster_rmsd>  (20) 
0.53

>  <cluster>  (20) 
1

$$$$

     RDKit          3D

 70 74  0  0  0  0  0  0  0  0999 V2000
  141.4480   82.1420  222.0310 C   0  0  0  0  0  0  0  0  0  0  0  0
  141.3170   81.4120  223.2800 N   0  0  0  0  0  0  0  0  0  0  0  0
  142.5920   80.8210  223.6400 C   0  0  0  0  0  0  0  0  0  0  0  0
  142.8860   79.5340  222.9260 C   0  0  0  0  0  0  0  0  0  0  0  0
  141.7870   78.5850  222.9600 N   0  0  0  0  0  0  0  0  0  0  0  0
  141.3740   78.1560  221.6620 C   0  0  0  0  0  0  0  0  0  0  0  0
  140.7390   76.8360  221.7300 C   0  0  0  0  0  0  0  0  0  0  0  0
  141.3730   75.6400  221.4770 C   0  0  0  0  0  0  0  0  0  0  0  0
  140.7400   74.4160  221.5520 C   0  0  0  0  0  0  0  0  0  0  0  0
  139.3890   74.3300  221.9000 C   0  0  0  0  0  0  0  0  0  0  0  0
  138.7360   73.0310  221.9710 C   0  0  0  0  0  0  0  0  0  0  0  0
  139.3570   71.8870  222.0930 C   0  0  0  0  0  0  0  0  0  0  0  0
  139.4010   71.1780  223.3720 C   0  0  0  0  0  0  0  0  0  0  0  0
  140.1620   71.7340  224.3410 N   0  0  0  0  0  0  0  0  0  0  0  0
  140.3230   71.1850  225.5380 C   0  0  0  0  0  0  0  0  0  0  0  0
  141.0830   71.7120  226.5560 C   0  0  0  0  0  0  0  0  0  0  0  0
  141.2160   71.1020  227.7850 C   0  0  0  0  0  0  0  0  0  0  0  0
  140.5610   69.8920  228.0400 C   0  0  0  0  0  0  0  0  0  0  0  0
  139.8090   69.3930  227.0000 C   0  0  0  0  0  0  0  0  0  0  0  0
  139.6690   69.9860  225.7810 C   0  0  0  0  0  0  0  0  0  0  0  0
  138.8980   69.4250  224.7940 C   0  0  0  0  0  0  0  0  0  0  0  0
  138.3300   68.3290  225.0810 O   0  0  0  0  0  0  0  0  0  0  0  0
  138.7400   70.0010  223.5660 N   0  0  0  0  0  0  0  0  0  0  0  0
  137.9550   69.3920  222.5470 C   0  0  0  0  0  0  0  0  0  0  0  0
  138.5680   68.2970  221.7630 C   0  0  0  0  0  0  0  0  0  0  0  0
  138.5180   66.9630  222.4230 C   0  0  0  0  0  0  0  0  0  0  0  0
  139.5760   66.0160  221.8550 C   0  0  0  0  0  0  0  0  0  0  0  0
  139.7040   66.2680  220.3920 C   0  0  0  0  0  0  0  0  0  0  0  0
  140.2250   67.6500  220.0650 C   0  0  0  0  0  0  0  0  0  0  0  0
  139.9290   68.6310  221.1890 C   0  0  0  0  0  0  0  0  0  0  0  0
  138.7560   75.5220  222.1530 C   0  0  0  0  0  0  0  0  0  0  0  0
  139.3940   76.7540  222.0770 C   0  0  0  0  0  0  0  0  0  0  0  0
  140.7070   79.1210  223.7520 C   0  0  0  0  0  0  0  0  0  0  0  0
  140.2400   80.4530  223.1980 C   0  0  0  0  0  0  0  0  0  0  0  0
  141.6386   83.2040  222.2452 H   0  0  0  0  0  0  0  0  0  0  0  0
  142.2863   81.7288  221.4510 H   0  0  0  0  0  0  0  0  0  0  0  0
  140.5183   82.0460  221.4510 H   0  0  0  0  0  0  0  0  0  0  0  0
  143.3882   81.5408  223.3995 H   0  0  0  0  0  0  0  0  0  0  0  0
  142.5454   80.5882  224.7141 H   0  0  0  0  0  0  0  0  0  0  0  0
  143.1142   79.7640  221.8748 H   0  0  0  0  0  0  0  0  0  0  0  0
  143.7339   79.0638  223.4455 H   0  0  0  0  0  0  0  0  0  0  0  0
  140.6554   78.8818  221.2535 H   0  0  0  0  0  0  0  0  0  0  0  0
  142.2597   78.0893  221.0131 H   0  0  0  0  0  0  0  0  0  0  0  0
  142.4377   75.6614  221.2012 H   0  0  0  0  0  0  0  0  0  0  0  0
  141.3052   73.4975  221.3354 H   0  0  0  0  0  0  0  0  0  0  0  0
  137.6375   73.0103  221.9180 H   0  0  0  0  0  0  0  0  0  0  0  0
  139.8565   71.4487  221.2164 H   0  0  0  0  0  0  0  0  0  0  0  0
  141.6081   72.6627  226.3817 H   0  0  0  0  0  0  0  0  0  0  0  0
  141.8370   71.5664  228.5652 H   0  0  0  0  0  0  0  0  0  0  0  0
  140.6415   69.3739  229.0070 H   0  0  0  0  0  0  0  0  0  0  0  0
  139.2806   68.4426  227.1659 H   0  0  0  0  0  0  0  0  0  0  0  0
  137.0526   68.9858  223.0273 H   0  0  0  0  0  0  0  0  0  0  0  0
  137.7837   70.1941  221.8140 H   0  0  0  0  0  0  0  0  0  0  0  0
  137.9054   68.2018  220.8901 H   0  0  0  0  0  0  0  0  0  0  0  0
  138.6948   67.0909  223.5011 H   0  0  0  0  0  0  0  0  0  0  0  0
  137.5267   66.5235  222.2378 H   0  0  0  0  0  0  0  0  0  0  0  0
  140.5416   66.2004  222.3486 H   0  0  0  0  0  0  0  0  0  0  0  0
  139.2790   64.9717  222.0317 H   0  0  0  0  0  0  0  0  0  0  0  0
  140.3963   65.5251  219.9692 H   0  0  0  0  0  0  0  0  0  0  0  0
  138.6958   66.1896  219.9590 H   0  0  0  0  0  0  0  0  0  0  0  0
  141.3132   67.5963  219.9132 H   0  0  0  0  0  0  0  0  0  0  0  0
  139.7225   68.0043  219.1529 H   0  0  0  0  0  0  0  0  0  0  0  0
  140.6957   68.5416  221.9727 H   0  0  0  0  0  0  0  0  0  0  0  0
  139.9367   69.6618  220.8052 H   0  0  0  0  0  0  0  0  0  0  0  0
  137.6915   75.5005  222.4294 H   0  0  0  0  0  0  0  0  0  0  0  0
  138.8303   77.6735  222.2933 H   0  0  0  0  0  0  0  0  0  0  0  0
  139.8662   78.4118  223.7416 H   0  0  0  0  0  0  0  0  0  0  0  0
  141.0672   79.2744  224.7800 H   0  0  0  0  0  0  0  0  0  0  0  0
  139.9393   80.3281  222.1473 H   0  0  0  0  0  0  0  0  0  0  0  0
  139.3820   80.8138  223.7842 H   0  0  0  0  0  0  0  0  0  0  0  0
  1  2  1  0
  2  3  1  0
  3  4  1  0
  4  5  1  0
  5  6  1  0
  6  7  1  0
  7  8  2  0
  8  9  1  0
  9 10  2  0
 10 11  1  0
 11 12  2  0
 12 13  1  0
 13 14  2  0
 14 15  1  0
 15 16  2  0
 16 17  1  0
 17 18  2  0
 18 19  1  0
 19 20  2  0
 20 21  1  0
 21 22  2  0
 21 23  1  0
 23 24  1  0
 24 25  1  0
 25 26  1  0
 26 27  1  0
 27 28  1  0
 28 29  1  0
 29 30  1  0
 10 31  1  0
 31 32  2  0
  5 33  1  0
 33 34  1  0
 34  2  1  0
 32  7  1  0
 23 13  1  0
 30 25  1  0
 20 15  1  0
  1 35  1  0
  1 36  1  0
  1 37  1  0
  3 38  1  0
  3 39  1  0
  4 40  1  0
  4 41  1  0
  6 42  1  0
  6 43  1  0
  8 44  1  0
  9 45  1  0
 11 46  1  0
 12 47  1  0
 16 48  1  0
 17 49  1  0
 18 50  1  0
 19 51  1  0
 24 52  1  0
 24 53  1  0
 25 54  1  0
 26 55  1  0
 26 56  1  0
 27 57  1  0
 27 58  1  0
 28 59  1  0
 28 60  1  0
 29 61  1  0
 29 62  1  0
 30 63  1  0
 30 64  1  0
 31 65  1  0
 32 66  1  0
 33 67  1  0
 33 68  1  0
 34 69  1  0
 34 70  1  0
M  END
>  <smiles>  (21) 
CN1CCN(Cc2ccc(/C=C/c3nc4ccccc4c(=O)n3CC3CCCCC3)cc2)CC1

>  <score_type>  (21) 
oracle

>  <origin>  (21) 
autodockgpu

>  <m_score__min__energy>  (21) 
-9.5099999999999998

>  <m_primary>  (21) 
energy

>  <rmsd>  (21) 
6.550703364966612

>  <m_score__min__rmsd>  (21) 
6.550703364966612

>  <meeko>  (21) 
{"free_energy": -9.25, "intermolecular_energy": -11.34, "internal_energy": -1.67, "cluster_size": 47, "cluster_id": 1, "rank_in_cluster": 24}

>  <energy>  (21) 
-9.27

>  <cluster_rmsd>  (21) 
0.41

>  <cluster>  (21) 
1

$$$$

     RDKit          3D

 70 74  0  0  0  0  0  0  0  0999 V2000
  139.6280   81.5000  222.6610 C   0  0  0  0  0  0  0  0  0  0  0  0
  140.4910   80.7640  223.5680 N   0  0  0  0  0  0  0  0  0  0  0  0
  141.8800   80.9930  223.2180 C   0  0  0  0  0  0  0  0  0  0  0  0
  142.3660   80.1450  222.0790 C   0  0  0  0  0  0  0  0  0  0  0  0
  142.0380   78.7380  222.2200 N   0  0  0  0  0  0  0  0  0  0  0  0
  141.3110   78.2160  221.1070 C   0  0  0  0  0  0  0  0  0  0  0  0
  141.0960   76.7730  221.2600 C   0  0  0  0  0  0  0  0  0  0  0  0
  139.9860   76.1950  221.8340 C   0  0  0  0  0  0  0  0  0  0  0  0
  139.8200   74.8320  221.9600 C   0  0  0  0  0  0  0  0  0  0  0  0
  140.7990   73.9470  221.4970 C   0  0  0  0  0  0  0  0  0  0  0  0
  140.6100   72.5110  221.6410 C   0  0  0  0  0  0  0  0  0  0  0  0
  139.5380   71.9420  222.1290 C   0  0  0  0  0  0  0  0  0  0  0  0
  139.5980   71.1120  223.3320 C   0  0  0  0  0  0  0  0  0  0  0  0
  140.1750   71.6710  224.4190 N   0  0  0  0  0  0  0  0  0  0  0  0
  140.3300   71.0270  225.5680 C   0  0  0  0  0  0  0  0  0  0  0  0
  140.9070   71.5520  226.7000 C   0  0  0  0  0  0  0  0  0  0  0  0
  141.0420   70.8400  227.8730 C   0  0  0  0  0  0  0  0  0  0  0  0
  140.5800   69.5210  227.9460 C   0  0  0  0  0  0  0  0  0  0  0  0
  140.0070   69.0260  226.7950 C   0  0  0  0  0  0  0  0  0  0  0  0
  139.8680   69.7210  225.6300 C   0  0  0  0  0  0  0  0  0  0  0  0
  139.2830   69.1560  224.5250 C   0  0  0  0  0  0  0  0  0  0  0  0
  138.8860   67.9600  224.6500 O   0  0  0  0  0  0  0  0  0  0  0  0
  139.1300   69.8320  223.3480 N   0  0  0  0  0  0  0  0  0  0  0  0
  138.5420   69.2220  222.2040 C   0  0  0  0  0  0  0  0  0  0  0  0
  139.3530   68.2420  221.4490 C   0  0  0  0  0  0  0  0  0  0  0  0
  139.6340   68.6310  220.0380 C   0  0  0  0  0  0  0  0  0  0  0  0
  139.9980   67.4170  219.1830 C   0  0  0  0  0  0  0  0  0  0  0  0
  140.8020   66.4750  220.0120 C   0  0  0  0  0  0  0  0  0  0  0  0
  140.0320   65.8940  221.1770 C   0  0  0  0  0  0  0  0  0  0  0  0
  138.8900   66.8080  221.5930 C   0  0  0  0  0  0  0  0  0  0  0  0
  141.9060   74.5220  220.9240 C   0  0  0  0  0  0  0  0  0  0  0  0
  142.0720   75.8950  220.7980 C   0  0  0  0  0  0  0  0  0  0  0  0
  141.3790   78.5170  223.4840 C   0  0  0  0  0  0  0  0  0  0  0  0
  140.1280   79.3670  223.5960 C   0  0  0  0  0  0  0  0  0  0  0  0
  138.9173   82.1061  223.2420 H   0  0  0  0  0  0  0  0  0  0  0  0
  140.2393   82.1590  222.0270 H   0  0  0  0  0  0  0  0  0  0  0  0
  139.0737   80.7923  222.0270 H   0  0  0  0  0  0  0  0  0  0  0  0
  141.9972   82.0502  222.9377 H   0  0  0  0  0  0  0  0  0  0  0  0
  142.4809   80.7214  224.0984 H   0  0  0  0  0  0  0  0  0  0  0  0
  141.9100   80.5168  221.1496 H   0  0  0  0  0  0  0  0  0  0  0  0
  143.4633   80.2204  222.0664 H   0  0  0  0  0  0  0  0  0  0  0  0
  140.3362   78.7217  221.0429 H   0  0  0  0  0  0  0  0  0  0  0  0
  141.8927   78.3920  220.1902 H   0  0  0  0  0  0  0  0  0  0  0  0
  139.1907   76.8545  222.2115 H   0  0  0  0  0  0  0  0  0  0  0  0
  138.9075   74.4363  222.4299 H   0  0  0  0  0  0  0  0  0  0  0  0
  141.4304   71.8548  221.3149 H   0  0  0  0  0  0  0  0  0  0  0  0
  138.5719   72.0907  221.6245 H   0  0  0  0  0  0  0  0  0  0  0  0
  141.2778   72.5871  226.6685 H   0  0  0  0  0  0  0  0  0  0  0  0
  141.5123   71.3081  228.7503 H   0  0  0  0  0  0  0  0  0  0  0  0
  140.6685   68.9189  228.8623 H   0  0  0  0  0  0  0  0  0  0  0  0
  139.6333   67.9917  226.8175 H   0  0  0  0  0  0  0  0  0  0  0  0
  137.6316   68.7042  222.5403 H   0  0  0  0  0  0  0  0  0  0  0  0
  138.3846   70.0516  221.4990 H   0  0  0  0  0  0  0  0  0  0  0  0
  140.3314   68.2770  221.9506 H   0  0  0  0  0  0  0  0  0  0  0  0
  138.7392   69.1107  219.6147 H   0  0  0  0  0  0  0  0  0  0  0  0
  140.4887   69.3235  220.0350 H   0  0  0  0  0  0  0  0  0  0  0  0
  139.0803   66.9174  218.8392 H   0  0  0  0  0  0  0  0  0  0  0  0
  140.5801   67.7362  218.3059 H   0  0  0  0  0  0  0  0  0  0  0  0
  141.1409   65.6480  219.3707 H   0  0  0  0  0  0  0  0  0  0  0  0
  141.6429   67.0471  220.4310 H   0  0  0  0  0  0  0  0  0  0  0  0
  139.6207   64.9169  220.8835 H   0  0  0  0  0  0  0  0  0  0  0  0
  140.7192   65.7859  222.0291 H   0  0  0  0  0  0  0  0  0  0  0  0
  138.0180   66.6319  220.9461 H   0  0  0  0  0  0  0  0  0  0  0  0
  138.6024   66.6052  222.6352 H   0  0  0  0  0  0  0  0  0  0  0  0
  142.7010   73.8625  220.5459 H   0  0  0  0  0  0  0  0  0  0  0  0
  142.9839   76.2925  220.3284 H   0  0  0  0  0  0  0  0  0  0  0  0
  141.1021   77.4555  223.5654 H   0  0  0  0  0  0  0  0  0  0  0  0
  142.0684   78.7965  224.2943 H   0  0  0  0  0  0  0  0  0  0  0  0
  139.4575   79.1454  222.7526 H   0  0  0  0  0  0  0  0  0  0  0  0
  139.6145   79.1406  224.5421 H   0  0  0  0  0  0  0  0  0  0  0  0
  1  2  1  0
  2  3  1  0
  3  4  1  0
  4  5  1  0
  5  6  1  0
  6  7  1  0
  7  8  2  0
  8  9  1  0
  9 10  2  0
 10 11  1  0
 11 12  2  0
 12 13  1  0
 13 14  2  0
 14 15  1  0
 15 16  2  0
 16 17  1  0
 17 18  2  0
 18 19  1  0
 19 20  2  0
 20 21  1  0
 21 22  2  0
 21 23  1  0
 23 24  1  0
 24 25  1  0
 25 26  1  0
 26 27  1  0
 27 28  1  0
 28 29  1  0
 29 30  1  0
 10 31  1  0
 31 32  2  0
  5 33  1  0
 33 34  1  0
 34  2  1  0
 32  7  1  0
 23 13  1  0
 30 25  1  0
 20 15  1  0
  1 35  1  0
  1 36  1  0
  1 37  1  0
  3 38  1  0
  3 39  1  0
  4 40  1  0
  4 41  1  0
  6 42  1  0
  6 43  1  0
  8 44  1  0
  9 45  1  0
 11 46  1  0
 12 47  1  0
 16 48  1  0
 17 49  1  0
 18 50  1  0
 19 51  1  0
 24 52  1  0
 24 53  1  0
 25 54  1  0
 26 55  1  0
 26 56  1  0
 27 57  1  0
 27 58  1  0
 28 59  1  0
 28 60  1  0
 29 61  1  0
 29 62  1  0
 30 63  1  0
 30 64  1  0
 31 65  1  0
 32 66  1  0
 33 67  1  0
 33 68  1  0
 34 69  1  0
 34 70  1  0
M  END
>  <smiles>  (22) 
CN1CCN(Cc2ccc(/C=C/c3nc4ccccc4c(=O)n3CC3CCCCC3)cc2)CC1

>  <score_type>  (22) 
oracle

>  <origin>  (22) 
autodockgpu

>  <m_score__min__energy>  (22) 
-9.5099999999999998

>  <m_primary>  (22) 
energy

>  <rmsd>  (22) 
6.666197455760261

>  <m_score__min__rmsd>  (22) 
6.666197455760261

>  <meeko>  (22) 
{"free_energy": -8.88, "intermolecular_energy": -10.97, "internal_energy": -1.61, "cluster_size": 47, "cluster_id": 1, "rank_in_cluster": 40}

>  <energy>  (22) 
-9.26

>  <cluster_rmsd>  (22) 
0.58

>  <cluster>  (22) 
1

$$$$

     RDKit          3D

 70 74  0  0  0  0  0  0  0  0999 V2000
  132.1030   73.0520  226.6120 C   0  0  0  0  0  0  0  0  0  0  0  0
  133.0960   74.0980  226.7820 N   0  0  0  0  0  0  0  0  0  0  0  0
  132.5370   75.3750  226.3810 C   0  0  0  0  0  0  0  0  0  0  0  0
  132.5560   75.6060  224.8990 C   0  0  0  0  0  0  0  0  0  0  0  0
  133.8410   75.3280  224.2820 N   0  0  0  0  0  0  0  0  0  0  0  0
  133.7600   74.3790  223.2180 C   0  0  0  0  0  0  0  0  0  0  0  0
  135.0840   73.8190  222.9230 C   0  0  0  0  0  0  0  0  0  0  0  0
  135.4770   72.5300  223.2050 C   0  0  0  0  0  0  0  0  0  0  0  0
  136.7320   72.0390  222.9120 C   0  0  0  0  0  0  0  0  0  0  0  0
  137.6910   72.8500  222.2960 C   0  0  0  0  0  0  0  0  0  0  0  0
  139.0120   72.3170  221.9970 C   0  0  0  0  0  0  0  0  0  0  0  0
  139.3870   71.0830  222.2080 C   0  0  0  0  0  0  0  0  0  0  0  0
  139.5670   70.5630  223.5640 C   0  0  0  0  0  0  0  0  0  0  0  0
  140.1520   71.3960  224.4520 N   0  0  0  0  0  0  0  0  0  0  0  0
  140.4100   71.0490  225.7070 C   0  0  0  0  0  0  0  0  0  0  0  0
  141.0010   71.8590  226.6480 C   0  0  0  0  0  0  0  0  0  0  0  0
  141.2440   71.4510  227.9420 C   0  0  0  0  0  0  0  0  0  0  0  0
  140.8870   70.1600  228.3470 C   0  0  0  0  0  0  0  0  0  0  0  0
  140.2980   69.3760  227.3810 C   0  0  0  0  0  0  0  0  0  0  0  0
  140.0510   69.7680  226.0980 C   0  0  0  0  0  0  0  0  0  0  0  0
  139.4570   68.9250  225.1930 C   0  0  0  0  0  0  0  0  0  0  0  0
  139.1570   67.7690  225.6150 O   0  0  0  0  0  0  0  0  0  0  0  0
  139.1970   69.2960  223.9040 N   0  0  0  0  0  0  0  0  0  0  0  0
  138.6020   68.3990  222.9720 C   0  0  0  0  0  0  0  0  0  0  0  0
  137.1770   68.6030  222.6290 C   0  0  0  0  0  0  0  0  0  0  0  0
  136.3110   68.9670  223.7850 C   0  0  0  0  0  0  0  0  0  0  0  0
  134.8400   68.6600  223.5030 C   0  0  0  0  0  0  0  0  0  0  0  0
  134.5600   68.9530  222.0680 C   0  0  0  0  0  0  0  0  0  0  0  0
  135.3180   68.0570  221.1140 C   0  0  0  0  0  0  0  0  0  0  0  0
  136.5860   67.5160  221.7560 C   0  0  0  0  0  0  0  0  0  0  0  0
  137.3000   74.1350  222.0140 C   0  0  0  0  0  0  0  0  0  0  0  0
  136.0360   74.6280  222.3110 C   0  0  0  0  0  0  0  0  0  0  0  0
  134.7970   74.9630  225.2980 C   0  0  0  0  0  0  0  0  0  0  0  0
  134.3160   73.7600  226.0860 C   0  0  0  0  0  0  0  0  0  0  0  0
  131.7687   72.6999  227.5990 H   0  0  0  0  0  0  0  0  0  0  0  0
  131.2427   73.4503  226.0541 H   0  0  0  0  0  0  0  0  0  0  0  0
  132.5454   72.2136  226.0541 H   0  0  0  0  0  0  0  0  0  0  0  0
  131.4934   75.4202  226.7256 H   0  0  0  0  0  0  0  0  0  0  0  0
  133.1647   76.1560  226.8349 H   0  0  0  0  0  0  0  0  0  0  0  0
  131.8001   74.9545  224.4361 H   0  0  0  0  0  0  0  0  0  0  0  0
  132.3454   76.6734  224.7370 H   0  0  0  0  0  0  0  0  0  0  0  0
  133.0803   73.5651  223.5106 H   0  0  0  0  0  0  0  0  0  0  0  0
  133.3813   74.8864  222.3185 H   0  0  0  0  0  0  0  0  0  0  0  0
  134.7532   71.8575  223.6886 H   0  0  0  0  0  0  0  0  0  0  0  0
  136.9817   70.9981  223.1655 H   0  0  0  0  0  0  0  0  0  0  0  0
  139.7508   73.0051  221.5603 H   0  0  0  0  0  0  0  0  0  0  0  0
  139.5711   70.4216  221.3486 H   0  0  0  0  0  0  0  0  0  0  0  0
  141.2930   72.8783  226.3549 H   0  0  0  0  0  0  0  0  0  0  0  0
  141.7185   72.1401  228.6562 H   0  0  0  0  0  0  0  0  0  0  0  0
  141.0652   69.7958  229.3696 H   0  0  0  0  0  0  0  0  0  0  0  0
  140.0039   68.3549  227.6655 H   0  0  0  0  0  0  0  0  0  0  0  0
  139.1774   68.4685  222.0371 H   0  0  0  0  0  0  0  0  0  0  0  0
  138.6279   67.4209  223.4747 H   0  0  0  0  0  0  0  0  0  0  0  0
  137.1898   69.5017  221.9949 H   0  0  0  0  0  0  0  0  0  0  0  0
  136.6329   68.3938  224.6670 H   0  0  0  0  0  0  0  0  0  0  0  0
  136.4096   70.0481  223.9626 H   0  0  0  0  0  0  0  0  0  0  0  0
  134.6361   67.5993  223.7114 H   0  0  0  0  0  0  0  0  0  0  0  0
  134.1968   69.2791  224.1456 H   0  0  0  0  0  0  0  0  0  0  0  0
  133.4827   68.8213  221.8888 H   0  0  0  0  0  0  0  0  0  0  0  0
  134.8898   69.9848  221.8764 H   0  0  0  0  0  0  0  0  0  0  0  0
  134.6737   67.2132  220.8261 H   0  0  0  0  0  0  0  0  0  0  0  0
  135.6005   68.6490  220.2310 H   0  0  0  0  0  0  0  0  0  0  0  0
  136.3458   66.6353  222.3698 H   0  0  0  0  0  0  0  0  0  0  0  0
  137.3069   67.2187  220.9802 H   0  0  0  0  0  0  0  0  0  0  0  0
  138.0231   74.8073  221.5291 H   0  0  0  0  0  0  0  0  0  0  0  0
  135.7850   75.6691  222.0597 H   0  0  0  0  0  0  0  0  0  0  0  0
  135.7567   74.7194  224.8187 H   0  0  0  0  0  0  0  0  0  0  0  0
  134.9169   75.8107  225.9887 H   0  0  0  0  0  0  0  0  0  0  0  0
  134.1261   72.9229  225.3981 H   0  0  0  0  0  0  0  0  0  0  0  0
  135.0857   73.4672  226.8153 H   0  0  0  0  0  0  0  0  0  0  0  0
  1  2  1  0
  2  3  1  0
  3  4  1  0
  4  5  1  0
  5  6  1  0
  6  7  1  0
  7  8  2  0
  8  9  1  0
  9 10  2  0
 10 11  1  0
 11 12  2  0
 12 13  1  0
 13 14  2  0
 14 15  1  0
 15 16  2  0
 16 17  1  0
 17 18  2  0
 18 19  1  0
 19 20  2  0
 20 21  1  0
 21 22  2  0
 21 23  1  0
 23 24  1  0
 24 25  1  0
 25 26  1  0
 26 27  1  0
 27 28  1  0
 28 29  1  0
 29 30  1  0
 10 31  1  0
 31 32  2  0
  5 33  1  0
 33 34  1  0
 34  2  1  0
 32  7  1  0
 23 13  1  0
 30 25  1  0
 20 15  1  0
  1 35  1  0
  1 36  1  0
  1 37  1  0
  3 38  1  0
  3 39  1  0
  4 40  1  0
  4 41  1  0
  6 42  1  0
  6 43  1  0
  8 44  1  0
  9 45  1  0
 11 46  1  0
 12 47  1  0
 16 48  1  0
 17 49  1  0
 18 50  1  0
 19 51  1  0
 24 52  1  0
 24 53  1  0
 25 54  1  0
 26 55  1  0
 26 56  1  0
 27 57  1  0
 27 58  1  0
 28 59  1  0
 28 60  1  0
 29 61  1  0
 29 62  1  0
 30 63  1  0
 30 64  1  0
 31 65  1  0
 32 66  1  0
 33 67  1  0
 33 68  1  0
 34 69  1  0
 34 70  1  0
M  END
>  <smiles>  (23) 
CN1CCN(Cc2ccc(/C=C/c3nc4ccccc4c(=O)n3CC3CCCCC3)cc2)CC1

>  <score_type>  (23) 
oracle

>  <origin>  (23) 
autodockgpu

>  <m_score__min__energy>  (23) 
-9.5099999999999998

>  <m_primary>  (23) 
energy

>  <rmsd>  (23) 
9.616425068241062

>  <m_score__min__rmsd>  (23) 
9.616425068241062

>  <meeko>  (23) 
{"free_energy": -7.55, "intermolecular_energy": -9.64, "internal_energy": -2.45, "cluster_size": 1, "cluster_id": 4, "rank_in_cluster": 1}

>  <energy>  (23) 
-9.26

>  <cluster_rmsd>  (23) 
1.09

>  <cluster>  (23) 
1

$$$$

     RDKit          3D

 70 74  0  0  0  0  0  0  0  0999 V2000
  141.4430   82.0620  221.8490 C   0  0  0  0  0  0  0  0  0  0  0  0
  141.3460   81.3850  223.1310 N   0  0  0  0  0  0  0  0  0  0  0  0
  142.6130   80.7550  223.4510 C   0  0  0  0  0  0  0  0  0  0  0  0
  142.8200   79.4320  222.7760 C   0  0  0  0  0  0  0  0  0  0  0  0
  141.6880   78.5300  222.9010 N   0  0  0  0  0  0  0  0  0  0  0  0
  141.1940   78.0710  221.6420 C   0  0  0  0  0  0  0  0  0  0  0  0
  140.6220   76.7260  221.7700 C   0  0  0  0  0  0  0  0  0  0  0  0
  139.3430   76.4480  222.2000 C   0  0  0  0  0  0  0  0  0  0  0  0
  138.8410   75.1680  222.3070 C   0  0  0  0  0  0  0  0  0  0  0  0
  139.6290   74.0610  221.9760 C   0  0  0  0  0  0  0  0  0  0  0  0
  139.0840   72.7170  222.0990 C   0  0  0  0  0  0  0  0  0  0  0  0
  139.7970   71.6320  222.2500 C   0  0  0  0  0  0  0  0  0  0  0  0
  139.8370   70.9180  223.5270 C   0  0  0  0  0  0  0  0  0  0  0  0
  140.3340   71.6020  224.5810 N   0  0  0  0  0  0  0  0  0  0  0  0
  140.4620   71.0740  225.7910 C   0  0  0  0  0  0  0  0  0  0  0  0
  140.9590   71.7270  226.8940 C   0  0  0  0  0  0  0  0  0  0  0  0
  141.0690   71.1320  228.1330 C   0  0  0  0  0  0  0  0  0  0  0  0
  140.6650   69.8040  228.3080 C   0  0  0  0  0  0  0  0  0  0  0  0
  140.1720   69.1790  227.1840 C   0  0  0  0  0  0  0  0  0  0  0  0
  140.0580   69.7570  225.9540 C   0  0  0  0  0  0  0  0  0  0  0  0
  139.5540   69.0660  224.8820 C   0  0  0  0  0  0  0  0  0  0  0  0
  139.2050   67.8670  225.1000 O   0  0  0  0  0  0  0  0  0  0  0  0
  139.4270   69.6230  223.6410 N   0  0  0  0  0  0  0  0  0  0  0  0
  138.9240   68.8830  222.5340 C   0  0  0  0  0  0  0  0  0  0  0  0
  137.4560   68.7950  222.3710 C   0  0  0  0  0  0  0  0  0  0  0  0
  136.6740   69.4470  223.4580 C   0  0  0  0  0  0  0  0  0  0  0  0
  135.2480   68.9020  223.5290 C   0  0  0  0  0  0  0  0  0  0  0  0
  134.7710   68.6350  222.1420 C   0  0  0  0  0  0  0  0  0  0  0  0
  135.5520   67.5480  221.4380 C   0  0  0  0  0  0  0  0  0  0  0  0
  136.9520   67.4110  222.0180 C   0  0  0  0  0  0  0  0  0  0  0  0
  140.9040   74.3370  221.5470 C   0  0  0  0  0  0  0  0  0  0  0  0
  141.4080   75.6270  221.4400 C   0  0  0  0  0  0  0  0  0  0  0  0
  140.6710   79.1400  223.7220 C   0  0  0  0  0  0  0  0  0  0  0  0
  140.2290   80.4680  223.1390 C   0  0  0  0  0  0  0  0  0  0  0  0
  141.5973   83.1386  222.0136 H   0  0  0  0  0  0  0  0  0  0  0  0
  142.2916   81.6526  221.2814 H   0  0  0  0  0  0  0  0  0  0  0  0
  140.5135   81.9073  221.2814 H   0  0  0  0  0  0  0  0  0  0  0  0
  143.4239   81.4316  223.1435 H   0  0  0  0  0  0  0  0  0  0  0  0
  142.6108   80.5644  224.5344 H   0  0  0  0  0  0  0  0  0  0  0  0
  143.0039   79.6126  221.7066 H   0  0  0  0  0  0  0  0  0  0  0  0
  143.6738   78.9476  223.2723 H   0  0  0  0  0  0  0  0  0  0  0  0
  140.4160   78.7621  221.2854 H   0  0  0  0  0  0  0  0  0  0  0  0
  142.0284   78.0344  220.9261 H   0  0  0  0  0  0  0  0  0  0  0  0
  138.6890   77.2897  222.4718 H   0  0  0  0  0  0  0  0  0  0  0  0
  137.8092   75.0160  222.6566 H   0  0  0  0  0  0  0  0  0  0  0  0
  137.9902   72.6061  222.0621 H   0  0  0  0  0  0  0  0  0  0  0  0
  140.3791   71.2475  221.3996 H   0  0  0  0  0  0  0  0  0  0  0  0
  141.2838   72.7721  226.7830 H   0  0  0  0  0  0  0  0  0  0  0  0
  141.4740   71.7009  228.9829 H   0  0  0  0  0  0  0  0  0  0  0  0
  140.7364   69.2927  229.2793 H   0  0  0  0  0  0  0  0  0  0  0  0
  139.8452   68.1337  227.2862 H   0  0  0  0  0  0  0  0  0  0  0  0
  139.3282   69.3440  221.6207 H   0  0  0  0  0  0  0  0  0  0  0  0
  139.2433   67.8479  222.7255 H   0  0  0  0  0  0  0  0  0  0  0  0
  137.2585   69.4073  221.4788 H   0  0  0  0  0  0  0  0  0  0  0  0
  137.1755   69.2615  224.4193 H   0  0  0  0  0  0  0  0  0  0  0  0
  136.6205   70.5248  223.2447 H   0  0  0  0  0  0  0  0  0  0  0  0
  135.2366   67.9686  224.1109 H   0  0  0  0  0  0  0  0  0  0  0  0
  134.5896   69.6350  224.0182 H   0  0  0  0  0  0  0  0  0  0  0  0
  133.7148   68.3312  222.1888 H   0  0  0  0  0  0  0  0  0  0  0  0
  134.9116   69.5615  221.5659 H   0  0  0  0  0  0  0  0  0  0  0  0
  135.0206   66.5919  221.5543 H   0  0  0  0  0  0  0  0  0  0  0  0
  135.6407   67.8163  220.3749 H   0  0  0  0  0  0  0  0  0  0  0  0
  136.9210   66.7844  222.9216 H   0  0  0  0  0  0  0  0  0  0  0  0
  137.6222   66.9383  221.2849 H   0  0  0  0  0  0  0  0  0  0  0  0
  141.5581   73.4955  221.2748 H   0  0  0  0  0  0  0  0  0  0  0  0
  142.4396   75.7810  221.0906 H   0  0  0  0  0  0  0  0  0  0  0  0
  139.8036   78.4661  223.7809 H   0  0  0  0  0  0  0  0  0  0  0  0
  141.0884   79.3178  224.7241 H   0  0  0  0  0  0  0  0  0  0  0  0
  139.8716   80.3161  222.1098 H   0  0  0  0  0  0  0  0  0  0  0  0
  139.4158   80.8852  223.7511 H   0  0  0  0  0  0  0  0  0  0  0  0
  1  2  1  0
  2  3  1  0
  3  4  1  0
  4  5  1  0
  5  6  1  0
  6  7  1  0
  7  8  2  0
  8  9  1  0
  9 10  2  0
 10 11  1  0
 11 12  2  0
 12 13  1  0
 13 14  2  0
 14 15  1  0
 15 16  2  0
 16 17  1  0
 17 18  2  0
 18 19  1  0
 19 20  2  0
 20 21  1  0
 21 22  2  0
 21 23  1  0
 23 24  1  0
 24 25  1  0
 25 26  1  0
 26 27  1  0
 27 28  1  0
 28 29  1  0
 29 30  1  0
 10 31  1  0
 31 32  2  0
  5 33  1  0
 33 34  1  0
 34  2  1  0
 32  7  1  0
 23 13  1  0
 30 25  1  0
 20 15  1  0
  1 35  1  0
  1 36  1  0
  1 37  1  0
  3 38  1  0
  3 39  1  0
  4 40  1  0
  4 41  1  0
  6 42  1  0
  6 43  1  0
  8 44  1  0
  9 45  1  0
 11 46  1  0
 12 47  1  0
 16 48  1  0
 17 49  1  0
 18 50  1  0
 19 51  1  0
 24 52  1  0
 24 53  1  0
 25 54  1  0
 26 55  1  0
 26 56  1  0
 27 57  1  0
 27 58  1  0
 28 59  1  0
 28 60  1  0
 29 61  1  0
 29 62  1  0
 30 63  1  0
 30 64  1  0
 31 65  1  0
 32 66  1  0
 33 67  1  0
 33 68  1  0
 34 69  1  0
 34 70  1  0
M  END
>  <smiles>  (24) 
CN1CCN(Cc2ccc(/C=C/c3nc4ccccc4c(=O)n3CC3CCCCC3)cc2)CC1

>  <score_type>  (24) 
oracle

>  <origin>  (24) 
autodockgpu

>  <m_score__min__energy>  (24) 
-9.5099999999999998

>  <m_primary>  (24) 
energy

>  <rmsd>  (24) 
6.738725753468338

>  <m_score__min__rmsd>  (24) 
6.738725753468338

>  <meeko>  (24) 
{"free_energy": -9.51, "intermolecular_energy": -11.6, "internal_energy": -1.68, "cluster_size": 47, "cluster_id": 1, "rank_in_cluster": 1}

>  <energy>  (24) 
-9.25

>  <cluster_rmsd>  (24) 
1.11

>  <cluster>  (24) 
1

$$$$

     RDKit          3D

 70 74  0  0  0  0  0  0  0  0999 V2000
  141.8120   81.6710  221.4460 C   0  0  0  0  0  0  0  0  0  0  0  0
  141.3040   81.5690  222.8040 N   0  0  0  0  0  0  0  0  0  0  0  0
  142.0250   80.5340  223.5200 C   0  0  0  0  0  0  0  0  0  0  0  0
  141.5290   79.1460  223.2380 C   0  0  0  0  0  0  0  0  0  0  0  0
  140.0870   79.0100  223.3380 N   0  0  0  0  0  0  0  0  0  0  0  0
  139.4880   78.4880  222.1510 C   0  0  0  0  0  0  0  0  0  0  0  0
  139.7120   77.0410  222.0520 C   0  0  0  0  0  0  0  0  0  0  0  0
  140.8990   76.4480  221.6840 C   0  0  0  0  0  0  0  0  0  0  0  0
  141.0710   75.0830  221.6030 C   0  0  0  0  0  0  0  0  0  0  0  0
  140.0190   74.2100  221.9000 C   0  0  0  0  0  0  0  0  0  0  0  0
  140.2160   72.7720  221.8060 C   0  0  0  0  0  0  0  0  0  0  0  0
  140.2470   71.9520  222.8240 C   0  0  0  0  0  0  0  0  0  0  0  0
  139.0210   71.3580  223.3590 C   0  0  0  0  0  0  0  0  0  0  0  0
  137.8650   71.9840  223.0480 N   0  0  0  0  0  0  0  0  0  0  0  0
  136.6820   71.5790  223.4890 C   0  0  0  0  0  0  0  0  0  0  0  0
  135.4790   72.1800  223.2000 C   0  0  0  0  0  0  0  0  0  0  0  0
  134.2740   71.7170  223.6830 C   0  0  0  0  0  0  0  0  0  0  0  0
  134.2400   70.5880  224.5090 C   0  0  0  0  0  0  0  0  0  0  0  0
  135.4600   70.0110  224.7800 C   0  0  0  0  0  0  0  0  0  0  0  0
  136.6580   70.4590  224.3070 C   0  0  0  0  0  0  0  0  0  0  0  0
  137.8350   69.8260  224.6220 C   0  0  0  0  0  0  0  0  0  0  0  0
  137.7420   68.8110  225.3740 O   0  0  0  0  0  0  0  0  0  0  0  0
  139.0470   70.2540  224.1580 N   0  0  0  0  0  0  0  0  0  0  0  0
  140.2590   69.5990  224.5150 C   0  0  0  0  0  0  0  0  0  0  0  0
  140.6670   69.6240  225.9370 C   0  0  0  0  0  0  0  0  0  0  0  0
  140.3940   68.3610  226.6790 C   0  0  0  0  0  0  0  0  0  0  0  0
  140.3390   68.5970  228.1890 C   0  0  0  0  0  0  0  0  0  0  0  0
  141.3590   69.6240  228.5460 C   0  0  0  0  0  0  0  0  0  0  0  0
  141.0780   70.9830  227.9450 C   0  0  0  0  0  0  0  0  0  0  0  0
  140.2310   70.8650  226.6870 C   0  0  0  0  0  0  0  0  0  0  0  0
  138.8350   74.8010  222.2680 C   0  0  0  0  0  0  0  0  0  0  0  0
  138.6630   76.1760  222.3490 C   0  0  0  0  0  0  0  0  0  0  0  0
  139.5110   80.2630  223.7620 C   0  0  0  0  0  0  0  0  0  0  0  0
  139.8730   81.3770  222.7990 C   0  0  0  0  0  0  0  0  0  0  0  0
  142.8901   81.8875  221.4731 H   0  0  0  0  0  0  0  0  0  0  0  0
  141.6420   80.7208  220.9186 H   0  0  0  0  0  0  0  0  0  0  0  0
  141.2883   82.4819  220.9186 H   0  0  0  0  0  0  0  0  0  0  0  0
  143.0856   80.5884  223.2335 H   0  0  0  0  0  0  0  0  0  0  0  0
  141.8694   80.7184  224.5932 H   0  0  0  0  0  0  0  0  0  0  0  0
  141.8341   78.8687  222.2182 H   0  0  0  0  0  0  0  0  0  0  0  0
  141.9678   78.4866  224.0013 H   0  0  0  0  0  0  0  0  0  0  0  0
  138.4061   78.6854  222.1753 H   0  0  0  0  0  0  0  0  0  0  0  0
  139.9450   78.9778  221.2785 H   0  0  0  0  0  0  0  0  0  0  0  0
  141.7537   77.0969  221.4423 H   0  0  0  0  0  0  0  0  0  0  0  0
  142.0470   74.6751  221.3012 H   0  0  0  0  0  0  0  0  0  0  0  0
  140.3490   72.3417  220.8024 H   0  0  0  0  0  0  0  0  0  0  0  0
  141.2133   71.7038  223.2873 H   0  0  0  0  0  0  0  0  0  0  0  0
  135.4786   73.0705  222.5542 H   0  0  0  0  0  0  0  0  0  0  0  0
  133.3398   72.2345  223.4194 H   0  0  0  0  0  0  0  0  0  0  0  0
  133.2995   70.1876  224.9153 H   0  0  0  0  0  0  0  0  0  0  0  0
  135.4693   69.1214  225.4269 H   0  0  0  0  0  0  0  0  0  0  0  0
  140.1597   68.5436  224.2213 H   0  0  0  0  0  0  0  0  0  0  0  0
  141.0433   70.1669  223.9931 H   0  0  0  0  0  0  0  0  0  0  0  0
  141.7640   69.6900  225.8897 H   0  0  0  0  0  0  0  0  0  0  0  0
  139.4284   67.9527  226.3459 H   0  0  0  0  0  0  0  0  0  0  0  0
  141.2115   67.6552  226.4702 H   0  0  0  0  0  0  0  0  0  0  0  0
  139.3380   68.9544  228.4722 H   0  0  0  0  0  0  0  0  0  0  0  0
  140.5463   67.6587  228.7244 H   0  0  0  0  0  0  0  0  0  0  0  0
  141.3836   69.7252  229.6411 H   0  0  0  0  0  0  0  0  0  0  0  0
  142.3216   69.2813  228.1387 H   0  0  0  0  0  0  0  0  0  0  0  0
  140.5408   71.5972  228.6827 H   0  0  0  0  0  0  0  0  0  0  0  0
  142.0372   71.4494  227.6760 H   0  0  0  0  0  0  0  0  0  0  0  0
  139.1687   70.7810  226.9600 H   0  0  0  0  0  0  0  0  0  0  0  0
  140.3627   71.7561  226.0556 H   0  0  0  0  0  0  0  0  0  0  0  0
  137.9804   74.1523  222.5107 H   0  0  0  0  0  0  0  0  0  0  0  0
  137.6879   76.5860  222.6509 H   0  0  0  0  0  0  0  0  0  0  0  0
  138.4164   80.1616  223.8007 H   0  0  0  0  0  0  0  0  0  0  0  0
  139.9084   80.5144  224.7564 H   0  0  0  0  0  0  0  0  0  0  0  0
  139.5424   81.1075  221.7851 H   0  0  0  0  0  0  0  0  0  0  0  0
  139.3763   82.3078  223.1104 H   0  0  0  0  0  0  0  0  0  0  0  0
  1  2  1  0
  2  3  1  0
  3  4  1  0
  4  5  1  0
  5  6  1  0
  6  7  1  0
  7  8  2  0
  8  9  1  0
  9 10  2  0
 10 11  1  0
 11 12  2  0
 12 13  1  0
 13 14  2  0
 14 15  1  0
 15 16  2  0
 16 17  1  0
 17 18  2  0
 18 19  1  0
 19 20  2  0
 20 21  1  0
 21 22  2  0
 21 23  1  0
 23 24  1  0
 24 25  1  0
 25 26  1  0
 26 27  1  0
 27 28  1  0
 28 29  1  0
 29 30  1  0
 10 31  1  0
 31 32  2  0
  5 33  1  0
 33 34  1  0
 34  2  1  0
 32  7  1  0
 23 13  1  0
 30 25  1  0
 20 15  1  0
  1 35  1  0
  1 36  1  0
  1 37  1  0
  3 38  1  0
  3 39  1  0
  4 40  1  0
  4 41  1  0
  6 42  1  0
  6 43  1  0
  8 44  1  0
  9 45  1  0
 11 46  1  0
 12 47  1  0
 16 48  1  0
 17 49  1  0
 18 50  1  0
 19 51  1  0
 24 52  1  0
 24 53  1  0
 25 54  1  0
 26 55  1  0
 26 56  1  0
 27 57  1  0
 27 58  1  0
 28 59  1  0
 28 60  1  0
 29 61  1  0
 29 62  1  0
 30 63  1  0
 30 64  1  0
 31 65  1  0
 32 66  1  0
 33 67  1  0
 33 68  1  0
 34 69  1  0
 34 70  1  0
M  END
>  <smiles>  (25) 
CN1CCN(Cc2ccc(/C=C/c3nc4ccccc4c(=O)n3CC3CCCCC3)cc2)CC1

>  <score_type>  (25) 
oracle

>  <origin>  (25) 
autodockgpu

>  <m_score__min__energy>  (25) 
-9.5099999999999998

>  <m_primary>  (25) 
energy

>  <rmsd>  (25) 
6.453156869249978

>  <m_score__min__rmsd>  (25) 
6.453156869249978

>  <meeko>  (25) 
{"free_energy": -8.3, "intermolecular_energy": -10.39, "internal_energy": -1.75, "cluster_size": 1, "cluster_id": 2, "rank_in_cluster": 1}

>  <energy>  (25) 
-9.23

>  <cluster_rmsd>  (25) 
0.5

>  <cluster>  (25) 
1

$$$$

     RDKit          3D

 70 74  0  0  0  0  0  0  0  0999 V2000
  141.4250   82.0540  221.7950 C   0  0  0  0  0  0  0  0  0  0  0  0
  141.2300   81.4060  223.0810 N   0  0  0  0  0  0  0  0  0  0  0  0
  142.4570   80.7510  223.4920 C   0  0  0  0  0  0  0  0  0  0  0  0
  142.6700   79.4090  222.8560 C   0  0  0  0  0  0  0  0  0  0  0  0
  141.5080   78.5400  222.9270 N   0  0  0  0  0  0  0  0  0  0  0  0
  141.0810   78.0680  221.6480 C   0  0  0  0  0  0  0  0  0  0  0  0
  140.5810   76.6920  221.7450 C   0  0  0  0  0  0  0  0  0  0  0  0
  141.3200   75.5610  221.4770 C   0  0  0  0  0  0  0  0  0  0  0  0
  140.8140   74.2830  221.5800 C   0  0  0  0  0  0  0  0  0  0  0  0
  139.4890   74.0680  221.9740 C   0  0  0  0  0  0  0  0  0  0  0  0
  138.9700   72.7120  222.0750 C   0  0  0  0  0  0  0  0  0  0  0  0
  139.7000   71.6420  222.2480 C   0  0  0  0  0  0  0  0  0  0  0  0
  139.7840   70.9810  223.5510 C   0  0  0  0  0  0  0  0  0  0  0  0
  140.3240   71.7040  224.5570 N   0  0  0  0  0  0  0  0  0  0  0  0
  140.4940   71.2250  225.7820 C   0  0  0  0  0  0  0  0  0  0  0  0
  141.0350   71.9200  226.8380 C   0  0  0  0  0  0  0  0  0  0  0  0
  141.1890   71.3750  228.0950 C   0  0  0  0  0  0  0  0  0  0  0  0
  140.7870   70.0570  228.3390 C   0  0  0  0  0  0  0  0  0  0  0  0
  140.2500   69.3890  227.2610 C   0  0  0  0  0  0  0  0  0  0  0  0
  140.0920   69.9170  226.0140 C   0  0  0  0  0  0  0  0  0  0  0  0
  139.5450   69.1860  224.9900 C   0  0  0  0  0  0  0  0  0  0  0  0
  139.2010   67.9990  225.2700 O   0  0  0  0  0  0  0  0  0  0  0  0
  139.3740   69.6940  223.7330 N   0  0  0  0  0  0  0  0  0  0  0  0
  138.8270   68.9110  222.6770 C   0  0  0  0  0  0  0  0  0  0  0  0
  137.3710   68.6530  222.6900 C   0  0  0  0  0  0  0  0  0  0  0  0
  136.7620   68.4850  221.3410 C   0  0  0  0  0  0  0  0  0  0  0  0
  135.2540   68.7400  221.3700 C   0  0  0  0  0  0  0  0  0  0  0  0
  134.7070   68.2140  222.6530 C   0  0  0  0  0  0  0  0  0  0  0  0
  135.2320   68.9410  223.8710 C   0  0  0  0  0  0  0  0  0  0  0  0
  136.5830   69.5820  223.5910 C   0  0  0  0  0  0  0  0  0  0  0  0
  138.7520   75.1940  222.2430 C   0  0  0  0  0  0  0  0  0  0  0  0
  139.2630   76.4820  222.1370 C   0  0  0  0  0  0  0  0  0  0  0  0
  140.4590   79.1920  223.6710 C   0  0  0  0  0  0  0  0  0  0  0  0
  140.0910   80.5190  223.0360 C   0  0  0  0  0  0  0  0  0  0  0  0
  141.7387   83.0964  221.9535 H   0  0  0  0  0  0  0  0  0  0  0  0
  142.2020   81.5193  221.2290 H   0  0  0  0  0  0  0  0  0  0  0  0
  140.4819   82.0369  221.2290 H   0  0  0  0  0  0  0  0  0  0  0  0
  143.3034   81.4002  223.2234 H   0  0  0  0  0  0  0  0  0  0  0  0
  142.3825   80.5831  224.5766 H   0  0  0  0  0  0  0  0  0  0  0  0
  142.9249   79.5627  221.7971 H   0  0  0  0  0  0  0  0  0  0  0  0
  143.4781   78.9128  223.4135 H   0  0  0  0  0  0  0  0  0  0  0  0
  140.2776   78.7188  221.2724 H   0  0  0  0  0  0  0  0  0  0  0  0
  141.9387   78.0856  220.9595 H   0  0  0  0  0  0  0  0  0  0  0  0
  142.3676   75.6839  221.1648 H   0  0  0  0  0  0  0  0  0  0  0  0
  141.4593   73.4224  221.3498 H   0  0  0  0  0  0  0  0  0  0  0  0
  137.8808   72.5777  222.0000 H   0  0  0  0  0  0  0  0  0  0  0  0
  140.2626   71.2299  221.3973 H   0  0  0  0  0  0  0  0  0  0  0  0
  141.3596   72.9579  226.6723 H   0  0  0  0  0  0  0  0  0  0  0  0
  141.6275   71.9757  228.9055 H   0  0  0  0  0  0  0  0  0  0  0  0
  140.8930   69.5854  229.3271 H   0  0  0  0  0  0  0  0  0  0  0  0
  139.9237   68.3503  227.4181 H   0  0  0  0  0  0  0  0  0  0  0  0
  139.0602   69.4254  221.7330 H   0  0  0  0  0  0  0  0  0  0  0  0
  139.2843   67.9186  222.8038 H   0  0  0  0  0  0  0  0  0  0  0  0
  137.2892   67.6617  223.1597 H   0  0  0  0  0  0  0  0  0  0  0  0
  137.2314   69.1967  220.6460 H   0  0  0  0  0  0  0  0  0  0  0  0
  136.9301   67.4484  221.0135 H   0  0  0  0  0  0  0  0  0  0  0  0
  135.0595   69.8204  221.2995 H   0  0  0  0  0  0  0  0  0  0  0  0
  134.7712   68.2347  220.5205 H   0  0  0  0  0  0  0  0  0  0  0  0
  133.6117   68.3136  222.6323 H   0  0  0  0  0  0  0  0  0  0  0  0
  135.0268   67.1649  222.7373 H   0  0  0  0  0  0  0  0  0  0  0  0
  134.5155   69.7251  224.1571 H   0  0  0  0  0  0  0  0  0  0  0  0
  135.3553   68.2115  224.6851 H   0  0  0  0  0  0  0  0  0  0  0  0
  136.4387   70.5513  223.0914 H   0  0  0  0  0  0  0  0  0  0  0  0
  137.1265   69.7489  224.5327 H   0  0  0  0  0  0  0  0  0  0  0  0
  137.7053   75.0710  222.5580 H   0  0  0  0  0  0  0  0  0  0  0  0
  138.6188   77.3439  222.3653 H   0  0  0  0  0  0  0  0  0  0  0  0
  139.5716   78.5421  223.6877 H   0  0  0  0  0  0  0  0  0  0  0  0
  140.8171   79.3788  224.6942 H   0  0  0  0  0  0  0  0  0  0  0  0
  139.7949   80.3551  221.9894 H   0  0  0  0  0  0  0  0  0  0  0  0
  139.2529   80.9698  223.5876 H   0  0  0  0  0  0  0  0  0  0  0  0
  1  2  1  0
  2  3  1  0
  3  4  1  0
  4  5  1  0
  5  6  1  0
  6  7  1  0
  7  8  2  0
  8  9  1  0
  9 10  2  0
 10 11  1  0
 11 12  2  0
 12 13  1  0
 13 14  2  0
 14 15  1  0
 15 16  2  0
 16 17  1  0
 17 18  2  0
 18 19  1  0
 19 20  2  0
 20 21  1  0
 21 22  2  0
 21 23  1  0
 23 24  1  0
 24 25  1  0
 25 26  1  0
 26 27  1  0
 27 28  1  0
 28 29  1  0
 29 30  1  0
 10 31  1  0
 31 32  2  0
  5 33  1  0
 33 34  1  0
 34  2  1  0
 32  7  1  0
 23 13  1  0
 30 25  1  0
 20 15  1  0
  1 35  1  0
  1 36  1  0
  1 37  1  0
  3 38  1  0
  3 39  1  0
  4 40  1  0
  4 41  1  0
  6 42  1  0
  6 43  1  0
  8 44  1  0
  9 45  1  0
 11 46  1  0
 12 47  1  0
 16 48  1  0
 17 49  1  0
 18 50  1  0
 19 51  1  0
 24 52  1  0
 24 53  1  0
 25 54  1  0
 26 55  1  0
 26 56  1  0
 27 57  1  0
 27 58  1  0
 28 59  1  0
 28 60  1  0
 29 61  1  0
 29 62  1  0
 30 63  1  0
 30 64  1  0
 31 65  1  0
 32 66  1  0
 33 67  1  0
 33 68  1  0
 34 69  1  0
 34 70  1  0
M  END
>  <smiles>  (26) 
CN1CCN(Cc2ccc(/C=C/c3nc4ccccc4c(=O)n3CC3CCCCC3)cc2)CC1

>  <score_type>  (26) 
oracle

>  <origin>  (26) 
autodockgpu

>  <m_score__min__energy>  (26) 
-9.5099999999999998

>  <m_primary>  (26) 
energy

>  <rmsd>  (26) 
6.557957610883096

>  <m_score__min__rmsd>  (26) 
6.557957610883096

>  <meeko>  (26) 
{"free_energy": -9.44, "intermolecular_energy": -11.53, "internal_energy": -1.73, "cluster_size": 47, "cluster_id": 1, "rank_in_cluster": 6}

>  <energy>  (26) 
-9.23

>  <cluster_rmsd>  (26) 
0.5

>  <cluster>  (26) 
1

$$$$

     RDKit          3D

 70 74  0  0  0  0  0  0  0  0999 V2000
  135.9170   84.7480  227.7030 C   0  0  0  0  0  0  0  0  0  0  0  0
  134.9020   83.7110  227.7710 N   0  0  0  0  0  0  0  0  0  0  0  0
  135.4810   82.4920  228.3050 C   0  0  0  0  0  0  0  0  0  0  0  0
  136.2310   81.6820  227.2890 C   0  0  0  0  0  0  0  0  0  0  0  0
  135.4960   81.4710  226.0540 N   0  0  0  0  0  0  0  0  0  0  0  0
  136.2070   81.9080  224.8950 C   0  0  0  0  0  0  0  0  0  0  0  0
  136.8580   80.7750  224.2290 C   0  0  0  0  0  0  0  0  0  0  0  0
  136.2230   79.8710  223.4060 C   0  0  0  0  0  0  0  0  0  0  0  0
  136.8700   78.8170  222.7960 C   0  0  0  0  0  0  0  0  0  0  0  0
  138.2390   78.6100  222.9900 C   0  0  0  0  0  0  0  0  0  0  0  0
  138.9060   77.4900  222.3420 C   0  0  0  0  0  0  0  0  0  0  0  0
  140.1080   77.0650  222.6310 C   0  0  0  0  0  0  0  0  0  0  0  0
  141.0330   76.6290  221.5850 C   0  0  0  0  0  0  0  0  0  0  0  0
  141.4520   75.3460  221.6520 N   0  0  0  0  0  0  0  0  0  0  0  0
  142.3150   74.8210  220.7920 C   0  0  0  0  0  0  0  0  0  0  0  0
  142.7700   73.5240  220.8160 C   0  0  0  0  0  0  0  0  0  0  0  0
  143.6670   73.0260  219.8960 C   0  0  0  0  0  0  0  0  0  0  0  0
  144.1580   73.8540  218.8810 C   0  0  0  0  0  0  0  0  0  0  0  0
  143.6840   75.1470  218.8850 C   0  0  0  0  0  0  0  0  0  0  0  0
  142.7950   75.6500  219.7890 C   0  0  0  0  0  0  0  0  0  0  0  0
  142.3680   76.9520  219.7250 C   0  0  0  0  0  0  0  0  0  0  0  0
  142.8470   77.6540  218.7850 O   0  0  0  0  0  0  0  0  0  0  0  0
  141.4770   77.4790  220.6160 N   0  0  0  0  0  0  0  0  0  0  0  0
  141.0640   78.8400  220.5490 C   0  0  0  0  0  0  0  0  0  0  0  0
  141.3060   79.6960  221.7300 C   0  0  0  0  0  0  0  0  0  0  0  0
  141.0380   81.1440  221.5080 C   0  0  0  0  0  0  0  0  0  0  0  0
  141.7700   82.0140  222.5300 C   0  0  0  0  0  0  0  0  0  0  0  0
  141.7640   81.3110  223.8440 C   0  0  0  0  0  0  0  0  0  0  0  0
  142.5410   80.0130  223.8330 C   0  0  0  0  0  0  0  0  0  0  0  0
  142.6230   79.4310  222.4300 C   0  0  0  0  0  0  0  0  0  0  0  0
  138.8730   79.5100  223.8100 C   0  0  0  0  0  0  0  0  0  0  0  0
  138.2200   80.5710  224.4240 C   0  0  0  0  0  0  0  0  0  0  0  0
  134.1810   82.0520  226.1670 C   0  0  0  0  0  0  0  0  0  0  0  0
  134.2700   83.5320  226.4850 C   0  0  0  0  0  0  0  0  0  0  0  0
  136.2072   85.0444  228.7218 H   0  0  0  0  0  0  0  0  0  0  0  0
  136.7981   84.3642  227.1679 H   0  0  0  0  0  0  0  0  0  0  0  0
  135.5144   85.6206  227.1679 H   0  0  0  0  0  0  0  0  0  0  0  0
  136.1757   82.7633  229.1136 H   0  0  0  0  0  0  0  0  0  0  0  0
  134.6462   81.8690  228.6584 H   0  0  0  0  0  0  0  0  0  0  0  0
  137.1684   82.2057  227.0503 H   0  0  0  0  0  0  0  0  0  0  0  0
  136.4060   80.6909  227.7329 H   0  0  0  0  0  0  0  0  0  0  0  0
  135.5019   82.3814  224.1959 H   0  0  0  0  0  0  0  0  0  0  0  0
  136.9790   82.6280  225.2040 H   0  0  0  0  0  0  0  0  0  0  0  0
  135.1450   79.9963  223.2263 H   0  0  0  0  0  0  0  0  0  0  0  0
  136.3026   78.1314  222.1495 H   0  0  0  0  0  0  0  0  0  0  0  0
  138.3569   76.9612  221.5490 H   0  0  0  0  0  0  0  0  0  0  0  0
  140.4304   77.0346  223.6822 H   0  0  0  0  0  0  0  0  0  0  0  0
  142.4012   72.8530  221.6057 H   0  0  0  0  0  0  0  0  0  0  0  0
  143.9966   71.9785  219.9597 H   0  0  0  0  0  0  0  0  0  0  0  0
  144.8760   73.4956  218.1286 H   0  0  0  0  0  0  0  0  0  0  0  0
  144.0499   75.8252  218.1000 H   0  0  0  0  0  0  0  0  0  0  0  0
  141.5883   79.2998  219.6983 H   0  0  0  0  0  0  0  0  0  0  0  0
  139.9684   78.7916  220.4636 H   0  0  0  0  0  0  0  0  0  0  0  0
  140.5332   79.3750  222.4440 H   0  0  0  0  0  0  0  0  0  0  0  0
  141.3756   81.4189  220.4978 H   0  0  0  0  0  0  0  0  0  0  0  0
  139.9573   81.3155  221.6207 H   0  0  0  0  0  0  0  0  0  0  0  0
  142.8071   82.1778  222.2021 H   0  0  0  0  0  0  0  0  0  0  0  0
  141.2676   82.9882  222.6227 H   0  0  0  0  0  0  0  0  0  0  0  0
  142.2082   81.9772  224.5982 H   0  0  0  0  0  0  0  0  0  0  0  0
  140.7178   81.0619  224.0749 H   0  0  0  0  0  0  0  0  0  0  0  0
  143.5596   80.2018  224.2029 H   0  0  0  0  0  0  0  0  0  0  0  0
  142.0205   79.2908  224.4791 H   0  0  0  0  0  0  0  0  0  0  0  0
  143.4427   79.9108  221.8752 H   0  0  0  0  0  0  0  0  0  0  0  0
  142.8169   78.3493  222.4781 H   0  0  0  0  0  0  0  0  0  0  0  0
  139.9510   79.3848  223.9896 H   0  0  0  0  0  0  0  0  0  0  0  0
  138.7859   81.2572  225.0713 H   0  0  0  0  0  0  0  0  0  0  0  0
  133.6455   81.9195  225.2153 H   0  0  0  0  0  0  0  0  0  0  0  0
  133.6427   81.5484  226.9835 H   0  0  0  0  0  0  0  0  0  0  0  0
  134.8648   84.0383  225.7105 H   0  0  0  0  0  0  0  0  0  0  0  0
  133.2583   83.9630  226.5106 H   0  0  0  0  0  0  0  0  0  0  0  0
  1  2  1  0
  2  3  1  0
  3  4  1  0
  4  5  1  0
  5  6  1  0
  6  7  1  0
  7  8  2  0
  8  9  1  0
  9 10  2  0
 10 11  1  0
 11 12  2  0
 12 13  1  0
 13 14  2  0
 14 15  1  0
 15 16  2  0
 16 17  1  0
 17 18  2  0
 18 19  1  0
 19 20  2  0
 20 21  1  0
 21 22  2  0
 21 23  1  0
 23 24  1  0
 24 25  1  0
 25 26  1  0
 26 27  1  0
 27 28  1  0
 28 29  1  0
 29 30  1  0
 10 31  1  0
 31 32  2  0
  5 33  1  0
 33 34  1  0
 34  2  1  0
 32  7  1  0
 23 13  1  0
 30 25  1  0
 20 15  1  0
  1 35  1  0
  1 36  1  0
  1 37  1  0
  3 38  1  0
  3 39  1  0
  4 40  1  0
  4 41  1  0
  6 42  1  0
  6 43  1  0
  8 44  1  0
  9 45  1  0
 11 46  1  0
 12 47  1  0
 16 48  1  0
 17 49  1  0
 18 50  1  0
 19 51  1  0
 24 52  1  0
 24 53  1  0
 25 54  1  0
 26 55  1  0
 26 56  1  0
 27 57  1  0
 27 58  1  0
 28 59  1  0
 28 60  1  0
 29 61  1  0
 29 62  1  0
 30 63  1  0
 30 64  1  0
 31 65  1  0
 32 66  1  0
 33 67  1  0
 33 68  1  0
 34 69  1  0
 34 70  1  0
M  END
>  <smiles>  (27) 
CN1CCN(Cc2ccc(/C=C/c3nc4ccccc4c(=O)n3CC3CCCCC3)cc2)CC1

>  <score_type>  (27) 
oracle

>  <origin>  (27) 
autodockgpu

>  <m_score__min__energy>  (27) 
-9.5099999999999998

>  <m_primary>  (27) 
energy

>  <rmsd>  (27) 
9.295418608629006

>  <m_score__min__rmsd>  (27) 
9.295418608629006

>  <meeko>  (27) 
{"free_energy": -7.61, "intermolecular_energy": -9.7, "internal_energy": -2.06, "cluster_size": 1, "cluster_id": 3, "rank_in_cluster": 1}

>  <energy>  (27) 
-9.23

>  <cluster_rmsd>  (27) 
0.57

>  <cluster>  (27) 
1

$$$$

     RDKit          3D

 70 74  0  0  0  0  0  0  0  0999 V2000
  141.8040   81.7370  221.8500 C   0  0  0  0  0  0  0  0  0  0  0  0
  141.1840   81.2370  223.0650 N   0  0  0  0  0  0  0  0  0  0  0  0
  142.1310   80.4170  223.7970 C   0  0  0  0  0  0  0  0  0  0  0  0
  142.2410   79.0120  223.2830 C   0  0  0  0  0  0  0  0  0  0  0  0
  140.9570   78.3620  223.0860 N   0  0  0  0  0  0  0  0  0  0  0  0
  140.7750   77.8680  221.7580 C   0  0  0  0  0  0  0  0  0  0  0  0
  140.3770   76.4570  221.7800 C   0  0  0  0  0  0  0  0  0  0  0  0
  141.2210   75.3930  221.5470 C   0  0  0  0  0  0  0  0  0  0  0  0
  140.8080   74.0780  221.5770 C   0  0  0  0  0  0  0  0  0  0  0  0
  139.4770   73.7520  221.8550 C   0  0  0  0  0  0  0  0  0  0  0  0
  139.0570   72.3590  221.8800 C   0  0  0  0  0  0  0  0  0  0  0  0
  139.8360   71.3470  222.1630 C   0  0  0  0  0  0  0  0  0  0  0  0
  139.8630   70.7590  223.5020 C   0  0  0  0  0  0  0  0  0  0  0  0
  140.3800   71.5280  224.4850 N   0  0  0  0  0  0  0  0  0  0  0  0
  140.4990   71.1150  225.7400 C   0  0  0  0  0  0  0  0  0  0  0  0
  141.0160   71.8590  226.7750 C   0  0  0  0  0  0  0  0  0  0  0  0
  141.1150   71.3830  228.0650 C   0  0  0  0  0  0  0  0  0  0  0  0
  140.6820   70.0880  228.3660 C   0  0  0  0  0  0  0  0  0  0  0  0
  140.1700   69.3690  227.3080 C   0  0  0  0  0  0  0  0  0  0  0  0
  140.0660   69.8300  226.0290 C   0  0  0  0  0  0  0  0  0  0  0  0
  139.5420   69.0510  225.0280 C   0  0  0  0  0  0  0  0  0  0  0  0
  139.1670   67.8880  225.3600 O   0  0  0  0  0  0  0  0  0  0  0  0
  139.4240   69.4910  223.7400 N   0  0  0  0  0  0  0  0  0  0  0  0
  138.9000   68.6590  222.7090 C   0  0  0  0  0  0  0  0  0  0  0  0
  137.4300   68.5870  222.5600 C   0  0  0  0  0  0  0  0  0  0  0  0
  136.9430   68.7540  221.1620 C   0  0  0  0  0  0  0  0  0  0  0  0
  135.4760   69.1840  221.1260 C   0  0  0  0  0  0  0  0  0  0  0  0
  134.7520   68.4970  222.2330 C   0  0  0  0  0  0  0  0  0  0  0  0
  135.2280   68.9090  223.6080 C   0  0  0  0  0  0  0  0  0  0  0  0
  136.6610   69.4180  223.5650 C   0  0  0  0  0  0  0  0  0  0  0  0
  138.6350   74.8120  222.0890 C   0  0  0  0  0  0  0  0  0  0  0  0
  139.0520   76.1360  222.0570 C   0  0  0  0  0  0  0  0  0  0  0  0
  139.8980   79.2400  223.5160 C   0  0  0  0  0  0  0  0  0  0  0  0
  139.9470   80.5550  222.7630 C   0  0  0  0  0  0  0  0  0  0  0  0
  142.6356   82.4077  222.1119 H   0  0  0  0  0  0  0  0  0  0  0  0
  142.1867   80.8918  221.2591 H   0  0  0  0  0  0  0  0  0  0  0  0
  141.0591   82.2901  221.2591 H   0  0  0  0  0  0  0  0  0  0  0  0
  143.1223   80.8891  223.7303 H   0  0  0  0  0  0  0  0  0  0  0  0
  141.7641   80.3512  224.8319 H   0  0  0  0  0  0  0  0  0  0  0  0
  142.7706   79.0349  222.3191 H   0  0  0  0  0  0  0  0  0  0  0  0
  142.7825   78.4317  224.0446 H   0  0  0  0  0  0  0  0  0  0  0  0
  139.9915   78.4564  221.2580 H   0  0  0  0  0  0  0  0  0  0  0  0
  141.7264   77.9587  221.2134 H   0  0  0  0  0  0  0  0  0  0  0  0
  142.2778   75.6035  221.3259 H   0  0  0  0  0  0  0  0  0  0  0  0
  141.5342   73.2757  221.3799 H   0  0  0  0  0  0  0  0  0  0  0  0
  138.0053   72.1406  221.6431 H   0  0  0  0  0  0  0  0  0  0  0  0
  140.4839   70.9297  221.3781 H   0  0  0  0  0  0  0  0  0  0  0  0
  141.3664   72.8801  226.5638 H   0  0  0  0  0  0  0  0  0  0  0  0
  141.5342   72.0213  228.8567 H   0  0  0  0  0  0  0  0  0  0  0  0
  140.7460   69.6703  229.3816 H   0  0  0  0  0  0  0  0  0  0  0  0
  139.8188   68.3464  227.5103 H   0  0  0  0  0  0  0  0  0  0  0  0
  139.3089   69.0225  221.7547 H   0  0  0  0  0  0  0  0  0  0  0  0
  139.1991   67.6403  222.9968 H   0  0  0  0  0  0  0  0  0  0  0  0
  137.1963   67.5430  222.8157 H   0  0  0  0  0  0  0  0  0  0  0  0
  137.5523   69.5204  220.6606 H   0  0  0  0  0  0  0  0  0  0  0  0
  137.0309   67.7852  220.6484 H   0  0  0  0  0  0  0  0  0  0  0  0
  135.4059   70.2739  221.2575 H   0  0  0  0  0  0  0  0  0  0  0  0
  135.0283   68.9124  220.1586 H   0  0  0  0  0  0  0  0  0  0  0  0
  133.6811   68.7339  222.1492 H   0  0  0  0  0  0  0  0  0  0  0  0
  134.9485   67.4196  222.1304 H   0  0  0  0  0  0  0  0  0  0  0  0
  134.5749   69.7078  223.9893 H   0  0  0  0  0  0  0  0  0  0  0  0
  135.1907   68.0293  224.2674 H   0  0  0  0  0  0  0  0  0  0  0  0
  136.6715   70.4747  223.2597 H   0  0  0  0  0  0  0  0  0  0  0  0
  137.1233   69.3339  224.5596 H   0  0  0  0  0  0  0  0  0  0  0  0
  137.5787   74.6015  222.3127 H   0  0  0  0  0  0  0  0  0  0  0  0
  138.3269   76.9397  222.2528 H   0  0  0  0  0  0  0  0  0  0  0  0
  138.9290   78.7540  223.3295 H   0  0  0  0  0  0  0  0  0  0  0  0
  140.0247   79.4444  224.5894 H   0  0  0  0  0  0  0  0  0  0  0  0
  139.8899   80.3607  221.6818 H   0  0  0  0  0  0  0  0  0  0  0  0
  139.0976   81.1840  223.0679 H   0  0  0  0  0  0  0  0  0  0  0  0
  1  2  1  0
  2  3  1  0
  3  4  1  0
  4  5  1  0
  5  6  1  0
  6  7  1  0
  7  8  2  0
  8  9  1  0
  9 10  2  0
 10 11  1  0
 11 12  2  0
 12 13  1  0
 13 14  2  0
 14 15  1  0
 15 16  2  0
 16 17  1  0
 17 18  2  0
 18 19  1  0
 19 20  2  0
 20 21  1  0
 21 22  2  0
 21 23  1  0
 23 24  1  0
 24 25  1  0
 25 26  1  0
 26 27  1  0
 27 28  1  0
 28 29  1  0
 29 30  1  0
 10 31  1  0
 31 32  2  0
  5 33  1  0
 33 34  1  0
 34  2  1  0
 32  7  1  0
 23 13  1  0
 30 25  1  0
 20 15  1  0
  1 35  1  0
  1 36  1  0
  1 37  1  0
  3 38  1  0
  3 39  1  0
  4 40  1  0
  4 41  1  0
  6 42  1  0
  6 43  1  0
  8 44  1  0
  9 45  1  0
 11 46  1  0
 12 47  1  0
 16 48  1  0
 17 49  1  0
 18 50  1  0
 19 51  1  0
 24 52  1  0
 24 53  1  0
 25 54  1  0
 26 55  1  0
 26 56  1  0
 27 57  1  0
 27 58  1  0
 28 59  1  0
 28 60  1  0
 29 61  1  0
 29 62  1  0
 30 63  1  0
 30 64  1  0
 31 65  1  0
 32 66  1  0
 33 67  1  0
 33 68  1  0
 34 69  1  0
 34 70  1  0
M  END
>  <smiles>  (28) 
CN1CCN(Cc2ccc(/C=C/c3nc4ccccc4c(=O)n3CC3CCCCC3)cc2)CC1

>  <score_type>  (28) 
oracle

>  <origin>  (28) 
autodockgpu

>  <m_score__min__energy>  (28) 
-9.5099999999999998

>  <m_primary>  (28) 
energy

>  <rmsd>  (28) 
6.565930259412785

>  <m_score__min__rmsd>  (28) 
6.565930259412785

>  <meeko>  (28) 
{"free_energy": -9.23, "intermolecular_energy": -11.32, "internal_energy": -1.81, "cluster_size": 47, "cluster_id": 1, "rank_in_cluster": 25}

>  <energy>  (28) 
-9.21

>  <cluster_rmsd>  (28) 
0.7

>  <cluster>  (28) 
1

$$$$

     RDKit          3D

 70 74  0  0  0  0  0  0  0  0999 V2000
  141.8080   81.6400  221.9370 C   0  0  0  0  0  0  0  0  0  0  0  0
  141.2770   81.2000  223.2160 N   0  0  0  0  0  0  0  0  0  0  0  0
  142.1610   80.2090  223.7980 C   0  0  0  0  0  0  0  0  0  0  0  0
  141.9670   78.8260  223.2500 C   0  0  0  0  0  0  0  0  0  0  0  0
  140.5780   78.4020  223.2170 N   0  0  0  0  0  0  0  0  0  0  0  0
  140.1440   77.9980  221.9170 C   0  0  0  0  0  0  0  0  0  0  0  0
  139.8350   76.5640  221.8970 C   0  0  0  0  0  0  0  0  0  0  0  0
  138.5810   76.0230  222.0740 C   0  0  0  0  0  0  0  0  0  0  0  0
  138.3300   74.6680  222.0490 C   0  0  0  0  0  0  0  0  0  0  0  0
  139.3660   73.7520  221.8360 C   0  0  0  0  0  0  0  0  0  0  0  0
  139.0840   72.3250  221.8160 C   0  0  0  0  0  0  0  0  0  0  0  0
  139.9360   71.3890  222.1430 C   0  0  0  0  0  0  0  0  0  0  0  0
  139.9350   70.7920  223.4790 C   0  0  0  0  0  0  0  0  0  0  0  0
  140.4480   71.5480  224.4750 N   0  0  0  0  0  0  0  0  0  0  0  0
  140.5430   71.1250  225.7290 C   0  0  0  0  0  0  0  0  0  0  0  0
  141.0540   71.8560  226.7750 C   0  0  0  0  0  0  0  0  0  0  0  0
  141.1280   71.3700  228.0640 C   0  0  0  0  0  0  0  0  0  0  0  0
  140.6720   70.0790  228.3500 C   0  0  0  0  0  0  0  0  0  0  0  0
  140.1670   69.3740  227.2800 C   0  0  0  0  0  0  0  0  0  0  0  0
  140.0880   69.8440  226.0030 C   0  0  0  0  0  0  0  0  0  0  0  0
  139.5690   69.0790  224.9890 C   0  0  0  0  0  0  0  0  0  0  0  0
  139.1730   67.9190  225.3080 O   0  0  0  0  0  0  0  0  0  0  0  0
  139.4760   69.5280  223.7020 N   0  0  0  0  0  0  0  0  0  0  0  0
  138.9560   68.7110  222.6580 C   0  0  0  0  0  0  0  0  0  0  0  0
  137.5130   68.3890  222.6860 C   0  0  0  0  0  0  0  0  0  0  0  0
  137.0000   67.7480  221.4430 C   0  0  0  0  0  0  0  0  0  0  0  0
  135.4850   67.9110  221.3110 C   0  0  0  0  0  0  0  0  0  0  0  0
  134.8760   67.8090  222.6680 C   0  0  0  0  0  0  0  0  0  0  0  0
  135.2920   68.9280  223.5970 C   0  0  0  0  0  0  0  0  0  0  0  0
  136.6330   69.5160  223.1850 C   0  0  0  0  0  0  0  0  0  0  0  0
  140.6160   74.2910  221.6600 C   0  0  0  0  0  0  0  0  0  0  0  0
  140.8680   75.6560  221.6860 C   0  0  0  0  0  0  0  0  0  0  0  0
  139.7450   79.4250  223.8010 C   0  0  0  0  0  0  0  0  0  0  0  0
  139.9150   80.7430  223.0710 C   0  0  0  0  0  0  0  0  0  0  0  0
  142.6449   82.3335  222.1065 H   0  0  0  0  0  0  0  0  0  0  0  0
  142.1636   80.7682  221.3682 H   0  0  0  0  0  0  0  0  0  0  0  0
  141.0175   82.1514  221.3682 H   0  0  0  0  0  0  0  0  0  0  0  0
  143.1997   80.5155  223.6054 H   0  0  0  0  0  0  0  0  0  0  0  0
  141.9269   80.1631  224.8718 H   0  0  0  0  0  0  0  0  0  0  0  0
  142.3628   78.8000  222.2240 H   0  0  0  0  0  0  0  0  0  0  0  0
  142.4986   78.1359  223.9217 H   0  0  0  0  0  0  0  0  0  0  0  0
  139.2421   78.5658  221.6446 H   0  0  0  0  0  0  0  0  0  0  0  0
  140.9513   78.1964  221.1966 H   0  0  0  0  0  0  0  0  0  0  0  0
  137.7366   76.7072  222.2440 H   0  0  0  0  0  0  0  0  0  0  0  0
  137.3033   74.3025  222.1982 H   0  0  0  0  0  0  0  0  0  0  0  0
  138.0780   72.0098  221.5020 H   0  0  0  0  0  0  0  0  0  0  0  0
  140.6685   71.0432  221.3988 H   0  0  0  0  0  0  0  0  0  0  0  0
  141.4202   72.8738  226.5753 H   0  0  0  0  0  0  0  0  0  0  0  0
  141.5451   71.9970  228.8658 H   0  0  0  0  0  0  0  0  0  0  0  0
  140.7140   69.6543  229.3638 H   0  0  0  0  0  0  0  0  0  0  0  0
  139.7997   68.3547  227.4703 H   0  0  0  0  0  0  0  0  0  0  0  0
  139.1585   69.2258  221.7072 H   0  0  0  0  0  0  0  0  0  0  0  0
  139.4580   67.7412  222.7901 H   0  0  0  0  0  0  0  0  0  0  0  0
  137.4389   67.6073  223.4563 H   0  0  0  0  0  0  0  0  0  0  0  0
  137.4865   68.2143  220.5736 H   0  0  0  0  0  0  0  0  0  0  0  0
  137.2281   66.6730  221.4902 H   0  0  0  0  0  0  0  0  0  0  0  0
  135.2546   68.8940  220.8743 H   0  0  0  0  0  0  0  0  0  0  0  0
  135.0781   67.1263  220.6563 H   0  0  0  0  0  0  0  0  0  0  0  0
  133.7814   67.8322  222.5619 H   0  0  0  0  0  0  0  0  0  0  0  0
  135.2298   66.8676  223.1136 H   0  0  0  0  0  0  0  0  0  0  0  0
  134.5292   69.7200  223.5687 H   0  0  0  0  0  0  0  0  0  0  0  0
  135.3890   68.5186  224.6134 H   0  0  0  0  0  0  0  0  0  0  0  0
  136.4848   70.2549  222.3837 H   0  0  0  0  0  0  0  0  0  0  0  0
  137.1072   70.0160  224.0424 H   0  0  0  0  0  0  0  0  0  0  0  0
  141.4605   73.6071  221.4898 H   0  0  0  0  0  0  0  0  0  0  0  0
  141.8943   76.0233  221.5384 H   0  0  0  0  0  0  0  0  0  0  0  0
  138.6924   79.1117  223.7383 H   0  0  0  0  0  0  0  0  0  0  0  0
  140.0426   79.5637  224.8509 H   0  0  0  0  0  0  0  0  0  0  0  0
  139.6864   80.6036  222.0041 H   0  0  0  0  0  0  0  0  0  0  0  0
  139.2296   81.4901  223.4977 H   0  0  0  0  0  0  0  0  0  0  0  0
  1  2  1  0
  2  3  1  0
  3  4  1  0
  4  5  1  0
  5  6  1  0
  6  7  1  0
  7  8  2  0
  8  9  1  0
  9 10  2  0
 10 11  1  0
 11 12  2  0
 12 13  1  0
 13 14  2  0
 14 15  1  0
 15 16  2  0
 16 17  1  0
 17 18  2  0
 18 19  1  0
 19 20  2  0
 20 21  1  0
 21 22  2  0
 21 23  1  0
 23 24  1  0
 24 25  1  0
 25 26  1  0
 26 27  1  0
 27 28  1  0
 28 29  1  0
 29 30  1  0
 10 31  1  0
 31 32  2  0
  5 33  1  0
 33 34  1  0
 34  2  1  0
 32  7  1  0
 23 13  1  0
 30 25  1  0
 20 15  1  0
  1 35  1  0
  1 36  1  0
  1 37  1  0
  3 38  1  0
  3 39  1  0
  4 40  1  0
  4 41  1  0
  6 42  1  0
  6 43  1  0
  8 44  1  0
  9 45  1  0
 11 46  1  0
 12 47  1  0
 16 48  1  0
 17 49  1  0
 18 50  1  0
 19 51  1  0
 24 52  1  0
 24 53  1  0
 25 54  1  0
 26 55  1  0
 26 56  1  0
 27 57  1  0
 27 58  1  0
 28 59  1  0
 28 60  1  0
 29 61  1  0
 29 62  1  0
 30 63  1  0
 30 64  1  0
 31 65  1  0
 32 66  1  0
 33 67  1  0
 33 68  1  0
 34 69  1  0
 34 70  1  0
M  END
>  <smiles>  (29) 
CN1CCN(Cc2ccc(/C=C/c3nc4ccccc4c(=O)n3CC3CCCCC3)cc2)CC1

>  <score_type>  (29) 
oracle

>  <origin>  (29) 
autodockgpu

>  <m_score__min__energy>  (29) 
-9.5099999999999998

>  <m_primary>  (29) 
energy

>  <rmsd>  (29) 
6.761973789849826

>  <m_score__min__rmsd>  (29) 
6.761973789849826

>  <meeko>  (29) 
{"free_energy": -9.23, "intermolecular_energy": -11.31, "internal_energy": -1.75, "cluster_size": 47, "cluster_id": 1, "rank_in_cluster": 27}

>  <energy>  (29) 
-9.19

>  <cluster_rmsd>  (29) 
0.3

>  <cluster>  (29) 
1

$$$$

     RDKit          3D

 70 74  0  0  0  0  0  0  0  0999 V2000
  141.5070   81.9380  221.7540 C   0  0  0  0  0  0  0  0  0  0  0  0
  141.3030   81.3800  223.0800 N   0  0  0  0  0  0  0  0  0  0  0  0
  142.3900   80.4760  223.4040 C   0  0  0  0  0  0  0  0  0  0  0  0
  142.2350   79.1060  222.8110 C   0  0  0  0  0  0  0  0  0  0  0  0
  140.9240   78.5220  223.0280 N   0  0  0  0  0  0  0  0  0  0  0  0
  140.2760   78.1290  221.8170 C   0  0  0  0  0  0  0  0  0  0  0  0
  140.0560   76.6780  221.7950 C   0  0  0  0  0  0  0  0  0  0  0  0
  141.0380   75.7330  221.5990 C   0  0  0  0  0  0  0  0  0  0  0  0
  140.7910   74.3760  221.5860 C   0  0  0  0  0  0  0  0  0  0  0  0
  139.4960   73.8820  221.7770 C   0  0  0  0  0  0  0  0  0  0  0  0
  139.2530   72.4480  221.7560 C   0  0  0  0  0  0  0  0  0  0  0  0
  140.1190   71.5360  222.1130 C   0  0  0  0  0  0  0  0  0  0  0  0
  140.0480   70.8920  223.4250 C   0  0  0  0  0  0  0  0  0  0  0  0
  140.5310   71.6020  224.4690 N   0  0  0  0  0  0  0  0  0  0  0  0
  140.5630   71.1330  225.7090 C   0  0  0  0  0  0  0  0  0  0  0  0
  141.0410   71.8150  226.8030 C   0  0  0  0  0  0  0  0  0  0  0  0
  141.0490   71.2820  228.0750 C   0  0  0  0  0  0  0  0  0  0  0  0
  140.5580   69.9910  228.2940 C   0  0  0  0  0  0  0  0  0  0  0  0
  140.0870   69.3350  227.1780 C   0  0  0  0  0  0  0  0  0  0  0  0
  140.0730   69.8520  225.9170 C   0  0  0  0  0  0  0  0  0  0  0  0
  139.5840   69.1340  224.8540 C   0  0  0  0  0  0  0  0  0  0  0  0
  139.1540   67.9710  225.1130 O   0  0  0  0  0  0  0  0  0  0  0  0
  139.5560   69.6310  223.5820 N   0  0  0  0  0  0  0  0  0  0  0  0
  139.0680   68.8620  222.4870 C   0  0  0  0  0  0  0  0  0  0  0  0
  137.6030   68.7800  222.2990 C   0  0  0  0  0  0  0  0  0  0  0  0
  136.8060   69.4510  223.3640 C   0  0  0  0  0  0  0  0  0  0  0  0
  135.3750   68.9150  223.4160 C   0  0  0  0  0  0  0  0  0  0  0  0
  134.9220   68.6330  222.0240 C   0  0  0  0  0  0  0  0  0  0  0  0
  135.7090   67.5320  221.3490 C   0  0  0  0  0  0  0  0  0  0  0  0
  137.0970   67.3940  221.9550 C   0  0  0  0  0  0  0  0  0  0  0  0
  138.5170   74.8250  221.9720 C   0  0  0  0  0  0  0  0  0  0  0  0
  138.7670   76.1910  221.9850 C   0  0  0  0  0  0  0  0  0  0  0  0
  140.1260   79.4100  223.8370 C   0  0  0  0  0  0  0  0  0  0  0  0
  139.9980   80.7710  223.1810 C   0  0  0  0  0  0  0  0  0  0  0  0
  141.8835   82.9677  221.8434 H   0  0  0  0  0  0  0  0  0  0  0  0
  142.2395   81.3260  221.2074 H   0  0  0  0  0  0  0  0  0  0  0  0
  140.5525   81.9428  221.2074 H   0  0  0  0  0  0  0  0  0  0  0  0
  143.3275   80.9123  223.0290 H   0  0  0  0  0  0  0  0  0  0  0  0
  142.3905   80.3540  224.4972 H   0  0  0  0  0  0  0  0  0  0  0  0
  142.4096   79.1748  221.7271 H   0  0  0  0  0  0  0  0  0  0  0  0
  142.9649   78.4537  223.3127 H   0  0  0  0  0  0  0  0  0  0  0  0
  139.3061   78.6427  221.7430 H   0  0  0  0  0  0  0  0  0  0  0  0
  140.9180   78.4028  220.9668 H   0  0  0  0  0  0  0  0  0  0  0  0
  142.0713   76.0775  221.4451 H   0  0  0  0  0  0  0  0  0  0  0  0
  141.6220   73.6739  221.4235 H   0  0  0  0  0  0  0  0  0  0  0  0
  138.2655   72.1048  221.4137 H   0  0  0  0  0  0  0  0  0  0  0  0
  140.9169   71.2470  221.4132 H   0  0  0  0  0  0  0  0  0  0  0  0
  141.4348   72.8317  226.6571 H   0  0  0  0  0  0  0  0  0  0  0  0
  141.4413   71.8719  228.9165 H   0  0  0  0  0  0  0  0  0  0  0  0
  140.5485   69.5294  229.2924 H   0  0  0  0  0  0  0  0  0  0  0  0
  139.6925   68.3173  227.3149 H   0  0  0  0  0  0  0  0  0  0  0  0
  139.4928   69.2931  221.5685 H   0  0  0  0  0  0  0  0  0  0  0  0
  139.3757   67.8307  222.7145 H   0  0  0  0  0  0  0  0  0  0  0  0
  137.4245   69.3812  221.3953 H   0  0  0  0  0  0  0  0  0  0  0  0
  137.2891   69.2747  224.3364 H   0  0  0  0  0  0  0  0  0  0  0  0
  136.7633   70.5264  223.1367 H   0  0  0  0  0  0  0  0  0  0  0  0
  135.3474   67.9892  224.0094 H   0  0  0  0  0  0  0  0  0  0  0  0
  134.7122   69.6579  223.8837 H   0  0  0  0  0  0  0  0  0  0  0  0
  133.8632   68.3364  222.0550 H   0  0  0  0  0  0  0  0  0  0  0  0
  135.0790   69.5510  221.4386 H   0  0  0  0  0  0  0  0  0  0  0  0
  135.1696   66.5808  221.4686 H   0  0  0  0  0  0  0  0  0  0  0  0
  135.8185   67.7859  220.2843 H   0  0  0  0  0  0  0  0  0  0  0  0
  137.0463   66.7794  222.8659 H   0  0  0  0  0  0  0  0  0  0  0  0
  137.7771   66.9076  221.2403 H   0  0  0  0  0  0  0  0  0  0  0  0
  137.4834   74.4813  222.1255 H   0  0  0  0  0  0  0  0  0  0  0  0
  137.9374   76.8949  222.1472 H   0  0  0  0  0  0  0  0  0  0  0  0
  139.1233   78.9765  223.9658 H   0  0  0  0  0  0  0  0  0  0  0  0
  140.6187   79.5349  224.8125 H   0  0  0  0  0  0  0  0  0  0  0  0
  139.5687   80.6544  222.1750 H   0  0  0  0  0  0  0  0  0  0  0  0
  139.3403   81.4107  223.7879 H   0  0  0  0  0  0  0  0  0  0  0  0
  1  2  1  0
  2  3  1  0
  3  4  1  0
  4  5  1  0
  5  6  1  0
  6  7  1  0
  7  8  2  0
  8  9  1  0
  9 10  2  0
 10 11  1  0
 11 12  2  0
 12 13  1  0
 13 14  2  0
 14 15  1  0
 15 16  2  0
 16 17  1  0
 17 18  2  0
 18 19  1  0
 19 20  2  0
 20 21  1  0
 21 22  2  0
 21 23  1  0
 23 24  1  0
 24 25  1  0
 25 26  1  0
 26 27  1  0
 27 28  1  0
 28 29  1  0
 29 30  1  0
 10 31  1  0
 31 32  2  0
  5 33  1  0
 33 34  1  0
 34  2  1  0
 32  7  1  0
 23 13  1  0
 30 25  1  0
 20 15  1  0
  1 35  1  0
  1 36  1  0
  1 37  1  0
  3 38  1  0
  3 39  1  0
  4 40  1  0
  4 41  1  0
  6 42  1  0
  6 43  1  0
  8 44  1  0
  9 45  1  0
 11 46  1  0
 12 47  1  0
 16 48  1  0
 17 49  1  0
 18 50  1  0
 19 51  1  0
 24 52  1  0
 24 53  1  0
 25 54  1  0
 26 55  1  0
 26 56  1  0
 27 57  1  0
 27 58  1  0
 28 59  1  0
 28 60  1  0
 29 61  1  0
 29 62  1  0
 30 63  1  0
 30 64  1  0
 31 65  1  0
 32 66  1  0
 33 67  1  0
 33 68  1  0
 34 69  1  0
 34 70  1  0
M  END
>  <smiles>  (30) 
CN1CCN(Cc2ccc(/C=C/c3nc4ccccc4c(=O)n3CC3CCCCC3)cc2)CC1

>  <score_type>  (30) 
oracle

>  <origin>  (30) 
autodockgpu

>  <m_score__min__energy>  (30) 
-9.5099999999999998

>  <m_primary>  (30) 
energy

>  <rmsd>  (30) 
6.573538318520603

>  <m_score__min__rmsd>  (30) 
6.573538318520603

>  <meeko>  (30) 
{"free_energy": -9.35, "intermolecular_energy": -11.43, "internal_energy": -1.7, "cluster_size": 47, "cluster_id": 1, "rank_in_cluster": 16}

>  <energy>  (30) 
-9.16

>  <cluster_rmsd>  (30) 
1.24

>  <cluster>  (30) 
1

$$$$

     RDKit          3D

 70 74  0  0  0  0  0  0  0  0999 V2000
  141.4130   82.0420  221.8050 C   0  0  0  0  0  0  0  0  0  0  0  0
  141.0390   81.4040  223.0560 N   0  0  0  0  0  0  0  0  0  0  0  0
  142.1990   80.7620  223.6450 C   0  0  0  0  0  0  0  0  0  0  0  0
  142.5080   79.4160  223.0600 C   0  0  0  0  0  0  0  0  0  0  0  0
  141.3540   78.5390  222.9720 N   0  0  0  0  0  0  0  0  0  0  0  0
  141.1180   78.0520  221.6500 C   0  0  0  0  0  0  0  0  0  0  0  0
  140.6490   76.6620  221.6870 C   0  0  0  0  0  0  0  0  0  0  0  0
  139.4720   76.2400  222.2650 C   0  0  0  0  0  0  0  0  0  0  0  0
  139.0640   74.9230  222.2800 C   0  0  0  0  0  0  0  0  0  0  0  0
  139.8480   73.9250  221.6910 C   0  0  0  0  0  0  0  0  0  0  0  0
  139.4050   72.5390  221.7180 C   0  0  0  0  0  0  0  0  0  0  0  0
  140.1400   71.5260  222.0930 C   0  0  0  0  0  0  0  0  0  0  0  0
  140.0230   70.9550  223.4360 C   0  0  0  0  0  0  0  0  0  0  0  0
  140.5710   71.6720  224.4420 N   0  0  0  0  0  0  0  0  0  0  0  0
  140.5710   71.2640  225.7040 C   0  0  0  0  0  0  0  0  0  0  0  0
  141.1130   71.9560  226.7610 C   0  0  0  0  0  0  0  0  0  0  0  0
  141.0840   71.4880  228.0580 C   0  0  0  0  0  0  0  0  0  0  0  0
  140.4850   70.2560  228.3430 C   0  0  0  0  0  0  0  0  0  0  0  0
  139.9530   69.5890  227.2620 C   0  0  0  0  0  0  0  0  0  0  0  0
  139.9740   70.0410  225.9760 C   0  0  0  0  0  0  0  0  0  0  0  0
  139.4200   69.3160  224.9510 C   0  0  0  0  0  0  0  0  0  0  0  0
  138.8930   68.2090  225.2690 O   0  0  0  0  0  0  0  0  0  0  0  0
  139.4260   69.7500  223.6560 N   0  0  0  0  0  0  0  0  0  0  0  0
  138.8660   68.9730  222.6020 C   0  0  0  0  0  0  0  0  0  0  0  0
  137.4280   68.6370  222.6790 C   0  0  0  0  0  0  0  0  0  0  0  0
  136.8730   68.0170  221.4440 C   0  0  0  0  0  0  0  0  0  0  0  0
  135.3530   68.1690  221.3740 C   0  0  0  0  0  0  0  0  0  0  0  0
  134.7970   68.0360  222.7510 C   0  0  0  0  0  0  0  0  0  0  0  0
  135.2400   69.1390  223.6860 C   0  0  0  0  0  0  0  0  0  0  0  0
  136.5600   69.7470  223.2340 C   0  0  0  0  0  0  0  0  0  0  0  0
  141.0210   74.3450  221.1140 C   0  0  0  0  0  0  0  0  0  0  0  0
  141.4310   75.6720  221.1010 C   0  0  0  0  0  0  0  0  0  0  0  0
  140.2050   79.1900  223.5520 C   0  0  0  0  0  0  0  0  0  0  0  0
  139.9240   80.5080  222.8570 C   0  0  0  0  0  0  0  0  0  0  0  0
  141.9588   82.9732  222.0171 H   0  0  0  0  0  0  0  0  0  0  0  0
  142.0564   81.3637  221.2255 H   0  0  0  0  0  0  0  0  0  0  0  0
  140.5068   82.2721  221.2255 H   0  0  0  0  0  0  0  0  0  0  0  0
  143.0712   81.4148  223.4930 H   0  0  0  0  0  0  0  0  0  0  0  0
  141.9718   80.6042  224.7097 H   0  0  0  0  0  0  0  0  0  0  0  0
  142.9114   79.5619  222.0471 H   0  0  0  0  0  0  0  0  0  0  0  0
  143.2299   78.9308  223.7334 H   0  0  0  0  0  0  0  0  0  0  0  0
  140.3546   78.6782  221.1651 H   0  0  0  0  0  0  0  0  0  0  0  0
  142.0602   78.0931  221.0838 H   0  0  0  0  0  0  0  0  0  0  0  0
  138.8244   76.9923  222.7389 H   0  0  0  0  0  0  0  0  0  0  0  0
  138.1117   74.6540  222.7603 H   0  0  0  0  0  0  0  0  0  0  0  0
  138.3737   72.3284  221.3986 H   0  0  0  0  0  0  0  0  0  0  0  0
  140.8618   71.0931  221.3848 H   0  0  0  0  0  0  0  0  0  0  0  0
  141.5913   72.9266  226.5634 H   0  0  0  0  0  0  0  0  0  0  0  0
  141.5315   72.0829  228.8679 H   0  0  0  0  0  0  0  0  0  0  0  0
  140.4419   69.8472  229.3633 H   0  0  0  0  0  0  0  0  0  0  0  0
  139.4743   68.6168  227.4507 H   0  0  0  0  0  0  0  0  0  0  0  0
  139.0228   69.5292  221.6660 H   0  0  0  0  0  0  0  0  0  0  0  0
  139.3801   68.0030  222.6712 H   0  0  0  0  0  0  0  0  0  0  0  0
  137.3889   67.8388  223.4348 H   0  0  0  0  0  0  0  0  0  0  0  0
  137.3217   68.5053  220.5664 H   0  0  0  0  0  0  0  0  0  0  0  0
  137.1118   66.9433  221.4600 H   0  0  0  0  0  0  0  0  0  0  0  0
  135.0980   69.1580  220.9655 H   0  0  0  0  0  0  0  0  0  0  0  0
  134.9277   67.3928  220.7208 H   0  0  0  0  0  0  0  0  0  0  0  0
  133.6990   68.0530  222.6870 H   0  0  0  0  0  0  0  0  0  0  0  0
  135.1744   67.0888  223.1638 H   0  0  0  0  0  0  0  0  0  0  0  0
  134.4705   69.9248  223.7038 H   0  0  0  0  0  0  0  0  0  0  0  0
  135.3797   68.7099  224.6892 H   0  0  0  0  0  0  0  0  0  0  0  0
  136.3751   70.5002  222.4539 H   0  0  0  0  0  0  0  0  0  0  0  0
  137.0634   70.2345  224.0819 H   0  0  0  0  0  0  0  0  0  0  0  0
  141.6681   73.5933  220.6385 H   0  0  0  0  0  0  0  0  0  0  0  0
  142.3837   75.9428  220.6225 H   0  0  0  0  0  0  0  0  0  0  0  0
  139.3283   78.5337  223.4484 H   0  0  0  0  0  0  0  0  0  0  0  0
  140.4116   79.3888  224.6140 H   0  0  0  0  0  0  0  0  0  0  0  0
  139.7825   80.3321  221.7804 H   0  0  0  0  0  0  0  0  0  0  0  0
  139.0125   80.9576  223.2777 H   0  0  0  0  0  0  0  0  0  0  0  0
  1  2  1  0
  2  3  1  0
  3  4  1  0
  4  5  1  0
  5  6  1  0
  6  7  1  0
  7  8  2  0
  8  9  1  0
  9 10  2  0
 10 11  1  0
 11 12  2  0
 12 13  1  0
 13 14  2  0
 14 15  1  0
 15 16  2  0
 16 17  1  0
 17 18  2  0
 18 19  1  0
 19 20  2  0
 20 21  1  0
 21 22  2  0
 21 23  1  0
 23 24  1  0
 24 25  1  0
 25 26  1  0
 26 27  1  0
 27 28  1  0
 28 29  1  0
 29 30  1  0
 10 31  1  0
 31 32  2  0
  5 33  1  0
 33 34  1  0
 34  2  1  0
 32  7  1  0
 23 13  1  0
 30 25  1  0
 20 15  1  0
  1 35  1  0
  1 36  1  0
  1 37  1  0
  3 38  1  0
  3 39  1  0
  4 40  1  0
  4 41  1  0
  6 42  1  0
  6 43  1  0
  8 44  1  0
  9 45  1  0
 11 46  1  0
 12 47  1  0
 16 48  1  0
 17 49  1  0
 18 50  1  0
 19 51  1  0
 24 52  1  0
 24 53  1  0
 25 54  1  0
 26 55  1  0
 26 56  1  0
 27 57  1  0
 27 58  1  0
 28 59  1  0
 28 60  1  0
 29 61  1  0
 29 62  1  0
 30 63  1  0
 30 64  1  0
 31 65  1  0
 32 66  1  0
 33 67  1  0
 33 68  1  0
 34 69  1  0
 34 70  1  0
M  END
>  <smiles>  (31) 
CN1CCN(Cc2ccc(/C=C/c3nc4ccccc4c(=O)n3CC3CCCCC3)cc2)CC1

>  <score_type>  (31) 
oracle

>  <origin>  (31) 
autodockgpu

>  <m_score__min__energy>  (31) 
-9.5099999999999998

>  <m_primary>  (31) 
energy

>  <rmsd>  (31) 
6.7363317431986545

>  <m_score__min__rmsd>  (31) 
6.7363317431986545

>  <meeko>  (31) 
{"free_energy": -9.35, "intermolecular_energy": -11.44, "internal_energy": -1.7, "cluster_size": 47, "cluster_id": 1, "rank_in_cluster": 15}

>  <energy>  (31) 
-9.13

>  <cluster_rmsd>  (31) 
0.69

>  <cluster>  (31) 
1

$$$$

     RDKit          3D

 70 74  0  0  0  0  0  0  0  0999 V2000
  140.7020   81.7970  222.0590 C   0  0  0  0  0  0  0  0  0  0  0  0
  141.6290   81.0090  222.8520 N   0  0  0  0  0  0  0  0  0  0  0  0
  142.4870   80.2330  221.9760 C   0  0  0  0  0  0  0  0  0  0  0  0
  141.8540   78.9700  221.4720 C   0  0  0  0  0  0  0  0  0  0  0  0
  141.2330   78.1720  222.5140 N   0  0  0  0  0  0  0  0  0  0  0  0
  139.8560   77.8890  222.2610 C   0  0  0  0  0  0  0  0  0  0  0  0
  139.6450   76.4450  222.1070 C   0  0  0  0  0  0  0  0  0  0  0  0
  138.4200   75.8170  222.1530 C   0  0  0  0  0  0  0  0  0  0  0  0
  138.2610   74.4550  222.0040 C   0  0  0  0  0  0  0  0  0  0  0  0
  139.3670   73.6250  221.7920 C   0  0  0  0  0  0  0  0  0  0  0  0
  139.1820   72.1890  221.6410 C   0  0  0  0  0  0  0  0  0  0  0  0
  140.0160   71.2780  222.0690 C   0  0  0  0  0  0  0  0  0  0  0  0
  139.9300   70.7470  223.4300 C   0  0  0  0  0  0  0  0  0  0  0  0
  140.4850   71.5020  224.4040 N   0  0  0  0  0  0  0  0  0  0  0  0
  140.5130   71.1320  225.6780 C   0  0  0  0  0  0  0  0  0  0  0  0
  141.0630   71.8640  226.7040 C   0  0  0  0  0  0  0  0  0  0  0  0
  141.0630   71.4350  228.0150 C   0  0  0  0  0  0  0  0  0  0  0  0
  140.4870   70.2040  228.3470 C   0  0  0  0  0  0  0  0  0  0  0  0
  139.9450   69.4970  227.2960 C   0  0  0  0  0  0  0  0  0  0  0  0
  139.9380   69.9110  225.9970 C   0  0  0  0  0  0  0  0  0  0  0  0
  139.3760   69.1470  225.0050 C   0  0  0  0  0  0  0  0  0  0  0  0
  138.8710   68.0430  225.3650 O   0  0  0  0  0  0  0  0  0  0  0  0
  139.3540   69.5410  223.6970 N   0  0  0  0  0  0  0  0  0  0  0  0
  138.7880   68.7250  222.6780 C   0  0  0  0  0  0  0  0  0  0  0  0
  137.3270   68.8030  222.4610 C   0  0  0  0  0  0  0  0  0  0  0  0
  136.9290   69.3390  221.1290 C   0  0  0  0  0  0  0  0  0  0  0  0
  135.4970   69.8760  221.1450 C   0  0  0  0  0  0  0  0  0  0  0  0
  134.6700   69.0010  222.0230 C   0  0  0  0  0  0  0  0  0  0  0  0
  135.0970   69.0320  223.4730 C   0  0  0  0  0  0  0  0  0  0  0  0
  136.5600   69.4250  223.6100 C   0  0  0  0  0  0  0  0  0  0  0  0
  140.5880   74.2510  221.7470 C   0  0  0  0  0  0  0  0  0  0  0  0
  140.7470   75.6230  221.8980 C   0  0  0  0  0  0  0  0  0  0  0  0
  141.4600   78.7900  223.7970 C   0  0  0  0  0  0  0  0  0  0  0  0
  140.9160   80.2060  223.8180 C   0  0  0  0  0  0  0  0  0  0  0  0
  140.0365   82.3627  222.7276 H   0  0  0  0  0  0  0  0  0  0  0  0
  141.2654   82.4969  221.4244 H   0  0  0  0  0  0  0  0  0  0  0  0
  140.1020   81.1282  221.4244 H   0  0  0  0  0  0  0  0  0  0  0  0
  142.7536   80.8568  221.1101 H   0  0  0  0  0  0  0  0  0  0  0  0
  143.3655   79.9369  222.5681 H   0  0  0  0  0  0  0  0  0  0  0  0
  141.0834   79.2382  220.7343 H   0  0  0  0  0  0  0  0  0  0  0  0
  142.6583   78.3593  221.0358 H   0  0  0  0  0  0  0  0  0  0  0  0
  139.2510   78.2548  223.1037 H   0  0  0  0  0  0  0  0  0  0  0  0
  139.5559   78.3924  221.3301 H   0  0  0  0  0  0  0  0  0  0  0  0
  137.5233   76.4327  222.3168 H   0  0  0  0  0  0  0  0  0  0  0  0
  137.2533   74.0166  222.0524 H   0  0  0  0  0  0  0  0  0  0  0  0
  138.2719   71.8446  221.1281 H   0  0  0  0  0  0  0  0  0  0  0  0
  140.7982   70.9030  221.3926 H   0  0  0  0  0  0  0  0  0  0  0  0
  141.5235   72.8349  226.4688 H   0  0  0  0  0  0  0  0  0  0  0  0
  141.5155   72.0602  228.7988 H   0  0  0  0  0  0  0  0  0  0  0  0
  140.4681   69.8254  229.3796 H   0  0  0  0  0  0  0  0  0  0  0  0
  139.4829   68.5247  227.5221 H   0  0  0  0  0  0  0  0  0  0  0  0
  139.2750   68.9991  221.7305 H   0  0  0  0  0  0  0  0  0  0  0  0
  138.9613   67.6945  223.0216 H   0  0  0  0  0  0  0  0  0  0  0  0
  137.0121   67.7492  222.4447 H   0  0  0  0  0  0  0  0  0  0  0  0
  137.6134   70.1548  220.8531 H   0  0  0  0  0  0  0  0  0  0  0  0
  136.9815   68.5190  220.3977 H   0  0  0  0  0  0  0  0  0  0  0  0
  135.4913   70.9042  221.5357 H   0  0  0  0  0  0  0  0  0  0  0  0
  135.0861   69.8799  220.1246 H   0  0  0  0  0  0  0  0  0  0  0  0
  133.6232   69.3332  221.9603 H   0  0  0  0  0  0  0  0  0  0  0  0
  134.7996   67.9680  221.6677 H   0  0  0  0  0  0  0  0  0  0  0  0
  134.4775   69.7629  224.0134 H   0  0  0  0  0  0  0  0  0  0  0  0
  134.9672   68.0244  223.8948 H   0  0  0  0  0  0  0  0  0  0  0  0
  136.6564   70.5201  223.5725 H   0  0  0  0  0  0  0  0  0  0  0  0
  136.9605   69.0694  224.5708 H   0  0  0  0  0  0  0  0  0  0  0  0
  141.4850   73.6358  221.5832 H   0  0  0  0  0  0  0  0  0  0  0  0
  141.7540   76.0631  221.8518 H   0  0  0  0  0  0  0  0  0  0  0  0
  140.9563   78.1988  224.5760 H   0  0  0  0  0  0  0  0  0  0  0  0
  142.5435   78.8263  223.9835 H   0  0  0  0  0  0  0  0  0  0  0  0
  139.8457   80.1916  223.5646 H   0  0  0  0  0  0  0  0  0  0  0  0
  141.0488   80.6355  224.8220 H   0  0  0  0  0  0  0  0  0  0  0  0
  1  2  1  0
  2  3  1  0
  3  4  1  0
  4  5  1  0
  5  6  1  0
  6  7  1  0
  7  8  2  0
  8  9  1  0
  9 10  2  0
 10 11  1  0
 11 12  2  0
 12 13  1  0
 13 14  2  0
 14 15  1  0
 15 16  2  0
 16 17  1  0
 17 18  2  0
 18 19  1  0
 19 20  2  0
 20 21  1  0
 21 22  2  0
 21 23  1  0
 23 24  1  0
 24 25  1  0
 25 26  1  0
 26 27  1  0
 27 28  1  0
 28 29  1  0
 29 30  1  0
 10 31  1  0
 31 32  2  0
  5 33  1  0
 33 34  1  0
 34  2  1  0
 32  7  1  0
 23 13  1  0
 30 25  1  0
 20 15  1  0
  1 35  1  0
  1 36  1  0
  1 37  1  0
  3 38  1  0
  3 39  1  0
  4 40  1  0
  4 41  1  0
  6 42  1  0
  6 43  1  0
  8 44  1  0
  9 45  1  0
 11 46  1  0
 12 47  1  0
 16 48  1  0
 17 49  1  0
 18 50  1  0
 19 51  1  0
 24 52  1  0
 24 53  1  0
 25 54  1  0
 26 55  1  0
 26 56  1  0
 27 57  1  0
 27 58  1  0
 28 59  1  0
 28 60  1  0
 29 61  1  0
 29 62  1  0
 30 63  1  0
 30 64  1  0
 31 65  1  0
 32 66  1  0
 33 67  1  0
 33 68  1  0
 34 69  1  0
 34 70  1  0
M  END
>  <smiles>  (32) 
CN1CCN(Cc2ccc(/C=C/c3nc4ccccc4c(=O)n3CC3CCCCC3)cc2)CC1

>  <score_type>  (32) 
oracle

>  <origin>  (32) 
autodockgpu

>  <m_score__min__energy>  (32) 
-9.5099999999999998

>  <m_primary>  (32) 
energy

>  <rmsd>  (32) 
6.786378884116786

>  <m_score__min__rmsd>  (32) 
6.786378884116786

>  <meeko>  (32) 
{"free_energy": -8.89, "intermolecular_energy": -10.98, "internal_energy": -1.91, "cluster_size": 47, "cluster_id": 1, "rank_in_cluster": 38}

>  <energy>  (32) 
-9.12

>  <cluster_rmsd>  (32) 
0.72

>  <cluster>  (32) 
1

$$$$

     RDKit          3D

 70 74  0  0  0  0  0  0  0  0999 V2000
  141.4510   82.2240  222.1390 C   0  0  0  0  0  0  0  0  0  0  0  0
  141.3660   81.4700  223.3780 N   0  0  0  0  0  0  0  0  0  0  0  0
  142.6470   80.8540  223.6670 C   0  0  0  0  0  0  0  0  0  0  0  0
  142.8890   79.5790  222.9150 C   0  0  0  0  0  0  0  0  0  0  0  0
  141.7800   78.6440  222.9820 N   0  0  0  0  0  0  0  0  0  0  0  0
  141.3020   78.2470  221.6950 C   0  0  0  0  0  0  0  0  0  0  0  0
  140.7450   76.8910  221.7460 C   0  0  0  0  0  0  0  0  0  0  0  0
  141.3870   75.7560  221.3040 C   0  0  0  0  0  0  0  0  0  0  0  0
  140.8300   74.4960  221.3680 C   0  0  0  0  0  0  0  0  0  0  0  0
  139.5510   74.3060  221.9020 C   0  0  0  0  0  0  0  0  0  0  0  0
  138.9770   72.9700  221.9590 C   0  0  0  0  0  0  0  0  0  0  0  0
  139.6500   71.8750  222.1990 C   0  0  0  0  0  0  0  0  0  0  0  0
  139.5510   71.1870  223.4860 C   0  0  0  0  0  0  0  0  0  0  0  0
  140.2990   71.6880  224.4940 N   0  0  0  0  0  0  0  0  0  0  0  0
  140.3360   71.1490  225.7050 C   0  0  0  0  0  0  0  0  0  0  0  0
  141.0770   71.6210  226.7620 C   0  0  0  0  0  0  0  0  0  0  0  0
  141.0780   71.0240  228.0040 C   0  0  0  0  0  0  0  0  0  0  0  0
  140.3020   69.8820  228.2310 C   0  0  0  0  0  0  0  0  0  0  0  0
  139.5720   69.4350  227.1520 C   0  0  0  0  0  0  0  0  0  0  0  0
  139.5620   70.0180  225.9200 C   0  0  0  0  0  0  0  0  0  0  0  0
  138.8040   69.5110  224.8940 C   0  0  0  0  0  0  0  0  0  0  0  0
  138.1230   68.4760  225.1570 O   0  0  0  0  0  0  0  0  0  0  0  0
  138.7750   70.0790  223.6510 N   0  0  0  0  0  0  0  0  0  0  0  0
  138.0010   69.5240  222.5920 C   0  0  0  0  0  0  0  0  0  0  0  0
  138.5800   68.3960  221.8300 C   0  0  0  0  0  0  0  0  0  0  0  0
  138.5220   67.0840  222.5340 C   0  0  0  0  0  0  0  0  0  0  0  0
  139.5510   66.1010  221.9740 C   0  0  0  0  0  0  0  0  0  0  0  0
  139.6520   66.3060  220.5010 C   0  0  0  0  0  0  0  0  0  0  0  0
  140.1890   67.6670  220.1190 C   0  0  0  0  0  0  0  0  0  0  0  0
  139.9330   68.6880  221.2180 C   0  0  0  0  0  0  0  0  0  0  0  0
  138.9110   75.4370  222.3430 C   0  0  0  0  0  0  0  0  0  0  0  0
  139.4730   76.7060  222.2770 C   0  0  0  0  0  0  0  0  0  0  0  0
  140.7460   79.1780  223.8330 C   0  0  0  0  0  0  0  0  0  0  0  0
  140.2730   80.5270  223.3260 C   0  0  0  0  0  0  0  0  0  0  0  0
  141.5715   83.2931  222.3679 H   0  0  0  0  0  0  0  0  0  0  0  0
  142.3154   81.8742  221.5555 H   0  0  0  0  0  0  0  0  0  0  0  0
  140.5304   82.0755  221.5555 H   0  0  0  0  0  0  0  0  0  0  0  0
  143.4420   81.5676  223.4047 H   0  0  0  0  0  0  0  0  0  0  0  0
  142.6459   80.5995  224.7372 H   0  0  0  0  0  0  0  0  0  0  0  0
  143.0708   79.8275  221.8590 H   0  0  0  0  0  0  0  0  0  0  0  0
  143.7538   79.0873  223.3845 H   0  0  0  0  0  0  0  0  0  0  0  0
  140.5190   78.9472  221.3685 H   0  0  0  0  0  0  0  0  0  0  0  0
  142.1428   78.2582  220.9859 H   0  0  0  0  0  0  0  0  0  0  0  0
  142.3959   75.8595  220.8780 H   0  0  0  0  0  0  0  0  0  0  0  0
  141.3977   73.6308  220.9950 H   0  0  0  0  0  0  0  0  0  0  0  0
  137.8948   72.8740  221.7871 H   0  0  0  0  0  0  0  0  0  0  0  0
  140.3042   71.4626  221.4168 H   0  0  0  0  0  0  0  0  0  0  0  0
  141.6976   72.5163  226.6095 H   0  0  0  0  0  0  0  0  0  0  0  0
  141.6885   71.4450  228.8165 H   0  0  0  0  0  0  0  0  0  0  0  0
  140.2766   69.3748  229.2067 H   0  0  0  0  0  0  0  0  0  0  0  0
  138.9497   68.5393  227.2954 H   0  0  0  0  0  0  0  0  0  0  0  0
  137.0536   69.1734  223.0274 H   0  0  0  0  0  0  0  0  0  0  0  0
  137.9144   70.3380  221.8573 H   0  0  0  0  0  0  0  0  0  0  0  0
  137.8989   68.2859  220.9733 H   0  0  0  0  0  0  0  0  0  0  0  0
  138.7248   67.2430  223.6034 H   0  0  0  0  0  0  0  0  0  0  0  0
  137.5196   66.6564  222.3846 H   0  0  0  0  0  0  0  0  0  0  0  0
  140.5300   66.2829  222.4415 H   0  0  0  0  0  0  0  0  0  0  0  0
  139.2399   65.0681  222.1892 H   0  0  0  0  0  0  0  0  0  0  0  0
  140.3223   65.5381  220.0873 H   0  0  0  0  0  0  0  0  0  0  0  0
  138.6333   66.2328  220.0926 H   0  0  0  0  0  0  0  0  0  0  0  0
  141.2726   67.5896  219.9465 H   0  0  0  0  0  0  0  0  0  0  0  0
  139.6738   68.0011  219.2064 H   0  0  0  0  0  0  0  0  0  0  0  0
  140.7146   68.6098  221.9881 H   0  0  0  0  0  0  0  0  0  0  0  0
  139.9496   69.7061  220.8017 H   0  0  0  0  0  0  0  0  0  0  0  0
  137.9026   75.3338  222.7701 H   0  0  0  0  0  0  0  0  0  0  0  0
  138.9064   77.5727  222.6483 H   0  0  0  0  0  0  0  0  0  0  0  0
  139.8957   78.4803  223.8483 H   0  0  0  0  0  0  0  0  0  0  0  0
  141.1550   79.3062  224.8460 H   0  0  0  0  0  0  0  0  0  0  0  0
  139.9239   80.4269  222.2877 H   0  0  0  0  0  0  0  0  0  0  0  0
  139.4470   80.8872  223.9568 H   0  0  0  0  0  0  0  0  0  0  0  0
  1  2  1  0
  2  3  1  0
  3  4  1  0
  4  5  1  0
  5  6  1  0
  6  7  1  0
  7  8  2  0
  8  9  1  0
  9 10  2  0
 10 11  1  0
 11 12  2  0
 12 13  1  0
 13 14  2  0
 14 15  1  0
 15 16  2  0
 16 17  1  0
 17 18  2  0
 18 19  1  0
 19 20  2  0
 20 21  1  0
 21 22  2  0
 21 23  1  0
 23 24  1  0
 24 25  1  0
 25 26  1  0
 26 27  1  0
 27 28  1  0
 28 29  1  0
 29 30  1  0
 10 31  1  0
 31 32  2  0
  5 33  1  0
 33 34  1  0
 34  2  1  0
 32  7  1  0
 23 13  1  0
 30 25  1  0
 20 15  1  0
  1 35  1  0
  1 36  1  0
  1 37  1  0
  3 38  1  0
  3 39  1  0
  4 40  1  0
  4 41  1  0
  6 42  1  0
  6 43  1  0
  8 44  1  0
  9 45  1  0
 11 46  1  0
 12 47  1  0
 16 48  1  0
 17 49  1  0
 18 50  1  0
 19 51  1  0
 24 52  1  0
 24 53  1  0
 25 54  1  0
 26 55  1  0
 26 56  1  0
 27 57  1  0
 27 58  1  0
 28 59  1  0
 28 60  1  0
 29 61  1  0
 29 62  1  0
 30 63  1  0
 30 64  1  0
 31 65  1  0
 32 66  1  0
 33 67  1  0
 33 68  1  0
 34 69  1  0
 34 70  1  0
M  END
>  <smiles>  (33) 
CN1CCN(Cc2ccc(/C=C/c3nc4ccccc4c(=O)n3CC3CCCCC3)cc2)CC1

>  <score_type>  (33) 
oracle

>  <origin>  (33) 
autodockgpu

>  <m_score__min__energy>  (33) 
-9.5099999999999998

>  <m_primary>  (33) 
energy

>  <rmsd>  (33) 
6.584188874258892

>  <m_score__min__rmsd>  (33) 
6.584188874258892

>  <meeko>  (33) 
{"free_energy": -9.34, "intermolecular_energy": -11.43, "internal_energy": -1.64, "cluster_size": 47, "cluster_id": 1, "rank_in_cluster": 18}

>  <energy>  (33) 
-9.09

>  <cluster_rmsd>  (33) 
0.68

>  <cluster>  (33) 
1

$$$$

     RDKit          3D

 70 74  0  0  0  0  0  0  0  0999 V2000
  141.4510   81.9660  221.7760 C   0  0  0  0  0  0  0  0  0  0  0  0
  141.1890   81.4220  223.0970 N   0  0  0  0  0  0  0  0  0  0  0  0
  142.3210   80.6260  223.5330 C   0  0  0  0  0  0  0  0  0  0  0  0
  142.3350   79.2350  222.9700 C   0  0  0  0  0  0  0  0  0  0  0  0
  141.0660   78.5410  223.1000 N   0  0  0  0  0  0  0  0  0  0  0  0
  140.5570   78.0640  221.8530 C   0  0  0  0  0  0  0  0  0  0  0  0
  140.4380   76.6020  221.8680 C   0  0  0  0  0  0  0  0  0  0  0  0
  141.4310   75.7240  221.4920 C   0  0  0  0  0  0  0  0  0  0  0  0
  141.2810   74.3540  221.5200 C   0  0  0  0  0  0  0  0  0  0  0  0
  140.0810   73.7740  221.9450 C   0  0  0  0  0  0  0  0  0  0  0  0
  139.9390   72.3260  221.9650 C   0  0  0  0  0  0  0  0  0  0  0  0
  139.0100   71.6740  222.6140 C   0  0  0  0  0  0  0  0  0  0  0  0
  139.3200   70.9100  223.8230 C   0  0  0  0  0  0  0  0  0  0  0  0
  139.9340   71.5860  224.8190 N   0  0  0  0  0  0  0  0  0  0  0  0
  140.3050   71.0160  225.9580 C   0  0  0  0  0  0  0  0  0  0  0  0
  140.9300   71.6600  227.0000 C   0  0  0  0  0  0  0  0  0  0  0  0
  141.2930   71.0220  228.1670 C   0  0  0  0  0  0  0  0  0  0  0  0
  141.0280   69.6570  228.3270 C   0  0  0  0  0  0  0  0  0  0  0  0
  140.4020   69.0430  227.2660 C   0  0  0  0  0  0  0  0  0  0  0  0
  140.0380   69.6630  226.1080 C   0  0  0  0  0  0  0  0  0  0  0  0
  139.4140   68.9800  225.0940 C   0  0  0  0  0  0  0  0  0  0  0  0
  139.2020   67.7480  225.2960 O   0  0  0  0  0  0  0  0  0  0  0  0
  139.0370   69.5810  223.9260 N   0  0  0  0  0  0  0  0  0  0  0  0
  138.4120   68.8500  222.8760 C   0  0  0  0  0  0  0  0  0  0  0  0
  136.9400   68.9310  222.7570 C   0  0  0  0  0  0  0  0  0  0  0  0
  136.2430   69.3510  224.0050 C   0  0  0  0  0  0  0  0  0  0  0  0
  134.7740   68.9280  223.9970 C   0  0  0  0  0  0  0  0  0  0  0  0
  134.2480   69.0620  222.6090 C   0  0  0  0  0  0  0  0  0  0  0  0
  134.9120   68.1260  221.6230 C   0  0  0  0  0  0  0  0  0  0  0  0
  136.3030   67.7290  222.0910 C   0  0  0  0  0  0  0  0  0  0  0  0
  139.0920   74.6480  222.3210 C   0  0  0  0  0  0  0  0  0  0  0  0
  139.2430   76.0280  222.2910 C   0  0  0  0  0  0  0  0  0  0  0  0
  140.1300   79.3720  223.8160 C   0  0  0  0  0  0  0  0  0  0  0  0
  139.9380   80.7010  223.1120 C   0  0  0  0  0  0  0  0  0  0  0  0
  141.9264   82.9531  221.8737 H   0  0  0  0  0  0  0  0  0  0  0  0
  142.1217   81.2887  221.2269 H   0  0  0  0  0  0  0  0  0  0  0  0
  140.5033   82.0682  221.2269 H   0  0  0  0  0  0  0  0  0  0  0  0
  143.2444   81.1359  223.2210 H   0  0  0  0  0  0  0  0  0  0  0  0
  142.2428   80.5289  224.6259 H   0  0  0  0  0  0  0  0  0  0  0  0
  142.5904   79.2950  221.9017 H   0  0  0  0  0  0  0  0  0  0  0  0
  143.0760   78.6618  223.5465 H   0  0  0  0  0  0  0  0  0  0  0  0
  139.5653   78.5054  221.6749 H   0  0  0  0  0  0  0  0  0  0  0  0
  141.2528   78.3545  221.0521 H   0  0  0  0  0  0  0  0  0  0  0  0
  142.3922   76.1372  221.1523 H   0  0  0  0  0  0  0  0  0  0  0  0
  142.1146   73.7093  221.2045 H   0  0  0  0  0  0  0  0  0  0  0  0
  140.6681   71.7355  221.3909 H   0  0  0  0  0  0  0  0  0  0  0  0
  137.9745   71.7003  222.2438 H   0  0  0  0  0  0  0  0  0  0  0  0
  141.1503   72.7329  226.8977 H   0  0  0  0  0  0  0  0  0  0  0  0
  141.7900   71.5847  228.9710 H   0  0  0  0  0  0  0  0  0  0  0  0
  141.3022   69.1104  229.2413 H   0  0  0  0  0  0  0  0  0  0  0  0
  140.1784   67.9701  227.3598 H   0  0  0  0  0  0  0  0  0  0  0  0
  138.8376   69.2102  221.9278 H   0  0  0  0  0  0  0  0  0  0  0  0
  138.6115   67.7955  223.1175 H   0  0  0  0  0  0  0  0  0  0  0  0
  136.7831   69.7628  222.0545 H   0  0  0  0  0  0  0  0  0  0  0  0
  136.7437   68.8867  224.8674 H   0  0  0  0  0  0  0  0  0  0  0  0
  136.2854   70.4482  224.0709 H   0  0  0  0  0  0  0  0  0  0  0  0
  134.6878   67.8821  224.3266 H   0  0  0  0  0  0  0  0  0  0  0  0
  134.1955   69.5661  224.6812 H   0  0  0  0  0  0  0  0  0  0  0  0
  133.1694   68.8467  222.6224 H   0  0  0  0  0  0  0  0  0  0  0  0
  134.4624   70.0888  222.2777 H   0  0  0  0  0  0  0  0  0  0  0  0
  134.2968   67.2202  221.5184 H   0  0  0  0  0  0  0  0  0  0  0  0
  135.0049   68.6461  220.6582 H   0  0  0  0  0  0  0  0  0  0  0  0
  136.2312   66.8996  222.8100 H   0  0  0  0  0  0  0  0  0  0  0  0
  136.9123   67.4016  221.2357 H   0  0  0  0  0  0  0  0  0  0  0  0
  138.1317   74.2347  222.6632 H   0  0  0  0  0  0  0  0  0  0  0  0
  138.4097   76.6739  222.6047 H   0  0  0  0  0  0  0  0  0  0  0  0
  139.1617   78.8536  223.8772 H   0  0  0  0  0  0  0  0  0  0  0  0
  140.5282   79.5623  224.8236 H   0  0  0  0  0  0  0  0  0  0  0  0
  139.6042   80.5240  222.0789 H   0  0  0  0  0  0  0  0  0  0  0  0
  139.1797   81.2928  223.6456 H   0  0  0  0  0  0  0  0  0  0  0  0
  1  2  1  0
  2  3  1  0
  3  4  1  0
  4  5  1  0
  5  6  1  0
  6  7  1  0
  7  8  2  0
  8  9  1  0
  9 10  2  0
 10 11  1  0
 11 12  2  0
 12 13  1  0
 13 14  2  0
 14 15  1  0
 15 16  2  0
 16 17  1  0
 17 18  2  0
 18 19  1  0
 19 20  2  0
 20 21  1  0
 21 22  2  0
 21 23  1  0
 23 24  1  0
 24 25  1  0
 25 26  1  0
 26 27  1  0
 27 28  1  0
 28 29  1  0
 29 30  1  0
 10 31  1  0
 31 32  2  0
  5 33  1  0
 33 34  1  0
 34  2  1  0
 32  7  1  0
 23 13  1  0
 30 25  1  0
 20 15  1  0
  1 35  1  0
  1 36  1  0
  1 37  1  0
  3 38  1  0
  3 39  1  0
  4 40  1  0
  4 41  1  0
  6 42  1  0
  6 43  1  0
  8 44  1  0
  9 45  1  0
 11 46  1  0
 12 47  1  0
 16 48  1  0
 17 49  1  0
 18 50  1  0
 19 51  1  0
 24 52  1  0
 24 53  1  0
 25 54  1  0
 26 55  1  0
 26 56  1  0
 27 57  1  0
 27 58  1  0
 28 59  1  0
 28 60  1  0
 29 61  1  0
 29 62  1  0
 30 63  1  0
 30 64  1  0
 31 65  1  0
 32 66  1  0
 33 67  1  0
 33 68  1  0
 34 69  1  0
 34 70  1  0
M  END
>  <smiles>  (34) 
CN1CCN(Cc2ccc(/C=C/c3nc4ccccc4c(=O)n3CC3CCCCC3)cc2)CC1

>  <score_type>  (34) 
oracle

>  <origin>  (34) 
autodockgpu

>  <m_score__min__energy>  (34) 
-9.5099999999999998

>  <m_primary>  (34) 
energy

>  <rmsd>  (34) 
6.621301649793376

>  <m_score__min__rmsd>  (34) 
6.621301649793376

>  <meeko>  (34) 
{"free_energy": -9.37, "intermolecular_energy": -11.46, "internal_energy": -1.62, "cluster_size": 47, "cluster_id": 1, "rank_in_cluster": 11}

>  <energy>  (34) 
-9.09

>  <cluster_rmsd>  (34) 
0.75

>  <cluster>  (34) 
1

$$$$

     RDKit          3D

 70 74  0  0  0  0  0  0  0  0999 V2000
  140.3420   82.3780  221.5100 C   0  0  0  0  0  0  0  0  0  0  0  0
  141.6180   81.6910  221.6150 N   0  0  0  0  0  0  0  0  0  0  0  0
  141.8280   80.8650  220.4410 C   0  0  0  0  0  0  0  0  0  0  0  0
  141.1190   79.5440  220.4940 C   0  0  0  0  0  0  0  0  0  0  0  0
  141.3210   78.8250  221.7400 N   0  0  0  0  0  0  0  0  0  0  0  0
  140.0980   78.4800  222.3940 C   0  0  0  0  0  0  0  0  0  0  0  0
  139.8270   77.0450  222.2610 C   0  0  0  0  0  0  0  0  0  0  0  0
  140.7670   76.0890  221.9470 C   0  0  0  0  0  0  0  0  0  0  0  0
  140.4740   74.7460  221.8310 C   0  0  0  0  0  0  0  0  0  0  0  0
  139.1710   74.2790  222.0340 C   0  0  0  0  0  0  0  0  0  0  0  0
  138.8780   72.8590  221.9050 C   0  0  0  0  0  0  0  0  0  0  0  0
  139.7080   71.8940  222.2000 C   0  0  0  0  0  0  0  0  0  0  0  0
  139.6540   71.2120  223.4940 C   0  0  0  0  0  0  0  0  0  0  0  0
  140.3200   71.8010  224.5100 N   0  0  0  0  0  0  0  0  0  0  0  0
  140.3870   71.2810  225.7290 C   0  0  0  0  0  0  0  0  0  0  0  0
  141.0490   71.8410  226.7950 C   0  0  0  0  0  0  0  0  0  0  0  0
  141.0860   71.2600  228.0450 C   0  0  0  0  0  0  0  0  0  0  0  0
  140.4310   70.0450  228.2700 C   0  0  0  0  0  0  0  0  0  0  0  0
  139.7780   69.5100  227.1820 C   0  0  0  0  0  0  0  0  0  0  0  0
  139.7330   70.0760  225.9420 C   0  0  0  0  0  0  0  0  0  0  0  0
  139.0580   69.4800  224.9060 C   0  0  0  0  0  0  0  0  0  0  0  0
  138.4850   68.3820  225.1680 O   0  0  0  0  0  0  0  0  0  0  0  0
  138.9970   70.0290  223.6560 N   0  0  0  0  0  0  0  0  0  0  0  0
  138.3110   69.3840  222.5880 C   0  0  0  0  0  0  0  0  0  0  0  0
  139.0130   68.2960  221.8720 C   0  0  0  0  0  0  0  0  0  0  0  0
  139.7230   68.7300  220.6360 C   0  0  0  0  0  0  0  0  0  0  0  0
  139.9720   67.5540  219.6900 C   0  0  0  0  0  0  0  0  0  0  0  0
  140.2830   66.3450  220.5060 C   0  0  0  0  0  0  0  0  0  0  0  0
  139.1280   65.8910  221.3700 C   0  0  0  0  0  0  0  0  0  0  0  0
  138.1840   67.0440  221.6790 C   0  0  0  0  0  0  0  0  0  0  0  0
  138.2330   75.2320  222.3480 C   0  0  0  0  0  0  0  0  0  0  0  0
  138.5300   76.5830  222.4630 C   0  0  0  0  0  0  0  0  0  0  0  0
  142.2280   79.5620  222.5840 C   0  0  0  0  0  0  0  0  0  0  0  0
  141.7010   80.9570  222.8560 C   0  0  0  0  0  0  0  0  0  0  0  0
  139.9540   82.5869  222.5179 H   0  0  0  0  0  0  0  0  0  0  0  0
  140.4788   83.3244  220.9663 H   0  0  0  0  0  0  0  0  0  0  0  0
  139.6272   81.7428  220.9663 H   0  0  0  0  0  0  0  0  0  0  0  0
  141.4677   81.4166  219.5601 H   0  0  0  0  0  0  0  0  0  0  0  0
  142.9052   80.6481  220.3911 H   0  0  0  0  0  0  0  0  0  0  0  0
  140.0411   79.7225  220.3663 H   0  0  0  0  0  0  0  0  0  0  0  0
  141.5380   78.9206  219.6903 H   0  0  0  0  0  0  0  0  0  0  0  0
  140.1743   78.7359  223.4611 H   0  0  0  0  0  0  0  0  0  0  0  0
  139.2756   79.0405  221.9255 H   0  0  0  0  0  0  0  0  0  0  0  0
  141.8049   76.4129  221.7801 H   0  0  0  0  0  0  0  0  0  0  0  0
  141.2734   74.0347  221.5761 H   0  0  0  0  0  0  0  0  0  0  0  0
  137.8827   72.5771  221.5309 H   0  0  0  0  0  0  0  0  0  0  0  0
  140.4628   71.5878  221.4607 H   0  0  0  0  0  0  0  0  0  0  0  0
  141.5733   72.7962  226.6443 H   0  0  0  0  0  0  0  0  0  0  0  0
  141.6303   71.7518  228.8646 H   0  0  0  0  0  0  0  0  0  0  0  0
  140.4370   69.5491  229.2519 H   0  0  0  0  0  0  0  0  0  0  0  0
  139.2530   68.5538  227.3238 H   0  0  0  0  0  0  0  0  0  0  0  0
  137.3848   68.9593  223.0025 H   0  0  0  0  0  0  0  0  0  0  0  0
  138.1765   70.1708  221.8311 H   0  0  0  0  0  0  0  0  0  0  0  0
  139.8140   68.0029  222.5666 H   0  0  0  0  0  0  0  0  0  0  0  0
  139.1105   69.4823  220.1175 H   0  0  0  0  0  0  0  0  0  0  0  0
  140.6968   69.1507  220.9272 H   0  0  0  0  0  0  0  0  0  0  0  0
  139.0735   67.3702  219.0827 H   0  0  0  0  0  0  0  0  0  0  0  0
  140.8141   67.7822  219.0201 H   0  0  0  0  0  0  0  0  0  0  0  0
  140.5527   65.5244  219.8249 H   0  0  0  0  0  0  0  0  0  0  0  0
  141.1088   66.6125  221.1817 H   0  0  0  0  0  0  0  0  0  0  0  0
  138.5714   65.1040  220.8400 H   0  0  0  0  0  0  0  0  0  0  0  0
  139.5326   65.5088  222.3188 H   0  0  0  0  0  0  0  0  0  0  0  0
  137.4839   67.1863  220.8426 H   0  0  0  0  0  0  0  0  0  0  0  0
  137.6054   66.8276  222.5892 H   0  0  0  0  0  0  0  0  0  0  0  0
  137.1952   74.9086  222.5167 H   0  0  0  0  0  0  0  0  0  0  0  0
  137.7317   77.2960  222.7165 H   0  0  0  0  0  0  0  0  0  0  0  0
  142.3452   79.0287  223.5389 H   0  0  0  0  0  0  0  0  0  0  0  0
  143.1967   79.6463  222.0697 H   0  0  0  0  0  0  0  0  0  0  0  0
  140.7011   80.8892  223.3094 H   0  0  0  0  0  0  0  0  0  0  0  0
  142.3818   81.4781  223.5452 H   0  0  0  0  0  0  0  0  0  0  0  0
  1  2  1  0
  2  3  1  0
  3  4  1  0
  4  5  1  0
  5  6  1  0
  6  7  1  0
  7  8  2  0
  8  9  1  0
  9 10  2  0
 10 11  1  0
 11 12  2  0
 12 13  1  0
 13 14  2  0
 14 15  1  0
 15 16  2  0
 16 17  1  0
 17 18  2  0
 18 19  1  0
 19 20  2  0
 20 21  1  0
 21 22  2  0
 21 23  1  0
 23 24  1  0
 24 25  1  0
 25 26  1  0
 26 27  1  0
 27 28  1  0
 28 29  1  0
 29 30  1  0
 10 31  1  0
 31 32  2  0
  5 33  1  0
 33 34  1  0
 34  2  1  0
 32  7  1  0
 23 13  1  0
 30 25  1  0
 20 15  1  0
  1 35  1  0
  1 36  1  0
  1 37  1  0
  3 38  1  0
  3 39  1  0
  4 40  1  0
  4 41  1  0
  6 42  1  0
  6 43  1  0
  8 44  1  0
  9 45  1  0
 11 46  1  0
 12 47  1  0
 16 48  1  0
 17 49  1  0
 18 50  1  0
 19 51  1  0
 24 52  1  0
 24 53  1  0
 25 54  1  0
 26 55  1  0
 26 56  1  0
 27 57  1  0
 27 58  1  0
 28 59  1  0
 28 60  1  0
 29 61  1  0
 29 62  1  0
 30 63  1  0
 30 64  1  0
 31 65  1  0
 32 66  1  0
 33 67  1  0
 33 68  1  0
 34 69  1  0
 34 70  1  0
M  END
>  <smiles>  (35) 
CN1CCN(Cc2ccc(/C=C/c3nc4ccccc4c(=O)n3CC3CCCCC3)cc2)CC1

>  <score_type>  (35) 
oracle

>  <origin>  (35) 
autodockgpu

>  <m_score__min__energy>  (35) 
-9.5099999999999998

>  <m_primary>  (35) 
energy

>  <rmsd>  (35) 
6.499737564343706

>  <m_score__min__rmsd>  (35) 
6.499737564343706

>  <meeko>  (35) 
{"free_energy": -8.85, "intermolecular_energy": -10.94, "internal_energy": -1.6, "cluster_size": 47, "cluster_id": 1, "rank_in_cluster": 42}

>  <energy>  (35) 
-9.08

>  <cluster_rmsd>  (35) 
0.76

>  <cluster>  (35) 
1

$$$$

     RDKit          3D

 70 74  0  0  0  0  0  0  0  0999 V2000
  141.4770   82.0210  221.8410 C   0  0  0  0  0  0  0  0  0  0  0  0
  141.1800   81.4010  223.1210 N   0  0  0  0  0  0  0  0  0  0  0  0
  142.3700   80.7530  223.6400 C   0  0  0  0  0  0  0  0  0  0  0  0
  142.6280   79.3980  223.0500 C   0  0  0  0  0  0  0  0  0  0  0  0
  141.4620   78.5310  223.0490 N   0  0  0  0  0  0  0  0  0  0  0  0
  141.1350   78.0330  221.7510 C   0  0  0  0  0  0  0  0  0  0  0  0
  140.5590   76.6860  221.8440 C   0  0  0  0  0  0  0  0  0  0  0  0
  139.2710   76.4030  222.2390 C   0  0  0  0  0  0  0  0  0  0  0  0
  138.7660   75.1220  222.3140 C   0  0  0  0  0  0  0  0  0  0  0  0
  139.5600   74.0190  221.9820 C   0  0  0  0  0  0  0  0  0  0  0  0
  139.0120   72.6740  222.0710 C   0  0  0  0  0  0  0  0  0  0  0  0
  139.7190   71.5880  222.2430 C   0  0  0  0  0  0  0  0  0  0  0  0
  139.7950   70.9280  223.5470 C   0  0  0  0  0  0  0  0  0  0  0  0
  140.3370   71.6490  224.5530 N   0  0  0  0  0  0  0  0  0  0  0  0
  140.5010   71.1700  225.7790 C   0  0  0  0  0  0  0  0  0  0  0  0
  141.0440   71.8630  226.8350 C   0  0  0  0  0  0  0  0  0  0  0  0
  141.1910   71.3190  228.0940 C   0  0  0  0  0  0  0  0  0  0  0  0
  140.7790   70.0040  228.3390 C   0  0  0  0  0  0  0  0  0  0  0  0
  140.2400   69.3390  227.2600 C   0  0  0  0  0  0  0  0  0  0  0  0
  140.0890   69.8660  226.0120 C   0  0  0  0  0  0  0  0  0  0  0  0
  139.5400   69.1370  224.9880 C   0  0  0  0  0  0  0  0  0  0  0  0
  139.1860   67.9540  225.2680 O   0  0  0  0  0  0  0  0  0  0  0  0
  139.3750   69.6440  223.7300 N   0  0  0  0  0  0  0  0  0  0  0  0
  138.8250   68.8650  222.6730 C   0  0  0  0  0  0  0  0  0  0  0  0
  137.3690   68.6050  222.6910 C   0  0  0  0  0  0  0  0  0  0  0  0
  136.7590   68.4180  221.3450 C   0  0  0  0  0  0  0  0  0  0  0  0
  135.2510   68.6710  221.3720 C   0  0  0  0  0  0  0  0  0  0  0  0
  134.7070   68.1610  222.6620 C   0  0  0  0  0  0  0  0  0  0  0  0
  135.2320   68.9040  223.8700 C   0  0  0  0  0  0  0  0  0  0  0  0
  136.5810   69.5430  223.5810 C   0  0  0  0  0  0  0  0  0  0  0  0
  140.8440   74.3010  221.5880 C   0  0  0  0  0  0  0  0  0  0  0  0
  141.3520   75.5920  221.5140 C   0  0  0  0  0  0  0  0  0  0  0  0
  140.3600   79.2000  223.6950 C   0  0  0  0  0  0  0  0  0  0  0  0
  140.0460   80.5140  223.0050 C   0  0  0  0  0  0  0  0  0  0  0  0
  141.9467   83.0015  222.0087 H   0  0  0  0  0  0  0  0  0  0  0  0
  142.1646   81.3774  221.2726 H   0  0  0  0  0  0  0  0  0  0  0  0
  140.5446   82.1535  221.2726 H   0  0  0  0  0  0  0  0  0  0  0  0
  143.2365   81.3956  223.4249 H   0  0  0  0  0  0  0  0  0  0  0  0
  142.2109   80.6076  224.7187 H   0  0  0  0  0  0  0  0  0  0  0  0
  142.9640   79.5297  222.0109 H   0  0  0  0  0  0  0  0  0  0  0  0
  143.3894   78.9129  223.6784 H   0  0  0  0  0  0  0  0  0  0  0  0
  140.4047   78.7066  221.2789 H   0  0  0  0  0  0  0  0  0  0  0  0
  142.0537   77.9848  221.1480 H   0  0  0  0  0  0  0  0  0  0  0  0
  138.6113   77.2410  222.5084 H   0  0  0  0  0  0  0  0  0  0  0  0
  137.7267   74.9656  222.6387 H   0  0  0  0  0  0  0  0  0  0  0  0
  137.9208   72.5627  221.9873 H   0  0  0  0  0  0  0  0  0  0  0  0
  140.2679   71.1616  221.3904 H   0  0  0  0  0  0  0  0  0  0  0  0
  141.3763   72.8983  226.6683 H   0  0  0  0  0  0  0  0  0  0  0  0
  141.6315   71.9180  228.9046 H   0  0  0  0  0  0  0  0  0  0  0  0
  140.8791   69.5328  229.3279 H   0  0  0  0  0  0  0  0  0  0  0  0
  139.9057   68.3029  227.4175 H   0  0  0  0  0  0  0  0  0  0  0  0
  139.0536   69.3838  221.7303 H   0  0  0  0  0  0  0  0  0  0  0  0
  139.2842   67.8727  222.7934 H   0  0  0  0  0  0  0  0  0  0  0  0
  137.2889   67.6198  223.1736 H   0  0  0  0  0  0  0  0  0  0  0  0
  137.2267   69.1211  220.6400 H   0  0  0  0  0  0  0  0  0  0  0  0
  136.9284   67.3774  221.0313 H   0  0  0  0  0  0  0  0  0  0  0  0
  135.0546   69.7500  221.2876 H   0  0  0  0  0  0  0  0  0  0  0  0
  134.7679   68.1542  220.5296 H   0  0  0  0  0  0  0  0  0  0  0  0
  133.6115   68.2585  222.6415 H   0  0  0  0  0  0  0  0  0  0  0  0
  135.0291   67.1137  222.7592 H   0  0  0  0  0  0  0  0  0  0  0  0
  134.5146   69.6906  224.1468 H   0  0  0  0  0  0  0  0  0  0  0  0
  135.3571   68.1850  224.6930 H   0  0  0  0  0  0  0  0  0  0  0  0
  136.4348   70.5060  223.0699 H   0  0  0  0  0  0  0  0  0  0  0  0
  137.1252   69.7219  224.5201 H   0  0  0  0  0  0  0  0  0  0  0  0
  141.5036   73.4634  221.3174 H   0  0  0  0  0  0  0  0  0  0  0  0
  142.3916   75.7505  221.1913 H   0  0  0  0  0  0  0  0  0  0  0  0
  139.4723   78.5516  223.6564 H   0  0  0  0  0  0  0  0  0  0  0  0
  140.6379   79.4083  224.7387 H   0  0  0  0  0  0  0  0  0  0  0  0
  139.8328   80.3283  221.9420 H   0  0  0  0  0  0  0  0  0  0  0  0
  139.1681   80.9769  223.4793 H   0  0  0  0  0  0  0  0  0  0  0  0
  1  2  1  0
  2  3  1  0
  3  4  1  0
  4  5  1  0
  5  6  1  0
  6  7  1  0
  7  8  2  0
  8  9  1  0
  9 10  2  0
 10 11  1  0
 11 12  2  0
 12 13  1  0
 13 14  2  0
 14 15  1  0
 15 16  2  0
 16 17  1  0
 17 18  2  0
 18 19  1  0
 19 20  2  0
 20 21  1  0
 21 22  2  0
 21 23  1  0
 23 24  1  0
 24 25  1  0
 25 26  1  0
 26 27  1  0
 27 28  1  0
 28 29  1  0
 29 30  1  0
 10 31  1  0
 31 32  2  0
  5 33  1  0
 33 34  1  0
 34  2  1  0
 32  7  1  0
 23 13  1  0
 30 25  1  0
 20 15  1  0
  1 35  1  0
  1 36  1  0
  1 37  1  0
  3 38  1  0
  3 39  1  0
  4 40  1  0
  4 41  1  0
  6 42  1  0
  6 43  1  0
  8 44  1  0
  9 45  1  0
 11 46  1  0
 12 47  1  0
 16 48  1  0
 17 49  1  0
 18 50  1  0
 19 51  1  0
 24 52  1  0
 24 53  1  0
 25 54  1  0
 26 55  1  0
 26 56  1  0
 27 57  1  0
 27 58  1  0
 28 59  1  0
 28 60  1  0
 29 61  1  0
 29 62  1  0
 30 63  1  0
 30 64  1  0
 31 65  1  0
 32 66  1  0
 33 67  1  0
 33 68  1  0
 34 69  1  0
 34 70  1  0
M  END
>  <smiles>  (36) 
CN1CCN(Cc2ccc(/C=C/c3nc4ccccc4c(=O)n3CC3CCCCC3)cc2)CC1

>  <score_type>  (36) 
oracle

>  <origin>  (36) 
autodockgpu

>  <m_score__min__energy>  (36) 
-9.5099999999999998

>  <m_primary>  (36) 
energy

>  <rmsd>  (36) 
6.729240566104646

>  <m_score__min__rmsd>  (36) 
6.729240566104646

>  <meeko>  (36) 
{"free_energy": -9.47, "intermolecular_energy": -11.56, "internal_energy": -1.73, "cluster_size": 47, "cluster_id": 1, "rank_in_cluster": 4}

>  <energy>  (36) 
-9.07

>  <cluster_rmsd>  (36) 
0.78

>  <cluster>  (36) 
1

$$$$

     RDKit          3D

 70 74  0  0  0  0  0  0  0  0999 V2000
  142.1860   80.8180  221.6070 C   0  0  0  0  0  0  0  0  0  0  0  0
  141.4070   80.9580  222.8260 N   0  0  0  0  0  0  0  0  0  0  0  0
  141.7920   79.9300  223.7740 C   0  0  0  0  0  0  0  0  0  0  0  0
  141.1450   78.6000  223.5220 C   0  0  0  0  0  0  0  0  0  0  0  0
  139.7090   78.6790  223.3190 N   0  0  0  0  0  0  0  0  0  0  0  0
  139.2830   78.1010  222.0840 C   0  0  0  0  0  0  0  0  0  0  0  0
  139.7580   76.7170  221.9710 C   0  0  0  0  0  0  0  0  0  0  0  0
  140.9860   76.3400  221.4740 C   0  0  0  0  0  0  0  0  0  0  0  0
  141.3960   75.0270  221.3830 C   0  0  0  0  0  0  0  0  0  0  0  0
  140.5620   73.9860  221.8050 C   0  0  0  0  0  0  0  0  0  0  0  0
  141.0090   72.6050  221.6990 C   0  0  0  0  0  0  0  0  0  0  0  0
  140.2600   71.5570  221.9200 C   0  0  0  0  0  0  0  0  0  0  0  0
  140.0020   71.0790  223.2790 C   0  0  0  0  0  0  0  0  0  0  0  0
  140.7190   71.6600  224.2660 N   0  0  0  0  0  0  0  0  0  0  0  0
  140.6150   71.3060  225.5400 C   0  0  0  0  0  0  0  0  0  0  0  0
  141.3190   71.8670  226.5790 C   0  0  0  0  0  0  0  0  0  0  0  0
  141.1720   71.4630  227.8890 C   0  0  0  0  0  0  0  0  0  0  0  0
  140.2750   70.4380  228.2080 C   0  0  0  0  0  0  0  0  0  0  0  0
  139.5860   69.8980  227.1450 C   0  0  0  0  0  0  0  0  0  0  0  0
  139.7220   70.2890  225.8460 C   0  0  0  0  0  0  0  0  0  0  0  0
  138.9960   69.7010  224.8400 C   0  0  0  0  0  0  0  0  0  0  0  0
  138.2000   68.7790  225.1880 O   0  0  0  0  0  0  0  0  0  0  0  0
  139.1120   70.0780  223.5320 N   0  0  0  0  0  0  0  0  0  0  0  0
  138.3680   69.4390  222.4990 C   0  0  0  0  0  0  0  0  0  0  0  0
  137.2510   70.1900  221.8870 C   0  0  0  0  0  0  0  0  0  0  0  0
  137.4520   70.5330  220.4510 C   0  0  0  0  0  0  0  0  0  0  0  0
  136.5670   71.7040  220.0240 C   0  0  0  0  0  0  0  0  0  0  0  0
  135.2570   71.5920  220.7260 C   0  0  0  0  0  0  0  0  0  0  0  0
  135.3670   71.7340  222.2280 C   0  0  0  0  0  0  0  0  0  0  0  0
  136.7570   71.3570  222.7170 C   0  0  0  0  0  0  0  0  0  0  0  0
  139.3380   74.3610  222.3010 C   0  0  0  0  0  0  0  0  0  0  0  0
  138.9250   75.6840  222.3910 C   0  0  0  0  0  0  0  0  0  0  0  0
  139.2700   80.0430  223.4890 C   0  0  0  0  0  0  0  0  0  0  0  0
  139.9940   80.9670  222.5290 C   0  0  0  0  0  0  0  0  0  0  0  0
  143.2386   80.6288  221.8642 H   0  0  0  0  0  0  0  0  0  0  0  0
  141.7956   79.9756  221.0171 H   0  0  0  0  0  0  0  0  0  0  0  0
  142.1133   81.7436  221.0171 H   0  0  0  0  0  0  0  0  0  0  0  0
  142.8830   79.8004  223.7208 H   0  0  0  0  0  0  0  0  0  0  0  0
  141.4556   80.2669  224.7656 H   0  0  0  0  0  0  0  0  0  0  0  0
  141.5991   78.1575  222.6231 H   0  0  0  0  0  0  0  0  0  0  0  0
  141.3097   77.9868  224.4203 H   0  0  0  0  0  0  0  0  0  0  0  0
  138.1839   78.1108  222.0402 H   0  0  0  0  0  0  0  0  0  0  0  0
  139.7019   78.6888  221.2539 H   0  0  0  0  0  0  0  0  0  0  0  0
  141.6747   77.1267  221.1323 H   0  0  0  0  0  0  0  0  0  0  0  0
  142.3904   74.7951  220.9739 H   0  0  0  0  0  0  0  0  0  0  0  0
  142.0562   72.4301  221.4112 H   0  0  0  0  0  0  0  0  0  0  0  0
  139.8145   71.0235  221.0674 H   0  0  0  0  0  0  0  0  0  0  0  0
  142.0316   72.6745  226.3551 H   0  0  0  0  0  0  0  0  0  0  0  0
  141.7599   71.9465  228.6831 H   0  0  0  0  0  0  0  0  0  0  0  0
  140.1296   70.0865  229.2401 H   0  0  0  0  0  0  0  0  0  0  0  0
  138.8716   69.0897  227.3603 H   0  0  0  0  0  0  0  0  0  0  0  0
  139.0741   69.1875  221.6939 H   0  0  0  0  0  0  0  0  0  0  0  0
  137.8870   68.5825  222.9939 H   0  0  0  0  0  0  0  0  0  0  0  0
  136.4224   69.4665  221.8898 H   0  0  0  0  0  0  0  0  0  0  0  0
  138.5059   70.8056  220.2930 H   0  0  0  0  0  0  0  0  0  0  0  0
  137.1787   69.6560  219.8458 H   0  0  0  0  0  0  0  0  0  0  0  0
  137.0524   72.6532  220.2949 H   0  0  0  0  0  0  0  0  0  0  0  0
  136.4126   71.6803  218.9351 H   0  0  0  0  0  0  0  0  0  0  0  0
  134.5905   72.3817  220.3489 H   0  0  0  0  0  0  0  0  0  0  0  0
  134.8643   70.5848  220.5226 H   0  0  0  0  0  0  0  0  0  0  0  0
  135.1602   72.7781  222.5056 H   0  0  0  0  0  0  0  0  0  0  0  0
  134.6380   71.0560  222.6958 H   0  0  0  0  0  0  0  0  0  0  0  0
  137.4380   72.2127  222.5987 H   0  0  0  0  0  0  0  0  0  0  0  0
  136.7229   71.0789  223.7807 H   0  0  0  0  0  0  0  0  0  0  0  0
  138.6500   73.5743  222.6443 H   0  0  0  0  0  0  0  0  0  0  0  0
  137.9302   75.9177  222.7981 H   0  0  0  0  0  0  0  0  0  0  0  0
  138.1883   80.1000  223.2973 H   0  0  0  0  0  0  0  0  0  0  0  0
  139.4944   80.3592  224.5184 H   0  0  0  0  0  0  0  0  0  0  0  0
  139.8340   80.6218  221.4969 H   0  0  0  0  0  0  0  0  0  0  0  0
  139.6027   81.9892  222.6385 H   0  0  0  0  0  0  0  0  0  0  0  0
  1  2  1  0
  2  3  1  0
  3  4  1  0
  4  5  1  0
  5  6  1  0
  6  7  1  0
  7  8  2  0
  8  9  1  0
  9 10  2  0
 10 11  1  0
 11 12  2  0
 12 13  1  0
 13 14  2  0
 14 15  1  0
 15 16  2  0
 16 17  1  0
 17 18  2  0
 18 19  1  0
 19 20  2  0
 20 21  1  0
 21 22  2  0
 21 23  1  0
 23 24  1  0
 24 25  1  0
 25 26  1  0
 26 27  1  0
 27 28  1  0
 28 29  1  0
 29 30  1  0
 10 31  1  0
 31 32  2  0
  5 33  1  0
 33 34  1  0
 34  2  1  0
 32  7  1  0
 23 13  1  0
 30 25  1  0
 20 15  1  0
  1 35  1  0
  1 36  1  0
  1 37  1  0
  3 38  1  0
  3 39  1  0
  4 40  1  0
  4 41  1  0
  6 42  1  0
  6 43  1  0
  8 44  1  0
  9 45  1  0
 11 46  1  0
 12 47  1  0
 16 48  1  0
 17 49  1  0
 18 50  1  0
 19 51  1  0
 24 52  1  0
 24 53  1  0
 25 54  1  0
 26 55  1  0
 26 56  1  0
 27 57  1  0
 27 58  1  0
 28 59  1  0
 28 60  1  0
 29 61  1  0
 29 62  1  0
 30 63  1  0
 30 64  1  0
 31 65  1  0
 32 66  1  0
 33 67  1  0
 33 68  1  0
 34 69  1  0
 34 70  1  0
M  END
>  <smiles>  (37) 
CN1CCN(Cc2ccc(/C=C/c3nc4ccccc4c(=O)n3CC3CCCCC3)cc2)CC1

>  <score_type>  (37) 
oracle

>  <origin>  (37) 
autodockgpu

>  <m_score__min__energy>  (37) 
-9.5099999999999998

>  <m_primary>  (37) 
energy

>  <rmsd>  (37) 
6.356234984237242

>  <m_score__min__rmsd>  (37) 
6.356234984237242

>  <meeko>  (37) 
{"free_energy": -8.0, "intermolecular_energy": -10.09, "internal_energy": -2.12, "cluster_size": 47, "cluster_id": 1, "rank_in_cluster": 47}

>  <energy>  (37) 
-9.04

>  <cluster_rmsd>  (37) 
0.71

>  <cluster>  (37) 
1

$$$$

     RDKit          3D

 70 74  0  0  0  0  0  0  0  0999 V2000
  140.4810   82.0030  222.1650 C   0  0  0  0  0  0  0  0  0  0  0  0
  140.9020   81.2050  223.3040 N   0  0  0  0  0  0  0  0  0  0  0  0
  142.3200   80.9170  223.2040 C   0  0  0  0  0  0  0  0  0  0  0  0
  142.6430   79.7720  222.2900 C   0  0  0  0  0  0  0  0  0  0  0  0
  141.8370   78.5880  222.5310 N   0  0  0  0  0  0  0  0  0  0  0  0
  141.1410   78.1350  221.3690 C   0  0  0  0  0  0  0  0  0  0  0  0
  140.6040   76.7870  221.5800 C   0  0  0  0  0  0  0  0  0  0  0  0
  139.3010   76.4990  221.9210 C   0  0  0  0  0  0  0  0  0  0  0  0
  138.8330   75.2160  222.1120 C   0  0  0  0  0  0  0  0  0  0  0  0
  139.6830   74.1150  221.9620 C   0  0  0  0  0  0  0  0  0  0  0  0
  139.1740   72.7680  222.1710 C   0  0  0  0  0  0  0  0  0  0  0  0
  139.9160   71.7030  222.3280 C   0  0  0  0  0  0  0  0  0  0  0  0
  139.9220   70.9590  223.5880 C   0  0  0  0  0  0  0  0  0  0  0  0
  140.4200   71.6060  224.6650 N   0  0  0  0  0  0  0  0  0  0  0  0
  140.5190   71.0460  225.8630 C   0  0  0  0  0  0  0  0  0  0  0  0
  141.0160   71.6620  226.9880 C   0  0  0  0  0  0  0  0  0  0  0  0
  141.0960   71.0350  228.2130 C   0  0  0  0  0  0  0  0  0  0  0  0
  140.6600   69.7130  228.3510 C   0  0  0  0  0  0  0  0  0  0  0  0
  140.1690   69.1260  227.2060 C   0  0  0  0  0  0  0  0  0  0  0  0
  140.0840   69.7350  225.9900 C   0  0  0  0  0  0  0  0  0  0  0  0
  139.5790   69.0810  224.8940 C   0  0  0  0  0  0  0  0  0  0  0  0
  139.2020   67.8860  225.0780 O   0  0  0  0  0  0  0  0  0  0  0  0
  139.4820   69.6710  223.6660 N   0  0  0  0  0  0  0  0  0  0  0  0
  138.9770   68.9690  222.5340 C   0  0  0  0  0  0  0  0  0  0  0  0
  137.5100   68.8470  222.3940 C   0  0  0  0  0  0  0  0  0  0  0  0
  136.7290   69.5310  223.4630 C   0  0  0  0  0  0  0  0  0  0  0  0
  135.3140   68.9630  223.5750 C   0  0  0  0  0  0  0  0  0  0  0  0
  134.8260   68.6290  222.2070 C   0  0  0  0  0  0  0  0  0  0  0  0
  135.6190   67.5270  221.5400 C   0  0  0  0  0  0  0  0  0  0  0  0
  137.0270   67.4410  222.1070 C   0  0  0  0  0  0  0  0  0  0  0  0
  140.9820   74.4010  221.6220 C   0  0  0  0  0  0  0  0  0  0  0  0
  141.4520   75.6940  221.4310 C   0  0  0  0  0  0  0  0  0  0  0  0
  140.9690   78.8150  223.6610 C   0  0  0  0  0  0  0  0  0  0  0  0
  140.0820   80.0220  223.4270 C   0  0  0  0  0  0  0  0  0  0  0  0
  139.9954   82.9234  222.5215 H   0  0  0  0  0  0  0  0  0  0  0  0
  141.3588   82.2639  221.5556 H   0  0  0  0  0  0  0  0  0  0  0  0
  139.7701   81.4258  221.5556 H   0  0  0  0  0  0  0  0  0  0  0  0
  142.8306   81.8157  222.8276 H   0  0  0  0  0  0  0  0  0  0  0  0
  142.6599   80.6293  224.2098 H   0  0  0  0  0  0  0  0  0  0  0  0
  142.4789   80.0987  221.2525 H   0  0  0  0  0  0  0  0  0  0  0  0
  143.6897   79.4931  222.4812 H   0  0  0  0  0  0  0  0  0  0  0  0
  140.3116   78.8245  221.1530 H   0  0  0  0  0  0  0  0  0  0  0  0
  141.8441   78.1076  220.5235 H   0  0  0  0  0  0  0  0  0  0  0  0
  138.5977   77.3353  222.0475 H   0  0  0  0  0  0  0  0  0  0  0  0
  137.7795   75.0565  222.3854 H   0  0  0  0  0  0  0  0  0  0  0  0
  138.0823   72.6357  222.1990 H   0  0  0  0  0  0  0  0  0  0  0  0
  140.5485   71.3594  221.4962 H   0  0  0  0  0  0  0  0  0  0  0  0
  141.3654   72.7018  226.9064 H   0  0  0  0  0  0  0  0  0  0  0  0
  141.5024   71.5739  229.0815 H   0  0  0  0  0  0  0  0  0  0  0  0
  140.7063   69.1776  229.3108 H   0  0  0  0  0  0  0  0  0  0  0  0
  139.8186   68.0858  227.2786 H   0  0  0  0  0  0  0  0  0  0  0  0
  139.3502   69.4834  221.6362 H   0  0  0  0  0  0  0  0  0  0  0  0
  139.3282   67.9356  222.6708 H   0  0  0  0  0  0  0  0  0  0  0  0
  137.2909   69.4162  221.4786 H   0  0  0  0  0  0  0  0  0  0  0  0
  137.2454   69.3958  224.4248 H   0  0  0  0  0  0  0  0  0  0  0  0
  136.6529   70.5977  223.2054 H   0  0  0  0  0  0  0  0  0  0  0  0
  135.3272   68.0549  224.1957 H   0  0  0  0  0  0  0  0  0  0  0  0
  134.6476   69.7036  224.0413 H   0  0  0  0  0  0  0  0  0  0  0  0
  133.7762   68.3085  222.2796 H   0  0  0  0  0  0  0  0  0  0  0  0
  134.9426   69.5325  221.5905 H   0  0  0  0  0  0  0  0  0  0  0  0
  135.1072   66.5672  221.7039 H   0  0  0  0  0  0  0  0  0  0  0  0
  135.6898   67.7509  220.4653 H   0  0  0  0  0  0  0  0  0  0  0  0
  137.0184   66.8535  223.0369 H   0  0  0  0  0  0  0  0  0  0  0  0
  137.6968   66.9497  221.3859 H   0  0  0  0  0  0  0  0  0  0  0  0
  141.6853   73.5649  221.4945 H   0  0  0  0  0  0  0  0  0  0  0  0
  142.5056   75.8556  221.1591 H   0  0  0  0  0  0  0  0  0  0  0  0
  140.3371   77.9277  223.8138 H   0  0  0  0  0  0  0  0  0  0  0  0
  141.5899   79.0017  224.5496 H   0  0  0  0  0  0  0  0  0  0  0  0
  139.5040   79.8786  222.5021 H   0  0  0  0  0  0  0  0  0  0  0  0
  139.3922   80.1404  224.2756 H   0  0  0  0  0  0  0  0  0  0  0  0
  1  2  1  0
  2  3  1  0
  3  4  1  0
  4  5  1  0
  5  6  1  0
  6  7  1  0
  7  8  2  0
  8  9  1  0
  9 10  2  0
 10 11  1  0
 11 12  2  0
 12 13  1  0
 13 14  2  0
 14 15  1  0
 15 16  2  0
 16 17  1  0
 17 18  2  0
 18 19  1  0
 19 20  2  0
 20 21  1  0
 21 22  2  0
 21 23  1  0
 23 24  1  0
 24 25  1  0
 25 26  1  0
 26 27  1  0
 27 28  1  0
 28 29  1  0
 29 30  1  0
 10 31  1  0
 31 32  2  0
  5 33  1  0
 33 34  1  0
 34  2  1  0
 32  7  1  0
 23 13  1  0
 30 25  1  0
 20 15  1  0
  1 35  1  0
  1 36  1  0
  1 37  1  0
  3 38  1  0
  3 39  1  0
  4 40  1  0
  4 41  1  0
  6 42  1  0
  6 43  1  0
  8 44  1  0
  9 45  1  0
 11 46  1  0
 12 47  1  0
 16 48  1  0
 17 49  1  0
 18 50  1  0
 19 51  1  0
 24 52  1  0
 24 53  1  0
 25 54  1  0
 26 55  1  0
 26 56  1  0
 27 57  1  0
 27 58  1  0
 28 59  1  0
 28 60  1  0
 29 61  1  0
 29 62  1  0
 30 63  1  0
 30 64  1  0
 31 65  1  0
 32 66  1  0
 33 67  1  0
 33 68  1  0
 34 69  1  0
 34 70  1  0
M  END
>  <smiles>  (38) 
CN1CCN(Cc2ccc(/C=C/c3nc4ccccc4c(=O)n3CC3CCCCC3)cc2)CC1

>  <score_type>  (38) 
oracle

>  <origin>  (38) 
autodockgpu

>  <m_score__min__energy>  (38) 
-9.5099999999999998

>  <m_primary>  (38) 
energy

>  <rmsd>  (38) 
6.655990836302617

>  <m_score__min__rmsd>  (38) 
6.655990836302617

>  <meeko>  (38) 
{"free_energy": -9.19, "intermolecular_energy": -11.27, "internal_energy": -1.69, "cluster_size": 47, "cluster_id": 1, "rank_in_cluster": 29}

>  <energy>  (38) 
-8.89

>  <cluster_rmsd>  (38) 
0.73

>  <cluster>  (38) 
1

$$$$

     RDKit          3D

 70 74  0  0  0  0  0  0  0  0999 V2000
  140.2820   81.6850  222.2550 C   0  0  0  0  0  0  0  0  0  0  0  0
  141.3980   80.9770  222.8570 N   0  0  0  0  0  0  0  0  0  0  0  0
  142.2850   80.4870  221.8190 C   0  0  0  0  0  0  0  0  0  0  0  0
  141.8260   79.2080  221.1840 C   0  0  0  0  0  0  0  0  0  0  0  0
  141.4480   78.1830  222.1420 N   0  0  0  0  0  0  0  0  0  0  0  0
  140.1190   77.6960  221.9490 C   0  0  0  0  0  0  0  0  0  0  0  0
  140.1110   76.2310  221.8730 C   0  0  0  0  0  0  0  0  0  0  0  0
  141.2180   75.4460  221.6390 C   0  0  0  0  0  0  0  0  0  0  0  0
  141.1710   74.0690  221.5750 C   0  0  0  0  0  0  0  0  0  0  0  0
  139.9630   73.3860  221.7500 C   0  0  0  0  0  0  0  0  0  0  0  0
  139.9300   71.9330  221.6760 C   0  0  0  0  0  0  0  0  0  0  0  0
  139.0710   71.1710  222.3000 C   0  0  0  0  0  0  0  0  0  0  0  0
  139.3620   70.6240  223.6260 C   0  0  0  0  0  0  0  0  0  0  0  0
  139.9630   71.4600  224.5010 N   0  0  0  0  0  0  0  0  0  0  0  0
  140.3160   71.0930  225.7260 C   0  0  0  0  0  0  0  0  0  0  0  0
  140.9270   71.9050  226.6520 C   0  0  0  0  0  0  0  0  0  0  0  0
  141.2720   71.4740  227.9160 C   0  0  0  0  0  0  0  0  0  0  0  0
  141.0030   70.1570  228.3020 C   0  0  0  0  0  0  0  0  0  0  0  0
  140.3920   69.3700  227.3520 C   0  0  0  0  0  0  0  0  0  0  0  0
  140.0450   69.7850  226.1000 C   0  0  0  0  0  0  0  0  0  0  0  0
  139.4350   68.9390  225.2080 C   0  0  0  0  0  0  0  0  0  0  0  0
  139.2180   67.7580  225.6130 O   0  0  0  0  0  0  0  0  0  0  0  0
  139.0760   69.3310  223.9500 N   0  0  0  0  0  0  0  0  0  0  0  0
  138.4650   68.4320  223.0300 C   0  0  0  0  0  0  0  0  0  0  0  0
  136.9960   68.4920  222.8760 C   0  0  0  0  0  0  0  0  0  0  0  0
  136.5320   68.7710  221.4870 C   0  0  0  0  0  0  0  0  0  0  0  0
  135.1070   69.3250  221.4720 C   0  0  0  0  0  0  0  0  0  0  0  0
  134.3210   68.6470  222.5420 C   0  0  0  0  0  0  0  0  0  0  0  0
  134.8240   68.9470  223.9370 C   0  0  0  0  0  0  0  0  0  0  0  0
  136.2950   69.3340  223.9210 C   0  0  0  0  0  0  0  0  0  0  0  0
  138.8590   74.1690  221.9840 C   0  0  0  0  0  0  0  0  0  0  0  0
  138.9080   75.5550  222.0480 C   0  0  0  0  0  0  0  0  0  0  0  0
  141.6910   78.6600  223.4810 C   0  0  0  0  0  0  0  0  0  0  0  0
  140.9250   79.9410  223.7460 C   0  0  0  0  0  0  0  0  0  0  0  0
  139.6372   82.0940  223.0468 H   0  0  0  0  0  0  0  0  0  0  0  0
  140.6629   82.5070  221.6311 H   0  0  0  0  0  0  0  0  0  0  0  0
  139.7006   80.9902  221.6311 H   0  0  0  0  0  0  0  0  0  0  0  0
  142.3600   81.2556  221.0357 H   0  0  0  0  0  0  0  0  0  0  0  0
  143.2530   80.2775  222.2976 H   0  0  0  0  0  0  0  0  0  0  0  0
  140.9550   79.4284  220.5494 H   0  0  0  0  0  0  0  0  0  0  0  0
  142.6755   78.8121  220.6081 H   0  0  0  0  0  0  0  0  0  0  0  0
  139.4903   78.0175  222.7924 H   0  0  0  0  0  0  0  0  0  0  0  0
  139.7266   78.1019  221.0049 H   0  0  0  0  0  0  0  0  0  0  0  0
  142.1891   75.9424  221.4959 H   0  0  0  0  0  0  0  0  0  0  0  0
  142.0939   73.5016  221.3842 H   0  0  0  0  0  0  0  0  0  0  0  0
  140.6852   71.4387  221.0473 H   0  0  0  0  0  0  0  0  0  0  0  0
  138.1100   70.9360  221.8190 H   0  0  0  0  0  0  0  0  0  0  0  0
  141.1508   72.9450  226.3723 H   0  0  0  0  0  0  0  0  0  0  0  0
  141.7583   72.1655  228.6198 H   0  0  0  0  0  0  0  0  0  0  0  0
  141.2628   69.7747  229.3002 H   0  0  0  0  0  0  0  0  0  0  0  0
  140.1667   68.3280  227.6231 H   0  0  0  0  0  0  0  0  0  0  0  0
  138.9062   68.6254  222.0411 H   0  0  0  0  0  0  0  0  0  0  0  0
  138.6576   67.4340  223.4505 H   0  0  0  0  0  0  0  0  0  0  0  0
  136.6736   67.4598  223.0778 H   0  0  0  0  0  0  0  0  0  0  0  0
  137.2066   69.5076  221.0262 H   0  0  0  0  0  0  0  0  0  0  0  0
  136.5404   67.8259  220.9243 H   0  0  0  0  0  0  0  0  0  0  0  0
  135.1289   70.4088  221.6587 H   0  0  0  0  0  0  0  0  0  0  0  0
  134.6430   69.1413  220.4917 H   0  0  0  0  0  0  0  0  0  0  0  0
  133.2747   68.9785  222.4696 H   0  0  0  0  0  0  0  0  0  0  0  0
  134.4249   67.5633  222.3848 H   0  0  0  0  0  0  0  0  0  0  0  0
  134.2391   69.7780  224.3581 H   0  0  0  0  0  0  0  0  0  0  0  0
  134.7092   68.0412  224.5505 H   0  0  0  0  0  0  0  0  0  0  0  0
  136.3966   70.4000  223.6693 H   0  0  0  0  0  0  0  0  0  0  0  0
  136.7434   69.1613  224.9105 H   0  0  0  0  0  0  0  0  0  0  0  0
  137.8876   73.6732  222.1278 H   0  0  0  0  0  0  0  0  0  0  0  0
  137.9863   76.1242  222.2390 H   0  0  0  0  0  0  0  0  0  0  0  0
  141.3695   77.8927  224.2006 H   0  0  0  0  0  0  0  0  0  0  0  0
  142.7662   78.8640  223.5918 H   0  0  0  0  0  0  0  0  0  0  0  0
  139.8525   79.7697  223.5718 H   0  0  0  0  0  0  0  0  0  0  0  0
  141.0815   80.2530  224.7891 H   0  0  0  0  0  0  0  0  0  0  0  0
  1  2  1  0
  2  3  1  0
  3  4  1  0
  4  5  1  0
  5  6  1  0
  6  7  1  0
  7  8  2  0
  8  9  1  0
  9 10  2  0
 10 11  1  0
 11 12  2  0
 12 13  1  0
 13 14  2  0
 14 15  1  0
 15 16  2  0
 16 17  1  0
 17 18  2  0
 18 19  1  0
 19 20  2  0
 20 21  1  0
 21 22  2  0
 21 23  1  0
 23 24  1  0
 24 25  1  0
 25 26  1  0
 26 27  1  0
 27 28  1  0
 28 29  1  0
 29 30  1  0
 10 31  1  0
 31 32  2  0
  5 33  1  0
 33 34  1  0
 34  2  1  0
 32  7  1  0
 23 13  1  0
 30 25  1  0
 20 15  1  0
  1 35  1  0
  1 36  1  0
  1 37  1  0
  3 38  1  0
  3 39  1  0
  4 40  1  0
  4 41  1  0
  6 42  1  0
  6 43  1  0
  8 44  1  0
  9 45  1  0
 11 46  1  0
 12 47  1  0
 16 48  1  0
 17 49  1  0
 18 50  1  0
 19 51  1  0
 24 52  1  0
 24 53  1  0
 25 54  1  0
 26 55  1  0
 26 56  1  0
 27 57  1  0
 27 58  1  0
 28 59  1  0
 28 60  1  0
 29 61  1  0
 29 62  1  0
 30 63  1  0
 30 64  1  0
 31 65  1  0
 32 66  1  0
 33 67  1  0
 33 68  1  0
 34 69  1  0
 34 70  1  0
M  END
>  <smiles>  (39) 
CN1CCN(Cc2ccc(/C=C/c3nc4ccccc4c(=O)n3CC3CCCCC3)cc2)CC1

>  <score_type>  (39) 
oracle

>  <origin>  (39) 
autodockgpu

>  <m_score__min__energy>  (39) 
-9.5099999999999998

>  <m_primary>  (39) 
energy

>  <rmsd>  (39) 
6.6414031022996705

>  <m_score__min__rmsd>  (39) 
6.6414031022996705

>  <meeko>  (39) 
{"free_energy": -9.07, "intermolecular_energy": -11.16, "internal_energy": -1.79, "cluster_size": 47, "cluster_id": 1, "rank_in_cluster": 36}

>  <energy>  (39) 
-8.89

>  <cluster_rmsd>  (39) 
0.73

>  <cluster>  (39) 
1

$$$$

     RDKit          3D

 70 74  0  0  0  0  0  0  0  0999 V2000
  141.4520   82.0610  221.9480 C   0  0  0  0  0  0  0  0  0  0  0  0
  141.3370   81.3750  223.2240 N   0  0  0  0  0  0  0  0  0  0  0  0
  142.5840   80.7030  223.5330 C   0  0  0  0  0  0  0  0  0  0  0  0
  142.7480   79.3800  222.8440 C   0  0  0  0  0  0  0  0  0  0  0  0
  141.5890   78.5130  222.9640 N   0  0  0  0  0  0  0  0  0  0  0  0
  141.0760   78.0820  221.7020 C   0  0  0  0  0  0  0  0  0  0  0  0
  140.5260   76.7260  221.8040 C   0  0  0  0  0  0  0  0  0  0  0  0
  139.2280   76.4230  222.1510 C   0  0  0  0  0  0  0  0  0  0  0  0
  138.7480   75.1340  222.2360 C   0  0  0  0  0  0  0  0  0  0  0  0
  139.5780   74.0410  221.9640 C   0  0  0  0  0  0  0  0  0  0  0  0
  139.0550   72.6870  222.0610 C   0  0  0  0  0  0  0  0  0  0  0  0
  139.7820   71.6160  222.2430 C   0  0  0  0  0  0  0  0  0  0  0  0
  139.8300   70.9390  223.5400 C   0  0  0  0  0  0  0  0  0  0  0  0
  140.3440   71.6480  224.5680 N   0  0  0  0  0  0  0  0  0  0  0  0
  140.4800   71.1540  225.7920 C   0  0  0  0  0  0  0  0  0  0  0  0
  140.9940   71.8350  226.8700 C   0  0  0  0  0  0  0  0  0  0  0  0
  141.1130   71.2750  228.1240 C   0  0  0  0  0  0  0  0  0  0  0  0
  140.7010   69.9550  228.3410 C   0  0  0  0  0  0  0  0  0  0  0  0
  140.1910   69.3020  227.2410 C   0  0  0  0  0  0  0  0  0  0  0  0
  140.0690   69.8450  225.9970 C   0  0  0  0  0  0  0  0  0  0  0  0
  139.5480   69.1270  224.9500 C   0  0  0  0  0  0  0  0  0  0  0  0
  139.1930   67.9390  225.2060 O   0  0  0  0  0  0  0  0  0  0  0  0
  139.4120   69.6510  223.6950 N   0  0  0  0  0  0  0  0  0  0  0  0
  138.8910   68.8830  222.6150 C   0  0  0  0  0  0  0  0  0  0  0  0
  137.4230   68.8280  222.4500 C   0  0  0  0  0  0  0  0  0  0  0  0
  136.9350   69.2700  221.1130 C   0  0  0  0  0  0  0  0  0  0  0  0
  135.4640   69.6850  221.1620 C   0  0  0  0  0  0  0  0  0  0  0  0
  134.7460   68.7810  222.1040 C   0  0  0  0  0  0  0  0  0  0  0  0
  135.2170   68.9100  223.5360 C   0  0  0  0  0  0  0  0  0  0  0  0
  136.6450   69.4310  223.6010 C   0  0  0  0  0  0  0  0  0  0  0  0
  140.8720   74.3420  221.6170 C   0  0  0  0  0  0  0  0  0  0  0  0
  141.3550   75.6420  221.5330 C   0  0  0  0  0  0  0  0  0  0  0  0
  140.5940   79.1460  223.7950 C   0  0  0  0  0  0  0  0  0  0  0  0
  140.1930   80.4930  223.2260 C   0  0  0  0  0  0  0  0  0  0  0  0
  141.6315   83.1321  222.1224 H   0  0  0  0  0  0  0  0  0  0  0  0
  142.2915   81.6366  221.3779 H   0  0  0  0  0  0  0  0  0  0  0  0
  140.5200   81.9335  221.3779 H   0  0  0  0  0  0  0  0  0  0  0  0
  143.4146   81.3571  223.2293 H   0  0  0  0  0  0  0  0  0  0  0  0
  142.5791   80.5017  224.6144 H   0  0  0  0  0  0  0  0  0  0  0  0
  142.9343   79.5652  221.7758 H   0  0  0  0  0  0  0  0  0  0  0  0
  143.5879   78.8644  223.3326 H   0  0  0  0  0  0  0  0  0  0  0  0
  140.2813   78.7712  221.3804 H   0  0  0  0  0  0  0  0  0  0  0  0
  141.8959   78.0778  220.9687 H   0  0  0  0  0  0  0  0  0  0  0  0
  138.5395   77.2520  222.3715 H   0  0  0  0  0  0  0  0  0  0  0  0
  137.6996   74.9624  222.5211 H   0  0  0  0  0  0  0  0  0  0  0  0
  137.9664   72.5545  221.9748 H   0  0  0  0  0  0  0  0  0  0  0  0
  140.3699   71.2152  221.4041 H   0  0  0  0  0  0  0  0  0  0  0  0
  141.3253   72.8739  226.7253 H   0  0  0  0  0  0  0  0  0  0  0  0
  141.5312   71.8647  228.9530 H   0  0  0  0  0  0  0  0  0  0  0  0
  140.7795   69.4710  229.3257 H   0  0  0  0  0  0  0  0  0  0  0  0
  139.8566   68.2629  227.3768 H   0  0  0  0  0  0  0  0  0  0  0  0
  139.3097   69.2978  221.6862 H   0  0  0  0  0  0  0  0  0  0  0  0
  139.1813   67.8478  222.8476 H   0  0  0  0  0  0  0  0  0  0  0  0
  137.1996   67.7516  222.4875 H   0  0  0  0  0  0  0  0  0  0  0  0
  137.5373   70.1275  220.7783 H   0  0  0  0  0  0  0  0  0  0  0  0
  137.0323   68.4262  220.4140 H   0  0  0  0  0  0  0  0  0  0  0  0
  135.3838   70.7246  221.5124 H   0  0  0  0  0  0  0  0  0  0  0  0
  135.0193   69.6118  220.1585 H   0  0  0  0  0  0  0  0  0  0  0  0
  133.6729   69.0197  222.0669 H   0  0  0  0  0  0  0  0  0  0  0  0
  134.9531   67.7487  221.7854 H   0  0  0  0  0  0  0  0  0  0  0  0
  134.5556   69.6085  224.0696 H   0  0  0  0  0  0  0  0  0  0  0  0
  135.1879   67.9145  224.0031 H   0  0  0  0  0  0  0  0  0  0  0  0
  136.6452   70.5277  223.5162 H   0  0  0  0  0  0  0  0  0  0  0  0
  137.1075   69.1517  224.5592 H   0  0  0  0  0  0  0  0  0  0  0  0
  141.5601   73.5131  221.3946 H   0  0  0  0  0  0  0  0  0  0  0  0
  142.4035   75.8160  221.2494 H   0  0  0  0  0  0  0  0  0  0  0  0
  139.7059   78.4992  223.8500 H   0  0  0  0  0  0  0  0  0  0  0  0
  141.0191   79.3000  224.7978 H   0  0  0  0  0  0  0  0  0  0  0  0
  139.8290   80.3623  222.1962 H   0  0  0  0  0  0  0  0  0  0  0  0
  139.3948   80.9293  223.8445 H   0  0  0  0  0  0  0  0  0  0  0  0
  1  2  1  0
  2  3  1  0
  3  4  1  0
  4  5  1  0
  5  6  1  0
  6  7  1  0
  7  8  2  0
  8  9  1  0
  9 10  2  0
 10 11  1  0
 11 12  2  0
 12 13  1  0
 13 14  2  0
 14 15  1  0
 15 16  2  0
 16 17  1  0
 17 18  2  0
 18 19  1  0
 19 20  2  0
 20 21  1  0
 21 22  2  0
 21 23  1  0
 23 24  1  0
 24 25  1  0
 25 26  1  0
 26 27  1  0
 27 28  1  0
 28 29  1  0
 29 30  1  0
 10 31  1  0
 31 32  2  0
  5 33  1  0
 33 34  1  0
 34  2  1  0
 32  7  1  0
 23 13  1  0
 30 25  1  0
 20 15  1  0
  1 35  1  0
  1 36  1  0
  1 37  1  0
  3 38  1  0
  3 39  1  0
  4 40  1  0
  4 41  1  0
  6 42  1  0
  6 43  1  0
  8 44  1  0
  9 45  1  0
 11 46  1  0
 12 47  1  0
 16 48  1  0
 17 49  1  0
 18 50  1  0
 19 51  1  0
 24 52  1  0
 24 53  1  0
 25 54  1  0
 26 55  1  0
 26 56  1  0
 27 57  1  0
 27 58  1  0
 28 59  1  0
 28 60  1  0
 29 61  1  0
 29 62  1  0
 30 63  1  0
 30 64  1  0
 31 65  1  0
 32 66  1  0
 33 67  1  0
 33 68  1  0
 34 69  1  0
 34 70  1  0
M  END
>  <smiles>  (40) 
CN1CCN(Cc2ccc(/C=C/c3nc4ccccc4c(=O)n3CC3CCCCC3)cc2)CC1

>  <score_type>  (40) 
oracle

>  <origin>  (40) 
autodockgpu

>  <m_score__min__energy>  (40) 
-9.5099999999999998

>  <m_primary>  (40) 
energy

>  <rmsd>  (40) 
6.750924158872771

>  <m_score__min__rmsd>  (40) 
6.750924158872771

>  <meeko>  (40) 
{"free_energy": -9.36, "intermolecular_energy": -11.44, "internal_energy": -1.78, "cluster_size": 47, "cluster_id": 1, "rank_in_cluster": 14}

>  <energy>  (40) 
-8.88

>  <cluster_rmsd>  (40) 
1.44

>  <cluster>  (40) 
1

$$$$

     RDKit          3D

 70 74  0  0  0  0  0  0  0  0999 V2000
  141.4570   82.0970  221.9710 C   0  0  0  0  0  0  0  0  0  0  0  0
  141.2290   81.4240  223.2380 N   0  0  0  0  0  0  0  0  0  0  0  0
  142.4290   80.7140  223.6400 C   0  0  0  0  0  0  0  0  0  0  0  0
  142.5970   79.3820  222.9700 C   0  0  0  0  0  0  0  0  0  0  0  0
  141.4050   78.5540  223.0110 N   0  0  0  0  0  0  0  0  0  0  0  0
  140.9700   78.1310  221.7180 C   0  0  0  0  0  0  0  0  0  0  0  0
  140.5600   76.7230  221.7450 C   0  0  0  0  0  0  0  0  0  0  0  0
  141.3510   75.6610  221.3630 C   0  0  0  0  0  0  0  0  0  0  0  0
  140.9290   74.3490  221.4040 C   0  0  0  0  0  0  0  0  0  0  0  0
  139.6430   74.0250  221.8480 C   0  0  0  0  0  0  0  0  0  0  0  0
  139.2120   72.6350  221.8800 C   0  0  0  0  0  0  0  0  0  0  0  0
  139.9780   71.6210  222.1890 C   0  0  0  0  0  0  0  0  0  0  0  0
  139.9050   70.9850  223.5050 C   0  0  0  0  0  0  0  0  0  0  0  0
  140.4710   71.6600  224.5290 N   0  0  0  0  0  0  0  0  0  0  0  0
  140.5110   71.1920  225.7700 C   0  0  0  0  0  0  0  0  0  0  0  0
  141.0720   71.8400  226.8450 C   0  0  0  0  0  0  0  0  0  0  0  0
  141.0850   71.3090  228.1170 C   0  0  0  0  0  0  0  0  0  0  0  0
  140.5110   70.0560  228.3580 C   0  0  0  0  0  0  0  0  0  0  0  0
  139.9580   69.4340  227.2600 C   0  0  0  0  0  0  0  0  0  0  0  0
  139.9380   69.9490  225.9980 C   0  0  0  0  0  0  0  0  0  0  0  0
  139.3650   69.2660  224.9550 C   0  0  0  0  0  0  0  0  0  0  0  0
  138.8620   68.1380  225.2320 O   0  0  0  0  0  0  0  0  0  0  0  0
  139.3300   69.7620  223.6820 N   0  0  0  0  0  0  0  0  0  0  0  0
  138.7520   69.0280  222.6070 C   0  0  0  0  0  0  0  0  0  0  0  0
  137.3120   68.7020  222.6890 C   0  0  0  0  0  0  0  0  0  0  0  0
  136.7240   68.1850  221.4210 C   0  0  0  0  0  0  0  0  0  0  0  0
  135.2050   68.3560  221.3960 C   0  0  0  0  0  0  0  0  0  0  0  0
  134.6770   68.1200  222.7700 C   0  0  0  0  0  0  0  0  0  0  0  0
  135.1520   69.1430  223.7790 C   0  0  0  0  0  0  0  0  0  0  0  0
  136.4680   69.7720  223.3480 C   0  0  0  0  0  0  0  0  0  0  0  0
  138.8540   75.0820  222.2290 C   0  0  0  0  0  0  0  0  0  0  0  0
  139.2800   76.4030  222.1870 C   0  0  0  0  0  0  0  0  0  0  0  0
  140.3750   79.2250  223.7660 C   0  0  0  0  0  0  0  0  0  0  0  0
  140.0590   80.5800  223.1630 C   0  0  0  0  0  0  0  0  0  0  0  0
  141.8048   83.1236  222.1585 H   0  0  0  0  0  0  0  0  0  0  0  0
  142.2201   81.5503  221.3975 H   0  0  0  0  0  0  0  0  0  0  0  0
  140.5188   82.1267  221.3975 H   0  0  0  0  0  0  0  0  0  0  0  0
  143.3005   81.3385  223.3939 H   0  0  0  0  0  0  0  0  0  0  0  0
  142.3410   80.5211  224.7194 H   0  0  0  0  0  0  0  0  0  0  0  0
  142.8643   79.5541  221.9170 H   0  0  0  0  0  0  0  0  0  0  0  0
  143.3825   78.8424  223.5194 H   0  0  0  0  0  0  0  0  0  0  0  0
  140.1167   78.7498  221.4036 H   0  0  0  0  0  0  0  0  0  0  0  0
  141.8039   78.2435  221.0095 H   0  0  0  0  0  0  0  0  0  0  0  0
  142.3706   75.8707  221.0074 H   0  0  0  0  0  0  0  0  0  0  0  0
  141.6116   73.5480  221.0838 H   0  0  0  0  0  0  0  0  0  0  0  0
  138.1634   72.4215  221.6252 H   0  0  0  0  0  0  0  0  0  0  0  0
  140.6917   71.2384  221.4445 H   0  0  0  0  0  0  0  0  0  0  0  0
  141.5311   72.8264  226.6828 H   0  0  0  0  0  0  0  0  0  0  0  0
  141.5467   71.8704  228.9426 H   0  0  0  0  0  0  0  0  0  0  0  0
  140.5018   69.5978  229.3580 H   0  0  0  0  0  0  0  0  0  0  0  0
  139.4976   68.4468  227.4134 H   0  0  0  0  0  0  0  0  0  0  0  0
  138.9033   69.6160  221.6898 H   0  0  0  0  0  0  0  0  0  0  0  0
  139.2585   68.0519  222.6348 H   0  0  0  0  0  0  0  0  0  0  0  0
  137.2801   67.8482  223.3818 H   0  0  0  0  0  0  0  0  0  0  0  0
  137.1595   68.7361  220.5745 H   0  0  0  0  0  0  0  0  0  0  0  0
  136.9512   67.1112  221.3484 H   0  0  0  0  0  0  0  0  0  0  0  0
  134.9523   69.3764  221.0721 H   0  0  0  0  0  0  0  0  0  0  0  0
  134.7576   67.6379  220.6931 H   0  0  0  0  0  0  0  0  0  0  0  0
  133.5781   68.1518  222.7318 H   0  0  0  0  0  0  0  0  0  0  0  0
  135.0528   67.1399  223.0990 H   0  0  0  0  0  0  0  0  0  0  0  0
  134.3917   69.9321  223.8747 H   0  0  0  0  0  0  0  0  0  0  0  0
  135.3080   68.6352  224.7422 H   0  0  0  0  0  0  0  0  0  0  0  0
  136.2750   70.5861  222.6338 H   0  0  0  0  0  0  0  0  0  0  0  0
  136.9942   70.1862  224.2207 H   0  0  0  0  0  0  0  0  0  0  0  0
  137.8346   74.8722  222.5849 H   0  0  0  0  0  0  0  0  0  0  0  0
  138.5983   77.2050  222.5065 H   0  0  0  0  0  0  0  0  0  0  0  0
  139.4647   78.6075  223.7614 H   0  0  0  0  0  0  0  0  0  0  0  0
  140.7332   79.3730  224.7955 H   0  0  0  0  0  0  0  0  0  0  0  0
  139.7647   80.4536  222.1107 H   0  0  0  0  0  0  0  0  0  0  0  0
  139.2335   81.0465  223.7206 H   0  0  0  0  0  0  0  0  0  0  0  0
  1  2  1  0
  2  3  1  0
  3  4  1  0
  4  5  1  0
  5  6  1  0
  6  7  1  0
  7  8  2  0
  8  9  1  0
  9 10  2  0
 10 11  1  0
 11 12  2  0
 12 13  1  0
 13 14  2  0
 14 15  1  0
 15 16  2  0
 16 17  1  0
 17 18  2  0
 18 19  1  0
 19 20  2  0
 20 21  1  0
 21 22  2  0
 21 23  1  0
 23 24  1  0
 24 25  1  0
 25 26  1  0
 26 27  1  0
 27 28  1  0
 28 29  1  0
 29 30  1  0
 10 31  1  0
 31 32  2  0
  5 33  1  0
 33 34  1  0
 34  2  1  0
 32  7  1  0
 23 13  1  0
 30 25  1  0
 20 15  1  0
  1 35  1  0
  1 36  1  0
  1 37  1  0
  3 38  1  0
  3 39  1  0
  4 40  1  0
  4 41  1  0
  6 42  1  0
  6 43  1  0
  8 44  1  0
  9 45  1  0
 11 46  1  0
 12 47  1  0
 16 48  1  0
 17 49  1  0
 18 50  1  0
 19 51  1  0
 24 52  1  0
 24 53  1  0
 25 54  1  0
 26 55  1  0
 26 56  1  0
 27 57  1  0
 27 58  1  0
 28 59  1  0
 28 60  1  0
 29 61  1  0
 29 62  1  0
 30 63  1  0
 30 64  1  0
 31 65  1  0
 32 66  1  0
 33 67  1  0
 33 68  1  0
 34 69  1  0
 34 70  1  0
M  END
>  <smiles>  (41) 
CN1CCN(Cc2ccc(/C=C/c3nc4ccccc4c(=O)n3CC3CCCCC3)cc2)CC1

>  <score_type>  (41) 
oracle

>  <origin>  (41) 
autodockgpu

>  <m_score__min__energy>  (41) 
-9.5099999999999998

>  <m_primary>  (41) 
energy

>  <rmsd>  (41) 
6.58535818993834

>  <m_score__min__rmsd>  (41) 
6.58535818993834

>  <meeko>  (41) 
{"free_energy": -9.45, "intermolecular_energy": -11.53, "internal_energy": -1.7, "cluster_size": 47, "cluster_id": 1, "rank_in_cluster": 5}

>  <energy>  (41) 
-8.85

>  <cluster_rmsd>  (41) 
0.51

>  <cluster>  (41) 
1

$$$$

     RDKit          3D

 70 74  0  0  0  0  0  0  0  0999 V2000
  141.4350   82.1170  221.8190 C   0  0  0  0  0  0  0  0  0  0  0  0
  141.3250   81.4880  223.1240 N   0  0  0  0  0  0  0  0  0  0  0  0
  142.5300   80.7340  223.4090 C   0  0  0  0  0  0  0  0  0  0  0  0
  142.5630   79.3780  222.7660 C   0  0  0  0  0  0  0  0  0  0  0  0
  141.3480   78.6080  222.9670 N   0  0  0  0  0  0  0  0  0  0  0  0
  140.7500   78.1730  221.7450 C   0  0  0  0  0  0  0  0  0  0  0  0
  140.5030   76.7270  221.7770 C   0  0  0  0  0  0  0  0  0  0  0  0
  139.3810   76.1290  222.3070 C   0  0  0  0  0  0  0  0  0  0  0  0
  139.1840   74.7640  222.3180 C   0  0  0  0  0  0  0  0  0  0  0  0
  140.1400   73.8990  221.7770 C   0  0  0  0  0  0  0  0  0  0  0  0
  139.9190   72.4600  221.8010 C   0  0  0  0  0  0  0  0  0  0  0  0
  138.9290   71.8660  222.4140 C   0  0  0  0  0  0  0  0  0  0  0  0
  139.1430   71.1020  223.6430 C   0  0  0  0  0  0  0  0  0  0  0  0
  139.9350   71.6750  224.5750 N   0  0  0  0  0  0  0  0  0  0  0  0
  140.2450   71.0860  225.7230 C   0  0  0  0  0  0  0  0  0  0  0  0
  141.0430   71.6280  226.7020 C   0  0  0  0  0  0  0  0  0  0  0  0
  141.3330   70.9740  227.8810 C   0  0  0  0  0  0  0  0  0  0  0  0
  140.8080   69.6990  228.1200 C   0  0  0  0  0  0  0  0  0  0  0  0
  140.0130   69.1850  227.1190 C   0  0  0  0  0  0  0  0  0  0  0  0
  139.7190   69.8230  225.9500 C   0  0  0  0  0  0  0  0  0  0  0  0
  138.9160   69.2440  225.0010 C   0  0  0  0  0  0  0  0  0  0  0  0
  138.4700   68.0890  225.2710 O   0  0  0  0  0  0  0  0  0  0  0  0
  138.6040   69.8630  223.8240 N   0  0  0  0  0  0  0  0  0  0  0  0
  137.7880   69.2360  222.8400 C   0  0  0  0  0  0  0  0  0  0  0  0
  138.4390   68.3060  221.8920 C   0  0  0  0  0  0  0  0  0  0  0  0
  138.4710   66.8870  222.3450 C   0  0  0  0  0  0  0  0  0  0  0  0
  139.5630   66.0930  221.6260 C   0  0  0  0  0  0  0  0  0  0  0  0
  139.6470   66.5680  220.2160 C   0  0  0  0  0  0  0  0  0  0  0  0
  140.0900   68.0090  220.0940 C   0  0  0  0  0  0  0  0  0  0  0  0
  139.7690   68.7940  221.3560 C   0  0  0  0  0  0  0  0  0  0  0  0
  141.2590   74.4940  221.2490 C   0  0  0  0  0  0  0  0  0  0  0  0
  141.4560   75.8690  221.2380 C   0  0  0  0  0  0  0  0  0  0  0  0
  140.4410   79.3460  223.8120 C   0  0  0  0  0  0  0  0  0  0  0  0
  140.1180   80.6980  223.2080 C   0  0  0  0  0  0  0  0  0  0  0  0
  141.6232   83.1934  221.9455 H   0  0  0  0  0  0  0  0  0  0  0  0
  142.2672   81.6622  221.2617 H   0  0  0  0  0  0  0  0  0  0  0  0
  140.4978   81.9717  221.2617 H   0  0  0  0  0  0  0  0  0  0  0  0
  143.3937   81.3107  223.0465 H   0  0  0  0  0  0  0  0  0  0  0  0
  142.5573   80.5733  224.4968 H   0  0  0  0  0  0  0  0  0  0  0  0
  142.7160   79.5098  221.6847 H   0  0  0  0  0  0  0  0  0  0  0  0
  143.3819   78.8168  223.2398 H   0  0  0  0  0  0  0  0  0  0  0  0
  139.7950   78.6998  221.6023 H   0  0  0  0  0  0  0  0  0  0  0  0
  141.4360   78.3973  220.9149 H   0  0  0  0  0  0  0  0  0  0  0  0
  138.6029   76.7725  222.7435 H   0  0  0  0  0  0  0  0  0  0  0  0
  138.2641   74.3510  222.7575 H   0  0  0  0  0  0  0  0  0  0  0  0
  140.6388   71.8254  221.2632 H   0  0  0  0  0  0  0  0  0  0  0  0
  137.9139   71.9422  221.9971 H   0  0  0  0  0  0  0  0  0  0  0  0
  141.4696   72.6285  226.5377 H   0  0  0  0  0  0  0  0  0  0  0  0
  141.9764   71.4542  228.6329 H   0  0  0  0  0  0  0  0  0  0  0  0
  141.0164   69.1436  229.0463 H   0  0  0  0  0  0  0  0  0  0  0  0
  139.5829   68.1845  227.2744 H   0  0  0  0  0  0  0  0  0  0  0  0
  137.0096   68.6696  223.3723 H   0  0  0  0  0  0  0  0  0  0  0  0
  137.4282   70.0639  222.2114 H   0  0  0  0  0  0  0  0  0  0  0  0
  137.7641   68.3081  221.0234 H   0  0  0  0  0  0  0  0  0  0  0  0
  138.6648   66.8617  223.4275 H   0  0  0  0  0  0  0  0  0  0  0  0
  137.4994   66.4279  222.1101 H   0  0  0  0  0  0  0  0  0  0  0  0
  140.5285   66.2520  222.1286 H   0  0  0  0  0  0  0  0  0  0  0  0
  139.3225   65.0198  221.6470 H   0  0  0  0  0  0  0  0  0  0  0  0
  140.3670   65.9348  219.6769 H   0  0  0  0  0  0  0  0  0  0  0  0
  138.6351   66.5017  219.7897 H   0  0  0  0  0  0  0  0  0  0  0  0
  141.1760   68.0367  219.9212 H   0  0  0  0  0  0  0  0  0  0  0  0
  139.5504   68.4682  219.2526 H   0  0  0  0  0  0  0  0  0  0  0  0
  140.5559   68.6297  222.1069 H   0  0  0  0  0  0  0  0  0  0  0  0
  139.7163   69.8695  221.1312 H   0  0  0  0  0  0  0  0  0  0  0  0
  142.0375   73.8505  220.8134 H   0  0  0  0  0  0  0  0  0  0  0  0
  142.3752   76.2837  220.7985 H   0  0  0  0  0  0  0  0  0  0  0  0
  139.5099   78.7720  223.9288 H   0  0  0  0  0  0  0  0  0  0  0  0
  140.9206   79.5033  224.7894 H   0  0  0  0  0  0  0  0  0  0  0  0
  139.6997   80.5590  222.2002 H   0  0  0  0  0  0  0  0  0  0  0  0
  139.3832   81.2167  223.8412 H   0  0  0  0  0  0  0  0  0  0  0  0
  1  2  1  0
  2  3  1  0
  3  4  1  0
  4  5  1  0
  5  6  1  0
  6  7  1  0
  7  8  2  0
  8  9  1  0
  9 10  2  0
 10 11  1  0
 11 12  2  0
 12 13  1  0
 13 14  2  0
 14 15  1  0
 15 16  2  0
 16 17  1  0
 17 18  2  0
 18 19  1  0
 19 20  2  0
 20 21  1  0
 21 22  2  0
 21 23  1  0
 23 24  1  0
 24 25  1  0
 25 26  1  0
 26 27  1  0
 27 28  1  0
 28 29  1  0
 29 30  1  0
 10 31  1  0
 31 32  2  0
  5 33  1  0
 33 34  1  0
 34  2  1  0
 32  7  1  0
 23 13  1  0
 30 25  1  0
 20 15  1  0
  1 35  1  0
  1 36  1  0
  1 37  1  0
  3 38  1  0
  3 39  1  0
  4 40  1  0
  4 41  1  0
  6 42  1  0
  6 43  1  0
  8 44  1  0
  9 45  1  0
 11 46  1  0
 12 47  1  0
 16 48  1  0
 17 49  1  0
 18 50  1  0
 19 51  1  0
 24 52  1  0
 24 53  1  0
 25 54  1  0
 26 55  1  0
 26 56  1  0
 27 57  1  0
 27 58  1  0
 28 59  1  0
 28 60  1  0
 29 61  1  0
 29 62  1  0
 30 63  1  0
 30 64  1  0
 31 65  1  0
 32 66  1  0
 33 67  1  0
 33 68  1  0
 34 69  1  0
 34 70  1  0
M  END
>  <smiles>  (42) 
CN1CCN(Cc2ccc(/C=C/c3nc4ccccc4c(=O)n3CC3CCCCC3)cc2)CC1

>  <score_type>  (42) 
oracle

>  <origin>  (42) 
autodockgpu

>  <m_score__min__energy>  (42) 
-9.5099999999999998

>  <m_primary>  (42) 
energy

>  <rmsd>  (42) 
6.835243194818013

>  <m_score__min__rmsd>  (42) 
6.835243194818013

>  <meeko>  (42) 
{"free_energy": -9.26, "intermolecular_energy": -11.34, "internal_energy": -1.74, "cluster_size": 47, "cluster_id": 1, "rank_in_cluster": 23}

>  <energy>  (42) 
-8.85

>  <cluster_rmsd>  (42) 
1.33

>  <cluster>  (42) 
1

$$$$

     RDKit          3D

 70 74  0  0  0  0  0  0  0  0999 V2000
  140.8600   81.9900  221.8860 C   0  0  0  0  0  0  0  0  0  0  0  0
  141.6220   81.3140  222.9210 N   0  0  0  0  0  0  0  0  0  0  0  0
  142.6450   80.4840  222.3140 C   0  0  0  0  0  0  0  0  0  0  0  0
  142.1400   79.1570  221.8290 C   0  0  0  0  0  0  0  0  0  0  0  0
  141.3350   78.4470  222.8080 N   0  0  0  0  0  0  0  0  0  0  0  0
  140.0390   78.0960  222.3210 C   0  0  0  0  0  0  0  0  0  0  0  0
  139.9370   76.6470  222.1170 C   0  0  0  0  0  0  0  0  0  0  0  0
  138.7740   75.9150  222.2070 C   0  0  0  0  0  0  0  0  0  0  0  0
  138.7190   74.5520  222.0080 C   0  0  0  0  0  0  0  0  0  0  0  0
  139.8740   73.8270  221.6960 C   0  0  0  0  0  0  0  0  0  0  0  0
  139.7980   72.3880  221.4930 C   0  0  0  0  0  0  0  0  0  0  0  0
  140.5880   71.5110  222.0550 C   0  0  0  0  0  0  0  0  0  0  0  0
  140.2990   70.9680  223.3840 C   0  0  0  0  0  0  0  0  0  0  0  0
  140.7870   71.6640  224.4340 N   0  0  0  0  0  0  0  0  0  0  0  0
  140.6330   71.2760  225.6930 C   0  0  0  0  0  0  0  0  0  0  0  0
  141.1070   71.9490  226.7950 C   0  0  0  0  0  0  0  0  0  0  0  0
  140.9170   71.5020  228.0850 C   0  0  0  0  0  0  0  0  0  0  0  0
  140.2160   70.3140  228.3180 C   0  0  0  0  0  0  0  0  0  0  0  0
  139.7560   69.6650  227.1940 C   0  0  0  0  0  0  0  0  0  0  0  0
  139.9360   70.0970  225.9130 C   0  0  0  0  0  0  0  0  0  0  0  0
  139.4430   69.3920  224.8440 C   0  0  0  0  0  0  0  0  0  0  0  0
  138.8180   68.3250  225.1150 O   0  0  0  0  0  0  0  0  0  0  0  0
  139.6080   69.8060  223.5520 N   0  0  0  0  0  0  0  0  0  0  0  0
  139.1100   69.0490  222.4530 C   0  0  0  0  0  0  0  0  0  0  0  0
  137.6570   69.0970  222.1820 C   0  0  0  0  0  0  0  0  0  0  0  0
  136.9430   70.2230  222.8460 C   0  0  0  0  0  0  0  0  0  0  0  0
  135.4450   69.9430  222.9700 C   0  0  0  0  0  0  0  0  0  0  0  0
  134.9950   69.2140  221.7500 C   0  0  0  0  0  0  0  0  0  0  0  0
  135.6210   67.8440  221.6060 C   0  0  0  0  0  0  0  0  0  0  0  0
  136.9520   67.7660  222.3380 C   0  0  0  0  0  0  0  0  0  0  0  0
  141.0340   74.5560  221.6070 C   0  0  0  0  0  0  0  0  0  0  0  0
  141.0880   75.9290  221.8080 C   0  0  0  0  0  0  0  0  0  0  0  0
  141.2970   79.1960  224.0400 C   0  0  0  0  0  0  0  0  0  0  0  0
  140.7430   80.5880  223.8080 C   0  0  0  0  0  0  0  0  0  0  0  0
  140.1147   82.6512  222.3521 H   0  0  0  0  0  0  0  0  0  0  0  0
  141.5401   82.5873  221.2609 H   0  0  0  0  0  0  0  0  0  0  0  0
  140.3480   81.2436  221.2609 H   0  0  0  0  0  0  0  0  0  0  0  0
  143.0693   81.0277  221.4571 H   0  0  0  0  0  0  0  0  0  0  0  0
  143.3929   80.2764  223.0934 H   0  0  0  0  0  0  0  0  0  0  0  0
  141.5270   79.3254  220.9313 H   0  0  0  0  0  0  0  0  0  0  0  0
  143.0218   78.5324  221.6230 H   0  0  0  0  0  0  0  0  0  0  0  0
  139.2806   78.4120  223.0524 H   0  0  0  0  0  0  0  0  0  0  0  0
  139.8742   78.6013  221.3579 H   0  0  0  0  0  0  0  0  0  0  0  0
  137.8413   76.4450  222.4501 H   0  0  0  0  0  0  0  0  0  0  0  0
  137.7556   74.0283  222.0956 H   0  0  0  0  0  0  0  0  0  0  0  0
  139.0176   72.0100  220.8162 H   0  0  0  0  0  0  0  0  0  0  0  0
  141.4876   71.1743  221.5190 H   0  0  0  0  0  0  0  0  0  0  0  0
  141.6625   72.8857  226.6399 H   0  0  0  0  0  0  0  0  0  0  0  0
  141.3167   72.0796  228.9315 H   0  0  0  0  0  0  0  0  0  0  0  0
  140.0437   69.9241  229.3320 H   0  0  0  0  0  0  0  0  0  0  0  0
  139.2011   68.7266  227.3405 H   0  0  0  0  0  0  0  0  0  0  0  0
  139.6240   69.4071  221.5488 H   0  0  0  0  0  0  0  0  0  0  0  0
  139.3050   68.0020  222.7281 H   0  0  0  0  0  0  0  0  0  0  0  0
  137.6018   69.3252  221.1074 H   0  0  0  0  0  0  0  0  0  0  0  0
  137.3635   70.3690  223.8519 H   0  0  0  0  0  0  0  0  0  0  0  0
  137.0751   71.1253  222.2308 H   0  0  0  0  0  0  0  0  0  0  0  0
  135.2557   69.3264  223.8611 H   0  0  0  0  0  0  0  0  0  0  0  0
  134.8926   70.8892  223.0676 H   0  0  0  0  0  0  0  0  0  0  0  0
  133.9024   69.0953  221.7974 H   0  0  0  0  0  0  0  0  0  0  0  0
  135.3101   69.8091  220.8802 H   0  0  0  0  0  0  0  0  0  0  0  0
  134.9368   67.0914  222.0249 H   0  0  0  0  0  0  0  0  0  0  0  0
  135.8003   67.6543  220.5374 H   0  0  0  0  0  0  0  0  0  0  0  0
  136.7788   67.5592  223.4044 H   0  0  0  0  0  0  0  0  0  0  0  0
  137.5693   66.9579  221.9186 H   0  0  0  0  0  0  0  0  0  0  0  0
  141.9670   74.0262  221.3644 H   0  0  0  0  0  0  0  0  0  0  0  0
  142.0506   76.4543  221.7220 H   0  0  0  0  0  0  0  0  0  0  0  0
  140.6566   78.6690  224.7626 H   0  0  0  0  0  0  0  0  0  0  0  0
  142.3218   79.2852  224.4296 H   0  0  0  0  0  0  0  0  0  0  0  0
  139.7436   80.5141  223.3544 H   0  0  0  0  0  0  0  0  0  0  0  0
  140.6710   81.1190  224.7687 H   0  0  0  0  0  0  0  0  0  0  0  0
  1  2  1  0
  2  3  1  0
  3  4  1  0
  4  5  1  0
  5  6  1  0
  6  7  1  0
  7  8  2  0
  8  9  1  0
  9 10  2  0
 10 11  1  0
 11 12  2  0
 12 13  1  0
 13 14  2  0
 14 15  1  0
 15 16  2  0
 16 17  1  0
 17 18  2  0
 18 19  1  0
 19 20  2  0
 20 21  1  0
 21 22  2  0
 21 23  1  0
 23 24  1  0
 24 25  1  0
 25 26  1  0
 26 27  1  0
 27 28  1  0
 28 29  1  0
 29 30  1  0
 10 31  1  0
 31 32  2  0
  5 33  1  0
 33 34  1  0
 34  2  1  0
 32  7  1  0
 23 13  1  0
 30 25  1  0
 20 15  1  0
  1 35  1  0
  1 36  1  0
  1 37  1  0
  3 38  1  0
  3 39  1  0
  4 40  1  0
  4 41  1  0
  6 42  1  0
  6 43  1  0
  8 44  1  0
  9 45  1  0
 11 46  1  0
 12 47  1  0
 16 48  1  0
 17 49  1  0
 18 50  1  0
 19 51  1  0
 24 52  1  0
 24 53  1  0
 25 54  1  0
 26 55  1  0
 26 56  1  0
 27 57  1  0
 27 58  1  0
 28 59  1  0
 28 60  1  0
 29 61  1  0
 29 62  1  0
 30 63  1  0
 30 64  1  0
 31 65  1  0
 32 66  1  0
 33 67  1  0
 33 68  1  0
 34 69  1  0
 34 70  1  0
M  END
>  <smiles>  (43) 
CN1CCN(Cc2ccc(/C=C/c3nc4ccccc4c(=O)n3CC3CCCCC3)cc2)CC1

>  <score_type>  (43) 
oracle

>  <origin>  (43) 
autodockgpu

>  <m_score__min__energy>  (43) 
-9.5099999999999998

>  <m_primary>  (43) 
energy

>  <rmsd>  (43) 
6.830821534491066

>  <m_score__min__rmsd>  (43) 
6.830821534491066

>  <meeko>  (43) 
{"free_energy": -8.83, "intermolecular_energy": -10.92, "internal_energy": -1.87, "cluster_size": 47, "cluster_id": 1, "rank_in_cluster": 43}

>  <energy>  (43) 
-8.83

>  <cluster_rmsd>  (43) 
0.69

>  <cluster>  (43) 
1

$$$$

     RDKit          3D

 70 74  0  0  0  0  0  0  0  0999 V2000
  141.7700   81.4610  221.5390 C   0  0  0  0  0  0  0  0  0  0  0  0
  141.3140   81.2390  222.9000 N   0  0  0  0  0  0  0  0  0  0  0  0
  142.1530   80.2460  223.5430 C   0  0  0  0  0  0  0  0  0  0  0  0
  141.7900   78.8310  223.1970 C   0  0  0  0  0  0  0  0  0  0  0  0
  140.3720   78.5460  223.3220 N   0  0  0  0  0  0  0  0  0  0  0  0
  139.7950   78.0280  222.1230 C   0  0  0  0  0  0  0  0  0  0  0  0
  140.0250   76.5820  222.0210 C   0  0  0  0  0  0  0  0  0  0  0  0
  141.2010   75.9960  221.6100 C   0  0  0  0  0  0  0  0  0  0  0  0
  141.3790   74.6310  221.5280 C   0  0  0  0  0  0  0  0  0  0  0  0
  140.3440   73.7530  221.8680 C   0  0  0  0  0  0  0  0  0  0  0  0
  140.5470   72.3150  221.7720 C   0  0  0  0  0  0  0  0  0  0  0  0
  139.6780   71.4100  222.1380 C   0  0  0  0  0  0  0  0  0  0  0  0
  139.6920   70.8430  223.4870 C   0  0  0  0  0  0  0  0  0  0  0  0
  140.2950   71.5830  224.4430 N   0  0  0  0  0  0  0  0  0  0  0  0
  140.4140   71.1810  225.7020 C   0  0  0  0  0  0  0  0  0  0  0  0
  141.0150   71.8980  226.7090 C   0  0  0  0  0  0  0  0  0  0  0  0
  141.1100   71.4350  228.0050 C   0  0  0  0  0  0  0  0  0  0  0  0
  140.5820   70.1840  228.3400 C   0  0  0  0  0  0  0  0  0  0  0  0
  139.9870   69.4930  227.3080 C   0  0  0  0  0  0  0  0  0  0  0  0
  139.8860   69.9400  226.0240 C   0  0  0  0  0  0  0  0  0  0  0  0
  139.2750   69.1910  225.0500 C   0  0  0  0  0  0  0  0  0  0  0  0
  138.8160   68.0670  225.4120 O   0  0  0  0  0  0  0  0  0  0  0  0
  139.1590   69.6180  223.7580 N   0  0  0  0  0  0  0  0  0  0  0  0
  138.5430   68.8160  222.7560 C   0  0  0  0  0  0  0  0  0  0  0  0
  137.0940   68.5470  222.8790 C   0  0  0  0  0  0  0  0  0  0  0  0
  136.4640   67.9840  221.6520 C   0  0  0  0  0  0  0  0  0  0  0  0
  134.9520   68.2090  221.6430 C   0  0  0  0  0  0  0  0  0  0  0  0
  134.4410   68.0690  223.0360 C   0  0  0  0  0  0  0  0  0  0  0  0
  134.9710   69.1280  223.9780 C   0  0  0  0  0  0  0  0  0  0  0  0
  136.3010   69.6830  223.4910 C   0  0  0  0  0  0  0  0  0  0  0  0
  139.1710   74.3370  222.2780 C   0  0  0  0  0  0  0  0  0  0  0  0
  138.9930   75.7120  222.3600 C   0  0  0  0  0  0  0  0  0  0  0  0
  139.6860   79.7110  223.8260 C   0  0  0  0  0  0  0  0  0  0  0  0
  139.9090   80.9040  222.9170 C   0  0  0  0  0  0  0  0  0  0  0  0
  142.7589   81.9424  221.5576 H   0  0  0  0  0  0  0  0  0  0  0  0
  141.8414   80.4968  221.0143 H   0  0  0  0  0  0  0  0  0  0  0  0
  141.0551   82.1119  221.0143 H   0  0  0  0  0  0  0  0  0  0  0  0
  143.1949   80.4216  223.2371 H   0  0  0  0  0  0  0  0  0  0  0  0
  142.0084   80.3580  224.6277 H   0  0  0  0  0  0  0  0  0  0  0  0
  142.0926   78.6390  222.1570 H   0  0  0  0  0  0  0  0  0  0  0  0
  142.3134   78.1802  223.9129 H   0  0  0  0  0  0  0  0  0  0  0  0
  138.7123   78.2221  222.1298 H   0  0  0  0  0  0  0  0  0  0  0  0
  140.2653   78.5233  221.2607 H   0  0  0  0  0  0  0  0  0  0  0  0
  142.0412   76.6497  221.3330 H   0  0  0  0  0  0  0  0  0  0  0  0
  142.3456   74.2279  221.1915 H   0  0  0  0  0  0  0  0  0  0  0  0
  141.5044   71.9632  221.3602 H   0  0  0  0  0  0  0  0  0  0  0  0
  138.9207   71.0676  221.4174 H   0  0  0  0  0  0  0  0  0  0  0  0
  141.4390   72.8847  226.4709 H   0  0  0  0  0  0  0  0  0  0  0  0
  141.6007   72.0493  228.7744 H   0  0  0  0  0  0  0  0  0  0  0  0
  140.6383   69.7785  229.3610 H   0  0  0  0  0  0  0  0  0  0  0  0
  139.5608   68.5052  227.5371 H   0  0  0  0  0  0  0  0  0  0  0  0
  138.7021   69.3186  221.7905 H   0  0  0  0  0  0  0  0  0  0  0  0
  139.0168   67.8290  222.8627 H   0  0  0  0  0  0  0  0  0  0  0  0
  137.0450   67.7332  223.6174 H   0  0  0  0  0  0  0  0  0  0  0  0
  136.9029   68.4718  220.7692 H   0  0  0  0  0  0  0  0  0  0  0  0
  136.6511   66.9002  221.6350 H   0  0  0  0  0  0  0  0  0  0  0  0
  134.7300   69.2185  221.2668 H   0  0  0  0  0  0  0  0  0  0  0  0
  134.4664   67.4697  220.9891 H   0  0  0  0  0  0  0  0  0  0  0  0
  133.3435   68.1393  223.0138 H   0  0  0  0  0  0  0  0  0  0  0  0
  134.7868   67.0953  223.4132 H   0  0  0  0  0  0  0  0  0  0  0  0
  134.2416   69.9489  224.0416 H   0  0  0  0  0  0  0  0  0  0  0  0
  135.1262   68.6690  224.9655 H   0  0  0  0  0  0  0  0  0  0  0  0
  136.1245   70.4629  222.7356 H   0  0  0  0  0  0  0  0  0  0  0  0
  136.8577   70.1251  224.3304 H   0  0  0  0  0  0  0  0  0  0  0  0
  138.3307   73.6836  222.5553 H   0  0  0  0  0  0  0  0  0  0  0  0
  138.0271   76.1172  222.6961 H   0  0  0  0  0  0  0  0  0  0  0  0
  138.6083   79.4980  223.8833 H   0  0  0  0  0  0  0  0  0  0  0  0
  140.0834   79.9494  224.8236 H   0  0  0  0  0  0  0  0  0  0  0  0
  139.5788   80.6553  221.8976 H   0  0  0  0  0  0  0  0  0  0  0  0
  139.3313   81.7627  223.2898 H   0  0  0  0  0  0  0  0  0  0  0  0
  1  2  1  0
  2  3  1  0
  3  4  1  0
  4  5  1  0
  5  6  1  0
  6  7  1  0
  7  8  2  0
  8  9  1  0
  9 10  2  0
 10 11  1  0
 11 12  2  0
 12 13  1  0
 13 14  2  0
 14 15  1  0
 15 16  2  0
 16 17  1  0
 17 18  2  0
 18 19  1  0
 19 20  2  0
 20 21  1  0
 21 22  2  0
 21 23  1  0
 23 24  1  0
 24 25  1  0
 25 26  1  0
 26 27  1  0
 27 28  1  0
 28 29  1  0
 29 30  1  0
 10 31  1  0
 31 32  2  0
  5 33  1  0
 33 34  1  0
 34  2  1  0
 32  7  1  0
 23 13  1  0
 30 25  1  0
 20 15  1  0
  1 35  1  0
  1 36  1  0
  1 37  1  0
  3 38  1  0
  3 39  1  0
  4 40  1  0
  4 41  1  0
  6 42  1  0
  6 43  1  0
  8 44  1  0
  9 45  1  0
 11 46  1  0
 12 47  1  0
 16 48  1  0
 17 49  1  0
 18 50  1  0
 19 51  1  0
 24 52  1  0
 24 53  1  0
 25 54  1  0
 26 55  1  0
 26 56  1  0
 27 57  1  0
 27 58  1  0
 28 59  1  0
 28 60  1  0
 29 61  1  0
 29 62  1  0
 30 63  1  0
 30 64  1  0
 31 65  1  0
 32 66  1  0
 33 67  1  0
 33 68  1  0
 34 69  1  0
 34 70  1  0
M  END
>  <smiles>  (44) 
CN1CCN(Cc2ccc(/C=C/c3nc4ccccc4c(=O)n3CC3CCCCC3)cc2)CC1

>  <score_type>  (44) 
oracle

>  <origin>  (44) 
autodockgpu

>  <m_score__min__energy>  (44) 
-9.5099999999999998

>  <m_primary>  (44) 
energy

>  <rmsd>  (44) 
6.517584586530608

>  <m_score__min__rmsd>  (44) 
6.517584586530608

>  <meeko>  (44) 
{"free_energy": -9.21, "intermolecular_energy": -11.3, "internal_energy": -1.71, "cluster_size": 47, "cluster_id": 1, "rank_in_cluster": 28}

>  <energy>  (44) 
-8.72

>  <cluster_rmsd>  (44) 
0.73

>  <cluster>  (44) 
1

$$$$

     RDKit          3D

 70 74  0  0  0  0  0  0  0  0999 V2000
  141.3560   82.0180  221.6890 C   0  0  0  0  0  0  0  0  0  0  0  0
  141.1790   81.3950  222.9890 N   0  0  0  0  0  0  0  0  0  0  0  0
  142.4210   80.7710  223.4070 C   0  0  0  0  0  0  0  0  0  0  0  0
  142.6550   79.4200  222.7980 C   0  0  0  0  0  0  0  0  0  0  0  0
  141.5110   78.5310  222.8950 N   0  0  0  0  0  0  0  0  0  0  0  0
  141.0860   78.0240  221.6290 C   0  0  0  0  0  0  0  0  0  0  0  0
  140.5780   76.6540  221.7650 C   0  0  0  0  0  0  0  0  0  0  0  0
  141.3000   75.5130  221.4940 C   0  0  0  0  0  0  0  0  0  0  0  0
  140.7870   74.2400  221.6350 C   0  0  0  0  0  0  0  0  0  0  0  0
  139.4730   74.0430  222.0710 C   0  0  0  0  0  0  0  0  0  0  0  0
  138.9460   72.6940  222.2100 C   0  0  0  0  0  0  0  0  0  0  0  0
  139.6750   71.6140  222.3250 C   0  0  0  0  0  0  0  0  0  0  0  0
  139.7580   70.8820  223.5890 C   0  0  0  0  0  0  0  0  0  0  0  0
  140.2720   71.5580  224.6400 N   0  0  0  0  0  0  0  0  0  0  0  0
  140.4390   71.0130  225.8390 C   0  0  0  0  0  0  0  0  0  0  0  0
  140.9550   71.6570  226.9380 C   0  0  0  0  0  0  0  0  0  0  0  0
  141.1060   71.0450  228.1640 C   0  0  0  0  0  0  0  0  0  0  0  0
  140.7270   69.7090  228.3290 C   0  0  0  0  0  0  0  0  0  0  0  0
  140.2150   69.0930  227.2090 C   0  0  0  0  0  0  0  0  0  0  0  0
  140.0600   69.6870  225.9920 C   0  0  0  0  0  0  0  0  0  0  0  0
  139.5390   69.0050  224.9210 C   0  0  0  0  0  0  0  0  0  0  0  0
  139.2150   67.7980  225.1300 O   0  0  0  0  0  0  0  0  0  0  0  0
  139.3710   69.5790  223.6930 N   0  0  0  0  0  0  0  0  0  0  0  0
  138.8510   68.8480  222.5880 C   0  0  0  0  0  0  0  0  0  0  0  0
  137.3840   68.8290  222.4000 C   0  0  0  0  0  0  0  0  0  0  0  0
  136.9240   69.3520  221.0830 C   0  0  0  0  0  0  0  0  0  0  0  0
  135.4600   69.7910  221.1330 C   0  0  0  0  0  0  0  0  0  0  0  0
  134.7120   68.8510  222.0160 C   0  0  0  0  0  0  0  0  0  0  0  0
  135.1640   68.8950  223.4580 C   0  0  0  0  0  0  0  0  0  0  0  0
  136.6000   69.3840  223.5710 C   0  0  0  0  0  0  0  0  0  0  0  0
  138.7530   75.1800  222.3410 C   0  0  0  0  0  0  0  0  0  0  0  0
  139.2710   76.4610  222.1990 C   0  0  0  0  0  0  0  0  0  0  0  0
  140.4540   79.1800  223.6310 C   0  0  0  0  0  0  0  0  0  0  0  0
  140.0570   80.4860  222.9700 C   0  0  0  0  0  0  0  0  0  0  0  0
  141.6544   83.0682  221.8233 H   0  0  0  0  0  0  0  0  0  0  0  0
  142.1378   81.4834  221.1296 H   0  0  0  0  0  0  0  0  0  0  0  0
  140.4099   81.9743  221.1296 H   0  0  0  0  0  0  0  0  0  0  0  0
  143.2538   81.4298  223.1199 H   0  0  0  0  0  0  0  0  0  0  0  0
  142.3556   80.6248  224.4953 H   0  0  0  0  0  0  0  0  0  0  0  0
  142.9001   79.5561  221.7343 H   0  0  0  0  0  0  0  0  0  0  0  0
  143.4757   78.9511  223.3606 H   0  0  0  0  0  0  0  0  0  0  0  0
  140.2875   78.6678  221.2314 H   0  0  0  0  0  0  0  0  0  0  0  0
  141.9461   78.0167  220.9433 H   0  0  0  0  0  0  0  0  0  0  0  0
  142.3383   75.6221  221.1476 H   0  0  0  0  0  0  0  0  0  0  0  0
  141.4187   73.3702  221.4018 H   0  0  0  0  0  0  0  0  0  0  0  0
  137.8527   72.5733  222.2191 H   0  0  0  0  0  0  0  0  0  0  0  0
  140.2374   71.2485  221.4531 H   0  0  0  0  0  0  0  0  0  0  0  0
  141.2614   72.7084  226.8347 H   0  0  0  0  0  0  0  0  0  0  0  0
  141.5243   71.6071  229.0119 H   0  0  0  0  0  0  0  0  0  0  0  0
  140.8311   69.1847  229.2904 H   0  0  0  0  0  0  0  0  0  0  0  0
  139.9075   68.0411  227.3036 H   0  0  0  0  0  0  0  0  0  0  0  0
  139.2928   69.2750  221.6756 H   0  0  0  0  0  0  0  0  0  0  0  0
  139.1157   67.8016  222.8001 H   0  0  0  0  0  0  0  0  0  0  0  0
  137.1411   67.7564  222.3761 H   0  0  0  0  0  0  0  0  0  0  0  0
  137.5464   70.2151  220.8043 H   0  0  0  0  0  0  0  0  0  0  0  0
  137.0166   68.5455  220.3407 H   0  0  0  0  0  0  0  0  0  0  0  0
  135.3928   70.8119  221.5370 H   0  0  0  0  0  0  0  0  0  0  0  0
  135.0292   69.7795  220.1209 H   0  0  0  0  0  0  0  0  0  0  0  0
  133.6439   69.1111  221.9771 H   0  0  0  0  0  0  0  0  0  0  0  0
  134.9054   67.8335  221.6456 H   0  0  0  0  0  0  0  0  0  0  0  0
  134.5078   69.5769  224.0188 H   0  0  0  0  0  0  0  0  0  0  0  0
  135.1099   67.8768  223.8707 H   0  0  0  0  0  0  0  0  0  0  0  0
  136.6218   70.4835  223.5457 H   0  0  0  0  0  0  0  0  0  0  0  0
  137.0428   69.0446  224.5190 H   0  0  0  0  0  0  0  0  0  0  0  0
  137.7145   75.0714  222.6869 H   0  0  0  0  0  0  0  0  0  0  0  0
  138.6408   77.3319  222.4323 H   0  0  0  0  0  0  0  0  0  0  0  0
  139.5791   78.5142  223.6673 H   0  0  0  0  0  0  0  0  0  0  0  0
  140.8149   79.3961  224.6474 H   0  0  0  0  0  0  0  0  0  0  0  0
  139.7580   80.2941  221.9290 H   0  0  0  0  0  0  0  0  0  0  0  0
  139.2136   80.9326  223.5170 H   0  0  0  0  0  0  0  0  0  0  0  0
  1  2  1  0
  2  3  1  0
  3  4  1  0
  4  5  1  0
  5  6  1  0
  6  7  1  0
  7  8  2  0
  8  9  1  0
  9 10  2  0
 10 11  1  0
 11 12  2  0
 12 13  1  0
 13 14  2  0
 14 15  1  0
 15 16  2  0
 16 17  1  0
 17 18  2  0
 18 19  1  0
 19 20  2  0
 20 21  1  0
 21 22  2  0
 21 23  1  0
 23 24  1  0
 24 25  1  0
 25 26  1  0
 26 27  1  0
 27 28  1  0
 28 29  1  0
 29 30  1  0
 10 31  1  0
 31 32  2  0
  5 33  1  0
 33 34  1  0
 34  2  1  0
 32  7  1  0
 23 13  1  0
 30 25  1  0
 20 15  1  0
  1 35  1  0
  1 36  1  0
  1 37  1  0
  3 38  1  0
  3 39  1  0
  4 40  1  0
  4 41  1  0
  6 42  1  0
  6 43  1  0
  8 44  1  0
  9 45  1  0
 11 46  1  0
 12 47  1  0
 16 48  1  0
 17 49  1  0
 18 50  1  0
 19 51  1  0
 24 52  1  0
 24 53  1  0
 25 54  1  0
 26 55  1  0
 26 56  1  0
 27 57  1  0
 27 58  1  0
 28 59  1  0
 28 60  1  0
 29 61  1  0
 29 62  1  0
 30 63  1  0
 30 64  1  0
 31 65  1  0
 32 66  1  0
 33 67  1  0
 33 68  1  0
 34 69  1  0
 34 70  1  0
M  END
>  <smiles>  (45) 
CN1CCN(Cc2ccc(/C=C/c3nc4ccccc4c(=O)n3CC3CCCCC3)cc2)CC1

>  <score_type>  (45) 
oracle

>  <origin>  (45) 
autodockgpu

>  <m_score__min__energy>  (45) 
-9.5099999999999998

>  <m_primary>  (45) 
energy

>  <rmsd>  (45) 
6.546444343900495

>  <m_score__min__rmsd>  (45) 
6.546444343900495

>  <meeko>  (45) 
{"free_energy": -9.27, "intermolecular_energy": -11.36, "internal_energy": -1.77, "cluster_size": 47, "cluster_id": 1, "rank_in_cluster": 21}

>  <energy>  (45) 
-8.71

>  <cluster_rmsd>  (45) 
1.31

>  <cluster>  (45) 
1

$$$$

     RDKit          3D

 70 74  0  0  0  0  0  0  0  0999 V2000
  141.4370   82.0760  221.9630 C   0  0  0  0  0  0  0  0  0  0  0  0
  141.3180   81.3890  223.2370 N   0  0  0  0  0  0  0  0  0  0  0  0
  142.5680   80.7250  223.5550 C   0  0  0  0  0  0  0  0  0  0  0  0
  142.7440   79.4040  222.8660 C   0  0  0  0  0  0  0  0  0  0  0  0
  141.5900   78.5300  222.9790 N   0  0  0  0  0  0  0  0  0  0  0  0
  141.0880   78.0950  221.7130 C   0  0  0  0  0  0  0  0  0  0  0  0
  140.6030   76.7140  221.7960 C   0  0  0  0  0  0  0  0  0  0  0  0
  141.3420   75.5960  221.4780 C   0  0  0  0  0  0  0  0  0  0  0  0
  140.8500   74.3110  221.5690 C   0  0  0  0  0  0  0  0  0  0  0  0
  139.5400   74.0750  222.0010 C   0  0  0  0  0  0  0  0  0  0  0  0
  139.0350   72.7130  222.0870 C   0  0  0  0  0  0  0  0  0  0  0  0
  139.7750   71.6510  222.2660 C   0  0  0  0  0  0  0  0  0  0  0  0
  139.8240   70.9650  223.5580 C   0  0  0  0  0  0  0  0  0  0  0  0
  140.3470   71.6650  224.5890 N   0  0  0  0  0  0  0  0  0  0  0  0
  140.4850   71.1610  225.8080 C   0  0  0  0  0  0  0  0  0  0  0  0
  141.0080   71.8320  226.8890 C   0  0  0  0  0  0  0  0  0  0  0  0
  141.1280   71.2630  228.1390 C   0  0  0  0  0  0  0  0  0  0  0  0
  140.7090   69.9440  228.3490 C   0  0  0  0  0  0  0  0  0  0  0  0
  140.1910   69.3010  227.2470 C   0  0  0  0  0  0  0  0  0  0  0  0
  140.0660   69.8540  226.0070 C   0  0  0  0  0  0  0  0  0  0  0  0
  139.5370   69.1460  224.9570 C   0  0  0  0  0  0  0  0  0  0  0  0
  139.1760   67.9580  225.2070 O   0  0  0  0  0  0  0  0  0  0  0  0
  139.3990   69.6790  223.7060 N   0  0  0  0  0  0  0  0  0  0  0  0
  138.8690   68.9210  222.6230 C   0  0  0  0  0  0  0  0  0  0  0  0
  137.4390   68.5480  222.6750 C   0  0  0  0  0  0  0  0  0  0  0  0
  136.9120   67.9500  221.4160 C   0  0  0  0  0  0  0  0  0  0  0  0
  135.3890   68.0660  221.3340 C   0  0  0  0  0  0  0  0  0  0  0  0
  134.8240   67.8780  222.7000 C   0  0  0  0  0  0  0  0  0  0  0  0
  135.2300   68.9640  223.6720 C   0  0  0  0  0  0  0  0  0  0  0  0
  136.5380   69.6180  223.2530 C   0  0  0  0  0  0  0  0  0  0  0  0
  138.8030   75.1890  222.3180 C   0  0  0  0  0  0  0  0  0  0  0  0
  139.2990   76.4830  222.2250 C   0  0  0  0  0  0  0  0  0  0  0  0
  140.5860   79.1560  223.8030 C   0  0  0  0  0  0  0  0  0  0  0  0
  140.1790   80.5010  223.2320 C   0  0  0  0  0  0  0  0  0  0  0  0
  141.6223   83.1459  222.1392 H   0  0  0  0  0  0  0  0  0  0  0  0
  142.2744   81.6479  221.3924 H   0  0  0  0  0  0  0  0  0  0  0  0
  140.5044   81.9545  221.3924 H   0  0  0  0  0  0  0  0  0  0  0  0
  143.3966   81.3845  223.2574 H   0  0  0  0  0  0  0  0  0  0  0  0
  142.5578   80.5236  224.6364 H   0  0  0  0  0  0  0  0  0  0  0  0
  142.9350   79.5912  221.7990 H   0  0  0  0  0  0  0  0  0  0  0  0
  143.5844   78.8932  223.3587 H   0  0  0  0  0  0  0  0  0  0  0  0
  140.2595   78.7512  221.4080 H   0  0  0  0  0  0  0  0  0  0  0  0
  141.9020   78.1407  220.9745 H   0  0  0  0  0  0  0  0  0  0  0  0
  142.3775   75.7353  221.1339 H   0  0  0  0  0  0  0  0  0  0  0  0
  141.4947   73.4616  221.2989 H   0  0  0  0  0  0  0  0  0  0  0  0
  137.9488   72.5664  221.9944 H   0  0  0  0  0  0  0  0  0  0  0  0
  140.3737   71.2644  221.4281 H   0  0  0  0  0  0  0  0  0  0  0  0
  141.3458   72.8696  226.7498 H   0  0  0  0  0  0  0  0  0  0  0  0
  141.5525   71.8449  228.9704 H   0  0  0  0  0  0  0  0  0  0  0  0
  140.7883   69.4532  229.3302 H   0  0  0  0  0  0  0  0  0  0  0  0
  139.8524   68.2625  227.3769 H   0  0  0  0  0  0  0  0  0  0  0  0
  139.0212   69.5091  221.7059 H   0  0  0  0  0  0  0  0  0  0  0  0
  139.4064   67.9622  222.6679 H   0  0  0  0  0  0  0  0  0  0  0  0
  137.4124   67.7278  223.4075 H   0  0  0  0  0  0  0  0  0  0  0  0
  137.3570   68.4746  220.5577 H   0  0  0  0  0  0  0  0  0  0  0  0
  137.1777   66.8826  221.4037 H   0  0  0  0  0  0  0  0  0  0  0  0
  135.1130   69.0601  220.9523 H   0  0  0  0  0  0  0  0  0  0  0  0
  134.9897   67.2997  220.6533 H   0  0  0  0  0  0  0  0  0  0  0  0
  133.7266   67.8691  222.6254 H   0  0  0  0  0  0  0  0  0  0  0  0
  135.2216   66.9288  223.0884 H   0  0  0  0  0  0  0  0  0  0  0  0
  134.4407   69.7294  223.7046 H   0  0  0  0  0  0  0  0  0  0  0  0
  135.3707   68.5086  224.6634 H   0  0  0  0  0  0  0  0  0  0  0  0
  136.3419   70.3895  222.4938 H   0  0  0  0  0  0  0  0  0  0  0  0
  137.0202   70.0923  224.1205 H   0  0  0  0  0  0  0  0  0  0  0  0
  137.7678   75.0498  222.6629 H   0  0  0  0  0  0  0  0  0  0  0  0
  138.6551   77.3336  222.4930 H   0  0  0  0  0  0  0  0  0  0  0  0
  139.7020   78.5032  223.8521 H   0  0  0  0  0  0  0  0  0  0  0  0
  141.0040   79.3128  224.8083 H   0  0  0  0  0  0  0  0  0  0  0  0
  139.8215   80.3686  222.2002 H   0  0  0  0  0  0  0  0  0  0  0  0
  139.3743   80.9322  223.8456 H   0  0  0  0  0  0  0  0  0  0  0  0
  1  2  1  0
  2  3  1  0
  3  4  1  0
  4  5  1  0
  5  6  1  0
  6  7  1  0
  7  8  2  0
  8  9  1  0
  9 10  2  0
 10 11  1  0
 11 12  2  0
 12 13  1  0
 13 14  2  0
 14 15  1  0
 15 16  2  0
 16 17  1  0
 17 18  2  0
 18 19  1  0
 19 20  2  0
 20 21  1  0
 21 22  2  0
 21 23  1  0
 23 24  1  0
 24 25  1  0
 25 26  1  0
 26 27  1  0
 27 28  1  0
 28 29  1  0
 29 30  1  0
 10 31  1  0
 31 32  2  0
  5 33  1  0
 33 34  1  0
 34  2  1  0
 32  7  1  0
 23 13  1  0
 30 25  1  0
 20 15  1  0
  1 35  1  0
  1 36  1  0
  1 37  1  0
  3 38  1  0
  3 39  1  0
  4 40  1  0
  4 41  1  0
  6 42  1  0
  6 43  1  0
  8 44  1  0
  9 45  1  0
 11 46  1  0
 12 47  1  0
 16 48  1  0
 17 49  1  0
 18 50  1  0
 19 51  1  0
 24 52  1  0
 24 53  1  0
 25 54  1  0
 26 55  1  0
 26 56  1  0
 27 57  1  0
 27 58  1  0
 28 59  1  0
 28 60  1  0
 29 61  1  0
 29 62  1  0
 30 63  1  0
 30 64  1  0
 31 65  1  0
 32 66  1  0
 33 67  1  0
 33 68  1  0
 34 69  1  0
 34 70  1  0
M  END
>  <smiles>  (46) 
CN1CCN(Cc2ccc(/C=C/c3nc4ccccc4c(=O)n3CC3CCCCC3)cc2)CC1

>  <score_type>  (46) 
oracle

>  <origin>  (46) 
autodockgpu

>  <m_score__min__energy>  (46) 
-9.5099999999999998

>  <m_primary>  (46) 
energy

>  <rmsd>  (46) 
6.5924635988879725

>  <m_score__min__rmsd>  (46) 
6.5924635988879725

>  <meeko>  (46) 
{"free_energy": -9.5, "intermolecular_energy": -11.59, "internal_energy": -1.7, "cluster_size": 47, "cluster_id": 1, "rank_in_cluster": 2}

>  <energy>  (46) 
-8.53

>  <cluster_rmsd>  (46) 
1.22

>  <cluster>  (46) 
1

$$$$

     RDKit          3D

 70 74  0  0  0  0  0  0  0  0999 V2000
  141.4500   81.8860  221.9020 C   0  0  0  0  0  0  0  0  0  0  0  0
  141.2920   81.2360  223.1920 N   0  0  0  0  0  0  0  0  0  0  0  0
  142.4910   80.4860  223.5130 C   0  0  0  0  0  0  0  0  0  0  0  0
  142.5600   79.1410  222.8510 C   0  0  0  0  0  0  0  0  0  0  0  0
  141.3440   78.3600  222.9920 N   0  0  0  0  0  0  0  0  0  0  0  0
  140.7990   77.9390  221.7400 C   0  0  0  0  0  0  0  0  0  0  0  0
  140.4510   76.5140  221.7810 C   0  0  0  0  0  0  0  0  0  0  0  0
  141.3320   75.4790  221.5610 C   0  0  0  0  0  0  0  0  0  0  0  0
  140.9660   74.1500  221.6080 C   0  0  0  0  0  0  0  0  0  0  0  0
  139.6460   73.7810  221.8900 C   0  0  0  0  0  0  0  0  0  0  0  0
  139.2770   72.3740  221.9320 C   0  0  0  0  0  0  0  0  0  0  0  0
  138.4120   71.8520  222.7610 C   0  0  0  0  0  0  0  0  0  0  0  0
  138.8350   70.9610  223.8420 C   0  0  0  0  0  0  0  0  0  0  0  0
  139.5490   71.5270  224.8400 N   0  0  0  0  0  0  0  0  0  0  0  0
  140.0280   70.8380  225.8680 C   0  0  0  0  0  0  0  0  0  0  0  0
  140.7570   71.3670  226.9070 C   0  0  0  0  0  0  0  0  0  0  0  0
  141.2300   70.6060  227.9550 C   0  0  0  0  0  0  0  0  0  0  0  0
  140.9750   69.2310  227.9900 C   0  0  0  0  0  0  0  0  0  0  0  0
  140.2430   68.7330  226.9350 C   0  0  0  0  0  0  0  0  0  0  0  0
  139.7690   69.4750  225.8940 C   0  0  0  0  0  0  0  0  0  0  0  0
  139.0440   68.9050  224.8780 C   0  0  0  0  0  0  0  0  0  0  0  0
  138.8460   67.6560  224.9640 O   0  0  0  0  0  0  0  0  0  0  0  0
  138.5560   69.6270  223.8270 N   0  0  0  0  0  0  0  0  0  0  0  0
  137.8260   69.0130  222.7700 C   0  0  0  0  0  0  0  0  0  0  0  0
  138.4920   68.8810  221.4550 C   0  0  0  0  0  0  0  0  0  0  0  0
  139.9450   69.2110  221.4640 C   0  0  0  0  0  0  0  0  0  0  0  0
  140.4490   69.5610  220.0630 C   0  0  0  0  0  0  0  0  0  0  0  0
  139.7510   68.6910  219.0750 C   0  0  0  0  0  0  0  0  0  0  0  0
  138.2600   68.9370  219.0070 C   0  0  0  0  0  0  0  0  0  0  0  0
  137.7380   69.5250  220.3100 C   0  0  0  0  0  0  0  0  0  0  0  0
  138.7680   74.8130  222.1090 C   0  0  0  0  0  0  0  0  0  0  0  0
  139.1370   76.1510  222.0610 C   0  0  0  0  0  0  0  0  0  0  0  0
  140.3990   79.0780  223.8110 C   0  0  0  0  0  0  0  0  0  0  0  0
  140.0900   80.4370  223.2150 C   0  0  0  0  0  0  0  0  0  0  0  0
  141.7073   82.9446  222.0539 H   0  0  0  0  0  0  0  0  0  0  0  0
  142.2539   81.3906  221.3378 H   0  0  0  0  0  0  0  0  0  0  0  0
  140.5084   81.8148  221.3378 H   0  0  0  0  0  0  0  0  0  0  0  0
  143.3639   81.0746  223.1942 H   0  0  0  0  0  0  0  0  0  0  0  0
  142.4765   80.3082  224.5984 H   0  0  0  0  0  0  0  0  0  0  0  0
  142.7546   79.2908  221.7788 H   0  0  0  0  0  0  0  0  0  0  0  0
  143.3640   78.5781  223.3477 H   0  0  0  0  0  0  0  0  0  0  0  0
  139.8941   78.5260  221.5240 H   0  0  0  0  0  0  0  0  0  0  0  0
  141.5522   78.0976  220.9542 H   0  0  0  0  0  0  0  0  0  0  0  0
  142.3805   75.7244  221.3365 H   0  0  0  0  0  0  0  0  0  0  0  0
  141.7203   73.3713  221.4217 H   0  0  0  0  0  0  0  0  0  0  0  0
  139.7626   71.6991  221.2119 H   0  0  0  0  0  0  0  0  0  0  0  0
  137.3439   72.0873  222.6438 H   0  0  0  0  0  0  0  0  0  0  0  0
  140.9725   72.4457  226.9018 H   0  0  0  0  0  0  0  0  0  0  0  0
  141.8073   71.0796  228.7627 H   0  0  0  0  0  0  0  0  0  0  0  0
  141.3358   68.5891  228.8072 H   0  0  0  0  0  0  0  0  0  0  0  0
  140.0242   67.6550  226.9320 H   0  0  0  0  0  0  0  0  0  0  0  0
  137.5556   68.0003  223.1036 H   0  0  0  0  0  0  0  0  0  0  0  0
  136.9822   69.6940  222.5851 H   0  0  0  0  0  0  0  0  0  0  0  0
  138.4519   67.8007  221.2514 H   0  0  0  0  0  0  0  0  0  0  0  0
  140.1121   70.0710  222.1292 H   0  0  0  0  0  0  0  0  0  0  0  0
  140.4972   68.3283  221.8189 H   0  0  0  0  0  0  0  0  0  0  0  0
  140.2327   70.6172  219.8446 H   0  0  0  0  0  0  0  0  0  0  0  0
  141.5355   69.3999  220.0036 H   0  0  0  0  0  0  0  0  0  0  0  0
  140.1812   68.8783  218.0801 H   0  0  0  0  0  0  0  0  0  0  0  0
  139.8943   67.6500  219.4002 H   0  0  0  0  0  0  0  0  0  0  0  0
  138.0495   69.6393  218.1869 H   0  0  0  0  0  0  0  0  0  0  0  0
  137.7563   67.9747  218.8333 H   0  0  0  0  0  0  0  0  0  0  0  0
  137.9030   70.6125  220.3203 H   0  0  0  0  0  0  0  0  0  0  0  0
  136.6596   69.3322  220.4089 H   0  0  0  0  0  0  0  0  0  0  0  0
  137.7195   74.5680  222.3338 H   0  0  0  0  0  0  0  0  0  0  0  0
  138.3838   76.9310  222.2460 H   0  0  0  0  0  0  0  0  0  0  0  0
  139.4684   78.4958  223.8819 H   0  0  0  0  0  0  0  0  0  0  0  0
  140.8381   79.2234  224.8090 H   0  0  0  0  0  0  0  0  0  0  0  0
  139.7138   80.3107  222.1891 H   0  0  0  0  0  0  0  0  0  0  0  0
  139.3262   80.9405  223.8258 H   0  0  0  0  0  0  0  0  0  0  0  0
  1  2  1  0
  2  3  1  0
  3  4  1  0
  4  5  1  0
  5  6  1  0
  6  7  1  0
  7  8  2  0
  8  9  1  0
  9 10  2  0
 10 11  1  0
 11 12  2  0
 12 13  1  0
 13 14  2  0
 14 15  1  0
 15 16  2  0
 16 17  1  0
 17 18  2  0
 18 19  1  0
 19 20  2  0
 20 21  1  0
 21 22  2  0
 21 23  1  0
 23 24  1  0
 24 25  1  0
 25 26  1  0
 26 27  1  0
 27 28  1  0
 28 29  1  0
 29 30  1  0
 10 31  1  0
 31 32  2  0
  5 33  1  0
 33 34  1  0
 34  2  1  0
 32  7  1  0
 23 13  1  0
 30 25  1  0
 20 15  1  0
  1 35  1  0
  1 36  1  0
  1 37  1  0
  3 38  1  0
  3 39  1  0
  4 40  1  0
  4 41  1  0
  6 42  1  0
  6 43  1  0
  8 44  1  0
  9 45  1  0
 11 46  1  0
 12 47  1  0
 16 48  1  0
 17 49  1  0
 18 50  1  0
 19 51  1  0
 24 52  1  0
 24 53  1  0
 25 54  1  0
 26 55  1  0
 26 56  1  0
 27 57  1  0
 27 58  1  0
 28 59  1  0
 28 60  1  0
 29 61  1  0
 29 62  1  0
 30 63  1  0
 30 64  1  0
 31 65  1  0
 32 66  1  0
 33 67  1  0
 33 68  1  0
 34 69  1  0
 34 70  1  0
M  END
>  <smiles>  (47) 
CN1CCN(Cc2ccc(/C=C/c3nc4ccccc4c(=O)n3CC3CCCCC3)cc2)CC1

>  <score_type>  (47) 
oracle

>  <origin>  (47) 
autodockgpu

>  <m_score__min__energy>  (47) 
-9.5099999999999998

>  <m_primary>  (47) 
energy

>  <rmsd>  (47) 
6.60871774016572

>  <m_score__min__rmsd>  (47) 
6.60871774016572

>  <meeko>  (47) 
{"free_energy": -8.53, "intermolecular_energy": -10.61, "internal_energy": -1.82, "cluster_size": 47, "cluster_id": 1, "rank_in_cluster": 46}

>  <energy>  (47) 
-8.0

>  <cluster_rmsd>  (47) 
1.43

>  <cluster>  (47) 
1

$$$$

     RDKit          3D

 70 74  0  0  0  0  0  0  0  0999 V2000
  141.4950   81.9770  221.8390 C   0  0  0  0  0  0  0  0  0  0  0  0
  141.2650   81.4020  223.1540 N   0  0  0  0  0  0  0  0  0  0  0  0
  142.3640   80.5220  223.5040 C   0  0  0  0  0  0  0  0  0  0  0  0
  142.2620   79.1550  222.8960 C   0  0  0  0  0  0  0  0  0  0  0  0
  140.9600   78.5360  223.0670 N   0  0  0  0  0  0  0  0  0  0  0  0
  140.3610   78.1370  221.8330 C   0  0  0  0  0  0  0  0  0  0  0  0
  140.0920   76.6950  221.8310 C   0  0  0  0  0  0  0  0  0  0  0  0
  141.0420   75.7140  221.6510 C   0  0  0  0  0  0  0  0  0  0  0  0
  140.7490   74.3660  221.6560 C   0  0  0  0  0  0  0  0  0  0  0  0
  139.4380   73.9190  221.8490 C   0  0  0  0  0  0  0  0  0  0  0  0
  139.1470   72.4940  221.8470 C   0  0  0  0  0  0  0  0  0  0  0  0
  139.9990   71.5550  222.1660 C   0  0  0  0  0  0  0  0  0  0  0  0
  139.9620   70.9060  223.4770 C   0  0  0  0  0  0  0  0  0  0  0  0
  140.4450   71.6230  224.5150 N   0  0  0  0  0  0  0  0  0  0  0  0
  140.5060   71.1510  225.7530 C   0  0  0  0  0  0  0  0  0  0  0  0
  140.9860   71.8410  226.8420 C   0  0  0  0  0  0  0  0  0  0  0  0
  141.0250   71.3050  228.1120 C   0  0  0  0  0  0  0  0  0  0  0  0
  140.5630   70.0030  228.3350 C   0  0  0  0  0  0  0  0  0  0  0  0
  140.0900   69.3410  227.2240 C   0  0  0  0  0  0  0  0  0  0  0  0
  140.0450   69.8600  225.9650 C   0  0  0  0  0  0  0  0  0  0  0  0
  139.5560   69.1350  224.9070 C   0  0  0  0  0  0  0  0  0  0  0  0
  139.1540   67.9630  225.1690 O   0  0  0  0  0  0  0  0  0  0  0  0
  139.4980   69.6340  223.6370 N   0  0  0  0  0  0  0  0  0  0  0  0
  139.0090   68.8580  222.5480 C   0  0  0  0  0  0  0  0  0  0  0  0
  137.5450   68.7820  222.3550 C   0  0  0  0  0  0  0  0  0  0  0  0
  136.7470   69.4350  223.4310 C   0  0  0  0  0  0  0  0  0  0  0  0
  135.3150   68.9010  223.4700 C   0  0  0  0  0  0  0  0  0  0  0  0
  134.8640   68.6450  222.0720 C   0  0  0  0  0  0  0  0  0  0  0  0
  135.6500   67.5560  221.3780 C   0  0  0  0  0  0  0  0  0  0  0  0
  137.0370   67.4050  221.9850 C   0  0  0  0  0  0  0  0  0  0  0  0
  138.4910   74.8970  222.0280 C   0  0  0  0  0  0  0  0  0  0  0  0
  138.7860   76.2540  222.0230 C   0  0  0  0  0  0  0  0  0  0  0  0
  140.1150   79.3960  223.8580 C   0  0  0  0  0  0  0  0  0  0  0  0
  139.9730   80.7590  223.2090 C   0  0  0  0  0  0  0  0  0  0  0  0
  141.9015   82.9932  221.9491 H   0  0  0  0  0  0  0  0  0  0  0  0
  142.2127   81.3529  221.2864 H   0  0  0  0  0  0  0  0  0  0  0  0
  140.5449   82.0200  221.2864 H   0  0  0  0  0  0  0  0  0  0  0  0
  143.3014   80.9848  223.1617 H   0  0  0  0  0  0  0  0  0  0  0  0
  142.3337   80.3902  224.5956 H   0  0  0  0  0  0  0  0  0  0  0  0
  142.4684   79.2378  221.8187 H   0  0  0  0  0  0  0  0  0  0  0  0
  142.9921   78.5168  223.4154 H   0  0  0  0  0  0  0  0  0  0  0  0
  139.4146   78.6813  221.6981 H   0  0  0  0  0  0  0  0  0  0  0  0
  141.0545   78.3691  221.0113 H   0  0  0  0  0  0  0  0  0  0  0  0
  142.0868   76.0209  221.4955 H   0  0  0  0  0  0  0  0  0  0  0  0
  141.5562   73.6339  221.5064 H   0  0  0  0  0  0  0  0  0  0  0  0
  138.1332   72.1827  221.5550 H   0  0  0  0  0  0  0  0  0  0  0  0
  140.7595   71.2464  221.4336 H   0  0  0  0  0  0  0  0  0  0  0  0
  141.3553   72.8664  226.6931 H   0  0  0  0  0  0  0  0  0  0  0  0
  141.4189   71.9003  228.9489 H   0  0  0  0  0  0  0  0  0  0  0  0
  140.5768   69.5389  229.3322 H   0  0  0  0  0  0  0  0  0  0  0  0
  139.7201   68.3145  227.3637 H   0  0  0  0  0  0  0  0  0  0  0  0
  139.4395   69.2781  221.6270 H   0  0  0  0  0  0  0  0  0  0  0  0
  139.3096   67.8272  222.7869 H   0  0  0  0  0  0  0  0  0  0  0  0
  137.3701   69.3993  221.4615 H   0  0  0  0  0  0  0  0  0  0  0  0
  137.2277   69.2397  224.4009 H   0  0  0  0  0  0  0  0  0  0  0  0
  136.7069   70.5146  223.2237 H   0  0  0  0  0  0  0  0  0  0  0  0
  135.2843   67.9647  224.0465 H   0  0  0  0  0  0  0  0  0  0  0  0
  134.6527   69.6368  223.9495 H   0  0  0  0  0  0  0  0  0  0  0  0
  133.8047   68.3494  222.0959 H   0  0  0  0  0  0  0  0  0  0  0  0
  135.0237   69.5733  221.5039 H   0  0  0  0  0  0  0  0  0  0  0  0
  135.1089   66.6036  221.4786 H   0  0  0  0  0  0  0  0  0  0  0  0
  135.7619   67.8291  220.3183 H   0  0  0  0  0  0  0  0  0  0  0  0
  136.9829   66.7742  222.8845 H   0  0  0  0  0  0  0  0  0  0  0  0
  137.7178   66.9308  221.2627 H   0  0  0  0  0  0  0  0  0  0  0  0
  137.4461   74.5902  222.1832 H   0  0  0  0  0  0  0  0  0  0  0  0
  137.9798   76.9873  222.1722 H   0  0  0  0  0  0  0  0  0  0  0  0
  139.1201   78.9362  223.9519 H   0  0  0  0  0  0  0  0  0  0  0  0
  140.5735   79.5245  224.8496 H   0  0  0  0  0  0  0  0  0  0  0  0
  139.5786   80.6403  222.1890 H   0  0  0  0  0  0  0  0  0  0  0  0
  139.2805   81.3765  223.7999 H   0  0  0  0  0  0  0  0  0  0  0  0
  1  2  1  0
  2  3  1  0
  3  4  1  0
  4  5  1  0
  5  6  1  0
  6  7  1  0
  7  8  2  0
  8  9  1  0
  9 10  2  0
 10 11  1  0
 11 12  2  0
 12 13  1  0
 13 14  2  0
 14 15  1  0
 15 16  2  0
 16 17  1  0
 17 18  2  0
 18 19  1  0
 19 20  2  0
 20 21  1  0
 21 22  2  0
 21 23  1  0
 23 24  1  0
 24 25  1  0
 25 26  1  0
 26 27  1  0
 27 28  1  0
 28 29  1  0
 29 30  1  0
 10 31  1  0
 31 32  2  0
  5 33  1  0
 33 34  1  0
 34  2  1  0
 32  7  1  0
 23 13  1  0
 30 25  1  0
 20 15  1  0
  1 35  1  0
  1 36  1  0
  1 37  1  0
  3 38  1  0
  3 39  1  0
  4 40  1  0
  4 41  1  0
  6 42  1  0
  6 43  1  0
  8 44  1  0
  9 45  1  0
 11 46  1  0
 12 47  1  0
 16 48  1  0
 17 49  1  0
 18 50  1  0
 19 51  1  0
 24 52  1  0
 24 53  1  0
 25 54  1  0
 26 55  1  0
 26 56  1  0
 27 57  1  0
 27 58  1  0
 28 59  1  0
 28 60  1  0
 29 61  1  0
 29 62  1  0
 30 63  1  0
 30 64  1  0
 31 65  1  0
 32 66  1  0
 33 67  1  0
 33 68  1  0
 34 69  1  0
 34 70  1  0
M  END
>  <smiles>  (48) 
CN1CCN(Cc2ccc(/C=C/c3nc4ccccc4c(=O)n3CC3CCCCC3)cc2)CC1

>  <score_type>  (48) 
oracle

>  <origin>  (48) 
autodockgpu

>  <m_score__min__energy>  (48) 
-9.5099999999999998

>  <m_primary>  (48) 
energy

>  <rmsd>  (48) 
6.585790223320313

>  <m_score__min__rmsd>  (48) 
6.585790223320313

>  <meeko>  (48) 
{"free_energy": -9.38, "intermolecular_energy": -11.46, "internal_energy": -1.7, "cluster_size": 47, "cluster_id": 1, "rank_in_cluster": 9}

>  <energy>  (48) 
-8.3

>  <cluster_rmsd>  (48) 
0.0

>  <cluster>  (48) 
2

$$$$

     RDKit          3D

 70 74  0  0  0  0  0  0  0  0999 V2000
  141.8240   81.5020  221.6690 C   0  0  0  0  0  0  0  0  0  0  0  0
  141.1820   81.1650  222.9280 N   0  0  0  0  0  0  0  0  0  0  0  0
  142.0080   80.2280  223.6640 C   0  0  0  0  0  0  0  0  0  0  0  0
  141.8590   78.8040  223.2140 C   0  0  0  0  0  0  0  0  0  0  0  0
  140.4770   78.3730  223.0940 N   0  0  0  0  0  0  0  0  0  0  0  0
  140.1580   77.8640  221.7980 C   0  0  0  0  0  0  0  0  0  0  0  0
  140.2380   76.3990  221.7850 C   0  0  0  0  0  0  0  0  0  0  0  0
  139.2680   75.5500  222.2690 C   0  0  0  0  0  0  0  0  0  0  0  0
  139.3800   74.1760  222.2390 C   0  0  0  0  0  0  0  0  0  0  0  0
  140.5150   73.5620  221.6980 C   0  0  0  0  0  0  0  0  0  0  0  0
  140.6190   72.1110  221.6770 C   0  0  0  0  0  0  0  0  0  0  0  0
  139.7010   71.2890  222.1140 C   0  0  0  0  0  0  0  0  0  0  0  0
  139.7660   70.7230  223.4620 C   0  0  0  0  0  0  0  0  0  0  0  0
  140.2820   71.5190  224.4230 N   0  0  0  0  0  0  0  0  0  0  0  0
  140.4340   71.1300  225.6820 C   0  0  0  0  0  0  0  0  0  0  0  0
  140.9510   71.9020  226.6950 C   0  0  0  0  0  0  0  0  0  0  0  0
  141.0850   71.4490  227.9900 C   0  0  0  0  0  0  0  0  0  0  0  0
  140.6870   70.1490  228.3200 C   0  0  0  0  0  0  0  0  0  0  0  0
  140.1730   69.4030  227.2830 C   0  0  0  0  0  0  0  0  0  0  0  0
  140.0350   69.8390  225.9990 C   0  0  0  0  0  0  0  0  0  0  0  0
  139.5110   69.0330  225.0200 C   0  0  0  0  0  0  0  0  0  0  0  0
  139.1690   67.8670  225.3780 O   0  0  0  0  0  0  0  0  0  0  0  0
  139.3600   69.4490  223.7280 N   0  0  0  0  0  0  0  0  0  0  0  0
  138.8370   68.5890  222.7200 C   0  0  0  0  0  0  0  0  0  0  0  0
  137.3820   68.6400  222.4550 C   0  0  0  0  0  0  0  0  0  0  0  0
  136.5820   69.2910  223.5300 C   0  0  0  0  0  0  0  0  0  0  0  0
  135.1140   68.8690  223.4710 C   0  0  0  0  0  0  0  0  0  0  0  0
  134.7160   68.7300  222.0410 C   0  0  0  0  0  0  0  0  0  0  0  0
  135.4530   67.6230  221.3190 C   0  0  0  0  0  0  0  0  0  0  0  0
  136.7910   67.3300  221.9790 C   0  0  0  0  0  0  0  0  0  0  0  0
  141.4820   74.4080  221.2150 C   0  0  0  0  0  0  0  0  0  0  0  0
  141.3690   75.7920  221.2470 C   0  0  0  0  0  0  0  0  0  0  0  0
  139.5990   79.4360  223.5190 C   0  0  0  0  0  0  0  0  0  0  0  0
  139.8360   80.6920  222.7020 C   0  0  0  0  0  0  0  0  0  0  0  0
  142.7818   82.0047  221.8688 H   0  0  0  0  0  0  0  0  0  0  0  0
  142.0056   80.5830  221.0925 H   0  0  0  0  0  0  0  0  0  0  0  0
  141.1707   82.1734  221.0925 H   0  0  0  0  0  0  0  0  0  0  0  0
  143.0606   80.5223  223.5400 H   0  0  0  0  0  0  0  0  0  0  0  0
  141.6797   80.2679  224.7131 H   0  0  0  0  0  0  0  0  0  0  0  0
  142.3429   78.6973  222.2320 H   0  0  0  0  0  0  0  0  0  0  0  0
  142.3280   78.1723  223.9828 H   0  0  0  0  0  0  0  0  0  0  0  0
  139.1369   78.1728  221.5295 H   0  0  0  0  0  0  0  0  0  0  0  0
  140.8800   78.2652  221.0716 H   0  0  0  0  0  0  0  0  0  0  0  0
  138.3575   75.9902  222.7016 H   0  0  0  0  0  0  0  0  0  0  0  0
  138.5677   73.5554  222.6451 H   0  0  0  0  0  0  0  0  0  0  0  0
  141.5388   71.6727  221.2624 H   0  0  0  0  0  0  0  0  0  0  0  0
  138.8630   71.0174  221.4552 H   0  0  0  0  0  0  0  0  0  0  0  0
  141.2724   72.9278  226.4617 H   0  0  0  0  0  0  0  0  0  0  0  0
  141.5046   72.1092  228.7634 H   0  0  0  0  0  0  0  0  0  0  0  0
  140.7786   69.7492  229.3407 H   0  0  0  0  0  0  0  0  0  0  0  0
  139.8488   68.3762  227.5081 H   0  0  0  0  0  0  0  0  0  0  0  0
  139.3505   68.8363  221.7792 H   0  0  0  0  0  0  0  0  0  0  0  0
  139.0126   67.5735  223.1045 H   0  0  0  0  0  0  0  0  0  0  0  0
  137.3000   69.3197  221.5940 H   0  0  0  0  0  0  0  0  0  0  0  0
  136.9971   69.0044  224.5075 H   0  0  0  0  0  0  0  0  0  0  0  0
  136.6335   70.3804  223.3863 H   0  0  0  0  0  0  0  0  0  0  0  0
  134.9842   67.9063  223.9870 H   0  0  0  0  0  0  0  0  0  0  0  0
  134.4856   69.6252  223.9641 H   0  0  0  0  0  0  0  0  0  0  0  0
  133.6376   68.5173  221.9979 H   0  0  0  0  0  0  0  0  0  0  0  0
  134.9729   69.6741  221.5383 H   0  0  0  0  0  0  0  0  0  0  0  0
  134.8374   66.7116  221.3365 H   0  0  0  0  0  0  0  0  0  0  0  0
  135.6391   67.9464  220.2842 H   0  0  0  0  0  0  0  0  0  0  0  0
  136.6438   66.6552  222.8352 H   0  0  0  0  0  0  0  0  0  0  0  0
  137.4700   66.8458  221.2617 H   0  0  0  0  0  0  0  0  0  0  0  0
  142.3919   73.9679  220.7809 H   0  0  0  0  0  0  0  0  0  0  0  0
  142.1812   76.4143  220.8432 H   0  0  0  0  0  0  0  0  0  0  0  0
  138.5550   79.1141  223.3903 H   0  0  0  0  0  0  0  0  0  0  0  0
  139.8040   79.6601  224.5762 H   0  0  0  0  0  0  0  0  0  0  0  0
  139.7010   80.4659  221.6340 H   0  0  0  0  0  0  0  0  0  0  0  0
  139.1181   81.4683  223.0053 H   0  0  0  0  0  0  0  0  0  0  0  0
  1  2  1  0
  2  3  1  0
  3  4  1  0
  4  5  1  0
  5  6  1  0
  6  7  1  0
  7  8  2  0
  8  9  1  0
  9 10  2  0
 10 11  1  0
 11 12  2  0
 12 13  1  0
 13 14  2  0
 14 15  1  0
 15 16  2  0
 16 17  1  0
 17 18  2  0
 18 19  1  0
 19 20  2  0
 20 21  1  0
 21 22  2  0
 21 23  1  0
 23 24  1  0
 24 25  1  0
 25 26  1  0
 26 27  1  0
 27 28  1  0
 28 29  1  0
 29 30  1  0
 10 31  1  0
 31 32  2  0
  5 33  1  0
 33 34  1  0
 34  2  1  0
 32  7  1  0
 23 13  1  0
 30 25  1  0
 20 15  1  0
  1 35  1  0
  1 36  1  0
  1 37  1  0
  3 38  1  0
  3 39  1  0
  4 40  1  0
  4 41  1  0
  6 42  1  0
  6 43  1  0
  8 44  1  0
  9 45  1  0
 11 46  1  0
 12 47  1  0
 16 48  1  0
 17 49  1  0
 18 50  1  0
 19 51  1  0
 24 52  1  0
 24 53  1  0
 25 54  1  0
 26 55  1  0
 26 56  1  0
 27 57  1  0
 27 58  1  0
 28 59  1  0
 28 60  1  0
 29 61  1  0
 29 62  1  0
 30 63  1  0
 30 64  1  0
 31 65  1  0
 32 66  1  0
 33 67  1  0
 33 68  1  0
 34 69  1  0
 34 70  1  0
M  END
>  <smiles>  (49) 
CN1CCN(Cc2ccc(/C=C/c3nc4ccccc4c(=O)n3CC3CCCCC3)cc2)CC1

>  <score_type>  (49) 
oracle

>  <origin>  (49) 
autodockgpu

>  <m_score__min__energy>  (49) 
-9.5099999999999998

>  <m_primary>  (49) 
energy

>  <rmsd>  (49) 
6.79251133111371

>  <m_score__min__rmsd>  (49) 
6.79251133111371

>  <meeko>  (49) 
{"free_energy": -9.26, "intermolecular_energy": -11.35, "internal_energy": -1.7, "cluster_size": 47, "cluster_id": 1, "rank_in_cluster": 22}

>  <energy>  (49) 
-7.61

>  <cluster_rmsd>  (49) 
0.0

>  <cluster>  (49) 
3

$$$$

     RDKit          3D

 70 74  0  0  0  0  0  0  0  0999 V2000
  141.3420   81.8470  221.5130 C   0  0  0  0  0  0  0  0  0  0  0  0
  141.1880   81.3640  222.8740 N   0  0  0  0  0  0  0  0  0  0  0  0
  142.3300   80.5470  223.2370 C   0  0  0  0  0  0  0  0  0  0  0  0
  142.2500   79.1350  222.7340 C   0  0  0  0  0  0  0  0  0  0  0  0
  140.9780   78.4900  223.0080 N   0  0  0  0  0  0  0  0  0  0  0  0
  140.3400   77.9840  221.8340 C   0  0  0  0  0  0  0  0  0  0  0  0
  140.4340   76.5210  221.7860 C   0  0  0  0  0  0  0  0  0  0  0  0
  141.4900   75.8130  221.2560 C   0  0  0  0  0  0  0  0  0  0  0  0
  141.5410   74.4350  221.2280 C   0  0  0  0  0  0  0  0  0  0  0  0
  140.4950   73.6700  221.7530 C   0  0  0  0  0  0  0  0  0  0  0  0
  140.5630   72.2170  221.7130 C   0  0  0  0  0  0  0  0  0  0  0  0
  139.6090   71.4120  222.1000 C   0  0  0  0  0  0  0  0  0  0  0  0
  139.5700   70.8750  223.4610 C   0  0  0  0  0  0  0  0  0  0  0  0
  140.2990   71.5360  224.3870 N   0  0  0  0  0  0  0  0  0  0  0  0
  140.3850   71.1460  225.6520 C   0  0  0  0  0  0  0  0  0  0  0  0
  141.1110   71.7840  226.6300 C   0  0  0  0  0  0  0  0  0  0  0  0
  141.1660   71.3380  227.9340 C   0  0  0  0  0  0  0  0  0  0  0  0
  140.4630   70.1880  228.3090 C   0  0  0  0  0  0  0  0  0  0  0  0
  139.7470   69.5740  227.3060 C   0  0  0  0  0  0  0  0  0  0  0  0
  139.6850   70.0050  226.0140 C   0  0  0  0  0  0  0  0  0  0  0  0
  138.9460   69.3370  225.0700 C   0  0  0  0  0  0  0  0  0  0  0  0
  138.3320   68.3020  225.4680 O   0  0  0  0  0  0  0  0  0  0  0  0
  138.8650   69.7510  223.7710 N   0  0  0  0  0  0  0  0  0  0  0  0
  138.1120   69.0310  222.8000 C   0  0  0  0  0  0  0  0  0  0  0  0
  138.8430   68.1140  221.8990 C   0  0  0  0  0  0  0  0  0  0  0  0
  138.5870   68.3400  220.4490 C   0  0  0  0  0  0  0  0  0  0  0  0
  138.9230   67.1010  219.6190 C   0  0  0  0  0  0  0  0  0  0  0  0
  140.1260   66.4460  220.2070 C   0  0  0  0  0  0  0  0  0  0  0  0
  139.8950   65.9100  221.6030 C   0  0  0  0  0  0  0  0  0  0  0  0
  138.7660   66.6550  222.3000 C   0  0  0  0  0  0  0  0  0  0  0  0
  139.4420   74.3750  222.2820 C   0  0  0  0  0  0  0  0  0  0  0  0
  139.3910   75.7620  222.3080 C   0  0  0  0  0  0  0  0  0  0  0  0
  140.1380   79.3800  223.7720 C   0  0  0  0  0  0  0  0  0  0  0  0
  139.9220   80.6870  223.0330 C   0  0  0  0  0  0  0  0  0  0  0  0
  141.6761   82.8949  221.5314 H   0  0  0  0  0  0  0  0  0  0  0  0
  142.0890   81.2332  220.9884 H   0  0  0  0  0  0  0  0  0  0  0  0
  140.3776   81.7788  220.9884 H   0  0  0  0  0  0  0  0  0  0  0  0
  143.2356   81.0125  222.8208 H   0  0  0  0  0  0  0  0  0  0  0  0
  142.3499   80.4948  224.3356 H   0  0  0  0  0  0  0  0  0  0  0  0
  142.4074   79.1445  221.6454 H   0  0  0  0  0  0  0  0  0  0  0  0
  143.0234   78.5600  223.2643 H   0  0  0  0  0  0  0  0  0  0  0  0
  139.2801   78.2782  221.8431 H   0  0  0  0  0  0  0  0  0  0  0  0
  140.8428   78.4012  220.9490 H   0  0  0  0  0  0  0  0  0  0  0  0
  142.3358   76.3753  220.8335 H   0  0  0  0  0  0  0  0  0  0  0  0
  142.4146   73.9321  220.7876 H   0  0  0  0  0  0  0  0  0  0  0  0
  141.4873   71.7617  221.3279 H   0  0  0  0  0  0  0  0  0  0  0  0
  138.8187   71.1321  221.3879 H   0  0  0  0  0  0  0  0  0  0  0  0
  141.6729   72.6904  226.3604 H   0  0  0  0  0  0  0  0  0  0  0  0
  141.7621   71.8860  228.6785 H   0  0  0  0  0  0  0  0  0  0  0  0
  140.4811   69.7997  229.3380 H   0  0  0  0  0  0  0  0  0  0  0  0
  139.1821   68.6669  227.5669 H   0  0  0  0  0  0  0  0  0  0  0  0
  137.3658   68.4318  223.3424 H   0  0  0  0  0  0  0  0  0  0  0  0
  137.7063   69.8070  222.1343 H   0  0  0  0  0  0  0  0  0  0  0  0
  139.8964   68.3950  222.0451 H   0  0  0  0  0  0  0  0  0  0  0  0
  137.5243   68.5867  220.3082 H   0  0  0  0  0  0  0  0  0  0  0  0
  139.2299   69.1659  220.1105 H   0  0  0  0  0  0  0  0  0  0  0  0
  138.0742   66.4015  219.6372 H   0  0  0  0  0  0  0  0  0  0  0  0
  139.1244   67.3902  218.5770 H   0  0  0  0  0  0  0  0  0  0  0  0
  140.4208   65.6094  219.5564 H   0  0  0  0  0  0  0  0  0  0  0  0
  140.9114   67.2128  220.2789 H   0  0  0  0  0  0  0  0  0  0  0  0
  139.6348   64.8431  221.5390 H   0  0  0  0  0  0  0  0  0  0  0  0
  140.8168   66.0507  222.1865 H   0  0  0  0  0  0  0  0  0  0  0  0
  137.7970   66.2349  221.9924 H   0  0  0  0  0  0  0  0  0  0  0  0
  138.8619   66.5554  223.3913 H   0  0  0  0  0  0  0  0  0  0  0  0
  138.5970   73.8128  222.7062 H   0  0  0  0  0  0  0  0  0  0  0  0
  138.5170   76.2664  222.7458 H   0  0  0  0  0  0  0  0  0  0  0  0
  139.1643   78.8978  223.9434 H   0  0  0  0  0  0  0  0  0  0  0  0
  140.6336   79.5954  224.7301 H   0  0  0  0  0  0  0  0  0  0  0  0
  139.4890   80.4814  222.0429 H   0  0  0  0  0  0  0  0  0  0  0  0
  139.2344   81.3246  223.6081 H   0  0  0  0  0  0  0  0  0  0  0  0
  1  2  1  0
  2  3  1  0
  3  4  1  0
  4  5  1  0
  5  6  1  0
  6  7  1  0
  7  8  2  0
  8  9  1  0
  9 10  2  0
 10 11  1  0
 11 12  2  0
 12 13  1  0
 13 14  2  0
 14 15  1  0
 15 16  2  0
 16 17  1  0
 17 18  2  0
 18 19  1  0
 19 20  2  0
 20 21  1  0
 21 22  2  0
 21 23  1  0
 23 24  1  0
 24 25  1  0
 25 26  1  0
 26 27  1  0
 27 28  1  0
 28 29  1  0
 29 30  1  0
 10 31  1  0
 31 32  2  0
  5 33  1  0
 33 34  1  0
 34  2  1  0
 32  7  1  0
 23 13  1  0
 30 25  1  0
 20 15  1  0
  1 35  1  0
  1 36  1  0
  1 37  1  0
  3 38  1  0
  3 39  1  0
  4 40  1  0
  4 41  1  0
  6 42  1  0
  6 43  1  0
  8 44  1  0
  9 45  1  0
 11 46  1  0
 12 47  1  0
 16 48  1  0
 17 49  1  0
 18 50  1  0
 19 51  1  0
 24 52  1  0
 24 53  1  0
 25 54  1  0
 26 55  1  0
 26 56  1  0
 27 57  1  0
 27 58  1  0
 28 59  1  0
 28 60  1  0
 29 61  1  0
 29 62  1  0
 30 63  1  0
 30 64  1  0
 31 65  1  0
 32 66  1  0
 33 67  1  0
 33 68  1  0
 34 69  1  0
 34 70  1  0
M  END
>  <smiles>  (50) 
CN1CCN(Cc2ccc(/C=C/c3nc4ccccc4c(=O)n3CC3CCCCC3)cc2)CC1

>  <score_type>  (50) 
oracle

>  <origin>  (50) 
autodockgpu

>  <m_score__min__energy>  (50) 
-9.5099999999999998

>  <m_primary>  (50) 
energy

>  <rmsd>  (50) 
6.587438024199912

>  <m_score__min__rmsd>  (50) 
6.587438024199912

>  <meeko>  (50) 
{"free_energy": -9.16, "intermolecular_energy": -11.25, "internal_energy": -1.64, "cluster_size": 47, "cluster_id": 1, "rank_in_cluster": 30}

>  <energy>  (50) 
-7.55

>  <cluster_rmsd>  (50) 
0.0

>  <cluster>  (50) 
4

$$$$
