
     RDKit          3D

 48 51  0  0  0  0  0  0  0  0999 V2000
  140.5320   76.8750  218.7090 O   0  0  0  0  0  0  0  0  0  0  0  0
  141.7370   76.8520  219.0870 C   0  0  0  0  0  0  0  0  0  0  0  0
  142.2780   78.1570  219.4300 N   0  0  0  0  0  0  0  0  0  0  0  0
  141.3880   79.2620  219.2960 C   0  0  0  0  0  0  0  0  0  0  0  0
  140.7090   79.7720  220.4730 C   0  0  0  0  0  0  0  0  0  0  0  0
  139.4750   80.1020  220.2680 O   0  0  0  0  0  0  0  0  0  0  0  0
  141.1670   79.9670  221.7930 N   0  0  0  0  0  0  0  0  0  0  0  0
  142.1110   80.9110  222.3600 C   0  0  0  0  0  0  0  0  0  0  0  0
  142.9450   79.9720  223.2140 C   0  0  0  0  0  0  0  0  0  0  0  0
  141.8670   79.0870  223.8630 C   0  0  0  0  0  0  0  0  0  0  0  0
  140.7440   79.1470  222.9100 C   0  0  2  0  0  0  0  0  0  0  0  0
  140.2390   77.8040  222.5240 C   0  0  0  0  0  0  0  0  0  0  0  0
  141.0560   76.7230  222.2710 C   0  0  0  0  0  0  0  0  0  0  0  0
  140.5780   75.4720  221.9410 C   0  0  0  0  0  0  0  0  0  0  0  0
  139.2100   75.2620  221.8530 C   0  0  0  0  0  0  0  0  0  0  0  0
  138.3610   76.3230  222.1000 C   0  0  0  0  0  0  0  0  0  0  0  0
  138.8670   77.5640  222.4280 C   0  0  0  0  0  0  0  0  0  0  0  0
  137.7930   78.9270  222.7470 Cl  0  0  0  0  0  0  0  0  0  0  0  0
  142.5420   75.6640  219.1840 C   0  0  0  0  0  0  0  0  0  0  0  0
  142.1870   74.5560  218.4820 C   0  0  0  0  0  0  0  0  0  0  0  0
  142.9220   73.3830  218.5360 C   0  0  0  0  0  0  0  0  0  0  0  0
  144.0510   73.3620  219.3360 C   0  0  0  0  0  0  0  0  0  0  0  0
  144.8430   72.2330  219.4480 C   0  0  0  0  0  0  0  0  0  0  0  0
  145.9550   72.2540  220.2520 C   0  0  0  0  0  0  0  0  0  0  0  0
  146.3200   73.3780  220.9680 C   0  0  0  0  0  0  0  0  0  0  0  0
  145.5240   74.4930  220.8460 C   0  0  0  0  0  0  0  0  0  0  0  0
  144.3980   74.4950  220.0410 C   0  0  0  0  0  0  0  0  0  0  0  0
  143.6490   75.6170  219.9590 N   0  0  0  0  0  0  0  0  0  0  0  0
  143.2800   78.2170  219.7540 H   0  0  0  0  0  0  0  0  0  0  0  0
  141.9708   80.0947  218.8753 H   0  0  0  0  0  0  0  0  0  0  0  0
  140.5714   78.8659  218.6745 H   0  0  0  0  0  0  0  0  0  0  0  0
  142.7156   81.4004  221.5822 H   0  0  0  0  0  0  0  0  0  0  0  0
  141.6549   81.7503  222.9055 H   0  0  0  0  0  0  0  0  0  0  0  0
  143.6333   79.3758  222.5969 H   0  0  0  0  0  0  0  0  0  0  0  0
  143.5907   80.4883  223.9396 H   0  0  0  0  0  0  0  0  0  0  0  0
  142.2264   78.0541  223.9809 H   0  0  0  0  0  0  0  0  0  0  0  0
  141.5882   79.4260  224.8717 H   0  0  0  0  0  0  0  0  0  0  0  0
  139.8664   79.6124  223.3824 H   0  0  0  0  0  0  0  0  0  0  0  0
  142.1448   76.8653  222.3356 H   0  0  0  0  0  0  0  0  0  0  0  0
  141.2779   74.6455  221.7487 H   0  0  0  0  0  0  0  0  0  0  0  0
  138.8096   74.2713  221.5920 H   0  0  0  0  0  0  0  0  0  0  0  0
  137.2726   76.1775  222.0347 H   0  0  0  0  0  0  0  0  0  0  0  0
  141.2870   74.5916  217.8505 H   0  0  0  0  0  0  0  0  0  0  0  0
  142.6177   72.4960  217.9610 H   0  0  0  0  0  0  0  0  0  0  0  0
  144.5817   71.3198  218.8933 H   0  0  0  0  0  0  0  0  0  0  0  0
  146.5746   71.3484  220.3288 H   0  0  0  0  0  0  0  0  0  0  0  0
  147.2127   73.3809  221.6107 H   0  0  0  0  0  0  0  0  0  0  0  0
  145.7885   75.4049  221.4014 H   0  0  0  0  0  0  0  0  0  0  0  0
  1  2  2  0
  2  3  1  0
  3  4  1  0
  4  5  1  0
  5  6  2  0
  5  7  1  0
  7  8  1  0
  8  9  1  0
  9 10  1  0
 10 11  1  0
 11 12  1  0
 12 13  2  0
 13 14  1  0
 14 15  2  0
 15 16  1  0
 16 17  2  0
 17 18  1  0
  2 19  1  0
 19 20  2  0
 20 21  1  0
 21 22  2  0
 22 23  1  0
 23 24  2  0
 24 25  1  0
 25 26  2  0
 26 27  1  0
 27 28  2  0
 11  7  1  0
 17 12  1  0
 28 19  1  0
 27 22  1  0
  3 29  1  0
  4 30  1  0
  4 31  1  0
  8 32  1  0
  8 33  1  0
  9 34  1  0
  9 35  1  0
 10 36  1  0
 10 37  1  0
 11 38  1  1
 13 39  1  0
 14 40  1  0
 15 41  1  0
 16 42  1  0
 20 43  1  0
 21 44  1  0
 23 45  1  0
 24 46  1  0
 25 47  1  0
 26 48  1  0
M  END
>  <smiles>  (1) 
O=C(NCC(=O)N1CCCC1c1ccccc1Cl)c1ccc2ccccc2n1

>  <score_type>  (1) 
oracle

>  <origin>  (1) 
autodockgpu

>  <m_score__min__energy>  (1) 
-8.7799999999999994

>  <m_primary>  (1) 
energy

>  <rmsd>  (1) 
7.494762439986812

>  <m_score__min__rmsd>  (1) 
7.494762439986812

>  <meeko>  (1) 
{"free_energy": -7.22, "intermolecular_energy": -8.71, "internal_energy": -2.63, "cluster_size": 14, "cluster_id": 8, "rank_in_cluster": 2}

>  <energy>  (1) 
-8.78

>  <cluster_rmsd>  (1) 
0.0

>  <cluster>  (1) 
1

$$$$

     RDKit          3D

 48 51  0  0  0  0  0  0  0  0999 V2000
  138.9550   75.1420  221.7540 O   0  0  0  0  0  0  0  0  0  0  0  0
  140.0630   75.7080  221.9690 C   0  0  0  0  0  0  0  0  0  0  0  0
  141.2200   74.8540  221.7560 N   0  0  0  0  0  0  0  0  0  0  0  0
  140.9470   73.5180  221.3410 C   0  0  0  0  0  0  0  0  0  0  0  0
  141.7940   72.9020  220.3350 C   0  0  0  0  0  0  0  0  0  0  0  0
  141.1430   72.2680  219.4150 O   0  0  0  0  0  0  0  0  0  0  0  0
  143.1970   72.8790  220.1960 N   0  0  0  0  0  0  0  0  0  0  0  0
  144.2150   72.0380  220.7950 C   0  0  0  0  0  0  0  0  0  0  0  0
  145.2190   73.0970  221.2190 C   0  0  0  0  0  0  0  0  0  0  0  0
  145.2480   74.0200  219.9880 C   0  0  0  0  0  0  0  0  0  0  0  0
  143.9280   73.8140  219.3640 C   0  0  2  0  0  0  0  0  0  0  0  0
  143.2080   75.0850  219.0960 C   0  0  0  0  0  0  0  0  0  0  0  0
  143.2300   76.1700  219.9460 C   0  0  0  0  0  0  0  0  0  0  0  0
  142.5820   77.3580  219.6770 C   0  0  0  0  0  0  0  0  0  0  0  0
  141.8650   77.4950  218.4980 C   0  0  0  0  0  0  0  0  0  0  0  0
  141.8210   76.4280  217.6220 C   0  0  0  0  0  0  0  0  0  0  0  0
  142.4790   75.2520  217.9180 C   0  0  0  0  0  0  0  0  0  0  0  0
  142.4300   73.8810  216.8080 Cl  0  0  0  0  0  0  0  0  0  0  0  0
  140.2160   77.0760  222.3880 C   0  0  0  0  0  0  0  0  0  0  0  0
  139.1100   77.8300  222.6250 C   0  0  0  0  0  0  0  0  0  0  0  0
  139.1940   79.1520  223.0300 C   0  0  0  0  0  0  0  0  0  0  0  0
  140.4540   79.7020  223.1940 C   0  0  0  0  0  0  0  0  0  0  0  0
  140.6290   81.0140  223.5960 C   0  0  0  0  0  0  0  0  0  0  0  0
  141.8960   81.5190  223.7480 C   0  0  0  0  0  0  0  0  0  0  0  0
  143.0230   80.7560  223.5080 C   0  0  0  0  0  0  0  0  0  0  0  0
  142.8330   79.4530  223.1100 C   0  0  0  0  0  0  0  0  0  0  0  0
  141.5650   78.9220  222.9510 C   0  0  0  0  0  0  0  0  0  0  0  0
  141.4350   77.6360  222.5560 N   0  0  0  0  0  0  0  0  0  0  0  0
  142.1800   75.2580  221.9160 H   0  0  0  0  0  0  0  0  0  0  0  0
  141.0019   72.8849  222.2389 H   0  0  0  0  0  0  0  0  0  0  0  0
  139.9665   73.5922  220.8480 H   0  0  0  0  0  0  0  0  0  0  0  0
  143.8252   71.4770  221.6572 H   0  0  0  0  0  0  0  0  0  0  0  0
  144.6180   71.2571  220.1334 H   0  0  0  0  0  0  0  0  0  0  0  0
  144.8773   73.6360  222.1149 H   0  0  0  0  0  0  0  0  0  0  0  0
  146.2039   72.6907  221.4925 H   0  0  0  0  0  0  0  0  0  0  0  0
  145.3801   75.0699  220.2883 H   0  0  0  0  0  0  0  0  0  0  0  0
  146.0812   73.7944  219.3062 H   0  0  0  0  0  0  0  0  0  0  0  0
  144.0436   73.3827  218.3587 H   0  0  0  0  0  0  0  0  0  0  0  0
  143.7931   76.0842  220.8871 H   0  0  0  0  0  0  0  0  0  0  0  0
  142.6338   78.1912  220.3933 H   0  0  0  0  0  0  0  0  0  0  0  0
  141.3420   78.4343  218.2651 H   0  0  0  0  0  0  0  0  0  0  0  0
  141.2573   76.5165  216.6816 H   0  0  0  0  0  0  0  0  0  0  0  0
  138.1171   77.3760  222.4909 H   0  0  0  0  0  0  0  0  0  0  0  0
  138.2874   79.7467  223.2156 H   0  0  0  0  0  0  0  0  0  0  0  0
  139.7544   81.6512  223.7934 H   0  0  0  0  0  0  0  0  0  0  0  0
  142.0183   82.5634  224.0709 H   0  0  0  0  0  0  0  0  0  0  0  0
  144.0329   81.1744  223.6305 H   0  0  0  0  0  0  0  0  0  0  0  0
  143.7096   78.8182  222.9135 H   0  0  0  0  0  0  0  0  0  0  0  0
  1  2  2  0
  2  3  1  0
  3  4  1  0
  4  5  1  0
  5  6  2  0
  5  7  1  0
  7  8  1  0
  8  9  1  0
  9 10  1  0
 10 11  1  0
 11 12  1  0
 12 13  2  0
 13 14  1  0
 14 15  2  0
 15 16  1  0
 16 17  2  0
 17 18  1  0
  2 19  1  0
 19 20  2  0
 20 21  1  0
 21 22  2  0
 22 23  1  0
 23 24  2  0
 24 25  1  0
 25 26  2  0
 26 27  1  0
 27 28  2  0
 11  7  1  0
 17 12  1  0
 28 19  1  0
 27 22  1  0
  3 29  1  0
  4 30  1  0
  4 31  1  0
  8 32  1  0
  8 33  1  0
  9 34  1  0
  9 35  1  0
 10 36  1  0
 10 37  1  0
 11 38  1  6
 13 39  1  0
 14 40  1  0
 15 41  1  0
 16 42  1  0
 20 43  1  0
 21 44  1  0
 23 45  1  0
 24 46  1  0
 25 47  1  0
 26 48  1  0
M  END
>  <smiles>  (2) 
O=C(NCC(=O)N1CCCC1c1ccccc1Cl)c1ccc2ccccc2n1

>  <score_type>  (2) 
oracle

>  <origin>  (2) 
autodockgpu

>  <m_score__min__energy>  (2) 
-8.7799999999999994

>  <m_primary>  (2) 
energy

>  <rmsd>  (2) 
7.793312270581756

>  <m_score__min__rmsd>  (2) 
7.793312270581756

>  <meeko>  (2) 
{"free_energy": -7.0, "intermolecular_energy": -8.49, "internal_energy": -2.54, "cluster_size": 5, "cluster_id": 6, "rank_in_cluster": 5}

>  <energy>  (2) 
-8.72

>  <cluster_rmsd>  (2) 
0.12

>  <cluster>  (2) 
1

$$$$

     RDKit          3D

 48 51  0  0  0  0  0  0  0  0999 V2000
  141.1730   72.5730  221.7980 O   0  0  0  0  0  0  0  0  0  0  0  0
  140.2130   72.5360  222.6170 C   0  0  0  0  0  0  0  0  0  0  0  0
  139.1610   73.5030  222.3470 N   0  0  0  0  0  0  0  0  0  0  0  0
  139.3570   74.3440  221.2140 C   0  0  0  0  0  0  0  0  0  0  0  0
  140.4760   75.2690  221.2030 C   0  0  0  0  0  0  0  0  0  0  0  0
  141.0360   75.4320  222.3580 O   0  0  0  0  0  0  0  0  0  0  0  0
  141.0480   76.0160  220.1530 N   0  0  0  0  0  0  0  0  0  0  0  0
  141.8040   75.6180  218.9810 C   0  0  0  0  0  0  0  0  0  0  0  0
  142.9500   76.6130  219.0530 C   0  0  0  0  0  0  0  0  0  0  0  0
  142.2160   77.9190  219.4010 C   0  0  0  0  0  0  0  0  0  0  0  0
  140.9930   77.4630  220.0850 C   0  0  2  0  0  0  0  0  0  0  0  0
  140.7800   78.1280  221.3970 C   0  0  0  0  0  0  0  0  0  0  0  0
  141.8020   78.6130  222.1830 C   0  0  0  0  0  0  0  0  0  0  0  0
  141.5950   79.2550  223.3870 C   0  0  0  0  0  0  0  0  0  0  0  0
  140.3000   79.4350  223.8530 C   0  0  0  0  0  0  0  0  0  0  0  0
  139.2510   78.9610  223.0900 C   0  0  0  0  0  0  0  0  0  0  0  0
  139.4890   78.3230  221.8900 C   0  0  0  0  0  0  0  0  0  0  0  0
  138.1570   77.7130  220.9070 Cl  0  0  0  0  0  0  0  0  0  0  0  0
  140.1230   71.6330  223.7330 C   0  0  0  0  0  0  0  0  0  0  0  0
  139.5210   70.4250  223.5710 C   0  0  0  0  0  0  0  0  0  0  0  0
  139.4050   69.5150  224.6080 C   0  0  0  0  0  0  0  0  0  0  0  0
  139.9270   69.8660  225.8410 C   0  0  0  0  0  0  0  0  0  0  0  0
  139.8550   69.0170  226.9310 C   0  0  0  0  0  0  0  0  0  0  0  0
  140.3860   69.4050  228.1360 C   0  0  0  0  0  0  0  0  0  0  0  0
  140.9980   70.6310  228.3060 C   0  0  0  0  0  0  0  0  0  0  0  0
  141.0630   71.4640  227.2140 C   0  0  0  0  0  0  0  0  0  0  0  0
  140.5350   71.0950  225.9890 C   0  0  0  0  0  0  0  0  0  0  0  0
  140.6250   71.9520  224.9480 N   0  0  0  0  0  0  0  0  0  0  0  0
  138.3260   73.5310  222.9900 H   0  0  0  0  0  0  0  0  0  0  0  0
  139.4764   73.6849  220.3415 H   0  0  0  0  0  0  0  0  0  0  0  0
  138.4748   75.0011  221.2205 H   0  0  0  0  0  0  0  0  0  0  0  0
  142.1597   74.5800  219.0582 H   0  0  0  0  0  0  0  0  0  0  0  0
  141.2374   75.6326  218.0383 H   0  0  0  0  0  0  0  0  0  0  0  0
  143.6701   76.3376  219.8376 H   0  0  0  0  0  0  0  0  0  0  0  0
  143.5464   76.6710  218.1306 H   0  0  0  0  0  0  0  0  0  0  0  0
  142.8267   78.5464  220.0669 H   0  0  0  0  0  0  0  0  0  0  0  0
  142.0034   78.5365  218.5158 H   0  0  0  0  0  0  0  0  0  0  0  0
  140.1018   77.7598  219.5125 H   0  0  0  0  0  0  0  0  0  0  0  0
  142.8365   78.4818  221.8329 H   0  0  0  0  0  0  0  0  0  0  0  0
  142.4505   79.6216  223.9733 H   0  0  0  0  0  0  0  0  0  0  0  0
  140.1132   79.9444  224.8099 H   0  0  0  0  0  0  0  0  0  0  0  0
  138.2172   79.0932  223.4419 H   0  0  0  0  0  0  0  0  0  0  0  0
  139.1128   70.1620  222.5840 H   0  0  0  0  0  0  0  0  0  0  0  0
  138.9131   68.5428  224.4567 H   0  0  0  0  0  0  0  0  0  0  0  0
  139.3732   68.0331  226.8323 H   0  0  0  0  0  0  0  0  0  0  0  0
  140.3220   68.7179  228.9926 H   0  0  0  0  0  0  0  0  0  0  0  0
  141.4175   70.9299  229.2779 H   0  0  0  0  0  0  0  0  0  0  0  0
  141.5461   72.4469  227.3164 H   0  0  0  0  0  0  0  0  0  0  0  0
  1  2  2  0
  2  3  1  0
  3  4  1  0
  4  5  1  0
  5  6  2  0
  5  7  1  0
  7  8  1  0
  8  9  1  0
  9 10  1  0
 10 11  1  0
 11 12  1  0
 12 13  2  0
 13 14  1  0
 14 15  2  0
 15 16  1  0
 16 17  2  0
 17 18  1  0
  2 19  1  0
 19 20  2  0
 20 21  1  0
 21 22  2  0
 22 23  1  0
 23 24  2  0
 24 25  1  0
 25 26  2  0
 26 27  1  0
 27 28  2  0
 11  7  1  0
 17 12  1  0
 28 19  1  0
 27 22  1  0
  3 29  1  0
  4 30  1  0
  4 31  1  0
  8 32  1  0
  8 33  1  0
  9 34  1  0
  9 35  1  0
 10 36  1  0
 10 37  1  0
 11 38  1  6
 13 39  1  0
 14 40  1  0
 15 41  1  0
 16 42  1  0
 20 43  1  0
 21 44  1  0
 23 45  1  0
 24 46  1  0
 25 47  1  0
 26 48  1  0
M  END
>  <smiles>  (3) 
O=C(NCC(=O)N1CCCC1c1ccccc1Cl)c1ccc2ccccc2n1

>  <score_type>  (3) 
oracle

>  <origin>  (3) 
autodockgpu

>  <m_score__min__energy>  (3) 
-8.7799999999999994

>  <m_primary>  (3) 
energy

>  <rmsd>  (3) 
1.8178812512068614

>  <m_score__min__rmsd>  (3) 
1.8178812512068614

>  <meeko>  (3) 
{"free_energy": -8.69, "intermolecular_energy": -10.18, "internal_energy": -1.46, "cluster_size": 16, "cluster_id": 1, "rank_in_cluster": 7}

>  <energy>  (3) 
-8.71

>  <cluster_rmsd>  (3) 
0.3

>  <cluster>  (3) 
1

$$$$

     RDKit          3D

 48 51  0  0  0  0  0  0  0  0999 V2000
  140.6960   71.5600  221.3500 O   0  0  0  0  0  0  0  0  0  0  0  0
  140.2730   71.9900  222.4590 C   0  0  0  0  0  0  0  0  0  0  0  0
  139.8870   73.3910  222.4480 N   0  0  0  0  0  0  0  0  0  0  0  0
  140.0380   74.0740  221.2060 C   0  0  0  0  0  0  0  0  0  0  0  0
  140.8660   75.2650  221.1490 C   0  0  0  0  0  0  0  0  0  0  0  0
  141.3070   75.6560  222.3000 O   0  0  0  0  0  0  0  0  0  0  0  0
  141.2650   76.0620  220.0560 N   0  0  0  0  0  0  0  0  0  0  0  0
  141.9420   75.7360  218.8160 C   0  0  0  0  0  0  0  0  0  0  0  0
  142.9900   76.8360  218.7890 C   0  0  0  0  0  0  0  0  0  0  0  0
  142.1720   78.0670  219.2150 C   0  0  0  0  0  0  0  0  0  0  0  0
  141.0660   77.4980  220.0050 C   0  0  2  0  0  0  0  0  0  0  0  0
  140.9140   78.1400  221.3370 C   0  0  0  0  0  0  0  0  0  0  0  0
  141.9610   78.6920  222.0430 C   0  0  0  0  0  0  0  0  0  0  0  0
  141.8080   79.3120  223.2660 C   0  0  0  0  0  0  0  0  0  0  0  0
  140.5460   79.3990  223.8360 C   0  0  0  0  0  0  0  0  0  0  0  0
  139.4740   78.8550  223.1560 C   0  0  0  0  0  0  0  0  0  0  0  0
  139.6580   78.2410  221.9350 C   0  0  0  0  0  0  0  0  0  0  0  0
  138.2960   77.5430  221.0560 Cl  0  0  0  0  0  0  0  0  0  0  0  0
  140.1640   71.1990  223.6560 C   0  0  0  0  0  0  0  0  0  0  0  0
  139.5770   69.9740  223.5980 C   0  0  0  0  0  0  0  0  0  0  0  0
  139.4430   69.1680  224.7160 C   0  0  0  0  0  0  0  0  0  0  0  0
  139.9300   69.6430  225.9210 C   0  0  0  0  0  0  0  0  0  0  0  0
  139.8380   68.9030  227.0860 C   0  0  0  0  0  0  0  0  0  0  0  0
  140.3350   69.4120  228.2600 C   0  0  0  0  0  0  0  0  0  0  0  0
  140.9310   70.6570  228.3250 C   0  0  0  0  0  0  0  0  0  0  0  0
  141.0160   71.3800  227.1580 C   0  0  0  0  0  0  0  0  0  0  0  0
  140.5230   70.8870  225.9630 C   0  0  0  0  0  0  0  0  0  0  0  0
  140.6310   71.6400  224.8460 N   0  0  0  0  0  0  0  0  0  0  0  0
  139.5250   73.8210  223.3390 H   0  0  0  0  0  0  0  0  0  0  0  0
  140.4627   73.3528  220.4922 H   0  0  0  0  0  0  0  0  0  0  0  0
  139.0266   74.4478  220.9882 H   0  0  0  0  0  0  0  0  0  0  0  0
  142.4003   74.7366  218.8518 H   0  0  0  0  0  0  0  0  0  0  0  0
  141.2911   75.6950  217.9302 H   0  0  0  0  0  0  0  0  0  0  0  0
  143.8034   76.6308  219.5006 H   0  0  0  0  0  0  0  0  0  0  0  0
  143.4886   76.9500  217.8151 H   0  0  0  0  0  0  0  0  0  0  0  0
  142.7804   78.7491  219.8271 H   0  0  0  0  0  0  0  0  0  0  0  0
  141.8211   78.6616  218.3587 H   0  0  0  0  0  0  0  0  0  0  0  0
  140.1015   77.7090  219.5199 H   0  0  0  0  0  0  0  0  0  0  0  0
  142.9703   78.6354  221.6092 H   0  0  0  0  0  0  0  0  0  0  0  0
  142.6806   79.7345  223.7857 H   0  0  0  0  0  0  0  0  0  0  0  0
  140.4023   79.8910  224.8093 H   0  0  0  0  0  0  0  0  0  0  0  0
  138.4656   78.9119  223.5918 H   0  0  0  0  0  0  0  0  0  0  0  0
  139.1962   69.6115  222.6318 H   0  0  0  0  0  0  0  0  0  0  0  0
  138.9639   68.1801  224.6483 H   0  0  0  0  0  0  0  0  0  0  0  0
  139.3676   67.9088  227.0717 H   0  0  0  0  0  0  0  0  0  0  0  0
  140.2564   68.8102  229.1774 H   0  0  0  0  0  0  0  0  0  0  0  0
  141.3222   71.0544  229.2732 H   0  0  0  0  0  0  0  0  0  0  0  0
  141.4872   72.3738  227.1752 H   0  0  0  0  0  0  0  0  0  0  0  0
  1  2  2  0
  2  3  1  0
  3  4  1  0
  4  5  1  0
  5  6  2  0
  5  7  1  0
  7  8  1  0
  8  9  1  0
  9 10  1  0
 10 11  1  0
 11 12  1  0
 12 13  2  0
 13 14  1  0
 14 15  2  0
 15 16  1  0
 16 17  2  0
 17 18  1  0
  2 19  1  0
 19 20  2  0
 20 21  1  0
 21 22  2  0
 22 23  1  0
 23 24  2  0
 24 25  1  0
 25 26  2  0
 26 27  1  0
 27 28  2  0
 11  7  1  0
 17 12  1  0
 28 19  1  0
 27 22  1  0
  3 29  1  0
  4 30  1  0
  4 31  1  0
  8 32  1  0
  8 33  1  0
  9 34  1  0
  9 35  1  0
 10 36  1  0
 10 37  1  0
 11 38  1  6
 13 39  1  0
 14 40  1  0
 15 41  1  0
 16 42  1  0
 20 43  1  0
 21 44  1  0
 23 45  1  0
 24 46  1  0
 25 47  1  0
 26 48  1  0
M  END
>  <smiles>  (4) 
O=C(NCC(=O)N1CCCC1c1ccccc1Cl)c1ccc2ccccc2n1

>  <score_type>  (4) 
oracle

>  <origin>  (4) 
autodockgpu

>  <m_score__min__energy>  (4) 
-8.7799999999999994

>  <m_primary>  (4) 
energy

>  <rmsd>  (4) 
1.8201853717560739

>  <m_score__min__rmsd>  (4) 
1.8201853717560739

>  <meeko>  (4) 
{"free_energy": -8.57, "intermolecular_energy": -10.06, "internal_energy": -1.48, "cluster_size": 16, "cluster_id": 1, "rank_in_cluster": 13}

>  <energy>  (4) 
-8.71

>  <cluster_rmsd>  (4) 
0.3

>  <cluster>  (4) 
1

$$$$

     RDKit          3D

 48 51  0  0  0  0  0  0  0  0999 V2000
  140.8320   72.2480  221.2180 O   0  0  0  0  0  0  0  0  0  0  0  0
  140.2140   72.5550  222.2750 C   0  0  0  0  0  0  0  0  0  0  0  0
  139.5570   73.8510  222.2260 N   0  0  0  0  0  0  0  0  0  0  0  0
  139.7000   74.5820  221.0110 C   0  0  0  0  0  0  0  0  0  0  0  0
  140.9090   75.3530  220.7860 C   0  0  0  0  0  0  0  0  0  0  0  0
  141.8140   75.1920  221.6970 O   0  0  0  0  0  0  0  0  0  0  0  0
  141.2600   76.2420  219.7490 N   0  0  0  0  0  0  0  0  0  0  0  0
  141.8650   76.0240  218.4490 C   0  0  0  0  0  0  0  0  0  0  0  0
  142.9250   77.1120  218.4630 C   0  0  0  0  0  0  0  0  0  0  0  0
  142.1490   78.3070  219.0430 C   0  0  0  0  0  0  0  0  0  0  0  0
  141.0790   77.6780  219.8390 C   0  0  2  0  0  0  0  0  0  0  0  0
  141.0090   78.1980  221.2290 C   0  0  0  0  0  0  0  0  0  0  0  0
  142.1050   78.6420  221.9360 C   0  0  0  0  0  0  0  0  0  0  0  0
  142.0280   79.1500  223.2170 C   0  0  0  0  0  0  0  0  0  0  0  0
  140.7950   79.2310  223.8480 C   0  0  0  0  0  0  0  0  0  0  0  0
  139.6750   78.7940  223.1690 C   0  0  0  0  0  0  0  0  0  0  0  0
  139.7830   78.2900  221.8890 C   0  0  0  0  0  0  0  0  0  0  0  0
  138.3580   77.7290  221.0120 Cl  0  0  0  0  0  0  0  0  0  0  0  0
  140.1380   71.7280  223.4490 C   0  0  0  0  0  0  0  0  0  0  0  0
  139.5490   70.5050  223.3690 C   0  0  0  0  0  0  0  0  0  0  0  0
  139.4460   69.6650  224.4650 C   0  0  0  0  0  0  0  0  0  0  0  0
  139.9670   70.1030  225.6700 C   0  0  0  0  0  0  0  0  0  0  0  0
  139.9080   69.3270  226.8140 C   0  0  0  0  0  0  0  0  0  0  0  0
  140.4370   69.8000  227.9890 C   0  0  0  0  0  0  0  0  0  0  0  0
  141.0360   71.0420  228.0760 C   0  0  0  0  0  0  0  0  0  0  0  0
  141.0890   71.8020  226.9300 C   0  0  0  0  0  0  0  0  0  0  0  0
  140.5610   71.3460  225.7340 C   0  0  0  0  0  0  0  0  0  0  0  0
  140.6380   72.1330  224.6380 N   0  0  0  0  0  0  0  0  0  0  0  0
  139.0210   74.1770  223.0730 H   0  0  0  0  0  0  0  0  0  0  0  0
  139.6243   73.8557  220.1883 H   0  0  0  0  0  0  0  0  0  0  0  0
  138.9104   75.3456  221.0709 H   0  0  0  0  0  0  0  0  0  0  0  0
  142.3106   75.0214  218.3695 H   0  0  0  0  0  0  0  0  0  0  0  0
  141.1666   76.0697  217.6004 H   0  0  0  0  0  0  0  0  0  0  0  0
  143.7730   76.8356  219.1069 H   0  0  0  0  0  0  0  0  0  0  0  0
  143.3712   77.3093  217.4771 H   0  0  0  0  0  0  0  0  0  0  0  0
  142.7994   78.9250  219.6795 H   0  0  0  0  0  0  0  0  0  0  0  0
  141.7606   78.9804  218.2647 H   0  0  0  0  0  0  0  0  0  0  0  0
  140.0924   77.9404  219.4293 H   0  0  0  0  0  0  0  0  0  0  0  0
  143.0926   78.5889  221.4546 H   0  0  0  0  0  0  0  0  0  0  0  0
  142.9380   79.4884  223.7341 H   0  0  0  0  0  0  0  0  0  0  0  0
  140.7115   79.6349  224.8678 H   0  0  0  0  0  0  0  0  0  0  0  0
  138.6884   78.8481  223.6525 H   0  0  0  0  0  0  0  0  0  0  0  0
  139.1414   70.1724  222.4030 H   0  0  0  0  0  0  0  0  0  0  0  0
  138.9647   68.6795  224.3804 H   0  0  0  0  0  0  0  0  0  0  0  0
  139.4381   68.3329  226.7820 H   0  0  0  0  0  0  0  0  0  0  0  0
  140.3823   69.1706  228.8895 H   0  0  0  0  0  0  0  0  0  0  0  0
  141.4544   71.4092  229.0248 H   0  0  0  0  0  0  0  0  0  0  0  0
  141.5617   72.7946  226.9649 H   0  0  0  0  0  0  0  0  0  0  0  0
  1  2  2  0
  2  3  1  0
  3  4  1  0
  4  5  1  0
  5  6  2  0
  5  7  1  0
  7  8  1  0
  8  9  1  0
  9 10  1  0
 10 11  1  0
 11 12  1  0
 12 13  2  0
 13 14  1  0
 14 15  2  0
 15 16  1  0
 16 17  2  0
 17 18  1  0
  2 19  1  0
 19 20  2  0
 20 21  1  0
 21 22  2  0
 22 23  1  0
 23 24  2  0
 24 25  1  0
 25 26  2  0
 26 27  1  0
 27 28  2  0
 11  7  1  0
 17 12  1  0
 28 19  1  0
 27 22  1  0
  3 29  1  0
  4 30  1  0
  4 31  1  0
  8 32  1  0
  8 33  1  0
  9 34  1  0
  9 35  1  0
 10 36  1  0
 10 37  1  0
 11 38  1  6
 13 39  1  0
 14 40  1  0
 15 41  1  0
 16 42  1  0
 20 43  1  0
 21 44  1  0
 23 45  1  0
 24 46  1  0
 25 47  1  0
 26 48  1  0
M  END
>  <smiles>  (5) 
O=C(NCC(=O)N1CCCC1c1ccccc1Cl)c1ccc2ccccc2n1

>  <score_type>  (5) 
oracle

>  <origin>  (5) 
autodockgpu

>  <m_score__min__energy>  (5) 
-8.7799999999999994

>  <m_primary>  (5) 
energy

>  <rmsd>  (5) 
1.8885653552616473

>  <m_score__min__rmsd>  (5) 
1.8885653552616473

>  <meeko>  (5) 
{"free_energy": -8.29, "intermolecular_energy": -9.78, "internal_energy": -1.59, "cluster_size": 16, "cluster_id": 1, "rank_in_cluster": 14}

>  <energy>  (5) 
-8.71

>  <cluster_rmsd>  (5) 
0.38

>  <cluster>  (5) 
1

$$$$

     RDKit          3D

 48 51  0  0  0  0  0  0  0  0999 V2000
  140.5590   76.8360  218.4280 O   0  0  0  0  0  0  0  0  0  0  0  0
  141.6610   76.7970  219.0430 C   0  0  0  0  0  0  0  0  0  0  0  0
  142.0690   78.0690  219.6150 N   0  0  0  0  0  0  0  0  0  0  0  0
  141.1830   79.1650  219.4070 C   0  0  0  0  0  0  0  0  0  0  0  0
  140.6840   79.9010  220.5540 C   0  0  0  0  0  0  0  0  0  0  0  0
  139.5810   80.5390  220.3320 O   0  0  0  0  0  0  0  0  0  0  0  0
  141.1970   80.0360  221.8610 N   0  0  0  0  0  0  0  0  0  0  0  0
  142.1800   80.9400  222.4260 C   0  0  0  0  0  0  0  0  0  0  0  0
  143.0310   79.9530  223.2080 C   0  0  0  0  0  0  0  0  0  0  0  0
  141.9630   79.0620  223.8650 C   0  0  0  0  0  0  0  0  0  0  0  0
  140.8040   79.1790  222.9620 C   0  0  2  0  0  0  0  0  0  0  0  0
  140.2580   77.8610  222.5440 C   0  0  0  0  0  0  0  0  0  0  0  0
  141.0400   76.7530  222.3010 C   0  0  0  0  0  0  0  0  0  0  0  0
  140.5250   75.5240  221.9410 C   0  0  0  0  0  0  0  0  0  0  0  0
  139.1520   75.3690  221.8120 C   0  0  0  0  0  0  0  0  0  0  0  0
  138.3380   76.4600  222.0480 C   0  0  0  0  0  0  0  0  0  0  0  0
  138.8820   77.6760  222.4060 C   0  0  0  0  0  0  0  0  0  0  0  0
  137.8530   79.0760  222.7110 Cl  0  0  0  0  0  0  0  0  0  0  0  0
  142.4750   75.6200  219.1900 C   0  0  0  0  0  0  0  0  0  0  0  0
  142.1070   74.4690  218.5680 C   0  0  0  0  0  0  0  0  0  0  0  0
  142.8500   73.3050  218.6730 C   0  0  0  0  0  0  0  0  0  0  0  0
  144.0020   73.3370  219.4390 C   0  0  0  0  0  0  0  0  0  0  0  0
  144.8030   72.2210  219.5980 C   0  0  0  0  0  0  0  0  0  0  0  0
  145.9370   72.2960  220.3670 C   0  0  0  0  0  0  0  0  0  0  0  0
  146.3160   73.4630  221.0010 C   0  0  0  0  0  0  0  0  0  0  0  0
  145.5100   74.5650  220.8350 C   0  0  0  0  0  0  0  0  0  0  0  0
  144.3610   74.5130  220.0640 C   0  0  0  0  0  0  0  0  0  0  0  0
  143.6040   75.6250  219.9340 N   0  0  0  0  0  0  0  0  0  0  0  0
  142.9800   78.1140  220.1440 H   0  0  0  0  0  0  0  0  0  0  0  0
  141.7105   79.8873  218.7666 H   0  0  0  0  0  0  0  0  0  0  0  0
  140.2817   78.6958  218.9857 H   0  0  0  0  0  0  0  0  0  0  0  0
  142.7618   81.4502  221.6442 H   0  0  0  0  0  0  0  0  0  0  0  0
  141.7615   81.7639  223.0226 H   0  0  0  0  0  0  0  0  0  0  0  0
  143.6825   79.3701  222.5404 H   0  0  0  0  0  0  0  0  0  0  0  0
  143.7155   80.4284  223.9260 H   0  0  0  0  0  0  0  0  0  0  0  0
  142.3072   78.0191  223.9278 H   0  0  0  0  0  0  0  0  0  0  0  0
  141.7312   79.3658  224.8965 H   0  0  0  0  0  0  0  0  0  0  0  0
  139.9552   79.6399  223.4885 H   0  0  0  0  0  0  0  0  0  0  0  0
  142.1311   76.8530  222.3989 H   0  0  0  0  0  0  0  0  0  0  0  0
  141.1981   74.6735  221.7577 H   0  0  0  0  0  0  0  0  0  0  0  0
  138.7208   74.3978  221.5278 H   0  0  0  0  0  0  0  0  0  0  0  0
  137.2471   76.3582  221.9496 H   0  0  0  0  0  0  0  0  0  0  0  0
  141.1893   74.4617  217.9615 H   0  0  0  0  0  0  0  0  0  0  0  0
  142.5340   72.3830  218.1630 H   0  0  0  0  0  0  0  0  0  0  0  0
  144.5314   71.2741  219.1085 H   0  0  0  0  0  0  0  0  0  0  0  0
  146.5634   71.3991  220.4820 H   0  0  0  0  0  0  0  0  0  0  0  0
  147.2274   73.5093  221.6151 H   0  0  0  0  0  0  0  0  0  0  0  0
  145.7846   75.5101  221.3264 H   0  0  0  0  0  0  0  0  0  0  0  0
  1  2  2  0
  2  3  1  0
  3  4  1  0
  4  5  1  0
  5  6  2  0
  5  7  1  0
  7  8  1  0
  8  9  1  0
  9 10  1  0
 10 11  1  0
 11 12  1  0
 12 13  2  0
 13 14  1  0
 14 15  2  0
 15 16  1  0
 16 17  2  0
 17 18  1  0
  2 19  1  0
 19 20  2  0
 20 21  1  0
 21 22  2  0
 22 23  1  0
 23 24  2  0
 24 25  1  0
 25 26  2  0
 26 27  1  0
 27 28  2  0
 11  7  1  0
 17 12  1  0
 28 19  1  0
 27 22  1  0
  3 29  1  0
  4 30  1  0
  4 31  1  0
  8 32  1  0
  8 33  1  0
  9 34  1  0
  9 35  1  0
 10 36  1  0
 10 37  1  0
 11 38  1  1
 13 39  1  0
 14 40  1  0
 15 41  1  0
 16 42  1  0
 20 43  1  0
 21 44  1  0
 23 45  1  0
 24 46  1  0
 25 47  1  0
 26 48  1  0
M  END
>  <smiles>  (6) 
O=C(NCC(=O)N1CCCC1c1ccccc1Cl)c1ccc2ccccc2n1

>  <score_type>  (6) 
oracle

>  <origin>  (6) 
autodockgpu

>  <m_score__min__energy>  (6) 
-8.7799999999999994

>  <m_primary>  (6) 
energy

>  <rmsd>  (6) 
7.437717312679587

>  <m_score__min__rmsd>  (6) 
7.437717312679587

>  <meeko>  (6) 
{"free_energy": -7.1, "intermolecular_energy": -8.6, "internal_energy": -2.63, "cluster_size": 14, "cluster_id": 8, "rank_in_cluster": 12}

>  <energy>  (6) 
-8.69

>  <cluster_rmsd>  (6) 
0.31

>  <cluster>  (6) 
1

$$$$

     RDKit          3D

 48 51  0  0  0  0  0  0  0  0999 V2000
  139.2770   71.1000  221.4390 O   0  0  0  0  0  0  0  0  0  0  0  0
  139.5220   71.7550  222.4900 C   0  0  0  0  0  0  0  0  0  0  0  0
  139.3860   73.1940  222.3410 N   0  0  0  0  0  0  0  0  0  0  0  0
  139.0010   73.6590  221.0500 C   0  0  0  0  0  0  0  0  0  0  0  0
  139.9050   73.4690  219.9300 C   0  0  0  0  0  0  0  0  0  0  0  0
  139.3370   73.5600  218.7720 O   0  0  0  0  0  0  0  0  0  0  0  0
  141.2900   73.2030  219.8950 N   0  0  0  0  0  0  0  0  0  0  0  0
  142.0350   71.9610  219.8210 C   0  0  0  0  0  0  0  0  0  0  0  0
  143.0670   72.2060  220.9090 C   0  0  0  0  0  0  0  0  0  0  0  0
  143.4780   73.6630  220.6380 C   0  0  0  0  0  0  0  0  0  0  0  0
  142.3010   74.2400  219.9640 C   0  0  2  0  0  0  0  0  0  0  0  0
  141.8350   75.5050  220.5900 C   0  0  0  0  0  0  0  0  0  0  0  0
  141.2250   75.5670  221.8240 C   0  0  0  0  0  0  0  0  0  0  0  0
  140.8210   76.7480  222.4120 C   0  0  0  0  0  0  0  0  0  0  0  0
  141.0290   77.9490  221.7490 C   0  0  0  0  0  0  0  0  0  0  0  0
  141.6380   77.9240  220.5100 C   0  0  0  0  0  0  0  0  0  0  0  0
  142.0310   76.7270  219.9470 C   0  0  0  0  0  0  0  0  0  0  0  0
  142.8110   76.6820  218.3640 Cl  0  0  0  0  0  0  0  0  0  0  0  0
  139.9050   71.1710  223.7480 C   0  0  0  0  0  0  0  0  0  0  0  0
  140.6920   71.8770  224.6020 C   0  0  0  0  0  0  0  0  0  0  0  0
  141.0930   71.3670  225.8250 C   0  0  0  0  0  0  0  0  0  0  0  0
  140.6660   70.0960  226.1700 C   0  0  0  0  0  0  0  0  0  0  0  0
  141.0190   69.5110  227.3730 C   0  0  0  0  0  0  0  0  0  0  0  0
  140.5730   68.2490  227.6760 C   0  0  0  0  0  0  0  0  0  0  0  0
  139.7730   67.5270  226.8120 C   0  0  0  0  0  0  0  0  0  0  0  0
  139.4300   68.1220  225.6200 C   0  0  0  0  0  0  0  0  0  0  0  0
  139.8670   69.3940  225.2930 C   0  0  0  0  0  0  0  0  0  0  0  0
  139.5010   69.9320  224.1080 N   0  0  0  0  0  0  0  0  0  0  0  0
  139.5760   73.8070  223.1780 H   0  0  0  0  0  0  0  0  0  0  0  0
  138.0597   73.1511  220.7930 H   0  0  0  0  0  0  0  0  0  0  0  0
  138.9569   74.7518  221.1680 H   0  0  0  0  0  0  0  0  0  0  0  0
  141.4014   71.0909  220.0480 H   0  0  0  0  0  0  0  0  0  0  0  0
  142.4529   71.7302  218.8300 H   0  0  0  0  0  0  0  0  0  0  0  0
  142.6259   72.0949  221.9105 H   0  0  0  0  0  0  0  0  0  0  0  0
  143.9080   71.4972  220.8901 H   0  0  0  0  0  0  0  0  0  0  0  0
  143.6895   74.1921  221.5789 H   0  0  0  0  0  0  0  0  0  0  0  0
  144.3948   73.7416  220.0352 H   0  0  0  0  0  0  0  0  0  0  0  0
  142.5619   74.5542  218.9426 H   0  0  0  0  0  0  0  0  0  0  0  0
  141.0513   74.6269  222.3681 H   0  0  0  0  0  0  0  0  0  0  0  0
  140.3372   76.7375  223.3998 H   0  0  0  0  0  0  0  0  0  0  0  0
  140.7152   78.9014  222.2011 H   0  0  0  0  0  0  0  0  0  0  0  0
  141.8112   78.8653  219.9677 H   0  0  0  0  0  0  0  0  0  0  0  0
  141.0209   72.8859  224.3122 H   0  0  0  0  0  0  0  0  0  0  0  0
  141.7314   71.9537  226.5019 H   0  0  0  0  0  0  0  0  0  0  0  0
  141.6558   70.0563  228.0851 H   0  0  0  0  0  0  0  0  0  0  0  0
  140.8617   67.7983  228.6370 H   0  0  0  0  0  0  0  0  0  0  0  0
  139.4237   66.5156  227.0671 H   0  0  0  0  0  0  0  0  0  0  0  0
  138.7933   67.5739  224.9099 H   0  0  0  0  0  0  0  0  0  0  0  0
  1  2  2  0
  2  3  1  0
  3  4  1  0
  4  5  1  0
  5  6  2  0
  5  7  1  0
  7  8  1  0
  8  9  1  0
  9 10  1  0
 10 11  1  0
 11 12  1  0
 12 13  2  0
 13 14  1  0
 14 15  2  0
 15 16  1  0
 16 17  2  0
 17 18  1  0
  2 19  1  0
 19 20  2  0
 20 21  1  0
 21 22  2  0
 22 23  1  0
 23 24  2  0
 24 25  1  0
 25 26  2  0
 26 27  1  0
 27 28  2  0
 11  7  1  0
 17 12  1  0
 28 19  1  0
 27 22  1  0
  3 29  1  0
  4 30  1  0
  4 31  1  0
  8 32  1  0
  8 33  1  0
  9 34  1  0
  9 35  1  0
 10 36  1  0
 10 37  1  0
 11 38  1  6
 13 39  1  0
 14 40  1  0
 15 41  1  0
 16 42  1  0
 20 43  1  0
 21 44  1  0
 23 45  1  0
 24 46  1  0
 25 47  1  0
 26 48  1  0
M  END
>  <smiles>  (7) 
O=C(NCC(=O)N1CCCC1c1ccccc1Cl)c1ccc2ccccc2n1

>  <score_type>  (7) 
oracle

>  <origin>  (7) 
autodockgpu

>  <m_score__min__energy>  (7) 
-8.7799999999999994

>  <m_primary>  (7) 
energy

>  <rmsd>  (7) 
3.5815112689398414

>  <m_score__min__rmsd>  (7) 
3.5815112689398414

>  <meeko>  (7) 
{"free_energy": -7.52, "intermolecular_energy": -9.01, "internal_energy": -1.73, "cluster_size": 9, "cluster_id": 3, "rank_in_cluster": 9}

>  <energy>  (7) 
-8.69

>  <cluster_rmsd>  (7) 
0.16

>  <cluster>  (7) 
1

$$$$

     RDKit          3D

 48 51  0  0  0  0  0  0  0  0999 V2000
  134.2080   69.6130  226.8200 O   0  0  0  0  0  0  0  0  0  0  0  0
  134.3380   70.7360  226.2570 C   0  0  0  0  0  0  0  0  0  0  0  0
  135.4300   70.8000  225.3000 N   0  0  0  0  0  0  0  0  0  0  0  0
  136.1890   69.6070  225.1320 C   0  0  0  0  0  0  0  0  0  0  0  0
  137.3780   69.6350  224.2990 C   0  0  0  0  0  0  0  0  0  0  0  0
  137.6210   68.5200  223.6890 O   0  0  0  0  0  0  0  0  0  0  0  0
  138.3060   70.6660  224.0470 N   0  0  0  0  0  0  0  0  0  0  0  0
  138.4380   71.6030  222.9470 C   0  0  0  0  0  0  0  0  0  0  0  0
  139.9270   71.4790  222.6710 C   0  0  0  0  0  0  0  0  0  0  0  0
  140.5160   71.4800  224.0920 C   0  0  0  0  0  0  0  0  0  0  0  0
  139.4160   70.9690  224.9290 C   0  0  2  0  0  0  0  0  0  0  0  0
  139.8280   69.8390  225.8010 C   0  0  0  0  0  0  0  0  0  0  0  0
  139.7840   68.5180  225.4130 C   0  0  0  0  0  0  0  0  0  0  0  0
  140.1950   67.4760  226.2190 C   0  0  0  0  0  0  0  0  0  0  0  0
  140.6820   67.7440  227.4890 C   0  0  0  0  0  0  0  0  0  0  0  0
  140.7390   69.0580  227.9130 C   0  0  0  0  0  0  0  0  0  0  0  0
  140.3210   70.0790  227.0850 C   0  0  0  0  0  0  0  0  0  0  0  0
  140.3890   71.7610  227.6130 Cl  0  0  0  0  0  0  0  0  0  0  0  0
  133.5020   71.8790  226.5100 C   0  0  0  0  0  0  0  0  0  0  0  0
  132.1990   71.6940  226.8480 C   0  0  0  0  0  0  0  0  0  0  0  0
  131.3460   72.7550  227.1030 C   0  0  0  0  0  0  0  0  0  0  0  0
  131.8580   74.0370  227.0050 C   0  0  0  0  0  0  0  0  0  0  0  0
  131.0770   75.1540  227.2420 C   0  0  0  0  0  0  0  0  0  0  0  0
  131.6250   76.4080  227.1340 C   0  0  0  0  0  0  0  0  0  0  0  0
  132.9490   76.6010  226.7900 C   0  0  0  0  0  0  0  0  0  0  0  0
  133.7140   75.4820  226.5570 C   0  0  0  0  0  0  0  0  0  0  0  0
  133.1820   74.2080  226.6600 C   0  0  0  0  0  0  0  0  0  0  0  0
  133.9780   73.1420  226.4200 N   0  0  0  0  0  0  0  0  0  0  0  0
  135.6000   71.7080  224.7910 H   0  0  0  0  0  0  0  0  0  0  0  0
  136.5065   69.2843  226.1345 H   0  0  0  0  0  0  0  0  0  0  0  0
  135.5058   68.9365  224.5901 H   0  0  0  0  0  0  0  0  0  0  0  0
  137.8353   71.2999  222.0782 H   0  0  0  0  0  0  0  0  0  0  0  0
  138.0908   72.6239  223.1642 H   0  0  0  0  0  0  0  0  0  0  0  0
  140.1591   70.5425  222.1427 H   0  0  0  0  0  0  0  0  0  0  0  0
  140.3263   72.2744  222.0245 H   0  0  0  0  0  0  0  0  0  0  0  0
  141.3938   70.8199  224.1528 H   0  0  0  0  0  0  0  0  0  0  0  0
  140.8638   72.4747  224.4075 H   0  0  0  0  0  0  0  0  0  0  0  0
  139.0989   71.7341  225.6530 H   0  0  0  0  0  0  0  0  0  0  0  0
  139.4016   68.2816  224.4091 H   0  0  0  0  0  0  0  0  0  0  0  0
  140.1366   66.4392  225.8560 H   0  0  0  0  0  0  0  0  0  0  0  0
  141.0162   66.9274  228.1458 H   0  0  0  0  0  0  0  0  0  0  0  0
  141.1204   69.2914  228.9180 H   0  0  0  0  0  0  0  0  0  0  0  0
  131.8089   70.6681  226.9215 H   0  0  0  0  0  0  0  0  0  0  0  0
  130.2940   72.5839  227.3750 H   0  0  0  0  0  0  0  0  0  0  0  0
  130.0182   75.0375  227.5166 H   0  0  0  0  0  0  0  0  0  0  0  0
  130.9907   77.2857  227.3272 H   0  0  0  0  0  0  0  0  0  0  0  0
  133.3753   77.6115  226.7056 H   0  0  0  0  0  0  0  0  0  0  0  0
  134.7725   75.6020  226.2826 H   0  0  0  0  0  0  0  0  0  0  0  0
  1  2  2  0
  2  3  1  0
  3  4  1  0
  4  5  1  0
  5  6  2  0
  5  7  1  0
  7  8  1  0
  8  9  1  0
  9 10  1  0
 10 11  1  0
 11 12  1  0
 12 13  2  0
 13 14  1  0
 14 15  2  0
 15 16  1  0
 16 17  2  0
 17 18  1  0
  2 19  1  0
 19 20  2  0
 20 21  1  0
 21 22  2  0
 22 23  1  0
 23 24  2  0
 24 25  1  0
 25 26  2  0
 26 27  1  0
 27 28  2  0
 11  7  1  0
 17 12  1  0
 28 19  1  0
 27 22  1  0
  3 29  1  0
  4 30  1  0
  4 31  1  0
  8 32  1  0
  8 33  1  0
  9 34  1  0
  9 35  1  0
 10 36  1  0
 10 37  1  0
 11 38  1  1
 13 39  1  0
 14 40  1  0
 15 41  1  0
 16 42  1  0
 20 43  1  0
 21 44  1  0
 23 45  1  0
 24 46  1  0
 25 47  1  0
 26 48  1  0
M  END
>  <smiles>  (8) 
O=C(NCC(=O)N1CCCC1c1ccccc1Cl)c1ccc2ccccc2n1

>  <score_type>  (8) 
oracle

>  <origin>  (8) 
autodockgpu

>  <m_score__min__energy>  (8) 
-8.7799999999999994

>  <m_primary>  (8) 
energy

>  <rmsd>  (8) 
8.013739472037251

>  <m_score__min__rmsd>  (8) 
8.013739472037251

>  <meeko>  (8) 
{"free_energy": -8.75, "intermolecular_energy": -10.24, "internal_energy": -1.21, "cluster_size": 3, "cluster_id": 2, "rank_in_cluster": 1}

>  <energy>  (8) 
-8.68

>  <cluster_rmsd>  (8) 
0.22

>  <cluster>  (8) 
1

$$$$

     RDKit          3D

 48 51  0  0  0  0  0  0  0  0999 V2000
  140.7610   77.0750  218.3320 O   0  0  0  0  0  0  0  0  0  0  0  0
  141.7960   76.9550  219.0460 C   0  0  0  0  0  0  0  0  0  0  0  0
  142.1810   78.1680  219.7460 N   0  0  0  0  0  0  0  0  0  0  0  0
  141.3510   79.3070  219.5350 C   0  0  0  0  0  0  0  0  0  0  0  0
  140.7300   79.9530  220.6770 C   0  0  0  0  0  0  0  0  0  0  0  0
  139.5880   80.5010  220.4160 O   0  0  0  0  0  0  0  0  0  0  0  0
  141.1610   80.0830  222.0130 N   0  0  0  0  0  0  0  0  0  0  0  0
  142.0880   81.0020  222.6470 C   0  0  0  0  0  0  0  0  0  0  0  0
  142.9130   80.0240  223.4660 C   0  0  0  0  0  0  0  0  0  0  0  0
  141.8280   79.1010  224.0480 C   0  0  0  0  0  0  0  0  0  0  0  0
  140.7230   79.2030  223.0790 C   0  0  2  0  0  0  0  0  0  0  0  0
  140.2340   77.8790  222.6150 C   0  0  0  0  0  0  0  0  0  0  0  0
  141.0590   76.8020  222.3720 C   0  0  0  0  0  0  0  0  0  0  0  0
  140.5950   75.5670  221.9680 C   0  0  0  0  0  0  0  0  0  0  0  0
  139.2340   75.3710  221.7910 C   0  0  0  0  0  0  0  0  0  0  0  0
  138.3770   76.4290  222.0240 C   0  0  0  0  0  0  0  0  0  0  0  0
  138.8700   77.6530  222.4270 C   0  0  0  0  0  0  0  0  0  0  0  0
  137.7860   79.0130  222.7290 Cl  0  0  0  0  0  0  0  0  0  0  0  0
  142.5590   75.7430  219.1830 C   0  0  0  0  0  0  0  0  0  0  0  0
  142.1500   74.6180  218.5390 C   0  0  0  0  0  0  0  0  0  0  0  0
  142.8420   73.4220  218.6340 C   0  0  0  0  0  0  0  0  0  0  0  0
  143.9850   73.3950  219.4140 C   0  0  0  0  0  0  0  0  0  0  0  0
  144.7370   72.2430  219.5640 C   0  0  0  0  0  0  0  0  0  0  0  0
  145.8640   72.2590  220.3460 C   0  0  0  0  0  0  0  0  0  0  0  0
  146.2840   73.4000  221.0030 C   0  0  0  0  0  0  0  0  0  0  0  0
  145.5270   74.5370  220.8450 C   0  0  0  0  0  0  0  0  0  0  0  0
  144.3870   74.5440  220.0600 C   0  0  0  0  0  0  0  0  0  0  0  0
  143.6780   75.6890  219.9390 N   0  0  0  0  0  0  0  0  0  0  0  0
  143.0370   78.1450  220.3620 H   0  0  0  0  0  0  0  0  0  0  0  0
  141.9689   80.0662  219.0333 H   0  0  0  0  0  0  0  0  0  0  0  0
  140.4989   78.9074  218.9656 H   0  0  0  0  0  0  0  0  0  0  0  0
  142.7033   81.5356  221.9076 H   0  0  0  0  0  0  0  0  0  0  0  0
  141.6159   81.8084  223.2273 H   0  0  0  0  0  0  0  0  0  0  0  0
  143.6158   79.4643  222.8314 H   0  0  0  0  0  0  0  0  0  0  0  0
  143.5429   80.5047  224.2289 H   0  0  0  0  0  0  0  0  0  0  0  0
  142.1918   78.0654  224.1199 H   0  0  0  0  0  0  0  0  0  0  0  0
  141.5280   79.3870  225.0669 H   0  0  0  0  0  0  0  0  0  0  0  0
  139.8336   79.6379  223.5584 H   0  0  0  0  0  0  0  0  0  0  0  0
  142.1427   76.9338  222.5070 H   0  0  0  0  0  0  0  0  0  0  0  0
  141.3008   74.7428  221.7874 H   0  0  0  0  0  0  0  0  0  0  0  0
  138.8446   74.3931  221.4716 H   0  0  0  0  0  0  0  0  0  0  0  0
  137.2938   76.2947  221.8873 H   0  0  0  0  0  0  0  0  0  0  0  0
  141.2399   74.6588  217.9224 H   0  0  0  0  0  0  0  0  0  0  0  0
  142.4941   72.5218  218.1061 H   0  0  0  0  0  0  0  0  0  0  0  0
  144.4315   71.3159  219.0569 H   0  0  0  0  0  0  0  0  0  0  0  0
  146.4515   71.3352  220.4534 H   0  0  0  0  0  0  0  0  0  0  0  0
  147.1890   73.3987  221.6283 H   0  0  0  0  0  0  0  0  0  0  0  0
  145.8345   75.4623  221.3542 H   0  0  0  0  0  0  0  0  0  0  0  0
  1  2  2  0
  2  3  1  0
  3  4  1  0
  4  5  1  0
  5  6  2  0
  5  7  1  0
  7  8  1  0
  8  9  1  0
  9 10  1  0
 10 11  1  0
 11 12  1  0
 12 13  2  0
 13 14  1  0
 14 15  2  0
 15 16  1  0
 16 17  2  0
 17 18  1  0
  2 19  1  0
 19 20  2  0
 20 21  1  0
 21 22  2  0
 22 23  1  0
 23 24  2  0
 24 25  1  0
 25 26  2  0
 26 27  1  0
 27 28  2  0
 11  7  1  0
 17 12  1  0
 28 19  1  0
 27 22  1  0
  3 29  1  0
  4 30  1  0
  4 31  1  0
  8 32  1  0
  8 33  1  0
  9 34  1  0
  9 35  1  0
 10 36  1  0
 10 37  1  0
 11 38  1  1
 13 39  1  0
 14 40  1  0
 15 41  1  0
 16 42  1  0
 20 43  1  0
 21 44  1  0
 23 45  1  0
 24 46  1  0
 25 47  1  0
 26 48  1  0
M  END
>  <smiles>  (9) 
O=C(NCC(=O)N1CCCC1c1ccccc1Cl)c1ccc2ccccc2n1

>  <score_type>  (9) 
oracle

>  <origin>  (9) 
autodockgpu

>  <m_score__min__energy>  (9) 
-8.7799999999999994

>  <m_primary>  (9) 
energy

>  <rmsd>  (9) 
7.526257902428747

>  <m_score__min__rmsd>  (9) 
7.526257902428747

>  <meeko>  (9) 
{"free_energy": -7.21, "intermolecular_energy": -8.71, "internal_energy": -2.63, "cluster_size": 14, "cluster_id": 8, "rank_in_cluster": 4}

>  <energy>  (9) 
-8.64

>  <cluster_rmsd>  (9) 
0.37

>  <cluster>  (9) 
1

$$$$

     RDKit          3D

 48 51  0  0  0  0  0  0  0  0999 V2000
  140.5340   76.8850  218.6460 O   0  0  0  0  0  0  0  0  0  0  0  0
  141.7160   76.8540  219.0890 C   0  0  0  0  0  0  0  0  0  0  0  0
  142.2330   78.1500  219.4960 N   0  0  0  0  0  0  0  0  0  0  0  0
  141.3490   79.2570  219.3410 C   0  0  0  0  0  0  0  0  0  0  0  0
  140.6960   79.8110  220.5130 C   0  0  0  0  0  0  0  0  0  0  0  0
  139.4810   80.2020  220.3030 O   0  0  0  0  0  0  0  0  0  0  0  0
  141.1620   79.9940  221.8310 N   0  0  0  0  0  0  0  0  0  0  0  0
  142.1050   80.9350  222.4030 C   0  0  0  0  0  0  0  0  0  0  0  0
  142.9490   79.9900  223.2410 C   0  0  0  0  0  0  0  0  0  0  0  0
  141.8780   79.0940  223.8870 C   0  0  0  0  0  0  0  0  0  0  0  0
  140.7490   79.1590  222.9430 C   0  0  2  0  0  0  0  0  0  0  0  0
  140.2460   77.8190  222.5450 C   0  0  0  0  0  0  0  0  0  0  0  0
  141.0650   76.7380  222.2970 C   0  0  0  0  0  0  0  0  0  0  0  0
  140.5900   75.4880  221.9560 C   0  0  0  0  0  0  0  0  0  0  0  0
  139.2230   75.2810  221.8520 C   0  0  0  0  0  0  0  0  0  0  0  0
  138.3720   76.3420  222.0920 C   0  0  0  0  0  0  0  0  0  0  0  0
  138.8760   77.5810  222.4320 C   0  0  0  0  0  0  0  0  0  0  0  0
  137.8000   78.9450  222.7420 Cl  0  0  0  0  0  0  0  0  0  0  0  0
  142.5180   75.6650  219.2010 C   0  0  0  0  0  0  0  0  0  0  0  0
  142.1490   74.5430  218.5260 C   0  0  0  0  0  0  0  0  0  0  0  0
  142.8810   73.3690  218.5950 C   0  0  0  0  0  0  0  0  0  0  0  0
  144.0210   73.3600  219.3800 C   0  0  0  0  0  0  0  0  0  0  0  0
  144.8090   72.2300  219.5040 C   0  0  0  0  0  0  0  0  0  0  0  0
  145.9320   72.2640  220.2930 C   0  0  0  0  0  0  0  0  0  0  0  0
  146.3110   73.4010  220.9810 C   0  0  0  0  0  0  0  0  0  0  0  0
  145.5170   74.5160  220.8470 C   0  0  0  0  0  0  0  0  0  0  0  0
  144.3810   74.5060  220.0570 C   0  0  0  0  0  0  0  0  0  0  0  0
  143.6350   75.6290  219.9610 N   0  0  0  0  0  0  0  0  0  0  0  0
  143.2150   78.2030  219.8770 H   0  0  0  0  0  0  0  0  0  0  0  0
  141.9300   80.0705  218.8821 H   0  0  0  0  0  0  0  0  0  0  0  0
  140.5182   78.8474  218.7476 H   0  0  0  0  0  0  0  0  0  0  0  0
  142.7024   81.4362  221.6272 H   0  0  0  0  0  0  0  0  0  0  0  0
  141.6484   81.7656  222.9613 H   0  0  0  0  0  0  0  0  0  0  0  0
  143.6354   79.4033  222.6129 H   0  0  0  0  0  0  0  0  0  0  0  0
  143.5981   80.5005  223.9677 H   0  0  0  0  0  0  0  0  0  0  0  0
  142.2422   78.0613  223.9917 H   0  0  0  0  0  0  0  0  0  0  0  0
  141.6042   79.4219  224.9007 H   0  0  0  0  0  0  0  0  0  0  0  0
  139.8726   79.6147  223.4271 H   0  0  0  0  0  0  0  0  0  0  0  0
  142.1531   76.8792  222.3750 H   0  0  0  0  0  0  0  0  0  0  0  0
  141.2911   74.6615  221.7680 H   0  0  0  0  0  0  0  0  0  0  0  0
  138.8242   74.2915  221.5837 H   0  0  0  0  0  0  0  0  0  0  0  0
  137.2844   76.1984  222.0115 H   0  0  0  0  0  0  0  0  0  0  0  0
  141.2408   74.5688  217.9059 H   0  0  0  0  0  0  0  0  0  0  0  0
  142.5659   72.4713  218.0428 H   0  0  0  0  0  0  0  0  0  0  0  0
  144.5366   71.3066  218.9719 H   0  0  0  0  0  0  0  0  0  0  0  0
  146.5495   71.3578  220.3803 H   0  0  0  0  0  0  0  0  0  0  0  0
  147.2125   73.4138  221.6112 H   0  0  0  0  0  0  0  0  0  0  0  0
  145.7916   75.4378  221.3806 H   0  0  0  0  0  0  0  0  0  0  0  0
  1  2  2  0
  2  3  1  0
  3  4  1  0
  4  5  1  0
  5  6  2  0
  5  7  1  0
  7  8  1  0
  8  9  1  0
  9 10  1  0
 10 11  1  0
 11 12  1  0
 12 13  2  0
 13 14  1  0
 14 15  2  0
 15 16  1  0
 16 17  2  0
 17 18  1  0
  2 19  1  0
 19 20  2  0
 20 21  1  0
 21 22  2  0
 22 23  1  0
 23 24  2  0
 24 25  1  0
 25 26  2  0
 26 27  1  0
 27 28  2  0
 11  7  1  0
 17 12  1  0
 28 19  1  0
 27 22  1  0
  3 29  1  0
  4 30  1  0
  4 31  1  0
  8 32  1  0
  8 33  1  0
  9 34  1  0
  9 35  1  0
 10 36  1  0
 10 37  1  0
 11 38  1  1
 13 39  1  0
 14 40  1  0
 15 41  1  0
 16 42  1  0
 20 43  1  0
 21 44  1  0
 23 45  1  0
 24 46  1  0
 25 47  1  0
 26 48  1  0
M  END
>  <smiles>  (10) 
O=C(NCC(=O)N1CCCC1c1ccccc1Cl)c1ccc2ccccc2n1

>  <score_type>  (10) 
oracle

>  <origin>  (10) 
autodockgpu

>  <m_score__min__energy>  (10) 
-8.7799999999999994

>  <m_primary>  (10) 
energy

>  <rmsd>  (10) 
7.481439330921694

>  <m_score__min__rmsd>  (10) 
7.481439330921694

>  <meeko>  (10) 
{"free_energy": -7.22, "intermolecular_energy": -8.71, "internal_energy": -2.64, "cluster_size": 14, "cluster_id": 8, "rank_in_cluster": 3}

>  <energy>  (10) 
-8.63

>  <cluster_rmsd>  (10) 
0.25

>  <cluster>  (10) 
1

$$$$

     RDKit          3D

 48 51  0  0  0  0  0  0  0  0999 V2000
  139.1230   71.1550  221.3220 O   0  0  0  0  0  0  0  0  0  0  0  0
  139.3740   71.7830  222.3880 C   0  0  0  0  0  0  0  0  0  0  0  0
  139.3320   73.2290  222.2520 N   0  0  0  0  0  0  0  0  0  0  0  0
  139.0180   73.7290  220.9550 C   0  0  0  0  0  0  0  0  0  0  0  0
  139.9480   73.5040  219.8650 C   0  0  0  0  0  0  0  0  0  0  0  0
  139.4130   73.5840  218.6900 O   0  0  0  0  0  0  0  0  0  0  0  0
  141.3280   73.2120  219.8720 N   0  0  0  0  0  0  0  0  0  0  0  0
  142.0530   71.9560  219.8300 C   0  0  0  0  0  0  0  0  0  0  0  0
  143.0560   72.1910  220.9460 C   0  0  0  0  0  0  0  0  0  0  0  0
  143.5010   73.6390  220.6750 C   0  0  0  0  0  0  0  0  0  0  0  0
  142.3550   74.2310  219.9630 C   0  0  2  0  0  0  0  0  0  0  0  0
  141.8950   75.5090  220.5650 C   0  0  0  0  0  0  0  0  0  0  0  0
  141.2640   75.5950  221.7870 C   0  0  0  0  0  0  0  0  0  0  0  0
  140.8650   76.7880  222.3530 C   0  0  0  0  0  0  0  0  0  0  0  0
  141.0990   77.9770  221.6800 C   0  0  0  0  0  0  0  0  0  0  0  0
  141.7280   77.9290  220.4510 C   0  0  0  0  0  0  0  0  0  0  0  0
  142.1160   76.7210  219.9100 C   0  0  0  0  0  0  0  0  0  0  0  0
  142.9220   76.6460  218.3410 Cl  0  0  0  0  0  0  0  0  0  0  0  0
  139.6790   71.1630  223.6500 C   0  0  0  0  0  0  0  0  0  0  0  0
  139.4430   69.8350  223.8180 C   0  0  0  0  0  0  0  0  0  0  0  0
  139.7160   69.1840  225.0100 C   0  0  0  0  0  0  0  0  0  0  0  0
  140.2480   69.9280  226.0490 C   0  0  0  0  0  0  0  0  0  0  0  0
  140.5500   69.3580  227.2720 C   0  0  0  0  0  0  0  0  0  0  0  0
  141.0770   70.1320  228.2760 C   0  0  0  0  0  0  0  0  0  0  0  0
  141.3180   71.4820  228.1100 C   0  0  0  0  0  0  0  0  0  0  0  0
  141.0130   72.0350  226.8880 C   0  0  0  0  0  0  0  0  0  0  0  0
  140.4810   71.2740  225.8620 C   0  0  0  0  0  0  0  0  0  0  0  0
  140.1980   71.8670  224.6810 N   0  0  0  0  0  0  0  0  0  0  0  0
  139.5310   73.8210  223.1010 H   0  0  0  0  0  0  0  0  0  0  0  0
  138.0605   73.2756  220.6591 H   0  0  0  0  0  0  0  0  0  0  0  0
  139.0286   74.8211  221.0863 H   0  0  0  0  0  0  0  0  0  0  0  0
  141.3974   71.0992  220.0445 H   0  0  0  0  0  0  0  0  0  0  0  0
  142.4963   71.7101  218.8538 H   0  0  0  0  0  0  0  0  0  0  0  0
  142.5835   72.0963  221.9348 H   0  0  0  0  0  0  0  0  0  0  0  0
  143.8841   71.4670  220.9584 H   0  0  0  0  0  0  0  0  0  0  0  0
  143.6949   74.1723  221.6173 H   0  0  0  0  0  0  0  0  0  0  0  0
  144.4359   73.6960  220.0982 H   0  0  0  0  0  0  0  0  0  0  0  0
  142.6506   74.5319  218.9471 H   0  0  0  0  0  0  0  0  0  0  0  0
  141.0684   74.6643  222.3397 H   0  0  0  0  0  0  0  0  0  0  0  0
  140.3642   76.7957  223.3324 H   0  0  0  0  0  0  0  0  0  0  0  0
  140.7902   78.9388  222.1155 H   0  0  0  0  0  0  0  0  0  0  0  0
  141.9209   78.8611  219.8997 H   0  0  0  0  0  0  0  0  0  0  0  0
  139.0218   69.2589  222.9809 H   0  0  0  0  0  0  0  0  0  0  0  0
  139.5161   68.1087  225.1272 H   0  0  0  0  0  0  0  0  0  0  0  0
  140.3683   68.2862  227.4402 H   0  0  0  0  0  0  0  0  0  0  0  0
  141.3146   69.6628  229.2421 H   0  0  0  0  0  0  0  0  0  0  0  0
  141.7377   72.0915  228.9239 H   0  0  0  0  0  0  0  0  0  0  0  0
  141.1962   73.1069  226.7226 H   0  0  0  0  0  0  0  0  0  0  0  0
  1  2  2  0
  2  3  1  0
  3  4  1  0
  4  5  1  0
  5  6  2  0
  5  7  1  0
  7  8  1  0
  8  9  1  0
  9 10  1  0
 10 11  1  0
 11 12  1  0
 12 13  2  0
 13 14  1  0
 14 15  2  0
 15 16  1  0
 16 17  2  0
 17 18  1  0
  2 19  1  0
 19 20  2  0
 20 21  1  0
 21 22  2  0
 22 23  1  0
 23 24  2  0
 24 25  1  0
 25 26  2  0
 26 27  1  0
 27 28  2  0
 11  7  1  0
 17 12  1  0
 28 19  1  0
 27 22  1  0
  3 29  1  0
  4 30  1  0
  4 31  1  0
  8 32  1  0
  8 33  1  0
  9 34  1  0
  9 35  1  0
 10 36  1  0
 10 37  1  0
 11 38  1  6
 13 39  1  0
 14 40  1  0
 15 41  1  0
 16 42  1  0
 20 43  1  0
 21 44  1  0
 23 45  1  0
 24 46  1  0
 25 47  1  0
 26 48  1  0
M  END
>  <smiles>  (11) 
O=C(NCC(=O)N1CCCC1c1ccccc1Cl)c1ccc2ccccc2n1

>  <score_type>  (11) 
oracle

>  <origin>  (11) 
autodockgpu

>  <m_score__min__energy>  (11) 
-8.7799999999999994

>  <m_primary>  (11) 
energy

>  <rmsd>  (11) 
2.8757104924823564

>  <m_score__min__rmsd>  (11) 
2.8757104924823564

>  <meeko>  (11) 
{"free_energy": -7.57, "intermolecular_energy": -9.06, "internal_energy": -1.96, "cluster_size": 9, "cluster_id": 3, "rank_in_cluster": 7}

>  <energy>  (11) 
-8.61

>  <cluster_rmsd>  (11) 
0.33

>  <cluster>  (11) 
1

$$$$

     RDKit          3D

 48 51  0  0  0  0  0  0  0  0999 V2000
  140.7870   72.2090  221.1970 O   0  0  0  0  0  0  0  0  0  0  0  0
  140.2140   72.5440  222.2710 C   0  0  0  0  0  0  0  0  0  0  0  0
  139.5980   73.8600  222.2330 N   0  0  0  0  0  0  0  0  0  0  0  0
  139.7240   74.5780  221.0080 C   0  0  0  0  0  0  0  0  0  0  0  0
  140.9170   75.3700  220.7700 C   0  0  0  0  0  0  0  0  0  0  0  0
  141.8320   75.2280  221.6730 O   0  0  0  0  0  0  0  0  0  0  0  0
  141.2410   76.2630  219.7280 N   0  0  0  0  0  0  0  0  0  0  0  0
  141.8120   76.0490  218.4120 C   0  0  0  0  0  0  0  0  0  0  0  0
  142.8740   77.1360  218.4030 C   0  0  0  0  0  0  0  0  0  0  0  0
  142.1140   78.3290  219.0070 C   0  0  0  0  0  0  0  0  0  0  0  0
  141.0650   77.6980  219.8280 C   0  0  2  0  0  0  0  0  0  0  0  0
  141.0300   78.2130  221.2210 C   0  0  0  0  0  0  0  0  0  0  0  0
  142.1440   78.6600  221.8990 C   0  0  0  0  0  0  0  0  0  0  0  0
  142.1000   79.1630  223.1830 C   0  0  0  0  0  0  0  0  0  0  0  0
  140.8860   79.2350  223.8490 C   0  0  0  0  0  0  0  0  0  0  0  0
  139.7490   78.7960  223.2000 C   0  0  0  0  0  0  0  0  0  0  0  0
  139.8230   78.2970  221.9160 C   0  0  0  0  0  0  0  0  0  0  0  0
  138.3770   77.7330  221.0760 Cl  0  0  0  0  0  0  0  0  0  0  0  0
  140.1510   71.7280  223.4550 C   0  0  0  0  0  0  0  0  0  0  0  0
  139.5780   70.4970  223.3890 C   0  0  0  0  0  0  0  0  0  0  0  0
  139.4880   69.6670  224.4940 C   0  0  0  0  0  0  0  0  0  0  0  0
  140.0050   70.1250  225.6930 C   0  0  0  0  0  0  0  0  0  0  0  0
  139.9580   69.3620  226.8450 C   0  0  0  0  0  0  0  0  0  0  0  0
  140.4820   69.8540  228.0150 C   0  0  0  0  0  0  0  0  0  0  0  0
  141.0650   71.1040  228.0870 C   0  0  0  0  0  0  0  0  0  0  0  0
  141.1060   71.8520  226.9330 C   0  0  0  0  0  0  0  0  0  0  0  0
  140.5830   71.3760  225.7430 C   0  0  0  0  0  0  0  0  0  0  0  0
  140.6480   72.1530  224.6380 N   0  0  0  0  0  0  0  0  0  0  0  0
  139.1010   74.2090  223.0940 H   0  0  0  0  0  0  0  0  0  0  0  0
  139.6611   73.8397  220.1950 H   0  0  0  0  0  0  0  0  0  0  0  0
  138.9196   75.3265  221.0600 H   0  0  0  0  0  0  0  0  0  0  0  0
  142.2539   75.0462  218.3173 H   0  0  0  0  0  0  0  0  0  0  0  0
  141.0921   76.0988  217.5818 H   0  0  0  0  0  0  0  0  0  0  0  0
  143.7377   76.8563  219.0241 H   0  0  0  0  0  0  0  0  0  0  0  0
  143.2956   77.3365  217.4070 H   0  0  0  0  0  0  0  0  0  0  0  0
  142.7810   78.9445  219.6286 H   0  0  0  0  0  0  0  0  0  0  0  0
  141.7059   79.0052  218.2414 H   0  0  0  0  0  0  0  0  0  0  0  0
  140.0687   77.9631  219.4444 H   0  0  0  0  0  0  0  0  0  0  0  0
  143.1181   78.6132  221.3901 H   0  0  0  0  0  0  0  0  0  0  0  0
  143.0224   79.5048  223.6753 H   0  0  0  0  0  0  0  0  0  0  0  0
  140.8298   79.6334  224.8728 H   0  0  0  0  0  0  0  0  0  0  0  0
  138.7761   78.8446  223.7111 H   0  0  0  0  0  0  0  0  0  0  0  0
  139.1729   70.1491  222.4273 H   0  0  0  0  0  0  0  0  0  0  0  0
  139.0199   68.6742  224.4208 H   0  0  0  0  0  0  0  0  0  0  0  0
  139.5012   68.3616  226.8243 H   0  0  0  0  0  0  0  0  0  0  0  0
  140.4360   69.2338  228.9223 H   0  0  0  0  0  0  0  0  0  0  0  0
  141.4806   71.4868  229.0308 H   0  0  0  0  0  0  0  0  0  0  0  0
  141.5650   72.8514  226.9565 H   0  0  0  0  0  0  0  0  0  0  0  0
  1  2  2  0
  2  3  1  0
  3  4  1  0
  4  5  1  0
  5  6  2  0
  5  7  1  0
  7  8  1  0
  8  9  1  0
  9 10  1  0
 10 11  1  0
 11 12  1  0
 12 13  2  0
 13 14  1  0
 14 15  2  0
 15 16  1  0
 16 17  2  0
 17 18  1  0
  2 19  1  0
 19 20  2  0
 20 21  1  0
 21 22  2  0
 22 23  1  0
 23 24  2  0
 24 25  1  0
 25 26  2  0
 26 27  1  0
 27 28  2  0
 11  7  1  0
 17 12  1  0
 28 19  1  0
 27 22  1  0
  3 29  1  0
  4 30  1  0
  4 31  1  0
  8 32  1  0
  8 33  1  0
  9 34  1  0
  9 35  1  0
 10 36  1  0
 10 37  1  0
 11 38  1  6
 13 39  1  0
 14 40  1  0
 15 41  1  0
 16 42  1  0
 20 43  1  0
 21 44  1  0
 23 45  1  0
 24 46  1  0
 25 47  1  0
 26 48  1  0
M  END
>  <smiles>  (12) 
O=C(NCC(=O)N1CCCC1c1ccccc1Cl)c1ccc2ccccc2n1

>  <score_type>  (12) 
oracle

>  <origin>  (12) 
autodockgpu

>  <m_score__min__energy>  (12) 
-8.7799999999999994

>  <m_primary>  (12) 
energy

>  <rmsd>  (12) 
1.8832449948728067

>  <m_score__min__rmsd>  (12) 
1.8832449948728067

>  <meeko>  (12) 
{"free_energy": -8.28, "intermolecular_energy": -9.77, "internal_energy": -1.6, "cluster_size": 16, "cluster_id": 1, "rank_in_cluster": 15}

>  <energy>  (12) 
-8.6

>  <cluster_rmsd>  (12) 
0.25

>  <cluster>  (12) 
1

$$$$

     RDKit          3D

 48 51  0  0  0  0  0  0  0  0999 V2000
  133.8860   70.1750  226.3830 O   0  0  0  0  0  0  0  0  0  0  0  0
  134.1010   71.3640  226.0150 C   0  0  0  0  0  0  0  0  0  0  0  0
  135.1450   71.4980  225.0130 N   0  0  0  0  0  0  0  0  0  0  0  0
  135.7710   70.2890  224.5910 C   0  0  0  0  0  0  0  0  0  0  0  0
  136.7210   70.3290  223.4950 C   0  0  0  0  0  0  0  0  0  0  0  0
  136.9850   71.5220  223.0690 O   0  0  0  0  0  0  0  0  0  0  0  0
  137.3980   69.2920  222.8200 N   0  0  0  0  0  0  0  0  0  0  0  0
  136.9950   68.4170  221.7360 C   0  0  0  0  0  0  0  0  0  0  0  0
  137.4540   67.0790  222.2900 C   0  0  0  0  0  0  0  0  0  0  0  0
  138.8390   67.4290  222.8620 C   0  0  0  0  0  0  0  0  0  0  0  0
  138.7430   68.8690  223.1590 C   0  0  2  0  0  0  0  0  0  0  0  0
  139.1560   69.2040  224.5460 C   0  0  0  0  0  0  0  0  0  0  0  0
  138.9640   68.3670  225.6240 C   0  0  0  0  0  0  0  0  0  0  0  0
  139.3760   68.6720  226.9050 C   0  0  0  0  0  0  0  0  0  0  0  0
  140.0200   69.8760  227.1480 C   0  0  0  0  0  0  0  0  0  0  0  0
  140.2290   70.7400  226.0910 C   0  0  0  0  0  0  0  0  0  0  0  0
  139.8050   70.4080  224.8210 C   0  0  0  0  0  0  0  0  0  0  0  0
  140.0670   71.5030  223.4620 Cl  0  0  0  0  0  0  0  0  0  0  0  0
  133.3990   72.5150  226.5170 C   0  0  0  0  0  0  0  0  0  0  0  0
  132.2210   72.3470  227.1730 C   0  0  0  0  0  0  0  0  0  0  0  0
  131.5000   73.4170  227.6780 C   0  0  0  0  0  0  0  0  0  0  0  0
  132.0150   74.6890  227.4970 C   0  0  0  0  0  0  0  0  0  0  0  0
  131.3610   75.8130  227.9690 C   0  0  0  0  0  0  0  0  0  0  0  0
  131.9070   77.0560  227.7690 C   0  0  0  0  0  0  0  0  0  0  0  0
  133.1040   77.2320  227.1020 C   0  0  0  0  0  0  0  0  0  0  0  0
  133.7430   76.1060  226.6400 C   0  0  0  0  0  0  0  0  0  0  0  0
  133.2120   74.8420  226.8300 C   0  0  0  0  0  0  0  0  0  0  0  0
  133.8800   73.7680  226.3530 N   0  0  0  0  0  0  0  0  0  0  0  0
  135.3810   72.4620  224.6580 H   0  0  0  0  0  0  0  0  0  0  0  0
  136.3033   69.8813  225.4630 H   0  0  0  0  0  0  0  0  0  0  0  0
  134.9392   69.6883  224.1945 H   0  0  0  0  0  0  0  0  0  0  0  0
  135.9070   68.4406  221.5757 H   0  0  0  0  0  0  0  0  0  0  0  0
  137.4115   68.6777  220.7518 H   0  0  0  0  0  0  0  0  0  0  0  0
  136.7757   66.7183  223.0773 H   0  0  0  0  0  0  0  0  0  0  0  0
  137.4733   66.2721  221.5426 H   0  0  0  0  0  0  0  0  0  0  0  0
  139.0422   66.8529  223.7768 H   0  0  0  0  0  0  0  0  0  0  0  0
  139.6584   67.1916  222.1676 H   0  0  0  0  0  0  0  0  0  0  0  0
  139.4609   69.4343  222.5466 H   0  0  0  0  0  0  0  0  0  0  0  0
  138.4561   67.4062  225.4543 H   0  0  0  0  0  0  0  0  0  0  0  0
  139.1949   67.9650  227.7280 H   0  0  0  0  0  0  0  0  0  0  0  0
  140.3574   70.1374  228.1618 H   0  0  0  0  0  0  0  0  0  0  0  0
  140.7374   71.7001  226.2632 H   0  0  0  0  0  0  0  0  0  0  0  0
  131.8271   71.3288  227.3075 H   0  0  0  0  0  0  0  0  0  0  0  0
  130.5480   73.2605  228.2063 H   0  0  0  0  0  0  0  0  0  0  0  0
  130.4051   75.7106  228.5036 H   0  0  0  0  0  0  0  0  0  0  0  0
  131.3751   77.9396  228.1516 H   0  0  0  0  0  0  0  0  0  0  0  0
  133.5293   78.2345  226.9466 H   0  0  0  0  0  0  0  0  0  0  0  0
  134.6991   76.2120  226.1066 H   0  0  0  0  0  0  0  0  0  0  0  0
  1  2  2  0
  2  3  1  0
  3  4  1  0
  4  5  1  0
  5  6  2  0
  5  7  1  0
  7  8  1  0
  8  9  1  0
  9 10  1  0
 10 11  1  0
 11 12  1  0
 12 13  2  0
 13 14  1  0
 14 15  2  0
 15 16  1  0
 16 17  2  0
 17 18  1  0
  2 19  1  0
 19 20  2  0
 20 21  1  0
 21 22  2  0
 22 23  1  0
 23 24  2  0
 24 25  1  0
 25 26  2  0
 26 27  1  0
 27 28  2  0
 11  7  1  0
 17 12  1  0
 28 19  1  0
 27 22  1  0
  3 29  1  0
  4 30  1  0
  4 31  1  0
  8 32  1  0
  8 33  1  0
  9 34  1  0
  9 35  1  0
 10 36  1  0
 10 37  1  0
 11 38  1  6
 13 39  1  0
 14 40  1  0
 15 41  1  0
 16 42  1  0
 20 43  1  0
 21 44  1  0
 23 45  1  0
 24 46  1  0
 25 47  1  0
 26 48  1  0
M  END
>  <smiles>  (13) 
O=C(NCC(=O)N1CCCC1c1ccccc1Cl)c1ccc2ccccc2n1

>  <score_type>  (13) 
oracle

>  <origin>  (13) 
autodockgpu

>  <m_score__min__energy>  (13) 
-8.7799999999999994

>  <m_primary>  (13) 
energy

>  <rmsd>  (13) 
8.73806368048577

>  <m_score__min__rmsd>  (13) 
8.73806368048577

>  <meeko>  (13) 
{"free_energy": -7.38, "intermolecular_energy": -8.87, "internal_energy": -1.96, "cluster_size": 3, "cluster_id": 2, "rank_in_cluster": 3}

>  <energy>  (13) 
-8.57

>  <cluster_rmsd>  (13) 
0.33

>  <cluster>  (13) 
1

$$$$

     RDKit          3D

 48 51  0  0  0  0  0  0  0  0999 V2000
  139.1130   70.9380  221.3920 O   0  0  0  0  0  0  0  0  0  0  0  0
  139.2400   71.6320  222.4390 C   0  0  0  0  0  0  0  0  0  0  0  0
  138.9880   73.0500  222.2490 N   0  0  0  0  0  0  0  0  0  0  0  0
  138.6380   73.4550  220.9280 C   0  0  0  0  0  0  0  0  0  0  0  0
  139.6910   73.7630  219.9790 C   0  0  0  0  0  0  0  0  0  0  0  0
  139.3070   74.4950  218.9840 O   0  0  0  0  0  0  0  0  0  0  0  0
  141.0540   73.4000  219.9590 N   0  0  0  0  0  0  0  0  0  0  0  0
  141.7110   72.1110  219.8480 C   0  0  0  0  0  0  0  0  0  0  0  0
  142.7320   72.2370  220.9660 C   0  0  0  0  0  0  0  0  0  0  0  0
  143.2510   73.6710  220.7630 C   0  0  0  0  0  0  0  0  0  0  0  0
  142.1340   74.3580  220.0910 C   0  0  2  0  0  0  0  0  0  0  0  0
  141.7460   75.6260  220.7600 C   0  0  0  0  0  0  0  0  0  0  0  0
  141.0720   75.6820  221.9610 C   0  0  0  0  0  0  0  0  0  0  0  0
  140.7400   76.8640  222.5910 C   0  0  0  0  0  0  0  0  0  0  0  0
  141.0910   78.0720  222.0080 C   0  0  0  0  0  0  0  0  0  0  0  0
  141.7660   78.0540  220.8030 C   0  0  0  0  0  0  0  0  0  0  0  0
  142.0850   76.8570  220.1970 C   0  0  0  0  0  0  0  0  0  0  0  0
  142.9470   76.8210  218.6580 Cl  0  0  0  0  0  0  0  0  0  0  0  0
  139.6010   71.1070  223.7290 C   0  0  0  0  0  0  0  0  0  0  0  0
  139.3820   69.7940  224.0030 C   0  0  0  0  0  0  0  0  0  0  0  0
  139.7080   69.2320  225.2260 C   0  0  0  0  0  0  0  0  0  0  0  0
  140.2760   70.0520  226.1860 C   0  0  0  0  0  0  0  0  0  0  0  0
  140.6320   69.5740  227.4340 C   0  0  0  0  0  0  0  0  0  0  0  0
  141.1920   70.4210  228.3570 C   0  0  0  0  0  0  0  0  0  0  0  0
  141.4160   71.7570  228.0840 C   0  0  0  0  0  0  0  0  0  0  0  0
  141.0570   72.2180  226.8390 C   0  0  0  0  0  0  0  0  0  0  0  0
  140.4910   71.3820  225.8920 C   0  0  0  0  0  0  0  0  0  0  0  0
  140.1560   71.8870  224.6840 N   0  0  0  0  0  0  0  0  0  0  0  0
  139.0760   73.6930  223.0800 H   0  0  0  0  0  0  0  0  0  0  0  0
  138.0393   72.6423  220.4909 H   0  0  0  0  0  0  0  0  0  0  0  0
  138.1299   74.4193  221.0764 H   0  0  0  0  0  0  0  0  0  0  0  0
  141.0122   71.2802  220.0253 H   0  0  0  0  0  0  0  0  0  0  0  0
  142.1345   71.8911  218.8569 H   0  0  0  0  0  0  0  0  0  0  0  0
  142.2611   72.1181  221.9530 H   0  0  0  0  0  0  0  0  0  0  0  0
  143.5207   71.4708  220.9356 H   0  0  0  0  0  0  0  0  0  0  0  0
  143.4786   74.1456  221.7289 H   0  0  0  0  0  0  0  0  0  0  0  0
  144.1839   73.7071  220.1813 H   0  0  0  0  0  0  0  0  0  0  0  0
  142.4390   74.6939  219.0889 H   0  0  0  0  0  0  0  0  0  0  0  0
  140.7839   74.7357  222.4421 H   0  0  0  0  0  0  0  0  0  0  0  0
  140.2004   76.8479  223.5494 H   0  0  0  0  0  0  0  0  0  0  0  0
  140.8372   79.0251  222.4950 H   0  0  0  0  0  0  0  0  0  0  0  0
  142.0513   79.0018  220.3230 H   0  0  0  0  0  0  0  0  0  0  0  0
  138.9311   69.1568  223.2280 H   0  0  0  0  0  0  0  0  0  0  0  0
  139.5214   68.1670  225.4284 H   0  0  0  0  0  0  0  0  0  0  0  0
  140.4665   68.5162  227.6864 H   0  0  0  0  0  0  0  0  0  0  0  0
  141.4711   70.0244  229.3443 H   0  0  0  0  0  0  0  0  0  0  0  0
  141.8641   72.4259  228.8335 H   0  0  0  0  0  0  0  0  0  0  0  0
  141.2236   73.2764  226.5898 H   0  0  0  0  0  0  0  0  0  0  0  0
  1  2  2  0
  2  3  1  0
  3  4  1  0
  4  5  1  0
  5  6  2  0
  5  7  1  0
  7  8  1  0
  8  9  1  0
  9 10  1  0
 10 11  1  0
 11 12  1  0
 12 13  2  0
 13 14  1  0
 14 15  2  0
 15 16  1  0
 16 17  2  0
 17 18  1  0
  2 19  1  0
 19 20  2  0
 20 21  1  0
 21 22  2  0
 22 23  1  0
 23 24  2  0
 24 25  1  0
 25 26  2  0
 26 27  1  0
 27 28  2  0
 11  7  1  0
 17 12  1  0
 28 19  1  0
 27 22  1  0
  3 29  1  0
  4 30  1  0
  4 31  1  0
  8 32  1  0
  8 33  1  0
  9 34  1  0
  9 35  1  0
 10 36  1  0
 10 37  1  0
 11 38  1  6
 13 39  1  0
 14 40  1  0
 15 41  1  0
 16 42  1  0
 20 43  1  0
 21 44  1  0
 23 45  1  0
 24 46  1  0
 25 47  1  0
 26 48  1  0
M  END
>  <smiles>  (14) 
O=C(NCC(=O)N1CCCC1c1ccccc1Cl)c1ccc2ccccc2n1

>  <score_type>  (14) 
oracle

>  <origin>  (14) 
autodockgpu

>  <m_score__min__energy>  (14) 
-8.7799999999999994

>  <m_primary>  (14) 
energy

>  <rmsd>  (14) 
2.7702915447995675

>  <m_score__min__rmsd>  (14) 
2.7702915447995675

>  <meeko>  (14) 
{"free_energy": -7.62, "intermolecular_energy": -9.11, "internal_energy": -2.08, "cluster_size": 9, "cluster_id": 3, "rank_in_cluster": 5}

>  <energy>  (14) 
-8.29

>  <cluster_rmsd>  (14) 
0.43

>  <cluster>  (14) 
1

$$$$

     RDKit          3D

 48 51  0  0  0  0  0  0  0  0999 V2000
  140.7280   76.9690  218.3230 O   0  0  0  0  0  0  0  0  0  0  0  0
  141.7900   76.8810  219.0000 C   0  0  0  0  0  0  0  0  0  0  0  0
  142.1820   78.1170  219.6570 N   0  0  0  0  0  0  0  0  0  0  0  0
  141.3260   79.2380  219.4490 C   0  0  0  0  0  0  0  0  0  0  0  0
  140.7130   79.8830  220.5950 C   0  0  0  0  0  0  0  0  0  0  0  0
  139.5610   80.4170  220.3460 O   0  0  0  0  0  0  0  0  0  0  0  0
  141.1590   80.0250  221.9260 N   0  0  0  0  0  0  0  0  0  0  0  0
  142.0910   80.9510  222.5410 C   0  0  0  0  0  0  0  0  0  0  0  0
  142.9280   79.9820  223.3590 C   0  0  0  0  0  0  0  0  0  0  0  0
  141.8520   79.0610  223.9610 C   0  0  0  0  0  0  0  0  0  0  0  0
  140.7350   79.1530  223.0040 C   0  0  2  0  0  0  0  0  0  0  0  0
  140.2450   77.8240  222.5560 C   0  0  0  0  0  0  0  0  0  0  0  0
  141.0700   76.7490  222.3050 C   0  0  0  0  0  0  0  0  0  0  0  0
  140.6050   75.5090  221.9170 C   0  0  0  0  0  0  0  0  0  0  0  0
  139.2410   75.3070  221.7650 C   0  0  0  0  0  0  0  0  0  0  0  0
  138.3840   76.3620  222.0080 C   0  0  0  0  0  0  0  0  0  0  0  0
  138.8780   77.5910  222.3950 C   0  0  0  0  0  0  0  0  0  0  0  0
  137.7940   78.9470  222.7080 Cl  0  0  0  0  0  0  0  0  0  0  0  0
  142.5770   75.6840  219.1390 C   0  0  0  0  0  0  0  0  0  0  0  0
  142.2070   74.5600  218.4710 C   0  0  0  0  0  0  0  0  0  0  0  0
  142.9230   73.3780  218.5650 C   0  0  0  0  0  0  0  0  0  0  0  0
  144.0490   73.3650  219.3700 C   0  0  0  0  0  0  0  0  0  0  0  0
  144.8230   72.2280  219.5200 C   0  0  0  0  0  0  0  0  0  0  0  0
  145.9330   72.2580  220.3280 C   0  0  0  0  0  0  0  0  0  0  0  0
  146.3120   73.3980  221.0090 C   0  0  0  0  0  0  0  0  0  0  0  0
  145.5340   74.5210  220.8490 C   0  0  0  0  0  0  0  0  0  0  0  0
  144.4110   74.5140  220.0400 C   0  0  0  0  0  0  0  0  0  0  0  0
  143.6800   75.6450  219.9180 N   0  0  0  0  0  0  0  0  0  0  0  0
  143.0600   78.1210  220.2410 H   0  0  0  0  0  0  0  0  0  0  0  0
  141.9201   80.0039  218.9289 H   0  0  0  0  0  0  0  0  0  0  0  0
  140.4721   78.8164  218.8985 H   0  0  0  0  0  0  0  0  0  0  0  0
  142.6964   81.4795  221.7899 H   0  0  0  0  0  0  0  0  0  0  0  0
  141.6238   81.7613  223.1199 H   0  0  0  0  0  0  0  0  0  0  0  0
  143.6252   79.4188  222.7212 H   0  0  0  0  0  0  0  0  0  0  0  0
  143.5652   80.4708  224.1107 H   0  0  0  0  0  0  0  0  0  0  0  0
  142.2191   78.0268  224.0366 H   0  0  0  0  0  0  0  0  0  0  0  0
  141.5634   79.3542  224.9812 H   0  0  0  0  0  0  0  0  0  0  0  0
  139.8501   79.5897  223.4900 H   0  0  0  0  0  0  0  0  0  0  0  0
  142.1553   76.8865  222.4199 H   0  0  0  0  0  0  0  0  0  0  0  0
  141.3110   74.6865  221.7296 H   0  0  0  0  0  0  0  0  0  0  0  0
  138.8500   74.3260  221.4571 H   0  0  0  0  0  0  0  0  0  0  0  0
  137.2991   76.2217  221.8922 H   0  0  0  0  0  0  0  0  0  0  0  0
  141.3099   74.5898  217.8351 H   0  0  0  0  0  0  0  0  0  0  0  0
  142.6068   72.4780  218.0172 H   0  0  0  0  0  0  0  0  0  0  0  0
  144.5498   71.3019  218.9931 H   0  0  0  0  0  0  0  0  0  0  0  0
  146.5387   71.3462  220.4361 H   0  0  0  0  0  0  0  0  0  0  0  0
  147.2023   73.4076  221.6549 H   0  0  0  0  0  0  0  0  0  0  0  0
  145.8107   75.4460  221.3762 H   0  0  0  0  0  0  0  0  0  0  0  0
  1  2  2  0
  2  3  1  0
  3  4  1  0
  4  5  1  0
  5  6  2  0
  5  7  1  0
  7  8  1  0
  8  9  1  0
  9 10  1  0
 10 11  1  0
 11 12  1  0
 12 13  2  0
 13 14  1  0
 14 15  2  0
 15 16  1  0
 16 17  2  0
 17 18  1  0
  2 19  1  0
 19 20  2  0
 20 21  1  0
 21 22  2  0
 22 23  1  0
 23 24  2  0
 24 25  1  0
 25 26  2  0
 26 27  1  0
 27 28  2  0
 11  7  1  0
 17 12  1  0
 28 19  1  0
 27 22  1  0
  3 29  1  0
  4 30  1  0
  4 31  1  0
  8 32  1  0
  8 33  1  0
  9 34  1  0
  9 35  1  0
 10 36  1  0
 10 37  1  0
 11 38  1  1
 13 39  1  0
 14 40  1  0
 15 41  1  0
 16 42  1  0
 20 43  1  0
 21 44  1  0
 23 45  1  0
 24 46  1  0
 25 47  1  0
 26 48  1  0
M  END
>  <smiles>  (15) 
O=C(NCC(=O)N1CCCC1c1ccccc1Cl)c1ccc2ccccc2n1

>  <score_type>  (15) 
oracle

>  <origin>  (15) 
autodockgpu

>  <m_score__min__energy>  (15) 
-8.7799999999999994

>  <m_primary>  (15) 
energy

>  <rmsd>  (15) 
7.505480129391238

>  <m_score__min__rmsd>  (15) 
7.505480129391238

>  <meeko>  (15) 
{"free_energy": -7.21, "intermolecular_energy": -8.7, "internal_energy": -2.63, "cluster_size": 14, "cluster_id": 8, "rank_in_cluster": 7}

>  <energy>  (15) 
-8.28

>  <cluster_rmsd>  (15) 
0.46

>  <cluster>  (15) 
1

$$$$

     RDKit          3D

 48 51  0  0  0  0  0  0  0  0999 V2000
  139.0350   71.0450  221.3510 O   0  0  0  0  0  0  0  0  0  0  0  0
  139.2200   71.7120  222.4060 C   0  0  0  0  0  0  0  0  0  0  0  0
  139.0530   73.1460  222.2430 N   0  0  0  0  0  0  0  0  0  0  0  0
  138.7070   73.5930  220.9340 C   0  0  0  0  0  0  0  0  0  0  0  0
  139.7400   73.6740  219.9180 C   0  0  0  0  0  0  0  0  0  0  0  0
  139.3340   74.1670  218.7930 O   0  0  0  0  0  0  0  0  0  0  0  0
  141.1010   73.3070  219.9510 N   0  0  0  0  0  0  0  0  0  0  0  0
  141.7570   72.0150  219.8920 C   0  0  0  0  0  0  0  0  0  0  0  0
  142.7420   72.1650  221.0390 C   0  0  0  0  0  0  0  0  0  0  0  0
  143.2720   73.5920  220.8190 C   0  0  0  0  0  0  0  0  0  0  0  0
  142.1790   74.2650  220.0950 C   0  0  2  0  0  0  0  0  0  0  0  0
  141.7740   75.5500  220.7210 C   0  0  0  0  0  0  0  0  0  0  0  0
  141.0920   75.6370  221.9160 C   0  0  0  0  0  0  0  0  0  0  0  0
  140.7440   76.8350  222.5050 C   0  0  0  0  0  0  0  0  0  0  0  0
  141.0860   78.0280  221.8860 C   0  0  0  0  0  0  0  0  0  0  0  0
  141.7690   77.9790  220.6860 C   0  0  0  0  0  0  0  0  0  0  0  0
  142.1040   76.7660  220.1200 C   0  0  0  0  0  0  0  0  0  0  0  0
  142.9770   76.6890  218.5890 Cl  0  0  0  0  0  0  0  0  0  0  0  0
  139.5690   71.1450  223.6820 C   0  0  0  0  0  0  0  0  0  0  0  0
  139.3260   69.8290  223.9180 C   0  0  0  0  0  0  0  0  0  0  0  0
  139.6390   69.2270  225.1260 C   0  0  0  0  0  0  0  0  0  0  0  0
  140.2180   70.0100  226.1100 C   0  0  0  0  0  0  0  0  0  0  0  0
  140.5620   69.4900  227.3450 C   0  0  0  0  0  0  0  0  0  0  0  0
  141.1340   70.3020  228.2930 C   0  0  0  0  0  0  0  0  0  0  0  0
  141.3820   71.6400  228.0580 C   0  0  0  0  0  0  0  0  0  0  0  0
  141.0350   72.1430  226.8250 C   0  0  0  0  0  0  0  0  0  0  0  0
  140.4570   71.3430  225.8540 C   0  0  0  0  0  0  0  0  0  0  0  0
  140.1340   71.8880  224.6600 N   0  0  0  0  0  0  0  0  0  0  0  0
  139.1930   73.7690  223.0820 H   0  0  0  0  0  0  0  0  0  0  0  0
  137.9352   72.9076  220.5538 H   0  0  0  0  0  0  0  0  0  0  0  0
  138.4064   74.6402  221.0858 H   0  0  0  0  0  0  0  0  0  0  0  0
  141.0503   71.1903  220.0663 H   0  0  0  0  0  0  0  0  0  0  0  0
  142.2116   71.7708  218.9206 H   0  0  0  0  0  0  0  0  0  0  0  0
  142.2392   72.0709  222.0128 H   0  0  0  0  0  0  0  0  0  0  0  0
  143.5287   71.3963  221.0521 H   0  0  0  0  0  0  0  0  0  0  0  0
  143.4698   74.0891  221.7801 H   0  0  0  0  0  0  0  0  0  0  0  0
  144.2235   73.6122  220.2674 H   0  0  0  0  0  0  0  0  0  0  0  0
  142.5167   74.5756  219.0953 H   0  0  0  0  0  0  0  0  0  0  0  0
  140.8110   74.7036  222.4258 H   0  0  0  0  0  0  0  0  0  0  0  0
  140.1984   76.8439  223.4601 H   0  0  0  0  0  0  0  0  0  0  0  0
  140.8190   78.9932  222.3410 H   0  0  0  0  0  0  0  0  0  0  0  0
  142.0478   78.9140  220.1780 H   0  0  0  0  0  0  0  0  0  0  0  0
  138.8659   69.2221  223.1243 H   0  0  0  0  0  0  0  0  0  0  0  0
  139.4338   68.1601  225.2979 H   0  0  0  0  0  0  0  0  0  0  0  0
  140.3777   68.4285  227.5670 H   0  0  0  0  0  0  0  0  0  0  0  0
  141.4030   69.8735  229.2698 H   0  0  0  0  0  0  0  0  0  0  0  0
  141.8396   72.2795  228.8272 H   0  0  0  0  0  0  0  0  0  0  0  0
  141.2211   73.2048  226.6059 H   0  0  0  0  0  0  0  0  0  0  0  0
  1  2  2  0
  2  3  1  0
  3  4  1  0
  4  5  1  0
  5  6  2  0
  5  7  1  0
  7  8  1  0
  8  9  1  0
  9 10  1  0
 10 11  1  0
 11 12  1  0
 12 13  2  0
 13 14  1  0
 14 15  2  0
 15 16  1  0
 16 17  2  0
 17 18  1  0
  2 19  1  0
 19 20  2  0
 20 21  1  0
 21 22  2  0
 22 23  1  0
 23 24  2  0
 24 25  1  0
 25 26  2  0
 26 27  1  0
 27 28  2  0
 11  7  1  0
 17 12  1  0
 28 19  1  0
 27 22  1  0
  3 29  1  0
  4 30  1  0
  4 31  1  0
  8 32  1  0
  8 33  1  0
  9 34  1  0
  9 35  1  0
 10 36  1  0
 10 37  1  0
 11 38  1  6
 13 39  1  0
 14 40  1  0
 15 41  1  0
 16 42  1  0
 20 43  1  0
 21 44  1  0
 23 45  1  0
 24 46  1  0
 25 47  1  0
 26 48  1  0
M  END
>  <smiles>  (16) 
O=C(NCC(=O)N1CCCC1c1ccccc1Cl)c1ccc2ccccc2n1

>  <score_type>  (16) 
oracle

>  <origin>  (16) 
autodockgpu

>  <m_score__min__energy>  (16) 
-8.7799999999999994

>  <m_primary>  (16) 
energy

>  <rmsd>  (16) 
2.8137062378183066

>  <m_score__min__rmsd>  (16) 
2.8137062378183066

>  <meeko>  (16) 
{"free_energy": -7.55, "intermolecular_energy": -9.05, "internal_energy": -2.11, "cluster_size": 9, "cluster_id": 3, "rank_in_cluster": 8}

>  <energy>  (16) 
-7.79

>  <cluster_rmsd>  (16) 
1.94

>  <cluster>  (16) 
1

$$$$

     RDKit          3D

 48 51  0  0  0  0  0  0  0  0999 V2000
  139.0470   75.1760  221.5020 O   0  0  0  0  0  0  0  0  0  0  0  0
  140.1320   75.7250  221.8410 C   0  0  0  0  0  0  0  0  0  0  0  0
  141.3030   74.8790  221.6810 N   0  0  0  0  0  0  0  0  0  0  0  0
  141.0680   73.5690  221.1710 C   0  0  0  0  0  0  0  0  0  0  0  0
  141.9260   73.0530  220.1210 C   0  0  0  0  0  0  0  0  0  0  0  0
  141.2950   72.7110  219.0450 O   0  0  0  0  0  0  0  0  0  0  0  0
  143.3230   72.8620  220.0780 N   0  0  0  0  0  0  0  0  0  0  0  0
  144.1990   71.9570  220.7970 C   0  0  0  0  0  0  0  0  0  0  0  0
  145.2920   72.9240  221.2190 C   0  0  0  0  0  0  0  0  0  0  0  0
  145.5010   73.7480  219.9370 C   0  0  0  0  0  0  0  0  0  0  0  0
  144.2070   73.6470  219.2390 C   0  0  2  0  0  0  0  0  0  0  0  0
  143.6570   74.9700  218.8430 C   0  0  0  0  0  0  0  0  0  0  0  0
  143.3140   75.9550  219.7430 C   0  0  0  0  0  0  0  0  0  0  0  0
  142.8300   77.1920  219.3670 C   0  0  0  0  0  0  0  0  0  0  0  0
  142.6730   77.4840  218.0200 C   0  0  0  0  0  0  0  0  0  0  0  0
  143.0070   76.5190  217.0900 C   0  0  0  0  0  0  0  0  0  0  0  0
  143.4880   75.2920  217.4960 C   0  0  0  0  0  0  0  0  0  0  0  0
  143.9180   74.0510  216.3180 Cl  0  0  0  0  0  0  0  0  0  0  0  0
  140.2470   77.0670  222.3460 C   0  0  0  0  0  0  0  0  0  0  0  0
  139.1250   77.7490  222.6960 C   0  0  0  0  0  0  0  0  0  0  0  0
  139.1730   79.0430  223.1870 C   0  0  0  0  0  0  0  0  0  0  0  0
  140.4150   79.6410  223.3190 C   0  0  0  0  0  0  0  0  0  0  0  0
  140.5540   80.9300  223.8020 C   0  0  0  0  0  0  0  0  0  0  0  0
  141.8040   81.4860  223.9170 C   0  0  0  0  0  0  0  0  0  0  0  0
  142.9470   80.7970  223.5630 C   0  0  0  0  0  0  0  0  0  0  0  0
  142.7930   79.5160  223.0850 C   0  0  0  0  0  0  0  0  0  0  0  0
  141.5430   78.9360  222.9600 C   0  0  0  0  0  0  0  0  0  0  0  0
  141.4480   77.6740  222.4840 N   0  0  0  0  0  0  0  0  0  0  0  0
  142.2460   75.2700  221.9440 H   0  0  0  0  0  0  0  0  0  0  0  0
  141.1468   72.8746  222.0205 H   0  0  0  0  0  0  0  0  0  0  0  0
  140.0832   73.6496  220.6876 H   0  0  0  0  0  0  0  0  0  0  0  0
  143.6959   71.5061  221.6651 H   0  0  0  0  0  0  0  0  0  0  0  0
  144.5472   71.0907  220.2153 H   0  0  0  0  0  0  0  0  0  0  0  0
  144.9627   73.5600  222.0539 H   0  0  0  0  0  0  0  0  0  0  0  0
  146.2051   72.4304  221.5832 H   0  0  0  0  0  0  0  0  0  0  0  0
  145.7354   74.7953  220.1782 H   0  0  0  0  0  0  0  0  0  0  0  0
  146.3418   73.3827  219.3290 H   0  0  0  0  0  0  0  0  0  0  0  0
  144.3320   73.1347  218.2736 H   0  0  0  0  0  0  0  0  0  0  0  0
  143.4318   75.7451  220.8163 H   0  0  0  0  0  0  0  0  0  0  0  0
  142.5707   77.9407  220.1300 H   0  0  0  0  0  0  0  0  0  0  0  0
  142.2903   78.4641  217.6991 H   0  0  0  0  0  0  0  0  0  0  0  0
  142.8884   76.7308  216.0171 H   0  0  0  0  0  0  0  0  0  0  0  0
  138.1471   77.2574  222.5858 H   0  0  0  0  0  0  0  0  0  0  0  0
  138.2532   79.5791  223.4635 H   0  0  0  0  0  0  0  0  0  0  0  0
  139.6647   81.5082  224.0933 H   0  0  0  0  0  0  0  0  0  0  0  0
  141.8978   82.5118  224.3030 H   0  0  0  0  0  0  0  0  0  0  0  0
  143.9426   81.2547  223.6594 H   0  0  0  0  0  0  0  0  0  0  0  0
  143.6841   78.9397  222.7956 H   0  0  0  0  0  0  0  0  0  0  0  0
  1  2  2  0
  2  3  1  0
  3  4  1  0
  4  5  1  0
  5  6  2  0
  5  7  1  0
  7  8  1  0
  8  9  1  0
  9 10  1  0
 10 11  1  0
 11 12  1  0
 12 13  2  0
 13 14  1  0
 14 15  2  0
 15 16  1  0
 16 17  2  0
 17 18  1  0
  2 19  1  0
 19 20  2  0
 20 21  1  0
 21 22  2  0
 22 23  1  0
 23 24  2  0
 24 25  1  0
 25 26  2  0
 26 27  1  0
 27 28  2  0
 11  7  1  0
 17 12  1  0
 28 19  1  0
 27 22  1  0
  3 29  1  0
  4 30  1  0
  4 31  1  0
  8 32  1  0
  8 33  1  0
  9 34  1  0
  9 35  1  0
 10 36  1  0
 10 37  1  0
 11 38  1  6
 13 39  1  0
 14 40  1  0
 15 41  1  0
 16 42  1  0
 20 43  1  0
 21 44  1  0
 23 45  1  0
 24 46  1  0
 25 47  1  0
 26 48  1  0
M  END
>  <smiles>  (17) 
O=C(NCC(=O)N1CCCC1c1ccccc1Cl)c1ccc2ccccc2n1

>  <score_type>  (17) 
oracle

>  <origin>  (17) 
autodockgpu

>  <m_score__min__energy>  (17) 
-8.7799999999999994

>  <m_primary>  (17) 
energy

>  <rmsd>  (17) 
7.814622414075307

>  <m_score__min__rmsd>  (17) 
7.814622414075307

>  <meeko>  (17) 
{"free_energy": -7.45, "intermolecular_energy": -8.94, "internal_energy": -2.22, "cluster_size": 5, "cluster_id": 6, "rank_in_cluster": 1}

>  <energy>  (17) 
-8.75

>  <cluster_rmsd>  (17) 
0.0

>  <cluster>  (17) 
2

$$$$

     RDKit          3D

 48 51  0  0  0  0  0  0  0  0999 V2000
  140.8580   77.2130  218.2300 O   0  0  0  0  0  0  0  0  0  0  0  0
  141.8650   77.0650  218.9770 C   0  0  0  0  0  0  0  0  0  0  0  0
  142.2340   78.2560  219.7240 N   0  0  0  0  0  0  0  0  0  0  0  0
  141.4200   79.4070  219.5140 C   0  0  0  0  0  0  0  0  0  0  0  0
  140.6540   79.9450  220.6230 C   0  0  0  0  0  0  0  0  0  0  0  0
  139.4540   80.3100  220.3080 O   0  0  0  0  0  0  0  0  0  0  0  0
  140.9980   80.1370  221.9780 N   0  0  0  0  0  0  0  0  0  0  0  0
  141.8310   81.1250  222.6350 C   0  0  0  0  0  0  0  0  0  0  0  0
  142.6610   80.2200  223.5300 C   0  0  0  0  0  0  0  0  0  0  0  0
  141.5980   79.2510  224.0770 C   0  0  0  0  0  0  0  0  0  0  0  0
  140.5480   79.2620  223.0430 C   0  0  2  0  0  0  0  0  0  0  0  0
  140.1640   77.8990  222.5920 C   0  0  0  0  0  0  0  0  0  0  0  0
  141.0710   76.8900  222.3480 C   0  0  0  0  0  0  0  0  0  0  0  0
  140.7050   75.6190  221.9570 C   0  0  0  0  0  0  0  0  0  0  0  0
  139.3620   75.3130  221.7940 C   0  0  0  0  0  0  0  0  0  0  0  0
  138.4250   76.3000  222.0300 C   0  0  0  0  0  0  0  0  0  0  0  0
  138.8210   77.5620  222.4200 C   0  0  0  0  0  0  0  0  0  0  0  0
  137.6330   78.8320  222.7240 Cl  0  0  0  0  0  0  0  0  0  0  0  0
  142.6140   75.8440  219.1090 C   0  0  0  0  0  0  0  0  0  0  0  0
  142.2130   74.7360  218.4310 C   0  0  0  0  0  0  0  0  0  0  0  0
  142.8920   73.5330  218.5190 C   0  0  0  0  0  0  0  0  0  0  0  0
  144.0140   73.4790  219.3270 C   0  0  0  0  0  0  0  0  0  0  0  0
  144.7520   72.3170  219.4720 C   0  0  0  0  0  0  0  0  0  0  0  0
  145.8590   72.3070  220.2840 C   0  0  0  0  0  0  0  0  0  0  0  0
  146.2700   73.4300  220.9760 C   0  0  0  0  0  0  0  0  0  0  0  0
  145.5280   74.5770  220.8210 C   0  0  0  0  0  0  0  0  0  0  0  0
  144.4080   74.6110  220.0080 C   0  0  0  0  0  0  0  0  0  0  0  0
  143.7130   75.7640  219.8930 N   0  0  0  0  0  0  0  0  0  0  0  0
  143.0660   78.2090  220.3690 H   0  0  0  0  0  0  0  0  0  0  0  0
  142.0841   80.2104  219.1626 H   0  0  0  0  0  0  0  0  0  0  0  0
  140.6504   79.0579  218.8098 H   0  0  0  0  0  0  0  0  0  0  0  0
  142.4574   81.6735  221.9161 H   0  0  0  0  0  0  0  0  0  0  0  0
  141.2800   81.9177  223.1622 H   0  0  0  0  0  0  0  0  0  0  0  0
  143.4310   79.6854  222.9543 H   0  0  0  0  0  0  0  0  0  0  0  0
  143.2163   80.7578  224.3126 H   0  0  0  0  0  0  0  0  0  0  0  0
  142.0153   78.2408  224.2012 H   0  0  0  0  0  0  0  0  0  0  0  0
  141.2227   79.5461  225.0680 H   0  0  0  0  0  0  0  0  0  0  0  0
  139.6082   79.6568  223.4565 H   0  0  0  0  0  0  0  0  0  0  0  0
  142.1417   77.1098  222.4715 H   0  0  0  0  0  0  0  0  0  0  0  0
  141.4732   74.8529  221.7756 H   0  0  0  0  0  0  0  0  0  0  0  0
  139.0496   74.3051  221.4832 H   0  0  0  0  0  0  0  0  0  0  0  0
  137.3549   76.0777  221.9059 H   0  0  0  0  0  0  0  0  0  0  0  0
  141.3199   74.7975  217.7917 H   0  0  0  0  0  0  0  0  0  0  0  0
  142.5501   72.6471  217.9637 H   0  0  0  0  0  0  0  0  0  0  0  0
  144.4521   71.4034  218.9377 H   0  0  0  0  0  0  0  0  0  0  0  0
  146.4364   71.3764  220.3868 H   0  0  0  0  0  0  0  0  0  0  0  0
  147.1570   73.4072  221.6261 H   0  0  0  0  0  0  0  0  0  0  0  0
  145.8314   75.4892  221.3556 H   0  0  0  0  0  0  0  0  0  0  0  0
  1  2  2  0
  2  3  1  0
  3  4  1  0
  4  5  1  0
  5  6  2  0
  5  7  1  0
  7  8  1  0
  8  9  1  0
  9 10  1  0
 10 11  1  0
 11 12  1  0
 12 13  2  0
 13 14  1  0
 14 15  2  0
 15 16  1  0
 16 17  2  0
 17 18  1  0
  2 19  1  0
 19 20  2  0
 20 21  1  0
 21 22  2  0
 22 23  1  0
 23 24  2  0
 24 25  1  0
 25 26  2  0
 26 27  1  0
 27 28  2  0
 11  7  1  0
 17 12  1  0
 28 19  1  0
 27 22  1  0
  3 29  1  0
  4 30  1  0
  4 31  1  0
  8 32  1  0
  8 33  1  0
  9 34  1  0
  9 35  1  0
 10 36  1  0
 10 37  1  0
 11 38  1  1
 13 39  1  0
 14 40  1  0
 15 41  1  0
 16 42  1  0
 20 43  1  0
 21 44  1  0
 23 45  1  0
 24 46  1  0
 25 47  1  0
 26 48  1  0
M  END
>  <smiles>  (18) 
O=C(NCC(=O)N1CCCC1c1ccccc1Cl)c1ccc2ccccc2n1

>  <score_type>  (18) 
oracle

>  <origin>  (18) 
autodockgpu

>  <m_score__min__energy>  (18) 
-8.7799999999999994

>  <m_primary>  (18) 
energy

>  <rmsd>  (18) 
7.6049171932012944

>  <m_score__min__rmsd>  (18) 
7.6049171932012944

>  <meeko>  (18) 
{"free_energy": -7.12, "intermolecular_energy": -8.61, "internal_energy": -2.61, "cluster_size": 14, "cluster_id": 8, "rank_in_cluster": 11}

>  <energy>  (18) 
-8.63

>  <cluster_rmsd>  (18) 
0.3

>  <cluster>  (18) 
2

$$$$

     RDKit          3D

 48 51  0  0  0  0  0  0  0  0999 V2000
  140.9730   71.8950  221.3900 O   0  0  0  0  0  0  0  0  0  0  0  0
  140.3430   72.2830  222.4140 C   0  0  0  0  0  0  0  0  0  0  0  0
  139.7510   73.6040  222.2840 N   0  0  0  0  0  0  0  0  0  0  0  0
  139.9600   74.2670  221.0400 C   0  0  0  0  0  0  0  0  0  0  0  0
  140.8750   75.3920  220.9820 C   0  0  0  0  0  0  0  0  0  0  0  0
  141.4450   75.6660  222.1110 O   0  0  0  0  0  0  0  0  0  0  0  0
  141.2430   76.2300  219.9100 N   0  0  0  0  0  0  0  0  0  0  0  0
  141.8680   75.9500  218.6310 C   0  0  0  0  0  0  0  0  0  0  0  0
  142.9300   77.0360  218.6100 C   0  0  0  0  0  0  0  0  0  0  0  0
  142.1460   78.2580  219.1200 C   0  0  0  0  0  0  0  0  0  0  0  0
  141.0630   77.6690  219.9280 C   0  0  2  0  0  0  0  0  0  0  0  0
  140.9710   78.2550  221.2900 C   0  0  0  0  0  0  0  0  0  0  0  0
  142.0500   78.7710  221.9750 C   0  0  0  0  0  0  0  0  0  0  0  0
  141.9520   79.3400  223.2280 C   0  0  0  0  0  0  0  0  0  0  0  0
  140.7160   79.4090  223.8540 C   0  0  0  0  0  0  0  0  0  0  0  0
  139.6130   78.9000  223.1970 C   0  0  0  0  0  0  0  0  0  0  0  0
  139.7410   78.3370  221.9440 C   0  0  0  0  0  0  0  0  0  0  0  0
  138.3390   77.6850  221.0950 Cl  0  0  0  0  0  0  0  0  0  0  0  0
  140.1980   71.5180  223.6240 C   0  0  0  0  0  0  0  0  0  0  0  0
  139.5570   70.3200  223.5850 C   0  0  0  0  0  0  0  0  0  0  0  0
  139.3860   69.5400  224.7170 C   0  0  0  0  0  0  0  0  0  0  0  0
  139.8930   70.0140  225.9140 C   0  0  0  0  0  0  0  0  0  0  0  0
  139.7670   69.2990  227.0920 C   0  0  0  0  0  0  0  0  0  0  0  0
  140.2840   69.8060  228.2580 C   0  0  0  0  0  0  0  0  0  0  0  0
  140.9350   71.0240  228.3020 C   0  0  0  0  0  0  0  0  0  0  0  0
  141.0540   71.7220  227.1240 C   0  0  0  0  0  0  0  0  0  0  0  0
  140.5400   71.2310  225.9360 C   0  0  0  0  0  0  0  0  0  0  0  0
  140.6830   71.9590  224.8060 N   0  0  0  0  0  0  0  0  0  0  0  0
  139.2090   73.9950  223.0990 H   0  0  0  0  0  0  0  0  0  0  0  0
  140.3335   73.5122  220.3324 H   0  0  0  0  0  0  0  0  0  0  0  0
  138.9808   74.7145  220.8144 H   0  0  0  0  0  0  0  0  0  0  0  0
  142.3127   74.9442  218.6059 H   0  0  0  0  0  0  0  0  0  0  0  0
  141.1829   75.9566  217.7704 H   0  0  0  0  0  0  0  0  0  0  0  0
  143.7670   76.7898  219.2799 H   0  0  0  0  0  0  0  0  0  0  0  0
  143.3928   77.1855  217.6234 H   0  0  0  0  0  0  0  0  0  0  0  0
  142.7870   78.9055  219.7363 H   0  0  0  0  0  0  0  0  0  0  0  0
  141.7707   78.8933  218.3042 H   0  0  0  0  0  0  0  0  0  0  0  0
  140.0837   77.9125  219.4902 H   0  0  0  0  0  0  0  0  0  0  0  0
  143.0403   78.7269  221.4981 H   0  0  0  0  0  0  0  0  0  0  0  0
  142.8483   79.7364  223.7275 H   0  0  0  0  0  0  0  0  0  0  0  0
  140.6165   79.8596  224.8525 H   0  0  0  0  0  0  0  0  0  0  0  0
  138.6241   78.9439  223.6768 H   0  0  0  0  0  0  0  0  0  0  0  0
  139.1616   69.9585  222.6243 H   0  0  0  0  0  0  0  0  0  0  0  0
  138.8632   68.5735  224.6658 H   0  0  0  0  0  0  0  0  0  0  0  0
  139.2535   68.3262  227.0940 H   0  0  0  0  0  0  0  0  0  0  0  0
  140.1768   69.2249  229.1858 H   0  0  0  0  0  0  0  0  0  0  0  0
  141.3425   71.4199  229.2439 H   0  0  0  0  0  0  0  0  0  0  0  0
  141.5698   72.6936  227.1252 H   0  0  0  0  0  0  0  0  0  0  0  0
  1  2  2  0
  2  3  1  0
  3  4  1  0
  4  5  1  0
  5  6  2  0
  5  7  1  0
  7  8  1  0
  8  9  1  0
  9 10  1  0
 10 11  1  0
 11 12  1  0
 12 13  2  0
 13 14  1  0
 14 15  2  0
 15 16  1  0
 16 17  2  0
 17 18  1  0
  2 19  1  0
 19 20  2  0
 20 21  1  0
 21 22  2  0
 22 23  1  0
 23 24  2  0
 24 25  1  0
 25 26  2  0
 26 27  1  0
 27 28  2  0
 11  7  1  0
 17 12  1  0
 28 19  1  0
 27 22  1  0
  3 29  1  0
  4 30  1  0
  4 31  1  0
  8 32  1  0
  8 33  1  0
  9 34  1  0
  9 35  1  0
 10 36  1  0
 10 37  1  0
 11 38  1  6
 13 39  1  0
 14 40  1  0
 15 41  1  0
 16 42  1  0
 20 43  1  0
 21 44  1  0
 23 45  1  0
 24 46  1  0
 25 47  1  0
 26 48  1  0
M  END
>  <smiles>  (19) 
O=C(NCC(=O)N1CCCC1c1ccccc1Cl)c1ccc2ccccc2n1

>  <score_type>  (19) 
oracle

>  <origin>  (19) 
autodockgpu

>  <m_score__min__energy>  (19) 
-8.7799999999999994

>  <m_primary>  (19) 
energy

>  <rmsd>  (19) 
1.8866960628958136

>  <m_score__min__rmsd>  (19) 
1.8866960628958136

>  <meeko>  (19) 
{"free_energy": -8.69, "intermolecular_energy": -10.19, "internal_energy": -1.48, "cluster_size": 16, "cluster_id": 1, "rank_in_cluster": 6}

>  <energy>  (19) 
-7.38

>  <cluster_rmsd>  (19) 
1.67

>  <cluster>  (19) 
2

$$$$

     RDKit          3D

 48 51  0  0  0  0  0  0  0  0999 V2000
  139.0410   75.1710  221.5180 O   0  0  0  0  0  0  0  0  0  0  0  0
  140.1300   75.7270  221.8350 C   0  0  0  0  0  0  0  0  0  0  0  0
  141.3020   74.8870  221.6530 N   0  0  0  0  0  0  0  0  0  0  0  0
  141.0640   73.5750  221.1510 C   0  0  0  0  0  0  0  0  0  0  0  0
  141.9270   73.0480  220.1090 C   0  0  0  0  0  0  0  0  0  0  0  0
  141.2990   72.6930  219.0350 O   0  0  0  0  0  0  0  0  0  0  0  0
  143.3240   72.8590  220.0730 N   0  0  0  0  0  0  0  0  0  0  0  0
  144.1970   71.9530  220.7950 C   0  0  0  0  0  0  0  0  0  0  0  0
  145.2870   72.9210  221.2240 C   0  0  0  0  0  0  0  0  0  0  0  0
  145.5020   73.7480  219.9450 C   0  0  0  0  0  0  0  0  0  0  0  0
  144.2110   73.6470  219.2400 C   0  0  2  0  0  0  0  0  0  0  0  0
  143.6620   74.9690  218.8440 C   0  0  0  0  0  0  0  0  0  0  0  0
  143.3280   75.9590  219.7430 C   0  0  0  0  0  0  0  0  0  0  0  0
  142.8460   77.1960  219.3670 C   0  0  0  0  0  0  0  0  0  0  0  0
  142.6780   77.4840  218.0200 C   0  0  0  0  0  0  0  0  0  0  0  0
  143.0010   76.5150  217.0910 C   0  0  0  0  0  0  0  0  0  0  0  0
  143.4820   75.2870  217.4970 C   0  0  0  0  0  0  0  0  0  0  0  0
  143.8990   74.0410  216.3200 Cl  0  0  0  0  0  0  0  0  0  0  0  0
  140.2480   77.0700  222.3350 C   0  0  0  0  0  0  0  0  0  0  0  0
  139.1260   77.7570  222.6790 C   0  0  0  0  0  0  0  0  0  0  0  0
  139.1770   79.0530  223.1670 C   0  0  0  0  0  0  0  0  0  0  0  0
  140.4200   79.6470  223.3000 C   0  0  0  0  0  0  0  0  0  0  0  0
  140.5620   80.9380  223.7790 C   0  0  0  0  0  0  0  0  0  0  0  0
  141.8130   81.4900  223.8960 C   0  0  0  0  0  0  0  0  0  0  0  0
  142.9550   80.7960  223.5480 C   0  0  0  0  0  0  0  0  0  0  0  0
  142.7990   79.5140  223.0740 C   0  0  0  0  0  0  0  0  0  0  0  0
  141.5470   78.9370  222.9470 C   0  0  0  0  0  0  0  0  0  0  0  0
  141.4490   77.6740  222.4750 N   0  0  0  0  0  0  0  0  0  0  0  0
  142.2480   75.2830  221.8980 H   0  0  0  0  0  0  0  0  0  0  0  0
  141.1346   72.8861  222.0057 H   0  0  0  0  0  0  0  0  0  0  0  0
  140.0823   73.6563  220.6614 H   0  0  0  0  0  0  0  0  0  0  0  0
  143.6899   71.5002  221.6598 H   0  0  0  0  0  0  0  0  0  0  0  0
  144.5488   71.0877  220.2140 H   0  0  0  0  0  0  0  0  0  0  0  0
  144.9527   73.5550  222.0584 H   0  0  0  0  0  0  0  0  0  0  0  0
  146.1988   72.4275  221.5915 H   0  0  0  0  0  0  0  0  0  0  0  0
  145.7341   74.7950  220.1897 H   0  0  0  0  0  0  0  0  0  0  0  0
  146.3464   73.3851  219.3406 H   0  0  0  0  0  0  0  0  0  0  0  0
  144.3411   73.1370  218.2741 H   0  0  0  0  0  0  0  0  0  0  0  0
  143.4522   75.7521  220.8162 H   0  0  0  0  0  0  0  0  0  0  0  0
  142.5967   77.9485  220.1296 H   0  0  0  0  0  0  0  0  0  0  0  0
  142.2954   78.4641  217.6990 H   0  0  0  0  0  0  0  0  0  0  0  0
  142.8739   76.7236  216.0185 H   0  0  0  0  0  0  0  0  0  0  0  0
  138.1469   77.2685  222.5663 H   0  0  0  0  0  0  0  0  0  0  0  0
  138.2583   79.5928  223.4401 H   0  0  0  0  0  0  0  0  0  0  0  0
  139.6738   81.5203  224.0653 H   0  0  0  0  0  0  0  0  0  0  0  0
  141.9090   82.5168  224.2787 H   0  0  0  0  0  0  0  0  0  0  0  0
  143.9517   81.2510  223.6461 H   0  0  0  0  0  0  0  0  0  0  0  0
  143.6894   78.9342  222.7894 H   0  0  0  0  0  0  0  0  0  0  0  0
  1  2  2  0
  2  3  1  0
  3  4  1  0
  4  5  1  0
  5  6  2  0
  5  7  1  0
  7  8  1  0
  8  9  1  0
  9 10  1  0
 10 11  1  0
 11 12  1  0
 12 13  2  0
 13 14  1  0
 14 15  2  0
 15 16  1  0
 16 17  2  0
 17 18  1  0
  2 19  1  0
 19 20  2  0
 20 21  1  0
 21 22  2  0
 22 23  1  0
 23 24  2  0
 24 25  1  0
 25 26  2  0
 26 27  1  0
 27 28  2  0
 11  7  1  0
 17 12  1  0
 28 19  1  0
 27 22  1  0
  3 29  1  0
  4 30  1  0
  4 31  1  0
  8 32  1  0
  8 33  1  0
  9 34  1  0
  9 35  1  0
 10 36  1  0
 10 37  1  0
 11 38  1  6
 13 39  1  0
 14 40  1  0
 15 41  1  0
 16 42  1  0
 20 43  1  0
 21 44  1  0
 23 45  1  0
 24 46  1  0
 25 47  1  0
 26 48  1  0
M  END
>  <smiles>  (20) 
O=C(NCC(=O)N1CCCC1c1ccccc1Cl)c1ccc2ccccc2n1

>  <score_type>  (20) 
oracle

>  <origin>  (20) 
autodockgpu

>  <m_score__min__energy>  (20) 
-8.7799999999999994

>  <m_primary>  (20) 
energy

>  <rmsd>  (20) 
7.820397603661481

>  <m_score__min__rmsd>  (20) 
7.820397603661481

>  <meeko>  (20) 
{"free_energy": -7.44, "intermolecular_energy": -8.93, "internal_energy": -2.22, "cluster_size": 5, "cluster_id": 6, "rank_in_cluster": 2}

>  <energy>  (20) 
-8.03

>  <cluster_rmsd>  (20) 
0.0

>  <cluster>  (20) 
3

$$$$

     RDKit          3D

 48 51  0  0  0  0  0  0  0  0999 V2000
  140.7720   77.0500  218.3010 O   0  0  0  0  0  0  0  0  0  0  0  0
  141.8100   76.9370  219.0100 C   0  0  0  0  0  0  0  0  0  0  0  0
  142.1930   78.1540  219.7060 N   0  0  0  0  0  0  0  0  0  0  0  0
  141.3570   79.2890  219.4930 C   0  0  0  0  0  0  0  0  0  0  0  0
  140.7100   79.9150  220.6320 C   0  0  0  0  0  0  0  0  0  0  0  0
  139.5520   80.4260  220.3650 O   0  0  0  0  0  0  0  0  0  0  0  0
  141.1310   80.0590  221.9700 N   0  0  0  0  0  0  0  0  0  0  0  0
  142.0390   80.9960  222.6040 C   0  0  0  0  0  0  0  0  0  0  0  0
  142.8730   80.0360  223.4350 C   0  0  0  0  0  0  0  0  0  0  0  0
  141.7990   79.0990  224.0150 C   0  0  0  0  0  0  0  0  0  0  0  0
  140.6980   79.1790  223.0380 C   0  0  2  0  0  0  0  0  0  0  0  0
  140.2330   77.8450  222.5790 C   0  0  0  0  0  0  0  0  0  0  0  0
  141.0780   76.7880  222.3200 C   0  0  0  0  0  0  0  0  0  0  0  0
  140.6370   75.5430  221.9210 C   0  0  0  0  0  0  0  0  0  0  0  0
  139.2770   75.3170  221.7650 C   0  0  0  0  0  0  0  0  0  0  0  0
  138.4010   76.3540  222.0160 C   0  0  0  0  0  0  0  0  0  0  0  0
  138.8710   77.5880  222.4130 C   0  0  0  0  0  0  0  0  0  0  0  0
  137.7620   78.9220  222.7370 Cl  0  0  0  0  0  0  0  0  0  0  0  0
  142.5780   75.7280  219.1490 C   0  0  0  0  0  0  0  0  0  0  0  0
  142.1860   74.6070  218.4890 C   0  0  0  0  0  0  0  0  0  0  0  0
  142.8850   73.4140  218.5840 C   0  0  0  0  0  0  0  0  0  0  0  0
  144.0160   73.3870  219.3820 C   0  0  0  0  0  0  0  0  0  0  0  0
  144.7720   72.2390  219.5330 C   0  0  0  0  0  0  0  0  0  0  0  0
  145.8870   72.2550  220.3330 C   0  0  0  0  0  0  0  0  0  0  0  0
  146.2890   73.3920  221.0070 C   0  0  0  0  0  0  0  0  0  0  0  0
  145.5280   74.5260  220.8460 C   0  0  0  0  0  0  0  0  0  0  0  0
  144.4000   74.5330  220.0440 C   0  0  0  0  0  0  0  0  0  0  0  0
  143.6860   75.6750  219.9220 N   0  0  0  0  0  0  0  0  0  0  0  0
  143.0510   78.1360  220.3180 H   0  0  0  0  0  0  0  0  0  0  0  0
  141.9774   80.0596  219.0121 H   0  0  0  0  0  0  0  0  0  0  0  0
  140.5191   78.8900  218.9024 H   0  0  0  0  0  0  0  0  0  0  0  0
  142.6512   81.5342  221.8654 H   0  0  0  0  0  0  0  0  0  0  0  0
  141.5506   81.7989  223.1757 H   0  0  0  0  0  0  0  0  0  0  0  0
  143.5893   79.4838  222.8089 H   0  0  0  0  0  0  0  0  0  0  0  0
  143.4893   80.5314  224.1997 H   0  0  0  0  0  0  0  0  0  0  0  0
  142.1785   78.0696  224.0944 H   0  0  0  0  0  0  0  0  0  0  0  0
  141.4882   79.3852  225.0306 H   0  0  0  0  0  0  0  0  0  0  0  0
  139.7985   79.6032  223.5081 H   0  0  0  0  0  0  0  0  0  0  0  0
  142.1604   76.9448  222.4374 H   0  0  0  0  0  0  0  0  0  0  0  0
  141.3585   74.7354  221.7280 H   0  0  0  0  0  0  0  0  0  0  0  0
  138.9044   74.3318  221.4478 H   0  0  0  0  0  0  0  0  0  0  0  0
  137.3190   76.1945  221.8983 H   0  0  0  0  0  0  0  0  0  0  0  0
  141.2851   74.6476  217.8591 H   0  0  0  0  0  0  0  0  0  0  0  0
  142.5515   72.5166  218.0423 H   0  0  0  0  0  0  0  0  0  0  0  0
  144.4802   71.3147  219.0129 H   0  0  0  0  0  0  0  0  0  0  0  0
  146.4789   71.3341  220.4409 H   0  0  0  0  0  0  0  0  0  0  0  0
  147.1832   73.3902  221.6476 H   0  0  0  0  0  0  0  0  0  0  0  0
  145.8226   75.4491  221.3667 H   0  0  0  0  0  0  0  0  0  0  0  0
  1  2  2  0
  2  3  1  0
  3  4  1  0
  4  5  1  0
  5  6  2  0
  5  7  1  0
  7  8  1  0
  8  9  1  0
  9 10  1  0
 10 11  1  0
 11 12  1  0
 12 13  2  0
 13 14  1  0
 14 15  2  0
 15 16  1  0
 16 17  2  0
 17 18  1  0
  2 19  1  0
 19 20  2  0
 20 21  1  0
 21 22  2  0
 22 23  1  0
 23 24  2  0
 24 25  1  0
 25 26  2  0
 26 27  1  0
 27 28  2  0
 11  7  1  0
 17 12  1  0
 28 19  1  0
 27 22  1  0
  3 29  1  0
  4 30  1  0
  4 31  1  0
  8 32  1  0
  8 33  1  0
  9 34  1  0
  9 35  1  0
 10 36  1  0
 10 37  1  0
 11 38  1  1
 13 39  1  0
 14 40  1  0
 15 41  1  0
 16 42  1  0
 20 43  1  0
 21 44  1  0
 23 45  1  0
 24 46  1  0
 25 47  1  0
 26 48  1  0
M  END
>  <smiles>  (21) 
O=C(NCC(=O)N1CCCC1c1ccccc1Cl)c1ccc2ccccc2n1

>  <score_type>  (21) 
oracle

>  <origin>  (21) 
autodockgpu

>  <m_score__min__energy>  (21) 
-8.7799999999999994

>  <m_primary>  (21) 
energy

>  <rmsd>  (21) 
7.525393471097186

>  <m_score__min__rmsd>  (21) 
7.525393471097186

>  <meeko>  (21) 
{"free_energy": -7.21, "intermolecular_energy": -8.7, "internal_energy": -2.63, "cluster_size": 14, "cluster_id": 8, "rank_in_cluster": 6}

>  <energy>  (21) 
-7.94

>  <cluster_rmsd>  (21) 
0.21

>  <cluster>  (21) 
3

$$$$

     RDKit          3D

 48 51  0  0  0  0  0  0  0  0999 V2000
  139.8600   70.9880  221.1940 O   0  0  0  0  0  0  0  0  0  0  0  0
  139.4920   71.6010  222.2340 C   0  0  0  0  0  0  0  0  0  0  0  0
  138.8160   72.8610  221.9760 N   0  0  0  0  0  0  0  0  0  0  0  0
  138.6640   73.2230  220.6060 C   0  0  0  0  0  0  0  0  0  0  0  0
  139.7320   73.9470  219.9420 C   0  0  0  0  0  0  0  0  0  0  0  0
  139.3420   75.0200  219.3330 O   0  0  0  0  0  0  0  0  0  0  0  0
  141.1130   73.6790  219.8500 N   0  0  0  0  0  0  0  0  0  0  0  0
  141.8480   72.4450  219.6460 C   0  0  0  0  0  0  0  0  0  0  0  0
  142.9060   72.5850  220.7270 C   0  0  0  0  0  0  0  0  0  0  0  0
  143.3210   74.0590  220.5800 C   0  0  0  0  0  0  0  0  0  0  0  0
  142.1320   74.7000  219.9890 C   0  0  2  0  0  0  0  0  0  0  0  0
  141.6900   75.9050  220.7380 C   0  0  0  0  0  0  0  0  0  0  0  0
  141.0590   75.8550  221.9620 C   0  0  0  0  0  0  0  0  0  0  0  0
  140.6770   76.9790  222.6650 C   0  0  0  0  0  0  0  0  0  0  0  0
  140.9300   78.2360  222.1370 C   0  0  0  0  0  0  0  0  0  0  0  0
  141.5610   78.3240  220.9110 C   0  0  0  0  0  0  0  0  0  0  0  0
  141.9320   77.1820  220.2310 C   0  0  0  0  0  0  0  0  0  0  0  0
  142.7390   77.2810  218.6650 Cl  0  0  0  0  0  0  0  0  0  0  0  0
  139.7020   71.1320  223.5780 C   0  0  0  0  0  0  0  0  0  0  0  0
  139.2680   69.8930  223.9300 C   0  0  0  0  0  0  0  0  0  0  0  0
  139.4410   69.3880  225.2080 C   0  0  0  0  0  0  0  0  0  0  0  0
  140.0810   70.1860  226.1400 C   0  0  0  0  0  0  0  0  0  0  0  0
  140.2950   69.7600  227.4390 C   0  0  0  0  0  0  0  0  0  0  0  0
  140.9340   70.5840  228.3320 C   0  0  0  0  0  0  0  0  0  0  0  0
  141.3770   71.8440  227.9790 C   0  0  0  0  0  0  0  0  0  0  0  0
  141.1570   72.2530  226.6850 C   0  0  0  0  0  0  0  0  0  0  0  0
  140.5150   71.4400  225.7670 C   0  0  0  0  0  0  0  0  0  0  0  0
  140.3230   71.8920  224.5080 N   0  0  0  0  0  0  0  0  0  0  0  0
  138.4800   73.4300  222.7970 H   0  0  0  0  0  0  0  0  0  0  0  0
  138.5091   72.2910  220.0427 H   0  0  0  0  0  0  0  0  0  0  0  0
  137.8294   73.9394  220.6160 H   0  0  0  0  0  0  0  0  0  0  0  0
  141.2139   71.5609  219.8077 H   0  0  0  0  0  0  0  0  0  0  0  0
  142.2416   72.3035  218.6286 H   0  0  0  0  0  0  0  0  0  0  0  0
  142.4871   72.3853  221.7243 H   0  0  0  0  0  0  0  0  0  0  0  0
  143.7414   71.8768  220.6241 H   0  0  0  0  0  0  0  0  0  0  0  0
  143.5577   74.4994  221.5598 H   0  0  0  0  0  0  0  0  0  0  0  0
  144.2243   74.1881  219.9658 H   0  0  0  0  0  0  0  0  0  0  0  0
  142.3708   75.1039  218.9941 H   0  0  0  0  0  0  0  0  0  0  0  0
  140.8491   74.8685  222.4010 H   0  0  0  0  0  0  0  0  0  0  0  0
  140.1748   76.8786  223.6385 H   0  0  0  0  0  0  0  0  0  0  0  0
  140.6345   79.1441  222.6828 H   0  0  0  0  0  0  0  0  0  0  0  0
  141.7692   79.3117  220.4738 H   0  0  0  0  0  0  0  0  0  0  0  0
  138.7632   69.2715  223.1757 H   0  0  0  0  0  0  0  0  0  0  0  0
  139.0807   68.3833  225.4740 H   0  0  0  0  0  0  0  0  0  0  0  0
  139.9539   68.7633  227.7555 H   0  0  0  0  0  0  0  0  0  0  0  0
  141.0984   70.2300  229.3604 H   0  0  0  0  0  0  0  0  0  0  0  0
  141.8860   72.4948  228.7051 H   0  0  0  0  0  0  0  0  0  0  0  0
  141.4994   73.2503  226.3717 H   0  0  0  0  0  0  0  0  0  0  0  0
  1  2  2  0
  2  3  1  0
  3  4  1  0
  4  5  1  0
  5  6  2  0
  5  7  1  0
  7  8  1  0
  8  9  1  0
  9 10  1  0
 10 11  1  0
 11 12  1  0
 12 13  2  0
 13 14  1  0
 14 15  2  0
 15 16  1  0
 16 17  2  0
 17 18  1  0
  2 19  1  0
 19 20  2  0
 20 21  1  0
 21 22  2  0
 22 23  1  0
 23 24  2  0
 24 25  1  0
 25 26  2  0
 26 27  1  0
 27 28  2  0
 11  7  1  0
 17 12  1  0
 28 19  1  0
 27 22  1  0
  3 29  1  0
  4 30  1  0
  4 31  1  0
  8 32  1  0
  8 33  1  0
  9 34  1  0
  9 35  1  0
 10 36  1  0
 10 37  1  0
 11 38  1  6
 13 39  1  0
 14 40  1  0
 15 41  1  0
 16 42  1  0
 20 43  1  0
 21 44  1  0
 23 45  1  0
 24 46  1  0
 25 47  1  0
 26 48  1  0
M  END
>  <smiles>  (22) 
O=C(NCC(=O)N1CCCC1c1ccccc1Cl)c1ccc2ccccc2n1

>  <score_type>  (22) 
oracle

>  <origin>  (22) 
autodockgpu

>  <m_score__min__energy>  (22) 
-8.7799999999999994

>  <m_primary>  (22) 
energy

>  <rmsd>  (22) 
2.633853324600818

>  <m_score__min__rmsd>  (22) 
2.633853324600818

>  <meeko>  (22) 
{"free_energy": -7.79, "intermolecular_energy": -9.28, "internal_energy": -1.83, "cluster_size": 16, "cluster_id": 1, "rank_in_cluster": 16}

>  <energy>  (22) 
-7.67

>  <cluster_rmsd>  (22) 
1.69

>  <cluster>  (22) 
3

$$$$

     RDKit          3D

 48 51  0  0  0  0  0  0  0  0999 V2000
  141.1710   72.2440  221.6150 O   0  0  0  0  0  0  0  0  0  0  0  0
  140.3120   72.3720  222.5310 C   0  0  0  0  0  0  0  0  0  0  0  0
  139.3980   73.4860  222.3390 N   0  0  0  0  0  0  0  0  0  0  0  0
  139.5950   74.2650  221.1620 C   0  0  0  0  0  0  0  0  0  0  0  0
  140.6270   75.2860  221.1540 C   0  0  0  0  0  0  0  0  0  0  0  0
  141.1680   75.4990  222.3100 O   0  0  0  0  0  0  0  0  0  0  0  0
  141.1350   76.0790  220.1040 N   0  0  0  0  0  0  0  0  0  0  0  0
  141.8680   75.7390  218.9000 C   0  0  0  0  0  0  0  0  0  0  0  0
  142.9740   76.7790  218.9590 C   0  0  0  0  0  0  0  0  0  0  0  0
  142.1980   78.0460  219.3610 C   0  0  0  0  0  0  0  0  0  0  0  0
  141.0170   77.5240  220.0720 C   0  0  2  0  0  0  0  0  0  0  0  0
  140.8190   78.1500  221.4050 C   0  0  0  0  0  0  0  0  0  0  0  0
  141.8470   78.6420  222.1790 C   0  0  0  0  0  0  0  0  0  0  0  0
  141.6530   79.2480  223.4030 C   0  0  0  0  0  0  0  0  0  0  0  0
  140.3670   79.3820  223.9040 C   0  0  0  0  0  0  0  0  0  0  0  0
  139.3110   78.8980  223.1550 C   0  0  0  0  0  0  0  0  0  0  0  0
  139.5360   78.2970  221.9340 C   0  0  0  0  0  0  0  0  0  0  0  0
  138.1970   77.6760  220.9680 Cl  0  0  0  0  0  0  0  0  0  0  0  0
  140.2080   71.5150  223.6820 C   0  0  0  0  0  0  0  0  0  0  0  0
  139.6150   70.2980  223.5580 C   0  0  0  0  0  0  0  0  0  0  0  0
  139.4860   69.4300  224.6300 C   0  0  0  0  0  0  0  0  0  0  0  0
  139.9850   69.8350  225.8560 C   0  0  0  0  0  0  0  0  0  0  0  0
  139.8990   69.0300  226.9780 C   0  0  0  0  0  0  0  0  0  0  0  0
  140.4060   69.4700  228.1750 C   0  0  0  0  0  0  0  0  0  0  0  0
  141.0100   70.7060  228.3060 C   0  0  0  0  0  0  0  0  0  0  0  0
  141.0890   71.4940  227.1810 C   0  0  0  0  0  0  0  0  0  0  0  0
  140.5840   71.0720  225.9640 C   0  0  0  0  0  0  0  0  0  0  0  0
  140.6870   71.8860  224.8900 N   0  0  0  0  0  0  0  0  0  0  0  0
  138.6520   73.6560  223.0640 H   0  0  0  0  0  0  0  0  0  0  0  0
  139.8302   73.5637  220.3478 H   0  0  0  0  0  0  0  0  0  0  0  0
  138.6601   74.8367  221.0666 H   0  0  0  0  0  0  0  0  0  0  0  0
  142.2682   74.7152  218.9416 H   0  0  0  0  0  0  0  0  0  0  0  0
  141.2709   75.7509  217.9762 H   0  0  0  0  0  0  0  0  0  0  0  0
  143.7300   76.5166  219.7138 H   0  0  0  0  0  0  0  0  0  0  0  0
  143.5373   76.8823  218.0198 H   0  0  0  0  0  0  0  0  0  0  0  0
  142.8036   78.6832  220.0222 H   0  0  0  0  0  0  0  0  0  0  0  0
  141.9319   78.6738  218.4978 H   0  0  0  0  0  0  0  0  0  0  0  0
  140.0961   77.7956  219.5352 H   0  0  0  0  0  0  0  0  0  0  0  0
  142.8758   78.5467  221.8015 H   0  0  0  0  0  0  0  0  0  0  0  0
  142.5129   79.6225  223.9778 H   0  0  0  0  0  0  0  0  0  0  0  0
  140.1909   79.8635  224.8772 H   0  0  0  0  0  0  0  0  0  0  0  0
  138.2833   78.9928  223.5355 H   0  0  0  0  0  0  0  0  0  0  0  0
  139.2254   69.9929  222.5756 H   0  0  0  0  0  0  0  0  0  0  0  0
  139.0020   68.4494  224.5106 H   0  0  0  0  0  0  0  0  0  0  0  0
  139.4253   68.0395  226.9108 H   0  0  0  0  0  0  0  0  0  0  0  0
  140.3292   68.8184  229.0579 H   0  0  0  0  0  0  0  0  0  0  0  0
  141.4118   71.0464  229.2717 H   0  0  0  0  0  0  0  0  0  0  0  0
  141.5651   72.4832  227.2508 H   0  0  0  0  0  0  0  0  0  0  0  0
  1  2  2  0
  2  3  1  0
  3  4  1  0
  4  5  1  0
  5  6  2  0
  5  7  1  0
  7  8  1  0
  8  9  1  0
  9 10  1  0
 10 11  1  0
 11 12  1  0
 12 13  2  0
 13 14  1  0
 14 15  2  0
 15 16  1  0
 16 17  2  0
 17 18  1  0
  2 19  1  0
 19 20  2  0
 20 21  1  0
 21 22  2  0
 22 23  1  0
 23 24  2  0
 24 25  1  0
 25 26  2  0
 26 27  1  0
 27 28  2  0
 11  7  1  0
 17 12  1  0
 28 19  1  0
 27 22  1  0
  3 29  1  0
  4 30  1  0
  4 31  1  0
  8 32  1  0
  8 33  1  0
  9 34  1  0
  9 35  1  0
 10 36  1  0
 10 37  1  0
 11 38  1  6
 13 39  1  0
 14 40  1  0
 15 41  1  0
 16 42  1  0
 20 43  1  0
 21 44  1  0
 23 45  1  0
 24 46  1  0
 25 47  1  0
 26 48  1  0
M  END
>  <smiles>  (23) 
O=C(NCC(=O)N1CCCC1c1ccccc1Cl)c1ccc2ccccc2n1

>  <score_type>  (23) 
oracle

>  <origin>  (23) 
autodockgpu

>  <m_score__min__energy>  (23) 
-8.7799999999999994

>  <m_primary>  (23) 
energy

>  <rmsd>  (23) 
1.8346769872574302

>  <m_score__min__rmsd>  (23) 
1.8346769872574302

>  <meeko>  (23) 
{"free_energy": -8.78, "intermolecular_energy": -10.28, "internal_energy": -1.5, "cluster_size": 16, "cluster_id": 1, "rank_in_cluster": 1}

>  <energy>  (23) 
-7.62

>  <cluster_rmsd>  (23) 
1.03

>  <cluster>  (23) 
3

$$$$

     RDKit          3D

 48 51  0  0  0  0  0  0  0  0999 V2000
  139.7880   73.3980  222.3750 O   0  0  0  0  0  0  0  0  0  0  0  0
  140.1860   72.2030  222.4600 C   0  0  0  0  0  0  0  0  0  0  0  0
  140.6940   71.6540  221.2150 N   0  0  0  0  0  0  0  0  0  0  0  0
  140.6750   72.5270  220.0880 C   0  0  0  0  0  0  0  0  0  0  0  0
  141.8280   72.5730  219.2080 C   0  0  0  0  0  0  0  0  0  0  0  0
  141.5580   72.3110  217.9710 O   0  0  0  0  0  0  0  0  0  0  0  0
  143.1850   72.8520  219.4750 N   0  0  0  0  0  0  0  0  0  0  0  0
  144.3280   71.9860  219.6870 C   0  0  0  0  0  0  0  0  0  0  0  0
  144.9280   72.6350  220.9230 C   0  0  0  0  0  0  0  0  0  0  0  0
  144.8270   74.1310  220.5790 C   0  0  0  0  0  0  0  0  0  0  0  0
  143.7040   74.1980  219.6270 C   0  0  2  0  0  0  0  0  0  0  0  0
  142.6810   75.2070  220.0070 C   0  0  0  0  0  0  0  0  0  0  0  0
  141.9620   75.1630  221.1820 C   0  0  0  0  0  0  0  0  0  0  0  0
  141.0350   76.1190  221.5400 C   0  0  0  0  0  0  0  0  0  0  0  0
  140.7950   77.1910  220.6940 C   0  0  0  0  0  0  0  0  0  0  0  0
  141.4970   77.2670  219.5070 C   0  0  0  0  0  0  0  0  0  0  0  0
  142.4180   76.2960  219.1750 C   0  0  0  0  0  0  0  0  0  0  0  0
  143.3220   76.3820  217.6620 Cl  0  0  0  0  0  0  0  0  0  0  0  0
  140.1570   71.4150  223.6630 C   0  0  0  0  0  0  0  0  0  0  0  0
  139.6420   70.1570  223.6270 C   0  0  0  0  0  0  0  0  0  0  0  0
  139.5870   69.3510  224.7520 C   0  0  0  0  0  0  0  0  0  0  0  0
  140.0790   69.8630  225.9410 C   0  0  0  0  0  0  0  0  0  0  0  0
  140.0630   69.1260  227.1120 C   0  0  0  0  0  0  0  0  0  0  0  0
  140.5610   69.6710  228.2690 C   0  0  0  0  0  0  0  0  0  0  0  0
  141.0840   70.9490  228.3110 C   0  0  0  0  0  0  0  0  0  0  0  0
  141.0940   71.6690  227.1390 C   0  0  0  0  0  0  0  0  0  0  0  0
  140.5970   71.1400  225.9600 C   0  0  0  0  0  0  0  0  0  0  0  0
  140.6300   71.8910  224.8370 N   0  0  0  0  0  0  0  0  0  0  0  0
  141.0440   70.6590  221.2080 H   0  0  0  0  0  0  0  0  0  0  0  0
  139.8116   72.2368  219.4713 H   0  0  0  0  0  0  0  0  0  0  0  0
  140.6478   73.5314  220.5358 H   0  0  0  0  0  0  0  0  0  0  0  0
  144.0224   70.9470  219.8795 H   0  0  0  0  0  0  0  0  0  0  0  0
  145.0119   71.9046  218.8293 H   0  0  0  0  0  0  0  0  0  0  0  0
  144.3463   72.3919  221.8244 H   0  0  0  0  0  0  0  0  0  0  0  0
  145.9511   72.2995  221.1480 H   0  0  0  0  0  0  0  0  0  0  0  0
  144.6138   74.7265  221.4790 H   0  0  0  0  0  0  0  0  0  0  0  0
  145.7616   74.5359  220.1635 H   0  0  0  0  0  0  0  0  0  0  0  0
  144.0528   74.5596  218.6485 H   0  0  0  0  0  0  0  0  0  0  0  0
  142.1366   74.3222  221.8694 H   0  0  0  0  0  0  0  0  0  0  0  0
  140.4892   76.0317  222.4910 H   0  0  0  0  0  0  0  0  0  0  0  0
  140.0608   77.9648  220.9626 H   0  0  0  0  0  0  0  0  0  0  0  0
  141.3200   78.1086  218.8212 H   0  0  0  0  0  0  0  0  0  0  0  0
  139.2566   69.7668  222.6735 H   0  0  0  0  0  0  0  0  0  0  0  0
  139.1658   68.3360  224.7026 H   0  0  0  0  0  0  0  0  0  0  0  0
  139.6521   68.1056  227.1156 H   0  0  0  0  0  0  0  0  0  0  0  0
  140.5432   69.0718  229.1913 H   0  0  0  0  0  0  0  0  0  0  0  0
  141.4774   71.3745  229.2460 H   0  0  0  0  0  0  0  0  0  0  0  0
  141.5064   72.6888  227.1385 H   0  0  0  0  0  0  0  0  0  0  0  0
  1  2  2  0
  2  3  1  0
  3  4  1  0
  4  5  1  0
  5  6  2  0
  5  7  1  0
  7  8  1  0
  8  9  1  0
  9 10  1  0
 10 11  1  0
 11 12  1  0
 12 13  2  0
 13 14  1  0
 14 15  2  0
 15 16  1  0
 16 17  2  0
 17 18  1  0
  2 19  1  0
 19 20  2  0
 20 21  1  0
 21 22  2  0
 22 23  1  0
 23 24  2  0
 24 25  1  0
 25 26  2  0
 26 27  1  0
 27 28  2  0
 11  7  1  0
 17 12  1  0
 28 19  1  0
 27 22  1  0
  3 29  1  0
  4 30  1  0
  4 31  1  0
  8 32  1  0
  8 33  1  0
  9 34  1  0
  9 35  1  0
 10 36  1  0
 10 37  1  0
 11 38  1  6
 13 39  1  0
 14 40  1  0
 15 41  1  0
 16 42  1  0
 20 43  1  0
 21 44  1  0
 23 45  1  0
 24 46  1  0
 25 47  1  0
 26 48  1  0
M  END
>  <smiles>  (24) 
O=C(NCC(=O)N1CCCC1c1ccccc1Cl)c1ccc2ccccc2n1

>  <score_type>  (24) 
oracle

>  <origin>  (24) 
autodockgpu

>  <m_score__min__energy>  (24) 
-8.7799999999999994

>  <m_primary>  (24) 
energy

>  <rmsd>  (24) 
3.661489698441621

>  <m_score__min__rmsd>  (24) 
3.661489698441621

>  <meeko>  (24) 
{"free_energy": -7.94, "intermolecular_energy": -9.44, "internal_energy": -1.67, "cluster_size": 9, "cluster_id": 3, "rank_in_cluster": 2}

>  <energy>  (24) 
-7.62

>  <cluster_rmsd>  (24) 
1.7

>  <cluster>  (24) 
3

$$$$

     RDKit          3D

 48 51  0  0  0  0  0  0  0  0999 V2000
  140.7210   76.9880  218.3270 O   0  0  0  0  0  0  0  0  0  0  0  0
  141.7940   76.9000  218.9860 C   0  0  0  0  0  0  0  0  0  0  0  0
  142.2020   78.1370  219.6300 N   0  0  0  0  0  0  0  0  0  0  0  0
  141.3470   79.2610  219.4320 C   0  0  0  0  0  0  0  0  0  0  0  0
  140.6830   79.8560  220.5770 C   0  0  0  0  0  0  0  0  0  0  0  0
  139.4990   80.3100  220.3220 O   0  0  0  0  0  0  0  0  0  0  0  0
  141.1110   80.0240  221.9100 N   0  0  0  0  0  0  0  0  0  0  0  0
  142.0210   80.9720  222.5230 C   0  0  0  0  0  0  0  0  0  0  0  0
  142.8620   80.0270  223.3650 C   0  0  0  0  0  0  0  0  0  0  0  0
  141.7930   79.0990  223.9670 C   0  0  0  0  0  0  0  0  0  0  0  0
  140.6870   79.1600  222.9950 C   0  0  2  0  0  0  0  0  0  0  0  0
  140.2210   77.8180  222.5600 C   0  0  0  0  0  0  0  0  0  0  0  0
  141.0680   76.7610  222.3040 C   0  0  0  0  0  0  0  0  0  0  0  0
  140.6270   75.5090  221.9280 C   0  0  0  0  0  0  0  0  0  0  0  0
  139.2670   75.2740  221.7930 C   0  0  0  0  0  0  0  0  0  0  0  0
  138.3890   76.3110  222.0410 C   0  0  0  0  0  0  0  0  0  0  0  0
  138.8590   77.5530  222.4150 C   0  0  0  0  0  0  0  0  0  0  0  0
  137.7480   78.8860  222.7350 Cl  0  0  0  0  0  0  0  0  0  0  0  0
  142.5780   75.7010  219.1170 C   0  0  0  0  0  0  0  0  0  0  0  0
  142.2120   74.5840  218.4340 C   0  0  0  0  0  0  0  0  0  0  0  0
  142.9270   73.4010  218.5200 C   0  0  0  0  0  0  0  0  0  0  0  0
  144.0470   73.3770  219.3320 C   0  0  0  0  0  0  0  0  0  0  0  0
  144.8180   72.2380  219.4760 C   0  0  0  0  0  0  0  0  0  0  0  0
  145.9220   72.2570  220.2920 C   0  0  0  0  0  0  0  0  0  0  0  0
  146.2980   73.3890  220.9880 C   0  0  0  0  0  0  0  0  0  0  0  0
  145.5220   74.5150  220.8350 C   0  0  0  0  0  0  0  0  0  0  0  0
  144.4050   74.5180  220.0180 C   0  0  0  0  0  0  0  0  0  0  0  0
  143.6760   75.6510  219.9040 N   0  0  0  0  0  0  0  0  0  0  0  0
  143.0900   78.1410  220.1990 H   0  0  0  0  0  0  0  0  0  0  0  0
  141.9564   80.0505  218.9679 H   0  0  0  0  0  0  0  0  0  0  0  0
  140.5193   78.8572  218.8304 H   0  0  0  0  0  0  0  0  0  0  0  0
  142.6279   81.4989  221.7720 H   0  0  0  0  0  0  0  0  0  0  0  0
  141.5346   81.7833  223.0845 H   0  0  0  0  0  0  0  0  0  0  0  0
  143.5752   79.4653  222.7438 H   0  0  0  0  0  0  0  0  0  0  0  0
  143.4825   80.5359  224.1173 H   0  0  0  0  0  0  0  0  0  0  0  0
  142.1746   78.0717  224.0625 H   0  0  0  0  0  0  0  0  0  0  0  0
  141.4872   79.4026  224.9791 H   0  0  0  0  0  0  0  0  0  0  0  0
  139.7896   79.5894  223.4643 H   0  0  0  0  0  0  0  0  0  0  0  0
  142.1512   76.9242  222.4047 H   0  0  0  0  0  0  0  0  0  0  0  0
  141.3497   74.7022  221.7365 H   0  0  0  0  0  0  0  0  0  0  0  0
  138.8953   74.2826  221.4947 H   0  0  0  0  0  0  0  0  0  0  0  0
  137.3063   76.1452  221.9395 H   0  0  0  0  0  0  0  0  0  0  0  0
  141.3193   74.6210  217.7924 H   0  0  0  0  0  0  0  0  0  0  0  0
  142.6140   72.5076  217.9598 H   0  0  0  0  0  0  0  0  0  0  0  0
  144.5471   71.3179  218.9374 H   0  0  0  0  0  0  0  0  0  0  0  0
  146.5253   71.3429  220.3945 H   0  0  0  0  0  0  0  0  0  0  0  0
  147.1841   73.3905  221.6398 H   0  0  0  0  0  0  0  0  0  0  0  0
  145.7958   75.4337  221.3744 H   0  0  0  0  0  0  0  0  0  0  0  0
  1  2  2  0
  2  3  1  0
  3  4  1  0
  4  5  1  0
  5  6  2  0
  5  7  1  0
  7  8  1  0
  8  9  1  0
  9 10  1  0
 10 11  1  0
 11 12  1  0
 12 13  2  0
 13 14  1  0
 14 15  2  0
 15 16  1  0
 16 17  2  0
 17 18  1  0
  2 19  1  0
 19 20  2  0
 20 21  1  0
 21 22  2  0
 22 23  1  0
 23 24  2  0
 24 25  1  0
 25 26  2  0
 26 27  1  0
 27 28  2  0
 11  7  1  0
 17 12  1  0
 28 19  1  0
 27 22  1  0
  3 29  1  0
  4 30  1  0
  4 31  1  0
  8 32  1  0
  8 33  1  0
  9 34  1  0
  9 35  1  0
 10 36  1  0
 10 37  1  0
 11 38  1  1
 13 39  1  0
 14 40  1  0
 15 41  1  0
 16 42  1  0
 20 43  1  0
 21 44  1  0
 23 45  1  0
 24 46  1  0
 25 47  1  0
 26 48  1  0
M  END
>  <smiles>  (25) 
O=C(NCC(=O)N1CCCC1c1ccccc1Cl)c1ccc2ccccc2n1

>  <score_type>  (25) 
oracle

>  <origin>  (25) 
autodockgpu

>  <m_score__min__energy>  (25) 
-8.7799999999999994

>  <m_primary>  (25) 
energy

>  <rmsd>  (25) 
7.521189010549325

>  <m_score__min__rmsd>  (25) 
7.521189010549325

>  <meeko>  (25) 
{"free_energy": -7.21, "intermolecular_energy": -8.71, "internal_energy": -2.63, "cluster_size": 14, "cluster_id": 8, "rank_in_cluster": 5}

>  <energy>  (25) 
-7.59

>  <cluster_rmsd>  (25) 
1.69

>  <cluster>  (25) 
3

$$$$

     RDKit          3D

 48 51  0  0  0  0  0  0  0  0999 V2000
  134.1130   69.6880  226.7660 O   0  0  0  0  0  0  0  0  0  0  0  0
  134.2990   70.8380  226.2800 C   0  0  0  0  0  0  0  0  0  0  0  0
  135.3840   70.9090  225.3150 N   0  0  0  0  0  0  0  0  0  0  0  0
  136.0760   69.6900  225.0560 C   0  0  0  0  0  0  0  0  0  0  0  0
  137.1850   69.6900  224.1210 C   0  0  0  0  0  0  0  0  0  0  0  0
  137.2970   68.5990  223.4350 O   0  0  0  0  0  0  0  0  0  0  0  0
  138.1560   70.6730  223.8380 N   0  0  0  0  0  0  0  0  0  0  0  0
  138.3010   71.6000  222.7320 C   0  0  0  0  0  0  0  0  0  0  0  0
  139.7730   71.4020  222.4100 C   0  0  0  0  0  0  0  0  0  0  0  0
  140.4050   71.3740  223.8120 C   0  0  0  0  0  0  0  0  0  0  0  0
  139.3070   70.9200  224.6840 C   0  0  2  0  0  0  0  0  0  0  0  0
  139.6870   69.7720  225.5470 C   0  0  0  0  0  0  0  0  0  0  0  0
  139.5620   68.4540  225.1650 C   0  0  0  0  0  0  0  0  0  0  0  0
  139.9440   67.3930  225.9600 C   0  0  0  0  0  0  0  0  0  0  0  0
  140.4860   67.6370  227.2130 C   0  0  0  0  0  0  0  0  0  0  0  0
  140.6260   68.9470  227.6290 C   0  0  0  0  0  0  0  0  0  0  0  0
  140.2350   69.9870  226.8120 C   0  0  0  0  0  0  0  0  0  0  0  0
  140.4090   71.6650  227.3320 Cl  0  0  0  0  0  0  0  0  0  0  0  0
  133.5300   72.0050  226.6200 C   0  0  0  0  0  0  0  0  0  0  0  0
  132.3080   71.8570  227.1960 C   0  0  0  0  0  0  0  0  0  0  0  0
  131.5220   72.9420  227.5450 C   0  0  0  0  0  0  0  0  0  0  0  0
  132.0160   74.2100  227.2920 C   0  0  0  0  0  0  0  0  0  0  0  0
  131.2980   75.3490  227.6090 C   0  0  0  0  0  0  0  0  0  0  0  0
  131.8250   76.5870  227.3410 C   0  0  0  0  0  0  0  0  0  0  0  0
  133.0670   76.7430  226.7560 C   0  0  0  0  0  0  0  0  0  0  0  0
  133.7700   75.6020  226.4470 C   0  0  0  0  0  0  0  0  0  0  0  0
  133.2580   74.3430  226.7080 C   0  0  0  0  0  0  0  0  0  0  0  0
  133.9900   73.2540  226.3830 N   0  0  0  0  0  0  0  0  0  0  0  0
  135.6000   71.8380  224.8670 H   0  0  0  0  0  0  0  0  0  0  0  0
  136.4681   69.3322  226.0195 H   0  0  0  0  0  0  0  0  0  0  0  0
  135.3201   69.0597  224.5648 H   0  0  0  0  0  0  0  0  0  0  0  0
  137.6573   71.3260  221.8831 H   0  0  0  0  0  0  0  0  0  0  0  0
  138.0123   72.6373  222.9571 H   0  0  0  0  0  0  0  0  0  0  0  0
  139.9417   70.4550  221.8764 H   0  0  0  0  0  0  0  0  0  0  0  0
  140.1911   72.1763  221.7500 H   0  0  0  0  0  0  0  0  0  0  0  0
  141.2497   70.6703  223.8470 H   0  0  0  0  0  0  0  0  0  0  0  0
  140.8124   72.3500  224.1144 H   0  0  0  0  0  0  0  0  0  0  0  0
  139.0526   71.7014  225.4153 H   0  0  0  0  0  0  0  0  0  0  0  0
  139.1355   68.2364  224.1747 H   0  0  0  0  0  0  0  0  0  0  0  0
  139.8195   66.3603  225.6023 H   0  0  0  0  0  0  0  0  0  0  0  0
  140.7978   66.8052  227.8618 H   0  0  0  0  0  0  0  0  0  0  0  0
  141.0528   69.1622  228.6197 H   0  0  0  0  0  0  0  0  0  0  0  0
  131.9312   70.8422  227.3913 H   0  0  0  0  0  0  0  0  0  0  0  0
  130.5348   72.8006  228.0093 H   0  0  0  0  0  0  0  0  0  0  0  0
  130.3056   75.2623  228.0754 H   0  0  0  0  0  0  0  0  0  0  0  0
  131.2411   77.4826  227.5997 H   0  0  0  0  0  0  0  0  0  0  0  0
  133.4778   77.7415  226.5455 H   0  0  0  0  0  0  0  0  0  0  0  0
  134.7626   75.6922  225.9815 H   0  0  0  0  0  0  0  0  0  0  0  0
  1  2  2  0
  2  3  1  0
  3  4  1  0
  4  5  1  0
  5  6  2  0
  5  7  1  0
  7  8  1  0
  8  9  1  0
  9 10  1  0
 10 11  1  0
 11 12  1  0
 12 13  2  0
 13 14  1  0
 14 15  2  0
 15 16  1  0
 16 17  2  0
 17 18  1  0
  2 19  1  0
 19 20  2  0
 20 21  1  0
 21 22  2  0
 22 23  1  0
 23 24  2  0
 24 25  1  0
 25 26  2  0
 26 27  1  0
 27 28  2  0
 11  7  1  0
 17 12  1  0
 28 19  1  0
 27 22  1  0
  3 29  1  0
  4 30  1  0
  4 31  1  0
  8 32  1  0
  8 33  1  0
  9 34  1  0
  9 35  1  0
 10 36  1  0
 10 37  1  0
 11 38  1  1
 13 39  1  0
 14 40  1  0
 15 41  1  0
 16 42  1  0
 20 43  1  0
 21 44  1  0
 23 45  1  0
 24 46  1  0
 25 47  1  0
 26 48  1  0
M  END
>  <smiles>  (26) 
O=C(NCC(=O)N1CCCC1c1ccccc1Cl)c1ccc2ccccc2n1

>  <score_type>  (26) 
oracle

>  <origin>  (26) 
autodockgpu

>  <m_score__min__energy>  (26) 
-8.7799999999999994

>  <m_primary>  (26) 
energy

>  <rmsd>  (26) 
7.990226806065737

>  <m_score__min__rmsd>  (26) 
7.990226806065737

>  <meeko>  (26) 
{"free_energy": -8.63, "intermolecular_energy": -10.12, "internal_energy": -1.3, "cluster_size": 3, "cluster_id": 2, "rank_in_cluster": 2}

>  <energy>  (26) 
-7.57

>  <cluster_rmsd>  (26) 
1.55

>  <cluster>  (26) 
3

$$$$

     RDKit          3D

 48 51  0  0  0  0  0  0  0  0999 V2000
  140.9440   71.8490  221.3970 O   0  0  0  0  0  0  0  0  0  0  0  0
  140.3520   72.2470  222.4390 C   0  0  0  0  0  0  0  0  0  0  0  0
  139.7970   73.5860  222.3350 N   0  0  0  0  0  0  0  0  0  0  0  0
  139.9950   74.2540  221.0910 C   0  0  0  0  0  0  0  0  0  0  0  0
  140.8880   75.3960  221.0350 C   0  0  0  0  0  0  0  0  0  0  0  0
  141.4230   75.7030  222.1720 O   0  0  0  0  0  0  0  0  0  0  0  0
  141.2670   76.2220  219.9560 N   0  0  0  0  0  0  0  0  0  0  0  0
  141.9050   75.9260  218.6880 C   0  0  0  0  0  0  0  0  0  0  0  0
  142.9660   77.0130  218.6650 C   0  0  0  0  0  0  0  0  0  0  0  0
  142.1760   78.2410  219.1520 C   0  0  0  0  0  0  0  0  0  0  0  0
  141.0860   77.6600  219.9560 C   0  0  2  0  0  0  0  0  0  0  0  0
  140.9800   78.2630  221.3100 C   0  0  0  0  0  0  0  0  0  0  0  0
  142.0500   78.7930  221.9970 C   0  0  0  0  0  0  0  0  0  0  0  0
  141.9390   79.3760  223.2420 C   0  0  0  0  0  0  0  0  0  0  0  0
  140.6980   79.4470  223.8570 C   0  0  0  0  0  0  0  0  0  0  0  0
  139.6030   78.9250  223.1980 C   0  0  0  0  0  0  0  0  0  0  0  0
  139.7440   78.3470  221.9530 C   0  0  0  0  0  0  0  0  0  0  0  0
  138.3520   77.6770  221.1000 Cl  0  0  0  0  0  0  0  0  0  0  0  0
  140.2130   71.4760  223.6460 C   0  0  0  0  0  0  0  0  0  0  0  0
  139.5800   70.2740  223.6030 C   0  0  0  0  0  0  0  0  0  0  0  0
  139.4160   69.4880  224.7320 C   0  0  0  0  0  0  0  0  0  0  0  0
  139.9220   69.9600  225.9300 C   0  0  0  0  0  0  0  0  0  0  0  0
  139.8030   69.2400  227.1050 C   0  0  0  0  0  0  0  0  0  0  0  0
  140.3190   69.7450  228.2730 C   0  0  0  0  0  0  0  0  0  0  0  0
  140.9630   70.9660  228.3210 C   0  0  0  0  0  0  0  0  0  0  0  0
  141.0750   71.6710  227.1450 C   0  0  0  0  0  0  0  0  0  0  0  0
  140.5620   71.1820  225.9560 C   0  0  0  0  0  0  0  0  0  0  0  0
  140.6980   71.9150  224.8290 N   0  0  0  0  0  0  0  0  0  0  0  0
  139.2880   73.9860  223.1670 H   0  0  0  0  0  0  0  0  0  0  0  0
  140.3839   73.5069  220.3834 H   0  0  0  0  0  0  0  0  0  0  0  0
  139.0077   74.6827  220.8643 H   0  0  0  0  0  0  0  0  0  0  0  0
  142.3508   74.9204  218.6805 H   0  0  0  0  0  0  0  0  0  0  0  0
  141.2293   75.9204  217.8201 H   0  0  0  0  0  0  0  0  0  0  0  0
  143.7962   76.7758  219.3465 H   0  0  0  0  0  0  0  0  0  0  0  0
  143.4386   77.1510  217.6813 H   0  0  0  0  0  0  0  0  0  0  0  0
  142.8102   78.8966  219.7668 H   0  0  0  0  0  0  0  0  0  0  0  0
  141.8085   78.8664  218.3250 H   0  0  0  0  0  0  0  0  0  0  0  0
  140.1104   77.8964  219.5062 H   0  0  0  0  0  0  0  0  0  0  0  0
  143.0442   78.7490  221.5284 H   0  0  0  0  0  0  0  0  0  0  0  0
  142.8294   79.7822  223.7441 H   0  0  0  0  0  0  0  0  0  0  0  0
  140.5885   79.9095  224.8490 H   0  0  0  0  0  0  0  0  0  0  0  0
  138.6101   78.9702  223.6692 H   0  0  0  0  0  0  0  0  0  0  0  0
  139.1855   69.9139  222.6414 H   0  0  0  0  0  0  0  0  0  0  0  0
  138.8993   68.5184  224.6776 H   0  0  0  0  0  0  0  0  0  0  0  0
  139.2956   68.2640  227.1038 H   0  0  0  0  0  0  0  0  0  0  0  0
  140.2164   69.1594  229.1985 H   0  0  0  0  0  0  0  0  0  0  0  0
  141.3708   71.3597  229.2637 H   0  0  0  0  0  0  0  0  0  0  0  0
  141.5841   72.6461  227.1497 H   0  0  0  0  0  0  0  0  0  0  0  0
  1  2  2  0
  2  3  1  0
  3  4  1  0
  4  5  1  0
  5  6  2  0
  5  7  1  0
  7  8  1  0
  8  9  1  0
  9 10  1  0
 10 11  1  0
 11 12  1  0
 12 13  2  0
 13 14  1  0
 14 15  2  0
 15 16  1  0
 16 17  2  0
 17 18  1  0
  2 19  1  0
 19 20  2  0
 20 21  1  0
 21 22  2  0
 22 23  1  0
 23 24  2  0
 24 25  1  0
 25 26  2  0
 26 27  1  0
 27 28  2  0
 11  7  1  0
 17 12  1  0
 28 19  1  0
 27 22  1  0
  3 29  1  0
  4 30  1  0
  4 31  1  0
  8 32  1  0
  8 33  1  0
  9 34  1  0
  9 35  1  0
 10 36  1  0
 10 37  1  0
 11 38  1  6
 13 39  1  0
 14 40  1  0
 15 41  1  0
 16 42  1  0
 20 43  1  0
 21 44  1  0
 23 45  1  0
 24 46  1  0
 25 47  1  0
 26 48  1  0
M  END
>  <smiles>  (27) 
O=C(NCC(=O)N1CCCC1c1ccccc1Cl)c1ccc2ccccc2n1

>  <score_type>  (27) 
oracle

>  <origin>  (27) 
autodockgpu

>  <m_score__min__energy>  (27) 
-8.7799999999999994

>  <m_primary>  (27) 
energy

>  <rmsd>  (27) 
1.8942104303670761

>  <m_score__min__rmsd>  (27) 
1.8942104303670761

>  <meeko>  (27) 
{"free_energy": -8.71, "intermolecular_energy": -10.2, "internal_energy": -1.47, "cluster_size": 16, "cluster_id": 1, "rank_in_cluster": 3}

>  <energy>  (27) 
-7.55

>  <cluster_rmsd>  (27) 
1.66

>  <cluster>  (27) 
3

$$$$

     RDKit          3D

 48 51  0  0  0  0  0  0  0  0999 V2000
  140.8700   71.7460  221.3510 O   0  0  0  0  0  0  0  0  0  0  0  0
  140.3770   72.1970  222.4220 C   0  0  0  0  0  0  0  0  0  0  0  0
  139.9510   73.5840  222.3450 N   0  0  0  0  0  0  0  0  0  0  0  0
  140.1460   74.2330  221.0910 C   0  0  0  0  0  0  0  0  0  0  0  0
  140.9470   75.4410  221.0360 C   0  0  0  0  0  0  0  0  0  0  0  0
  141.4110   75.8190  222.1830 O   0  0  0  0  0  0  0  0  0  0  0  0
  141.3010   76.2680  219.9490 N   0  0  0  0  0  0  0  0  0  0  0  0
  141.9170   75.9740  218.6700 C   0  0  0  0  0  0  0  0  0  0  0  0
  142.9710   77.0670  218.6250 C   0  0  0  0  0  0  0  0  0  0  0  0
  142.1840   78.2910  219.1250 C   0  0  0  0  0  0  0  0  0  0  0  0
  141.1120   77.7060  219.9500 C   0  0  2  0  0  0  0  0  0  0  0  0
  141.0270   78.3090  221.3050 C   0  0  0  0  0  0  0  0  0  0  0  0
  142.1090   78.8370  221.9750 C   0  0  0  0  0  0  0  0  0  0  0  0
  142.0190   79.4220  223.2220 C   0  0  0  0  0  0  0  0  0  0  0  0
  140.7870   79.4960  223.8550 C   0  0  0  0  0  0  0  0  0  0  0  0
  139.6810   78.9760  223.2130 C   0  0  0  0  0  0  0  0  0  0  0  0
  139.8020   78.3970  221.9660 C   0  0  0  0  0  0  0  0  0  0  0  0
  138.3960   77.7290  221.1350 Cl  0  0  0  0  0  0  0  0  0  0  0  0
  140.2290   71.4400  223.6370 C   0  0  0  0  0  0  0  0  0  0  0  0
  139.5960   70.2380  223.6040 C   0  0  0  0  0  0  0  0  0  0  0  0
  139.4230   69.4650  224.7400 C   0  0  0  0  0  0  0  0  0  0  0  0
  139.9200   69.9510  225.9370 C   0  0  0  0  0  0  0  0  0  0  0  0
  139.7910   69.2440  227.1190 C   0  0  0  0  0  0  0  0  0  0  0  0
  140.2990   69.7620  228.2840 C   0  0  0  0  0  0  0  0  0  0  0  0
  140.9430   70.9840  228.3230 C   0  0  0  0  0  0  0  0  0  0  0  0
  141.0640   71.6750  227.1400 C   0  0  0  0  0  0  0  0  0  0  0  0
  140.5600   71.1720  225.9530 C   0  0  0  0  0  0  0  0  0  0  0  0
  140.7050   71.8920  224.8190 N   0  0  0  0  0  0  0  0  0  0  0  0
  139.5300   74.0300  223.2020 H   0  0  0  0  0  0  0  0  0  0  0  0
  140.6214   73.5014  220.4211 H   0  0  0  0  0  0  0  0  0  0  0  0
  139.1378   74.5750  220.8141 H   0  0  0  0  0  0  0  0  0  0  0  0
  142.3686   74.9711  218.6557 H   0  0  0  0  0  0  0  0  0  0  0  0
  141.2251   75.9632  217.8150 H   0  0  0  0  0  0  0  0  0  0  0  0
  143.8155   76.8356  219.2908 H   0  0  0  0  0  0  0  0  0  0  0  0
  143.4236   77.2061  217.6321 H   0  0  0  0  0  0  0  0  0  0  0  0
  142.8262   78.9507  219.7270 H   0  0  0  0  0  0  0  0  0  0  0  0
  141.7979   78.9131  218.3041 H   0  0  0  0  0  0  0  0  0  0  0  0
  140.1275   77.9380  219.5175 H   0  0  0  0  0  0  0  0  0  0  0  0
  143.0957   78.7899  221.4911 H   0  0  0  0  0  0  0  0  0  0  0  0
  142.9178   79.8266  223.7102 H   0  0  0  0  0  0  0  0  0  0  0  0
  140.6932   79.9595  224.8481 H   0  0  0  0  0  0  0  0  0  0  0  0
  138.6954   79.0235  223.6992 H   0  0  0  0  0  0  0  0  0  0  0  0
  139.2084   69.8669  222.6438 H   0  0  0  0  0  0  0  0  0  0  0  0
  138.9067   68.4949  224.6925 H   0  0  0  0  0  0  0  0  0  0  0  0
  139.2823   68.2687  227.1252 H   0  0  0  0  0  0  0  0  0  0  0  0
  140.1902   69.1868  229.2153 H   0  0  0  0  0  0  0  0  0  0  0  0
  141.3435   71.3886  229.2642 H   0  0  0  0  0  0  0  0  0  0  0  0
  141.5731   72.6501  227.1371 H   0  0  0  0  0  0  0  0  0  0  0  0
  1  2  2  0
  2  3  1  0
  3  4  1  0
  4  5  1  0
  5  6  2  0
  5  7  1  0
  7  8  1  0
  8  9  1  0
  9 10  1  0
 10 11  1  0
 11 12  1  0
 12 13  2  0
 13 14  1  0
 14 15  2  0
 15 16  1  0
 16 17  2  0
 17 18  1  0
  2 19  1  0
 19 20  2  0
 20 21  1  0
 21 22  2  0
 22 23  1  0
 23 24  2  0
 24 25  1  0
 25 26  2  0
 26 27  1  0
 27 28  2  0
 11  7  1  0
 17 12  1  0
 28 19  1  0
 27 22  1  0
  3 29  1  0
  4 30  1  0
  4 31  1  0
  8 32  1  0
  8 33  1  0
  9 34  1  0
  9 35  1  0
 10 36  1  0
 10 37  1  0
 11 38  1  6
 13 39  1  0
 14 40  1  0
 15 41  1  0
 16 42  1  0
 20 43  1  0
 21 44  1  0
 23 45  1  0
 24 46  1  0
 25 47  1  0
 26 48  1  0
M  END
>  <smiles>  (28) 
O=C(NCC(=O)N1CCCC1c1ccccc1Cl)c1ccc2ccccc2n1

>  <score_type>  (28) 
oracle

>  <origin>  (28) 
autodockgpu

>  <m_score__min__energy>  (28) 
-8.7799999999999994

>  <m_primary>  (28) 
energy

>  <rmsd>  (28) 
1.9208326866684016

>  <m_score__min__rmsd>  (28) 
1.9208326866684016

>  <meeko>  (28) 
{"free_energy": -8.71, "intermolecular_energy": -10.2, "internal_energy": -1.43, "cluster_size": 16, "cluster_id": 1, "rank_in_cluster": 5}

>  <energy>  (28) 
-7.52

>  <cluster_rmsd>  (28) 
1.69

>  <cluster>  (28) 
3

$$$$

     RDKit          3D

 48 51  0  0  0  0  0  0  0  0999 V2000
  141.5100   71.9080  221.6020 O   0  0  0  0  0  0  0  0  0  0  0  0
  140.6320   72.2250  222.4510 C   0  0  0  0  0  0  0  0  0  0  0  0
  139.9450   73.4720  222.1610 N   0  0  0  0  0  0  0  0  0  0  0  0
  140.3510   74.1530  220.9770 C   0  0  0  0  0  0  0  0  0  0  0  0
  141.2580   75.2820  221.0850 C   0  0  0  0  0  0  0  0  0  0  0  0
  141.4010   75.7290  222.2900 O   0  0  0  0  0  0  0  0  0  0  0  0
  142.0010   75.9680  220.1020 N   0  0  0  0  0  0  0  0  0  0  0  0
  141.8690   77.2980  219.5410 C   0  0  0  0  0  0  0  0  0  0  0  0
  141.9910   76.9770  218.0620 C   0  0  0  0  0  0  0  0  0  0  0  0
  143.1560   75.9720  218.0490 C   0  0  0  0  0  0  0  0  0  0  0  0
  143.1210   75.3760  219.3960 C   0  0  2  0  0  0  0  0  0  0  0  0
  143.1120   73.8900  219.3740 C   0  0  0  0  0  0  0  0  0  0  0  0
  142.1580   73.1420  218.7190 C   0  0  0  0  0  0  0  0  0  0  0  0
  142.1720   71.7620  218.6780 C   0  0  0  0  0  0  0  0  0  0  0  0
  143.1870   71.0690  219.3200 C   0  0  0  0  0  0  0  0  0  0  0  0
  144.1600   71.7870  219.9870 C   0  0  0  0  0  0  0  0  0  0  0  0
  144.1200   73.1660  220.0100 C   0  0  0  0  0  0  0  0  0  0  0  0
  145.3580   74.0950  220.8580 Cl  0  0  0  0  0  0  0  0  0  0  0  0
  140.3050   71.4500  223.6190 C   0  0  0  0  0  0  0  0  0  0  0  0
  139.5990   70.2970  223.4810 C   0  0  0  0  0  0  0  0  0  0  0  0
  139.2550   69.5100  224.5670 C   0  0  0  0  0  0  0  0  0  0  0  0
  139.6540   69.9290  225.8250 C   0  0  0  0  0  0  0  0  0  0  0  0
  139.3530   69.2040  226.9630 C   0  0  0  0  0  0  0  0  0  0  0  0
  139.7680   69.6550  228.1920 C   0  0  0  0  0  0  0  0  0  0  0  0
  140.4850   70.8270  228.3370 C   0  0  0  0  0  0  0  0  0  0  0  0
  140.7770   71.5370  227.1960 C   0  0  0  0  0  0  0  0  0  0  0  0
  140.3690   71.1010  225.9470 C   0  0  0  0  0  0  0  0  0  0  0  0
  140.6820   71.8380  224.8580 N   0  0  0  0  0  0  0  0  0  0  0  0
  139.1970   73.8020  222.8270 H   0  0  0  0  0  0  0  0  0  0  0  0
  140.8390   73.4094  220.3298 H   0  0  0  0  0  0  0  0  0  0  0  0
  139.4196   74.6007  220.6002 H   0  0  0  0  0  0  0  0  0  0  0  0
  140.8941   77.7471  219.7817 H   0  0  0  0  0  0  0  0  0  0  0  0
  142.5972   78.0322  219.9161 H   0  0  0  0  0  0  0  0  0  0  0  0
  141.0672   76.5233  217.6738 H   0  0  0  0  0  0  0  0  0  0  0  0
  142.1596   77.8603  217.4284 H   0  0  0  0  0  0  0  0  0  0  0  0
  143.0025   75.2040  217.2766 H   0  0  0  0  0  0  0  0  0  0  0  0
  144.1223   76.4439  217.8176 H   0  0  0  0  0  0  0  0  0  0  0  0
  144.0490   75.6062  219.9399 H   0  0  0  0  0  0  0  0  0  0  0  0
  141.3438   73.6713  218.2024 H   0  0  0  0  0  0  0  0  0  0  0  0
  141.3833   71.2160  218.1397 H   0  0  0  0  0  0  0  0  0  0  0  0
  143.2166   69.9696  219.2985 H   0  0  0  0  0  0  0  0  0  0  0  0
  144.9728   71.2557  220.5037 H   0  0  0  0  0  0  0  0  0  0  0  0
  139.2909   69.9787  222.4741 H   0  0  0  0  0  0  0  0  0  0  0  0
  138.6822   68.5803  224.4345 H   0  0  0  0  0  0  0  0  0  0  0  0
  138.7819   68.2672  226.8842 H   0  0  0  0  0  0  0  0  0  0  0  0
  139.5222   69.0655  229.0876 H   0  0  0  0  0  0  0  0  0  0  0  0
  140.8099   71.1788  229.3273 H   0  0  0  0  0  0  0  0  0  0  0  0
  141.3482   72.4735  227.2777 H   0  0  0  0  0  0  0  0  0  0  0  0
  1  2  2  0
  2  3  1  0
  3  4  1  0
  4  5  1  0
  5  6  2  0
  5  7  1  0
  7  8  1  0
  8  9  1  0
  9 10  1  0
 10 11  1  0
 11 12  1  0
 12 13  2  0
 13 14  1  0
 14 15  2  0
 15 16  1  0
 16 17  2  0
 17 18  1  0
  2 19  1  0
 19 20  2  0
 20 21  1  0
 21 22  2  0
 22 23  1  0
 23 24  2  0
 24 25  1  0
 25 26  2  0
 26 27  1  0
 27 28  2  0
 11  7  1  0
 17 12  1  0
 28 19  1  0
 27 22  1  0
  3 29  1  0
  4 30  1  0
  4 31  1  0
  8 32  1  0
  8 33  1  0
  9 34  1  0
  9 35  1  0
 10 36  1  0
 10 37  1  0
 11 38  1  1
 13 39  1  0
 14 40  1  0
 15 41  1  0
 16 42  1  0
 20 43  1  0
 21 44  1  0
 23 45  1  0
 24 46  1  0
 25 47  1  0
 26 48  1  0
M  END
>  <smiles>  (29) 
O=C(NCC(=O)N1CCCC1c1ccccc1Cl)c1ccc2ccccc2n1

>  <score_type>  (29) 
oracle

>  <origin>  (29) 
autodockgpu

>  <m_score__min__energy>  (29) 
-8.7799999999999994

>  <m_primary>  (29) 
energy

>  <rmsd>  (29) 
2.2856447341847135

>  <m_score__min__rmsd>  (29) 
2.2856447341847135

>  <meeko>  (29) 
{"free_energy": -7.92, "intermolecular_energy": -9.41, "internal_energy": -1.8, "cluster_size": 1, "cluster_id": 4, "rank_in_cluster": 1}

>  <energy>  (29) 
-7.92

>  <cluster_rmsd>  (29) 
0.0

>  <cluster>  (29) 
4

$$$$

     RDKit          3D

 48 51  0  0  0  0  0  0  0  0999 V2000
  140.9680   71.8150  221.4260 O   0  0  0  0  0  0  0  0  0  0  0  0
  140.3440   72.2220  222.4460 C   0  0  0  0  0  0  0  0  0  0  0  0
  139.7890   73.5580  222.3110 N   0  0  0  0  0  0  0  0  0  0  0  0
  140.0220   74.2130  221.0660 C   0  0  0  0  0  0  0  0  0  0  0  0
  140.8750   75.3870  221.0320 C   0  0  0  0  0  0  0  0  0  0  0  0
  141.3500   75.7260  222.1860 O   0  0  0  0  0  0  0  0  0  0  0  0
  141.2670   76.2130  219.9590 N   0  0  0  0  0  0  0  0  0  0  0  0
  141.9370   75.9220  218.7060 C   0  0  0  0  0  0  0  0  0  0  0  0
  142.9850   77.0210  218.7030 C   0  0  0  0  0  0  0  0  0  0  0  0
  142.1700   78.2400  219.1680 C   0  0  0  0  0  0  0  0  0  0  0  0
  141.0690   77.6500  219.9490 C   0  0  2  0  0  0  0  0  0  0  0  0
  140.9260   78.2550  221.2980 C   0  0  0  0  0  0  0  0  0  0  0  0
  141.9780   78.7820  222.0160 C   0  0  0  0  0  0  0  0  0  0  0  0
  141.8330   79.3690  223.2560 C   0  0  0  0  0  0  0  0  0  0  0  0
  140.5740   79.4450  223.8340 C   0  0  0  0  0  0  0  0  0  0  0  0
  139.4970   78.9260  223.1430 C   0  0  0  0  0  0  0  0  0  0  0  0
  139.6720   78.3450  221.9040 C   0  0  0  0  0  0  0  0  0  0  0  0
  138.3030   77.6790  221.0120 Cl  0  0  0  0  0  0  0  0  0  0  0  0
  140.1720   71.4650  223.6570 C   0  0  0  0  0  0  0  0  0  0  0  0
  139.5100   70.2780  223.6160 C   0  0  0  0  0  0  0  0  0  0  0  0
  139.3130   69.5050  224.7480 C   0  0  0  0  0  0  0  0  0  0  0  0
  139.8160   69.9750  225.9490 C   0  0  0  0  0  0  0  0  0  0  0  0
  139.6640   69.2670  227.1280 C   0  0  0  0  0  0  0  0  0  0  0  0
  140.1780   69.7680  228.2980 C   0  0  0  0  0  0  0  0  0  0  0  0
  140.8510   70.9740  228.3450 C   0  0  0  0  0  0  0  0  0  0  0  0
  140.9950   71.6660  227.1650 C   0  0  0  0  0  0  0  0  0  0  0  0
  140.4850   71.1800  225.9740 C   0  0  0  0  0  0  0  0  0  0  0  0
  140.6520   71.9010  224.8430 N   0  0  0  0  0  0  0  0  0  0  0  0
  139.2550   73.9660  223.1230 H   0  0  0  0  0  0  0  0  0  0  0  0
  140.4713   73.4697  220.3910 H   0  0  0  0  0  0  0  0  0  0  0  0
  139.0317   74.6010  220.7853 H   0  0  0  0  0  0  0  0  0  0  0  0
  142.3949   74.9218  218.7111 H   0  0  0  0  0  0  0  0  0  0  0  0
  141.2806   75.9066  217.8234 H   0  0  0  0  0  0  0  0  0  0  0  0
  143.8026   76.7958  219.4036 H   0  0  0  0  0  0  0  0  0  0  0  0
  143.4779   77.1617  217.7297 H   0  0  0  0  0  0  0  0  0  0  0  0
  142.7825   78.9049  219.7947 H   0  0  0  0  0  0  0  0  0  0  0  0
  141.8138   78.8579  218.3305 H   0  0  0  0  0  0  0  0  0  0  0  0
  140.1015   77.8746  219.4761 H   0  0  0  0  0  0  0  0  0  0  0  0
  142.9856   78.7319  221.5775 H   0  0  0  0  0  0  0  0  0  0  0  0
  142.7096   79.7740  223.7828 H   0  0  0  0  0  0  0  0  0  0  0  0
  140.4367   79.9089  224.8219 H   0  0  0  0  0  0  0  0  0  0  0  0
  138.4907   78.9763  223.5843 H   0  0  0  0  0  0  0  0  0  0  0  0
  139.1182   69.9202  222.6524 H   0  0  0  0  0  0  0  0  0  0  0  0
  138.7738   68.5477  224.6945 H   0  0  0  0  0  0  0  0  0  0  0  0
  139.1321   68.3042  227.1277 H   0  0  0  0  0  0  0  0  0  0  0  0
  140.0503   69.1920  229.2264 H   0  0  0  0  0  0  0  0  0  0  0  0
  141.2560   71.3656  229.2898 H   0  0  0  0  0  0  0  0  0  0  0  0
  141.5280   72.6282  227.1682 H   0  0  0  0  0  0  0  0  0  0  0  0
  1  2  2  0
  2  3  1  0
  3  4  1  0
  4  5  1  0
  5  6  2  0
  5  7  1  0
  7  8  1  0
  8  9  1  0
  9 10  1  0
 10 11  1  0
 11 12  1  0
 12 13  2  0
 13 14  1  0
 14 15  2  0
 15 16  1  0
 16 17  2  0
 17 18  1  0
  2 19  1  0
 19 20  2  0
 20 21  1  0
 21 22  2  0
 22 23  1  0
 23 24  2  0
 24 25  1  0
 25 26  2  0
 26 27  1  0
 27 28  2  0
 11  7  1  0
 17 12  1  0
 28 19  1  0
 27 22  1  0
  3 29  1  0
  4 30  1  0
  4 31  1  0
  8 32  1  0
  8 33  1  0
  9 34  1  0
  9 35  1  0
 10 36  1  0
 10 37  1  0
 11 38  1  6
 13 39  1  0
 14 40  1  0
 15 41  1  0
 16 42  1  0
 20 43  1  0
 21 44  1  0
 23 45  1  0
 24 46  1  0
 25 47  1  0
 26 48  1  0
M  END
>  <smiles>  (30) 
O=C(NCC(=O)N1CCCC1c1ccccc1Cl)c1ccc2ccccc2n1

>  <score_type>  (30) 
oracle

>  <origin>  (30) 
autodockgpu

>  <m_score__min__energy>  (30) 
-8.7799999999999994

>  <m_primary>  (30) 
energy

>  <rmsd>  (30) 
1.904211619037663

>  <m_score__min__rmsd>  (30) 
1.904211619037663

>  <meeko>  (30) 
{"free_energy": -8.71, "intermolecular_energy": -10.2, "internal_energy": -1.44, "cluster_size": 16, "cluster_id": 1, "rank_in_cluster": 4}

>  <energy>  (30) 
-7.51

>  <cluster_rmsd>  (30) 
0.0

>  <cluster>  (30) 
5

$$$$

     RDKit          3D

 48 51  0  0  0  0  0  0  0  0999 V2000
  141.1980   72.5470  221.8510 O   0  0  0  0  0  0  0  0  0  0  0  0
  140.1980   72.5200  222.6200 C   0  0  0  0  0  0  0  0  0  0  0  0
  139.1450   73.4550  222.2610 N   0  0  0  0  0  0  0  0  0  0  0  0
  139.3840   74.2600  221.1090 C   0  0  0  0  0  0  0  0  0  0  0  0
  140.4300   75.2650  221.1530 C   0  0  0  0  0  0  0  0  0  0  0  0
  140.8890   75.4980  222.3400 O   0  0  0  0  0  0  0  0  0  0  0  0
  141.0240   76.0270  220.1250 N   0  0  0  0  0  0  0  0  0  0  0  0
  141.8060   75.6450  218.9650 C   0  0  0  0  0  0  0  0  0  0  0  0
  142.9480   76.6420  219.0750 C   0  0  0  0  0  0  0  0  0  0  0  0
  142.2040   77.9420  219.4250 C   0  0  0  0  0  0  0  0  0  0  0  0
  140.9670   77.4750  220.0760 C   0  0  2  0  0  0  0  0  0  0  0  0
  140.7240   78.1220  221.3910 C   0  0  0  0  0  0  0  0  0  0  0  0
  141.7280   78.5950  222.2070 C   0  0  0  0  0  0  0  0  0  0  0  0
  141.4930   79.2200  223.4150 C   0  0  0  0  0  0  0  0  0  0  0  0
  140.1890   79.3950  223.8530 C   0  0  0  0  0  0  0  0  0  0  0  0
  139.1570   78.9320  223.0600 C   0  0  0  0  0  0  0  0  0  0  0  0
  139.4220   78.3110  221.8570 C   0  0  0  0  0  0  0  0  0  0  0  0
  138.1130   77.7150  220.8350 Cl  0  0  0  0  0  0  0  0  0  0  0  0
  140.0660   71.6550  223.7630 C   0  0  0  0  0  0  0  0  0  0  0  0
  139.3320   70.5170  223.6590 C   0  0  0  0  0  0  0  0  0  0  0  0
  139.1690   69.6460  224.7250 C   0  0  0  0  0  0  0  0  0  0  0  0
  139.7850   69.9650  225.9230 C   0  0  0  0  0  0  0  0  0  0  0  0
  139.6750   69.1520  227.0360 C   0  0  0  0  0  0  0  0  0  0  0  0
  140.3010   69.5060  228.2060 C   0  0  0  0  0  0  0  0  0  0  0  0
  141.0490   70.6620  228.3150 C   0  0  0  0  0  0  0  0  0  0  0  0
  141.1500   71.4600  227.2000 C   0  0  0  0  0  0  0  0  0  0  0  0
  140.5270   71.1240  226.0100 C   0  0  0  0  0  0  0  0  0  0  0  0
  140.6570   71.9440  224.9440 N   0  0  0  0  0  0  0  0  0  0  0  0
  138.2770   73.4900  222.8580 H   0  0  0  0  0  0  0  0  0  0  0  0
  139.6303   73.5755  220.2839 H   0  0  0  0  0  0  0  0  0  0  0  0
  138.4602   74.8478  221.0040 H   0  0  0  0  0  0  0  0  0  0  0  0
  142.1624   74.6068  219.0370 H   0  0  0  0  0  0  0  0  0  0  0  0
  141.2602   75.6699  218.0103 H   0  0  0  0  0  0  0  0  0  0  0  0
  143.6519   76.3575  219.8710 H   0  0  0  0  0  0  0  0  0  0  0  0
  143.5635   76.7138  218.1661 H   0  0  0  0  0  0  0  0  0  0  0  0
  142.7990   78.5610  220.1126 H   0  0  0  0  0  0  0  0  0  0  0  0
  142.0095   78.5711  218.5439 H   0  0  0  0  0  0  0  0  0  0  0  0
  140.0874   77.7779  219.4890 H   0  0  0  0  0  0  0  0  0  0  0  0
  142.7703   78.4681  221.8791 H   0  0  0  0  0  0  0  0  0  0  0  0
  142.3348   79.5770  224.0264 H   0  0  0  0  0  0  0  0  0  0  0  0
  139.9807   79.8921  224.8119 H   0  0  0  0  0  0  0  0  0  0  0  0
  138.1156   79.0595  223.3904 H   0  0  0  0  0  0  0  0  0  0  0  0
  138.8517   70.2789  222.6985 H   0  0  0  0  0  0  0  0  0  0  0  0
  138.5689   68.7299  224.6222 H   0  0  0  0  0  0  0  0  0  0  0  0
  139.0873   68.2236  226.9844 H   0  0  0  0  0  0  0  0  0  0  0  0
  140.2037   68.8490  229.0829 H   0  0  0  0  0  0  0  0  0  0  0  0
  141.5452   70.9339  229.2583 H   0  0  0  0  0  0  0  0  0  0  0  0
  141.7395   72.3871  227.2546 H   0  0  0  0  0  0  0  0  0  0  0  0
  1  2  2  0
  2  3  1  0
  3  4  1  0
  4  5  1  0
  5  6  2  0
  5  7  1  0
  7  8  1  0
  8  9  1  0
  9 10  1  0
 10 11  1  0
 11 12  1  0
 12 13  2  0
 13 14  1  0
 14 15  2  0
 15 16  1  0
 16 17  2  0
 17 18  1  0
  2 19  1  0
 19 20  2  0
 20 21  1  0
 21 22  2  0
 22 23  1  0
 23 24  2  0
 24 25  1  0
 25 26  2  0
 26 27  1  0
 27 28  2  0
 11  7  1  0
 17 12  1  0
 28 19  1  0
 27 22  1  0
  3 29  1  0
  4 30  1  0
  4 31  1  0
  8 32  1  0
  8 33  1  0
  9 34  1  0
  9 35  1  0
 10 36  1  0
 10 37  1  0
 11 38  1  6
 13 39  1  0
 14 40  1  0
 15 41  1  0
 16 42  1  0
 20 43  1  0
 21 44  1  0
 23 45  1  0
 24 46  1  0
 25 47  1  0
 26 48  1  0
M  END
>  <smiles>  (31) 
O=C(NCC(=O)N1CCCC1c1ccccc1Cl)c1ccc2ccccc2n1

>  <score_type>  (31) 
oracle

>  <origin>  (31) 
autodockgpu

>  <m_score__min__energy>  (31) 
-8.7799999999999994

>  <m_primary>  (31) 
energy

>  <rmsd>  (31) 
1.8404075500031718

>  <m_score__min__rmsd>  (31) 
1.8404075500031718

>  <meeko>  (31) 
{"free_energy": -8.68, "intermolecular_energy": -10.17, "internal_energy": -1.45, "cluster_size": 16, "cluster_id": 1, "rank_in_cluster": 8}

>  <energy>  (31) 
-7.45

>  <cluster_rmsd>  (31) 
0.0

>  <cluster>  (31) 
6

$$$$

     RDKit          3D

 48 51  0  0  0  0  0  0  0  0999 V2000
  141.1990   72.5330  221.8940 O   0  0  0  0  0  0  0  0  0  0  0  0
  140.1910   72.5230  222.6550 C   0  0  0  0  0  0  0  0  0  0  0  0
  139.1530   73.4690  222.2810 N   0  0  0  0  0  0  0  0  0  0  0  0
  139.4120   74.2640  221.1270 C   0  0  0  0  0  0  0  0  0  0  0  0
  140.4890   75.2360  221.1630 C   0  0  0  0  0  0  0  0  0  0  0  0
  141.0020   75.4110  222.3380 O   0  0  0  0  0  0  0  0  0  0  0  0
  141.0650   76.0170  220.1400 N   0  0  0  0  0  0  0  0  0  0  0  0
  141.8670   75.6620  218.9850 C   0  0  0  0  0  0  0  0  0  0  0  0
  142.9740   76.6950  219.1020 C   0  0  0  0  0  0  0  0  0  0  0  0
  142.1860   77.9700  219.4480 C   0  0  0  0  0  0  0  0  0  0  0  0
  140.9600   77.4630  220.0900 C   0  0  2  0  0  0  0  0  0  0  0  0
  140.6870   78.1000  221.4030 C   0  0  0  0  0  0  0  0  0  0  0  0
  141.6700   78.6000  222.2300 C   0  0  0  0  0  0  0  0  0  0  0  0
  141.4070   79.2160  223.4360 C   0  0  0  0  0  0  0  0  0  0  0  0
  140.0940   79.3550  223.8620 C   0  0  0  0  0  0  0  0  0  0  0  0
  139.0830   78.8650  223.0590 C   0  0  0  0  0  0  0  0  0  0  0  0
  139.3760   78.2530  221.8580 C   0  0  0  0  0  0  0  0  0  0  0  0
  138.0930   77.6240  220.8220 Cl  0  0  0  0  0  0  0  0  0  0  0  0
  140.0400   71.6680  223.8020 C   0  0  0  0  0  0  0  0  0  0  0  0
  139.2660   70.5540  223.7090 C   0  0  0  0  0  0  0  0  0  0  0  0
  139.0830   69.6940  224.7780 C   0  0  0  0  0  0  0  0  0  0  0  0
  139.7180   69.9950  225.9700 C   0  0  0  0  0  0  0  0  0  0  0  0
  139.5900   69.1900  227.0880 C   0  0  0  0  0  0  0  0  0  0  0  0
  140.2370   69.5260  228.2510 C   0  0  0  0  0  0  0  0  0  0  0  0
  141.0240   70.6570  228.3500 C   0  0  0  0  0  0  0  0  0  0  0  0
  141.1430   71.4480  227.2310 C   0  0  0  0  0  0  0  0  0  0  0  0
  140.5000   71.1290  226.0480 C   0  0  0  0  0  0  0  0  0  0  0  0
  140.6490   71.9410  224.9770 N   0  0  0  0  0  0  0  0  0  0  0  0
  138.2810   73.5190  222.8710 H   0  0  0  0  0  0  0  0  0  0  0  0
  139.6327   73.5705  220.3021 H   0  0  0  0  0  0  0  0  0  0  0  0
  138.5068   74.8808  221.0262 H   0  0  0  0  0  0  0  0  0  0  0  0
  142.2570   74.6361  219.0590 H   0  0  0  0  0  0  0  0  0  0  0  0
  141.3267   75.6698  218.0269 H   0  0  0  0  0  0  0  0  0  0  0  0
  143.6821   76.4332  219.9021 H   0  0  0  0  0  0  0  0  0  0  0  0
  143.5920   76.7874  218.1967 H   0  0  0  0  0  0  0  0  0  0  0  0
  142.7560   78.6071  220.1403 H   0  0  0  0  0  0  0  0  0  0  0  0
  141.9774   78.5934  218.5660 H   0  0  0  0  0  0  0  0  0  0  0  0
  140.0755   77.7377  219.4966 H   0  0  0  0  0  0  0  0  0  0  0  0
  142.7185   78.5028  221.9118 H   0  0  0  0  0  0  0  0  0  0  0  0
  142.2331   79.5946  224.0559 H   0  0  0  0  0  0  0  0  0  0  0  0
  139.8631   79.8452  224.8193 H   0  0  0  0  0  0  0  0  0  0  0  0
  138.0354   78.9635  223.3797 H   0  0  0  0  0  0  0  0  0  0  0  0
  138.7694   70.3290  222.7536 H   0  0  0  0  0  0  0  0  0  0  0  0
  138.4517   68.7982  224.6828 H   0  0  0  0  0  0  0  0  0  0  0  0
  138.9706   68.2820  227.0449 H   0  0  0  0  0  0  0  0  0  0  0  0
  140.1255   68.8751  229.1307 H   0  0  0  0  0  0  0  0  0  0  0  0
  141.5363   70.9153  229.2885 H   0  0  0  0  0  0  0  0  0  0  0  0
  141.7636   72.3550  227.2776 H   0  0  0  0  0  0  0  0  0  0  0  0
  1  2  2  0
  2  3  1  0
  3  4  1  0
  4  5  1  0
  5  6  2  0
  5  7  1  0
  7  8  1  0
  8  9  1  0
  9 10  1  0
 10 11  1  0
 11 12  1  0
 12 13  2  0
 13 14  1  0
 14 15  2  0
 15 16  1  0
 16 17  2  0
 17 18  1  0
  2 19  1  0
 19 20  2  0
 20 21  1  0
 21 22  2  0
 22 23  1  0
 23 24  2  0
 24 25  1  0
 25 26  2  0
 26 27  1  0
 27 28  2  0
 11  7  1  0
 17 12  1  0
 28 19  1  0
 27 22  1  0
  3 29  1  0
  4 30  1  0
  4 31  1  0
  8 32  1  0
  8 33  1  0
  9 34  1  0
  9 35  1  0
 10 36  1  0
 10 37  1  0
 11 38  1  6
 13 39  1  0
 14 40  1  0
 15 41  1  0
 16 42  1  0
 20 43  1  0
 21 44  1  0
 23 45  1  0
 24 46  1  0
 25 47  1  0
 26 48  1  0
M  END
>  <smiles>  (32) 
O=C(NCC(=O)N1CCCC1c1ccccc1Cl)c1ccc2ccccc2n1

>  <score_type>  (32) 
oracle

>  <origin>  (32) 
autodockgpu

>  <m_score__min__energy>  (32) 
-8.7799999999999994

>  <m_primary>  (32) 
energy

>  <rmsd>  (32) 
1.8706998452413646

>  <m_score__min__rmsd>  (32) 
1.8706998452413646

>  <meeko>  (32) 
{"free_energy": -8.63, "intermolecular_energy": -10.12, "internal_energy": -1.47, "cluster_size": 16, "cluster_id": 1, "rank_in_cluster": 10}

>  <energy>  (32) 
-7.44

>  <cluster_rmsd>  (32) 
0.02

>  <cluster>  (32) 
6

$$$$

     RDKit          3D

 48 51  0  0  0  0  0  0  0  0999 V2000
  139.9150   73.4570  222.3820 O   0  0  0  0  0  0  0  0  0  0  0  0
  140.3060   72.2610  222.4870 C   0  0  0  0  0  0  0  0  0  0  0  0
  140.8940   71.7170  221.2740 N   0  0  0  0  0  0  0  0  0  0  0  0
  140.9470   72.5960  220.1530 C   0  0  0  0  0  0  0  0  0  0  0  0
  142.1130   72.5710  219.2890 C   0  0  0  0  0  0  0  0  0  0  0  0
  141.8800   72.1090  218.1030 O   0  0  0  0  0  0  0  0  0  0  0  0
  143.4470   72.9620  219.5240 N   0  0  0  0  0  0  0  0  0  0  0  0
  144.6530   72.1940  219.7670 C   0  0  0  0  0  0  0  0  0  0  0  0
  145.2130   72.9490  220.9610 C   0  0  0  0  0  0  0  0  0  0  0  0
  145.0000   74.4140  220.5400 C   0  0  0  0  0  0  0  0  0  0  0  0
  143.8670   74.3480  219.6000 C   0  0  2  0  0  0  0  0  0  0  0  0
  142.7770   75.2980  219.9380 C   0  0  0  0  0  0  0  0  0  0  0  0
  142.0700   75.2620  221.1200 C   0  0  0  0  0  0  0  0  0  0  0  0
  141.0770   76.1660  221.4400 C   0  0  0  0  0  0  0  0  0  0  0  0
  140.7550   77.1730  220.5430 C   0  0  0  0  0  0  0  0  0  0  0  0
  141.4430   77.2400  219.3480 C   0  0  0  0  0  0  0  0  0  0  0  0
  142.4300   76.3220  219.0550 C   0  0  0  0  0  0  0  0  0  0  0  0
  143.3170   76.3970  217.5310 Cl  0  0  0  0  0  0  0  0  0  0  0  0
  140.1990   71.4670  223.6820 C   0  0  0  0  0  0  0  0  0  0  0  0
  139.5800   70.2580  223.6290 C   0  0  0  0  0  0  0  0  0  0  0  0
  139.4470   69.4490  224.7450 C   0  0  0  0  0  0  0  0  0  0  0  0
  139.9690   69.9060  225.9430 C   0  0  0  0  0  0  0  0  0  0  0  0
  139.8810   69.1630  227.1060 C   0  0  0  0  0  0  0  0  0  0  0  0
  140.4120   69.6530  228.2730 C   0  0  0  0  0  0  0  0  0  0  0  0
  141.0410   70.8810  228.3320 C   0  0  0  0  0  0  0  0  0  0  0  0
  141.1230   71.6090  227.1680 C   0  0  0  0  0  0  0  0  0  0  0  0
  140.5940   71.1340  225.9800 C   0  0  0  0  0  0  0  0  0  0  0  0
  140.7000   71.8900  224.8640 N   0  0  0  0  0  0  0  0  0  0  0  0
  141.2420   70.7220  221.2850 H   0  0  0  0  0  0  0  0  0  0  0  0
  140.0750   72.3665  219.5230 H   0  0  0  0  0  0  0  0  0  0  0  0
  140.9786   73.5976  220.6067 H   0  0  0  0  0  0  0  0  0  0  0  0
  144.4264   71.1468  220.0163 H   0  0  0  0  0  0  0  0  0  0  0  0
  145.3343   72.1182  218.9067 H   0  0  0  0  0  0  0  0  0  0  0  0
  144.6573   72.7123  221.8803 H   0  0  0  0  0  0  0  0  0  0  0  0
  146.2595   72.7011  221.1921 H   0  0  0  0  0  0  0  0  0  0  0  0
  144.7516   75.0397  221.4100 H   0  0  0  0  0  0  0  0  0  0  0  0
  145.8988   74.8631  220.0923 H   0  0  0  0  0  0  0  0  0  0  0  0
  144.1805   74.6815  218.5998 H   0  0  0  0  0  0  0  0  0  0  0  0
  142.3093   74.4716  221.8467 H   0  0  0  0  0  0  0  0  0  0  0  0
  140.5451   76.0880  222.3997 H   0  0  0  0  0  0  0  0  0  0  0  0
  139.9673   77.9037  220.7787 H   0  0  0  0  0  0  0  0  0  0  0  0
  141.2021   78.0319  218.6236 H   0  0  0  0  0  0  0  0  0  0  0  0
  139.1715   69.9110  222.6684 H   0  0  0  0  0  0  0  0  0  0  0  0
  138.9423   68.4737  224.6816 H   0  0  0  0  0  0  0  0  0  0  0  0
  139.3861   68.1807  227.0959 H   0  0  0  0  0  0  0  0  0  0  0  0
  140.3342   69.0492  229.1891 H   0  0  0  0  0  0  0  0  0  0  0  0
  141.4607   71.2625  229.2745 H   0  0  0  0  0  0  0  0  0  0  0  0
  141.6199   72.5903  227.1812 H   0  0  0  0  0  0  0  0  0  0  0  0
  1  2  2  0
  2  3  1  0
  3  4  1  0
  4  5  1  0
  5  6  2  0
  5  7  1  0
  7  8  1  0
  8  9  1  0
  9 10  1  0
 10 11  1  0
 11 12  1  0
 12 13  2  0
 13 14  1  0
 14 15  2  0
 15 16  1  0
 16 17  2  0
 17 18  1  0
  2 19  1  0
 19 20  2  0
 20 21  1  0
 21 22  2  0
 22 23  1  0
 23 24  2  0
 24 25  1  0
 25 26  2  0
 26 27  1  0
 27 28  2  0
 11  7  1  0
 17 12  1  0
 28 19  1  0
 27 22  1  0
  3 29  1  0
  4 30  1  0
  4 31  1  0
  8 32  1  0
  8 33  1  0
  9 34  1  0
  9 35  1  0
 10 36  1  0
 10 37  1  0
 11 38  1  6
 13 39  1  0
 14 40  1  0
 15 41  1  0
 16 42  1  0
 20 43  1  0
 21 44  1  0
 23 45  1  0
 24 46  1  0
 25 47  1  0
 26 48  1  0
M  END
>  <smiles>  (33) 
O=C(NCC(=O)N1CCCC1c1ccccc1Cl)c1ccc2ccccc2n1

>  <score_type>  (33) 
oracle

>  <origin>  (33) 
autodockgpu

>  <m_score__min__energy>  (33) 
-8.7799999999999994

>  <m_primary>  (33) 
energy

>  <rmsd>  (33) 
3.7340369978159753

>  <m_score__min__rmsd>  (33) 
3.7340369978159753

>  <meeko>  (33) 
{"free_energy": -8.03, "intermolecular_energy": -9.52, "internal_energy": -1.57, "cluster_size": 9, "cluster_id": 3, "rank_in_cluster": 1}

>  <energy>  (33) 
-7.38

>  <cluster_rmsd>  (33) 
0.08

>  <cluster>  (33) 
6

$$$$

     RDKit          3D

 48 51  0  0  0  0  0  0  0  0999 V2000
  139.4740   74.6370  221.8840 O   0  0  0  0  0  0  0  0  0  0  0  0
  140.6700   74.9690  221.6530 C   0  0  0  0  0  0  0  0  0  0  0  0
  140.9470   76.3810  221.8590 N   0  0  0  0  0  0  0  0  0  0  0  0
  139.8480   77.1810  222.2860 C   0  0  0  0  0  0  0  0  0  0  0  0
  139.4180   78.2930  221.4580 C   0  0  0  0  0  0  0  0  0  0  0  0
  138.3270   78.8590  221.8610 O   0  0  0  0  0  0  0  0  0  0  0  0
  139.9860   78.8540  220.2960 N   0  0  0  0  0  0  0  0  0  0  0  0
  139.9480   78.4450  218.9050 C   0  0  0  0  0  0  0  0  0  0  0  0
  141.4190   78.5780  218.5490 C   0  0  0  0  0  0  0  0  0  0  0  0
  141.7880   79.9160  219.2120 C   0  0  0  0  0  0  0  0  0  0  0  0
  140.8140   80.0440  220.3110 C   0  0  2  0  0  0  0  0  0  0  0  0
  141.4540   80.3250  221.6220 C   0  0  0  0  0  0  0  0  0  0  0  0
  142.3360   79.4670  222.2420 C   0  0  0  0  0  0  0  0  0  0  0  0
  142.9490   79.7480  223.4470 C   0  0  0  0  0  0  0  0  0  0  0  0
  142.6800   80.9480  224.0880 C   0  0  0  0  0  0  0  0  0  0  0  0
  141.7990   81.8320  223.4960 C   0  0  0  0  0  0  0  0  0  0  0  0
  141.2020   81.5240  222.2910 C   0  0  0  0  0  0  0  0  0  0  0  0
  140.0750   82.6450  221.5240 Cl  0  0  0  0  0  0  0  0  0  0  0  0
  141.7030   74.0640  221.2230 C   0  0  0  0  0  0  0  0  0  0  0  0
  141.4230   72.7390  221.1000 C   0  0  0  0  0  0  0  0  0  0  0  0
  142.3760   71.8210  220.6910 C   0  0  0  0  0  0  0  0  0  0  0  0
  143.6460   72.2880  220.4020 C   0  0  0  0  0  0  0  0  0  0  0  0
  144.6570   71.4400  219.9870 C   0  0  0  0  0  0  0  0  0  0  0  0
  145.9030   71.9450  219.7100 C   0  0  0  0  0  0  0  0  0  0  0  0
  146.1920   73.2900  219.8330 C   0  0  0  0  0  0  0  0  0  0  0  0
  145.1770   74.1220  220.2470 C   0  0  0  0  0  0  0  0  0  0  0  0
  143.9130   73.6350  220.5310 C   0  0  0  0  0  0  0  0  0  0  0  0
  142.9510   74.4950  220.9350 N   0  0  0  0  0  0  0  0  0  0  0  0
  141.9250   76.7330  221.6850 H   0  0  0  0  0  0  0  0  0  0  0  0
  138.9843   76.5087  222.3951 H   0  0  0  0  0  0  0  0  0  0  0  0
  140.2168   77.6645  223.2026 H   0  0  0  0  0  0  0  0  0  0  0  0
  139.5933   77.4097  218.7937 H   0  0  0  0  0  0  0  0  0  0  0  0
  139.2638   79.0270  218.2701 H   0  0  0  0  0  0  0  0  0  0  0  0
  142.0082   77.7486  218.9673 H   0  0  0  0  0  0  0  0  0  0  0  0
  141.6183   78.5487  217.4676 H   0  0  0  0  0  0  0  0  0  0  0  0
  142.8166   79.8901  219.6010 H   0  0  0  0  0  0  0  0  0  0  0  0
  141.7518   80.7626  218.5107 H   0  0  0  0  0  0  0  0  0  0  0  0
  140.1752   80.9259  220.1557 H   0  0  0  0  0  0  0  0  0  0  0  0
  142.5635   78.5089  221.7519 H   0  0  0  0  0  0  0  0  0  0  0  0
  143.6461   79.0248  223.8955 H   0  0  0  0  0  0  0  0  0  0  0  0
  143.1584   81.1909  225.0483 H   0  0  0  0  0  0  0  0  0  0  0  0
  141.5717   82.7887  223.9890 H   0  0  0  0  0  0  0  0  0  0  0  0
  140.4078   72.3852  221.3327 H   0  0  0  0  0  0  0  0  0  0  0  0
  142.1306   70.7527  220.5987 H   0  0  0  0  0  0  0  0  0  0  0  0
  144.4628   70.3627  219.8791 H   0  0  0  0  0  0  0  0  0  0  0  0
  146.6956   71.2574  219.3800 H   0  0  0  0  0  0  0  0  0  0  0  0
  147.1953   73.6813  219.6086 H   0  0  0  0  0  0  0  0  0  0  0  0
  145.3748   75.1987  220.3546 H   0  0  0  0  0  0  0  0  0  0  0  0
  1  2  2  0
  2  3  1  0
  3  4  1  0
  4  5  1  0
  5  6  2  0
  5  7  1  0
  7  8  1  0
  8  9  1  0
  9 10  1  0
 10 11  1  0
 11 12  1  0
 12 13  2  0
 13 14  1  0
 14 15  2  0
 15 16  1  0
 16 17  2  0
 17 18  1  0
  2 19  1  0
 19 20  2  0
 20 21  1  0
 21 22  2  0
 22 23  1  0
 23 24  2  0
 24 25  1  0
 25 26  2  0
 26 27  1  0
 27 28  2  0
 11  7  1  0
 17 12  1  0
 28 19  1  0
 27 22  1  0
  3 29  1  0
  4 30  1  0
  4 31  1  0
  8 32  1  0
  8 33  1  0
  9 34  1  0
  9 35  1  0
 10 36  1  0
 10 37  1  0
 11 38  1  6
 13 39  1  0
 14 40  1  0
 15 41  1  0
 16 42  1  0
 20 43  1  0
 21 44  1  0
 23 45  1  0
 24 46  1  0
 25 47  1  0
 26 48  1  0
M  END
>  <smiles>  (34) 
O=C(NCC(=O)N1CCCC1c1ccccc1Cl)c1ccc2ccccc2n1

>  <score_type>  (34) 
oracle

>  <origin>  (34) 
autodockgpu

>  <m_score__min__energy>  (34) 
-8.7799999999999994

>  <m_primary>  (34) 
energy

>  <rmsd>  (34) 
5.770688385523482

>  <m_score__min__rmsd>  (34) 
5.770688385523482

>  <meeko>  (34) 
{"free_energy": -7.33, "intermolecular_energy": -8.82, "internal_energy": -1.94, "cluster_size": 1, "cluster_id": 7, "rank_in_cluster": 1}

>  <energy>  (34) 
-7.17

>  <cluster_rmsd>  (34) 
0.37

>  <cluster>  (34) 
6

$$$$

     RDKit          3D

 48 51  0  0  0  0  0  0  0  0999 V2000
  139.2210   70.8770  221.3370 O   0  0  0  0  0  0  0  0  0  0  0  0
  139.2990   71.5900  222.3760 C   0  0  0  0  0  0  0  0  0  0  0  0
  139.0140   72.9980  222.1540 N   0  0  0  0  0  0  0  0  0  0  0  0
  138.6900   73.3710  220.8170 C   0  0  0  0  0  0  0  0  0  0  0  0
  139.7520   73.8010  219.9250 C   0  0  0  0  0  0  0  0  0  0  0  0
  139.3650   74.6210  219.0030 O   0  0  0  0  0  0  0  0  0  0  0  0
  141.1240   73.4740  219.8950 N   0  0  0  0  0  0  0  0  0  0  0  0
  141.8150   72.2070  219.7590 C   0  0  0  0  0  0  0  0  0  0  0  0
  142.8360   72.3390  220.8760 C   0  0  0  0  0  0  0  0  0  0  0  0
  143.3150   73.7900  220.7000 C   0  0  0  0  0  0  0  0  0  0  0  0
  142.1780   74.4590  220.0430 C   0  0  2  0  0  0  0  0  0  0  0  0
  141.7570   75.7030  220.7380 C   0  0  0  0  0  0  0  0  0  0  0  0
  141.0910   75.7180  221.9440 C   0  0  0  0  0  0  0  0  0  0  0  0
  140.7280   76.8780  222.5970 C   0  0  0  0  0  0  0  0  0  0  0  0
  141.0390   78.1070  222.0330 C   0  0  0  0  0  0  0  0  0  0  0  0
  141.7070   78.1300  220.8240 C   0  0  0  0  0  0  0  0  0  0  0  0
  142.0560   76.9530  220.1940 C   0  0  0  0  0  0  0  0  0  0  0  0
  142.9090   76.9690  218.6490 Cl  0  0  0  0  0  0  0  0  0  0  0  0
  139.6370   71.0980  223.6850 C   0  0  0  0  0  0  0  0  0  0  0  0
  139.3890   69.7980  223.9950 C   0  0  0  0  0  0  0  0  0  0  0  0
  139.6920   69.2670  225.2380 C   0  0  0  0  0  0  0  0  0  0  0  0
  140.2670   70.1040  226.1780 C   0  0  0  0  0  0  0  0  0  0  0  0
  140.6020   69.6560  227.4430 C   0  0  0  0  0  0  0  0  0  0  0  0
  141.1700   70.5190  228.3460 C   0  0  0  0  0  0  0  0  0  0  0  0
  141.4240   71.8410  228.0360 C   0  0  0  0  0  0  0  0  0  0  0  0
  141.0860   72.2720  226.7740 C   0  0  0  0  0  0  0  0  0  0  0  0
  140.5120   71.4190  225.8470 C   0  0  0  0  0  0  0  0  0  0  0  0
  140.1990   71.8940  224.6210 N   0  0  0  0  0  0  0  0  0  0  0  0
  139.0600   73.6570  222.9760 H   0  0  0  0  0  0  0  0  0  0  0  0
  138.2090   72.5001  220.3478 H   0  0  0  0  0  0  0  0  0  0  0  0
  138.0701   74.2714  220.9392 H   0  0  0  0  0  0  0  0  0  0  0  0
  141.1395   71.3545  219.9227 H   0  0  0  0  0  0  0  0  0  0  0  0
  142.2415   72.0177  218.7629 H   0  0  0  0  0  0  0  0  0  0  0  0
  142.3720   72.1879  221.8618 H   0  0  0  0  0  0  0  0  0  0  0  0
  143.6452   71.5954  220.8280 H   0  0  0  0  0  0  0  0  0  0  0  0
  143.5315   74.2520  221.6745 H   0  0  0  0  0  0  0  0  0  0  0  0
  144.2454   73.8629  220.1177 H   0  0  0  0  0  0  0  0  0  0  0  0
  142.4709   74.8223  219.0469 H   0  0  0  0  0  0  0  0  0  0  0  0
  140.8354   74.7552  222.4105 H   0  0  0  0  0  0  0  0  0  0  0  0
  140.1956   76.8288  223.5583 H   0  0  0  0  0  0  0  0  0  0  0  0
  140.7595   79.0434  222.5380 H   0  0  0  0  0  0  0  0  0  0  0  0
  141.9627   79.0940  220.3600 H   0  0  0  0  0  0  0  0  0  0  0  0
  138.9332   69.1469  223.2346 H   0  0  0  0  0  0  0  0  0  0  0  0
  139.4820   68.2126  225.4706 H   0  0  0  0  0  0  0  0  0  0  0  0
  140.4134   68.6095  227.7247 H   0  0  0  0  0  0  0  0  0  0  0  0
  141.4311   70.1467  229.3476 H   0  0  0  0  0  0  0  0  0  0  0  0
  141.8789   72.5227  228.7698 H   0  0  0  0  0  0  0  0  0  0  0  0
  141.2763   73.3189  226.4950 H   0  0  0  0  0  0  0  0  0  0  0  0
  1  2  2  0
  2  3  1  0
  3  4  1  0
  4  5  1  0
  5  6  2  0
  5  7  1  0
  7  8  1  0
  8  9  1  0
  9 10  1  0
 10 11  1  0
 11 12  1  0
 12 13  2  0
 13 14  1  0
 14 15  2  0
 15 16  1  0
 16 17  2  0
 17 18  1  0
  2 19  1  0
 19 20  2  0
 20 21  1  0
 21 22  2  0
 22 23  1  0
 23 24  2  0
 24 25  1  0
 25 26  2  0
 26 27  1  0
 27 28  2  0
 11  7  1  0
 17 12  1  0
 28 19  1  0
 27 22  1  0
  3 29  1  0
  4 30  1  0
  4 31  1  0
  8 32  1  0
  8 33  1  0
  9 34  1  0
  9 35  1  0
 10 36  1  0
 10 37  1  0
 11 38  1  6
 13 39  1  0
 14 40  1  0
 15 41  1  0
 16 42  1  0
 20 43  1  0
 21 44  1  0
 23 45  1  0
 24 46  1  0
 25 47  1  0
 26 48  1  0
M  END
>  <smiles>  (35) 
O=C(NCC(=O)N1CCCC1c1ccccc1Cl)c1ccc2ccccc2n1

>  <score_type>  (35) 
oracle

>  <origin>  (35) 
autodockgpu

>  <m_score__min__energy>  (35) 
-8.7799999999999994

>  <m_primary>  (35) 
energy

>  <rmsd>  (35) 
2.7460495062527834

>  <m_score__min__rmsd>  (35) 
2.7460495062527834

>  <meeko>  (35) 
{"free_energy": -7.67, "intermolecular_energy": -9.16, "internal_energy": -2.05, "cluster_size": 9, "cluster_id": 3, "rank_in_cluster": 3}

>  <energy>  (35) 
-7.0

>  <cluster_rmsd>  (35) 
0.52

>  <cluster>  (35) 
6

$$$$

     RDKit          3D

 48 51  0  0  0  0  0  0  0  0999 V2000
  140.7050   76.9480  218.3590 O   0  0  0  0  0  0  0  0  0  0  0  0
  141.7720   76.8730  219.0310 C   0  0  0  0  0  0  0  0  0  0  0  0
  142.1790   78.1250  219.6450 N   0  0  0  0  0  0  0  0  0  0  0  0
  141.3310   79.2460  219.4090 C   0  0  0  0  0  0  0  0  0  0  0  0
  140.7400   79.9380  220.5390 C   0  0  0  0  0  0  0  0  0  0  0  0
  139.5930   80.4810  220.2840 O   0  0  0  0  0  0  0  0  0  0  0  0
  141.2030   80.1180  221.8590 N   0  0  0  0  0  0  0  0  0  0  0  0
  142.1530   81.0500  222.4340 C   0  0  0  0  0  0  0  0  0  0  0  0
  142.9860   80.0970  223.2740 C   0  0  0  0  0  0  0  0  0  0  0  0
  141.9050   79.2110  223.9170 C   0  0  0  0  0  0  0  0  0  0  0  0
  140.7790   79.2870  222.9690 C   0  0  2  0  0  0  0  0  0  0  0  0
  140.2650   77.9510  222.5710 C   0  0  0  0  0  0  0  0  0  0  0  0
  141.0750   76.8660  222.3130 C   0  0  0  0  0  0  0  0  0  0  0  0
  140.5900   75.6210  221.9710 C   0  0  0  0  0  0  0  0  0  0  0  0
  139.2210   75.4220  221.8760 C   0  0  0  0  0  0  0  0  0  0  0  0
  138.3790   76.4880  222.1270 C   0  0  0  0  0  0  0  0  0  0  0  0
  138.8930   77.7220  222.4670 C   0  0  0  0  0  0  0  0  0  0  0  0
  137.8270   79.0910  222.7900 Cl  0  0  0  0  0  0  0  0  0  0  0  0
  142.5490   75.6740  219.2010 C   0  0  0  0  0  0  0  0  0  0  0  0
  142.1390   74.5210  218.6090 C   0  0  0  0  0  0  0  0  0  0  0  0
  142.8450   73.3370  218.7370 C   0  0  0  0  0  0  0  0  0  0  0  0
  144.0030   73.3500  219.4960 C   0  0  0  0  0  0  0  0  0  0  0  0
  144.7680   72.2120  219.6750 C   0  0  0  0  0  0  0  0  0  0  0  0
  145.9100   72.2690  220.4360 C   0  0  0  0  0  0  0  0  0  0  0  0
  146.3300   73.4380  221.0400 C   0  0  0  0  0  0  0  0  0  0  0  0
  145.5590   74.5610  220.8510 C   0  0  0  0  0  0  0  0  0  0  0  0
  144.4040   74.5280  220.0890 C   0  0  0  0  0  0  0  0  0  0  0  0
  143.6830   75.6600  219.9370 N   0  0  0  0  0  0  0  0  0  0  0  0
  143.0610   78.1400  220.2220 H   0  0  0  0  0  0  0  0  0  0  0  0
  141.9250   79.9868  218.8536 H   0  0  0  0  0  0  0  0  0  0  0  0
  140.4654   78.8131  218.8861 H   0  0  0  0  0  0  0  0  0  0  0  0
  142.7572   81.5460  221.6601 H   0  0  0  0  0  0  0  0  0  0  0  0
  141.7025   81.8845  222.9914 H   0  0  0  0  0  0  0  0  0  0  0  0
  143.6685   79.5040  222.6475 H   0  0  0  0  0  0  0  0  0  0  0  0
  143.6379   80.6012  224.0025 H   0  0  0  0  0  0  0  0  0  0  0  0
  142.2592   78.1749  224.0226 H   0  0  0  0  0  0  0  0  0  0  0  0
  141.6314   79.5410  224.9300 H   0  0  0  0  0  0  0  0  0  0  0  0
  139.9051   79.7516  223.4490 H   0  0  0  0  0  0  0  0  0  0  0  0
  142.1645   77.0000  222.3835 H   0  0  0  0  0  0  0  0  0  0  0  0
  141.2848   74.7911  221.7748 H   0  0  0  0  0  0  0  0  0  0  0  0
  138.8141   74.4362  221.6065 H   0  0  0  0  0  0  0  0  0  0  0  0
  137.2899   76.3516  222.0551 H   0  0  0  0  0  0  0  0  0  0  0  0
  141.2170   74.5290  218.0092 H   0  0  0  0  0  0  0  0  0  0  0  0
  142.4966   72.4140  218.2505 H   0  0  0  0  0  0  0  0  0  0  0  0
  144.4627   71.2635  219.2091 H   0  0  0  0  0  0  0  0  0  0  0  0
  146.5085   71.3556  220.5685 H   0  0  0  0  0  0  0  0  0  0  0  0
  147.2457   73.4695  221.6486 H   0  0  0  0  0  0  0  0  0  0  0  0
  145.8677   75.5085  221.3167 H   0  0  0  0  0  0  0  0  0  0  0  0
  1  2  2  0
  2  3  1  0
  3  4  1  0
  4  5  1  0
  5  6  2  0
  5  7  1  0
  7  8  1  0
  8  9  1  0
  9 10  1  0
 10 11  1  0
 11 12  1  0
 12 13  2  0
 13 14  1  0
 14 15  2  0
 15 16  1  0
 16 17  2  0
 17 18  1  0
  2 19  1  0
 19 20  2  0
 20 21  1  0
 21 22  2  0
 22 23  1  0
 23 24  2  0
 24 25  1  0
 25 26  2  0
 26 27  1  0
 27 28  2  0
 11  7  1  0
 17 12  1  0
 28 19  1  0
 27 22  1  0
  3 29  1  0
  4 30  1  0
  4 31  1  0
  8 32  1  0
  8 33  1  0
  9 34  1  0
  9 35  1  0
 10 36  1  0
 10 37  1  0
 11 38  1  1
 13 39  1  0
 14 40  1  0
 15 41  1  0
 16 42  1  0
 20 43  1  0
 21 44  1  0
 23 45  1  0
 24 46  1  0
 25 47  1  0
 26 48  1  0
M  END
>  <smiles>  (36) 
O=C(NCC(=O)N1CCCC1c1ccccc1Cl)c1ccc2ccccc2n1

>  <score_type>  (36) 
oracle

>  <origin>  (36) 
autodockgpu

>  <m_score__min__energy>  (36) 
-8.7799999999999994

>  <m_primary>  (36) 
energy

>  <rmsd>  (36) 
7.47691621797813

>  <m_score__min__rmsd>  (36) 
7.47691621797813

>  <meeko>  (36) 
{"free_energy": -7.22, "intermolecular_energy": -8.72, "internal_energy": -2.62, "cluster_size": 14, "cluster_id": 8, "rank_in_cluster": 1}

>  <energy>  (36) 
-7.33

>  <cluster_rmsd>  (36) 
0.0

>  <cluster>  (36) 
7

$$$$

     RDKit          3D

 48 51  0  0  0  0  0  0  0  0999 V2000
  139.5700   73.3460  222.3570 O   0  0  0  0  0  0  0  0  0  0  0  0
  139.7200   72.0940  222.4270 C   0  0  0  0  0  0  0  0  0  0  0  0
  139.6770   71.4160  221.1420 N   0  0  0  0  0  0  0  0  0  0  0  0
  139.4760   72.2450  220.0000 C   0  0  0  0  0  0  0  0  0  0  0  0
  140.5580   73.1000  219.5460 C   0  0  0  0  0  0  0  0  0  0  0  0
  140.1630   74.1720  218.9390 O   0  0  0  0  0  0  0  0  0  0  0  0
  141.9570   72.9570  219.6530 N   0  0  0  0  0  0  0  0  0  0  0  0
  142.8140   71.7870  219.6470 C   0  0  0  0  0  0  0  0  0  0  0  0
  143.7010   72.1020  220.8390 C   0  0  0  0  0  0  0  0  0  0  0  0
  144.0050   73.5950  220.6260 C   0  0  0  0  0  0  0  0  0  0  0  0
  142.8580   74.0780  219.8370 C   0  0  2  0  0  0  0  0  0  0  0  0
  142.2190   75.2840  220.4230 C   0  0  0  0  0  0  0  0  0  0  0  0
  141.4810   75.2710  221.5860 C   0  0  0  0  0  0  0  0  0  0  0  0
  140.9140   76.4000  222.1390 C   0  0  0  0  0  0  0  0  0  0  0  0
  141.0810   77.6270  221.5130 C   0  0  0  0  0  0  0  0  0  0  0  0
  141.8150   77.6780  220.3440 C   0  0  0  0  0  0  0  0  0  0  0  0
  142.3700   76.5310  219.8140 C   0  0  0  0  0  0  0  0  0  0  0  0
  143.3100   76.5840  218.3220 Cl  0  0  0  0  0  0  0  0  0  0  0  0
  139.9190   71.3610  223.6480 C   0  0  0  0  0  0  0  0  0  0  0  0
  139.6010   70.0400  223.6950 C   0  0  0  0  0  0  0  0  0  0  0  0
  139.7700   69.2820  224.8420 C   0  0  0  0  0  0  0  0  0  0  0  0
  140.2810   69.9090  225.9650 C   0  0  0  0  0  0  0  0  0  0  0  0
  140.4820   69.2280  227.1510 C   0  0  0  0  0  0  0  0  0  0  0  0
  140.9910   69.8880  228.2420 C   0  0  0  0  0  0  0  0  0  0  0  0
  141.3150   71.2300  228.1990 C   0  0  0  0  0  0  0  0  0  0  0  0
  141.1110   71.8950  227.0130 C   0  0  0  0  0  0  0  0  0  0  0  0
  140.5980   71.2490  225.9010 C   0  0  0  0  0  0  0  0  0  0  0  0
  140.4160   71.9500  224.7590 N   0  0  0  0  0  0  0  0  0  0  0  0
  139.7950   70.3690  221.1210 H   0  0  0  0  0  0  0  0  0  0  0  0
  139.2181   71.5807  219.1620 H   0  0  0  0  0  0  0  0  0  0  0  0
  138.7008   72.9545  220.3250 H   0  0  0  0  0  0  0  0  0  0  0  0
  142.2407   70.8605  219.7986 H   0  0  0  0  0  0  0  0  0  0  0  0
  143.3517   71.6120  218.7035 H   0  0  0  0  0  0  0  0  0  0  0  0
  143.1703   71.9336  221.7877 H   0  0  0  0  0  0  0  0  0  0  0  0
  144.5998   71.4710  220.9019 H   0  0  0  0  0  0  0  0  0  0  0  0
  144.0687   74.1232  221.5888 H   0  0  0  0  0  0  0  0  0  0  0  0
  144.9688   73.7656  220.1240 H   0  0  0  0  0  0  0  0  0  0  0  0
  143.1934   74.4327  218.8513 H   0  0  0  0  0  0  0  0  0  0  0  0
  141.3363   74.3097  222.1007 H   0  0  0  0  0  0  0  0  0  0  0  0
  140.3331   76.3283  223.0704 H   0  0  0  0  0  0  0  0  0  0  0  0
  140.6383   78.5396  221.9386 H   0  0  0  0  0  0  0  0  0  0  0  0
  141.9583   78.6406  219.8314 H   0  0  0  0  0  0  0  0  0  0  0  0
  139.1964   69.5575  222.7930 H   0  0  0  0  0  0  0  0  0  0  0  0
  139.5061   68.2143  224.8597 H   0  0  0  0  0  0  0  0  0  0  0  0
  140.2344   68.1585  227.2206 H   0  0  0  0  0  0  0  0  0  0  0  0
  141.1454   69.3315  229.1782 H   0  0  0  0  0  0  0  0  0  0  0  0
  141.7211   71.7474  229.0807 H   0  0  0  0  0  0  0  0  0  0  0  0
  141.3609   72.9641  226.9461 H   0  0  0  0  0  0  0  0  0  0  0  0
  1  2  2  0
  2  3  1  0
  3  4  1  0
  4  5  1  0
  5  6  2  0
  5  7  1  0
  7  8  1  0
  8  9  1  0
  9 10  1  0
 10 11  1  0
 11 12  1  0
 12 13  2  0
 13 14  1  0
 14 15  2  0
 15 16  1  0
 16 17  2  0
 17 18  1  0
  2 19  1  0
 19 20  2  0
 20 21  1  0
 21 22  2  0
 22 23  1  0
 23 24  2  0
 24 25  1  0
 25 26  2  0
 26 27  1  0
 27 28  2  0
 11  7  1  0
 17 12  1  0
 28 19  1  0
 27 22  1  0
  3 29  1  0
  4 30  1  0
  4 31  1  0
  8 32  1  0
  8 33  1  0
  9 34  1  0
  9 35  1  0
 10 36  1  0
 10 37  1  0
 11 38  1  6
 13 39  1  0
 14 40  1  0
 15 41  1  0
 16 42  1  0
 20 43  1  0
 21 44  1  0
 23 45  1  0
 24 46  1  0
 25 47  1  0
 26 48  1  0
M  END
>  <smiles>  (37) 
O=C(NCC(=O)N1CCCC1c1ccccc1Cl)c1ccc2ccccc2n1

>  <score_type>  (37) 
oracle

>  <origin>  (37) 
autodockgpu

>  <m_score__min__energy>  (37) 
-8.7799999999999994

>  <m_primary>  (37) 
energy

>  <rmsd>  (37) 
3.2131841034429285

>  <m_score__min__rmsd>  (37) 
3.2131841034429285

>  <meeko>  (37) 
{"free_energy": -7.62, "intermolecular_energy": -9.11, "internal_energy": -1.79, "cluster_size": 9, "cluster_id": 3, "rank_in_cluster": 4}

>  <energy>  (37) 
-7.22

>  <cluster_rmsd>  (37) 
0.0

>  <cluster>  (37) 
8

$$$$

     RDKit          3D

 48 51  0  0  0  0  0  0  0  0999 V2000
  140.6540   76.9710  218.4290 O   0  0  0  0  0  0  0  0  0  0  0  0
  141.7510   76.8990  219.0490 C   0  0  0  0  0  0  0  0  0  0  0  0
  142.1890   78.1550  219.6350 N   0  0  0  0  0  0  0  0  0  0  0  0
  141.3320   79.2760  219.4320 C   0  0  0  0  0  0  0  0  0  0  0  0
  140.7150   79.9130  220.5810 C   0  0  0  0  0  0  0  0  0  0  0  0
  139.5470   80.4150  220.3420 O   0  0  0  0  0  0  0  0  0  0  0  0
  141.1750   80.0780  221.9040 N   0  0  0  0  0  0  0  0  0  0  0  0
  142.1160   81.0110  222.4940 C   0  0  0  0  0  0  0  0  0  0  0  0
  142.9560   80.0540  223.3210 C   0  0  0  0  0  0  0  0  0  0  0  0
  141.8830   79.1480  223.9500 C   0  0  0  0  0  0  0  0  0  0  0  0
  140.7570   79.2270  223.0010 C   0  0  2  0  0  0  0  0  0  0  0  0
  140.2570   77.8920  222.5830 C   0  0  0  0  0  0  0  0  0  0  0  0
  141.0770   76.8130  222.3310 C   0  0  0  0  0  0  0  0  0  0  0  0
  140.6040   75.5680  221.9700 C   0  0  0  0  0  0  0  0  0  0  0  0
  139.2370   75.3650  221.8480 C   0  0  0  0  0  0  0  0  0  0  0  0
  138.3860   76.4250  222.0910 C   0  0  0  0  0  0  0  0  0  0  0  0
  138.8880   77.6580  222.4510 C   0  0  0  0  0  0  0  0  0  0  0  0
  137.8110   79.0200  222.7650 Cl  0  0  0  0  0  0  0  0  0  0  0  0
  142.5350   75.7000  219.1900 C   0  0  0  0  0  0  0  0  0  0  0  0
  142.1440   74.5670  218.5500 C   0  0  0  0  0  0  0  0  0  0  0  0
  142.8570   73.3830  218.6470 C   0  0  0  0  0  0  0  0  0  0  0  0
  144.0010   73.3780  219.4260 C   0  0  0  0  0  0  0  0  0  0  0  0
  144.7730   72.2400  219.5780 C   0  0  0  0  0  0  0  0  0  0  0  0
  145.9010   72.2770  220.3590 C   0  0  0  0  0  0  0  0  0  0  0  0
  146.3020   73.4270  221.0120 C   0  0  0  0  0  0  0  0  0  0  0  0
  145.5250   74.5510  220.8510 C   0  0  0  0  0  0  0  0  0  0  0  0
  144.3840   74.5360  220.0680 C   0  0  0  0  0  0  0  0  0  0  0  0
  143.6560   75.6680  219.9440 N   0  0  0  0  0  0  0  0  0  0  0  0
  143.0980   78.1730  220.1680 H   0  0  0  0  0  0  0  0  0  0  0  0
  141.9263   80.0460  218.9183 H   0  0  0  0  0  0  0  0  0  0  0  0
  140.4801   78.8568  218.8766 H   0  0  0  0  0  0  0  0  0  0  0  0
  142.7167   81.5236  221.7282 H   0  0  0  0  0  0  0  0  0  0  0  0
  141.6571   81.8333  223.0625 H   0  0  0  0  0  0  0  0  0  0  0  0
  143.6449   79.4767  222.6869 H   0  0  0  0  0  0  0  0  0  0  0  0
  143.6018   80.5540  224.0579 H   0  0  0  0  0  0  0  0  0  0  0  0
  142.2472   78.1140  224.0410 H   0  0  0  0  0  0  0  0  0  0  0  0
  141.6051   79.4603  224.9674 H   0  0  0  0  0  0  0  0  0  0  0  0
  139.8777   79.6761  223.4859 H   0  0  0  0  0  0  0  0  0  0  0  0
  142.1644   76.9516  222.4224 H   0  0  0  0  0  0  0  0  0  0  0  0
  141.3057   74.7424  221.7803 H   0  0  0  0  0  0  0  0  0  0  0  0
  138.8391   74.3797  221.5635 H   0  0  0  0  0  0  0  0  0  0  0  0
  137.2991   76.2848  221.9967 H   0  0  0  0  0  0  0  0  0  0  0  0
  141.2322   74.5905  217.9352 H   0  0  0  0  0  0  0  0  0  0  0  0
  142.5244   72.4757  218.1215 H   0  0  0  0  0  0  0  0  0  0  0  0
  144.4830   71.3065  219.0735 H   0  0  0  0  0  0  0  0  0  0  0  0
  146.5041   71.3636  220.4685 H   0  0  0  0  0  0  0  0  0  0  0  0
  147.2075   73.4431  221.6364 H   0  0  0  0  0  0  0  0  0  0  0  0
  145.8175   75.4832  221.3564 H   0  0  0  0  0  0  0  0  0  0  0  0
  1  2  2  0
  2  3  1  0
  3  4  1  0
  4  5  1  0
  5  6  2  0
  5  7  1  0
  7  8  1  0
  8  9  1  0
  9 10  1  0
 10 11  1  0
 11 12  1  0
 12 13  2  0
 13 14  1  0
 14 15  2  0
 15 16  1  0
 16 17  2  0
 17 18  1  0
  2 19  1  0
 19 20  2  0
 20 21  1  0
 21 22  2  0
 22 23  1  0
 23 24  2  0
 24 25  1  0
 25 26  2  0
 26 27  1  0
 27 28  2  0
 11  7  1  0
 17 12  1  0
 28 19  1  0
 27 22  1  0
  3 29  1  0
  4 30  1  0
  4 31  1  0
  8 32  1  0
  8 33  1  0
  9 34  1  0
  9 35  1  0
 10 36  1  0
 10 37  1  0
 11 38  1  1
 13 39  1  0
 14 40  1  0
 15 41  1  0
 16 42  1  0
 20 43  1  0
 21 44  1  0
 23 45  1  0
 24 46  1  0
 25 47  1  0
 26 48  1  0
M  END
>  <smiles>  (38) 
O=C(NCC(=O)N1CCCC1c1ccccc1Cl)c1ccc2ccccc2n1

>  <score_type>  (38) 
oracle

>  <origin>  (38) 
autodockgpu

>  <m_score__min__energy>  (38) 
-8.7799999999999994

>  <m_primary>  (38) 
energy

>  <rmsd>  (38) 
7.498916901120799

>  <m_score__min__rmsd>  (38) 
7.498916901120799

>  <meeko>  (38) 
{"free_energy": -7.2, "intermolecular_energy": -8.69, "internal_energy": -2.64, "cluster_size": 14, "cluster_id": 8, "rank_in_cluster": 8}

>  <energy>  (38) 
-7.22

>  <cluster_rmsd>  (38) 
0.2

>  <cluster>  (38) 
8

$$$$

     RDKit          3D

 48 51  0  0  0  0  0  0  0  0999 V2000
  139.0100   75.2000  221.5510 O   0  0  0  0  0  0  0  0  0  0  0  0
  140.1060   75.7490  221.8520 C   0  0  0  0  0  0  0  0  0  0  0  0
  141.2710   74.9040  221.6510 N   0  0  0  0  0  0  0  0  0  0  0  0
  141.0180   73.5930  221.1510 C   0  0  0  0  0  0  0  0  0  0  0  0
  141.8900   73.0450  220.1280 C   0  0  0  0  0  0  0  0  0  0  0  0
  141.2690   72.6400  219.0680 O   0  0  0  0  0  0  0  0  0  0  0  0
  143.2900   72.8800  220.0980 N   0  0  0  0  0  0  0  0  0  0  0  0
  144.1740   71.9780  220.8120 C   0  0  0  0  0  0  0  0  0  0  0  0
  145.2450   72.9570  221.2620 C   0  0  0  0  0  0  0  0  0  0  0  0
  145.4540   73.8060  219.9960 C   0  0  0  0  0  0  0  0  0  0  0  0
  144.1690   73.6950  219.2830 C   0  0  2  0  0  0  0  0  0  0  0  0
  143.6000   75.0130  218.9030 C   0  0  0  0  0  0  0  0  0  0  0  0
  143.2970   76.0060  219.8100 C   0  0  0  0  0  0  0  0  0  0  0  0
  142.7960   77.2390  219.4470 C   0  0  0  0  0  0  0  0  0  0  0  0
  142.5760   77.5210  218.1070 C   0  0  0  0  0  0  0  0  0  0  0  0
  142.8670   76.5490  217.1700 C   0  0  0  0  0  0  0  0  0  0  0  0
  143.3680   75.3250  217.5620 C   0  0  0  0  0  0  0  0  0  0  0  0
  143.7440   74.0760  216.3750 Cl  0  0  0  0  0  0  0  0  0  0  0  0
  140.2400   77.0920  222.3510 C   0  0  0  0  0  0  0  0  0  0  0  0
  139.1260   77.7940  222.6900 C   0  0  0  0  0  0  0  0  0  0  0  0
  139.1910   79.0890  223.1760 C   0  0  0  0  0  0  0  0  0  0  0  0
  140.4410   79.6670  223.3150 C   0  0  0  0  0  0  0  0  0  0  0  0
  140.5970   80.9560  223.7930 C   0  0  0  0  0  0  0  0  0  0  0  0
  141.8550   81.4920  223.9150 C   0  0  0  0  0  0  0  0  0  0  0  0
  142.9900   80.7830  223.5720 C   0  0  0  0  0  0  0  0  0  0  0  0
  142.8190   79.5030  223.0990 C   0  0  0  0  0  0  0  0  0  0  0  0
  141.5600   78.9420  222.9670 C   0  0  0  0  0  0  0  0  0  0  0  0
  141.4480   77.6800  222.4960 N   0  0  0  0  0  0  0  0  0  0  0  0
  142.2230   75.2940  221.8810 H   0  0  0  0  0  0  0  0  0  0  0  0
  141.0602   72.9076  222.0103 H   0  0  0  0  0  0  0  0  0  0  0  0
  140.0471   73.6895  220.6431 H   0  0  0  0  0  0  0  0  0  0  0  0
  143.6694   71.5040  221.6668 H   0  0  0  0  0  0  0  0  0  0  0  0
  144.5436   71.1276  220.2202 H   0  0  0  0  0  0  0  0  0  0  0  0
  144.8952   73.5733  222.1033 H   0  0  0  0  0  0  0  0  0  0  0  0
  146.1625   72.4733  221.6283 H   0  0  0  0  0  0  0  0  0  0  0  0
  145.6683   74.8529  220.2570 H   0  0  0  0  0  0  0  0  0  0  0  0
  146.3072   73.4653  219.3911 H   0  0  0  0  0  0  0  0  0  0  0  0
  144.3138   73.2019  218.3104 H   0  0  0  0  0  0  0  0  0  0  0  0
  143.4633   75.8047  220.8786 H   0  0  0  0  0  0  0  0  0  0  0  0
  142.5724   77.9937  220.2154 H   0  0  0  0  0  0  0  0  0  0  0  0
  142.1780   78.4985  217.7969 H   0  0  0  0  0  0  0  0  0  0  0  0
  142.6979   76.7526  216.1023 H   0  0  0  0  0  0  0  0  0  0  0  0
  138.1412   77.3178  222.5744 H   0  0  0  0  0  0  0  0  0  0  0  0
  138.2779   79.6411  223.4432 H   0  0  0  0  0  0  0  0  0  0  0  0
  139.7150   81.5500  224.0746 H   0  0  0  0  0  0  0  0  0  0  0  0
  141.9626   82.5177  224.2977 H   0  0  0  0  0  0  0  0  0  0  0  0
  143.9921   81.2253  223.6734 H   0  0  0  0  0  0  0  0  0  0  0  0
  143.7029   78.9111  222.8190 H   0  0  0  0  0  0  0  0  0  0  0  0
  1  2  2  0
  2  3  1  0
  3  4  1  0
  4  5  1  0
  5  6  2  0
  5  7  1  0
  7  8  1  0
  8  9  1  0
  9 10  1  0
 10 11  1  0
 11 12  1  0
 12 13  2  0
 13 14  1  0
 14 15  2  0
 15 16  1  0
 16 17  2  0
 17 18  1  0
  2 19  1  0
 19 20  2  0
 20 21  1  0
 21 22  2  0
 22 23  1  0
 23 24  2  0
 24 25  1  0
 25 26  2  0
 26 27  1  0
 27 28  2  0
 11  7  1  0
 17 12  1  0
 28 19  1  0
 27 22  1  0
  3 29  1  0
  4 30  1  0
  4 31  1  0
  8 32  1  0
  8 33  1  0
  9 34  1  0
  9 35  1  0
 10 36  1  0
 10 37  1  0
 11 38  1  6
 13 39  1  0
 14 40  1  0
 15 41  1  0
 16 42  1  0
 20 43  1  0
 21 44  1  0
 23 45  1  0
 24 46  1  0
 25 47  1  0
 26 48  1  0
M  END
>  <smiles>  (39) 
O=C(NCC(=O)N1CCCC1c1ccccc1Cl)c1ccc2ccccc2n1

>  <score_type>  (39) 
oracle

>  <origin>  (39) 
autodockgpu

>  <m_score__min__energy>  (39) 
-8.7799999999999994

>  <m_primary>  (39) 
energy

>  <rmsd>  (39) 
7.81430100773696

>  <m_score__min__rmsd>  (39) 
7.81430100773696

>  <meeko>  (39) 
{"free_energy": -7.38, "intermolecular_energy": -8.87, "internal_energy": -2.27, "cluster_size": 5, "cluster_id": 6, "rank_in_cluster": 3}

>  <energy>  (39) 
-7.22

>  <cluster_rmsd>  (39) 
0.16

>  <cluster>  (39) 
8

$$$$

     RDKit          3D

 48 51  0  0  0  0  0  0  0  0999 V2000
  140.6000   76.9170  218.5400 O   0  0  0  0  0  0  0  0  0  0  0  0
  141.7500   76.8670  219.0580 C   0  0  0  0  0  0  0  0  0  0  0  0
  142.2390   78.1440  219.5500 N   0  0  0  0  0  0  0  0  0  0  0  0
  141.3660   79.2580  219.3810 C   0  0  0  0  0  0  0  0  0  0  0  0
  140.6990   79.8180  220.5420 C   0  0  0  0  0  0  0  0  0  0  0  0
  139.4950   80.2280  220.3110 O   0  0  0  0  0  0  0  0  0  0  0  0
  141.1430   79.9900  221.8690 N   0  0  0  0  0  0  0  0  0  0  0  0
  142.0730   80.9290  222.4660 C   0  0  0  0  0  0  0  0  0  0  0  0
  142.9080   79.9790  223.3070 C   0  0  0  0  0  0  0  0  0  0  0  0
  141.8310   79.0720  223.9270 C   0  0  0  0  0  0  0  0  0  0  0  0
  140.7160   79.1420  222.9660 C   0  0  2  0  0  0  0  0  0  0  0  0
  140.2260   77.8040  222.5470 C   0  0  0  0  0  0  0  0  0  0  0  0
  141.0540   76.7300  222.2980 C   0  0  0  0  0  0  0  0  0  0  0  0
  140.5900   75.4820  221.9370 C   0  0  0  0  0  0  0  0  0  0  0  0
  139.2250   75.2690  221.8120 C   0  0  0  0  0  0  0  0  0  0  0  0
  138.3660   76.3230  222.0530 C   0  0  0  0  0  0  0  0  0  0  0  0
  138.8590   77.5600  222.4120 C   0  0  0  0  0  0  0  0  0  0  0  0
  137.7720   78.9150  222.7240 Cl  0  0  0  0  0  0  0  0  0  0  0  0
  142.5440   75.6720  219.1750 C   0  0  0  0  0  0  0  0  0  0  0  0
  142.1750   74.5550  218.4950 C   0  0  0  0  0  0  0  0  0  0  0  0
  142.8990   73.3760  218.5690 C   0  0  0  0  0  0  0  0  0  0  0  0
  144.0310   73.3580  219.3650 C   0  0  0  0  0  0  0  0  0  0  0  0
  144.8130   72.2240  219.4950 C   0  0  0  0  0  0  0  0  0  0  0  0
  145.9280   72.2490  220.2940 C   0  0  0  0  0  0  0  0  0  0  0  0
  146.3060   73.3830  220.9880 C   0  0  0  0  0  0  0  0  0  0  0  0
  145.5210   74.5030  220.8480 C   0  0  0  0  0  0  0  0  0  0  0  0
  144.3920   74.5010  220.0470 C   0  0  0  0  0  0  0  0  0  0  0  0
  143.6540   75.6290  219.9460 N   0  0  0  0  0  0  0  0  0  0  0  0
  143.1930   78.1810  219.9960 H   0  0  0  0  0  0  0  0  0  0  0  0
  141.9605   80.0667  218.9309 H   0  0  0  0  0  0  0  0  0  0  0  0
  140.5413   78.8543  218.7752 H   0  0  0  0  0  0  0  0  0  0  0  0
  142.6803   81.4411  221.7051 H   0  0  0  0  0  0  0  0  0  0  0  0
  141.6039   81.7515  223.0260 H   0  0  0  0  0  0  0  0  0  0  0  0
  143.6065   79.4017  222.6835 H   0  0  0  0  0  0  0  0  0  0  0  0
  143.5436   80.4845  224.0489 H   0  0  0  0  0  0  0  0  0  0  0  0
  142.1980   78.0398  224.0268 H   0  0  0  0  0  0  0  0  0  0  0  0
  141.5401   79.3883  224.9396 H   0  0  0  0  0  0  0  0  0  0  0  0
  139.8300   79.5891  223.4405 H   0  0  0  0  0  0  0  0  0  0  0  0
  142.1402   76.8758  222.3920 H   0  0  0  0  0  0  0  0  0  0  0  0
  141.2978   74.6611  221.7495 H   0  0  0  0  0  0  0  0  0  0  0  0
  138.8349   74.2808  221.5268 H   0  0  0  0  0  0  0  0  0  0  0  0
  137.2802   76.1748  221.9579 H   0  0  0  0  0  0  0  0  0  0  0  0
  141.2732   74.5878  217.8660 H   0  0  0  0  0  0  0  0  0  0  0  0
  142.5836   72.4814  218.0120 H   0  0  0  0  0  0  0  0  0  0  0  0
  144.5410   71.3032  218.9582 H   0  0  0  0  0  0  0  0  0  0  0  0
  146.5395   71.3392  220.3851 H   0  0  0  0  0  0  0  0  0  0  0  0
  147.2007   73.3892  221.6279 H   0  0  0  0  0  0  0  0  0  0  0  0
  145.7966   75.4225  221.3852 H   0  0  0  0  0  0  0  0  0  0  0  0
  1  2  2  0
  2  3  1  0
  3  4  1  0
  4  5  1  0
  5  6  2  0
  5  7  1  0
  7  8  1  0
  8  9  1  0
  9 10  1  0
 10 11  1  0
 11 12  1  0
 12 13  2  0
 13 14  1  0
 14 15  2  0
 15 16  1  0
 16 17  2  0
 17 18  1  0
  2 19  1  0
 19 20  2  0
 20 21  1  0
 21 22  2  0
 22 23  1  0
 23 24  2  0
 24 25  1  0
 25 26  2  0
 26 27  1  0
 27 28  2  0
 11  7  1  0
 17 12  1  0
 28 19  1  0
 27 22  1  0
  3 29  1  0
  4 30  1  0
  4 31  1  0
  8 32  1  0
  8 33  1  0
  9 34  1  0
  9 35  1  0
 10 36  1  0
 10 37  1  0
 11 38  1  1
 13 39  1  0
 14 40  1  0
 15 41  1  0
 16 42  1  0
 20 43  1  0
 21 44  1  0
 23 45  1  0
 24 46  1  0
 25 47  1  0
 26 48  1  0
M  END
>  <smiles>  (40) 
O=C(NCC(=O)N1CCCC1c1ccccc1Cl)c1ccc2ccccc2n1

>  <score_type>  (40) 
oracle

>  <origin>  (40) 
autodockgpu

>  <m_score__min__energy>  (40) 
-8.7799999999999994

>  <m_primary>  (40) 
energy

>  <rmsd>  (40) 
7.493123611755001

>  <m_score__min__rmsd>  (40) 
7.493123611755001

>  <meeko>  (40) 
{"free_energy": -7.2, "intermolecular_energy": -8.69, "internal_energy": -2.65, "cluster_size": 14, "cluster_id": 8, "rank_in_cluster": 10}

>  <energy>  (40) 
-7.21

>  <cluster_rmsd>  (40) 
0.12

>  <cluster>  (40) 
8

$$$$

     RDKit          3D

 48 51  0  0  0  0  0  0  0  0999 V2000
  140.8190   71.7350  221.3620 O   0  0  0  0  0  0  0  0  0  0  0  0
  140.3330   72.1930  222.4330 C   0  0  0  0  0  0  0  0  0  0  0  0
  139.9100   73.5810  222.3490 N   0  0  0  0  0  0  0  0  0  0  0  0
  140.1000   74.2220  221.0910 C   0  0  0  0  0  0  0  0  0  0  0  0
  140.9090   75.4250  221.0230 C   0  0  0  0  0  0  0  0  0  0  0  0
  141.4310   75.7730  222.1540 O   0  0  0  0  0  0  0  0  0  0  0  0
  141.2180   76.2720  219.9380 N   0  0  0  0  0  0  0  0  0  0  0  0
  141.8140   76.0080  218.6430 C   0  0  0  0  0  0  0  0  0  0  0  0
  142.8390   77.1280  218.5880 C   0  0  0  0  0  0  0  0  0  0  0  0
  142.0310   78.3250  219.1190 C   0  0  0  0  0  0  0  0  0  0  0  0
  140.9920   77.7040  219.9590 C   0  0  2  0  0  0  0  0  0  0  0  0
  140.9220   78.2900  221.3230 C   0  0  0  0  0  0  0  0  0  0  0  0
  142.0090   78.8170  221.9850 C   0  0  0  0  0  0  0  0  0  0  0  0
  141.9310   79.3860  223.2400 C   0  0  0  0  0  0  0  0  0  0  0  0
  140.7070   79.4450  223.8900 C   0  0  0  0  0  0  0  0  0  0  0  0
  139.5960   78.9250  223.2550 C   0  0  0  0  0  0  0  0  0  0  0  0
  139.7040   78.3620  222.0010 C   0  0  0  0  0  0  0  0  0  0  0  0
  138.2920   77.6950  221.1800 Cl  0  0  0  0  0  0  0  0  0  0  0  0
  140.1890   71.4440  223.6530 C   0  0  0  0  0  0  0  0  0  0  0  0
  139.5550   70.2420  223.6300 C   0  0  0  0  0  0  0  0  0  0  0  0
  139.3870   69.4770  224.7720 C   0  0  0  0  0  0  0  0  0  0  0  0
  139.8890   69.9700  225.9630 C   0  0  0  0  0  0  0  0  0  0  0  0
  139.7650   69.2710  227.1500 C   0  0  0  0  0  0  0  0  0  0  0  0
  140.2780   69.7960  228.3100 C   0  0  0  0  0  0  0  0  0  0  0  0
  140.9230   71.0170  228.3390 C   0  0  0  0  0  0  0  0  0  0  0  0
  141.0390   71.7010  227.1510 C   0  0  0  0  0  0  0  0  0  0  0  0
  140.5300   71.1910  225.9690 C   0  0  0  0  0  0  0  0  0  0  0  0
  140.6700   71.9040  224.8300 N   0  0  0  0  0  0  0  0  0  0  0  0
  139.4940   74.0330  223.2060 H   0  0  0  0  0  0  0  0  0  0  0  0
  140.5655   73.4837  220.4215 H   0  0  0  0  0  0  0  0  0  0  0  0
  139.0921   74.5696  220.8203 H   0  0  0  0  0  0  0  0  0  0  0  0
  142.2904   75.0171  218.6077 H   0  0  0  0  0  0  0  0  0  0  0  0
  141.1044   75.9891  217.8027 H   0  0  0  0  0  0  0  0  0  0  0  0
  143.7033   76.9112  219.2329 H   0  0  0  0  0  0  0  0  0  0  0  0
  143.2671   77.2897  217.5877 H   0  0  0  0  0  0  0  0  0  0  0  0
  142.6685   78.9943  219.7153 H   0  0  0  0  0  0  0  0  0  0  0  0
  141.6115   78.9455  218.3134 H   0  0  0  0  0  0  0  0  0  0  0  0
  139.9929   77.9150  219.5500 H   0  0  0  0  0  0  0  0  0  0  0  0
  142.9896   78.7826  221.4878 H   0  0  0  0  0  0  0  0  0  0  0  0
  142.8336   79.7901  223.7217 H   0  0  0  0  0  0  0  0  0  0  0  0
  140.6229   79.8962  224.8897 H   0  0  0  0  0  0  0  0  0  0  0  0
  138.6164   78.9604  223.7542 H   0  0  0  0  0  0  0  0  0  0  0  0
  139.1629   69.8649  222.6739 H   0  0  0  0  0  0  0  0  0  0  0  0
  138.8701   68.5068  224.7333 H   0  0  0  0  0  0  0  0  0  0  0  0
  139.2561   68.2959  227.1645 H   0  0  0  0  0  0  0  0  0  0  0  0
  140.1721   69.2267  229.2453 H   0  0  0  0  0  0  0  0  0  0  0  0
  141.3283   71.4267  229.2759 H   0  0  0  0  0  0  0  0  0  0  0  0
  141.5481   72.6760  227.1401 H   0  0  0  0  0  0  0  0  0  0  0  0
  1  2  2  0
  2  3  1  0
  3  4  1  0
  4  5  1  0
  5  6  2  0
  5  7  1  0
  7  8  1  0
  8  9  1  0
  9 10  1  0
 10 11  1  0
 11 12  1  0
 12 13  2  0
 13 14  1  0
 14 15  2  0
 15 16  1  0
 16 17  2  0
 17 18  1  0
  2 19  1  0
 19 20  2  0
 20 21  1  0
 21 22  2  0
 22 23  1  0
 23 24  2  0
 24 25  1  0
 25 26  2  0
 26 27  1  0
 27 28  2  0
 11  7  1  0
 17 12  1  0
 28 19  1  0
 27 22  1  0
  3 29  1  0
  4 30  1  0
  4 31  1  0
  8 32  1  0
  8 33  1  0
  9 34  1  0
  9 35  1  0
 10 36  1  0
 10 37  1  0
 11 38  1  6
 13 39  1  0
 14 40  1  0
 15 41  1  0
 16 42  1  0
 20 43  1  0
 21 44  1  0
 23 45  1  0
 24 46  1  0
 25 47  1  0
 26 48  1  0
M  END
>  <smiles>  (41) 
O=C(NCC(=O)N1CCCC1c1ccccc1Cl)c1ccc2ccccc2n1

>  <score_type>  (41) 
oracle

>  <origin>  (41) 
autodockgpu

>  <m_score__min__energy>  (41) 
-8.7799999999999994

>  <m_primary>  (41) 
energy

>  <rmsd>  (41) 
1.8839049803214778

>  <m_score__min__rmsd>  (41) 
1.8839049803214778

>  <meeko>  (41) 
{"free_energy": -8.64, "intermolecular_energy": -10.13, "internal_energy": -1.47, "cluster_size": 16, "cluster_id": 1, "rank_in_cluster": 9}

>  <energy>  (41) 
-7.21

>  <cluster_rmsd>  (41) 
0.14

>  <cluster>  (41) 
8

$$$$

     RDKit          3D

 48 51  0  0  0  0  0  0  0  0999 V2000
  141.2100   72.4620  221.8460 O   0  0  0  0  0  0  0  0  0  0  0  0
  140.2060   72.4890  222.6110 C   0  0  0  0  0  0  0  0  0  0  0  0
  139.1980   73.4660  222.2360 N   0  0  0  0  0  0  0  0  0  0  0  0
  139.4780   74.2440  221.0760 C   0  0  0  0  0  0  0  0  0  0  0  0
  140.5470   75.2240  221.1210 C   0  0  0  0  0  0  0  0  0  0  0  0
  141.0690   75.3800  222.2950 O   0  0  0  0  0  0  0  0  0  0  0  0
  141.1070   76.0300  220.1080 N   0  0  0  0  0  0  0  0  0  0  0  0
  141.9040   75.7030  218.9410 C   0  0  0  0  0  0  0  0  0  0  0  0
  143.0030   76.7450  219.0690 C   0  0  0  0  0  0  0  0  0  0  0  0
  142.2050   78.0060  219.4440 C   0  0  0  0  0  0  0  0  0  0  0  0
  140.9890   77.4750  220.0860 C   0  0  2  0  0  0  0  0  0  0  0  0
  140.7200   78.0850  221.4130 C   0  0  0  0  0  0  0  0  0  0  0  0
  141.7070   78.5520  222.2550 C   0  0  0  0  0  0  0  0  0  0  0  0
  141.4480   79.1440  223.4740 C   0  0  0  0  0  0  0  0  0  0  0  0
  140.1360   79.2910  223.8980 C   0  0  0  0  0  0  0  0  0  0  0  0
  139.1210   78.8340  223.0810 C   0  0  0  0  0  0  0  0  0  0  0  0
  139.4100   78.2460  221.8670 C   0  0  0  0  0  0  0  0  0  0  0  0
  138.1220   77.6590  220.8130 Cl  0  0  0  0  0  0  0  0  0  0  0  0
  140.0320   71.6460  223.7640 C   0  0  0  0  0  0  0  0  0  0  0  0
  139.1990   70.5740  223.6890 C   0  0  0  0  0  0  0  0  0  0  0  0
  138.9910   69.7270  224.7650 C   0  0  0  0  0  0  0  0  0  0  0  0
  139.6640   69.9980  225.9440 C   0  0  0  0  0  0  0  0  0  0  0  0
  139.5150   69.2040  227.0670 C   0  0  0  0  0  0  0  0  0  0  0  0
  140.2010   69.5080  228.2160 C   0  0  0  0  0  0  0  0  0  0  0  0
  141.0480   70.5970  228.2970 C   0  0  0  0  0  0  0  0  0  0  0  0
  141.1870   71.3770  227.1720 C   0  0  0  0  0  0  0  0  0  0  0  0
  140.5050   71.0890  226.0030 C   0  0  0  0  0  0  0  0  0  0  0  0
  140.6770   71.8890  224.9270 N   0  0  0  0  0  0  0  0  0  0  0  0
  138.3300   73.5470  222.8290 H   0  0  0  0  0  0  0  0  0  0  0  0
  139.7224   73.5390  220.2677 H   0  0  0  0  0  0  0  0  0  0  0  0
  138.5712   74.8526  220.9445 H   0  0  0  0  0  0  0  0  0  0  0  0
  142.3040   74.6797  218.9939 H   0  0  0  0  0  0  0  0  0  0  0  0
  141.3569   75.7226  217.9869 H   0  0  0  0  0  0  0  0  0  0  0  0
  143.7194   76.4755  219.8591 H   0  0  0  0  0  0  0  0  0  0  0  0
  143.6136   76.8598  218.1613 H   0  0  0  0  0  0  0  0  0  0  0  0
  142.7740   78.6362  220.1434 H   0  0  0  0  0  0  0  0  0  0  0  0
  141.9835   78.6431  218.5751 H   0  0  0  0  0  0  0  0  0  0  0  0
  140.0975   77.7523  219.5043 H   0  0  0  0  0  0  0  0  0  0  0  0
  142.7552   78.4471  221.9384 H   0  0  0  0  0  0  0  0  0  0  0  0
  142.2767   79.4970  224.1053 H   0  0  0  0  0  0  0  0  0  0  0  0
  139.9084   79.7621  224.8656 H   0  0  0  0  0  0  0  0  0  0  0  0
  138.0738   78.9396  223.4006 H   0  0  0  0  0  0  0  0  0  0  0  0
  138.6736   70.3730  222.7437 H   0  0  0  0  0  0  0  0  0  0  0  0
  138.3118   68.8654  224.6851 H   0  0  0  0  0  0  0  0  0  0  0  0
  138.8475   68.3301  227.0390 H   0  0  0  0  0  0  0  0  0  0  0  0
  140.0728   68.8653  229.0995 H   0  0  0  0  0  0  0  0  0  0  0  0
  141.5902   70.8312  229.2250 H   0  0  0  0  0  0  0  0  0  0  0  0
  141.8558   72.2498  227.2027 H   0  0  0  0  0  0  0  0  0  0  0  0
  1  2  2  0
  2  3  1  0
  3  4  1  0
  4  5  1  0
  5  6  2  0
  5  7  1  0
  7  8  1  0
  8  9  1  0
  9 10  1  0
 10 11  1  0
 11 12  1  0
 12 13  2  0
 13 14  1  0
 14 15  2  0
 15 16  1  0
 16 17  2  0
 17 18  1  0
  2 19  1  0
 19 20  2  0
 20 21  1  0
 21 22  2  0
 22 23  1  0
 23 24  2  0
 24 25  1  0
 25 26  2  0
 26 27  1  0
 27 28  2  0
 11  7  1  0
 17 12  1  0
 28 19  1  0
 27 22  1  0
  3 29  1  0
  4 30  1  0
  4 31  1  0
  8 32  1  0
  8 33  1  0
  9 34  1  0
  9 35  1  0
 10 36  1  0
 10 37  1  0
 11 38  1  6
 13 39  1  0
 14 40  1  0
 15 41  1  0
 16 42  1  0
 20 43  1  0
 21 44  1  0
 23 45  1  0
 24 46  1  0
 25 47  1  0
 26 48  1  0
M  END
>  <smiles>  (42) 
O=C(NCC(=O)N1CCCC1c1ccccc1Cl)c1ccc2ccccc2n1

>  <score_type>  (42) 
oracle

>  <origin>  (42) 
autodockgpu

>  <m_score__min__energy>  (42) 
-8.7799999999999994

>  <m_primary>  (42) 
energy

>  <rmsd>  (42) 
1.8859775181478482

>  <m_score__min__rmsd>  (42) 
1.8859775181478482

>  <meeko>  (42) 
{"free_energy": -8.6, "intermolecular_energy": -10.09, "internal_energy": -1.49, "cluster_size": 16, "cluster_id": 1, "rank_in_cluster": 12}

>  <energy>  (42) 
-7.21

>  <cluster_rmsd>  (42) 
0.13

>  <cluster>  (42) 
8

$$$$

     RDKit          3D

 48 51  0  0  0  0  0  0  0  0999 V2000
  139.0790   70.9660  221.3920 O   0  0  0  0  0  0  0  0  0  0  0  0
  139.2310   71.6550  222.4390 C   0  0  0  0  0  0  0  0  0  0  0  0
  139.0120   73.0800  222.2520 N   0  0  0  0  0  0  0  0  0  0  0  0
  138.6620   73.4940  220.9340 C   0  0  0  0  0  0  0  0  0  0  0  0
  139.7150   73.7300  219.9630 C   0  0  0  0  0  0  0  0  0  0  0  0
  139.3290   74.3840  218.9150 O   0  0  0  0  0  0  0  0  0  0  0  0
  141.0770   73.3660  219.9690 N   0  0  0  0  0  0  0  0  0  0  0  0
  141.7360   72.0760  219.8800 C   0  0  0  0  0  0  0  0  0  0  0  0
  142.7380   72.2110  221.0130 C   0  0  0  0  0  0  0  0  0  0  0  0
  143.2610   73.6440  220.8080 C   0  0  0  0  0  0  0  0  0  0  0  0
  142.1550   74.3250  220.1120 C   0  0  2  0  0  0  0  0  0  0  0  0
  141.7560   75.5990  220.7640 C   0  0  0  0  0  0  0  0  0  0  0  0
  141.0860   75.6650  221.9660 C   0  0  0  0  0  0  0  0  0  0  0  0
  140.7440   76.8520  222.5800 C   0  0  0  0  0  0  0  0  0  0  0  0
  141.0790   78.0560  221.9780 C   0  0  0  0  0  0  0  0  0  0  0  0
  141.7500   78.0270  220.7710 C   0  0  0  0  0  0  0  0  0  0  0  0
  142.0800   76.8250  220.1810 C   0  0  0  0  0  0  0  0  0  0  0  0
  142.9370   76.7750  218.6390 Cl  0  0  0  0  0  0  0  0  0  0  0  0
  139.5880   71.1210  223.7260 C   0  0  0  0  0  0  0  0  0  0  0  0
  139.3550   69.8090  223.9940 C   0  0  0  0  0  0  0  0  0  0  0  0
  139.6760   69.2380  225.2140 C   0  0  0  0  0  0  0  0  0  0  0  0
  140.2550   70.0470  226.1770 C   0  0  0  0  0  0  0  0  0  0  0  0
  140.6080   69.5590  227.4220 C   0  0  0  0  0  0  0  0  0  0  0  0
  141.1790   70.3960  228.3480 C   0  0  0  0  0  0  0  0  0  0  0  0
  141.4180   71.7300  228.0810 C   0  0  0  0  0  0  0  0  0  0  0  0
  141.0620   72.2010  226.8380 C   0  0  0  0  0  0  0  0  0  0  0  0
  140.4850   71.3760  225.8890 C   0  0  0  0  0  0  0  0  0  0  0  0
  140.1530   71.8900  224.6840 N   0  0  0  0  0  0  0  0  0  0  0  0
  139.1220   73.7200  223.0830 H   0  0  0  0  0  0  0  0  0  0  0  0
  138.0076   72.7151  220.5156 H   0  0  0  0  0  0  0  0  0  0  0  0
  138.2149   74.4881  221.0820 H   0  0  0  0  0  0  0  0  0  0  0  0
  141.0343   71.2467  220.0527 H   0  0  0  0  0  0  0  0  0  0  0  0
  142.1760   71.8481  218.8980 H   0  0  0  0  0  0  0  0  0  0  0  0
  142.2508   72.0996  221.9929 H   0  0  0  0  0  0  0  0  0  0  0  0
  143.5271   71.4447  221.0011 H   0  0  0  0  0  0  0  0  0  0  0  0
  143.4723   74.1261  221.7739 H   0  0  0  0  0  0  0  0  0  0  0  0
  144.2039   73.6761  220.2423 H   0  0  0  0  0  0  0  0  0  0  0  0
  142.4767   74.6523  219.1123 H   0  0  0  0  0  0  0  0  0  0  0  0
  140.8095   74.7227  222.4616 H   0  0  0  0  0  0  0  0  0  0  0  0
  140.2089   76.8438  223.5411 H   0  0  0  0  0  0  0  0  0  0  0  0
  140.8159   79.0133  222.4517 H   0  0  0  0  0  0  0  0  0  0  0  0
  142.0234   78.9706  220.2762 H   0  0  0  0  0  0  0  0  0  0  0  0
  138.8965   69.1803  223.2165 H   0  0  0  0  0  0  0  0  0  0  0  0
  139.4771   68.1744  225.4120 H   0  0  0  0  0  0  0  0  0  0  0  0
  140.4315   68.5019  227.6697 H   0  0  0  0  0  0  0  0  0  0  0  0
  141.4548   69.9919  229.3332 H   0  0  0  0  0  0  0  0  0  0  0  0
  141.8751   72.3902  228.8328 H   0  0  0  0  0  0  0  0  0  0  0  0
  141.2404   73.2584  226.5931 H   0  0  0  0  0  0  0  0  0  0  0  0
  1  2  2  0
  2  3  1  0
  3  4  1  0
  4  5  1  0
  5  6  2  0
  5  7  1  0
  7  8  1  0
  8  9  1  0
  9 10  1  0
 10 11  1  0
 11 12  1  0
 12 13  2  0
 13 14  1  0
 14 15  2  0
 15 16  1  0
 16 17  2  0
 17 18  1  0
  2 19  1  0
 19 20  2  0
 20 21  1  0
 21 22  2  0
 22 23  1  0
 23 24  2  0
 24 25  1  0
 25 26  2  0
 26 27  1  0
 27 28  2  0
 11  7  1  0
 17 12  1  0
 28 19  1  0
 27 22  1  0
  3 29  1  0
  4 30  1  0
  4 31  1  0
  8 32  1  0
  8 33  1  0
  9 34  1  0
  9 35  1  0
 10 36  1  0
 10 37  1  0
 11 38  1  6
 13 39  1  0
 14 40  1  0
 15 41  1  0
 16 42  1  0
 20 43  1  0
 21 44  1  0
 23 45  1  0
 24 46  1  0
 25 47  1  0
 26 48  1  0
M  END
>  <smiles>  (43) 
O=C(NCC(=O)N1CCCC1c1ccccc1Cl)c1ccc2ccccc2n1

>  <score_type>  (43) 
oracle

>  <origin>  (43) 
autodockgpu

>  <m_score__min__energy>  (43) 
-8.7799999999999994

>  <m_primary>  (43) 
energy

>  <rmsd>  (43) 
2.793361724892949

>  <m_score__min__rmsd>  (43) 
2.793361724892949

>  <meeko>  (43) 
{"free_energy": -7.59, "intermolecular_energy": -9.08, "internal_energy": -2.11, "cluster_size": 9, "cluster_id": 3, "rank_in_cluster": 6}

>  <energy>  (43) 
-7.21

>  <cluster_rmsd>  (43) 
0.12

>  <cluster>  (43) 
8

$$$$

     RDKit          3D

 48 51  0  0  0  0  0  0  0  0999 V2000
  141.2430   72.4120  221.7530 O   0  0  0  0  0  0  0  0  0  0  0  0
  140.3030   72.4180  222.5950 C   0  0  0  0  0  0  0  0  0  0  0  0
  139.2740   73.4110  222.3320 N   0  0  0  0  0  0  0  0  0  0  0  0
  139.4670   74.2260  221.1790 C   0  0  0  0  0  0  0  0  0  0  0  0
  140.4920   75.2540  221.2020 C   0  0  0  0  0  0  0  0  0  0  0  0
  140.7860   75.6780  222.3880 O   0  0  0  0  0  0  0  0  0  0  0  0
  141.2130   75.8640  220.1550 N   0  0  0  0  0  0  0  0  0  0  0  0
  142.0660   75.3140  219.1180 C   0  0  0  0  0  0  0  0  0  0  0  0
  143.2510   76.2600  219.2210 C   0  0  0  0  0  0  0  0  0  0  0  0
  142.5580   77.6270  219.3580 C   0  0  0  0  0  0  0  0  0  0  0  0
  141.2450   77.2970  219.9420 C   0  0  2  0  0  0  0  0  0  0  0  0
  140.9300   78.1010  221.1510 C   0  0  0  0  0  0  0  0  0  0  0  0
  141.8880   78.6200  221.9950 C   0  0  0  0  0  0  0  0  0  0  0  0
  141.5900   79.3900  223.1010 C   0  0  0  0  0  0  0  0  0  0  0  0
  140.2650   79.6710  223.4010 C   0  0  0  0  0  0  0  0  0  0  0  0
  139.2780   79.1660  222.5770 C   0  0  0  0  0  0  0  0  0  0  0  0
  139.6070   78.4000  221.4780 C   0  0  0  0  0  0  0  0  0  0  0  0
  138.3550   77.7500  220.4180 Cl  0  0  0  0  0  0  0  0  0  0  0  0
  140.2140   71.5380  223.7300 C   0  0  0  0  0  0  0  0  0  0  0  0
  139.6410   70.3150  223.5850 C   0  0  0  0  0  0  0  0  0  0  0  0
  139.5270   69.4250  224.6400 C   0  0  0  0  0  0  0  0  0  0  0  0
  140.0200   69.8150  225.8730 C   0  0  0  0  0  0  0  0  0  0  0  0
  139.9480   68.9890  226.9810 C   0  0  0  0  0  0  0  0  0  0  0  0
  140.4490   69.4140  228.1850 C   0  0  0  0  0  0  0  0  0  0  0  0
  141.0330   70.6570  228.3380 C   0  0  0  0  0  0  0  0  0  0  0  0
  141.0980   71.4670  227.2280 C   0  0  0  0  0  0  0  0  0  0  0  0
  140.5990   71.0600  226.0040 C   0  0  0  0  0  0  0  0  0  0  0  0
  140.6870   71.8950  224.9450 N   0  0  0  0  0  0  0  0  0  0  0  0
  138.4560   73.4760  222.9940 H   0  0  0  0  0  0  0  0  0  0  0  0
  139.7077   73.5507  220.3447 H   0  0  0  0  0  0  0  0  0  0  0  0
  138.5284   74.7941  221.1000 H   0  0  0  0  0  0  0  0  0  0  0  0
  142.3535   74.2746  219.3347 H   0  0  0  0  0  0  0  0  0  0  0  0
  141.6047   75.2564  218.1211 H   0  0  0  0  0  0  0  0  0  0  0  0
  143.8673   76.0340  220.1037 H   0  0  0  0  0  0  0  0  0  0  0  0
  143.9439   76.1974  218.3689 H   0  0  0  0  0  0  0  0  0  0  0  0
  143.1281   78.2906  220.0248 H   0  0  0  0  0  0  0  0  0  0  0  0
  142.4760   78.1610  218.3998 H   0  0  0  0  0  0  0  0  0  0  0  0
  140.4376   77.5724  219.2475 H   0  0  0  0  0  0  0  0  0  0  0  0
  142.9452   78.4096  221.7757 H   0  0  0  0  0  0  0  0  0  0  0  0
  142.3971   79.7780  223.7398 H   0  0  0  0  0  0  0  0  0  0  0  0
  140.0056   80.2834  224.2772 H   0  0  0  0  0  0  0  0  0  0  0  0
  138.2214   79.3764  222.7990 H   0  0  0  0  0  0  0  0  0  0  0  0
  139.2550   70.0219  222.5975 H   0  0  0  0  0  0  0  0  0  0  0  0
  139.0592   68.4390  224.5022 H   0  0  0  0  0  0  0  0  0  0  0  0
  139.4895   67.9927  226.8962 H   0  0  0  0  0  0  0  0  0  0  0  0
  140.3839   68.7448  229.0556 H   0  0  0  0  0  0  0  0  0  0  0  0
  141.4304   70.9860  229.3095 H   0  0  0  0  0  0  0  0  0  0  0  0
  141.5579   72.4624  227.3160 H   0  0  0  0  0  0  0  0  0  0  0  0
  1  2  2  0
  2  3  1  0
  3  4  1  0
  4  5  1  0
  5  6  2  0
  5  7  1  0
  7  8  1  0
  8  9  1  0
  9 10  1  0
 10 11  1  0
 11 12  1  0
 12 13  2  0
 13 14  1  0
 14 15  2  0
 15 16  1  0
 16 17  2  0
 17 18  1  0
  2 19  1  0
 19 20  2  0
 20 21  1  0
 21 22  2  0
 22 23  1  0
 23 24  2  0
 24 25  1  0
 25 26  2  0
 26 27  1  0
 27 28  2  0
 11  7  1  0
 17 12  1  0
 28 19  1  0
 27 22  1  0
  3 29  1  0
  4 30  1  0
  4 31  1  0
  8 32  1  0
  8 33  1  0
  9 34  1  0
  9 35  1  0
 10 36  1  0
 10 37  1  0
 11 38  1  6
 13 39  1  0
 14 40  1  0
 15 41  1  0
 16 42  1  0
 20 43  1  0
 21 44  1  0
 23 45  1  0
 24 46  1  0
 25 47  1  0
 26 48  1  0
M  END
>  <smiles>  (44) 
O=C(NCC(=O)N1CCCC1c1ccccc1Cl)c1ccc2ccccc2n1

>  <score_type>  (44) 
oracle

>  <origin>  (44) 
autodockgpu

>  <m_score__min__energy>  (44) 
-8.7799999999999994

>  <m_primary>  (44) 
energy

>  <rmsd>  (44) 
1.8868536602574892

>  <m_score__min__rmsd>  (44) 
1.8868536602574892

>  <meeko>  (44) 
{"free_energy": -8.61, "intermolecular_energy": -10.1, "internal_energy": -1.42, "cluster_size": 16, "cluster_id": 1, "rank_in_cluster": 11}

>  <energy>  (44) 
-7.2

>  <cluster_rmsd>  (44) 
0.07

>  <cluster>  (44) 
8

$$$$

     RDKit          3D

 48 51  0  0  0  0  0  0  0  0999 V2000
  138.9570   75.1910  221.7050 O   0  0  0  0  0  0  0  0  0  0  0  0
  140.0660   75.7410  221.9530 C   0  0  0  0  0  0  0  0  0  0  0  0
  141.2180   74.8780  221.7530 N   0  0  0  0  0  0  0  0  0  0  0  0
  140.9410   73.5510  221.3120 C   0  0  0  0  0  0  0  0  0  0  0  0
  141.7780   72.9560  220.2870 C   0  0  0  0  0  0  0  0  0  0  0  0
  141.1170   72.4140  219.3160 O   0  0  0  0  0  0  0  0  0  0  0  0
  143.1810   72.8690  220.1750 N   0  0  0  0  0  0  0  0  0  0  0  0
  144.1510   71.9920  220.8030 C   0  0  0  0  0  0  0  0  0  0  0  0
  145.1920   73.0110  221.2330 C   0  0  0  0  0  0  0  0  0  0  0  0
  145.2840   73.9170  219.9920 C   0  0  0  0  0  0  0  0  0  0  0  0
  143.9680   73.7610  219.3450 C   0  0  2  0  0  0  0  0  0  0  0  0
  143.3100   75.0590  219.0500 C   0  0  0  0  0  0  0  0  0  0  0  0
  143.1800   76.0770  219.9690 C   0  0  0  0  0  0  0  0  0  0  0  0
  142.5920   77.2920  219.6790 C   0  0  0  0  0  0  0  0  0  0  0  0
  142.1000   77.5270  218.4040 C   0  0  0  0  0  0  0  0  0  0  0  0
  142.2130   76.5280  217.4560 C   0  0  0  0  0  0  0  0  0  0  0  0
  142.8060   75.3230  217.7760 C   0  0  0  0  0  0  0  0  0  0  0  0
  142.9560   74.0400  216.5740 Cl  0  0  0  0  0  0  0  0  0  0  0  0
  140.2240   77.1010  222.3960 C   0  0  0  0  0  0  0  0  0  0  0  0
  139.1220   77.8480  222.6700 C   0  0  0  0  0  0  0  0  0  0  0  0
  139.2110   79.1620  223.1000 C   0  0  0  0  0  0  0  0  0  0  0  0
  140.4730   79.7110  223.2490 C   0  0  0  0  0  0  0  0  0  0  0  0
  140.6530   81.0160  223.6730 C   0  0  0  0  0  0  0  0  0  0  0  0
  141.9220   81.5220  223.8080 C   0  0  0  0  0  0  0  0  0  0  0  0
  143.0450   80.7670  223.5300 C   0  0  0  0  0  0  0  0  0  0  0  0
  142.8500   79.4720  223.1100 C   0  0  0  0  0  0  0  0  0  0  0  0
  141.5800   78.9400  222.9670 C   0  0  0  0  0  0  0  0  0  0  0  0
  141.4450   77.6620  222.5490 N   0  0  0  0  0  0  0  0  0  0  0  0
  142.1790   75.2690  221.9410 H   0  0  0  0  0  0  0  0  0  0  0  0
  141.0031   72.8992  222.1959 H   0  0  0  0  0  0  0  0  0  0  0  0
  139.9566   73.6364  220.8286 H   0  0  0  0  0  0  0  0  0  0  0  0
  143.7216   71.4593  221.6643 H   0  0  0  0  0  0  0  0  0  0  0  0
  144.5315   71.1862  220.1581 H   0  0  0  0  0  0  0  0  0  0  0  0
  144.8580   73.5754  222.1161 H   0  0  0  0  0  0  0  0  0  0  0  0
  146.1531   72.5655  221.5293 H   0  0  0  0  0  0  0  0  0  0  0  0
  145.4562   74.9638  220.2828 H   0  0  0  0  0  0  0  0  0  0  0  0
  146.1190   73.6470  219.3288 H   0  0  0  0  0  0  0  0  0  0  0  0
  144.0827   73.3126  218.3471 H   0  0  0  0  0  0  0  0  0  0  0  0
  143.5646   75.9133  220.9865 H   0  0  0  0  0  0  0  0  0  0  0  0
  142.5143   78.0685  220.4542 H   0  0  0  0  0  0  0  0  0  0  0  0
  141.6294   78.4889  218.1524 H   0  0  0  0  0  0  0  0  0  0  0  0
  141.8277   76.6940  216.4391 H   0  0  0  0  0  0  0  0  0  0  0  0
  138.1274   77.3946  222.5463 H   0  0  0  0  0  0  0  0  0  0  0  0
  138.3072   79.7506  223.3162 H   0  0  0  0  0  0  0  0  0  0  0  0
  139.7811   81.6465  223.9014 H   0  0  0  0  0  0  0  0  0  0  0  0
  142.0485   82.5605  224.1480 H   0  0  0  0  0  0  0  0  0  0  0  0
  144.0563   81.1855  223.6403 H   0  0  0  0  0  0  0  0  0  0  0  0
  143.7240   78.8440  222.8823 H   0  0  0  0  0  0  0  0  0  0  0  0
  1  2  2  0
  2  3  1  0
  3  4  1  0
  4  5  1  0
  5  6  2  0
  5  7  1  0
  7  8  1  0
  8  9  1  0
  9 10  1  0
 10 11  1  0
 11 12  1  0
 12 13  2  0
 13 14  1  0
 14 15  2  0
 15 16  1  0
 16 17  2  0
 17 18  1  0
  2 19  1  0
 19 20  2  0
 20 21  1  0
 21 22  2  0
 22 23  1  0
 23 24  2  0
 24 25  1  0
 25 26  2  0
 26 27  1  0
 27 28  2  0
 11  7  1  0
 17 12  1  0
 28 19  1  0
 27 22  1  0
  3 29  1  0
  4 30  1  0
  4 31  1  0
  8 32  1  0
  8 33  1  0
  9 34  1  0
  9 35  1  0
 10 36  1  0
 10 37  1  0
 11 38  1  6
 13 39  1  0
 14 40  1  0
 15 41  1  0
 16 42  1  0
 20 43  1  0
 21 44  1  0
 23 45  1  0
 24 46  1  0
 25 47  1  0
 26 48  1  0
M  END
>  <smiles>  (45) 
O=C(NCC(=O)N1CCCC1c1ccccc1Cl)c1ccc2ccccc2n1

>  <score_type>  (45) 
oracle

>  <origin>  (45) 
autodockgpu

>  <m_score__min__energy>  (45) 
-8.7799999999999994

>  <m_primary>  (45) 
energy

>  <rmsd>  (45) 
7.804147778076355

>  <m_score__min__rmsd>  (45) 
7.804147778076355

>  <meeko>  (45) 
{"free_energy": -7.17, "intermolecular_energy": -8.66, "internal_energy": -2.4, "cluster_size": 5, "cluster_id": 6, "rank_in_cluster": 4}

>  <energy>  (45) 
-7.2

>  <cluster_rmsd>  (45) 
0.16

>  <cluster>  (45) 
8

$$$$

     RDKit          3D

 48 51  0  0  0  0  0  0  0  0999 V2000
  142.1880   78.0650  217.4300 O   0  0  0  0  0  0  0  0  0  0  0  0
  142.5200   77.4780  218.4970 C   0  0  0  0  0  0  0  0  0  0  0  0
  142.1720   78.2020  219.7080 N   0  0  0  0  0  0  0  0  0  0  0  0
  141.5140   79.4530  219.5260 C   0  0  0  0  0  0  0  0  0  0  0  0
  140.8520   80.0760  220.6570 C   0  0  0  0  0  0  0  0  0  0  0  0
  139.6900   80.5730  220.3800 O   0  0  0  0  0  0  0  0  0  0  0  0
  141.2620   80.2310  221.9980 N   0  0  0  0  0  0  0  0  0  0  0  0
  142.2010   81.1420  222.6250 C   0  0  0  0  0  0  0  0  0  0  0  0
  142.9830   80.1650  223.4860 C   0  0  0  0  0  0  0  0  0  0  0  0
  141.8630   79.2870  224.0710 C   0  0  0  0  0  0  0  0  0  0  0  0
  140.7790   79.3930  223.0780 C   0  0  2  0  0  0  0  0  0  0  0  0
  140.2640   78.0700  222.6400 C   0  0  0  0  0  0  0  0  0  0  0  0
  141.0720   76.9950  222.3390 C   0  0  0  0  0  0  0  0  0  0  0  0
  140.5850   75.7610  221.9600 C   0  0  0  0  0  0  0  0  0  0  0  0
  139.2150   75.5640  221.8700 C   0  0  0  0  0  0  0  0  0  0  0  0
  138.3750   76.6200  222.1640 C   0  0  0  0  0  0  0  0  0  0  0  0
  138.8900   77.8430  222.5400 C   0  0  0  0  0  0  0  0  0  0  0  0
  137.8270   79.1990  222.9180 Cl  0  0  0  0  0  0  0  0  0  0  0  0
  143.1860   76.2040  218.5570 C   0  0  0  0  0  0  0  0  0  0  0  0
  143.1750   75.3910  217.4680 C   0  0  0  0  0  0  0  0  0  0  0  0
  143.7980   74.1540  217.4670 C   0  0  0  0  0  0  0  0  0  0  0  0
  144.4480   73.7540  218.6210 C   0  0  0  0  0  0  0  0  0  0  0  0
  145.0960   72.5340  218.7060 C   0  0  0  0  0  0  0  0  0  0  0  0
  145.7280   72.1760  219.8710 C   0  0  0  0  0  0  0  0  0  0  0  0
  145.7420   72.9990  220.9800 C   0  0  0  0  0  0  0  0  0  0  0  0
  145.0940   74.2080  220.8810 C   0  0  0  0  0  0  0  0  0  0  0  0
  144.4500   74.5900  219.7170 C   0  0  0  0  0  0  0  0  0  0  0  0
  143.8270   75.7890  219.6730 N   0  0  0  0  0  0  0  0  0  0  0  0
  142.4180   77.7730  220.6390 H   0  0  0  0  0  0  0  0  0  0  0  0
  142.2710   80.1647  219.1648 H   0  0  0  0  0  0  0  0  0  0  0  0
  140.6891   79.2169  218.8377 H   0  0  0  0  0  0  0  0  0  0  0  0
  142.8446   81.6385  221.8839 H   0  0  0  0  0  0  0  0  0  0  0  0
  141.7402   81.9765  223.1738 H   0  0  0  0  0  0  0  0  0  0  0  0
  143.6824   79.5698  222.8805 H   0  0  0  0  0  0  0  0  0  0  0  0
  143.6107   80.6496  224.2483 H   0  0  0  0  0  0  0  0  0  0  0  0
  142.1971   78.2443  224.1767 H   0  0  0  0  0  0  0  0  0  0  0  0
  141.5521   79.6075  225.0763 H   0  0  0  0  0  0  0  0  0  0  0  0
  139.8927   79.8648  223.5273 H   0  0  0  0  0  0  0  0  0  0  0  0
  142.1620   77.1277  222.4043 H   0  0  0  0  0  0  0  0  0  0  0  0
  141.2787   74.9387  221.7307 H   0  0  0  0  0  0  0  0  0  0  0  0
  138.8063   74.5875  221.5708 H   0  0  0  0  0  0  0  0  0  0  0  0
  137.2854   76.4845  222.0977 H   0  0  0  0  0  0  0  0  0  0  0  0
  142.6548   75.7260  216.5585 H   0  0  0  0  0  0  0  0  0  0  0  0
  143.7767   73.5093  216.5760 H   0  0  0  0  0  0  0  0  0  0  0  0
  145.1046   71.8529  217.8423 H   0  0  0  0  0  0  0  0  0  0  0  0
  146.2392   71.2034  219.9228 H   0  0  0  0  0  0  0  0  0  0  0  0
  146.2521   72.6989  221.9072 H   0  0  0  0  0  0  0  0  0  0  0  0
  145.0874   74.8868  221.7466 H   0  0  0  0  0  0  0  0  0  0  0  0
  1  2  2  0
  2  3  1  0
  3  4  1  0
  4  5  1  0
  5  6  2  0
  5  7  1  0
  7  8  1  0
  8  9  1  0
  9 10  1  0
 10 11  1  0
 11 12  1  0
 12 13  2  0
 13 14  1  0
 14 15  2  0
 15 16  1  0
 16 17  2  0
 17 18  1  0
  2 19  1  0
 19 20  2  0
 20 21  1  0
 21 22  2  0
 22 23  1  0
 23 24  2  0
 24 25  1  0
 25 26  2  0
 26 27  1  0
 27 28  2  0
 11  7  1  0
 17 12  1  0
 28 19  1  0
 27 22  1  0
  3 29  1  0
  4 30  1  0
  4 31  1  0
  8 32  1  0
  8 33  1  0
  9 34  1  0
  9 35  1  0
 10 36  1  0
 10 37  1  0
 11 38  1  1
 13 39  1  0
 14 40  1  0
 15 41  1  0
 16 42  1  0
 20 43  1  0
 21 44  1  0
 23 45  1  0
 24 46  1  0
 25 47  1  0
 26 48  1  0
M  END
>  <smiles>  (46) 
O=C(NCC(=O)N1CCCC1c1ccccc1Cl)c1ccc2ccccc2n1

>  <score_type>  (46) 
oracle

>  <origin>  (46) 
autodockgpu

>  <m_score__min__energy>  (46) 
-8.7799999999999994

>  <m_primary>  (46) 
energy

>  <rmsd>  (46) 
7.978781161788482

>  <m_score__min__rmsd>  (46) 
7.978781161788482

>  <meeko>  (46) 
{"free_energy": -7.09, "intermolecular_energy": -8.58, "internal_energy": -2.19, "cluster_size": 14, "cluster_id": 8, "rank_in_cluster": 13}

>  <energy>  (46) 
-7.2

>  <cluster_rmsd>  (46) 
0.15

>  <cluster>  (46) 
8

$$$$

     RDKit          3D

 48 51  0  0  0  0  0  0  0  0999 V2000
  140.5590   76.7280  218.4060 O   0  0  0  0  0  0  0  0  0  0  0  0
  141.6080   76.6850  219.1080 C   0  0  0  0  0  0  0  0  0  0  0  0
  141.9290   77.9340  219.7780 N   0  0  0  0  0  0  0  0  0  0  0  0
  141.0290   79.0160  219.5530 C   0  0  0  0  0  0  0  0  0  0  0  0
  140.8110   79.9860  220.6110 C   0  0  0  0  0  0  0  0  0  0  0  0
  140.0590   80.9810  220.2670 O   0  0  0  0  0  0  0  0  0  0  0  0
  141.2800   80.0260  221.9400 N   0  0  0  0  0  0  0  0  0  0  0  0
  142.3040   80.8270  222.5820 C   0  0  0  0  0  0  0  0  0  0  0  0
  143.0460   79.7460  223.3490 C   0  0  0  0  0  0  0  0  0  0  0  0
  141.8880   78.9120  223.9250 C   0  0  0  0  0  0  0  0  0  0  0  0
  140.7790   79.1560  222.9860 C   0  0  2  0  0  0  0  0  0  0  0  0
  140.1530   77.9030  222.4890 C   0  0  0  0  0  0  0  0  0  0  0  0
  140.8380   76.7180  222.3300 C   0  0  0  0  0  0  0  0  0  0  0  0
  140.2440   75.5510  221.8950 C   0  0  0  0  0  0  0  0  0  0  0  0
  138.8900   75.5420  221.5980 C   0  0  0  0  0  0  0  0  0  0  0  0
  138.1720   76.7120  221.7460 C   0  0  0  0  0  0  0  0  0  0  0  0
  138.7930   77.8640  222.1820 C   0  0  0  0  0  0  0  0  0  0  0  0
  137.8860   79.3660  222.3760 Cl  0  0  0  0  0  0  0  0  0  0  0  0
  142.4440   75.5230  219.2600 C   0  0  0  0  0  0  0  0  0  0  0  0
  142.0800   74.3550  218.6700 C   0  0  0  0  0  0  0  0  0  0  0  0
  142.8430   73.2040  218.7820 C   0  0  0  0  0  0  0  0  0  0  0  0
  144.0100   73.2690  219.5220 C   0  0  0  0  0  0  0  0  0  0  0  0
  144.8320   72.1680  219.6850 C   0  0  0  0  0  0  0  0  0  0  0  0
  145.9810   72.2760  220.4270 C   0  0  0  0  0  0  0  0  0  0  0  0
  146.3550   73.4620  221.0300 C   0  0  0  0  0  0  0  0  0  0  0  0
  145.5290   74.5480  220.8590 C   0  0  0  0  0  0  0  0  0  0  0  0
  144.3650   74.4630  220.1150 C   0  0  0  0  0  0  0  0  0  0  0  0
  143.5880   75.5600  219.9790 N   0  0  0  0  0  0  0  0  0  0  0  0
  142.7920   77.9740  220.3810 H   0  0  0  0  0  0  0  0  0  0  0  0
  141.4046   79.5707  218.6805 H   0  0  0  0  0  0  0  0  0  0  0  0
  140.0510   78.5248  219.4420 H   0  0  0  0  0  0  0  0  0  0  0  0
  142.9536   81.3241  221.8466 H   0  0  0  0  0  0  0  0  0  0  0  0
  141.9243   81.6542  223.1997 H   0  0  0  0  0  0  0  0  0  0  0  0
  143.6785   79.1438  222.6803 H   0  0  0  0  0  0  0  0  0  0  0  0
  143.7346   80.1366  224.1127 H   0  0  0  0  0  0  0  0  0  0  0  0
  142.1501   77.8441  223.9530 H   0  0  0  0  0  0  0  0  0  0  0  0
  141.6381   79.1884  224.9600 H   0  0  0  0  0  0  0  0  0  0  0  0
  139.9467   79.6583  223.5006 H   0  0  0  0  0  0  0  0  0  0  0  0
  141.9132   76.7015  222.5617 H   0  0  0  0  0  0  0  0  0  0  0  0
  140.8410   74.6337  221.7846 H   0  0  0  0  0  0  0  0  0  0  0  0
  138.3976   74.6214  221.2515 H   0  0  0  0  0  0  0  0  0  0  0  0
  137.0967   76.7256  221.5145 H   0  0  0  0  0  0  0  0  0  0  0  0
  141.1494   74.3218  218.0844 H   0  0  0  0  0  0  0  0  0  0  0  0
  142.5305   72.2673  218.2974 H   0  0  0  0  0  0  0  0  0  0  0  0
  144.5647   71.2075  219.2203 H   0  0  0  0  0  0  0  0  0  0  0  0
  146.6242   71.3916  220.5456 H   0  0  0  0  0  0  0  0  0  0  0  0
  147.2780   73.5344  221.6240 H   0  0  0  0  0  0  0  0  0  0  0  0
  145.7998   75.5071  221.3246 H   0  0  0  0  0  0  0  0  0  0  0  0
  1  2  2  0
  2  3  1  0
  3  4  1  0
  4  5  1  0
  5  6  2  0
  5  7  1  0
  7  8  1  0
  8  9  1  0
  9 10  1  0
 10 11  1  0
 11 12  1  0
 12 13  2  0
 13 14  1  0
 14 15  2  0
 15 16  1  0
 16 17  2  0
 17 18  1  0
  2 19  1  0
 19 20  2  0
 20 21  1  0
 21 22  2  0
 22 23  1  0
 23 24  2  0
 24 25  1  0
 25 26  2  0
 26 27  1  0
 27 28  2  0
 11  7  1  0
 17 12  1  0
 28 19  1  0
 27 22  1  0
  3 29  1  0
  4 30  1  0
  4 31  1  0
  8 32  1  0
  8 33  1  0
  9 34  1  0
  9 35  1  0
 10 36  1  0
 10 37  1  0
 11 38  1  1
 13 39  1  0
 14 40  1  0
 15 41  1  0
 16 42  1  0
 20 43  1  0
 21 44  1  0
 23 45  1  0
 24 46  1  0
 25 47  1  0
 26 48  1  0
M  END
>  <smiles>  (47) 
O=C(NCC(=O)N1CCCC1c1ccccc1Cl)c1ccc2ccccc2n1

>  <score_type>  (47) 
oracle

>  <origin>  (47) 
autodockgpu

>  <m_score__min__energy>  (47) 
-8.7799999999999994

>  <m_primary>  (47) 
energy

>  <rmsd>  (47) 
7.375549732177366

>  <m_score__min__rmsd>  (47) 
7.375549732177366

>  <meeko>  (47) 
{"free_energy": -6.75, "intermolecular_energy": -8.24, "internal_energy": -2.54, "cluster_size": 14, "cluster_id": 8, "rank_in_cluster": 14}

>  <energy>  (47) 
-7.12

>  <cluster_rmsd>  (47) 
0.23

>  <cluster>  (47) 
8

$$$$

     RDKit          3D

 48 51  0  0  0  0  0  0  0  0999 V2000
  140.4220   73.5270  222.3050 O   0  0  0  0  0  0  0  0  0  0  0  0
  140.5700   72.2780  222.4100 C   0  0  0  0  0  0  0  0  0  0  0  0
  141.0620   71.6320  221.2040 N   0  0  0  0  0  0  0  0  0  0  0  0
  141.3060   72.4860  220.0900 C   0  0  0  0  0  0  0  0  0  0  0  0
  141.7400   71.9030  218.8330 C   0  0  0  0  0  0  0  0  0  0  0  0
  141.6780   70.6120  218.8020 O   0  0  0  0  0  0  0  0  0  0  0  0
  142.2150   72.5060  217.6490 N   0  0  0  0  0  0  0  0  0  0  0  0
  141.8360   72.3410  216.2590 C   0  0  0  0  0  0  0  0  0  0  0  0
  143.2090   72.2070  215.6230 C   0  0  0  0  0  0  0  0  0  0  0  0
  144.0040   73.3100  216.3440 C   0  0  0  0  0  0  0  0  0  0  0  0
  143.2980   73.4690  217.6280 C   0  0  2  0  0  0  0  0  0  0  0  0
  144.2060   73.3930  218.8020 C   0  0  0  0  0  0  0  0  0  0  0  0
  145.0730   72.3460  219.0310 C   0  0  0  0  0  0  0  0  0  0  0  0
  145.9340   72.2960  220.1080 C   0  0  0  0  0  0  0  0  0  0  0  0
  145.9490   73.3380  221.0220 C   0  0  0  0  0  0  0  0  0  0  0  0
  145.0920   74.4040  220.8240 C   0  0  0  0  0  0  0  0  0  0  0  0
  144.2420   74.4270  219.7380 C   0  0  0  0  0  0  0  0  0  0  0  0
  143.1440   75.7820  219.4740 Cl  0  0  0  0  0  0  0  0  0  0  0  0
  140.2890   71.5170  223.5980 C   0  0  0  0  0  0  0  0  0  0  0  0
  139.5740   70.3640  223.5020 C   0  0  0  0  0  0  0  0  0  0  0  0
  139.2720   69.5900  224.6100 C   0  0  0  0  0  0  0  0  0  0  0  0
  139.7230   70.0220  225.8450 C   0  0  0  0  0  0  0  0  0  0  0  0
  139.4670   69.3100  227.0030 C   0  0  0  0  0  0  0  0  0  0  0  0
  139.9330   69.7730  228.2080 C   0  0  0  0  0  0  0  0  0  0  0  0
  140.6590   70.9440  228.3120 C   0  0  0  0  0  0  0  0  0  0  0  0
  140.9070   71.6410  227.1520 C   0  0  0  0  0  0  0  0  0  0  0  0
  140.4470   71.1930  225.9260 C   0  0  0  0  0  0  0  0  0  0  0  0
  140.7170   71.9170  224.8170 N   0  0  0  0  0  0  0  0  0  0  0  0
  141.2100   70.5890  221.2160 H   0  0  0  0  0  0  0  0  0  0  0  0
  140.3693   73.0259  219.8875 H   0  0  0  0  0  0  0  0  0  0  0  0
  142.1667   73.0924  220.4085 H   0  0  0  0  0  0  0  0  0  0  0  0
  141.2262   71.4382  216.1069 H   0  0  0  0  0  0  0  0  0  0  0  0
  141.2139   73.1508  215.8500 H   0  0  0  0  0  0  0  0  0  0  0  0
  143.6419   71.2136  215.8121 H   0  0  0  0  0  0  0  0  0  0  0  0
  143.2025   72.3085  214.5277 H   0  0  0  0  0  0  0  0  0  0  0  0
  145.0468   72.9996  216.5058 H   0  0  0  0  0  0  0  0  0  0  0  0
  144.0539   74.2452  215.7670 H   0  0  0  0  0  0  0  0  0  0  0  0
  142.8765   74.4817  217.7100 H   0  0  0  0  0  0  0  0  0  0  0  0
  145.0787   71.5077  218.3188 H   0  0  0  0  0  0  0  0  0  0  0  0
  146.6047   71.4342  220.2405 H   0  0  0  0  0  0  0  0  0  0  0  0
  146.6287   73.3169  221.8867 H   0  0  0  0  0  0  0  0  0  0  0  0
  145.0877   75.2407  221.5381 H   0  0  0  0  0  0  0  0  0  0  0  0
  139.2243   70.0356  222.5121 H   0  0  0  0  0  0  0  0  0  0  0  0
  138.6917   68.6607  224.5115 H   0  0  0  0  0  0  0  0  0  0  0  0
  138.8908   68.3741  226.9581 H   0  0  0  0  0  0  0  0  0  0  0  0
  139.7220   69.1940  229.1191 H   0  0  0  0  0  0  0  0  0  0  0  0
  141.0246   71.3050  229.2846 H   0  0  0  0  0  0  0  0  0  0  0  0
  141.4843   72.5761  227.2001 H   0  0  0  0  0  0  0  0  0  0  0  0
  1  2  2  0
  2  3  1  0
  3  4  1  0
  4  5  1  0
  5  6  2  0
  5  7  1  0
  7  8  1  0
  8  9  1  0
  9 10  1  0
 10 11  1  0
 11 12  1  0
 12 13  2  0
 13 14  1  0
 14 15  2  0
 15 16  1  0
 16 17  2  0
 17 18  1  0
  2 19  1  0
 19 20  2  0
 20 21  1  0
 21 22  2  0
 22 23  1  0
 23 24  2  0
 24 25  1  0
 25 26  2  0
 26 27  1  0
 27 28  2  0
 11  7  1  0
 17 12  1  0
 28 19  1  0
 27 22  1  0
  3 29  1  0
  4 30  1  0
  4 31  1  0
  8 32  1  0
  8 33  1  0
  9 34  1  0
  9 35  1  0
 10 36  1  0
 10 37  1  0
 11 38  1  6
 13 39  1  0
 14 40  1  0
 15 41  1  0
 16 42  1  0
 20 43  1  0
 21 44  1  0
 23 45  1  0
 24 46  1  0
 25 47  1  0
 26 48  1  0
M  END
>  <smiles>  (48) 
O=C(NCC(=O)N1CCCC1c1ccccc1Cl)c1ccc2ccccc2n1

>  <score_type>  (48) 
oracle

>  <origin>  (48) 
autodockgpu

>  <m_score__min__energy>  (48) 
-8.7799999999999994

>  <m_primary>  (48) 
energy

>  <rmsd>  (48) 
3.5273076884619305

>  <m_score__min__rmsd>  (48) 
3.5273076884619305

>  <meeko>  (48) 
{"free_energy": -7.51, "intermolecular_energy": -9.0, "internal_energy": -1.84, "cluster_size": 1, "cluster_id": 5, "rank_in_cluster": 1}

>  <energy>  (48) 
-7.1

>  <cluster_rmsd>  (48) 
0.11

>  <cluster>  (48) 
8

$$$$

     RDKit          3D

 48 51  0  0  0  0  0  0  0  0999 V2000
  141.1600   72.4980  221.7010 O   0  0  0  0  0  0  0  0  0  0  0  0
  140.2380   72.5070  222.5640 C   0  0  0  0  0  0  0  0  0  0  0  0
  139.2310   73.5320  222.3490 N   0  0  0  0  0  0  0  0  0  0  0  0
  139.4190   74.3700  221.2120 C   0  0  0  0  0  0  0  0  0  0  0  0
  140.5360   75.2970  221.1930 C   0  0  0  0  0  0  0  0  0  0  0  0
  141.1230   75.4390  222.3370 O   0  0  0  0  0  0  0  0  0  0  0  0
  141.0840   76.0630  220.1440 N   0  0  0  0  0  0  0  0  0  0  0  0
  141.8340   75.6890  218.9600 C   0  0  0  0  0  0  0  0  0  0  0  0
  142.9620   76.7040  219.0280 C   0  0  0  0  0  0  0  0  0  0  0  0
  142.2090   77.9940  219.3970 C   0  0  0  0  0  0  0  0  0  0  0  0
  141.0020   77.5100  220.0900 C   0  0  2  0  0  0  0  0  0  0  0  0
  140.7910   78.1580  221.4100 C   0  0  0  0  0  0  0  0  0  0  0  0
  141.8140   78.6380  222.1990 C   0  0  0  0  0  0  0  0  0  0  0  0
  141.6100   79.2650  223.4100 C   0  0  0  0  0  0  0  0  0  0  0  0
  140.3170   79.4350  223.8830 C   0  0  0  0  0  0  0  0  0  0  0  0
  139.2660   78.9650  223.1190 C   0  0  0  0  0  0  0  0  0  0  0  0
  139.5020   78.3430  221.9110 C   0  0  0  0  0  0  0  0  0  0  0  0
  138.1680   77.7390  220.9260 Cl  0  0  0  0  0  0  0  0  0  0  0  0
  140.1520   71.6020  223.6790 C   0  0  0  0  0  0  0  0  0  0  0  0
  139.5630   70.3880  223.5120 C   0  0  0  0  0  0  0  0  0  0  0  0
  139.4500   69.4750  224.5470 C   0  0  0  0  0  0  0  0  0  0  0  0
  139.9610   69.8300  225.7840 C   0  0  0  0  0  0  0  0  0  0  0  0
  139.8920   68.9790  226.8720 C   0  0  0  0  0  0  0  0  0  0  0  0
  140.4110   69.3710  228.0810 C   0  0  0  0  0  0  0  0  0  0  0  0
  141.0100   70.6030  228.2560 C   0  0  0  0  0  0  0  0  0  0  0  0
  141.0730   71.4380  227.1650 C   0  0  0  0  0  0  0  0  0  0  0  0
  140.5560   71.0650  225.9360 C   0  0  0  0  0  0  0  0  0  0  0  0
  140.6430   71.9240  224.8970 N   0  0  0  0  0  0  0  0  0  0  0  0
  138.4290   73.6010  223.0310 H   0  0  0  0  0  0  0  0  0  0  0  0
  139.5353   73.7085  220.3408 H   0  0  0  0  0  0  0  0  0  0  0  0
  138.5353   75.0250  221.2205 H   0  0  0  0  0  0  0  0  0  0  0  0
  142.2095   74.6571  219.0241 H   0  0  0  0  0  0  0  0  0  0  0  0
  141.2566   75.7013  218.0238 H   0  0  0  0  0  0  0  0  0  0  0  0
  143.6962   76.4345  219.8015 H   0  0  0  0  0  0  0  0  0  0  0  0
  143.5459   76.7814  218.0990 H   0  0  0  0  0  0  0  0  0  0  0  0
  142.8161   78.6256  220.0622 H   0  0  0  0  0  0  0  0  0  0  0  0
  141.9757   78.6161  218.5204 H   0  0  0  0  0  0  0  0  0  0  0  0
  140.0998   77.7966  219.5298 H   0  0  0  0  0  0  0  0  0  0  0  0
  142.8477   78.5144  221.8439 H   0  0  0  0  0  0  0  0  0  0  0  0
  142.4666   79.6279  223.9970 H   0  0  0  0  0  0  0  0  0  0  0  0
  140.1323   79.9335  224.8460 H   0  0  0  0  0  0  0  0  0  0  0  0
  138.2332   79.0879  223.4771 H   0  0  0  0  0  0  0  0  0  0  0  0
  139.1631   70.1224  222.5223 H   0  0  0  0  0  0  0  0  0  0  0  0
  138.9692   68.4980  224.3913 H   0  0  0  0  0  0  0  0  0  0  0  0
  139.4221   67.9898  226.7688 H   0  0  0  0  0  0  0  0  0  0  0  0
  140.3478   68.6826  228.9366 H   0  0  0  0  0  0  0  0  0  0  0  0
  141.4210   70.9049  229.2307 H   0  0  0  0  0  0  0  0  0  0  0  0
  141.5454   72.4257  227.2714 H   0  0  0  0  0  0  0  0  0  0  0  0
  1  2  2  0
  2  3  1  0
  3  4  1  0
  4  5  1  0
  5  6  2  0
  5  7  1  0
  7  8  1  0
  8  9  1  0
  9 10  1  0
 10 11  1  0
 11 12  1  0
 12 13  2  0
 13 14  1  0
 14 15  2  0
 15 16  1  0
 16 17  2  0
 17 18  1  0
  2 19  1  0
 19 20  2  0
 20 21  1  0
 21 22  2  0
 22 23  1  0
 23 24  2  0
 24 25  1  0
 25 26  2  0
 26 27  1  0
 27 28  2  0
 11  7  1  0
 17 12  1  0
 28 19  1  0
 27 22  1  0
  3 29  1  0
  4 30  1  0
  4 31  1  0
  8 32  1  0
  8 33  1  0
  9 34  1  0
  9 35  1  0
 10 36  1  0
 10 37  1  0
 11 38  1  6
 13 39  1  0
 14 40  1  0
 15 41  1  0
 16 42  1  0
 20 43  1  0
 21 44  1  0
 23 45  1  0
 24 46  1  0
 25 47  1  0
 26 48  1  0
M  END
>  <smiles>  (49) 
O=C(NCC(=O)N1CCCC1c1ccccc1Cl)c1ccc2ccccc2n1

>  <score_type>  (49) 
oracle

>  <origin>  (49) 
autodockgpu

>  <m_score__min__energy>  (49) 
-8.7799999999999994

>  <m_primary>  (49) 
energy

>  <rmsd>  (49) 
1.8251395439135933

>  <m_score__min__rmsd>  (49) 
1.8251395439135933

>  <meeko>  (49) 
{"free_energy": -8.72, "intermolecular_energy": -10.21, "internal_energy": -1.5, "cluster_size": 16, "cluster_id": 1, "rank_in_cluster": 2}

>  <energy>  (49) 
-7.09

>  <cluster_rmsd>  (49) 
0.79

>  <cluster>  (49) 
8

$$$$

     RDKit          3D

 48 51  0  0  0  0  0  0  0  0999 V2000
  140.6550   76.9610  218.4770 O   0  0  0  0  0  0  0  0  0  0  0  0
  141.7790   76.8950  219.0480 C   0  0  0  0  0  0  0  0  0  0  0  0
  142.2490   78.1600  219.5870 N   0  0  0  0  0  0  0  0  0  0  0  0
  141.3900   79.2810  219.3980 C   0  0  0  0  0  0  0  0  0  0  0  0
  140.6720   79.8230  220.5380 C   0  0  0  0  0  0  0  0  0  0  0  0
  139.4570   80.1800  220.2740 O   0  0  0  0  0  0  0  0  0  0  0  0
  141.0760   80.0250  221.8740 N   0  0  0  0  0  0  0  0  0  0  0  0
  141.9630   80.9980  222.4810 C   0  0  0  0  0  0  0  0  0  0  0  0
  142.8020   80.0830  223.3570 C   0  0  0  0  0  0  0  0  0  0  0  0
  141.7350   79.1540  223.9620 C   0  0  0  0  0  0  0  0  0  0  0  0
  140.6440   79.1800  222.9710 C   0  0  2  0  0  0  0  0  0  0  0  0
  140.2030   77.8230  222.5580 C   0  0  0  0  0  0  0  0  0  0  0  0
  141.0680   76.7770  222.3210 C   0  0  0  0  0  0  0  0  0  0  0  0
  140.6500   75.5110  221.9650 C   0  0  0  0  0  0  0  0  0  0  0  0
  139.2940   75.2500  221.8340 C   0  0  0  0  0  0  0  0  0  0  0  0
  138.3980   76.2750  222.0640 C   0  0  0  0  0  0  0  0  0  0  0  0
  138.8460   77.5310  222.4180 C   0  0  0  0  0  0  0  0  0  0  0  0
  137.7110   78.8490  222.7140 Cl  0  0  0  0  0  0  0  0  0  0  0  0
  142.5620   75.6950  219.1790 C   0  0  0  0  0  0  0  0  0  0  0  0
  142.1760   74.5690  218.5210 C   0  0  0  0  0  0  0  0  0  0  0  0
  142.8890   73.3850  218.6090 C   0  0  0  0  0  0  0  0  0  0  0  0
  144.0270   73.3690  219.3960 C   0  0  0  0  0  0  0  0  0  0  0  0
  144.7980   72.2290  219.5390 C   0  0  0  0  0  0  0  0  0  0  0  0
  145.9200   72.2560  220.3290 C   0  0  0  0  0  0  0  0  0  0  0  0
  146.3150   73.3980  221.0000 C   0  0  0  0  0  0  0  0  0  0  0  0
  145.5400   74.5230  220.8480 C   0  0  0  0  0  0  0  0  0  0  0  0
  144.4050   74.5190  220.0560 C   0  0  0  0  0  0  0  0  0  0  0  0
  143.6770   75.6530  219.9420 N   0  0  0  0  0  0  0  0  0  0  0  0
  143.1820   78.1830  220.0780 H   0  0  0  0  0  0  0  0  0  0  0  0
  142.0082   80.0947  218.9910 H   0  0  0  0  0  0  0  0  0  0  0  0
  140.5928   78.8931  218.7468 H   0  0  0  0  0  0  0  0  0  0  0  0
  142.5754   81.5167  221.7288 H   0  0  0  0  0  0  0  0  0  0  0  0
  141.4567   81.8145  223.0167 H   0  0  0  0  0  0  0  0  0  0  0  0
  143.5325   79.5174  222.7600 H   0  0  0  0  0  0  0  0  0  0  0  0
  143.4034   80.6164  224.1079 H   0  0  0  0  0  0  0  0  0  0  0  0
  142.1279   78.1340  224.0857 H   0  0  0  0  0  0  0  0  0  0  0  0
  141.4090   79.4750  224.9623 H   0  0  0  0  0  0  0  0  0  0  0  0
  139.7336   79.6083  223.4157 H   0  0  0  0  0  0  0  0  0  0  0  0
  142.1480   76.9607  222.4208 H   0  0  0  0  0  0  0  0  0  0  0  0
  141.3871   74.7143  221.7863 H   0  0  0  0  0  0  0  0  0  0  0  0
  138.9399   74.2473  221.5527 H   0  0  0  0  0  0  0  0  0  0  0  0
  137.3185   76.0888  221.9642 H   0  0  0  0  0  0  0  0  0  0  0  0
  141.2690   74.5997  217.8994 H   0  0  0  0  0  0  0  0  0  0  0  0
  142.5606   72.4844  218.0695 H   0  0  0  0  0  0  0  0  0  0  0  0
  144.5120   71.3022  219.0201 H   0  0  0  0  0  0  0  0  0  0  0  0
  146.5228   71.3416  220.4312 H   0  0  0  0  0  0  0  0  0  0  0  0
  147.2155   73.4062  221.6317 H   0  0  0  0  0  0  0  0  0  0  0  0
  145.8287   75.4483  221.3681 H   0  0  0  0  0  0  0  0  0  0  0  0
  1  2  2  0
  2  3  1  0
  3  4  1  0
  4  5  1  0
  5  6  2  0
  5  7  1  0
  7  8  1  0
  8  9  1  0
  9 10  1  0
 10 11  1  0
 11 12  1  0
 12 13  2  0
 13 14  1  0
 14 15  2  0
 15 16  1  0
 16 17  2  0
 17 18  1  0
  2 19  1  0
 19 20  2  0
 20 21  1  0
 21 22  2  0
 22 23  1  0
 23 24  2  0
 24 25  1  0
 25 26  2  0
 26 27  1  0
 27 28  2  0
 11  7  1  0
 17 12  1  0
 28 19  1  0
 27 22  1  0
  3 29  1  0
  4 30  1  0
  4 31  1  0
  8 32  1  0
  8 33  1  0
  9 34  1  0
  9 35  1  0
 10 36  1  0
 10 37  1  0
 11 38  1  1
 13 39  1  0
 14 40  1  0
 15 41  1  0
 16 42  1  0
 20 43  1  0
 21 44  1  0
 23 45  1  0
 24 46  1  0
 25 47  1  0
 26 48  1  0
M  END
>  <smiles>  (50) 
O=C(NCC(=O)N1CCCC1c1ccccc1Cl)c1ccc2ccccc2n1

>  <score_type>  (50) 
oracle

>  <origin>  (50) 
autodockgpu

>  <m_score__min__energy>  (50) 
-8.7799999999999994

>  <m_primary>  (50) 
energy

>  <rmsd>  (50) 
7.503272275024132

>  <m_score__min__rmsd>  (50) 
7.503272275024132

>  <meeko>  (50) 
{"free_energy": -7.2, "intermolecular_energy": -8.69, "internal_energy": -2.65, "cluster_size": 14, "cluster_id": 8, "rank_in_cluster": 9}

>  <energy>  (50) 
-6.75

>  <cluster_rmsd>  (50) 
0.3

>  <cluster>  (50) 
8

$$$$

     RDKit          3D

 48 51  0  0  0  0  0  0  0  0999 V2000
  140.3970   73.4010  222.3300 O   0  0  0  0  0  0  0  0  0  0  0  0
  140.4180   72.1400  222.3350 C   0  0  0  0  0  0  0  0  0  0  0  0
  140.6120   71.3820  221.1400 N   0  0  0  0  0  0  0  0  0  0  0  0
  140.8080   71.9780  219.8650 C   0  0  0  0  0  0  0  0  0  0  0  0
  141.7220   73.1050  219.7210 C   0  0  0  0  0  0  0  0  0  0  0  0
  141.2050   74.1310  219.1150 O   0  0  0  0  0  0  0  0  0  0  0  0
  143.0790   73.2210  220.1420 N   0  0  0  0  0  0  0  0  0  0  0  0
  144.0560   72.1590  220.3960 C   0  0  0  0  0  0  0  0  0  0  0  0
  145.3950   72.8930  220.1350 C   0  0  0  0  0  0  0  0  0  0  0  0
  145.1120   74.2690  220.6610 C   0  0  0  0  0  0  0  0  0  0  0  0
  143.6830   74.5170  220.3700 C   0  0  1  0  0  0  0  0  0  0  0  0
  143.4430   75.5120  219.3080 C   0  0  0  0  0  0  0  0  0  0  0  0
  142.9410   76.7570  219.6450 C   0  0  0  0  0  0  0  0  0  0  0  0
  142.6870   77.7460  218.7200 C   0  0  0  0  0  0  0  0  0  0  0  0
  142.9350   77.5180  217.3700 C   0  0  0  0  0  0  0  0  0  0  0  0
  143.4370   76.2790  217.0270 C   0  0  0  0  0  0  0  0  0  0  0  0
  143.6860   75.2950  217.9680 C   0  0  0  0  0  0  0  0  0  0  0  0
  144.3230   73.7740  217.3810 Cl  0  0  0  0  0  0  0  0  0  0  0  0
  140.2400   71.4200  223.5980 C   0  0  0  0  0  0  0  0  0  0  0  0
  139.5590   70.2220  223.6400 C   0  0  0  0  0  0  0  0  0  0  0  0
  139.3780   69.5280  224.8060 C   0  0  0  0  0  0  0  0  0  0  0  0
  139.8970   70.0470  225.9810 C   0  0  0  0  0  0  0  0  0  0  0  0
  139.7710   69.4300  227.2020 C   0  0  0  0  0  0  0  0  0  0  0  0
  140.3100   69.9870  228.3590 C   0  0  0  0  0  0  0  0  0  0  0  0
  140.9870   71.1830  228.2990 C   0  0  0  0  0  0  0  0  0  0  0  0
  141.1060   71.7910  227.0700 C   0  0  0  0  0  0  0  0  0  0  0  0
  140.5720   71.2380  225.9250 C   0  0  0  0  0  0  0  0  0  0  0  0
  140.7250   71.8810  224.7680 N   0  0  0  0  0  0  0  0  0  0  0  0
  140.6060   70.3220  221.2360 H   0  0  0  0  0  0  0  0  0  0  0  0
  141.1736   71.1848  219.1963 H   0  0  0  0  0  0  0  0  0  0  0  0
  139.8258   72.4176  219.6371 H   0  0  0  0  0  0  0  0  0  0  0  0
  143.9933   71.7963  221.4326 H   0  0  0  0  0  0  0  0  0  0  0  0
  143.9109   71.2620  219.7760 H   0  0  0  0  0  0  0  0  0  0  0  0
  146.2226   72.4192  220.6832 H   0  0  0  0  0  0  0  0  0  0  0  0
  145.7067   72.8798  219.0802 H   0  0  0  0  0  0  0  0  0  0  0  0
  145.2968   74.3119  221.7445 H   0  0  0  0  0  0  0  0  0  0  0  0
  145.7607   75.0254  220.1951 H   0  0  0  0  0  0  0  0  0  0  0  0
  143.1968   75.0057  221.2272 H   0  0  0  0  0  0  0  0  0  0  0  0
  142.7344   76.9675  220.7047 H   0  0  0  0  0  0  0  0  0  0  0  0
  142.2878   78.7167  219.0491 H   0  0  0  0  0  0  0  0  0  0  0  0
  142.7399   78.2898  216.6109 H   0  0  0  0  0  0  0  0  0  0  0  0
  143.6466   76.0660  215.9684 H   0  0  0  0  0  0  0  0  0  0  0  0
  139.1478   69.8105  222.7064 H   0  0  0  0  0  0  0  0  0  0  0  0
  138.8298   68.5744  224.8099 H   0  0  0  0  0  0  0  0  0  0  0  0
  139.2317   68.4735  227.2673 H   0  0  0  0  0  0  0  0  0  0  0  0
  140.1942   69.4696  229.3228 H   0  0  0  0  0  0  0  0  0  0  0  0
  141.4186   71.6380  229.2027 H   0  0  0  0  0  0  0  0  0  0  0  0
  141.6438   72.7479  226.9988 H   0  0  0  0  0  0  0  0  0  0  0  0
  1  2  2  0
  2  3  1  0
  3  4  1  0
  4  5  1  0
  5  6  2  0
  5  7  1  0
  7  8  1  0
  8  9  1  0
  9 10  1  0
 10 11  1  0
 11 12  1  0
 12 13  2  0
 13 14  1  0
 14 15  2  0
 15 16  1  0
 16 17  2  0
 17 18  1  0
  2 19  1  0
 19 20  2  0
 20 21  1  0
 21 22  2  0
 22 23  1  0
 23 24  2  0
 24 25  1  0
 25 26  2  0
 26 27  1  0
 27 28  2  0
 11  7  1  0
 17 12  1  0
 28 19  1  0
 27 22  1  0
  3 29  1  0
  4 30  1  0
  4 31  1  0
  8 32  1  0
  8 33  1  0
  9 34  1  0
  9 35  1  0
 10 36  1  0
 10 37  1  0
 11 38  1  1
 13 39  1  0
 14 40  1  0
 15 41  1  0
 16 42  1  0
 20 43  1  0
 21 44  1  0
 23 45  1  0
 24 46  1  0
 25 47  1  0
 26 48  1  0
M  END
>  <smiles>  (51) 
O=C(NCC(=O)N1CCCC1c1ccccc1Cl)c1ccc2ccccc2n1

>  <score_type>  (51) 
oracle

>  <origin>  (51) 
autodockgpu

>  <m_score__min__energy>  (51) 
-8.9000000000000004

>  <m_primary>  (51) 
energy

>  <rmsd>  (51) 
3.689896801049596

>  <m_score__min__rmsd>  (51) 
3.689896801049596

>  <meeko>  (51) 
{"free_energy": -8.26, "intermolecular_energy": -9.75, "internal_energy": -1.15, "cluster_size": 9, "cluster_id": 3, "rank_in_cluster": 1}

>  <energy>  (51) 
-8.9

>  <cluster_rmsd>  (51) 
0.0

>  <cluster>  (51) 
1

$$$$

     RDKit          3D

 48 51  0  0  0  0  0  0  0  0999 V2000
  139.7010   71.1380  221.2050 O   0  0  0  0  0  0  0  0  0  0  0  0
  139.7060   71.8490  222.2480 C   0  0  0  0  0  0  0  0  0  0  0  0
  139.5360   73.2660  222.1970 N   0  0  0  0  0  0  0  0  0  0  0  0
  139.3370   73.9830  220.9860 C   0  0  0  0  0  0  0  0  0  0  0  0
  140.4750   74.2780  220.1210 C   0  0  0  0  0  0  0  0  0  0  0  0
  140.1630   74.9350  219.0450 O   0  0  0  0  0  0  0  0  0  0  0  0
  141.8480   73.9400  220.2960 N   0  0  0  0  0  0  0  0  0  0  0  0
  142.4680   72.6150  220.3540 C   0  0  0  0  0  0  0  0  0  0  0  0
  143.9090   72.9180  219.8710 C   0  0  0  0  0  0  0  0  0  0  0  0
  144.1630   74.2730  220.4630 C   0  0  0  0  0  0  0  0  0  0  0  0
  142.8590   74.9690  220.4350 C   0  0  1  0  0  0  0  0  0  0  0  0
  142.7740   76.0630  219.4500 C   0  0  0  0  0  0  0  0  0  0  0  0
  143.3350   75.8910  218.1970 C   0  0  0  0  0  0  0  0  0  0  0  0
  143.3030   76.8580  217.2150 C   0  0  0  0  0  0  0  0  0  0  0  0
  142.6850   78.0800  217.4610 C   0  0  0  0  0  0  0  0  0  0  0  0
  142.1240   78.2580  218.7090 C   0  0  0  0  0  0  0  0  0  0  0  0
  142.1640   77.2770  219.6850 C   0  0  0  0  0  0  0  0  0  0  0  0
  141.4070   77.6470  221.2190 Cl  0  0  0  0  0  0  0  0  0  0  0  0
  139.8900   71.2130  223.5540 C   0  0  0  0  0  0  0  0  0  0  0  0
  139.5650   69.8860  223.7470 C   0  0  0  0  0  0  0  0  0  0  0  0
  139.7270   69.2670  224.9570 C   0  0  0  0  0  0  0  0  0  0  0  0
  140.2330   69.9960  226.0210 C   0  0  0  0  0  0  0  0  0  0  0  0
  140.4340   69.4690  227.2730 C   0  0  0  0  0  0  0  0  0  0  0  0
  140.9470   70.2390  228.3140 C   0  0  0  0  0  0  0  0  0  0  0  0
  141.2650   71.5610  228.1040 C   0  0  0  0  0  0  0  0  0  0  0  0
  141.0590   72.0770  226.8440 C   0  0  0  0  0  0  0  0  0  0  0  0
  140.5520   71.3130  225.8140 C   0  0  0  0  0  0  0  0  0  0  0  0
  140.3780   71.8770  224.6190 N   0  0  0  0  0  0  0  0  0  0  0  0
  139.5640   73.7880  223.1250 H   0  0  0  0  0  0  0  0  0  0  0  0
  138.6230   73.4007  220.3850 H   0  0  0  0  0  0  0  0  0  0  0  0
  139.0136   74.9769  221.3289 H   0  0  0  0  0  0  0  0  0  0  0  0
  142.4648   72.2158  221.3790 H   0  0  0  0  0  0  0  0  0  0  0  0
  141.9481   71.8532  219.7545 H   0  0  0  0  0  0  0  0  0  0  0  0
  144.6230   72.1746  220.2551 H   0  0  0  0  0  0  0  0  0  0  0  0
  144.0244   72.8850  218.7776 H   0  0  0  0  0  0  0  0  0  0  0  0
  144.5258   74.1785  221.4971 H   0  0  0  0  0  0  0  0  0  0  0  0
  144.9315   74.8250  219.9021 H   0  0  0  0  0  0  0  0  0  0  0  0
  142.6994   75.5215  221.3727 H   0  0  0  0  0  0  0  0  0  0  0  0
  143.8312   74.9351  217.9733 H   0  0  0  0  0  0  0  0  0  0  0  0
  143.7663   76.6634  216.2365 H   0  0  0  0  0  0  0  0  0  0  0  0
  142.6454   78.8686  216.6952 H   0  0  0  0  0  0  0  0  0  0  0  0
  141.6275   79.2129  218.9364 H   0  0  0  0  0  0  0  0  0  0  0  0
  139.1632   69.3075  222.9021 H   0  0  0  0  0  0  0  0  0  0  0  0
  139.4597   68.2074  225.0827 H   0  0  0  0  0  0  0  0  0  0  0  0
  140.1840   68.4139  227.4581 H   0  0  0  0  0  0  0  0  0  0  0  0
  141.0983   69.7892  229.3063 H   0  0  0  0  0  0  0  0  0  0  0  0
  141.6699   72.1844  228.9148 H   0  0  0  0  0  0  0  0  0  0  0  0
  141.3066   73.1316  226.6531 H   0  0  0  0  0  0  0  0  0  0  0  0
  1  2  2  0
  2  3  1  0
  3  4  1  0
  4  5  1  0
  5  6  2  0
  5  7  1  0
  7  8  1  0
  8  9  1  0
  9 10  1  0
 10 11  1  0
 11 12  1  0
 12 13  2  0
 13 14  1  0
 14 15  2  0
 15 16  1  0
 16 17  2  0
 17 18  1  0
  2 19  1  0
 19 20  2  0
 20 21  1  0
 21 22  2  0
 22 23  1  0
 23 24  2  0
 24 25  1  0
 25 26  2  0
 26 27  1  0
 27 28  2  0
 11  7  1  0
 17 12  1  0
 28 19  1  0
 27 22  1  0
  3 29  1  0
  4 30  1  0
  4 31  1  0
  8 32  1  0
  8 33  1  0
  9 34  1  0
  9 35  1  0
 10 36  1  0
 10 37  1  0
 11 38  1  1
 13 39  1  0
 14 40  1  0
 15 41  1  0
 16 42  1  0
 20 43  1  0
 21 44  1  0
 23 45  1  0
 24 46  1  0
 25 47  1  0
 26 48  1  0
M  END
>  <smiles>  (52) 
O=C(NCC(=O)N1CCCC1c1ccccc1Cl)c1ccc2ccccc2n1

>  <score_type>  (52) 
oracle

>  <origin>  (52) 
autodockgpu

>  <m_score__min__energy>  (52) 
-8.9000000000000004

>  <m_primary>  (52) 
energy

>  <rmsd>  (52) 
2.8557839298911234

>  <m_score__min__rmsd>  (52) 
2.8557839298911234

>  <meeko>  (52) 
{"free_energy": -7.95, "intermolecular_energy": -9.44, "internal_energy": -1.88, "cluster_size": 9, "cluster_id": 3, "rank_in_cluster": 8}

>  <energy>  (52) 
-8.87

>  <cluster_rmsd>  (52) 
0.09

>  <cluster>  (52) 
1

$$$$

     RDKit          3D

 48 51  0  0  0  0  0  0  0  0999 V2000
  140.0780   71.2630  221.1860 O   0  0  0  0  0  0  0  0  0  0  0  0
  139.9160   71.9380  222.2400 C   0  0  0  0  0  0  0  0  0  0  0  0
  139.6670   73.3440  222.2060 N   0  0  0  0  0  0  0  0  0  0  0  0
  139.5710   74.0880  220.9980 C   0  0  0  0  0  0  0  0  0  0  0  0
  140.6000   73.9460  219.9730 C   0  0  0  0  0  0  0  0  0  0  0  0
  140.1410   73.9700  218.7580 O   0  0  0  0  0  0  0  0  0  0  0  0
  142.0070   73.7790  220.1290 N   0  0  0  0  0  0  0  0  0  0  0  0
  142.8150   72.5710  219.9490 C   0  0  0  0  0  0  0  0  0  0  0  0
  144.1980   73.1670  219.5880 C   0  0  0  0  0  0  0  0  0  0  0  0
  144.2460   74.3990  220.4430 C   0  0  0  0  0  0  0  0  0  0  0  0
  142.8540   74.8930  220.5040 C   0  0  1  0  0  0  0  0  0  0  0  0
  142.6170   76.1380  219.7500 C   0  0  0  0  0  0  0  0  0  0  0  0
  143.1840   76.2900  218.4970 C   0  0  0  0  0  0  0  0  0  0  0  0
  143.0150   77.4180  217.7220 C   0  0  0  0  0  0  0  0  0  0  0  0
  142.2440   78.4760  218.1920 C   0  0  0  0  0  0  0  0  0  0  0  0
  141.6760   78.3310  219.4410 C   0  0  0  0  0  0  0  0  0  0  0  0
  141.8550   77.1920  220.2070 C   0  0  0  0  0  0  0  0  0  0  0  0
  141.0700   77.1530  221.7720 Cl  0  0  0  0  0  0  0  0  0  0  0  0
  139.9810   71.2710  223.5420 C   0  0  0  0  0  0  0  0  0  0  0  0
  139.5720   69.9620  223.6870 C   0  0  0  0  0  0  0  0  0  0  0  0
  139.6230   69.3140  224.8920 C   0  0  0  0  0  0  0  0  0  0  0  0
  140.1000   69.9950  226.0000 C   0  0  0  0  0  0  0  0  0  0  0  0
  140.1910   69.4370  227.2510 C   0  0  0  0  0  0  0  0  0  0  0  0
  140.6780   70.1590  228.3380 C   0  0  0  0  0  0  0  0  0  0  0  0
  141.0820   71.4640  228.1750 C   0  0  0  0  0  0  0  0  0  0  0  0
  140.9850   72.0120  226.9150 C   0  0  0  0  0  0  0  0  0  0  0  0
  140.5030   71.2950  225.8400 C   0  0  0  0  0  0  0  0  0  0  0  0
  140.4370   71.8890  224.6490 N   0  0  0  0  0  0  0  0  0  0  0  0
  139.5530   73.8360  223.1430 H   0  0  0  0  0  0  0  0  0  0  0  0
  138.6149   73.8118  220.5294 H   0  0  0  0  0  0  0  0  0  0  0  0
  139.6864   75.1299  221.3313 H   0  0  0  0  0  0  0  0  0  0  0  0
  142.8630   71.9794  220.8751 H   0  0  0  0  0  0  0  0  0  0  0  0
  142.4175   71.8772  219.1935 H   0  0  0  0  0  0  0  0  0  0  0  0
  145.0110   72.4718  219.8444 H   0  0  0  0  0  0  0  0  0  0  0  0
  144.3244   73.3698  218.5143 H   0  0  0  0  0  0  0  0  0  0  0  0
  144.6110   74.1531  221.4511 H   0  0  0  0  0  0  0  0  0  0  0  0
  144.9294   75.1556  220.0299 H   0  0  0  0  0  0  0  0  0  0  0  0
  142.6070   75.2188  221.5252 H   0  0  0  0  0  0  0  0  0  0  0  0
  143.8003   75.4702  218.0993 H   0  0  0  0  0  0  0  0  0  0  0  0
  143.4900   77.4811  216.7319 H   0  0  0  0  0  0  0  0  0  0  0  0
  142.0939   79.3874  217.5947 H   0  0  0  0  0  0  0  0  0  0  0  0
  141.0595   79.1490  219.8420 H   0  0  0  0  0  0  0  0  0  0  0  0
  139.1930   69.4216  222.8070 H   0  0  0  0  0  0  0  0  0  0  0  0
  139.2904   68.2691  224.9789 H   0  0  0  0  0  0  0  0  0  0  0  0
  139.8717   68.3948  227.3985 H   0  0  0  0  0  0  0  0  0  0  0  0
  140.7397   69.6849  229.3287 H   0  0  0  0  0  0  0  0  0  0  0  0
  141.4692   72.0497  229.0218 H   0  0  0  0  0  0  0  0  0  0  0  0
  141.3019   73.0541  226.7614 H   0  0  0  0  0  0  0  0  0  0  0  0
  1  2  2  0
  2  3  1  0
  3  4  1  0
  4  5  1  0
  5  6  2  0
  5  7  1  0
  7  8  1  0
  8  9  1  0
  9 10  1  0
 10 11  1  0
 11 12  1  0
 12 13  2  0
 13 14  1  0
 14 15  2  0
 15 16  1  0
 16 17  2  0
 17 18  1  0
  2 19  1  0
 19 20  2  0
 20 21  1  0
 21 22  2  0
 22 23  1  0
 23 24  2  0
 24 25  1  0
 25 26  2  0
 26 27  1  0
 27 28  2  0
 11  7  1  0
 17 12  1  0
 28 19  1  0
 27 22  1  0
  3 29  1  0
  4 30  1  0
  4 31  1  0
  8 32  1  0
  8 33  1  0
  9 34  1  0
  9 35  1  0
 10 36  1  0
 10 37  1  0
 11 38  1  1
 13 39  1  0
 14 40  1  0
 15 41  1  0
 16 42  1  0
 20 43  1  0
 21 44  1  0
 23 45  1  0
 24 46  1  0
 25 47  1  0
 26 48  1  0
M  END
>  <smiles>  (53) 
O=C(NCC(=O)N1CCCC1c1ccccc1Cl)c1ccc2ccccc2n1

>  <score_type>  (53) 
oracle

>  <origin>  (53) 
autodockgpu

>  <m_score__min__energy>  (53) 
-8.9000000000000004

>  <m_primary>  (53) 
energy

>  <rmsd>  (53) 
2.9015478337620157

>  <m_score__min__rmsd>  (53) 
2.9015478337620157

>  <meeko>  (53) 
{"free_energy": -8.06, "intermolecular_energy": -9.56, "internal_energy": -1.9, "cluster_size": 9, "cluster_id": 3, "rank_in_cluster": 3}

>  <energy>  (53) 
-8.82

>  <cluster_rmsd>  (53) 
1.59

>  <cluster>  (53) 
1

$$$$

     RDKit          3D

 48 51  0  0  0  0  0  0  0  0999 V2000
  140.2930   73.4840  222.3620 O   0  0  0  0  0  0  0  0  0  0  0  0
  140.2100   72.2270  222.2960 C   0  0  0  0  0  0  0  0  0  0  0  0
  140.1600   71.5360  221.0470 N   0  0  0  0  0  0  0  0  0  0  0  0
  140.2100   72.1980  219.7900 C   0  0  0  0  0  0  0  0  0  0  0  0
  141.5000   72.5340  219.1970 C   0  0  0  0  0  0  0  0  0  0  0  0
  141.4620   72.6990  217.9090 O   0  0  0  0  0  0  0  0  0  0  0  0
  142.7670   72.6910  219.8310 N   0  0  0  0  0  0  0  0  0  0  0  0
  143.8340   71.7050  220.0110 C   0  0  0  0  0  0  0  0  0  0  0  0
  145.0890   72.6090  220.1050 C   0  0  0  0  0  0  0  0  0  0  0  0
  144.5650   73.8020  220.8480 C   0  0  0  0  0  0  0  0  0  0  0  0
  143.1640   73.9620  220.4030 C   0  0  1  0  0  0  0  0  0  0  0  0
  142.9310   75.1340  219.5380 C   0  0  0  0  0  0  0  0  0  0  0  0
  143.6320   75.2500  218.3500 C   0  0  0  0  0  0  0  0  0  0  0  0
  143.4780   76.3090  217.4810 C   0  0  0  0  0  0  0  0  0  0  0  0
  142.5830   77.3310  217.7810 C   0  0  0  0  0  0  0  0  0  0  0  0
  141.8810   77.2220  218.9640 C   0  0  0  0  0  0  0  0  0  0  0  0
  142.0460   76.1520  219.8270 C   0  0  0  0  0  0  0  0  0  0  0  0
  141.0850   76.1510  221.2890 Cl  0  0  0  0  0  0  0  0  0  0  0  0
  140.1640   71.4410  223.5320 C   0  0  0  0  0  0  0  0  0  0  0  0
  139.6460   70.1630  223.5390 C   0  0  0  0  0  0  0  0  0  0  0  0
  139.5910   69.4070  224.6780 C   0  0  0  0  0  0  0  0  0  0  0  0
  140.0710   69.9430  225.8620 C   0  0  0  0  0  0  0  0  0  0  0  0
  140.0620   69.2690  227.0580 C   0  0  0  0  0  0  0  0  0  0  0  0
  140.5570   69.8460  228.2250 C   0  0  0  0  0  0  0  0  0  0  0  0
  141.0700   71.1230  228.2000 C   0  0  0  0  0  0  0  0  0  0  0  0
  141.0730   71.7880  226.9950 C   0  0  0  0  0  0  0  0  0  0  0  0
  140.5830   71.2140  225.8400 C   0  0  0  0  0  0  0  0  0  0  0  0
  140.6180   71.9170  224.7080 N   0  0  0  0  0  0  0  0  0  0  0  0
  140.0790   70.4750  221.0860 H   0  0  0  0  0  0  0  0  0  0  0  0
  139.6869   71.5523  219.0692 H   0  0  0  0  0  0  0  0  0  0  0  0
  139.7637   73.1808  220.0020 H   0  0  0  0  0  0  0  0  0  0  0  0
  143.6899   71.1228  220.9331 H   0  0  0  0  0  0  0  0  0  0  0  0
  143.8856   70.9534  219.2095 H   0  0  0  0  0  0  0  0  0  0  0  0
  145.8963   72.1137  220.6644 H   0  0  0  0  0  0  0  0  0  0  0  0
  145.5296   72.8559  219.1278 H   0  0  0  0  0  0  0  0  0  0  0  0
  144.6058   73.6271  221.9332 H   0  0  0  0  0  0  0  0  0  0  0  0
  145.1625   74.7031  220.6454 H   0  0  0  0  0  0  0  0  0  0  0  0
  142.5155   74.2019  221.2585 H   0  0  0  0  0  0  0  0  0  0  0  0
  144.3478   74.4575  218.0862 H   0  0  0  0  0  0  0  0  0  0  0  0
  144.0629   76.3460  216.5501 H   0  0  0  0  0  0  0  0  0  0  0  0
  142.4413   78.1875  217.1055 H   0  0  0  0  0  0  0  0  0  0  0  0
  141.1649   78.0132  219.2308 H   0  0  0  0  0  0  0  0  0  0  0  0
  139.2648   69.7378  222.5988 H   0  0  0  0  0  0  0  0  0  0  0  0
  139.1725   68.3900  224.6541 H   0  0  0  0  0  0  0  0  0  0  0  0
  139.6538   68.2482  227.0955 H   0  0  0  0  0  0  0  0  0  0  0  0
  140.5379   69.2803  229.1682 H   0  0  0  0  0  0  0  0  0  0  0  0
  141.4640   71.5958  229.1117 H   0  0  0  0  0  0  0  0  0  0  0  0
  141.4789   72.8094  226.9514 H   0  0  0  0  0  0  0  0  0  0  0  0
  1  2  2  0
  2  3  1  0
  3  4  1  0
  4  5  1  0
  5  6  2  0
  5  7  1  0
  7  8  1  0
  8  9  1  0
  9 10  1  0
 10 11  1  0
 11 12  1  0
 12 13  2  0
 13 14  1  0
 14 15  2  0
 15 16  1  0
 16 17  2  0
 17 18  1  0
  2 19  1  0
 19 20  2  0
 20 21  1  0
 21 22  2  0
 22 23  1  0
 23 24  2  0
 24 25  1  0
 25 26  2  0
 26 27  1  0
 27 28  2  0
 11  7  1  0
 17 12  1  0
 28 19  1  0
 27 22  1  0
  3 29  1  0
  4 30  1  0
  4 31  1  0
  8 32  1  0
  8 33  1  0
  9 34  1  0
  9 35  1  0
 10 36  1  0
 10 37  1  0
 11 38  1  1
 13 39  1  0
 14 40  1  0
 15 41  1  0
 16 42  1  0
 20 43  1  0
 21 44  1  0
 23 45  1  0
 24 46  1  0
 25 47  1  0
 26 48  1  0
M  END
>  <smiles>  (54) 
O=C(NCC(=O)N1CCCC1c1ccccc1Cl)c1ccc2ccccc2n1

>  <score_type>  (54) 
oracle

>  <origin>  (54) 
autodockgpu

>  <m_score__min__energy>  (54) 
-8.9000000000000004

>  <m_primary>  (54) 
energy

>  <rmsd>  (54) 
3.645822210561237

>  <m_score__min__rmsd>  (54) 
3.645822210561237

>  <meeko>  (54) 
{"free_energy": -7.95, "intermolecular_energy": -9.44, "internal_energy": -1.79, "cluster_size": 9, "cluster_id": 3, "rank_in_cluster": 7}

>  <energy>  (54) 
-8.79

>  <cluster_rmsd>  (54) 
1.58

>  <cluster>  (54) 
1

$$$$

     RDKit          3D

 48 51  0  0  0  0  0  0  0  0999 V2000
  140.7780   71.5790  221.3290 O   0  0  0  0  0  0  0  0  0  0  0  0
  140.3200   72.1590  222.3520 C   0  0  0  0  0  0  0  0  0  0  0  0
  139.9340   73.5340  222.3330 N   0  0  0  0  0  0  0  0  0  0  0  0
  140.0210   74.3500  221.1720 C   0  0  0  0  0  0  0  0  0  0  0  0
  140.6000   75.6860  221.2650 C   0  0  0  0  0  0  0  0  0  0  0  0
  140.7060   76.1320  222.4810 O   0  0  0  0  0  0  0  0  0  0  0  0
  141.0440   76.5470  220.2200 N   0  0  0  0  0  0  0  0  0  0  0  0
  140.8040   76.4440  218.7790 C   0  0  0  0  0  0  0  0  0  0  0  0
  140.9190   77.9230  218.3330 C   0  0  0  0  0  0  0  0  0  0  0  0
  142.0070   78.4410  219.2270 C   0  0  0  0  0  0  0  0  0  0  0  0
  141.8410   77.7220  220.5080 C   0  0  1  0  0  0  0  0  0  0  0  0
  141.3400   78.5590  221.6150 C   0  0  0  0  0  0  0  0  0  0  0  0
  142.2240   79.0040  222.5820 C   0  0  0  0  0  0  0  0  0  0  0  0
  141.8450   79.7900  223.6490 C   0  0  0  0  0  0  0  0  0  0  0  0
  140.5150   80.1730  223.7940 C   0  0  0  0  0  0  0  0  0  0  0  0
  139.6280   79.7320  222.8330 C   0  0  0  0  0  0  0  0  0  0  0  0
  140.0250   78.9430  221.7660 C   0  0  0  0  0  0  0  0  0  0  0  0
  138.7860   78.4620  220.6270 Cl  0  0  0  0  0  0  0  0  0  0  0  0
  140.1740   71.4090  223.6010 C   0  0  0  0  0  0  0  0  0  0  0  0
  139.5690   70.1700  223.6160 C   0  0  0  0  0  0  0  0  0  0  0  0
  139.4210   69.4470  224.7690 C   0  0  0  0  0  0  0  0  0  0  0  0
  139.8930   69.9780  225.9580 C   0  0  0  0  0  0  0  0  0  0  0  0
  139.7930   69.3350  227.1680 C   0  0  0  0  0  0  0  0  0  0  0  0
  140.2830   69.9060  228.3390 C   0  0  0  0  0  0  0  0  0  0  0  0
  140.8840   71.1430  228.3060 C   0  0  0  0  0  0  0  0  0  0  0  0
  140.9770   71.7770  227.0880 C   0  0  0  0  0  0  0  0  0  0  0  0
  140.4920   71.2100  225.9280 C   0  0  0  0  0  0  0  0  0  0  0  0
  140.6160   71.8810  224.7830 N   0  0  0  0  0  0  0  0  0  0  0  0
  139.5670   73.9440  223.2450 H   0  0  0  0  0  0  0  0  0  0  0  0
  140.6205   73.7938  220.4363 H   0  0  0  0  0  0  0  0  0  0  0  0
  138.9685   74.5459  220.9192 H   0  0  0  0  0  0  0  0  0  0  0  0
  141.5646   75.8177  218.2899 H   0  0  0  0  0  0  0  0  0  0  0  0
  139.8442   75.9734  218.5194 H   0  0  0  0  0  0  0  0  0  0  0  0
  141.2039   77.9988  217.2732 H   0  0  0  0  0  0  0  0  0  0  0  0
  139.9760   78.4833  218.4155 H   0  0  0  0  0  0  0  0  0  0  0  0
  142.9951   78.2293  218.7925 H   0  0  0  0  0  0  0  0  0  0  0  0
  141.9422   79.5311  219.3594 H   0  0  0  0  0  0  0  0  0  0  0  0
  142.8203   77.4164  220.9049 H   0  0  0  0  0  0  0  0  0  0  0  0
  143.2821   78.7161  222.4949 H   0  0  0  0  0  0  0  0  0  0  0  0
  142.5941   80.1146  224.3862 H   0  0  0  0  0  0  0  0  0  0  0  0
  140.1856   80.7989  224.6365 H   0  0  0  0  0  0  0  0  0  0  0  0
  138.5689   80.0170  222.9173 H   0  0  0  0  0  0  0  0  0  0  0  0
  139.1934   69.7492  222.6716 H   0  0  0  0  0  0  0  0  0  0  0  0
  138.9351   68.4603  224.7515 H   0  0  0  0  0  0  0  0  0  0  0  0
  139.3144   68.3456  227.2124 H   0  0  0  0  0  0  0  0  0  0  0  0
  140.1894   69.3668  229.2932 H   0  0  0  0  0  0  0  0  0  0  0  0
  141.2767   71.6093  229.2216 H   0  0  0  0  0  0  0  0  0  0  0  0
  141.4532   72.7673  227.0381 H   0  0  0  0  0  0  0  0  0  0  0  0
  1  2  2  0
  2  3  1  0
  3  4  1  0
  4  5  1  0
  5  6  2  0
  5  7  1  0
  7  8  1  0
  8  9  1  0
  9 10  1  0
 10 11  1  0
 11 12  1  0
 12 13  2  0
 13 14  1  0
 14 15  2  0
 15 16  1  0
 16 17  2  0
 17 18  1  0
  2 19  1  0
 19 20  2  0
 20 21  1  0
 21 22  2  0
 22 23  1  0
 23 24  2  0
 24 25  1  0
 25 26  2  0
 26 27  1  0
 27 28  2  0
 11  7  1  0
 17 12  1  0
 28 19  1  0
 27 22  1  0
  3 29  1  0
  4 30  1  0
  4 31  1  0
  8 32  1  0
  8 33  1  0
  9 34  1  0
  9 35  1  0
 10 36  1  0
 10 37  1  0
 11 38  1  1
 13 39  1  0
 14 40  1  0
 15 41  1  0
 16 42  1  0
 20 43  1  0
 21 44  1  0
 23 45  1  0
 24 46  1  0
 25 47  1  0
 26 48  1  0
M  END
>  <smiles>  (55) 
O=C(NCC(=O)N1CCCC1c1ccccc1Cl)c1ccc2ccccc2n1

>  <score_type>  (55) 
oracle

>  <origin>  (55) 
autodockgpu

>  <m_score__min__energy>  (55) 
-8.9000000000000004

>  <m_primary>  (55) 
energy

>  <rmsd>  (55) 
1.6534036190194914

>  <m_score__min__rmsd>  (55) 
1.6534036190194914

>  <meeko>  (55) 
{"free_energy": -8.62, "intermolecular_energy": -10.11, "internal_energy": -1.27, "cluster_size": 14, "cluster_id": 1, "rank_in_cluster": 7}

>  <energy>  (55) 
-8.73

>  <cluster_rmsd>  (55) 
1.54

>  <cluster>  (55) 
1

$$$$

     RDKit          3D

 48 51  0  0  0  0  0  0  0  0999 V2000
  140.8540   71.2950  221.3010 O   0  0  0  0  0  0  0  0  0  0  0  0
  140.3990   71.9310  222.2920 C   0  0  0  0  0  0  0  0  0  0  0  0
  140.0460   73.3120  222.2060 N   0  0  0  0  0  0  0  0  0  0  0  0
  140.1640   74.0720  221.0110 C   0  0  0  0  0  0  0  0  0  0  0  0
  140.9500   75.3010  221.0050 C   0  0  0  0  0  0  0  0  0  0  0  0
  141.0660   75.8590  222.1730 O   0  0  0  0  0  0  0  0  0  0  0  0
  141.5830   75.9580  219.9110 N   0  0  0  0  0  0  0  0  0  0  0  0
  141.5480   77.3750  219.5440 C   0  0  0  0  0  0  0  0  0  0  0  0
  142.8850   77.5380  218.7790 C   0  0  0  0  0  0  0  0  0  0  0  0
  143.0030   76.2250  218.0640 C   0  0  0  0  0  0  0  0  0  0  0  0
  142.4090   75.2230  218.9740 C   0  0  1  0  0  0  0  0  0  0  0  0
  143.3860   74.3060  219.5920 C   0  0  0  0  0  0  0  0  0  0  0  0
  144.4540   74.8300  220.3000 C   0  0  0  0  0  0  0  0  0  0  0  0
  145.4130   74.0500  220.9090 C   0  0  0  0  0  0  0  0  0  0  0  0
  145.3370   72.6630  220.8280 C   0  0  0  0  0  0  0  0  0  0  0  0
  144.2750   72.1340  220.1240 C   0  0  0  0  0  0  0  0  0  0  0  0
  143.3190   72.9310  219.5170 C   0  0  0  0  0  0  0  0  0  0  0  0
  142.0290   72.1160  218.6590 Cl  0  0  0  0  0  0  0  0  0  0  0  0
  140.2240   71.2430  223.5730 C   0  0  0  0  0  0  0  0  0  0  0  0
  139.5730   70.0290  223.6400 C   0  0  0  0  0  0  0  0  0  0  0  0
  139.3950   69.3640  224.8230 C   0  0  0  0  0  0  0  0  0  0  0  0
  139.8850   69.9280  225.9890 C   0  0  0  0  0  0  0  0  0  0  0  0
  139.7590   69.3430  227.2250 C   0  0  0  0  0  0  0  0  0  0  0  0
  140.2690   69.9460  228.3720 C   0  0  0  0  0  0  0  0  0  0  0  0
  140.9150   71.1570  228.2870 C   0  0  0  0  0  0  0  0  0  0  0  0
  141.0340   71.7340  227.0430 C   0  0  0  0  0  0  0  0  0  0  0  0
  140.5300   71.1350  225.9070 C   0  0  0  0  0  0  0  0  0  0  0  0
  140.6810   71.7490  224.7340 N   0  0  0  0  0  0  0  0  0  0  0  0
  139.6800   73.7720  223.0940 H   0  0  0  0  0  0  0  0  0  0  0  0
  140.6067   73.4078  220.2542 H   0  0  0  0  0  0  0  0  0  0  0  0
  139.1379   74.4262  220.8332 H   0  0  0  0  0  0  0  0  0  0  0  0
  140.6868   77.6001  218.8977 H   0  0  0  0  0  0  0  0  0  0  0  0
  141.4404   78.0546  220.4022 H   0  0  0  0  0  0  0  0  0  0  0  0
  142.8382   78.3763  218.0684 H   0  0  0  0  0  0  0  0  0  0  0  0
  143.7418   77.7645  219.4306 H   0  0  0  0  0  0  0  0  0  0  0  0
  142.4515   76.2547  217.1127 H   0  0  0  0  0  0  0  0  0  0  0  0
  144.0489   75.9857  217.8216 H   0  0  0  0  0  0  0  0  0  0  0  0
  141.7872   74.5137  218.4080 H   0  0  0  0  0  0  0  0  0  0  0  0
  144.5415   75.9236  220.3805 H   0  0  0  0  0  0  0  0  0  0  0  0
  146.2390   74.5241  221.4594 H   0  0  0  0  0  0  0  0  0  0  0  0
  146.0898   72.0174  221.3039 H   0  0  0  0  0  0  0  0  0  0  0  0
  144.1845   71.0408  220.0420 H   0  0  0  0  0  0  0  0  0  0  0  0
  139.1846   69.5810  222.7135 H   0  0  0  0  0  0  0  0  0  0  0  0
  138.8711   68.3971  224.8472 H   0  0  0  0  0  0  0  0  0  0  0  0
  139.2431   68.3753  227.3111 H   0  0  0  0  0  0  0  0  0  0  0  0
  140.1548   69.4524  229.3484 H   0  0  0  0  0  0  0  0  0  0  0  0
  141.3228   71.6480  229.1829 H   0  0  0  0  0  0  0  0  0  0  0  0
  141.5469   72.7028  226.9518 H   0  0  0  0  0  0  0  0  0  0  0  0
  1  2  2  0
  2  3  1  0
  3  4  1  0
  4  5  1  0
  5  6  2  0
  5  7  1  0
  7  8  1  0
  8  9  1  0
  9 10  1  0
 10 11  1  0
 11 12  1  0
 12 13  2  0
 13 14  1  0
 14 15  2  0
 15 16  1  0
 16 17  2  0
 17 18  1  0
  2 19  1  0
 19 20  2  0
 20 21  1  0
 21 22  2  0
 22 23  1  0
 23 24  2  0
 24 25  1  0
 25 26  2  0
 26 27  1  0
 27 28  2  0
 11  7  1  0
 17 12  1  0
 28 19  1  0
 27 22  1  0
  3 29  1  0
  4 30  1  0
  4 31  1  0
  8 32  1  0
  8 33  1  0
  9 34  1  0
  9 35  1  0
 10 36  1  0
 10 37  1  0
 11 38  1  6
 13 39  1  0
 14 40  1  0
 15 41  1  0
 16 42  1  0
 20 43  1  0
 21 44  1  0
 23 45  1  0
 24 46  1  0
 25 47  1  0
 26 48  1  0
M  END
>  <smiles>  (56) 
O=C(NCC(=O)N1CCCC1c1ccccc1Cl)c1ccc2ccccc2n1

>  <score_type>  (56) 
oracle

>  <origin>  (56) 
autodockgpu

>  <m_score__min__energy>  (56) 
-8.9000000000000004

>  <m_primary>  (56) 
energy

>  <rmsd>  (56) 
2.2004792493231706

>  <m_score__min__rmsd>  (56) 
2.2004792493231706

>  <meeko>  (56) 
{"free_energy": -8.52, "intermolecular_energy": -10.01, "internal_energy": -2.02, "cluster_size": 20, "cluster_id": 2, "rank_in_cluster": 5}

>  <energy>  (56) 
-8.67

>  <cluster_rmsd>  (56) 
1.55

>  <cluster>  (56) 
1

$$$$

     RDKit          3D

 48 51  0  0  0  0  0  0  0  0999 V2000
  140.9360   71.5120  221.3320 O   0  0  0  0  0  0  0  0  0  0  0  0
  140.4360   72.1030  222.3290 C   0  0  0  0  0  0  0  0  0  0  0  0
  140.0350   73.4730  222.2730 N   0  0  0  0  0  0  0  0  0  0  0  0
  140.1530   74.2700  221.1020 C   0  0  0  0  0  0  0  0  0  0  0  0
  140.5220   75.6770  221.2160 C   0  0  0  0  0  0  0  0  0  0  0  0
  140.3540   76.1730  222.4050 O   0  0  0  0  0  0  0  0  0  0  0  0
  141.0220   76.5580  220.2140 N   0  0  0  0  0  0  0  0  0  0  0  0
  140.8450   76.4940  218.7610 C   0  0  0  0  0  0  0  0  0  0  0  0
  140.9960   77.9820  218.3580 C   0  0  0  0  0  0  0  0  0  0  0  0
  142.0490   78.4640  219.3120 C   0  0  0  0  0  0  0  0  0  0  0  0
  141.8190   77.7160  220.5660 C   0  0  1  0  0  0  0  0  0  0  0  0
  141.2780   78.5310  221.6700 C   0  0  0  0  0  0  0  0  0  0  0  0
  142.1170   78.9220  222.6990 C   0  0  0  0  0  0  0  0  0  0  0  0
  141.6990   79.6840  223.7690 C   0  0  0  0  0  0  0  0  0  0  0  0
  140.3730   80.0980  223.8520 C   0  0  0  0  0  0  0  0  0  0  0  0
  139.5310   79.7120  222.8300 C   0  0  0  0  0  0  0  0  0  0  0  0
  139.9660   78.9460  221.7610 C   0  0  0  0  0  0  0  0  0  0  0  0
  138.7810   78.5350  220.5400 Cl  0  0  0  0  0  0  0  0  0  0  0  0
  140.2550   71.3720  223.5850 C   0  0  0  0  0  0  0  0  0  0  0  0
  139.6110   70.1530  223.6080 C   0  0  0  0  0  0  0  0  0  0  0  0
  139.4290   69.4490  224.7680 C   0  0  0  0  0  0  0  0  0  0  0  0
  139.9070   69.9780  225.9550 C   0  0  0  0  0  0  0  0  0  0  0  0
  139.7760   69.3520  227.1710 C   0  0  0  0  0  0  0  0  0  0  0  0
  140.2740   69.9210  228.3400 C   0  0  0  0  0  0  0  0  0  0  0  0
  140.9140   71.1380  228.2990 C   0  0  0  0  0  0  0  0  0  0  0  0
  141.0380   71.7550  227.0750 C   0  0  0  0  0  0  0  0  0  0  0  0
  140.5450   71.1900  225.9170 C   0  0  0  0  0  0  0  0  0  0  0  0
  140.7010   71.8430  224.7660 N   0  0  0  0  0  0  0  0  0  0  0  0
  139.6320   73.8940  223.1640 H   0  0  0  0  0  0  0  0  0  0  0  0
  140.9132   73.7919  220.4668 H   0  0  0  0  0  0  0  0  0  0  0  0
  139.1243   74.3070  220.7143 H   0  0  0  0  0  0  0  0  0  0  0  0
  141.6196   75.8709  218.2902 H   0  0  0  0  0  0  0  0  0  0  0  0
  139.8924   76.0419  218.4476 H   0  0  0  0  0  0  0  0  0  0  0  0
  141.3285   78.0806  217.3141 H   0  0  0  0  0  0  0  0  0  0  0  0
  140.0566   78.5517  218.4129 H   0  0  0  0  0  0  0  0  0  0  0  0
  143.0529   78.2509  218.9160 H   0  0  0  0  0  0  0  0  0  0  0  0
  141.9902   79.5511  219.4690 H   0  0  0  0  0  0  0  0  0  0  0  0
  142.7768   77.3895  220.9973 H   0  0  0  0  0  0  0  0  0  0  0  0
  143.1708   78.6088  222.6611 H   0  0  0  0  0  0  0  0  0  0  0  0
  142.4134   79.9647  224.5570 H   0  0  0  0  0  0  0  0  0  0  0  0
  140.0125   80.7059  224.6949 H   0  0  0  0  0  0  0  0  0  0  0  0
  138.4766   80.0235  222.8651 H   0  0  0  0  0  0  0  0  0  0  0  0
  139.2316   69.7330  222.6648 H   0  0  0  0  0  0  0  0  0  0  0  0
  138.9113   68.4785  224.7572 H   0  0  0  0  0  0  0  0  0  0  0  0
  139.2659   68.3788  227.2221 H   0  0  0  0  0  0  0  0  0  0  0  0
  140.1554   69.3959  229.2992 H   0  0  0  0  0  0  0  0  0  0  0  0
  141.3129   71.6021  229.2130 H   0  0  0  0  0  0  0  0  0  0  0  0
  141.5460   72.7290  227.0183 H   0  0  0  0  0  0  0  0  0  0  0  0
  1  2  2  0
  2  3  1  0
  3  4  1  0
  4  5  1  0
  5  6  2  0
  5  7  1  0
  7  8  1  0
  8  9  1  0
  9 10  1  0
 10 11  1  0
 11 12  1  0
 12 13  2  0
 13 14  1  0
 14 15  2  0
 15 16  1  0
 16 17  2  0
 17 18  1  0
  2 19  1  0
 19 20  2  0
 20 21  1  0
 21 22  2  0
 22 23  1  0
 23 24  2  0
 24 25  1  0
 25 26  2  0
 26 27  1  0
 27 28  2  0
 11  7  1  0
 17 12  1  0
 28 19  1  0
 27 22  1  0
  3 29  1  0
  4 30  1  0
  4 31  1  0
  8 32  1  0
  8 33  1  0
  9 34  1  0
  9 35  1  0
 10 36  1  0
 10 37  1  0
 11 38  1  1
 13 39  1  0
 14 40  1  0
 15 41  1  0
 16 42  1  0
 20 43  1  0
 21 44  1  0
 23 45  1  0
 24 46  1  0
 25 47  1  0
 26 48  1  0
M  END
>  <smiles>  (57) 
O=C(NCC(=O)N1CCCC1c1ccccc1Cl)c1ccc2ccccc2n1

>  <score_type>  (57) 
oracle

>  <origin>  (57) 
autodockgpu

>  <m_score__min__energy>  (57) 
-8.9000000000000004

>  <m_primary>  (57) 
energy

>  <rmsd>  (57) 
1.7073059059676474

>  <m_score__min__rmsd>  (57) 
1.7073059059676474

>  <meeko>  (57) 
{"free_energy": -8.55, "intermolecular_energy": -10.04, "internal_energy": -1.26, "cluster_size": 14, "cluster_id": 1, "rank_in_cluster": 8}

>  <energy>  (57) 
-8.62

>  <cluster_rmsd>  (57) 
1.51

>  <cluster>  (57) 
1

$$$$

     RDKit          3D

 48 51  0  0  0  0  0  0  0  0999 V2000
  140.9820   71.5470  221.3450 O   0  0  0  0  0  0  0  0  0  0  0  0
  140.4360   72.1240  222.3250 C   0  0  0  0  0  0  0  0  0  0  0  0
  139.9680   73.4710  222.2440 N   0  0  0  0  0  0  0  0  0  0  0  0
  140.0650   74.2580  221.0640 C   0  0  0  0  0  0  0  0  0  0  0  0
  140.9770   75.3970  221.0230 C   0  0  0  0  0  0  0  0  0  0  0  0
  141.2310   75.9110  222.1880 O   0  0  0  0  0  0  0  0  0  0  0  0
  141.6020   76.0070  219.8970 N   0  0  0  0  0  0  0  0  0  0  0  0
  141.5790   77.4110  219.4830 C   0  0  0  0  0  0  0  0  0  0  0  0
  142.9070   77.5300  218.6930 C   0  0  0  0  0  0  0  0  0  0  0  0
  142.9960   76.1920  218.0210 C   0  0  0  0  0  0  0  0  0  0  0  0
  142.4030   75.2290  218.9740 C   0  0  1  0  0  0  0  0  0  0  0  0
  143.3780   74.3210  219.6070 C   0  0  0  0  0  0  0  0  0  0  0  0
  144.4280   74.8540  220.3340 C   0  0  0  0  0  0  0  0  0  0  0  0
  145.3830   74.0820  220.9590 C   0  0  0  0  0  0  0  0  0  0  0  0
  145.3210   72.6940  220.8760 C   0  0  0  0  0  0  0  0  0  0  0  0
  144.2760   72.1560  220.1530 C   0  0  0  0  0  0  0  0  0  0  0  0
  143.3240   72.9450  219.5300 C   0  0  0  0  0  0  0  0  0  0  0  0
  142.0570   72.1190  218.6490 Cl  0  0  0  0  0  0  0  0  0  0  0  0
  140.2720   71.4020  223.5890 C   0  0  0  0  0  0  0  0  0  0  0  0
  139.6630   70.1650  223.6230 C   0  0  0  0  0  0  0  0  0  0  0  0
  139.4970   69.4690  224.7890 C   0  0  0  0  0  0  0  0  0  0  0  0
  139.9550   70.0240  225.9720 C   0  0  0  0  0  0  0  0  0  0  0  0
  139.8370   69.4080  227.1940 C   0  0  0  0  0  0  0  0  0  0  0  0
  140.3140   70.0030  228.3590 C   0  0  0  0  0  0  0  0  0  0  0  0
  140.9190   71.2370  228.3070 C   0  0  0  0  0  0  0  0  0  0  0  0
  141.0300   71.8440  227.0770 C   0  0  0  0  0  0  0  0  0  0  0  0
  140.5580   71.2540  225.9230 C   0  0  0  0  0  0  0  0  0  0  0  0
  140.7000   71.8990  224.7660 N   0  0  0  0  0  0  0  0  0  0  0  0
  139.5290   73.8830  223.1230 H   0  0  0  0  0  0  0  0  0  0  0  0
  140.3669   73.5793  220.2527 H   0  0  0  0  0  0  0  0  0  0  0  0
  139.0718   74.7245  220.9870 H   0  0  0  0  0  0  0  0  0  0  0  0
  140.7111   77.6255  218.8421 H   0  0  0  0  0  0  0  0  0  0  0  0
  141.4927   78.1207  220.3190 H   0  0  0  0  0  0  0  0  0  0  0  0
  142.8608   78.3447  217.9553 H   0  0  0  0  0  0  0  0  0  0  0  0
  143.7767   77.7664  219.3237 H   0  0  0  0  0  0  0  0  0  0  0  0
  142.4297   76.1974  217.0780 H   0  0  0  0  0  0  0  0  0  0  0  0
  144.0346   75.9302  217.7706 H   0  0  0  0  0  0  0  0  0  0  0  0
  141.7628   74.5089  218.4434 H   0  0  0  0  0  0  0  0  0  0  0  0
  144.5040   75.9482  220.4170 H   0  0  0  0  0  0  0  0  0  0  0  0
  146.1950   74.5630  221.5240 H   0  0  0  0  0  0  0  0  0  0  0  0
  146.0711   72.0548  221.3647 H   0  0  0  0  0  0  0  0  0  0  0  0
  144.1966   71.0621  220.0687 H   0  0  0  0  0  0  0  0  0  0  0  0
  139.2993   69.7242  222.6831 H   0  0  0  0  0  0  0  0  0  0  0  0
  139.0074   68.4840  224.7868 H   0  0  0  0  0  0  0  0  0  0  0  0
  139.3543   68.4214  227.2537 H   0  0  0  0  0  0  0  0  0  0  0  0
  140.2067   69.4848  229.3233 H   0  0  0  0  0  0  0  0  0  0  0  0
  141.3011   71.7221  229.2174 H   0  0  0  0  0  0  0  0  0  0  0  0
  141.5105   72.8314  227.0120 H   0  0  0  0  0  0  0  0  0  0  0  0
  1  2  2  0
  2  3  1  0
  3  4  1  0
  4  5  1  0
  5  6  2  0
  5  7  1  0
  7  8  1  0
  8  9  1  0
  9 10  1  0
 10 11  1  0
 11 12  1  0
 12 13  2  0
 13 14  1  0
 14 15  2  0
 15 16  1  0
 16 17  2  0
 17 18  1  0
  2 19  1  0
 19 20  2  0
 20 21  1  0
 21 22  2  0
 22 23  1  0
 23 24  2  0
 24 25  1  0
 25 26  2  0
 26 27  1  0
 27 28  2  0
 11  7  1  0
 17 12  1  0
 28 19  1  0
 27 22  1  0
  3 29  1  0
  4 30  1  0
  4 31  1  0
  8 32  1  0
  8 33  1  0
  9 34  1  0
  9 35  1  0
 10 36  1  0
 10 37  1  0
 11 38  1  6
 13 39  1  0
 14 40  1  0
 15 41  1  0
 16 42  1  0
 20 43  1  0
 21 44  1  0
 23 45  1  0
 24 46  1  0
 25 47  1  0
 26 48  1  0
M  END
>  <smiles>  (58) 
O=C(NCC(=O)N1CCCC1c1ccccc1Cl)c1ccc2ccccc2n1

>  <score_type>  (58) 
oracle

>  <origin>  (58) 
autodockgpu

>  <m_score__min__energy>  (58) 
-8.9000000000000004

>  <m_primary>  (58) 
energy

>  <rmsd>  (58) 
2.223817017346309

>  <m_score__min__rmsd>  (58) 
2.223817017346309

>  <meeko>  (58) 
{"free_energy": -8.54, "intermolecular_energy": -10.03, "internal_energy": -1.98, "cluster_size": 20, "cluster_id": 2, "rank_in_cluster": 2}

>  <energy>  (58) 
-8.55

>  <cluster_rmsd>  (58) 
1.51

>  <cluster>  (58) 
1

$$$$

     RDKit          3D

 48 51  0  0  0  0  0  0  0  0999 V2000
  139.7380   70.8550  221.2430 O   0  0  0  0  0  0  0  0  0  0  0  0
  139.9480   71.5080  222.3010 C   0  0  0  0  0  0  0  0  0  0  0  0
  140.2170   72.9110  222.2840 N   0  0  0  0  0  0  0  0  0  0  0  0
  140.2590   73.6800  221.0890 C   0  0  0  0  0  0  0  0  0  0  0  0
  140.8550   75.0110  221.1020 C   0  0  0  0  0  0  0  0  0  0  0  0
  140.8420   75.5840  222.2680 O   0  0  0  0  0  0  0  0  0  0  0  0
  141.4280   75.7500  220.0260 N   0  0  0  0  0  0  0  0  0  0  0  0
  141.2740   77.1690  219.7010 C   0  0  0  0  0  0  0  0  0  0  0  0
  142.5900   77.4640  218.9400 C   0  0  0  0  0  0  0  0  0  0  0  0
  142.8140   76.1870  218.1860 C   0  0  0  0  0  0  0  0  0  0  0  0
  142.3080   75.1130  219.0670 C   0  0  1  0  0  0  0  0  0  0  0  0
  143.3600   74.2630  219.6560 C   0  0  0  0  0  0  0  0  0  0  0  0
  144.4430   74.8580  220.2780 C   0  0  0  0  0  0  0  0  0  0  0  0
  145.4710   74.1430  220.8550 C   0  0  0  0  0  0  0  0  0  0  0  0
  145.4520   72.7520  220.8290 C   0  0  0  0  0  0  0  0  0  0  0  0
  144.3740   72.1520  220.2100 C   0  0  0  0  0  0  0  0  0  0  0  0
  143.3490   72.8840  219.6350 C   0  0  0  0  0  0  0  0  0  0  0  0
  142.0480   71.9830  218.8880 Cl  0  0  0  0  0  0  0  0  0  0  0  0
  139.9160   70.8190  223.5930 C   0  0  0  0  0  0  0  0  0  0  0  0
  139.4090   69.5410  223.7000 C   0  0  0  0  0  0  0  0  0  0  0  0
  139.3670   68.8730  224.8940 C   0  0  0  0  0  0  0  0  0  0  0  0
  139.8500   69.5010  226.0300 C   0  0  0  0  0  0  0  0  0  0  0  0
  139.8530   68.9190  227.2740 C   0  0  0  0  0  0  0  0  0  0  0  0
  140.3500   69.5870  228.3900 C   0  0  0  0  0  0  0  0  0  0  0  0
  140.8520   70.8620  228.2650 C   0  0  0  0  0  0  0  0  0  0  0  0
  140.8430   71.4340  227.0140 C   0  0  0  0  0  0  0  0  0  0  0  0
  140.3500   70.7710  225.9090 C   0  0  0  0  0  0  0  0  0  0  0  0
  140.3720   71.3850  224.7260 N   0  0  0  0  0  0  0  0  0  0  0  0
  140.3920   73.3800  223.2240 H   0  0  0  0  0  0  0  0  0  0  0  0
  140.8183   73.0882  220.3494 H   0  0  0  0  0  0  0  0  0  0  0  0
  139.1980   73.8787  220.8773 H   0  0  0  0  0  0  0  0  0  0  0  0
  140.3949   77.3406  219.0624 H   0  0  0  0  0  0  0  0  0  0  0  0
  141.1131   77.8122  220.5787 H   0  0  0  0  0  0  0  0  0  0  0  0
  142.4718   78.3162  218.2546 H   0  0  0  0  0  0  0  0  0  0  0  0
  143.4273   77.7409  219.5974 H   0  0  0  0  0  0  0  0  0  0  0  0
  142.2586   76.1988  217.2366 H   0  0  0  0  0  0  0  0  0  0  0  0
  143.8752   76.0424  217.9352 H   0  0  0  0  0  0  0  0  0  0  0  0
  141.7445   74.3712  218.4820 H   0  0  0  0  0  0  0  0  0  0  0  0
  144.4861   75.9566  220.3140 H   0  0  0  0  0  0  0  0  0  0  0  0
  146.3066   74.6725  221.3361 H   0  0  0  0  0  0  0  0  0  0  0  0
  146.2594   72.1574  221.2812 H   0  0  0  0  0  0  0  0  0  0  0  0
  144.3276   71.0536  220.1722 H   0  0  0  0  0  0  0  0  0  0  0  0
  139.0262   69.0426  222.7972 H   0  0  0  0  0  0  0  0  0  0  0  0
  138.9564   67.8541  224.9503 H   0  0  0  0  0  0  0  0  0  0  0  0
  139.4533   67.9010  227.3915 H   0  0  0  0  0  0  0  0  0  0  0  0
  140.3413   69.0945  229.3735 H   0  0  0  0  0  0  0  0  0  0  0  0
  141.2471   71.4055  229.1359 H   0  0  0  0  0  0  0  0  0  0  0  0
  141.2413   72.4519  226.8908 H   0  0  0  0  0  0  0  0  0  0  0  0
  1  2  2  0
  2  3  1  0
  3  4  1  0
  4  5  1  0
  5  6  2  0
  5  7  1  0
  7  8  1  0
  8  9  1  0
  9 10  1  0
 10 11  1  0
 11 12  1  0
 12 13  2  0
 13 14  1  0
 14 15  2  0
 15 16  1  0
 16 17  2  0
 17 18  1  0
  2 19  1  0
 19 20  2  0
 20 21  1  0
 21 22  2  0
 22 23  1  0
 23 24  2  0
 24 25  1  0
 25 26  2  0
 26 27  1  0
 27 28  2  0
 11  7  1  0
 17 12  1  0
 28 19  1  0
 27 22  1  0
  3 29  1  0
  4 30  1  0
  4 31  1  0
  8 32  1  0
  8 33  1  0
  9 34  1  0
  9 35  1  0
 10 36  1  0
 10 37  1  0
 11 38  1  6
 13 39  1  0
 14 40  1  0
 15 41  1  0
 16 42  1  0
 20 43  1  0
 21 44  1  0
 23 45  1  0
 24 46  1  0
 25 47  1  0
 26 48  1  0
M  END
>  <smiles>  (59) 
O=C(NCC(=O)N1CCCC1c1ccccc1Cl)c1ccc2ccccc2n1

>  <score_type>  (59) 
oracle

>  <origin>  (59) 
autodockgpu

>  <m_score__min__energy>  (59) 
-8.9000000000000004

>  <m_primary>  (59) 
energy

>  <rmsd>  (59) 
2.0466334711615386

>  <m_score__min__rmsd>  (59) 
2.0466334711615386

>  <meeko>  (59) 
{"free_energy": -8.11, "intermolecular_energy": -9.6, "internal_energy": -2.22, "cluster_size": 20, "cluster_id": 2, "rank_in_cluster": 18}

>  <energy>  (59) 
-8.46

>  <cluster_rmsd>  (59) 
1.49

>  <cluster>  (59) 
1

$$$$

     RDKit          3D

 48 51  0  0  0  0  0  0  0  0999 V2000
  140.8560   76.7720  217.8660 O   0  0  0  0  0  0  0  0  0  0  0  0
  141.8450   76.8090  218.6480 C   0  0  0  0  0  0  0  0  0  0  0  0
  142.2120   78.0000  219.3460 N   0  0  0  0  0  0  0  0  0  0  0  0
  141.4970   79.2220  219.2290 C   0  0  0  0  0  0  0  0  0  0  0  0
  141.2010   80.0080  220.4220 C   0  0  0  0  0  0  0  0  0  0  0  0
  140.3150   80.9400  220.2340 O   0  0  0  0  0  0  0  0  0  0  0  0
  141.7490   79.8940  221.7330 N   0  0  0  0  0  0  0  0  0  0  0  0
  142.5790   80.8510  222.4680 C   0  0  0  0  0  0  0  0  0  0  0  0
  142.2560   80.4850  223.9380 C   0  0  0  0  0  0  0  0  0  0  0  0
  142.1050   78.9950  223.8690 C   0  0  0  0  0  0  0  0  0  0  0  0
  141.5080   78.7180  222.5440 C   0  0  1  0  0  0  0  0  0  0  0  0
  140.1030   78.2710  222.5910 C   0  0  0  0  0  0  0  0  0  0  0  0
  139.1180   79.1670  222.9670 C   0  0  0  0  0  0  0  0  0  0  0  0
  137.7820   78.8360  223.0380 C   0  0  0  0  0  0  0  0  0  0  0  0
  137.3660   77.5460  222.7240 C   0  0  0  0  0  0  0  0  0  0  0  0
  138.3430   76.6480  222.3470 C   0  0  0  0  0  0  0  0  0  0  0  0
  139.6820   76.9950  222.2810 C   0  0  0  0  0  0  0  0  0  0  0  0
  140.8060   75.7470  221.7860 Cl  0  0  0  0  0  0  0  0  0  0  0  0
  142.6470   75.6010  218.8550 C   0  0  0  0  0  0  0  0  0  0  0  0
  142.3800   74.4460  218.1510 C   0  0  0  0  0  0  0  0  0  0  0  0
  143.1140   73.3030  218.3240 C   0  0  0  0  0  0  0  0  0  0  0  0
  144.1570   73.3080  219.2350 C   0  0  0  0  0  0  0  0  0  0  0  0
  144.9520   72.2170  219.4820 C   0  0  0  0  0  0  0  0  0  0  0  0
  145.9920   72.2670  220.4070 C   0  0  0  0  0  0  0  0  0  0  0  0
  146.2450   73.4280  221.1000 C   0  0  0  0  0  0  0  0  0  0  0  0
  145.4400   74.5150  220.8440 C   0  0  0  0  0  0  0  0  0  0  0  0
  144.4100   74.4630  219.9270 C   0  0  0  0  0  0  0  0  0  0  0  0
  143.6710   75.5550  219.7280 N   0  0  0  0  0  0  0  0  0  0  0  0
  143.0680   77.9430  219.9780 H   0  0  0  0  0  0  0  0  0  0  0  0
  142.0811   79.8694  218.5583 H   0  0  0  0  0  0  0  0  0  0  0  0
  140.5032   78.9028  218.8819 H   0  0  0  0  0  0  0  0  0  0  0  0
  143.6468   80.7093  222.2451 H   0  0  0  0  0  0  0  0  0  0  0  0
  142.3772   81.9024  222.2155 H   0  0  0  0  0  0  0  0  0  0  0  0
  143.0783   80.7716  224.6100 H   0  0  0  0  0  0  0  0  0  0  0  0
  141.3694   81.0002  224.3361 H   0  0  0  0  0  0  0  0  0  0  0  0
  143.0857   78.5049  223.9586 H   0  0  0  0  0  0  0  0  0  0  0  0
  141.4780   78.6105  224.6870 H   0  0  0  0  0  0  0  0  0  0  0  0
  141.9889   77.8432  222.0819 H   0  0  0  0  0  0  0  0  0  0  0  0
  139.4161   80.1947  223.2219 H   0  0  0  0  0  0  0  0  0  0  0  0
  137.0439   79.5924  223.3432 H   0  0  0  0  0  0  0  0  0  0  0  0
  136.3063   77.2554  222.7741 H   0  0  0  0  0  0  0  0  0  0  0  0
  138.0480   75.6200  222.0897 H   0  0  0  0  0  0  0  0  0  0  0  0
  141.5513   74.4426  217.4276 H   0  0  0  0  0  0  0  0  0  0  0  0
  142.8789   72.3954  217.7486 H   0  0  0  0  0  0  0  0  0  0  0  0
  144.7633   71.2807  218.9364 H   0  0  0  0  0  0  0  0  0  0  0  0
  146.6125   71.3761  220.5838 H   0  0  0  0  0  0  0  0  0  0  0  0
  147.0626   73.4859  221.8337 H   0  0  0  0  0  0  0  0  0  0  0  0
  145.6234   75.4539  221.3870 H   0  0  0  0  0  0  0  0  0  0  0  0
  1  2  2  0
  2  3  1  0
  3  4  1  0
  4  5  1  0
  5  6  2  0
  5  7  1  0
  7  8  1  0
  8  9  1  0
  9 10  1  0
 10 11  1  0
 11 12  1  0
 12 13  2  0
 13 14  1  0
 14 15  2  0
 15 16  1  0
 16 17  2  0
 17 18  1  0
  2 19  1  0
 19 20  2  0
 20 21  1  0
 21 22  2  0
 22 23  1  0
 23 24  2  0
 24 25  1  0
 25 26  2  0
 26 27  1  0
 27 28  2  0
 11  7  1  0
 17 12  1  0
 28 19  1  0
 27 22  1  0
  3 29  1  0
  4 30  1  0
  4 31  1  0
  8 32  1  0
  8 33  1  0
  9 34  1  0
  9 35  1  0
 10 36  1  0
 10 37  1  0
 11 38  1  6
 13 39  1  0
 14 40  1  0
 15 41  1  0
 16 42  1  0
 20 43  1  0
 21 44  1  0
 23 45  1  0
 24 46  1  0
 25 47  1  0
 26 48  1  0
M  END
>  <smiles>  (60) 
O=C(NCC(=O)N1CCCC1c1ccccc1Cl)c1ccc2ccccc2n1

>  <score_type>  (60) 
oracle

>  <origin>  (60) 
autodockgpu

>  <m_score__min__energy>  (60) 
-8.9000000000000004

>  <m_primary>  (60) 
energy

>  <rmsd>  (60) 
7.588611705680401

>  <m_score__min__rmsd>  (60) 
7.588611705680401

>  <meeko>  (60) 
{"free_energy": -7.19, "intermolecular_energy": -8.68, "internal_energy": -2.36, "cluster_size": 3, "cluster_id": 5, "rank_in_cluster": 3}

>  <energy>  (60) 
-8.23

>  <cluster_rmsd>  (60) 
1.35

>  <cluster>  (60) 
1

$$$$

     RDKit          3D

 48 51  0  0  0  0  0  0  0  0999 V2000
  141.4950   72.3890  221.5360 O   0  0  0  0  0  0  0  0  0  0  0  0
  140.5960   72.6470  222.3830 C   0  0  0  0  0  0  0  0  0  0  0  0
  139.8320   73.8520  222.3300 N   0  0  0  0  0  0  0  0  0  0  0  0
  140.0090   74.8420  221.3250 C   0  0  0  0  0  0  0  0  0  0  0  0
  139.4400   76.1730  221.5070 C   0  0  0  0  0  0  0  0  0  0  0  0
  139.0460   76.4170  222.7210 O   0  0  0  0  0  0  0  0  0  0  0  0
  139.2570   77.2110  220.5480 N   0  0  0  0  0  0  0  0  0  0  0  0
  138.1170   77.4530  219.6620 C   0  0  0  0  0  0  0  0  0  0  0  0
  138.2150   78.9820  219.4300 C   0  0  0  0  0  0  0  0  0  0  0  0
  139.6990   79.2030  219.3910 C   0  0  0  0  0  0  0  0  0  0  0  0
  140.2690   78.2280  220.3460 C   0  0  1  0  0  0  0  0  0  0  0  0
  140.8040   78.8300  221.5820 C   0  0  0  0  0  0  0  0  0  0  0  0
  142.1740   78.9170  221.7570 C   0  0  0  0  0  0  0  0  0  0  0  0
  142.7610   79.4640  222.8780 C   0  0  0  0  0  0  0  0  0  0  0  0
  141.9670   79.9620  223.9060 C   0  0  0  0  0  0  0  0  0  0  0  0
  140.6000   79.8780  223.7390 C   0  0  0  0  0  0  0  0  0  0  0  0
  140.0250   79.3260  222.6070 C   0  0  0  0  0  0  0  0  0  0  0  0
  138.2770   79.2900  222.5370 Cl  0  0  0  0  0  0  0  0  0  0  0  0
  140.3190   71.6900  223.4560 C   0  0  0  0  0  0  0  0  0  0  0  0
  139.6410   70.5170  223.2000 C   0  0  0  0  0  0  0  0  0  0  0  0
  139.3690   69.6050  224.1840 C   0  0  0  0  0  0  0  0  0  0  0  0
  139.7890   69.8690  225.4770 C   0  0  0  0  0  0  0  0  0  0  0  0
  139.5670   69.0210  226.5340 C   0  0  0  0  0  0  0  0  0  0  0  0
  140.0080   69.3260  227.8190 C   0  0  0  0  0  0  0  0  0  0  0  0
  140.6840   70.5010  228.0570 C   0  0  0  0  0  0  0  0  0  0  0  0
  140.9000   71.3430  226.9890 C   0  0  0  0  0  0  0  0  0  0  0  0
  140.4620   71.0390  225.7170 C   0  0  0  0  0  0  0  0  0  0  0  0
  140.7060   71.9000  224.7290 N   0  0  0  0  0  0  0  0  0  0  0  0
  139.1000   73.9930  223.0910 H   0  0  0  0  0  0  0  0  0  0  0  0
  141.0934   74.9746  221.1967 H   0  0  0  0  0  0  0  0  0  0  0  0
  139.4455   74.4397  220.4702 H   0  0  0  0  0  0  0  0  0  0  0  0
  138.2183   76.8973  218.7181 H   0  0  0  0  0  0  0  0  0  0  0  0
  137.1524   77.1264  220.0778 H   0  0  0  0  0  0  0  0  0  0  0  0
  137.7436   79.2721  218.4794 H   0  0  0  0  0  0  0  0  0  0  0  0
  137.7000   79.5787  220.1973 H   0  0  0  0  0  0  0  0  0  0  0  0
  140.0882   79.0217  218.3783 H   0  0  0  0  0  0  0  0  0  0  0  0
  139.9647   80.2370  219.6561 H   0  0  0  0  0  0  0  0  0  0  0  0
  141.1769   77.7681  219.9286 H   0  0  0  0  0  0  0  0  0  0  0  0
  142.8277   78.5301  220.9614 H   0  0  0  0  0  0  0  0  0  0  0  0
  143.8571   79.5067  222.9596 H   0  0  0  0  0  0  0  0  0  0  0  0
  142.4092   80.4030  224.8115 H   0  0  0  0  0  0  0  0  0  0  0  0
  139.9438   80.2632  224.5333 H   0  0  0  0  0  0  0  0  0  0  0  0
  139.3082   70.3074  222.1727 H   0  0  0  0  0  0  0  0  0  0  0  0
  138.8255   68.6773  223.9514 H   0  0  0  0  0  0  0  0  0  0  0  0
  139.0277   68.0779  226.3614 H   0  0  0  0  0  0  0  0  0  0  0  0
  139.8157   68.6263  228.6457 H   0  0  0  0  0  0  0  0  0  0  0  0
  141.0395   70.7586  229.0656 H   0  0  0  0  0  0  0  0  0  0  0  0
  141.4386   72.2875  227.1555 H   0  0  0  0  0  0  0  0  0  0  0  0
  1  2  2  0
  2  3  1  0
  3  4  1  0
  4  5  1  0
  5  6  2  0
  5  7  1  0
  7  8  1  0
  8  9  1  0
  9 10  1  0
 10 11  1  0
 11 12  1  0
 12 13  2  0
 13 14  1  0
 14 15  2  0
 15 16  1  0
 16 17  2  0
 17 18  1  0
  2 19  1  0
 19 20  2  0
 20 21  1  0
 21 22  2  0
 22 23  1  0
 23 24  2  0
 24 25  1  0
 25 26  2  0
 26 27  1  0
 27 28  2  0
 11  7  1  0
 17 12  1  0
 28 19  1  0
 27 22  1  0
  3 29  1  0
  4 30  1  0
  4 31  1  0
  8 32  1  0
  8 33  1  0
  9 34  1  0
  9 35  1  0
 10 36  1  0
 10 37  1  0
 11 38  1  6
 13 39  1  0
 14 40  1  0
 15 41  1  0
 16 42  1  0
 20 43  1  0
 21 44  1  0
 23 45  1  0
 24 46  1  0
 25 47  1  0
 26 48  1  0
M  END
>  <smiles>  (61) 
O=C(NCC(=O)N1CCCC1c1ccccc1Cl)c1ccc2ccccc2n1

>  <score_type>  (61) 
oracle

>  <origin>  (61) 
autodockgpu

>  <m_score__min__energy>  (61) 
-8.9000000000000004

>  <m_primary>  (61) 
energy

>  <rmsd>  (61) 
2.0891341835392843

>  <m_score__min__rmsd>  (61) 
2.0891341835392843

>  <meeko>  (61) 
{"free_energy": -8.15, "intermolecular_energy": -9.64, "internal_energy": -1.42, "cluster_size": 14, "cluster_id": 1, "rank_in_cluster": 13}

>  <energy>  (61) 
-8.22

>  <cluster_rmsd>  (61) 
1.53

>  <cluster>  (61) 
1

$$$$

     RDKit          3D

 48 51  0  0  0  0  0  0  0  0999 V2000
  139.6600   70.1700  221.0930 O   0  0  0  0  0  0  0  0  0  0  0  0
  140.0100   71.0100  221.9650 C   0  0  0  0  0  0  0  0  0  0  0  0
  140.4910   72.3090  221.6150 N   0  0  0  0  0  0  0  0  0  0  0  0
  140.6020   72.7600  220.2710 C   0  0  0  0  0  0  0  0  0  0  0  0
  141.8550   72.5850  219.5460 C   0  0  0  0  0  0  0  0  0  0  0  0
  141.7090   72.1080  218.3470 O   0  0  0  0  0  0  0  0  0  0  0  0
  143.1870   72.8530  219.9760 N   0  0  0  0  0  0  0  0  0  0  0  0
  144.3620   71.9800  219.9300 C   0  0  0  0  0  0  0  0  0  0  0  0
  145.5190   73.0080  219.8690 C   0  0  0  0  0  0  0  0  0  0  0  0
  145.0100   74.1120  220.7470 C   0  0  0  0  0  0  0  0  0  0  0  0
  143.5460   74.1380  220.5410 C   0  0  1  0  0  0  0  0  0  0  0  0
  143.0590   75.3090  219.7860 C   0  0  0  0  0  0  0  0  0  0  0  0
  143.6920   75.6680  218.6100 C   0  0  0  0  0  0  0  0  0  0  0  0
  143.3050   76.7450  217.8410 C   0  0  0  0  0  0  0  0  0  0  0  0
  142.2290   77.5320  218.2370 C   0  0  0  0  0  0  0  0  0  0  0  0
  141.5920   77.1790  219.4090 C   0  0  0  0  0  0  0  0  0  0  0  0
  141.9930   76.0940  220.1710 C   0  0  0  0  0  0  0  0  0  0  0  0
  141.0870   75.7700  221.6330 Cl  0  0  0  0  0  0  0  0  0  0  0  0
  139.9260   70.6560  223.3840 C   0  0  0  0  0  0  0  0  0  0  0  0
  139.2270   69.5390  223.7940 C   0  0  0  0  0  0  0  0  0  0  0  0
  139.1320   69.1850  225.1120 C   0  0  0  0  0  0  0  0  0  0  0  0
  139.7570   69.9730  226.0650 C   0  0  0  0  0  0  0  0  0  0  0  0
  139.7230   69.7040  227.4110 C   0  0  0  0  0  0  0  0  0  0  0  0
  140.3670   70.5240  228.3350 C   0  0  0  0  0  0  0  0  0  0  0  0
  141.0600   71.6330  227.9080 C   0  0  0  0  0  0  0  0  0  0  0  0
  141.0870   71.8910  226.5560 C   0  0  0  0  0  0  0  0  0  0  0  0
  140.4480   71.0790  225.6430 C   0  0  0  0  0  0  0  0  0  0  0  0
  140.5150   71.3880  224.3490 N   0  0  0  0  0  0  0  0  0  0  0  0
  140.7750   72.9500  222.4160 H   0  0  0  0  0  0  0  0  0  0  0  0
  139.8254   72.2359  219.6947 H   0  0  0  0  0  0  0  0  0  0  0  0
  140.5121   73.8525  220.3619 H   0  0  0  0  0  0  0  0  0  0  0  0
  144.4305   71.3530  220.8312 H   0  0  0  0  0  0  0  0  0  0  0  0
  144.3548   71.2675  219.0920 H   0  0  0  0  0  0  0  0  0  0  0  0
  146.4524   72.5817  220.2653 H   0  0  0  0  0  0  0  0  0  0  0  0
  145.7656   73.3346  218.8479 H   0  0  0  0  0  0  0  0  0  0  0  0
  145.2462   73.9046  221.8011 H   0  0  0  0  0  0  0  0  0  0  0  0
  145.4741   75.0778  220.4984 H   0  0  0  0  0  0  0  0  0  0  0  0
  143.0268   74.2779  221.5006 H   0  0  0  0  0  0  0  0  0  0  0  0
  144.5468   75.0642  218.2712 H   0  0  0  0  0  0  0  0  0  0  0  0
  143.8476   76.9818  216.9139 H   0  0  0  0  0  0  0  0  0  0  0  0
  141.9004   78.3972  217.6425 H   0  0  0  0  0  0  0  0  0  0  0  0
  140.7361   77.7800  219.7500 H   0  0  0  0  0  0  0  0  0  0  0  0
  138.7307   68.9137  223.0373 H   0  0  0  0  0  0  0  0  0  0  0  0
  138.5683   68.2888  225.4105 H   0  0  0  0  0  0  0  0  0  0  0  0
  139.1743   68.8201  227.7682 H   0  0  0  0  0  0  0  0  0  0  0  0
  140.3213   70.2843  229.4076 H   0  0  0  0  0  0  0  0  0  0  0  0
  141.5752   72.2915  228.6228 H   0  0  0  0  0  0  0  0  0  0  0  0
  141.6355   72.7725  226.1927 H   0  0  0  0  0  0  0  0  0  0  0  0
  1  2  2  0
  2  3  1  0
  3  4  1  0
  4  5  1  0
  5  6  2  0
  5  7  1  0
  7  8  1  0
  8  9  1  0
  9 10  1  0
 10 11  1  0
 11 12  1  0
 12 13  2  0
 13 14  1  0
 14 15  2  0
 15 16  1  0
 16 17  2  0
 17 18  1  0
  2 19  1  0
 19 20  2  0
 20 21  1  0
 21 22  2  0
 22 23  1  0
 23 24  2  0
 24 25  1  0
 25 26  2  0
 26 27  1  0
 27 28  2  0
 11  7  1  0
 17 12  1  0
 28 19  1  0
 27 22  1  0
  3 29  1  0
  4 30  1  0
  4 31  1  0
  8 32  1  0
  8 33  1  0
  9 34  1  0
  9 35  1  0
 10 36  1  0
 10 37  1  0
 11 38  1  1
 13 39  1  0
 14 40  1  0
 15 41  1  0
 16 42  1  0
 20 43  1  0
 21 44  1  0
 23 45  1  0
 24 46  1  0
 25 47  1  0
 26 48  1  0
M  END
>  <smiles>  (62) 
O=C(NCC(=O)N1CCCC1c1ccccc1Cl)c1ccc2ccccc2n1

>  <score_type>  (62) 
oracle

>  <origin>  (62) 
autodockgpu

>  <m_score__min__energy>  (62) 
-8.9000000000000004

>  <m_primary>  (62) 
energy

>  <rmsd>  (62) 
3.6579206394492205

>  <m_score__min__rmsd>  (62) 
3.6579206394492205

>  <meeko>  (62) 
{"free_energy": -7.53, "intermolecular_energy": -9.03, "internal_energy": -1.88, "cluster_size": 9, "cluster_id": 3, "rank_in_cluster": 9}

>  <energy>  (62) 
-8.21

>  <cluster_rmsd>  (62) 
1.38

>  <cluster>  (62) 
1

$$$$

     RDKit          3D

 48 51  0  0  0  0  0  0  0  0999 V2000
  140.9170   71.3640  221.3320 O   0  0  0  0  0  0  0  0  0  0  0  0
  140.4060   71.9780  222.3090 C   0  0  0  0  0  0  0  0  0  0  0  0
  139.9910   73.3410  222.2120 N   0  0  0  0  0  0  0  0  0  0  0  0
  140.1060   74.1050  221.0190 C   0  0  0  0  0  0  0  0  0  0  0  0
  140.9190   75.3160  221.0070 C   0  0  0  0  0  0  0  0  0  0  0  0
  141.0730   75.8600  222.1770 O   0  0  0  0  0  0  0  0  0  0  0  0
  141.5450   75.9680  219.9050 N   0  0  0  0  0  0  0  0  0  0  0  0
  141.4980   77.3820  219.5260 C   0  0  0  0  0  0  0  0  0  0  0  0
  142.8320   77.5480  218.7570 C   0  0  0  0  0  0  0  0  0  0  0  0
  142.9590   76.2290  218.0530 C   0  0  0  0  0  0  0  0  0  0  0  0
  142.3750   75.2310  218.9740 C   0  0  1  0  0  0  0  0  0  0  0  0
  143.3610   74.3280  219.5970 C   0  0  0  0  0  0  0  0  0  0  0  0
  144.4190   74.8660  220.3070 C   0  0  0  0  0  0  0  0  0  0  0  0
  145.3860   74.1000  220.9220 C   0  0  0  0  0  0  0  0  0  0  0  0
  145.3260   72.7120  220.8450 C   0  0  0  0  0  0  0  0  0  0  0  0
  144.2730   72.1680  220.1380 C   0  0  0  0  0  0  0  0  0  0  0  0
  143.3100   72.9520  219.5260 C   0  0  0  0  0  0  0  0  0  0  0  0
  142.0330   72.1190  218.6660 Cl  0  0  0  0  0  0  0  0  0  0  0  0
  140.2270   71.2820  223.5850 C   0  0  0  0  0  0  0  0  0  0  0  0
  139.5800   70.0660  223.6430 C   0  0  0  0  0  0  0  0  0  0  0  0
  139.3990   69.3940  224.8220 C   0  0  0  0  0  0  0  0  0  0  0  0
  139.8830   69.9530  225.9930 C   0  0  0  0  0  0  0  0  0  0  0  0
  139.7550   69.3610  227.2250 C   0  0  0  0  0  0  0  0  0  0  0  0
  140.2580   69.9590  228.3780 C   0  0  0  0  0  0  0  0  0  0  0  0
  140.9020   71.1730  228.3020 C   0  0  0  0  0  0  0  0  0  0  0  0
  141.0240   71.7560  227.0610 C   0  0  0  0  0  0  0  0  0  0  0  0
  140.5250   71.1620  225.9200 C   0  0  0  0  0  0  0  0  0  0  0  0
  140.6790   71.7830  224.7510 N   0  0  0  0  0  0  0  0  0  0  0  0
  139.5790   73.7830  223.0890 H   0  0  0  0  0  0  0  0  0  0  0  0
  140.5212   73.4355  220.2513 H   0  0  0  0  0  0  0  0  0  0  0  0
  139.0852   74.4827  220.8597 H   0  0  0  0  0  0  0  0  0  0  0  0
  140.6338   77.5950  218.8796 H   0  0  0  0  0  0  0  0  0  0  0  0
  141.3866   78.0683  220.3784 H   0  0  0  0  0  0  0  0  0  0  0  0
  142.7775   78.3796  218.0390 H   0  0  0  0  0  0  0  0  0  0  0  0
  143.6882   77.7866  219.4050 H   0  0  0  0  0  0  0  0  0  0  0  0
  142.4050   76.2456  217.1029 H   0  0  0  0  0  0  0  0  0  0  0  0
  144.0061   75.9958  217.8097 H   0  0  0  0  0  0  0  0  0  0  0  0
  141.7571   74.5110  218.4174 H   0  0  0  0  0  0  0  0  0  0  0  0
  144.4925   75.9608  220.3849 H   0  0  0  0  0  0  0  0  0  0  0  0
  146.2046   74.5857  221.4733 H   0  0  0  0  0  0  0  0  0  0  0  0
  146.0841   72.0766  221.3262 H   0  0  0  0  0  0  0  0  0  0  0  0
  144.1962   71.0736  220.0580 H   0  0  0  0  0  0  0  0  0  0  0  0
  139.1970   69.6216  222.7125 H   0  0  0  0  0  0  0  0  0  0  0  0
  138.8775   68.4256  224.8389 H   0  0  0  0  0  0  0  0  0  0  0  0
  139.2427   68.3907  227.3035 H   0  0  0  0  0  0  0  0  0  0  0  0
  140.1403   69.4600  229.3512 H   0  0  0  0  0  0  0  0  0  0  0  0
  141.3053   71.6605  229.2018 H   0  0  0  0  0  0  0  0  0  0  0  0
  141.5355   72.7261  226.9763 H   0  0  0  0  0  0  0  0  0  0  0  0
  1  2  2  0
  2  3  1  0
  3  4  1  0
  4  5  1  0
  5  6  2  0
  5  7  1  0
  7  8  1  0
  8  9  1  0
  9 10  1  0
 10 11  1  0
 11 12  1  0
 12 13  2  0
 13 14  1  0
 14 15  2  0
 15 16  1  0
 16 17  2  0
 17 18  1  0
  2 19  1  0
 19 20  2  0
 20 21  1  0
 21 22  2  0
 22 23  1  0
 23 24  2  0
 24 25  1  0
 25 26  2  0
 26 27  1  0
 27 28  2  0
 11  7  1  0
 17 12  1  0
 28 19  1  0
 27 22  1  0
  3 29  1  0
  4 30  1  0
  4 31  1  0
  8 32  1  0
  8 33  1  0
  9 34  1  0
  9 35  1  0
 10 36  1  0
 10 37  1  0
 11 38  1  6
 13 39  1  0
 14 40  1  0
 15 41  1  0
 16 42  1  0
 20 43  1  0
 21 44  1  0
 23 45  1  0
 24 46  1  0
 25 47  1  0
 26 48  1  0
M  END
>  <smiles>  (63) 
O=C(NCC(=O)N1CCCC1c1ccccc1Cl)c1ccc2ccccc2n1

>  <score_type>  (63) 
oracle

>  <origin>  (63) 
autodockgpu

>  <m_score__min__energy>  (63) 
-8.9000000000000004

>  <m_primary>  (63) 
energy

>  <rmsd>  (63) 
2.1841682236714157

>  <m_score__min__rmsd>  (63) 
2.1841682236714157

>  <meeko>  (63) 
{"free_energy": -8.56, "intermolecular_energy": -10.05, "internal_energy": -1.99, "cluster_size": 20, "cluster_id": 2, "rank_in_cluster": 1}

>  <energy>  (63) 
-8.15

>  <cluster_rmsd>  (63) 
1.34

>  <cluster>  (63) 
1

$$$$

     RDKit          3D

 48 51  0  0  0  0  0  0  0  0999 V2000
  141.2610   71.5060  221.5110 O   0  0  0  0  0  0  0  0  0  0  0  0
  140.5110   72.0500  222.3670 C   0  0  0  0  0  0  0  0  0  0  0  0
  139.9000   73.3210  222.1380 N   0  0  0  0  0  0  0  0  0  0  0  0
  140.0740   74.0620  220.9380 C   0  0  0  0  0  0  0  0  0  0  0  0
  140.6310   75.4090  220.9890 C   0  0  0  0  0  0  0  0  0  0  0  0
  140.4930   75.9940  222.1420 O   0  0  0  0  0  0  0  0  0  0  0  0
  141.2830   76.1520  219.9630 N   0  0  0  0  0  0  0  0  0  0  0  0
  141.2510   77.5950  219.7100 C   0  0  0  0  0  0  0  0  0  0  0  0
  142.6020   77.8190  218.9860 C   0  0  0  0  0  0  0  0  0  0  0  0
  142.7370   76.5680  218.1710 C   0  0  0  0  0  0  0  0  0  0  0  0
  142.1280   75.4960  218.9870 C   0  0  1  0  0  0  0  0  0  0  0  0
  143.0960   74.5340  219.5470 C   0  0  0  0  0  0  0  0  0  0  0  0
  144.1700   75.0030  220.2830 C   0  0  0  0  0  0  0  0  0  0  0  0
  145.1210   74.1780  220.8440 C   0  0  0  0  0  0  0  0  0  0  0  0
  145.0300   72.8000  220.6810 C   0  0  0  0  0  0  0  0  0  0  0  0
  143.9620   72.3250  219.9470 C   0  0  0  0  0  0  0  0  0  0  0  0
  143.0140   73.1660  219.3900 C   0  0  0  0  0  0  0  0  0  0  0  0
  141.7160   72.4170  218.4870 Cl  0  0  0  0  0  0  0  0  0  0  0  0
  140.2510   71.3690  223.6370 C   0  0  0  0  0  0  0  0  0  0  0  0
  139.5270   70.1960  223.6750 C   0  0  0  0  0  0  0  0  0  0  0  0
  139.2690   69.5380  224.8470 C   0  0  0  0  0  0  0  0  0  0  0  0
  139.7520   70.0670  226.0320 C   0  0  0  0  0  0  0  0  0  0  0  0
  139.5500   69.4850  227.2600 C   0  0  0  0  0  0  0  0  0  0  0  0
  140.0550   70.0520  228.4270 C   0  0  0  0  0  0  0  0  0  0  0  0
  140.7760   71.2220  228.3710 C   0  0  0  0  0  0  0  0  0  0  0  0
  140.9720   71.7950  227.1350 C   0  0  0  0  0  0  0  0  0  0  0  0
  140.4710   71.2320  225.9800 C   0  0  0  0  0  0  0  0  0  0  0  0
  140.6990   71.8420  224.8160 N   0  0  0  0  0  0  0  0  0  0  0  0
  139.2900   73.7100  222.9190 H   0  0  0  0  0  0  0  0  0  0  0  0
  140.7365   73.4683  220.2910 H   0  0  0  0  0  0  0  0  0  0  0  0
  139.0436   74.2266  220.5898 H   0  0  0  0  0  0  0  0  0  0  0  0
  140.4017   77.8704  219.0675 H   0  0  0  0  0  0  0  0  0  0  0  0
  141.1252   78.2040  220.6174 H   0  0  0  0  0  0  0  0  0  0  0  0
  142.5670   78.7113  218.3437 H   0  0  0  0  0  0  0  0  0  0  0  0
  143.4456   77.9930  219.6701 H   0  0  0  0  0  0  0  0  0  0  0  0
  142.2036   76.6730  217.2147 H   0  0  0  0  0  0  0  0  0  0  0  0
  143.7879   76.3498  217.9301 H   0  0  0  0  0  0  0  0  0  0  0  0
  141.5178   74.8337  218.3553 H   0  0  0  0  0  0  0  0  0  0  0  0
  144.2697   76.0889  220.4276 H   0  0  0  0  0  0  0  0  0  0  0  0
  145.9522   74.6098  221.4208 H   0  0  0  0  0  0  0  0  0  0  0  0
  145.7756   72.1192  221.1174 H   0  0  0  0  0  0  0  0  0  0  0  0
  143.8606   71.2397  219.7994 H   0  0  0  0  0  0  0  0  0  0  0  0
  139.1446   69.7757  222.7332 H   0  0  0  0  0  0  0  0  0  0  0  0
  138.6875   68.6043  224.8476 H   0  0  0  0  0  0  0  0  0  0  0  0
  138.9757   68.5489  227.3227 H   0  0  0  0  0  0  0  0  0  0  0  0
  139.8769   69.5631  229.3962 H   0  0  0  0  0  0  0  0  0  0  0  0
  141.1821   71.6840  229.2829 H   0  0  0  0  0  0  0  0  0  0  0  0
  141.5460   72.7309  227.0663 H   0  0  0  0  0  0  0  0  0  0  0  0
  1  2  2  0
  2  3  1  0
  3  4  1  0
  4  5  1  0
  5  6  2  0
  5  7  1  0
  7  8  1  0
  8  9  1  0
  9 10  1  0
 10 11  1  0
 11 12  1  0
 12 13  2  0
 13 14  1  0
 14 15  2  0
 15 16  1  0
 16 17  2  0
 17 18  1  0
  2 19  1  0
 19 20  2  0
 20 21  1  0
 21 22  2  0
 22 23  1  0
 23 24  2  0
 24 25  1  0
 25 26  2  0
 26 27  1  0
 27 28  2  0
 11  7  1  0
 17 12  1  0
 28 19  1  0
 27 22  1  0
  3 29  1  0
  4 30  1  0
  4 31  1  0
  8 32  1  0
  8 33  1  0
  9 34  1  0
  9 35  1  0
 10 36  1  0
 10 37  1  0
 11 38  1  6
 13 39  1  0
 14 40  1  0
 15 41  1  0
 16 42  1  0
 20 43  1  0
 21 44  1  0
 23 45  1  0
 24 46  1  0
 25 47  1  0
 26 48  1  0
M  END
>  <smiles>  (64) 
O=C(NCC(=O)N1CCCC1c1ccccc1Cl)c1ccc2ccccc2n1

>  <score_type>  (64) 
oracle

>  <origin>  (64) 
autodockgpu

>  <m_score__min__energy>  (64) 
-8.9000000000000004

>  <m_primary>  (64) 
energy

>  <rmsd>  (64) 
2.175282769163888

>  <m_score__min__rmsd>  (64) 
2.175282769163888

>  <meeko>  (64) 
{"free_energy": -8.26, "intermolecular_energy": -9.75, "internal_energy": -1.97, "cluster_size": 20, "cluster_id": 2, "rank_in_cluster": 15}

>  <energy>  (64) 
-7.94

>  <cluster_rmsd>  (64) 
1.73

>  <cluster>  (64) 
1

$$$$

     RDKit          3D

 48 51  0  0  0  0  0  0  0  0999 V2000
  138.7720   75.3910  221.8390 O   0  0  0  0  0  0  0  0  0  0  0  0
  139.9530   75.8150  221.9630 C   0  0  0  0  0  0  0  0  0  0  0  0
  141.0850   74.9930  221.6740 N   0  0  0  0  0  0  0  0  0  0  0  0
  140.9760   73.6520  221.2160 C   0  0  0  0  0  0  0  0  0  0  0  0
  142.0240   73.0830  220.3750 C   0  0  0  0  0  0  0  0  0  0  0  0
  141.5760   72.3980  219.3660 O   0  0  0  0  0  0  0  0  0  0  0  0
  143.4390   73.1730  220.5180 N   0  0  0  0  0  0  0  0  0  0  0  0
  144.4170   72.0950  220.6770 C   0  0  0  0  0  0  0  0  0  0  0  0
  145.7000   72.7430  220.1000 C   0  0  0  0  0  0  0  0  0  0  0  0
  145.5610   74.1700  220.5420 C   0  0  0  0  0  0  0  0  0  0  0  0
  144.1110   74.4570  220.5070 C   0  0  1  0  0  0  0  0  0  0  0  0
  143.6980   75.3680  219.4230 C   0  0  0  0  0  0  0  0  0  0  0  0
  143.2830   76.6500  219.7370 C   0  0  0  0  0  0  0  0  0  0  0  0
  142.8800   77.5680  218.7900 C   0  0  0  0  0  0  0  0  0  0  0  0
  142.8770   77.2220  217.4430 C   0  0  0  0  0  0  0  0  0  0  0  0
  143.2900   75.9450  217.1230 C   0  0  0  0  0  0  0  0  0  0  0  0
  143.6910   75.0340  218.0850 C   0  0  0  0  0  0  0  0  0  0  0  0
  144.1890   73.4510  217.5270 Cl  0  0  0  0  0  0  0  0  0  0  0  0
  140.1830   77.1880  222.4160 C   0  0  0  0  0  0  0  0  0  0  0  0
  139.1260   78.0170  222.7290 C   0  0  0  0  0  0  0  0  0  0  0  0
  139.3130   79.3040  223.1540 C   0  0  0  0  0  0  0  0  0  0  0  0
  140.6040   79.7900  223.2750 C   0  0  0  0  0  0  0  0  0  0  0  0
  140.8980   81.0640  223.6930 C   0  0  0  0  0  0  0  0  0  0  0  0
  142.2130   81.5110  223.8010 C   0  0  0  0  0  0  0  0  0  0  0  0
  143.2560   80.6710  223.4850 C   0  0  0  0  0  0  0  0  0  0  0  0
  142.9480   79.3960  223.0670 C   0  0  0  0  0  0  0  0  0  0  0  0
  141.6450   78.9550  222.9610 C   0  0  0  0  0  0  0  0  0  0  0  0
  141.4190   77.7080  222.5490 N   0  0  0  0  0  0  0  0  0  0  0  0
  142.0460   75.4300  221.8160 H   0  0  0  0  0  0  0  0  0  0  0  0
  140.9051   73.0153  222.1102 H   0  0  0  0  0  0  0  0  0  0  0  0
  140.1027   73.6821  220.5479 H   0  0  0  0  0  0  0  0  0  0  0  0
  144.5462   71.8244  221.7353 H   0  0  0  0  0  0  0  0  0  0  0  0
  144.1300   71.1565  220.1802 H   0  0  0  0  0  0  0  0  0  0  0  0
  146.6046   72.2810  220.5222 H   0  0  0  0  0  0  0  0  0  0  0  0
  145.8022   72.6261  219.0110 H   0  0  0  0  0  0  0  0  0  0  0  0
  145.9530   74.2961  221.5620 H   0  0  0  0  0  0  0  0  0  0  0  0
  146.1274   74.8543  219.8932 H   0  0  0  0  0  0  0  0  0  0  0  0
  143.8129   75.0385  221.3919 H   0  0  0  0  0  0  0  0  0  0  0  0
  143.2741   76.9521  220.7947 H   0  0  0  0  0  0  0  0  0  0  0  0
  142.5609   78.5740  219.1001 H   0  0  0  0  0  0  0  0  0  0  0  0
  142.5596   77.9345  216.6674 H   0  0  0  0  0  0  0  0  0  0  0  0
  143.3010   75.6401  216.0662 H   0  0  0  0  0  0  0  0  0  0  0  0
  138.1003   77.6312  222.6339 H   0  0  0  0  0  0  0  0  0  0  0  0
  138.4509   79.9430  223.3959 H   0  0  0  0  0  0  0  0  0  0  0  0
  140.0756   81.7483  223.9488 H   0  0  0  0  0  0  0  0  0  0  0  0
  142.4179   82.5374  224.1395 H   0  0  0  0  0  0  0  0  0  0  0  0
  144.3005   81.0069  223.5637 H   0  0  0  0  0  0  0  0  0  0  0  0
  143.7662   78.7074  222.8095 H   0  0  0  0  0  0  0  0  0  0  0  0
  1  2  2  0
  2  3  1  0
  3  4  1  0
  4  5  1  0
  5  6  2  0
  5  7  1  0
  7  8  1  0
  8  9  1  0
  9 10  1  0
 10 11  1  0
 11 12  1  0
 12 13  2  0
 13 14  1  0
 14 15  2  0
 15 16  1  0
 16 17  2  0
 17 18  1  0
  2 19  1  0
 19 20  2  0
 20 21  1  0
 21 22  2  0
 22 23  1  0
 23 24  2  0
 24 25  1  0
 25 26  2  0
 26 27  1  0
 27 28  2  0
 11  7  1  0
 17 12  1  0
 28 19  1  0
 27 22  1  0
  3 29  1  0
  4 30  1  0
  4 31  1  0
  8 32  1  0
  8 33  1  0
  9 34  1  0
  9 35  1  0
 10 36  1  0
 10 37  1  0
 11 38  1  1
 13 39  1  0
 14 40  1  0
 15 41  1  0
 16 42  1  0
 20 43  1  0
 21 44  1  0
 23 45  1  0
 24 46  1  0
 25 47  1  0
 26 48  1  0
M  END
>  <smiles>  (65) 
O=C(NCC(=O)N1CCCC1c1ccccc1Cl)c1ccc2ccccc2n1

>  <score_type>  (65) 
oracle

>  <origin>  (65) 
autodockgpu

>  <m_score__min__energy>  (65) 
-8.9000000000000004

>  <m_primary>  (65) 
energy

>  <rmsd>  (65) 
7.88248312191374

>  <m_score__min__rmsd>  (65) 
7.88248312191374

>  <meeko>  (65) 
{"free_energy": -7.83, "intermolecular_energy": -9.32, "internal_energy": -2.14, "cluster_size": 4, "cluster_id": 4, "rank_in_cluster": 1}

>  <energy>  (65) 
-8.56

>  <cluster_rmsd>  (65) 
0.0

>  <cluster>  (65) 
2

$$$$

     RDKit          3D

 48 51  0  0  0  0  0  0  0  0999 V2000
  140.2650   77.1600  218.6690 O   0  0  0  0  0  0  0  0  0  0  0  0
  141.4560   77.1400  219.0830 C   0  0  0  0  0  0  0  0  0  0  0  0
  142.1870   78.3390  219.3430 N   0  0  0  0  0  0  0  0  0  0  0  0
  141.6350   79.6380  219.1710 C   0  0  0  0  0  0  0  0  0  0  0  0
  141.0470   80.3340  220.3090 C   0  0  0  0  0  0  0  0  0  0  0  0
  139.9170   80.9180  220.0450 O   0  0  0  0  0  0  0  0  0  0  0  0
  141.5430   80.4610  221.6390 N   0  0  0  0  0  0  0  0  0  0  0  0
  141.8510   81.6790  222.3930 C   0  0  0  0  0  0  0  0  0  0  0  0
  141.6650   81.2010  223.8550 C   0  0  0  0  0  0  0  0  0  0  0  0
  142.1750   79.7920  223.7960 C   0  0  0  0  0  0  0  0  0  0  0  0
  141.8050   79.2930  222.4540 C   0  0  1  0  0  0  0  0  0  0  0  0
  140.7310   78.2810  222.4570 C   0  0  0  0  0  0  0  0  0  0  0  0
  141.0470   76.9560  222.2150 C   0  0  0  0  0  0  0  0  0  0  0  0
  140.1100   75.9460  222.1980 C   0  0  0  0  0  0  0  0  0  0  0  0
  138.7690   76.2360  222.4320 C   0  0  0  0  0  0  0  0  0  0  0  0
  138.4470   77.5550  222.6740 C   0  0  0  0  0  0  0  0  0  0  0  0
  139.4000   78.5590  222.6870 C   0  0  0  0  0  0  0  0  0  0  0  0
  138.8400   80.1860  223.0100 Cl  0  0  0  0  0  0  0  0  0  0  0  0
  142.1200   75.8540  219.3080 C   0  0  0  0  0  0  0  0  0  0  0  0
  141.4820   74.6670  219.0150 C   0  0  0  0  0  0  0  0  0  0  0  0
  142.0790   73.4520  219.2150 C   0  0  0  0  0  0  0  0  0  0  0  0
  143.3650   73.4140  219.7280 C   0  0  0  0  0  0  0  0  0  0  0  0
  144.0520   72.2480  219.9650 C   0  0  0  0  0  0  0  0  0  0  0  0
  145.3450   72.2560  220.4810 C   0  0  0  0  0  0  0  0  0  0  0  0
  145.9670   73.4490  220.7670 C   0  0  0  0  0  0  0  0  0  0  0  0
  145.2680   74.6100  220.5250 C   0  0  0  0  0  0  0  0  0  0  0  0
  143.9870   74.6010  220.0140 C   0  0  0  0  0  0  0  0  0  0  0  0
  143.3690   75.7630  219.8040 N   0  0  0  0  0  0  0  0  0  0  0  0
  143.1910   78.2290  219.6800 H   0  0  0  0  0  0  0  0  0  0  0  0
  142.4432   80.2790  218.7891 H   0  0  0  0  0  0  0  0  0  0  0  0
  140.7747   79.4628  218.5083 H   0  0  0  0  0  0  0  0  0  0  0  0
  142.8825   82.0140  222.2091 H   0  0  0  0  0  0  0  0  0  0  0  0
  141.2238   82.5413  222.1226 H   0  0  0  0  0  0  0  0  0  0  0  0
  142.2582   81.8108  224.5523 H   0  0  0  0  0  0  0  0  0  0  0  0
  140.6292   81.2805  224.2167 H   0  0  0  0  0  0  0  0  0  0  0  0
  143.2672   79.7729  223.9255 H   0  0  0  0  0  0  0  0  0  0  0  0
  141.7463   79.1693  224.5951 H   0  0  0  0  0  0  0  0  0  0  0  0
  142.6338   78.7163  222.0176 H   0  0  0  0  0  0  0  0  0  0  0  0
  142.0991   76.6958  222.0267 H   0  0  0  0  0  0  0  0  0  0  0  0
  140.4219   74.9100  221.9994 H   0  0  0  0  0  0  0  0  0  0  0  0
  138.0007   75.4488  222.4243 H   0  0  0  0  0  0  0  0  0  0  0  0
  137.3960   77.8185  222.8633 H   0  0  0  0  0  0  0  0  0  0  0  0
  140.4607   74.6978  218.6076 H   0  0  0  0  0  0  0  0  0  0  0  0
  141.5463   72.5207  218.9723 H   0  0  0  0  0  0  0  0  0  0  0  0
  143.5689   71.2853  219.7417 H   0  0  0  0  0  0  0  0  0  0  0  0
  145.8703   71.3063  220.6604 H   0  0  0  0  0  0  0  0  0  0  0  0
  146.9881   73.4745  221.1752 H   0  0  0  0  0  0  0  0  0  0  0  0
  145.7463   75.5755  220.7462 H   0  0  0  0  0  0  0  0  0  0  0  0
  1  2  2  0
  2  3  1  0
  3  4  1  0
  4  5  1  0
  5  6  2  0
  5  7  1  0
  7  8  1  0
  8  9  1  0
  9 10  1  0
 10 11  1  0
 11 12  1  0
 12 13  2  0
 13 14  1  0
 14 15  2  0
 15 16  1  0
 16 17  2  0
 17 18  1  0
  2 19  1  0
 19 20  2  0
 20 21  1  0
 21 22  2  0
 22 23  1  0
 23 24  2  0
 24 25  1  0
 25 26  2  0
 26 27  1  0
 27 28  2  0
 11  7  1  0
 17 12  1  0
 28 19  1  0
 27 22  1  0
  3 29  1  0
  4 30  1  0
  4 31  1  0
  8 32  1  0
  8 33  1  0
  9 34  1  0
  9 35  1  0
 10 36  1  0
 10 37  1  0
 11 38  1  6
 13 39  1  0
 14 40  1  0
 15 41  1  0
 16 42  1  0
 20 43  1  0
 21 44  1  0
 23 45  1  0
 24 46  1  0
 25 47  1  0
 26 48  1  0
M  END
>  <smiles>  (66) 
O=C(NCC(=O)N1CCCC1c1ccccc1Cl)c1ccc2ccccc2n1

>  <score_type>  (66) 
oracle

>  <origin>  (66) 
autodockgpu

>  <m_score__min__energy>  (66) 
-8.9000000000000004

>  <m_primary>  (66) 
energy

>  <rmsd>  (66) 
7.54360302290839

>  <m_score__min__rmsd>  (66) 
7.54360302290839

>  <meeko>  (66) 
{"free_energy": -7.25, "intermolecular_energy": -8.74, "internal_energy": -2.43, "cluster_size": 3, "cluster_id": 5, "rank_in_cluster": 2}

>  <energy>  (66) 
-8.54

>  <cluster_rmsd>  (66) 
0.1

>  <cluster>  (66) 
2

$$$$

     RDKit          3D

 48 51  0  0  0  0  0  0  0  0999 V2000
  141.1640   71.9520  221.3070 O   0  0  0  0  0  0  0  0  0  0  0  0
  140.4860   72.3980  222.2720 C   0  0  0  0  0  0  0  0  0  0  0  0
  139.9270   73.7130  222.2600 N   0  0  0  0  0  0  0  0  0  0  0  0
  140.0750   74.6100  221.1680 C   0  0  0  0  0  0  0  0  0  0  0  0
  140.8960   75.8070  221.3170 C   0  0  0  0  0  0  0  0  0  0  0  0
  141.4210   75.9430  222.4980 O   0  0  0  0  0  0  0  0  0  0  0  0
  141.1820   76.8250  220.3620 N   0  0  0  0  0  0  0  0  0  0  0  0
  141.1190   76.7580  218.9000 C   0  0  0  0  0  0  0  0  0  0  0  0
  140.8620   78.2400  218.5270 C   0  0  0  0  0  0  0  0  0  0  0  0
  141.6730   78.9710  219.5550 C   0  0  0  0  0  0  0  0  0  0  0  0
  141.5920   78.1500  220.7820 C   0  0  1  0  0  0  0  0  0  0  0  0
  140.7750   78.7430  221.8570 C   0  0  0  0  0  0  0  0  0  0  0  0
  139.4230   78.4540  221.9200 C   0  0  0  0  0  0  0  0  0  0  0  0
  138.5850   78.9620  222.8890 C   0  0  0  0  0  0  0  0  0  0  0  0
  139.0890   79.8120  223.8690 C   0  0  0  0  0  0  0  0  0  0  0  0
  140.4360   80.1040  223.8130 C   0  0  0  0  0  0  0  0  0  0  0  0
  141.2650   79.5860  222.8330 C   0  0  0  0  0  0  0  0  0  0  0  0
  142.9530   80.0460  222.8910 Cl  0  0  0  0  0  0  0  0  0  0  0  0
  140.2590   71.5530  223.4460 C   0  0  0  0  0  0  0  0  0  0  0  0
  139.5610   70.3680  223.3400 C   0  0  0  0  0  0  0  0  0  0  0  0
  139.3340   69.5590  224.4210 C   0  0  0  0  0  0  0  0  0  0  0  0
  139.8220   69.9420  225.6590 C   0  0  0  0  0  0  0  0  0  0  0  0
  139.6490   69.2030  226.8040 C   0  0  0  0  0  0  0  0  0  0  0  0
  140.1570   69.6260  228.0290 C   0  0  0  0  0  0  0  0  0  0  0  0
  140.8510   70.8110  228.1170 C   0  0  0  0  0  0  0  0  0  0  0  0
  141.0170   71.5430  226.9630 C   0  0  0  0  0  0  0  0  0  0  0  0
  140.5130   71.1220  225.7500 C   0  0  0  0  0  0  0  0  0  0  0  0
  140.7120   71.8810  224.6720 N   0  0  0  0  0  0  0  0  0  0  0  0
  139.3780   74.0110  223.1220 H   0  0  0  0  0  0  0  0  0  0  0  0
  140.5041   74.0313  220.3368 H   0  0  0  0  0  0  0  0  0  0  0  0
  139.0607   75.0128  221.0306 H   0  0  0  0  0  0  0  0  0  0  0  0
  142.0665   76.3961  218.4742 H   0  0  0  0  0  0  0  0  0  0  0  0
  140.3566   76.0632  218.5178 H   0  0  0  0  0  0  0  0  0  0  0  0
  141.2149   78.4620  217.5090 H   0  0  0  0  0  0  0  0  0  0  0  0
  139.7974   78.5167  218.5262 H   0  0  0  0  0  0  0  0  0  0  0  0
  142.7178   79.0650  219.2241 H   0  0  0  0  0  0  0  0  0  0  0  0
  141.2956   79.9907  219.7217 H   0  0  0  0  0  0  0  0  0  0  0  0
  142.5748   78.0959  221.2730 H   0  0  0  0  0  0  0  0  0  0  0  0
  138.9958   77.7852  221.1583 H   0  0  0  0  0  0  0  0  0  0  0  0
  137.5177   78.6956  222.8879 H   0  0  0  0  0  0  0  0  0  0  0  0
  138.4421   80.2322  224.6532 H   0  0  0  0  0  0  0  0  0  0  0  0
  140.8664   80.7718  224.5738 H   0  0  0  0  0  0  0  0  0  0  0  0
  139.1747   70.0634  222.3561 H   0  0  0  0  0  0  0  0  0  0  0  0
  138.7729   68.6197  224.3079 H   0  0  0  0  0  0  0  0  0  0  0  0
  139.0955   68.2538  226.7515 H   0  0  0  0  0  0  0  0  0  0  0  0
  140.0034   69.0118  228.9285 H   0  0  0  0  0  0  0  0  0  0  0  0
  141.2591   71.1613  229.0765 H   0  0  0  0  0  0  0  0  0  0  0  0
  141.5689   72.4934  227.0097 H   0  0  0  0  0  0  0  0  0  0  0  0
  1  2  2  0
  2  3  1  0
  3  4  1  0
  4  5  1  0
  5  6  2  0
  5  7  1  0
  7  8  1  0
  8  9  1  0
  9 10  1  0
 10 11  1  0
 11 12  1  0
 12 13  2  0
 13 14  1  0
 14 15  2  0
 15 16  1  0
 16 17  2  0
 17 18  1  0
  2 19  1  0
 19 20  2  0
 20 21  1  0
 21 22  2  0
 22 23  1  0
 23 24  2  0
 24 25  1  0
 25 26  2  0
 26 27  1  0
 27 28  2  0
 11  7  1  0
 17 12  1  0
 28 19  1  0
 27 22  1  0
  3 29  1  0
  4 30  1  0
  4 31  1  0
  8 32  1  0
  8 33  1  0
  9 34  1  0
  9 35  1  0
 10 36  1  0
 10 37  1  0
 11 38  1  1
 13 39  1  0
 14 40  1  0
 15 41  1  0
 16 42  1  0
 20 43  1  0
 21 44  1  0
 23 45  1  0
 24 46  1  0
 25 47  1  0
 26 48  1  0
M  END
>  <smiles>  (67) 
O=C(NCC(=O)N1CCCC1c1ccccc1Cl)c1ccc2ccccc2n1

>  <score_type>  (67) 
oracle

>  <origin>  (67) 
autodockgpu

>  <m_score__min__energy>  (67) 
-8.9000000000000004

>  <m_primary>  (67) 
energy

>  <rmsd>  (67) 
1.870030653635708

>  <m_score__min__rmsd>  (67) 
1.870030653635708

>  <meeko>  (67) 
{"free_energy": -8.67, "intermolecular_energy": -10.16, "internal_energy": -1.38, "cluster_size": 14, "cluster_id": 1, "rank_in_cluster": 6}

>  <energy>  (67) 
-8.53

>  <cluster_rmsd>  (67) 
0.35

>  <cluster>  (67) 
2

$$$$

     RDKit          3D

 48 51  0  0  0  0  0  0  0  0999 V2000
  141.4820   72.2270  221.7680 O   0  0  0  0  0  0  0  0  0  0  0  0
  140.4490   72.4310  222.4610 C   0  0  0  0  0  0  0  0  0  0  0  0
  139.5200   73.4690  222.1470 N   0  0  0  0  0  0  0  0  0  0  0  0
  139.6740   74.3400  221.0350 C   0  0  0  0  0  0  0  0  0  0  0  0
  140.9080   75.1010  220.8730 C   0  0  0  0  0  0  0  0  0  0  0  0
  141.5940   75.2330  221.9690 O   0  0  0  0  0  0  0  0  0  0  0  0
  141.4410   75.7110  219.7010 N   0  0  0  0  0  0  0  0  0  0  0  0
  141.2210   77.0650  219.1880 C   0  0  0  0  0  0  0  0  0  0  0  0
  142.5190   77.3120  218.3780 C   0  0  0  0  0  0  0  0  0  0  0  0
  142.7960   75.9550  217.8020 C   0  0  0  0  0  0  0  0  0  0  0  0
  142.3440   74.9900  218.8270 C   0  0  1  0  0  0  0  0  0  0  0  0
  143.4370   74.2750  219.5130 C   0  0  0  0  0  0  0  0  0  0  0  0
  144.4230   75.0010  220.1570 C   0  0  0  0  0  0  0  0  0  0  0  0
  145.4790   74.4180  220.8230 C   0  0  0  0  0  0  0  0  0  0  0  0
  145.5930   73.0320  220.8700 C   0  0  0  0  0  0  0  0  0  0  0  0
  144.6130   72.3020  220.2310 C   0  0  0  0  0  0  0  0  0  0  0  0
  143.5570   72.9020  219.5650 C   0  0  0  0  0  0  0  0  0  0  0  0
  142.3910   71.8440  218.8010 Cl  0  0  0  0  0  0  0  0  0  0  0  0
  140.1820   71.5830  223.6250 C   0  0  0  0  0  0  0  0  0  0  0  0
  139.4230   70.4370  223.5070 C   0  0  0  0  0  0  0  0  0  0  0  0
  139.1590   69.6270  224.5780 C   0  0  0  0  0  0  0  0  0  0  0  0
  139.6700   69.9680  225.8190 C   0  0  0  0  0  0  0  0  0  0  0  0
  139.4640   69.2240  226.9550 C   0  0  0  0  0  0  0  0  0  0  0  0
  139.9980   69.6040  228.1830 C   0  0  0  0  0  0  0  0  0  0  0  0
  140.7530   70.7500  228.2830 C   0  0  0  0  0  0  0  0  0  0  0  0
  140.9530   71.4870  227.1380 C   0  0  0  0  0  0  0  0  0  0  0  0
  140.4230   71.1090  225.9210 C   0  0  0  0  0  0  0  0  0  0  0  0
  140.6560   71.8710  224.8530 N   0  0  0  0  0  0  0  0  0  0  0  0
  138.6800   73.5760  222.7930 H   0  0  0  0  0  0  0  0  0  0  0  0
  139.5588   73.7246  220.1306 H   0  0  0  0  0  0  0  0  0  0  0  0
  138.9175   75.1180  221.2151 H   0  0  0  0  0  0  0  0  0  0  0  0
  140.3315   77.1091  218.5424 H   0  0  0  0  0  0  0  0  0  0  0  0
  141.0360   77.8139  219.9722 H   0  0  0  0  0  0  0  0  0  0  0  0
  142.3584   78.0568  217.5846 H   0  0  0  0  0  0  0  0  0  0  0  0
  143.3466   77.7129  218.9816 H   0  0  0  0  0  0  0  0  0  0  0  0
  142.2351   75.8128  216.8665 H   0  0  0  0  0  0  0  0  0  0  0  0
  143.8612   75.8243  217.5605 H   0  0  0  0  0  0  0  0  0  0  0  0
  141.8109   74.1517  218.3547 H   0  0  0  0  0  0  0  0  0  0  0  0
  144.3608   76.0990  220.1363 H   0  0  0  0  0  0  0  0  0  0  0  0
  146.2323   75.0486  221.3178 H   0  0  0  0  0  0  0  0  0  0  0  0
  146.4269   72.5410  221.3930 H   0  0  0  0  0  0  0  0  0  0  0  0
  144.6720   71.2038  220.2509 H   0  0  0  0  0  0  0  0  0  0  0  0
  139.0173   70.1658  222.5212 H   0  0  0  0  0  0  0  0  0  0  0  0
  138.5503   68.7191  224.4549 H   0  0  0  0  0  0  0  0  0  0  0  0
  138.8623   68.3053  226.8928 H   0  0  0  0  0  0  0  0  0  0  0  0
  139.8161   68.9869  229.0753 H   0  0  0  0  0  0  0  0  0  0  0  0
  141.1821   71.0663  229.2452 H   0  0  0  0  0  0  0  0  0  0  0  0
  141.5543   72.4064  227.1946 H   0  0  0  0  0  0  0  0  0  0  0  0
  1  2  2  0
  2  3  1  0
  3  4  1  0
  4  5  1  0
  5  6  2  0
  5  7  1  0
  7  8  1  0
  8  9  1  0
  9 10  1  0
 10 11  1  0
 11 12  1  0
 12 13  2  0
 13 14  1  0
 14 15  2  0
 15 16  1  0
 16 17  2  0
 17 18  1  0
  2 19  1  0
 19 20  2  0
 20 21  1  0
 21 22  2  0
 22 23  1  0
 23 24  2  0
 24 25  1  0
 25 26  2  0
 26 27  1  0
 27 28  2  0
 11  7  1  0
 17 12  1  0
 28 19  1  0
 27 22  1  0
  3 29  1  0
  4 30  1  0
  4 31  1  0
  8 32  1  0
  8 33  1  0
  9 34  1  0
  9 35  1  0
 10 36  1  0
 10 37  1  0
 11 38  1  6
 13 39  1  0
 14 40  1  0
 15 41  1  0
 16 42  1  0
 20 43  1  0
 21 44  1  0
 23 45  1  0
 24 46  1  0
 25 47  1  0
 26 48  1  0
M  END
>  <smiles>  (68) 
O=C(NCC(=O)N1CCCC1c1ccccc1Cl)c1ccc2ccccc2n1

>  <score_type>  (68) 
oracle

>  <origin>  (68) 
autodockgpu

>  <m_score__min__energy>  (68) 
-8.9000000000000004

>  <m_primary>  (68) 
energy

>  <rmsd>  (68) 
2.0903846093849476

>  <m_score__min__rmsd>  (68) 
2.0903846093849476

>  <meeko>  (68) 
{"free_energy": -8.39, "intermolecular_energy": -9.89, "internal_energy": -1.86, "cluster_size": 20, "cluster_id": 2, "rank_in_cluster": 10}

>  <energy>  (68) 
-8.53

>  <cluster_rmsd>  (68) 
0.05

>  <cluster>  (68) 
2

$$$$

     RDKit          3D

 48 51  0  0  0  0  0  0  0  0999 V2000
  138.7940   75.3010  221.7980 O   0  0  0  0  0  0  0  0  0  0  0  0
  139.9710   75.7490  221.8700 C   0  0  0  0  0  0  0  0  0  0  0  0
  141.1030   74.9680  221.4840 N   0  0  0  0  0  0  0  0  0  0  0  0
  140.9980   73.6430  220.9810 C   0  0  0  0  0  0  0  0  0  0  0  0
  142.1470   73.0170  220.3360 C   0  0  0  0  0  0  0  0  0  0  0  0
  141.8320   72.1220  219.4490 O   0  0  0  0  0  0  0  0  0  0  0  0
  143.5360   73.2490  220.5530 N   0  0  0  0  0  0  0  0  0  0  0  0
  144.6050   72.2760  220.7870 C   0  0  0  0  0  0  0  0  0  0  0  0
  145.8490   73.0390  220.2660 C   0  0  0  0  0  0  0  0  0  0  0  0
  145.5460   74.4520  220.6710 C   0  0  0  0  0  0  0  0  0  0  0  0
  144.0790   74.5930  220.5510 C   0  0  1  0  0  0  0  0  0  0  0  0
  143.6390   75.4410  219.4280 C   0  0  0  0  0  0  0  0  0  0  0  0
  143.1230   76.6990  219.6900 C   0  0  0  0  0  0  0  0  0  0  0  0
  142.6890   77.5580  218.7040 C   0  0  0  0  0  0  0  0  0  0  0  0
  142.7570   77.1760  217.3670 C   0  0  0  0  0  0  0  0  0  0  0  0
  143.2710   75.9240  217.1000 C   0  0  0  0  0  0  0  0  0  0  0  0
  143.7030   75.0720  218.1010 C   0  0  0  0  0  0  0  0  0  0  0  0
  144.3320   73.5150  217.6070 Cl  0  0  0  0  0  0  0  0  0  0  0  0
  140.1960   77.1100  222.3630 C   0  0  0  0  0  0  0  0  0  0  0  0
  139.1370   77.9120  222.7320 C   0  0  0  0  0  0  0  0  0  0  0  0
  139.3180   79.1870  223.1960 C   0  0  0  0  0  0  0  0  0  0  0  0
  140.6060   79.6870  223.2980 C   0  0  0  0  0  0  0  0  0  0  0  0
  140.8960   80.9500  223.7510 C   0  0  0  0  0  0  0  0  0  0  0  0
  142.2070   81.4110  223.8380 C   0  0  0  0  0  0  0  0  0  0  0  0
  143.2510   80.5970  223.4650 C   0  0  0  0  0  0  0  0  0  0  0  0
  142.9480   79.3330  223.0130 C   0  0  0  0  0  0  0  0  0  0  0  0
  141.6490   78.8780  222.9270 C   0  0  0  0  0  0  0  0  0  0  0  0
  141.4280   77.6420  222.4800 N   0  0  0  0  0  0  0  0  0  0  0  0
  142.0610   75.4230  221.5880 H   0  0  0  0  0  0  0  0  0  0  0  0
  140.7215   73.0013  221.8305 H   0  0  0  0  0  0  0  0  0  0  0  0
  140.2686   73.7388  220.1632 H   0  0  0  0  0  0  0  0  0  0  0  0
  144.7011   72.0363  221.8562 H   0  0  0  0  0  0  0  0  0  0  0  0
  144.4395   71.3061  220.2953 H   0  0  0  0  0  0  0  0  0  0  0  0
  146.7698   72.6753  220.7454 H   0  0  0  0  0  0  0  0  0  0  0  0
  146.0226   72.9163  219.1867 H   0  0  0  0  0  0  0  0  0  0  0  0
  145.8656   74.6313  221.7082 H   0  0  0  0  0  0  0  0  0  0  0  0
  146.0782   75.1796  220.0406 H   0  0  0  0  0  0  0  0  0  0  0  0
  143.6772   75.1563  221.4061 H   0  0  0  0  0  0  0  0  0  0  0  0
  143.0563   77.0289  220.7372 H   0  0  0  0  0  0  0  0  0  0  0  0
  142.2884   78.5464  218.9734 H   0  0  0  0  0  0  0  0  0  0  0  0
  142.4165   77.8420  216.5605 H   0  0  0  0  0  0  0  0  0  0  0  0
  143.3399   75.5911  216.0539 H   0  0  0  0  0  0  0  0  0  0  0  0
  138.1144   77.5148  222.6510 H   0  0  0  0  0  0  0  0  0  0  0  0
  138.4544   79.8048  223.4833 H   0  0  0  0  0  0  0  0  0  0  0  0
  140.0726   81.6141  224.0526 H   0  0  0  0  0  0  0  0  0  0  0  0
  142.4081   82.4280  224.2057 H   0  0  0  0  0  0  0  0  0  0  0  0
  144.2929   80.9446  223.5259 H   0  0  0  0  0  0  0  0  0  0  0  0
  143.7677   78.6646  222.7108 H   0  0  0  0  0  0  0  0  0  0  0  0
  1  2  2  0
  2  3  1  0
  3  4  1  0
  4  5  1  0
  5  6  2  0
  5  7  1  0
  7  8  1  0
  8  9  1  0
  9 10  1  0
 10 11  1  0
 11 12  1  0
 12 13  2  0
 13 14  1  0
 14 15  2  0
 15 16  1  0
 16 17  2  0
 17 18  1  0
  2 19  1  0
 19 20  2  0
 20 21  1  0
 21 22  2  0
 22 23  1  0
 23 24  2  0
 24 25  1  0
 25 26  2  0
 26 27  1  0
 27 28  2  0
 11  7  1  0
 17 12  1  0
 28 19  1  0
 27 22  1  0
  3 29  1  0
  4 30  1  0
  4 31  1  0
  8 32  1  0
  8 33  1  0
  9 34  1  0
  9 35  1  0
 10 36  1  0
 10 37  1  0
 11 38  1  1
 13 39  1  0
 14 40  1  0
 15 41  1  0
 16 42  1  0
 20 43  1  0
 21 44  1  0
 23 45  1  0
 24 46  1  0
 25 47  1  0
 26 48  1  0
M  END
>  <smiles>  (69) 
O=C(NCC(=O)N1CCCC1c1ccccc1Cl)c1ccc2ccccc2n1

>  <score_type>  (69) 
oracle

>  <origin>  (69) 
autodockgpu

>  <m_score__min__energy>  (69) 
-8.9000000000000004

>  <m_primary>  (69) 
energy

>  <rmsd>  (69) 
7.837767072567583

>  <m_score__min__rmsd>  (69) 
7.837767072567583

>  <meeko>  (69) 
{"free_energy": -7.65, "intermolecular_energy": -9.14, "internal_energy": -2.18, "cluster_size": 4, "cluster_id": 4, "rank_in_cluster": 4}

>  <energy>  (69) 
-8.52

>  <cluster_rmsd>  (69) 
0.05

>  <cluster>  (69) 
2

$$$$

     RDKit          3D

 48 51  0  0  0  0  0  0  0  0999 V2000
  140.4430   70.9450  221.2780 O   0  0  0  0  0  0  0  0  0  0  0  0
  140.1940   71.6120  222.3190 C   0  0  0  0  0  0  0  0  0  0  0  0
  140.0600   73.0340  222.2930 N   0  0  0  0  0  0  0  0  0  0  0  0
  140.1810   73.8040  221.1040 C   0  0  0  0  0  0  0  0  0  0  0  0
  140.8820   75.0830  221.1350 C   0  0  0  0  0  0  0  0  0  0  0  0
  140.9760   75.6040  222.3210 O   0  0  0  0  0  0  0  0  0  0  0  0
  141.4550   75.8200  220.0580 N   0  0  0  0  0  0  0  0  0  0  0  0
  141.3130   77.2420  219.7400 C   0  0  0  0  0  0  0  0  0  0  0  0
  142.6270   77.5270  218.9710 C   0  0  0  0  0  0  0  0  0  0  0  0
  142.8330   76.2510  218.2110 C   0  0  0  0  0  0  0  0  0  0  0  0
  142.3230   75.1780  219.0920 C   0  0  1  0  0  0  0  0  0  0  0  0
  143.3700   74.3160  219.6700 C   0  0  0  0  0  0  0  0  0  0  0  0
  144.4460   74.8980  220.3180 C   0  0  0  0  0  0  0  0  0  0  0  0
  145.4690   74.1700  220.8870 C   0  0  0  0  0  0  0  0  0  0  0  0
  145.4530   72.7810  220.8270 C   0  0  0  0  0  0  0  0  0  0  0  0
  144.3830   72.1940  220.1830 C   0  0  0  0  0  0  0  0  0  0  0  0
  143.3630   72.9380  219.6150 C   0  0  0  0  0  0  0  0  0  0  0  0
  142.0710   72.0530  218.8320 Cl  0  0  0  0  0  0  0  0  0  0  0  0
  140.0360   70.9190  223.6000 C   0  0  0  0  0  0  0  0  0  0  0  0
  139.4380   69.6780  223.6630 C   0  0  0  0  0  0  0  0  0  0  0  0
  139.2770   69.0070  224.8460 C   0  0  0  0  0  0  0  0  0  0  0  0
  139.7300   69.5950  226.0160 C   0  0  0  0  0  0  0  0  0  0  0  0
  139.6170   69.0070  227.2510 C   0  0  0  0  0  0  0  0  0  0  0  0
  140.0880   69.6340  228.4030 C   0  0  0  0  0  0  0  0  0  0  0  0
  140.6820   70.8720  228.3210 C   0  0  0  0  0  0  0  0  0  0  0  0
  140.7880   71.4510  227.0770 C   0  0  0  0  0  0  0  0  0  0  0  0
  140.3220   70.8280  225.9370 C   0  0  0  0  0  0  0  0  0  0  0  0
  140.4590   71.4470  224.7650 N   0  0  0  0  0  0  0  0  0  0  0  0
  139.8590   73.5160  223.2200 H   0  0  0  0  0  0  0  0  0  0  0  0
  140.7017   73.1735  220.3682 H   0  0  0  0  0  0  0  0  0  0  0  0
  139.1426   74.0885  220.8785 H   0  0  0  0  0  0  0  0  0  0  0  0
  140.4313   77.4251  219.1082 H   0  0  0  0  0  0  0  0  0  0  0  0
  141.1645   77.8831  220.6215 H   0  0  0  0  0  0  0  0  0  0  0  0
  142.5126   78.3829  218.2896 H   0  0  0  0  0  0  0  0  0  0  0  0
  143.4715   77.7932  219.6237 H   0  0  0  0  0  0  0  0  0  0  0  0
  142.2707   76.2717  217.2658 H   0  0  0  0  0  0  0  0  0  0  0  0
  143.8909   76.0972  217.9519 H   0  0  0  0  0  0  0  0  0  0  0  0
  141.7491   74.4428  218.5088 H   0  0  0  0  0  0  0  0  0  0  0  0
  144.4867   75.9954  220.3820 H   0  0  0  0  0  0  0  0  0  0  0  0
  146.2990   74.6886  221.3891 H   0  0  0  0  0  0  0  0  0  0  0  0
  146.2571   72.1772  221.2728 H   0  0  0  0  0  0  0  0  0  0  0  0
  144.3390   71.0968  220.1187 H   0  0  0  0  0  0  0  0  0  0  0  0
  139.0789   69.2122  222.7335 H   0  0  0  0  0  0  0  0  0  0  0  0
  138.7961   68.0179  224.8670 H   0  0  0  0  0  0  0  0  0  0  0  0
  139.1435   68.0175  227.3334 H   0  0  0  0  0  0  0  0  0  0  0  0
  139.9846   69.1381  229.3794 H   0  0  0  0  0  0  0  0  0  0  0  0
  141.0596   71.3820  229.2195 H   0  0  0  0  0  0  0  0  0  0  0  0
  141.2588   72.4412  226.9885 H   0  0  0  0  0  0  0  0  0  0  0  0
  1  2  2  0
  2  3  1  0
  3  4  1  0
  4  5  1  0
  5  6  2  0
  5  7  1  0
  7  8  1  0
  8  9  1  0
  9 10  1  0
 10 11  1  0
 11 12  1  0
 12 13  2  0
 13 14  1  0
 14 15  2  0
 15 16  1  0
 16 17  2  0
 17 18  1  0
  2 19  1  0
 19 20  2  0
 20 21  1  0
 21 22  2  0
 22 23  1  0
 23 24  2  0
 24 25  1  0
 25 26  2  0
 26 27  1  0
 27 28  2  0
 11  7  1  0
 17 12  1  0
 28 19  1  0
 27 22  1  0
  3 29  1  0
  4 30  1  0
  4 31  1  0
  8 32  1  0
  8 33  1  0
  9 34  1  0
  9 35  1  0
 10 36  1  0
 10 37  1  0
 11 38  1  6
 13 39  1  0
 14 40  1  0
 15 41  1  0
 16 42  1  0
 20 43  1  0
 21 44  1  0
 23 45  1  0
 24 46  1  0
 25 47  1  0
 26 48  1  0
M  END
>  <smiles>  (70) 
O=C(NCC(=O)N1CCCC1c1ccccc1Cl)c1ccc2ccccc2n1

>  <score_type>  (70) 
oracle

>  <origin>  (70) 
autodockgpu

>  <m_score__min__energy>  (70) 
-8.9000000000000004

>  <m_primary>  (70) 
energy

>  <rmsd>  (70) 
2.069745917973636

>  <m_score__min__rmsd>  (70) 
2.069745917973636

>  <meeko>  (70) 
{"free_energy": -8.4, "intermolecular_energy": -9.89, "internal_energy": -2.1, "cluster_size": 20, "cluster_id": 2, "rank_in_cluster": 9}

>  <energy>  (70) 
-8.5

>  <cluster_rmsd>  (70) 
0.21

>  <cluster>  (70) 
2

$$$$

     RDKit          3D

 48 51  0  0  0  0  0  0  0  0999 V2000
  140.7790   71.3730  221.2760 O   0  0  0  0  0  0  0  0  0  0  0  0
  140.3300   71.9850  222.2830 C   0  0  0  0  0  0  0  0  0  0  0  0
  139.9330   73.3560  222.2210 N   0  0  0  0  0  0  0  0  0  0  0  0
  139.9990   74.1310  221.0310 C   0  0  0  0  0  0  0  0  0  0  0  0
  140.7210   75.3980  221.0280 C   0  0  0  0  0  0  0  0  0  0  0  0
  140.7030   76.0180  222.1700 O   0  0  0  0  0  0  0  0  0  0  0  0
  141.4180   76.0330  219.9600 N   0  0  0  0  0  0  0  0  0  0  0  0
  141.5180   77.4600  219.6470 C   0  0  0  0  0  0  0  0  0  0  0  0
  142.8680   77.5240  218.8900 C   0  0  0  0  0  0  0  0  0  0  0  0
  142.8650   76.2330  218.1250 C   0  0  0  0  0  0  0  0  0  0  0  0
  142.1750   75.2590  218.9970 C   0  0  1  0  0  0  0  0  0  0  0  0
  143.0590   74.2310  219.5800 C   0  0  0  0  0  0  0  0  0  0  0  0
  144.1450   74.6250  220.3420 C   0  0  0  0  0  0  0  0  0  0  0  0
  145.0220   73.7350  220.9250 C   0  0  0  0  0  0  0  0  0  0  0  0
  144.8380   72.3660  220.7590 C   0  0  0  0  0  0  0  0  0  0  0  0
  143.7560   71.9670  220.0000 C   0  0  0  0  0  0  0  0  0  0  0  0
  142.8840   72.8730  219.4210 C   0  0  0  0  0  0  0  0  0  0  0  0
  141.5570   72.2160  218.4870 Cl  0  0  0  0  0  0  0  0  0  0  0  0
  140.2060   71.2790  223.5610 C   0  0  0  0  0  0  0  0  0  0  0  0
  139.6020   70.0410  223.6290 C   0  0  0  0  0  0  0  0  0  0  0  0
  139.4730   69.3590  224.8090 C   0  0  0  0  0  0  0  0  0  0  0  0
  139.9660   69.9310  225.9710 C   0  0  0  0  0  0  0  0  0  0  0  0
  139.8880   69.3300  227.2030 C   0  0  0  0  0  0  0  0  0  0  0  0
  140.3980   69.9410  228.3450 C   0  0  0  0  0  0  0  0  0  0  0  0
  140.9980   71.1760  228.2590 C   0  0  0  0  0  0  0  0  0  0  0  0
  141.0700   71.7680  227.0180 C   0  0  0  0  0  0  0  0  0  0  0  0
  140.5640   71.1610  225.8870 C   0  0  0  0  0  0  0  0  0  0  0  0
  140.6690   71.7910  224.7180 N   0  0  0  0  0  0  0  0  0  0  0  0
  139.5750   73.7950  223.1220 H   0  0  0  0  0  0  0  0  0  0  0  0
  140.4668   73.4965  220.2638 H   0  0  0  0  0  0  0  0  0  0  0  0
  138.9543   74.4336  220.8666 H   0  0  0  0  0  0  0  0  0  0  0  0
  140.6848   77.7895  219.0088 H   0  0  0  0  0  0  0  0  0  0  0  0
  141.4707   78.1143  220.5300 H   0  0  0  0  0  0  0  0  0  0  0  0
  142.9041   78.3893  218.2117 H   0  0  0  0  0  0  0  0  0  0  0  0
  143.7392   77.6432  219.5509 H   0  0  0  0  0  0  0  0  0  0  0  0
  142.3228   76.3502  217.1751 H   0  0  0  0  0  0  0  0  0  0  0  0
  143.8845   75.9052  217.8736 H   0  0  0  0  0  0  0  0  0  0  0  0
  141.4905   74.6335  218.4052 H   0  0  0  0  0  0  0  0  0  0  0  0
  144.3170   75.7014  220.4898 H   0  0  0  0  0  0  0  0  0  0  0  0
  145.8676   74.1076  221.5217 H   0  0  0  0  0  0  0  0  0  0  0  0
  145.5235   71.6347  221.2120 H   0  0  0  0  0  0  0  0  0  0  0  0
  143.5806   70.8915  219.8501 H   0  0  0  0  0  0  0  0  0  0  0  0
  139.2116   69.5873  222.7061 H   0  0  0  0  0  0  0  0  0  0  0  0
  138.9860   68.3730  224.8344 H   0  0  0  0  0  0  0  0  0  0  0  0
  139.4113   68.3425  227.2896 H   0  0  0  0  0  0  0  0  0  0  0  0
  140.3211   69.4351  229.3187 H   0  0  0  0  0  0  0  0  0  0  0  0
  141.4062   71.6735  229.1511 H   0  0  0  0  0  0  0  0  0  0  0  0
  141.5457   72.7555  226.9254 H   0  0  0  0  0  0  0  0  0  0  0  0
  1  2  2  0
  2  3  1  0
  3  4  1  0
  4  5  1  0
  5  6  2  0
  5  7  1  0
  7  8  1  0
  8  9  1  0
  9 10  1  0
 10 11  1  0
 11 12  1  0
 12 13  2  0
 13 14  1  0
 14 15  2  0
 15 16  1  0
 16 17  2  0
 17 18  1  0
  2 19  1  0
 19 20  2  0
 20 21  1  0
 21 22  2  0
 22 23  1  0
 23 24  2  0
 24 25  1  0
 25 26  2  0
 26 27  1  0
 27 28  2  0
 11  7  1  0
 17 12  1  0
 28 19  1  0
 27 22  1  0
  3 29  1  0
  4 30  1  0
  4 31  1  0
  8 32  1  0
  8 33  1  0
  9 34  1  0
  9 35  1  0
 10 36  1  0
 10 37  1  0
 11 38  1  6
 13 39  1  0
 14 40  1  0
 15 41  1  0
 16 42  1  0
 20 43  1  0
 21 44  1  0
 23 45  1  0
 24 46  1  0
 25 47  1  0
 26 48  1  0
M  END
>  <smiles>  (71) 
O=C(NCC(=O)N1CCCC1c1ccccc1Cl)c1ccc2ccccc2n1

>  <score_type>  (71) 
oracle

>  <origin>  (71) 
autodockgpu

>  <m_score__min__energy>  (71) 
-8.9000000000000004

>  <m_primary>  (71) 
energy

>  <rmsd>  (71) 
2.174590602908154

>  <m_score__min__rmsd>  (71) 
2.174590602908154

>  <meeko>  (71) 
{"free_energy": -8.26, "intermolecular_energy": -9.76, "internal_energy": -2.09, "cluster_size": 20, "cluster_id": 2, "rank_in_cluster": 13}

>  <energy>  (71) 
-8.47

>  <cluster_rmsd>  (71) 
0.45

>  <cluster>  (71) 
2

$$$$

     RDKit          3D

 48 51  0  0  0  0  0  0  0  0999 V2000
  139.7840   70.7570  221.2550 O   0  0  0  0  0  0  0  0  0  0  0  0
  140.2520   71.3350  222.2740 C   0  0  0  0  0  0  0  0  0  0  0  0
  140.9570   72.5740  222.1840 N   0  0  0  0  0  0  0  0  0  0  0  0
  141.1760   73.2570  220.9560 C   0  0  0  0  0  0  0  0  0  0  0  0
  141.2120   74.7150  220.9320 C   0  0  0  0  0  0  0  0  0  0  0  0
  140.6450   75.2740  221.9590 O   0  0  0  0  0  0  0  0  0  0  0  0
  141.7670   75.5840  219.9480 N   0  0  0  0  0  0  0  0  0  0  0  0
  141.5200   77.0120  219.7390 C   0  0  0  0  0  0  0  0  0  0  0  0
  142.8370   77.4650  219.0610 C   0  0  0  0  0  0  0  0  0  0  0  0
  143.1820   76.2780  218.2120 C   0  0  0  0  0  0  0  0  0  0  0  0
  142.7260   75.0980  218.9770 C   0  0  1  0  0  0  0  0  0  0  0  0
  143.8160   74.2760  219.5350 C   0  0  0  0  0  0  0  0  0  0  0  0
  144.7040   74.8460  220.4310 C   0  0  0  0  0  0  0  0  0  0  0  0
  145.7510   74.1540  221.0020 C   0  0  0  0  0  0  0  0  0  0  0  0
  145.9550   72.8150  220.6850 C   0  0  0  0  0  0  0  0  0  0  0  0
  145.0730   72.2400  219.7930 C   0  0  0  0  0  0  0  0  0  0  0  0
  144.0270   72.9480  219.2270 C   0  0  0  0  0  0  0  0  0  0  0  0
  142.9900   72.0840  218.1130 Cl  0  0  0  0  0  0  0  0  0  0  0  0
  140.0730   70.7270  223.5940 C   0  0  0  0  0  0  0  0  0  0  0  0
  139.3990   69.5320  223.7370 C   0  0  0  0  0  0  0  0  0  0  0  0
  139.2170   68.9420  224.9590 C   0  0  0  0  0  0  0  0  0  0  0  0
  139.7280   69.5640  226.0860 C   0  0  0  0  0  0  0  0  0  0  0  0
  139.6000   69.0550  227.3550 C   0  0  0  0  0  0  0  0  0  0  0  0
  140.1300   69.7140  228.4610 C   0  0  0  0  0  0  0  0  0  0  0  0
  140.8000   70.9050  228.3000 C   0  0  0  0  0  0  0  0  0  0  0  0
  140.9210   71.4040  227.0230 C   0  0  0  0  0  0  0  0  0  0  0  0
  140.3950   70.7500  225.9290 C   0  0  0  0  0  0  0  0  0  0  0  0
  140.5490   71.2910  224.7210 N   0  0  0  0  0  0  0  0  0  0  0  0
  141.3260   72.9860  223.0940 H   0  0  0  0  0  0  0  0  0  0  0  0
  142.1437   72.9084  220.5662 H   0  0  0  0  0  0  0  0  0  0  0  0
  140.2790   73.0151  220.3671 H   0  0  0  0  0  0  0  0  0  0  0  0
  140.6537   77.1767  219.0814 H   0  0  0  0  0  0  0  0  0  0  0  0
  141.2811   77.5625  220.6609 H   0  0  0  0  0  0  0  0  0  0  0  0
  142.6802   78.3632  218.4457 H   0  0  0  0  0  0  0  0  0  0  0  0
  143.6275   77.7422  219.7739 H   0  0  0  0  0  0  0  0  0  0  0  0
  142.6616   76.3333  217.2445 H   0  0  0  0  0  0  0  0  0  0  0  0
  144.2593   76.2315  217.9947 H   0  0  0  0  0  0  0  0  0  0  0  0
  142.2404   74.3722  218.3081 H   0  0  0  0  0  0  0  0  0  0  0  0
  144.5676   75.9036  220.7009 H   0  0  0  0  0  0  0  0  0  0  0  0
  146.4250   74.6608  221.7083 H   0  0  0  0  0  0  0  0  0  0  0  0
  146.7827   72.2400  221.1258 H   0  0  0  0  0  0  0  0  0  0  0  0
  145.2058   71.1821  219.5223 H   0  0  0  0  0  0  0  0  0  0  0  0
  138.9951   69.0376  222.8412 H   0  0  0  0  0  0  0  0  0  0  0  0
  138.6737   67.9894  225.0443 H   0  0  0  0  0  0  0  0  0  0  0  0
  139.0662   68.1043  227.5011 H   0  0  0  0  0  0  0  0  0  0  0  0
  140.0129   69.2816  229.4657 H   0  0  0  0  0  0  0  0  0  0  0  0
  141.2244   71.4400  229.1624 H   0  0  0  0  0  0  0  0  0  0  0  0
  141.4539   72.3541  226.8704 H   0  0  0  0  0  0  0  0  0  0  0  0
  1  2  2  0
  2  3  1  0
  3  4  1  0
  4  5  1  0
  5  6  2  0
  5  7  1  0
  7  8  1  0
  8  9  1  0
  9 10  1  0
 10 11  1  0
 11 12  1  0
 12 13  2  0
 13 14  1  0
 14 15  2  0
 15 16  1  0
 16 17  2  0
 17 18  1  0
  2 19  1  0
 19 20  2  0
 20 21  1  0
 21 22  2  0
 22 23  1  0
 23 24  2  0
 24 25  1  0
 25 26  2  0
 26 27  1  0
 27 28  2  0
 11  7  1  0
 17 12  1  0
 28 19  1  0
 27 22  1  0
  3 29  1  0
  4 30  1  0
  4 31  1  0
  8 32  1  0
  8 33  1  0
  9 34  1  0
  9 35  1  0
 10 36  1  0
 10 37  1  0
 11 38  1  6
 13 39  1  0
 14 40  1  0
 15 41  1  0
 16 42  1  0
 20 43  1  0
 21 44  1  0
 23 45  1  0
 24 46  1  0
 25 47  1  0
 26 48  1  0
M  END
>  <smiles>  (72) 
O=C(NCC(=O)N1CCCC1c1ccccc1Cl)c1ccc2ccccc2n1

>  <score_type>  (72) 
oracle

>  <origin>  (72) 
autodockgpu

>  <m_score__min__energy>  (72) 
-8.9000000000000004

>  <m_primary>  (72) 
energy

>  <rmsd>  (72) 
2.330104223121857

>  <m_score__min__rmsd>  (72) 
2.330104223121857

>  <meeko>  (72) 
{"free_energy": -8.03, "intermolecular_energy": -9.52, "internal_energy": -1.93, "cluster_size": 20, "cluster_id": 2, "rank_in_cluster": 19}

>  <energy>  (72) 
-8.43

>  <cluster_rmsd>  (72) 
0.48

>  <cluster>  (72) 
2

$$$$

     RDKit          3D

 48 51  0  0  0  0  0  0  0  0999 V2000
  139.5190   70.9400  221.3250 O   0  0  0  0  0  0  0  0  0  0  0  0
  139.6730   71.5480  222.4200 C   0  0  0  0  0  0  0  0  0  0  0  0
  139.8080   72.9680  222.4830 N   0  0  0  0  0  0  0  0  0  0  0  0
  139.7700   73.8050  221.3350 C   0  0  0  0  0  0  0  0  0  0  0  0
  140.7540   74.8700  221.1780 C   0  0  0  0  0  0  0  0  0  0  0  0
  141.2250   75.3230  222.3010 O   0  0  0  0  0  0  0  0  0  0  0  0
  141.2480   75.4680  219.9830 N   0  0  0  0  0  0  0  0  0  0  0  0
  140.9470   76.7880  219.4230 C   0  0  0  0  0  0  0  0  0  0  0  0
  142.2260   77.0820  218.6000 C   0  0  0  0  0  0  0  0  0  0  0  0
  142.5820   75.7240  218.0710 C   0  0  0  0  0  0  0  0  0  0  0  0
  142.1910   74.7710  219.1320 C   0  0  1  0  0  0  0  0  0  0  0  0
  143.3250   74.1470  219.8390 C   0  0  0  0  0  0  0  0  0  0  0  0
  144.4110   74.9260  220.1970 C   0  0  0  0  0  0  0  0  0  0  0  0
  145.5130   74.4290  220.8590 C   0  0  0  0  0  0  0  0  0  0  0  0
  145.5710   73.0810  221.1990 C   0  0  0  0  0  0  0  0  0  0  0  0
  144.4910   72.2990  220.8450 C   0  0  0  0  0  0  0  0  0  0  0  0
  143.3910   72.8130  220.1800 C   0  0  0  0  0  0  0  0  0  0  0  0
  142.0980   71.6980  219.7980 Cl  0  0  0  0  0  0  0  0  0  0  0  0
  139.7140   70.7850  223.6700 C   0  0  0  0  0  0  0  0  0  0  0  0
  139.2280   69.4960  223.7280 C   0  0  0  0  0  0  0  0  0  0  0  0
  139.2540   68.7610  224.8820 C   0  0  0  0  0  0  0  0  0  0  0  0
  139.7870   69.3300  226.0270 C   0  0  0  0  0  0  0  0  0  0  0  0
  139.8610   68.6780  227.2340 C   0  0  0  0  0  0  0  0  0  0  0  0
  140.4060   69.2880  228.3600 C   0  0  0  0  0  0  0  0  0  0  0  0
  140.8870   70.5750  228.2840 C   0  0  0  0  0  0  0  0  0  0  0  0
  140.8070   71.2180  227.0690 C   0  0  0  0  0  0  0  0  0  0  0  0
  140.2670   70.6110  225.9540 C   0  0  0  0  0  0  0  0  0  0  0  0
  140.2220   71.2930  224.8100 N   0  0  0  0  0  0  0  0  0  0  0  0
  139.9450   73.3970  223.4490 H   0  0  0  0  0  0  0  0  0  0  0  0
  139.8706   73.1476  220.4588 H   0  0  0  0  0  0  0  0  0  0  0  0
  138.8219   74.3507  221.4503 H   0  0  0  0  0  0  0  0  0  0  0  0
  140.0552   76.7564  218.7798 H   0  0  0  0  0  0  0  0  0  0  0  0
  140.7194   77.5521  220.1808 H   0  0  0  0  0  0  0  0  0  0  0  0
  142.0201   77.7874  217.7815 H   0  0  0  0  0  0  0  0  0  0  0  0
  143.0296   77.5521  219.1859 H   0  0  0  0  0  0  0  0  0  0  0  0
  142.0281   75.5154  217.1438 H   0  0  0  0  0  0  0  0  0  0  0  0
  143.6524   75.6483  217.8291 H   0  0  0  0  0  0  0  0  0  0  0  0
  141.7089   73.8857  218.6918 H   0  0  0  0  0  0  0  0  0  0  0  0
  144.3940   75.9955  219.9404 H   0  0  0  0  0  0  0  0  0  0  0  0
  146.3467   75.0980  221.1185 H   0  0  0  0  0  0  0  0  0  0  0  0
  146.4388   72.6580  221.7262 H   0  0  0  0  0  0  0  0  0  0  0  0
  144.5044   71.2291  221.1002 H   0  0  0  0  0  0  0  0  0  0  0  0
  138.8061   69.0443  222.8181 H   0  0  0  0  0  0  0  0  0  0  0  0
  138.8580   67.7349  224.9001 H   0  0  0  0  0  0  0  0  0  0  0  0
  139.4803   67.6490  227.3124 H   0  0  0  0  0  0  0  0  0  0  0  0
  140.4524   68.7401  229.3127 H   0  0  0  0  0  0  0  0  0  0  0  0
  141.3205   71.0731  229.1637 H   0  0  0  0  0  0  0  0  0  0  0  0
  141.1854   72.2474  226.9848 H   0  0  0  0  0  0  0  0  0  0  0  0
  1  2  2  0
  2  3  1  0
  3  4  1  0
  4  5  1  0
  5  6  2  0
  5  7  1  0
  7  8  1  0
  8  9  1  0
  9 10  1  0
 10 11  1  0
 11 12  1  0
 12 13  2  0
 13 14  1  0
 14 15  2  0
 15 16  1  0
 16 17  2  0
 17 18  1  0
  2 19  1  0
 19 20  2  0
 20 21  1  0
 21 22  2  0
 22 23  1  0
 23 24  2  0
 24 25  1  0
 25 26  2  0
 26 27  1  0
 27 28  2  0
 11  7  1  0
 17 12  1  0
 28 19  1  0
 27 22  1  0
  3 29  1  0
  4 30  1  0
  4 31  1  0
  8 32  1  0
  8 33  1  0
  9 34  1  0
  9 35  1  0
 10 36  1  0
 10 37  1  0
 11 38  1  6
 13 39  1  0
 14 40  1  0
 15 41  1  0
 16 42  1  0
 20 43  1  0
 21 44  1  0
 23 45  1  0
 24 46  1  0
 25 47  1  0
 26 48  1  0
M  END
>  <smiles>  (73) 
O=C(NCC(=O)N1CCCC1c1ccccc1Cl)c1ccc2ccccc2n1

>  <score_type>  (73) 
oracle

>  <origin>  (73) 
autodockgpu

>  <m_score__min__energy>  (73) 
-8.9000000000000004

>  <m_primary>  (73) 
energy

>  <rmsd>  (73) 
1.8431375084456842

>  <m_score__min__rmsd>  (73) 
1.8431375084456842

>  <meeko>  (73) 
{"free_energy": -8.25, "intermolecular_energy": -9.74, "internal_energy": -2.14, "cluster_size": 20, "cluster_id": 2, "rank_in_cluster": 16}

>  <energy>  (73) 
-8.4

>  <cluster_rmsd>  (73) 
0.33

>  <cluster>  (73) 
2

$$$$

     RDKit          3D

 48 51  0  0  0  0  0  0  0  0999 V2000
  141.4190   71.9400  221.5910 O   0  0  0  0  0  0  0  0  0  0  0  0
  140.6050   72.3620  222.4570 C   0  0  0  0  0  0  0  0  0  0  0  0
  139.9550   73.6280  222.3310 N   0  0  0  0  0  0  0  0  0  0  0  0
  140.1580   74.4990  221.2260 C   0  0  0  0  0  0  0  0  0  0  0  0
  140.1940   75.9420  221.4360 C   0  0  0  0  0  0  0  0  0  0  0  0
  141.3920   76.4440  221.4440 O   0  0  0  0  0  0  0  0  0  0  0  0
  139.1130   76.8490  221.6380 N   0  0  0  0  0  0  0  0  0  0  0  0
  137.7400   76.5630  222.0600 C   0  0  0  0  0  0  0  0  0  0  0  0
  137.3280   77.9000  222.7240 C   0  0  0  0  0  0  0  0  0  0  0  0
  138.0190   78.9110  221.8580 C   0  0  0  0  0  0  0  0  0  0  0  0
  139.2850   78.2730  221.4370 C   0  0  1  0  0  0  0  0  0  0  0  0
  140.4920   78.8490  222.0580 C   0  0  0  0  0  0  0  0  0  0  0  0
  140.7020   78.6810  223.4160 C   0  0  0  0  0  0  0  0  0  0  0  0
  141.8000   79.1840  224.0800 C   0  0  0  0  0  0  0  0  0  0  0  0
  142.7670   79.9010  223.3820 C   0  0  0  0  0  0  0  0  0  0  0  0
  142.5650   80.0720  222.0280 C   0  0  0  0  0  0  0  0  0  0  0  0
  141.4560   79.5610  221.3760 C   0  0  0  0  0  0  0  0  0  0  0  0
  141.3360   79.8580  219.6550 Cl  0  0  0  0  0  0  0  0  0  0  0  0
  140.3110   71.5390  223.6320 C   0  0  0  0  0  0  0  0  0  0  0  0
  139.5910   70.3690  223.5140 C   0  0  0  0  0  0  0  0  0  0  0  0
  139.3010   69.5800  224.5950 C   0  0  0  0  0  0  0  0  0  0  0  0
  139.7460   69.9710  225.8470 C   0  0  0  0  0  0  0  0  0  0  0  0
  139.5090   69.2520  226.9930 C   0  0  0  0  0  0  0  0  0  0  0  0
  139.9760   69.6820  228.2320 C   0  0  0  0  0  0  0  0  0  0  0  0
  140.6930   70.8520  228.3330 C   0  0  0  0  0  0  0  0  0  0  0  0
  140.9230   71.5640  227.1770 C   0  0  0  0  0  0  0  0  0  0  0  0
  140.4600   71.1360  225.9500 C   0  0  0  0  0  0  0  0  0  0  0  0
  140.7200   71.8750  224.8710 N   0  0  0  0  0  0  0  0  0  0  0  0
  139.2910   73.9090  223.1140 H   0  0  0  0  0  0  0  0  0  0  0  0
  141.1205   74.2192  220.7729 H   0  0  0  0  0  0  0  0  0  0  0  0
  139.2535   74.3529  220.6173 H   0  0  0  0  0  0  0  0  0  0  0  0
  137.0969   76.3285  221.1989 H   0  0  0  0  0  0  0  0  0  0  0  0
  137.6504   75.6899  222.7231 H   0  0  0  0  0  0  0  0  0  0  0  0
  136.2367   78.0361  222.7026 H   0  0  0  0  0  0  0  0  0  0  0  0
  137.6030   77.9679  223.7869 H   0  0  0  0  0  0  0  0  0  0  0  0
  137.4004   79.1527  220.9811 H   0  0  0  0  0  0  0  0  0  0  0  0
  138.1969   79.8543  222.3952 H   0  0  0  0  0  0  0  0  0  0  0  0
  139.4817   78.4758  220.3739 H   0  0  0  0  0  0  0  0  0  0  0  0
  139.9548   78.1176  223.9943 H   0  0  0  0  0  0  0  0  0  0  0  0
  141.9119   79.0187  225.1617 H   0  0  0  0  0  0  0  0  0  0  0  0
  143.6529   80.3131  223.8873 H   0  0  0  0  0  0  0  0  0  0  0  0
  143.3109   80.6337  221.4465 H   0  0  0  0  0  0  0  0  0  0  0  0
  139.2381   70.0594  222.5192 H   0  0  0  0  0  0  0  0  0  0  0  0
  138.7244   68.6515  224.4711 H   0  0  0  0  0  0  0  0  0  0  0  0
  138.9369   68.3146  226.9304 H   0  0  0  0  0  0  0  0  0  0  0  0
  139.7712   69.0847  229.1327 H   0  0  0  0  0  0  0  0  0  0  0  0
  141.0695   71.2064  229.3039 H   0  0  0  0  0  0  0  0  0  0  0  0
  141.4934   72.5028  227.2337 H   0  0  0  0  0  0  0  0  0  0  0  0
  1  2  2  0
  2  3  1  0
  3  4  1  0
  4  5  1  0
  5  6  2  0
  5  7  1  0
  7  8  1  0
  8  9  1  0
  9 10  1  0
 10 11  1  0
 11 12  1  0
 12 13  2  0
 13 14  1  0
 14 15  2  0
 15 16  1  0
 16 17  2  0
 17 18  1  0
  2 19  1  0
 19 20  2  0
 20 21  1  0
 21 22  2  0
 22 23  1  0
 23 24  2  0
 24 25  1  0
 25 26  2  0
 26 27  1  0
 27 28  2  0
 11  7  1  0
 17 12  1  0
 28 19  1  0
 27 22  1  0
  3 29  1  0
  4 30  1  0
  4 31  1  0
  8 32  1  0
  8 33  1  0
  9 34  1  0
  9 35  1  0
 10 36  1  0
 10 37  1  0
 11 38  1  6
 13 39  1  0
 14 40  1  0
 15 41  1  0
 16 42  1  0
 20 43  1  0
 21 44  1  0
 23 45  1  0
 24 46  1  0
 25 47  1  0
 26 48  1  0
M  END
>  <smiles>  (74) 
O=C(NCC(=O)N1CCCC1c1ccccc1Cl)c1ccc2ccccc2n1

>  <score_type>  (74) 
oracle

>  <origin>  (74) 
autodockgpu

>  <m_score__min__energy>  (74) 
-8.9000000000000004

>  <m_primary>  (74) 
energy

>  <rmsd>  (74) 
2.9138043585757076

>  <m_score__min__rmsd>  (74) 
2.9138043585757076

>  <meeko>  (74) 
{"free_energy": -8.9, "intermolecular_energy": -10.4, "internal_energy": -1.19, "cluster_size": 14, "cluster_id": 1, "rank_in_cluster": 1}

>  <energy>  (74) 
-8.39

>  <cluster_rmsd>  (74) 
0.48

>  <cluster>  (74) 
2

$$$$

     RDKit          3D

 48 51  0  0  0  0  0  0  0  0999 V2000
  140.0480   71.1740  221.1930 O   0  0  0  0  0  0  0  0  0  0  0  0
  139.9270   71.8620  222.2430 C   0  0  0  0  0  0  0  0  0  0  0  0
  139.7370   73.2770  222.2020 N   0  0  0  0  0  0  0  0  0  0  0  0
  139.6570   74.0160  220.9900 C   0  0  0  0  0  0  0  0  0  0  0  0
  140.6820   73.8450  219.9660 C   0  0  0  0  0  0  0  0  0  0  0  0
  140.2130   73.7840  218.7560 O   0  0  0  0  0  0  0  0  0  0  0  0
  142.0940   73.7300  220.1180 N   0  0  0  0  0  0  0  0  0  0  0  0
  142.9500   72.5620  219.9010 C   0  0  0  0  0  0  0  0  0  0  0  0
  144.3090   73.2240  219.5600 C   0  0  0  0  0  0  0  0  0  0  0  0
  144.3070   74.4290  220.4540 C   0  0  0  0  0  0  0  0  0  0  0  0
  142.8960   74.8640  220.5290 C   0  0  1  0  0  0  0  0  0  0  0  0
  142.6090   76.1220  219.8130 C   0  0  0  0  0  0  0  0  0  0  0  0
  143.1600   76.3310  218.5610 C   0  0  0  0  0  0  0  0  0  0  0  0
  142.9460   77.4740  217.8210 C   0  0  0  0  0  0  0  0  0  0  0  0
  142.1420   78.4900  218.3280 C   0  0  0  0  0  0  0  0  0  0  0  0
  141.5890   78.2890  219.5760 C   0  0  0  0  0  0  0  0  0  0  0  0
  141.8140   77.1350  220.3070 C   0  0  0  0  0  0  0  0  0  0  0  0
  141.0450   77.0220  221.8750 Cl  0  0  0  0  0  0  0  0  0  0  0  0
  139.9810   71.2020  223.5500 C   0  0  0  0  0  0  0  0  0  0  0  0
  139.5570   69.8980  223.7010 C   0  0  0  0  0  0  0  0  0  0  0  0
  139.5970   69.2570  224.9100 C   0  0  0  0  0  0  0  0  0  0  0  0
  140.0770   69.9400  226.0150 C   0  0  0  0  0  0  0  0  0  0  0  0
  140.1580   69.3880  227.2700 C   0  0  0  0  0  0  0  0  0  0  0  0
  140.6490   70.1120  228.3540 C   0  0  0  0  0  0  0  0  0  0  0  0
  141.0670   71.4110  228.1850 C   0  0  0  0  0  0  0  0  0  0  0  0
  140.9800   71.9530  226.9220 C   0  0  0  0  0  0  0  0  0  0  0  0
  140.4940   71.2350  225.8500 C   0  0  0  0  0  0  0  0  0  0  0  0
  140.4390   71.8220  224.6550 N   0  0  0  0  0  0  0  0  0  0  0  0
  139.6550   73.7800  223.1370 H   0  0  0  0  0  0  0  0  0  0  0  0
  138.6948   73.7585  220.5232 H   0  0  0  0  0  0  0  0  0  0  0  0
  139.7955   75.0570  221.3172 H   0  0  0  0  0  0  0  0  0  0  0  0
  143.0219   71.9441  220.8082 H   0  0  0  0  0  0  0  0  0  0  0  0
  142.5805   71.8772  219.1235 H   0  0  0  0  0  0  0  0  0  0  0  0
  145.1492   72.5541  219.7952 H   0  0  0  0  0  0  0  0  0  0  0  0
  144.4276   73.4654  218.4934 H   0  0  0  0  0  0  0  0  0  0  0  0
  144.6817   74.1660  221.4542 H   0  0  0  0  0  0  0  0  0  0  0  0
  144.9591   75.2255  220.0662 H   0  0  0  0  0  0  0  0  0  0  0  0
  142.6366   75.1465  221.5600 H   0  0  0  0  0  0  0  0  0  0  0  0
  143.8012   75.5453  218.1348 H   0  0  0  0  0  0  0  0  0  0  0  0
  143.4107   77.5829  216.8299 H   0  0  0  0  0  0  0  0  0  0  0  0
  141.9554   79.4127  217.7590 H   0  0  0  0  0  0  0  0  0  0  0  0
  140.9472   79.0727  220.0049 H   0  0  0  0  0  0  0  0  0  0  0  0
  139.1750   69.3566  222.8230 H   0  0  0  0  0  0  0  0  0  0  0  0
  139.2534   68.2161  225.0023 H   0  0  0  0  0  0  0  0  0  0  0  0
  139.8275   68.3500  227.4227 H   0  0  0  0  0  0  0  0  0  0  0  0
  140.7025   69.6434  229.3477 H   0  0  0  0  0  0  0  0  0  0  0  0
  141.4576   71.9973  229.0298 H   0  0  0  0  0  0  0  0  0  0  0  0
  141.3084   72.9908  226.7635 H   0  0  0  0  0  0  0  0  0  0  0  0
  1  2  2  0
  2  3  1  0
  3  4  1  0
  4  5  1  0
  5  6  2  0
  5  7  1  0
  7  8  1  0
  8  9  1  0
  9 10  1  0
 10 11  1  0
 11 12  1  0
 12 13  2  0
 13 14  1  0
 14 15  2  0
 15 16  1  0
 16 17  2  0
 17 18  1  0
  2 19  1  0
 19 20  2  0
 20 21  1  0
 21 22  2  0
 22 23  1  0
 23 24  2  0
 24 25  1  0
 25 26  2  0
 26 27  1  0
 27 28  2  0
 11  7  1  0
 17 12  1  0
 28 19  1  0
 27 22  1  0
  3 29  1  0
  4 30  1  0
  4 31  1  0
  8 32  1  0
  8 33  1  0
  9 34  1  0
  9 35  1  0
 10 36  1  0
 10 37  1  0
 11 38  1  1
 13 39  1  0
 14 40  1  0
 15 41  1  0
 16 42  1  0
 20 43  1  0
 21 44  1  0
 23 45  1  0
 24 46  1  0
 25 47  1  0
 26 48  1  0
M  END
>  <smiles>  (75) 
O=C(NCC(=O)N1CCCC1c1ccccc1Cl)c1ccc2ccccc2n1

>  <score_type>  (75) 
oracle

>  <origin>  (75) 
autodockgpu

>  <m_score__min__energy>  (75) 
-8.9000000000000004

>  <m_primary>  (75) 
energy

>  <rmsd>  (75) 
2.9294706217203097

>  <m_score__min__rmsd>  (75) 
2.9294706217203097

>  <meeko>  (75) 
{"free_energy": -8.02, "intermolecular_energy": -9.51, "internal_energy": -1.89, "cluster_size": 9, "cluster_id": 3, "rank_in_cluster": 5}

>  <energy>  (75) 
-8.33

>  <cluster_rmsd>  (75) 
0.49

>  <cluster>  (75) 
2

$$$$

     RDKit          3D

 48 51  0  0  0  0  0  0  0  0999 V2000
  140.9970   71.8950  221.2600 O   0  0  0  0  0  0  0  0  0  0  0  0
  140.4390   72.3780  222.2820 C   0  0  0  0  0  0  0  0  0  0  0  0
  140.0060   73.7380  222.3360 N   0  0  0  0  0  0  0  0  0  0  0  0
  140.1550   74.6450  221.2520 C   0  0  0  0  0  0  0  0  0  0  0  0
  140.8150   75.9280  221.4630 C   0  0  0  0  0  0  0  0  0  0  0  0
  141.0750   76.1890  222.7090 O   0  0  0  0  0  0  0  0  0  0  0  0
  141.1950   76.9120  220.5040 N   0  0  0  0  0  0  0  0  0  0  0  0
  141.2140   76.8130  219.0430 C   0  0  0  0  0  0  0  0  0  0  0  0
  141.0350   78.2930  218.6230 C   0  0  0  0  0  0  0  0  0  0  0  0
  141.8120   79.0190  219.6810 C   0  0  0  0  0  0  0  0  0  0  0  0
  141.6280   78.2310  220.9180 C   0  0  1  0  0  0  0  0  0  0  0  0
  140.7730   78.8790  221.9310 C   0  0  0  0  0  0  0  0  0  0  0  0
  139.4060   78.6640  221.9020 C   0  0  0  0  0  0  0  0  0  0  0  0
  138.5320   79.2260  222.8070 C   0  0  0  0  0  0  0  0  0  0  0  0
  139.0130   80.0580  223.8140 C   0  0  0  0  0  0  0  0  0  0  0  0
  140.3750   80.2760  223.8490 C   0  0  0  0  0  0  0  0  0  0  0  0
  141.2400   79.7040  222.9320 C   0  0  0  0  0  0  0  0  0  0  0  0
  142.9420   80.0730  223.1040 Cl  0  0  0  0  0  0  0  0  0  0  0  0
  140.2220   71.5280  223.4560 C   0  0  0  0  0  0  0  0  0  0  0  0
  139.5550   70.3260  223.3450 C   0  0  0  0  0  0  0  0  0  0  0  0
  139.3390   69.5130  224.4250 C   0  0  0  0  0  0  0  0  0  0  0  0
  139.8050   69.9100  225.6670 C   0  0  0  0  0  0  0  0  0  0  0  0
  139.6410   69.1680  226.8110 C   0  0  0  0  0  0  0  0  0  0  0  0
  140.1270   69.6060  228.0400 C   0  0  0  0  0  0  0  0  0  0  0  0
  140.7910   70.8080  228.1320 C   0  0  0  0  0  0  0  0  0  0  0  0
  140.9490   71.5420  226.9790 C   0  0  0  0  0  0  0  0  0  0  0  0
  140.4660   71.1070  225.7620 C   0  0  0  0  0  0  0  0  0  0  0  0
  140.6550   71.8690  224.6850 N   0  0  0  0  0  0  0  0  0  0  0  0
  139.5530   74.0640  223.2430 H   0  0  0  0  0  0  0  0  0  0  0  0
  140.7255   74.1183  220.4728 H   0  0  0  0  0  0  0  0  0  0  0  0
  139.1191   74.9285  221.0140 H   0  0  0  0  0  0  0  0  0  0  0  0
  142.1702   76.4069  218.6815 H   0  0  0  0  0  0  0  0  0  0  0  0
  140.4490   76.1377  218.6322 H   0  0  0  0  0  0  0  0  0  0  0  0
  141.4545   78.4773  217.6230 H   0  0  0  0  0  0  0  0  0  0  0  0
  139.9834   78.6080  218.5532 H   0  0  0  0  0  0  0  0  0  0  0  0
  142.8772   79.0668  219.4107 H   0  0  0  0  0  0  0  0  0  0  0  0
  141.4649   80.0557  219.8026 H   0  0  0  0  0  0  0  0  0  0  0  0
  142.5778   78.1532  221.4674 H   0  0  0  0  0  0  0  0  0  0  0  0
  138.9966   78.0115  221.1168 H   0  0  0  0  0  0  0  0  0  0  0  0
  137.4545   79.0172  222.7337 H   0  0  0  0  0  0  0  0  0  0  0  0
  138.3377   80.5208  224.5487 H   0  0  0  0  0  0  0  0  0  0  0  0
  140.7881   80.9273  224.6333 H   0  0  0  0  0  0  0  0  0  0  0  0
  139.1851   70.0108  222.3582 H   0  0  0  0  0  0  0  0  0  0  0  0
  138.8036   68.5592  224.3080 H   0  0  0  0  0  0  0  0  0  0  0  0
  139.1131   68.2046  226.7549 H   0  0  0  0  0  0  0  0  0  0  0  0
  139.9799   68.9900  228.9394 H   0  0  0  0  0  0  0  0  0  0  0  0
  141.1820   71.1695  229.0945 H   0  0  0  0  0  0  0  0  0  0  0  0
  141.4769   72.5057  227.0291 H   0  0  0  0  0  0  0  0  0  0  0  0
  1  2  2  0
  2  3  1  0
  3  4  1  0
  4  5  1  0
  5  6  2  0
  5  7  1  0
  7  8  1  0
  8  9  1  0
  9 10  1  0
 10 11  1  0
 11 12  1  0
 12 13  2  0
 13 14  1  0
 14 15  2  0
 15 16  1  0
 16 17  2  0
 17 18  1  0
  2 19  1  0
 19 20  2  0
 20 21  1  0
 21 22  2  0
 22 23  1  0
 23 24  2  0
 24 25  1  0
 25 26  2  0
 26 27  1  0
 27 28  2  0
 11  7  1  0
 17 12  1  0
 28 19  1  0
 27 22  1  0
  3 29  1  0
  4 30  1  0
  4 31  1  0
  8 32  1  0
  8 33  1  0
  9 34  1  0
  9 35  1  0
 10 36  1  0
 10 37  1  0
 11 38  1  1
 13 39  1  0
 14 40  1  0
 15 41  1  0
 16 42  1  0
 20 43  1  0
 21 44  1  0
 23 45  1  0
 24 46  1  0
 25 47  1  0
 26 48  1  0
M  END
>  <smiles>  (76) 
O=C(NCC(=O)N1CCCC1c1ccccc1Cl)c1ccc2ccccc2n1

>  <score_type>  (76) 
oracle

>  <origin>  (76) 
autodockgpu

>  <m_score__min__energy>  (76) 
-8.9000000000000004

>  <m_primary>  (76) 
energy

>  <rmsd>  (76) 
1.9359623375784714

>  <m_score__min__rmsd>  (76) 
1.9359623375784714

>  <meeko>  (76) 
{"free_energy": -8.79, "intermolecular_energy": -10.29, "internal_energy": -1.44, "cluster_size": 14, "cluster_id": 1, "rank_in_cluster": 4}

>  <energy>  (76) 
-8.29

>  <cluster_rmsd>  (76) 
0.61

>  <cluster>  (76) 
2

$$$$

     RDKit          3D

 48 51  0  0  0  0  0  0  0  0999 V2000
  140.6720   71.1050  221.3170 O   0  0  0  0  0  0  0  0  0  0  0  0
  140.2790   71.7550  222.3240 C   0  0  0  0  0  0  0  0  0  0  0  0
  140.0090   73.1560  222.2610 N   0  0  0  0  0  0  0  0  0  0  0  0
  140.1450   73.9220  221.0710 C   0  0  0  0  0  0  0  0  0  0  0  0
  140.8960   75.1720  221.0940 C   0  0  0  0  0  0  0  0  0  0  0  0
  141.0250   75.6890  222.2790 O   0  0  0  0  0  0  0  0  0  0  0  0
  141.4850   75.8860  220.0100 N   0  0  0  0  0  0  0  0  0  0  0  0
  141.3760   77.3090  219.6800 C   0  0  0  0  0  0  0  0  0  0  0  0
  142.6950   77.5560  218.9070 C   0  0  0  0  0  0  0  0  0  0  0  0
  142.8710   76.2690  218.1570 C   0  0  0  0  0  0  0  0  0  0  0  0
  142.3360   75.2160  219.0480 C   0  0  1  0  0  0  0  0  0  0  0  0
  143.3640   74.3340  219.6330 C   0  0  0  0  0  0  0  0  0  0  0  0
  144.4480   74.8960  220.2840 C   0  0  0  0  0  0  0  0  0  0  0  0
  145.4540   74.1500  220.8600 C   0  0  0  0  0  0  0  0  0  0  0  0
  145.4110   72.7610  220.8020 C   0  0  0  0  0  0  0  0  0  0  0  0
  144.3330   72.1940  220.1540 C   0  0  0  0  0  0  0  0  0  0  0  0
  143.3300   72.9570  219.5800 C   0  0  0  0  0  0  0  0  0  0  0  0
  142.0240   72.0960  218.7940 Cl  0  0  0  0  0  0  0  0  0  0  0  0
  140.0920   71.0630  223.6010 C   0  0  0  0  0  0  0  0  0  0  0  0
  139.4820   69.8270  223.6530 C   0  0  0  0  0  0  0  0  0  0  0  0
  139.2940   69.1590  224.8330 C   0  0  0  0  0  0  0  0  0  0  0  0
  139.7300   69.7420  226.0110 C   0  0  0  0  0  0  0  0  0  0  0  0
  139.5900   69.1550  227.2440 C   0  0  0  0  0  0  0  0  0  0  0  0
  140.0450   69.7780  228.4040 C   0  0  0  0  0  0  0  0  0  0  0  0
  140.6520   71.0100  228.3330 C   0  0  0  0  0  0  0  0  0  0  0  0
  140.7860   71.5880  227.0910 C   0  0  0  0  0  0  0  0  0  0  0  0
  140.3350   70.9700  225.9430 C   0  0  0  0  0  0  0  0  0  0  0  0
  140.4980   71.5870  224.7740 N   0  0  0  0  0  0  0  0  0  0  0  0
  139.6920   73.6260  223.1620 H   0  0  0  0  0  0  0  0  0  0  0  0
  140.6310   73.2724  220.3282 H   0  0  0  0  0  0  0  0  0  0  0  0
  139.1159   74.2474  220.8589 H   0  0  0  0  0  0  0  0  0  0  0  0
  140.4980   77.5076  219.0479 H   0  0  0  0  0  0  0  0  0  0  0  0
  141.2440   77.9609  220.5561 H   0  0  0  0  0  0  0  0  0  0  0  0
  142.5997   78.4086  218.2185 H   0  0  0  0  0  0  0  0  0  0  0  0
  143.5462   77.8074  219.5568 H   0  0  0  0  0  0  0  0  0  0  0  0
  142.3090   76.2949  217.2118 H   0  0  0  0  0  0  0  0  0  0  0  0
  143.9248   76.0882  217.8984 H   0  0  0  0  0  0  0  0  0  0  0  0
  141.7434   74.4906  218.4713 H   0  0  0  0  0  0  0  0  0  0  0  0
  144.5101   75.9926  220.3449 H   0  0  0  0  0  0  0  0  0  0  0  0
  146.2911   74.6535  221.3657 H   0  0  0  0  0  0  0  0  0  0  0  0
  146.2010   72.1423  221.2526 H   0  0  0  0  0  0  0  0  0  0  0  0
  144.2680   71.0977  220.0911 H   0  0  0  0  0  0  0  0  0  0  0  0
  139.1359   69.3637  222.7173 H   0  0  0  0  0  0  0  0  0  0  0  0
  138.8041   68.1742  224.8453 H   0  0  0  0  0  0  0  0  0  0  0  0
  139.1071   68.1694  227.3178 H   0  0  0  0  0  0  0  0  0  0  0  0
  139.9185   69.2836  229.3785 H   0  0  0  0  0  0  0  0  0  0  0  0
  141.0181   71.5164  229.2383 H   0  0  0  0  0  0  0  0  0  0  0  0
  141.2678   72.5736  227.0113 H   0  0  0  0  0  0  0  0  0  0  0  0
  1  2  2  0
  2  3  1  0
  3  4  1  0
  4  5  1  0
  5  6  2  0
  5  7  1  0
  7  8  1  0
  8  9  1  0
  9 10  1  0
 10 11  1  0
 11 12  1  0
 12 13  2  0
 13 14  1  0
 14 15  2  0
 15 16  1  0
 16 17  2  0
 17 18  1  0
  2 19  1  0
 19 20  2  0
 20 21  1  0
 21 22  2  0
 22 23  1  0
 23 24  2  0
 24 25  1  0
 25 26  2  0
 26 27  1  0
 27 28  2  0
 11  7  1  0
 17 12  1  0
 28 19  1  0
 27 22  1  0
  3 29  1  0
  4 30  1  0
  4 31  1  0
  8 32  1  0
  8 33  1  0
  9 34  1  0
  9 35  1  0
 10 36  1  0
 10 37  1  0
 11 38  1  6
 13 39  1  0
 14 40  1  0
 15 41  1  0
 16 42  1  0
 20 43  1  0
 21 44  1  0
 23 45  1  0
 24 46  1  0
 25 47  1  0
 26 48  1  0
M  END
>  <smiles>  (77) 
O=C(NCC(=O)N1CCCC1c1ccccc1Cl)c1ccc2ccccc2n1

>  <score_type>  (77) 
oracle

>  <origin>  (77) 
autodockgpu

>  <m_score__min__energy>  (77) 
-8.9000000000000004

>  <m_primary>  (77) 
energy

>  <rmsd>  (77) 
2.108755654509675

>  <m_score__min__rmsd>  (77) 
2.108755654509675

>  <meeko>  (77) 
{"free_energy": -8.5, "intermolecular_energy": -9.99, "internal_energy": -2.02, "cluster_size": 20, "cluster_id": 2, "rank_in_cluster": 6}

>  <energy>  (77) 
-8.26

>  <cluster_rmsd>  (77) 
0.27

>  <cluster>  (77) 
2

$$$$

     RDKit          3D

 48 51  0  0  0  0  0  0  0  0999 V2000
  141.5370   72.2110  221.8200 O   0  0  0  0  0  0  0  0  0  0  0  0
  140.4790   72.3940  222.4830 C   0  0  0  0  0  0  0  0  0  0  0  0
  139.5260   73.3960  222.1250 N   0  0  0  0  0  0  0  0  0  0  0  0
  139.6820   74.2510  221.0000 C   0  0  0  0  0  0  0  0  0  0  0  0
  140.8660   75.0940  220.8870 C   0  0  0  0  0  0  0  0  0  0  0  0
  141.4730   75.3070  222.0150 O   0  0  0  0  0  0  0  0  0  0  0  0
  141.4260   75.7060  219.7270 N   0  0  0  0  0  0  0  0  0  0  0  0
  141.2520   77.0740  219.2360 C   0  0  0  0  0  0  0  0  0  0  0  0
  142.5620   77.2930  218.4380 C   0  0  0  0  0  0  0  0  0  0  0  0
  142.8000   75.9380  217.8410 C   0  0  0  0  0  0  0  0  0  0  0  0
  142.3110   74.9710  218.8480 C   0  0  1  0  0  0  0  0  0  0  0  0
  143.3770   74.2110  219.5290 C   0  0  0  0  0  0  0  0  0  0  0  0
  144.4010   74.8960  220.1590 C   0  0  0  0  0  0  0  0  0  0  0  0
  145.4360   74.2690  220.8200 C   0  0  0  0  0  0  0  0  0  0  0  0
  145.4860   72.8800  220.8750 C   0  0  0  0  0  0  0  0  0  0  0  0
  144.4680   72.1910  220.2480 C   0  0  0  0  0  0  0  0  0  0  0  0
  143.4350   72.8350  219.5880 C   0  0  0  0  0  0  0  0  0  0  0  0
  142.2150   71.8260  218.8410 Cl  0  0  0  0  0  0  0  0  0  0  0  0
  140.2100   71.5600  223.6560 C   0  0  0  0  0  0  0  0  0  0  0  0
  139.4510   70.4130  223.5490 C   0  0  0  0  0  0  0  0  0  0  0  0
  139.1840   69.6150  224.6290 C   0  0  0  0  0  0  0  0  0  0  0  0
  139.6920   69.9710  225.8670 C   0  0  0  0  0  0  0  0  0  0  0  0
  139.4830   69.2390  227.0110 C   0  0  0  0  0  0  0  0  0  0  0  0
  140.0150   69.6340  228.2360 C   0  0  0  0  0  0  0  0  0  0  0  0
  140.7700   70.7810  228.3240 C   0  0  0  0  0  0  0  0  0  0  0  0
  140.9720   71.5050  227.1710 C   0  0  0  0  0  0  0  0  0  0  0  0
  140.4450   71.1120  225.9580 C   0  0  0  0  0  0  0  0  0  0  0  0
  140.6810   71.8620  224.8820 N   0  0  0  0  0  0  0  0  0  0  0  0
  138.6670   73.4870  222.7480 H   0  0  0  0  0  0  0  0  0  0  0  0
  139.6624   73.6087  220.1072 H   0  0  0  0  0  0  0  0  0  0  0  0
  138.8636   74.9767  221.1169 H   0  0  0  0  0  0  0  0  0  0  0  0
  140.3684   77.1570  218.5861 H   0  0  0  0  0  0  0  0  0  0  0  0
  141.0857   77.8152  220.0316 H   0  0  0  0  0  0  0  0  0  0  0  0
  142.4300   78.0556  217.6563 H   0  0  0  0  0  0  0  0  0  0  0  0
  143.3979   77.6573  219.0532 H   0  0  0  0  0  0  0  0  0  0  0  0
  142.2409   75.8289  216.9000 H   0  0  0  0  0  0  0  0  0  0  0  0
  143.8620   75.7776  217.6032 H   0  0  0  0  0  0  0  0  0  0  0  0
  141.7549   74.1572  218.3597 H   0  0  0  0  0  0  0  0  0  0  0  0
  144.3888   75.9956  220.1311 H   0  0  0  0  0  0  0  0  0  0  0  0
  146.2221   74.8672  221.3038 H   0  0  0  0  0  0  0  0  0  0  0  0
  146.3005   72.3544  221.3950 H   0  0  0  0  0  0  0  0  0  0  0  0
  144.4774   71.0913  220.2734 H   0  0  0  0  0  0  0  0  0  0  0  0
  139.0477   70.1308  222.5653 H   0  0  0  0  0  0  0  0  0  0  0  0
  138.5757   68.7056  224.5151 H   0  0  0  0  0  0  0  0  0  0  0  0
  138.8815   68.3196  226.9580 H   0  0  0  0  0  0  0  0  0  0  0  0
  139.8312   69.0277  229.1352 H   0  0  0  0  0  0  0  0  0  0  0  0
  141.1976   71.1082  229.2832 H   0  0  0  0  0  0  0  0  0  0  0  0
  141.5723   72.4256  227.2181 H   0  0  0  0  0  0  0  0  0  0  0  0
  1  2  2  0
  2  3  1  0
  3  4  1  0
  4  5  1  0
  5  6  2  0
  5  7  1  0
  7  8  1  0
  8  9  1  0
  9 10  1  0
 10 11  1  0
 11 12  1  0
 12 13  2  0
 13 14  1  0
 14 15  2  0
 15 16  1  0
 16 17  2  0
 17 18  1  0
  2 19  1  0
 19 20  2  0
 20 21  1  0
 21 22  2  0
 22 23  1  0
 23 24  2  0
 24 25  1  0
 25 26  2  0
 26 27  1  0
 27 28  2  0
 11  7  1  0
 17 12  1  0
 28 19  1  0
 27 22  1  0
  3 29  1  0
  4 30  1  0
  4 31  1  0
  8 32  1  0
  8 33  1  0
  9 34  1  0
  9 35  1  0
 10 36  1  0
 10 37  1  0
 11 38  1  6
 13 39  1  0
 14 40  1  0
 15 41  1  0
 16 42  1  0
 20 43  1  0
 21 44  1  0
 23 45  1  0
 24 46  1  0
 25 47  1  0
 26 48  1  0
M  END
>  <smiles>  (78) 
O=C(NCC(=O)N1CCCC1c1ccccc1Cl)c1ccc2ccccc2n1

>  <score_type>  (78) 
oracle

>  <origin>  (78) 
autodockgpu

>  <m_score__min__energy>  (78) 
-8.9000000000000004

>  <m_primary>  (78) 
energy

>  <rmsd>  (78) 
2.100749283650633

>  <m_score__min__rmsd>  (78) 
2.100749283650633

>  <meeko>  (78) 
{"free_energy": -8.47, "intermolecular_energy": -9.96, "internal_energy": -1.88, "cluster_size": 20, "cluster_id": 2, "rank_in_cluster": 7}

>  <energy>  (78) 
-8.26

>  <cluster_rmsd>  (78) 
0.67

>  <cluster>  (78) 
2

$$$$

     RDKit          3D

 48 51  0  0  0  0  0  0  0  0999 V2000
  139.8150   71.3790  221.2820 O   0  0  0  0  0  0  0  0  0  0  0  0
  139.7600   71.9700  222.3950 C   0  0  0  0  0  0  0  0  0  0  0  0
  139.6020   73.3860  222.4930 N   0  0  0  0  0  0  0  0  0  0  0  0
  139.4830   74.2350  221.3590 C   0  0  0  0  0  0  0  0  0  0  0  0
  139.5230   75.6830  221.5270 C   0  0  0  0  0  0  0  0  0  0  0  0
  139.9200   76.0670  222.7030 O   0  0  0  0  0  0  0  0  0  0  0  0
  139.1820   76.7060  220.5950 N   0  0  0  0  0  0  0  0  0  0  0  0
  137.9780   76.8350  219.7710 C   0  0  0  0  0  0  0  0  0  0  0  0
  137.9030   78.3680  219.5590 C   0  0  0  0  0  0  0  0  0  0  0  0
  139.3510   78.7450  219.4480 C   0  0  0  0  0  0  0  0  0  0  0  0
  140.0690   77.8270  220.3580 C   0  0  1  0  0  0  0  0  0  0  0  0
  140.6020   78.4690  221.5750 C   0  0  0  0  0  0  0  0  0  0  0  0
  141.9600   78.7120  221.6740 C   0  0  0  0  0  0  0  0  0  0  0  0
  142.5440   79.3070  222.7720 C   0  0  0  0  0  0  0  0  0  0  0  0
  141.7590   79.6950  223.8530 C   0  0  0  0  0  0  0  0  0  0  0  0
  140.4030   79.4560  223.7600 C   0  0  0  0  0  0  0  0  0  0  0  0
  139.8310   78.8570  222.6510 C   0  0  0  0  0  0  0  0  0  0  0  0
  138.0970   78.6200  222.6770 Cl  0  0  0  0  0  0  0  0  0  0  0  0
  139.8590   71.1910  223.6320 C   0  0  0  0  0  0  0  0  0  0  0  0
  139.4750   69.8670  223.6660 C   0  0  0  0  0  0  0  0  0  0  0  0
  139.5570   69.1160  224.8080 C   0  0  0  0  0  0  0  0  0  0  0  0
  140.0410   69.7050  225.9640 C   0  0  0  0  0  0  0  0  0  0  0  0
  140.1630   69.0400  227.1590 C   0  0  0  0  0  0  0  0  0  0  0  0
  140.6560   69.6720  228.2980 C   0  0  0  0  0  0  0  0  0  0  0  0
  141.0340   70.9930  228.2460 C   0  0  0  0  0  0  0  0  0  0  0  0
  140.9070   71.6490  227.0420 C   0  0  0  0  0  0  0  0  0  0  0  0
  140.4180   71.0210  225.9150 C   0  0  0  0  0  0  0  0  0  0  0  0
  140.3220   71.7170  224.7820 N   0  0  0  0  0  0  0  0  0  0  0  0
  139.5750   73.8020  223.4730 H   0  0  0  0  0  0  0  0  0  0  0  0
  140.3046   73.9713  220.6768 H   0  0  0  0  0  0  0  0  0  0  0  0
  138.4570   74.0485  221.0090 H   0  0  0  0  0  0  0  0  0  0  0  0
  138.0882   76.3031  218.8145 H   0  0  0  0  0  0  0  0  0  0  0  0
  137.0758   76.4036  220.2292 H   0  0  0  0  0  0  0  0  0  0  0  0
  137.3546   78.6168  218.6385 H   0  0  0  0  0  0  0  0  0  0  0  0
  137.3693   78.8986  220.3612 H   0  0  0  0  0  0  0  0  0  0  0  0
  139.7038   78.6154  218.4142 H   0  0  0  0  0  0  0  0  0  0  0  0
  139.5200   79.7988  219.7145 H   0  0  0  0  0  0  0  0  0  0  0  0
  140.9976   77.4711  219.8879 H   0  0  0  0  0  0  0  0  0  0  0  0
  142.6064   78.4157  220.8347 H   0  0  0  0  0  0  0  0  0  0  0  0
  143.6309   79.4750  222.7933 H   0  0  0  0  0  0  0  0  0  0  0  0
  142.1992   80.1708  224.7417 H   0  0  0  0  0  0  0  0  0  0  0  0
  139.7536   79.7521  224.5970 H   0  0  0  0  0  0  0  0  0  0  0  0
  139.0909   69.3997  222.7472 H   0  0  0  0  0  0  0  0  0  0  0  0
  139.2434   68.0616  224.8071 H   0  0  0  0  0  0  0  0  0  0  0  0
  139.8643   67.9830  227.2182 H   0  0  0  0  0  0  0  0  0  0  0  0
  140.7432   69.1130  229.2414 H   0  0  0  0  0  0  0  0  0  0  0  0
  141.4246   71.5082  229.1359 H   0  0  0  0  0  0  0  0  0  0  0  0
  141.2045   72.7060  226.9767 H   0  0  0  0  0  0  0  0  0  0  0  0
  1  2  2  0
  2  3  1  0
  3  4  1  0
  4  5  1  0
  5  6  2  0
  5  7  1  0
  7  8  1  0
  8  9  1  0
  9 10  1  0
 10 11  1  0
 11 12  1  0
 12 13  2  0
 13 14  1  0
 14 15  2  0
 15 16  1  0
 16 17  2  0
 17 18  1  0
  2 19  1  0
 19 20  2  0
 20 21  1  0
 21 22  2  0
 22 23  1  0
 23 24  2  0
 24 25  1  0
 25 26  2  0
 26 27  1  0
 27 28  2  0
 11  7  1  0
 17 12  1  0
 28 19  1  0
 27 22  1  0
  3 29  1  0
  4 30  1  0
  4 31  1  0
  8 32  1  0
  8 33  1  0
  9 34  1  0
  9 35  1  0
 10 36  1  0
 10 37  1  0
 11 38  1  6
 13 39  1  0
 14 40  1  0
 15 41  1  0
 16 42  1  0
 20 43  1  0
 21 44  1  0
 23 45  1  0
 24 46  1  0
 25 47  1  0
 26 48  1  0
M  END
>  <smiles>  (79) 
O=C(NCC(=O)N1CCCC1c1ccccc1Cl)c1ccc2ccccc2n1

>  <score_type>  (79) 
oracle

>  <origin>  (79) 
autodockgpu

>  <m_score__min__energy>  (79) 
-8.9000000000000004

>  <m_primary>  (79) 
energy

>  <rmsd>  (79) 
1.727301078156092

>  <m_score__min__rmsd>  (79) 
1.727301078156092

>  <meeko>  (79) 
{"free_energy": -8.21, "intermolecular_energy": -9.7, "internal_energy": -1.51, "cluster_size": 14, "cluster_id": 1, "rank_in_cluster": 12}

>  <energy>  (79) 
-8.26

>  <cluster_rmsd>  (79) 
0.31

>  <cluster>  (79) 
2

$$$$

     RDKit          3D

 48 51  0  0  0  0  0  0  0  0999 V2000
  140.1970   71.2760  221.2060 O   0  0  0  0  0  0  0  0  0  0  0  0
  139.9930   71.9450  222.2560 C   0  0  0  0  0  0  0  0  0  0  0  0
  139.7450   73.3510  222.2200 N   0  0  0  0  0  0  0  0  0  0  0  0
  139.6960   74.1020  221.0140 C   0  0  0  0  0  0  0  0  0  0  0  0
  140.8040   74.0300  220.0680 C   0  0  0  0  0  0  0  0  0  0  0  0
  140.4540   74.2160  218.8310 O   0  0  0  0  0  0  0  0  0  0  0  0
  142.1840   73.7800  220.3170 N   0  0  0  0  0  0  0  0  0  0  0  0
  142.8610   72.5010  220.5410 C   0  0  0  0  0  0  0  0  0  0  0  0
  144.3010   72.8170  220.0670 C   0  0  0  0  0  0  0  0  0  0  0  0
  144.4760   74.2390  220.5100 C   0  0  0  0  0  0  0  0  0  0  0  0
  143.1430   74.8650  220.3680 C   0  0  1  0  0  0  0  0  0  0  0  0
  143.0420   75.8380  219.2630 C   0  0  0  0  0  0  0  0  0  0  0  0
  143.6590   75.5590  218.0560 C   0  0  0  0  0  0  0  0  0  0  0  0
  143.6170   76.4090  216.9720 C   0  0  0  0  0  0  0  0  0  0  0  0
  142.9300   77.6150  217.0590 C   0  0  0  0  0  0  0  0  0  0  0  0
  142.3120   77.8990  218.2600 C   0  0  0  0  0  0  0  0  0  0  0  0
  142.3640   77.0350  219.3410 C   0  0  0  0  0  0  0  0  0  0  0  0
  141.5310   77.5320  220.7980 Cl  0  0  0  0  0  0  0  0  0  0  0  0
  140.0080   71.2700  223.5560 C   0  0  0  0  0  0  0  0  0  0  0  0
  139.5380   69.9810  223.6890 C   0  0  0  0  0  0  0  0  0  0  0  0
  139.5400   69.3260  224.8910 C   0  0  0  0  0  0  0  0  0  0  0  0
  140.0310   69.9810  226.0090 C   0  0  0  0  0  0  0  0  0  0  0  0
  140.0780   69.4140  227.2590 C   0  0  0  0  0  0  0  0  0  0  0  0
  140.5810   70.1090  228.3560 C   0  0  0  0  0  0  0  0  0  0  0  0
  141.0460   71.3940  228.2050 C   0  0  0  0  0  0  0  0  0  0  0  0
  140.9940   71.9510  226.9470 C   0  0  0  0  0  0  0  0  0  0  0  0
  140.4950   71.2610  225.8620 C   0  0  0  0  0  0  0  0  0  0  0  0
  140.4740   71.8620  224.6720 N   0  0  0  0  0  0  0  0  0  0  0  0
  139.5940   73.8380  223.1560 H   0  0  0  0  0  0  0  0  0  0  0  0
  138.7945   73.7776  220.4735 H   0  0  0  0  0  0  0  0  0  0  0  0
  139.7264   75.1449  221.3624 H   0  0  0  0  0  0  0  0  0  0  0  0
  142.8422   72.2187  221.6040 H   0  0  0  0  0  0  0  0  0  0  0  0
  142.3957   71.6531  220.0170 H   0  0  0  0  0  0  0  0  0  0  0  0
  145.0344   72.1554  220.5512 H   0  0  0  0  0  0  0  0  0  0  0  0
  144.4528   72.6691  218.9876 H   0  0  0  0  0  0  0  0  0  0  0  0
  144.8087   74.2769  221.5578 H   0  0  0  0  0  0  0  0  0  0  0  0
  145.2376   74.7614  219.9125 H   0  0  0  0  0  0  0  0  0  0  0  0
  142.9284   75.5096  221.2331 H   0  0  0  0  0  0  0  0  0  0  0  0
  144.2101   74.6121  217.9570 H   0  0  0  0  0  0  0  0  0  0  0  0
  144.1273   76.1333  216.0373 H   0  0  0  0  0  0  0  0  0  0  0  0
  142.8813   78.3113  216.2088 H   0  0  0  0  0  0  0  0  0  0  0  0
  141.7590   78.8444  218.3620 H   0  0  0  0  0  0  0  0  0  0  0  0
  139.1488   69.4620  222.8006 H   0  0  0  0  0  0  0  0  0  0  0  0
  139.1583   68.2972  224.9681 H   0  0  0  0  0  0  0  0  0  0  0  0
  139.7097   68.3867  227.3969 H   0  0  0  0  0  0  0  0  0  0  0  0
  140.6063   69.6289  229.3454 H   0  0  0  0  0  0  0  0  0  0  0  0
  141.4461   71.9580  229.0604 H   0  0  0  0  0  0  0  0  0  0  0  0
  141.3617   72.9777  226.8028 H   0  0  0  0  0  0  0  0  0  0  0  0
  1  2  2  0
  2  3  1  0
  3  4  1  0
  4  5  1  0
  5  6  2  0
  5  7  1  0
  7  8  1  0
  8  9  1  0
  9 10  1  0
 10 11  1  0
 11 12  1  0
 12 13  2  0
 13 14  1  0
 14 15  2  0
 15 16  1  0
 16 17  2  0
 17 18  1  0
  2 19  1  0
 19 20  2  0
 20 21  1  0
 21 22  2  0
 22 23  1  0
 23 24  2  0
 24 25  1  0
 25 26  2  0
 26 27  1  0
 27 28  2  0
 11  7  1  0
 17 12  1  0
 28 19  1  0
 27 22  1  0
  3 29  1  0
  4 30  1  0
  4 31  1  0
  8 32  1  0
  8 33  1  0
  9 34  1  0
  9 35  1  0
 10 36  1  0
 10 37  1  0
 11 38  1  1
 13 39  1  0
 14 40  1  0
 15 41  1  0
 16 42  1  0
 20 43  1  0
 21 44  1  0
 23 45  1  0
 24 46  1  0
 25 47  1  0
 26 48  1  0
M  END
>  <smiles>  (80) 
O=C(NCC(=O)N1CCCC1c1ccccc1Cl)c1ccc2ccccc2n1

>  <score_type>  (80) 
oracle

>  <origin>  (80) 
autodockgpu

>  <m_score__min__energy>  (80) 
-8.9000000000000004

>  <m_primary>  (80) 
energy

>  <rmsd>  (80) 
3.0650278357307585

>  <m_score__min__rmsd>  (80) 
3.0650278357307585

>  <meeko>  (80) 
{"free_energy": -8.07, "intermolecular_energy": -9.56, "internal_energy": -1.85, "cluster_size": 9, "cluster_id": 3, "rank_in_cluster": 2}

>  <energy>  (80) 
-8.25

>  <cluster_rmsd>  (80) 
0.69

>  <cluster>  (80) 
2

$$$$

     RDKit          3D

 48 51  0  0  0  0  0  0  0  0999 V2000
  140.9280   71.9300  221.2330 O   0  0  0  0  0  0  0  0  0  0  0  0
  140.3930   72.4120  222.2680 C   0  0  0  0  0  0  0  0  0  0  0  0
  139.9670   73.7740  222.3350 N   0  0  0  0  0  0  0  0  0  0  0  0
  140.0970   74.6830  221.2500 C   0  0  0  0  0  0  0  0  0  0  0  0
  140.6900   75.9980  221.4710 C   0  0  0  0  0  0  0  0  0  0  0  0
  140.8340   76.3080  222.7240 O   0  0  0  0  0  0  0  0  0  0  0  0
  141.1130   76.9650  220.5130 N   0  0  0  0  0  0  0  0  0  0  0  0
  141.1490   76.8580  219.0530 C   0  0  0  0  0  0  0  0  0  0  0  0
  141.0220   78.3410  218.6240 C   0  0  0  0  0  0  0  0  0  0  0  0
  141.8070   79.0480  219.6900 C   0  0  0  0  0  0  0  0  0  0  0  0
  141.5820   78.2710  220.9280 C   0  0  1  0  0  0  0  0  0  0  0  0
  140.7340   78.9500  221.9260 C   0  0  0  0  0  0  0  0  0  0  0  0
  139.3640   78.7590  221.8940 C   0  0  0  0  0  0  0  0  0  0  0  0
  138.4960   79.3520  222.7860 C   0  0  0  0  0  0  0  0  0  0  0  0
  138.9870   80.1910  223.7810 C   0  0  0  0  0  0  0  0  0  0  0  0
  140.3530   80.3850  223.8200 C   0  0  0  0  0  0  0  0  0  0  0  0
  141.2120   79.7830  222.9160 C   0  0  0  0  0  0  0  0  0  0  0  0
  142.9200   80.1240  223.0900 Cl  0  0  0  0  0  0  0  0  0  0  0  0
  140.1970   71.5600  223.4430 C   0  0  0  0  0  0  0  0  0  0  0  0
  139.5430   70.3510  223.3390 C   0  0  0  0  0  0  0  0  0  0  0  0
  139.3470   69.5350  224.4200 C   0  0  0  0  0  0  0  0  0  0  0  0
  139.8210   69.9370  225.6580 C   0  0  0  0  0  0  0  0  0  0  0  0
  139.6760   69.1930  226.8030 C   0  0  0  0  0  0  0  0  0  0  0  0
  140.1690   69.6360  228.0280 C   0  0  0  0  0  0  0  0  0  0  0  0
  140.8200   70.8450  228.1140 C   0  0  0  0  0  0  0  0  0  0  0  0
  140.9590   71.5810  226.9590 C   0  0  0  0  0  0  0  0  0  0  0  0
  140.4690   71.1410  225.7470 C   0  0  0  0  0  0  0  0  0  0  0  0
  140.6390   71.9060  224.6680 N   0  0  0  0  0  0  0  0  0  0  0  0
  139.5340   74.0990  223.2520 H   0  0  0  0  0  0  0  0  0  0  0  0
  140.7100   74.1817  220.4866 H   0  0  0  0  0  0  0  0  0  0  0  0
  139.0546   74.9151  220.9862 H   0  0  0  0  0  0  0  0  0  0  0  0
  142.0970   76.4205  218.7066 H   0  0  0  0  0  0  0  0  0  0  0  0
  140.3692   76.2047  218.6346 H   0  0  0  0  0  0  0  0  0  0  0  0
  141.4608   78.5073  217.6291 H   0  0  0  0  0  0  0  0  0  0  0  0
  139.9818   78.6882  218.5382 H   0  0  0  0  0  0  0  0  0  0  0  0
  142.8767   79.0620  219.4341 H   0  0  0  0  0  0  0  0  0  0  0  0
  141.4905   80.0954  219.8026 H   0  0  0  0  0  0  0  0  0  0  0  0
  142.5213   78.1653  221.4906 H   0  0  0  0  0  0  0  0  0  0  0  0
  138.9464   78.1009  221.1178 H   0  0  0  0  0  0  0  0  0  0  0  0
  137.4152   79.1617  222.7109 H   0  0  0  0  0  0  0  0  0  0  0  0
  138.3166   80.6781  224.5044 H   0  0  0  0  0  0  0  0  0  0  0  0
  140.7740   81.0408  224.5964 H   0  0  0  0  0  0  0  0  0  0  0  0
  139.1667   70.0320  222.3558 H   0  0  0  0  0  0  0  0  0  0  0  0
  138.8215   68.5752  224.3076 H   0  0  0  0  0  0  0  0  0  0  0  0
  139.1581   68.2239  226.7515 H   0  0  0  0  0  0  0  0  0  0  0  0
  140.0376   69.0180  228.9285 H   0  0  0  0  0  0  0  0  0  0  0  0
  141.2159   71.2110  229.0728 H   0  0  0  0  0  0  0  0  0  0  0  0
  141.4770   72.5503  227.0040 H   0  0  0  0  0  0  0  0  0  0  0  0
  1  2  2  0
  2  3  1  0
  3  4  1  0
  4  5  1  0
  5  6  2  0
  5  7  1  0
  7  8  1  0
  8  9  1  0
  9 10  1  0
 10 11  1  0
 11 12  1  0
 12 13  2  0
 13 14  1  0
 14 15  2  0
 15 16  1  0
 16 17  2  0
 17 18  1  0
  2 19  1  0
 19 20  2  0
 20 21  1  0
 21 22  2  0
 22 23  1  0
 23 24  2  0
 24 25  1  0
 25 26  2  0
 26 27  1  0
 27 28  2  0
 11  7  1  0
 17 12  1  0
 28 19  1  0
 27 22  1  0
  3 29  1  0
  4 30  1  0
  4 31  1  0
  8 32  1  0
  8 33  1  0
  9 34  1  0
  9 35  1  0
 10 36  1  0
 10 37  1  0
 11 38  1  1
 13 39  1  0
 14 40  1  0
 15 41  1  0
 16 42  1  0
 20 43  1  0
 21 44  1  0
 23 45  1  0
 24 46  1  0
 25 47  1  0
 26 48  1  0
M  END
>  <smiles>  (81) 
O=C(NCC(=O)N1CCCC1c1ccccc1Cl)c1ccc2ccccc2n1

>  <score_type>  (81) 
oracle

>  <origin>  (81) 
autodockgpu

>  <m_score__min__energy>  (81) 
-8.9000000000000004

>  <m_primary>  (81) 
energy

>  <rmsd>  (81) 
1.9362304377703352

>  <m_score__min__rmsd>  (81) 
1.9362304377703352

>  <meeko>  (81) 
{"free_energy": -8.82, "intermolecular_energy": -10.31, "internal_energy": -1.4, "cluster_size": 14, "cluster_id": 1, "rank_in_cluster": 3}

>  <energy>  (81) 
-8.2

>  <cluster_rmsd>  (81) 
0.62

>  <cluster>  (81) 
2

$$$$

     RDKit          3D

 48 51  0  0  0  0  0  0  0  0999 V2000
  139.1940   71.7870  221.2570 O   0  0  0  0  0  0  0  0  0  0  0  0
  139.8990   72.1340  222.2440 C   0  0  0  0  0  0  0  0  0  0  0  0
  140.7020   73.3150  222.2210 N   0  0  0  0  0  0  0  0  0  0  0  0
  140.7640   74.1920  221.1040 C   0  0  0  0  0  0  0  0  0  0  0  0
  140.9850   75.6180  221.3120 C   0  0  0  0  0  0  0  0  0  0  0  0
  140.8160   76.0050  222.5410 O   0  0  0  0  0  0  0  0  0  0  0  0
  141.3460   76.6190  220.3640 N   0  0  0  0  0  0  0  0  0  0  0  0
  141.4360   76.5140  218.9060 C   0  0  0  0  0  0  0  0  0  0  0  0
  141.1840   77.9780  218.4670 C   0  0  0  0  0  0  0  0  0  0  0  0
  141.8660   78.7570  219.5520 C   0  0  0  0  0  0  0  0  0  0  0  0
  141.6770   77.9650  220.7860 C   0  0  1  0  0  0  0  0  0  0  0  0
  140.7390   78.5630  221.7550 C   0  0  0  0  0  0  0  0  0  0  0  0
  139.3830   78.3130  221.6280 C   0  0  0  0  0  0  0  0  0  0  0  0
  138.4360   78.8290  222.4870 C   0  0  0  0  0  0  0  0  0  0  0  0
  138.8250   79.6460  223.5440 C   0  0  0  0  0  0  0  0  0  0  0  0
  140.1750   79.8980  223.6760 C   0  0  0  0  0  0  0  0  0  0  0  0
  141.1150   79.3730  222.8050 C   0  0  0  0  0  0  0  0  0  0  0  0
  142.7910   79.7810  223.1010 Cl  0  0  0  0  0  0  0  0  0  0  0  0
  139.9010   71.3100  223.4550 C   0  0  0  0  0  0  0  0  0  0  0  0
  139.3330   70.0530  223.4560 C   0  0  0  0  0  0  0  0  0  0  0  0
  139.3220   69.2620  224.5730 C   0  0  0  0  0  0  0  0  0  0  0  0
  139.8990   69.7400  225.7390 C   0  0  0  0  0  0  0  0  0  0  0  0
  139.9390   69.0260  226.9110 C   0  0  0  0  0  0  0  0  0  0  0  0
  140.5310   69.5450  228.0600 C   0  0  0  0  0  0  0  0  0  0  0  0
  141.0930   70.8010  228.0410 C   0  0  0  0  0  0  0  0  0  0  0  0
  141.0450   71.5060  226.8600 C   0  0  0  0  0  0  0  0  0  0  0  0
  140.4590   70.9900  225.7220 C   0  0  0  0  0  0  0  0  0  0  0  0
  140.4480   71.7280  224.6130 N   0  0  0  0  0  0  0  0  0  0  0  0
  141.2740   73.5260  223.0950 H   0  0  0  0  0  0  0  0  0  0  0  0
  141.5827   73.8333  220.4629 H   0  0  0  0  0  0  0  0  0  0  0  0
  139.7454   74.1501  220.6909 H   0  0  0  0  0  0  0  0  0  0  0  0
  142.4308   76.1667  218.5901 H   0  0  0  0  0  0  0  0  0  0  0  0
  140.7336   75.7901  218.4672 H   0  0  0  0  0  0  0  0  0  0  0  0
  141.6353   78.1830  217.4850 H   0  0  0  0  0  0  0  0  0  0  0  0
  140.1189   78.2260  218.3487 H   0  0  0  0  0  0  0  0  0  0  0  0
  142.9370   78.8706  219.3285 H   0  0  0  0  0  0  0  0  0  0  0  0
  141.4496   79.7704  219.6500 H   0  0  0  0  0  0  0  0  0  0  0  0
  142.6047   77.9498  221.3769 H   0  0  0  0  0  0  0  0  0  0  0  0
  139.0447   77.6712  220.8012 H   0  0  0  0  0  0  0  0  0  0  0  0
  137.3719   78.5946  222.3366 H   0  0  0  0  0  0  0  0  0  0  0  0
  138.0896   80.0716  224.2426 H   0  0  0  0  0  0  0  0  0  0  0  0
  140.5168   80.5386  224.5023 H   0  0  0  0  0  0  0  0  0  0  0  0
  138.8746   69.6745  222.5304 H   0  0  0  0  0  0  0  0  0  0  0  0
  138.8626   68.2629  224.5457 H   0  0  0  0  0  0  0  0  0  0  0  0
  139.4932   68.0209  226.9433 H   0  0  0  0  0  0  0  0  0  0  0  0
  140.5494   68.9495  228.9847 H   0  0  0  0  0  0  0  0  0  0  0  0
  141.5644   71.2269  228.9390 H   0  0  0  0  0  0  0  0  0  0  0  0
  141.4876   72.5123  226.8219 H   0  0  0  0  0  0  0  0  0  0  0  0
  1  2  2  0
  2  3  1  0
  3  4  1  0
  4  5  1  0
  5  6  2  0
  5  7  1  0
  7  8  1  0
  8  9  1  0
  9 10  1  0
 10 11  1  0
 11 12  1  0
 12 13  2  0
 13 14  1  0
 14 15  2  0
 15 16  1  0
 16 17  2  0
 17 18  1  0
  2 19  1  0
 19 20  2  0
 20 21  1  0
 21 22  2  0
 22 23  1  0
 23 24  2  0
 24 25  1  0
 25 26  2  0
 26 27  1  0
 27 28  2  0
 11  7  1  0
 17 12  1  0
 28 19  1  0
 27 22  1  0
  3 29  1  0
  4 30  1  0
  4 31  1  0
  8 32  1  0
  8 33  1  0
  9 34  1  0
  9 35  1  0
 10 36  1  0
 10 37  1  0
 11 38  1  1
 13 39  1  0
 14 40  1  0
 15 41  1  0
 16 42  1  0
 20 43  1  0
 21 44  1  0
 23 45  1  0
 24 46  1  0
 25 47  1  0
 26 48  1  0
M  END
>  <smiles>  (82) 
O=C(NCC(=O)N1CCCC1c1ccccc1Cl)c1ccc2ccccc2n1

>  <score_type>  (82) 
oracle

>  <origin>  (82) 
autodockgpu

>  <m_score__min__energy>  (82) 
-8.9000000000000004

>  <m_primary>  (82) 
energy

>  <rmsd>  (82) 
1.8927957175883834

>  <m_score__min__rmsd>  (82) 
1.8927957175883834

>  <meeko>  (82) 
{"free_energy": -7.94, "intermolecular_energy": -9.43, "internal_energy": -1.58, "cluster_size": 14, "cluster_id": 1, "rank_in_cluster": 14}

>  <energy>  (82) 
-8.11

>  <cluster_rmsd>  (82) 
0.46

>  <cluster>  (82) 
2

$$$$

     RDKit          3D

 48 51  0  0  0  0  0  0  0  0999 V2000
  138.7900   75.4390  221.6530 O   0  0  0  0  0  0  0  0  0  0  0  0
  139.9630   75.8340  221.8940 C   0  0  0  0  0  0  0  0  0  0  0  0
  141.0980   74.9820  221.7300 N   0  0  0  0  0  0  0  0  0  0  0  0
  141.0020   73.6390  221.2760 C   0  0  0  0  0  0  0  0  0  0  0  0
  142.0210   73.0990  220.3820 C   0  0  0  0  0  0  0  0  0  0  0  0
  141.5400   72.4740  219.3500 O   0  0  0  0  0  0  0  0  0  0  0  0
  143.4400   73.1610  220.4970 N   0  0  0  0  0  0  0  0  0  0  0  0
  144.3980   72.0630  220.6430 C   0  0  0  0  0  0  0  0  0  0  0  0
  145.6830   72.6810  220.0360 C   0  0  0  0  0  0  0  0  0  0  0  0
  145.5830   74.1130  220.4740 C   0  0  0  0  0  0  0  0  0  0  0  0
  144.1380   74.4290  220.4650 C   0  0  1  0  0  0  0  0  0  0  0  0
  143.7220   75.3430  219.3840 C   0  0  0  0  0  0  0  0  0  0  0  0
  143.3130   76.6270  219.7020 C   0  0  0  0  0  0  0  0  0  0  0  0
  142.9080   77.5470  218.7580 C   0  0  0  0  0  0  0  0  0  0  0  0
  142.8970   77.2020  217.4100 C   0  0  0  0  0  0  0  0  0  0  0  0
  143.3040   75.9240  217.0870 C   0  0  0  0  0  0  0  0  0  0  0  0
  143.7080   75.0110  218.0460 C   0  0  0  0  0  0  0  0  0  0  0  0
  144.1970   73.4280  217.4840 Cl  0  0  0  0  0  0  0  0  0  0  0  0
  140.1810   77.2070  222.3560 C   0  0  0  0  0  0  0  0  0  0  0  0
  139.1160   78.0240  222.6730 C   0  0  0  0  0  0  0  0  0  0  0  0
  139.2910   79.3110  223.1080 C   0  0  0  0  0  0  0  0  0  0  0  0
  140.5780   79.8060  223.2330 C   0  0  0  0  0  0  0  0  0  0  0  0
  140.8610   81.0810  223.6600 C   0  0  0  0  0  0  0  0  0  0  0  0
  142.1720   81.5380  223.7720 C   0  0  0  0  0  0  0  0  0  0  0  0
  143.2220   80.7090  223.4520 C   0  0  0  0  0  0  0  0  0  0  0  0
  142.9250   79.4340  223.0250 C   0  0  0  0  0  0  0  0  0  0  0  0
  141.6270   78.9830  222.9150 C   0  0  0  0  0  0  0  0  0  0  0  0
  141.4120   77.7360  222.4950 N   0  0  0  0  0  0  0  0  0  0  0  0
  142.0500   75.3960  221.9670 H   0  0  0  0  0  0  0  0  0  0  0  0
  140.9938   73.0003  222.1716 H   0  0  0  0  0  0  0  0  0  0  0  0
  140.0953   73.6456  220.6532 H   0  0  0  0  0  0  0  0  0  0  0  0
  144.5428   71.7957  221.7002 H   0  0  0  0  0  0  0  0  0  0  0  0
  144.0813   71.1279  220.1580 H   0  0  0  0  0  0  0  0  0  0  0  0
  146.5862   72.2019  220.4418 H   0  0  0  0  0  0  0  0  0  0  0  0
  145.7604   72.5569  218.9458 H   0  0  0  0  0  0  0  0  0  0  0  0
  145.9970   74.2354  221.4858 H   0  0  0  0  0  0  0  0  0  0  0  0
  146.1514   74.7829  219.8120 H   0  0  0  0  0  0  0  0  0  0  0  0
  143.8699   75.0211  221.3524 H   0  0  0  0  0  0  0  0  0  0  0  0
  143.3110   76.9281  220.7600 H   0  0  0  0  0  0  0  0  0  0  0  0
  142.5936   78.5537  219.0706 H   0  0  0  0  0  0  0  0  0  0  0  0
  142.5781   77.9163  216.6366 H   0  0  0  0  0  0  0  0  0  0  0  0
  143.3076   75.6197  216.0300 H   0  0  0  0  0  0  0  0  0  0  0  0
  138.0939   77.6297  222.5734 H   0  0  0  0  0  0  0  0  0  0  0  0
  138.4234   79.9409  223.3540 H   0  0  0  0  0  0  0  0  0  0  0  0
  140.0327   81.7567  223.9195 H   0  0  0  0  0  0  0  0  0  0  0  0
  142.3681   82.5639  224.1171 H   0  0  0  0  0  0  0  0  0  0  0  0
  144.2636   81.0529  223.5344 H   0  0  0  0  0  0  0  0  0  0  0  0
  143.7493   78.7541  222.7635 H   0  0  0  0  0  0  0  0  0  0  0  0
  1  2  2  0
  2  3  1  0
  3  4  1  0
  4  5  1  0
  5  6  2  0
  5  7  1  0
  7  8  1  0
  8  9  1  0
  9 10  1  0
 10 11  1  0
 11 12  1  0
 12 13  2  0
 13 14  1  0
 14 15  2  0
 15 16  1  0
 16 17  2  0
 17 18  1  0
  2 19  1  0
 19 20  2  0
 20 21  1  0
 21 22  2  0
 22 23  1  0
 23 24  2  0
 24 25  1  0
 25 26  2  0
 26 27  1  0
 27 28  2  0
 11  7  1  0
 17 12  1  0
 28 19  1  0
 27 22  1  0
  3 29  1  0
  4 30  1  0
  4 31  1  0
  8 32  1  0
  8 33  1  0
  9 34  1  0
  9 35  1  0
 10 36  1  0
 10 37  1  0
 11 38  1  1
 13 39  1  0
 14 40  1  0
 15 41  1  0
 16 42  1  0
 20 43  1  0
 21 44  1  0
 23 45  1  0
 24 46  1  0
 25 47  1  0
 26 48  1  0
M  END
>  <smiles>  (83) 
O=C(NCC(=O)N1CCCC1c1ccccc1Cl)c1ccc2ccccc2n1

>  <score_type>  (83) 
oracle

>  <origin>  (83) 
autodockgpu

>  <m_score__min__energy>  (83) 
-8.9000000000000004

>  <m_primary>  (83) 
energy

>  <rmsd>  (83) 
7.897539233401731

>  <m_score__min__rmsd>  (83) 
7.897539233401731

>  <meeko>  (83) 
{"free_energy": -7.82, "intermolecular_energy": -9.31, "internal_energy": -2.11, "cluster_size": 4, "cluster_id": 4, "rank_in_cluster": 2}

>  <energy>  (83) 
-8.03

>  <cluster_rmsd>  (83) 
0.75

>  <cluster>  (83) 
2

$$$$

     RDKit          3D

 48 51  0  0  0  0  0  0  0  0999 V2000
  140.5980   76.9400  218.9520 O   0  0  0  0  0  0  0  0  0  0  0  0
  141.8560   77.0210  219.0110 C   0  0  0  0  0  0  0  0  0  0  0  0
  142.5310   78.2800  219.0360 N   0  0  0  0  0  0  0  0  0  0  0  0
  141.8520   79.5280  219.0090 C   0  0  0  0  0  0  0  0  0  0  0  0
  141.1530   80.0000  220.1990 C   0  0  0  0  0  0  0  0  0  0  0  0
  139.9280   80.3730  219.9780 O   0  0  0  0  0  0  0  0  0  0  0  0
  141.6290   80.1110  221.5370 N   0  0  0  0  0  0  0  0  0  0  0  0
  141.9550   81.3180  222.3000 C   0  0  0  0  0  0  0  0  0  0  0  0
  141.7330   80.8410  223.7570 C   0  0  0  0  0  0  0  0  0  0  0  0
  142.2080   79.4190  223.7020 C   0  0  0  0  0  0  0  0  0  0  0  0
  141.8480   78.9330  222.3520 C   0  0  1  0  0  0  0  0  0  0  0  0
  140.7490   77.9490  222.3330 C   0  0  0  0  0  0  0  0  0  0  0  0
  141.0290   76.6270  222.0370 C   0  0  0  0  0  0  0  0  0  0  0  0
  140.0660   75.6410  221.9980 C   0  0  0  0  0  0  0  0  0  0  0  0
  138.7370   75.9550  222.2620 C   0  0  0  0  0  0  0  0  0  0  0  0
  138.4510   77.2720  222.5590 C   0  0  0  0  0  0  0  0  0  0  0  0
  139.4290   78.2510  222.5940 C   0  0  0  0  0  0  0  0  0  0  0  0
  138.9150   79.8780  222.9860 Cl  0  0  0  0  0  0  0  0  0  0  0  0
  142.6570   75.7960  219.0570 C   0  0  0  0  0  0  0  0  0  0  0  0
  142.3700   74.7320  218.2280 C   0  0  0  0  0  0  0  0  0  0  0  0
  143.1030   73.5760  218.2490 C   0  0  0  0  0  0  0  0  0  0  0  0
  144.1660   73.4720  219.1310 C   0  0  0  0  0  0  0  0  0  0  0  0
  144.9620   72.3580  219.2310 C   0  0  0  0  0  0  0  0  0  0  0  0
  146.0220   72.2970  220.1320 C   0  0  0  0  0  0  0  0  0  0  0  0
  146.2940   73.3680  220.9520 C   0  0  0  0  0  0  0  0  0  0  0  0
  145.4880   74.4790  220.8420 C   0  0  0  0  0  0  0  0  0  0  0  0
  144.4390   74.5380  219.9490 C   0  0  0  0  0  0  0  0  0  0  0  0
  143.7000   75.6460  219.8960 N   0  0  0  0  0  0  0  0  0  0  0  0
  143.5950   78.2540  219.0760 H   0  0  0  0  0  0  0  0  0  0  0  0
  142.6012   80.2925  218.7557 H   0  0  0  0  0  0  0  0  0  0  0  0
  141.0397   79.3602  218.2865 H   0  0  0  0  0  0  0  0  0  0  0  0
  142.9975   81.6273  222.1342 H   0  0  0  0  0  0  0  0  0  0  0  0
  141.3542   82.1966  222.0223 H   0  0  0  0  0  0  0  0  0  0  0  0
  142.3300   81.4336  224.4658 H   0  0  0  0  0  0  0  0  0  0  0  0
  140.6938   80.9459  224.1020 H   0  0  0  0  0  0  0  0  0  0  0  0
  143.2970   79.3716  223.8497 H   0  0  0  0  0  0  0  0  0  0  0  0
  141.7500   78.8054  224.4918 H   0  0  0  0  0  0  0  0  0  0  0  0
  142.6690   78.3363  221.9278 H   0  0  0  0  0  0  0  0  0  0  0  0
  142.0713   76.3487  221.8222 H   0  0  0  0  0  0  0  0  0  0  0  0
  140.3489   74.6055  221.7580 H   0  0  0  0  0  0  0  0  0  0  0  0
  137.9491   75.1879  222.2352 H   0  0  0  0  0  0  0  0  0  0  0  0
  137.4099   77.5535  222.7754 H   0  0  0  0  0  0  0  0  0  0  0  0
  141.5256   74.8148  217.5279 H   0  0  0  0  0  0  0  0  0  0  0  0
  142.8518   72.7429  217.5761 H   0  0  0  0  0  0  0  0  0  0  0  0
  144.7575   71.4925  218.5836 H   0  0  0  0  0  0  0  0  0  0  0  0
  146.6431   71.3909  220.1883 H   0  0  0  0  0  0  0  0  0  0  0  0
  147.1264   73.3377  221.6704 H   0  0  0  0  0  0  0  0  0  0  0  0
  145.6874   75.3473  221.4872 H   0  0  0  0  0  0  0  0  0  0  0  0
  1  2  2  0
  2  3  1  0
  3  4  1  0
  4  5  1  0
  5  6  2  0
  5  7  1  0
  7  8  1  0
  8  9  1  0
  9 10  1  0
 10 11  1  0
 11 12  1  0
 12 13  2  0
 13 14  1  0
 14 15  2  0
 15 16  1  0
 16 17  2  0
 17 18  1  0
  2 19  1  0
 19 20  2  0
 20 21  1  0
 21 22  2  0
 22 23  1  0
 23 24  2  0
 24 25  1  0
 25 26  2  0
 26 27  1  0
 27 28  2  0
 11  7  1  0
 17 12  1  0
 28 19  1  0
 27 22  1  0
  3 29  1  0
  4 30  1  0
  4 31  1  0
  8 32  1  0
  8 33  1  0
  9 34  1  0
  9 35  1  0
 10 36  1  0
 10 37  1  0
 11 38  1  6
 13 39  1  0
 14 40  1  0
 15 41  1  0
 16 42  1  0
 20 43  1  0
 21 44  1  0
 23 45  1  0
 24 46  1  0
 25 47  1  0
 26 48  1  0
M  END
>  <smiles>  (84) 
O=C(NCC(=O)N1CCCC1c1ccccc1Cl)c1ccc2ccccc2n1

>  <score_type>  (84) 
oracle

>  <origin>  (84) 
autodockgpu

>  <m_score__min__energy>  (84) 
-8.9000000000000004

>  <m_primary>  (84) 
energy

>  <rmsd>  (84) 
7.740377543150742

>  <m_score__min__rmsd>  (84) 
7.740377543150742

>  <meeko>  (84) 
{"free_energy": -7.5, "intermolecular_energy": -8.99, "internal_energy": -2.18, "cluster_size": 3, "cluster_id": 5, "rank_in_cluster": 1}

>  <energy>  (84) 
-7.96

>  <cluster_rmsd>  (84) 
0.74

>  <cluster>  (84) 
2

$$$$

     RDKit          3D

 48 51  0  0  0  0  0  0  0  0999 V2000
  140.5170   71.3470  221.2900 O   0  0  0  0  0  0  0  0  0  0  0  0
  140.1660   71.9460  222.3430 C   0  0  0  0  0  0  0  0  0  0  0  0
  139.8380   73.3360  222.3490 N   0  0  0  0  0  0  0  0  0  0  0  0
  139.8670   74.1470  221.1810 C   0  0  0  0  0  0  0  0  0  0  0  0
  140.2490   75.5510  221.2810 C   0  0  0  0  0  0  0  0  0  0  0  0
  139.9750   76.0920  222.4300 O   0  0  0  0  0  0  0  0  0  0  0  0
  140.8610   76.3880  220.3030 N   0  0  0  0  0  0  0  0  0  0  0  0
  140.7760   76.3080  218.8430 C   0  0  0  0  0  0  0  0  0  0  0  0
  141.0330   77.7790  218.4300 C   0  0  0  0  0  0  0  0  0  0  0  0
  142.0450   78.2210  219.4460 C   0  0  0  0  0  0  0  0  0  0  0  0
  141.6940   77.5070  220.6920 C   0  0  1  0  0  0  0  0  0  0  0  0
  141.1260   78.3690  221.7470 C   0  0  0  0  0  0  0  0  0  0  0  0
  141.8990   78.6890  222.8490 C   0  0  0  0  0  0  0  0  0  0  0  0
  141.4520   79.4870  223.8800 C   0  0  0  0  0  0  0  0  0  0  0  0
  140.1640   80.0120  223.8460 C   0  0  0  0  0  0  0  0  0  0  0  0
  139.3880   79.6970  222.7500 C   0  0  0  0  0  0  0  0  0  0  0  0
  139.8520   78.8940  221.7210 C   0  0  0  0  0  0  0  0  0  0  0  0
  138.7520   78.5820  220.3960 Cl  0  0  0  0  0  0  0  0  0  0  0  0
  140.0890   71.2040  223.6030 C   0  0  0  0  0  0  0  0  0  0  0  0
  139.5450   69.9370  223.6460 C   0  0  0  0  0  0  0  0  0  0  0  0
  139.4610   69.2220  224.8100 C   0  0  0  0  0  0  0  0  0  0  0  0
  139.9370   69.7880  225.9810 C   0  0  0  0  0  0  0  0  0  0  0  0
  139.8990   69.1550  227.1990 C   0  0  0  0  0  0  0  0  0  0  0  0
  140.3900   69.7620  228.3520 C   0  0  0  0  0  0  0  0  0  0  0  0
  140.9300   71.0260  228.2910 C   0  0  0  0  0  0  0  0  0  0  0  0
  140.9620   71.6500  227.0640 C   0  0  0  0  0  0  0  0  0  0  0  0
  140.4740   71.0470  225.9230 C   0  0  0  0  0  0  0  0  0  0  0  0
  140.5370   71.7100  224.7690 N   0  0  0  0  0  0  0  0  0  0  0  0
  139.5630   73.7620  223.2850 H   0  0  0  0  0  0  0  0  0  0  0  0
  140.5732   73.6741  220.4827 H   0  0  0  0  0  0  0  0  0  0  0  0
  138.8110   74.1918  220.8762 H   0  0  0  0  0  0  0  0  0  0  0  0
  141.5450   75.6366  218.4331 H   0  0  0  0  0  0  0  0  0  0  0  0
  139.8229   75.9014  218.4737 H   0  0  0  0  0  0  0  0  0  0  0  0
  141.4387   77.8417  217.4095 H   0  0  0  0  0  0  0  0  0  0  0  0
  140.1241   78.3984  218.4135 H   0  0  0  0  0  0  0  0  0  0  0  0
  143.0600   77.9494  219.1205 H   0  0  0  0  0  0  0  0  0  0  0  0
  142.0334   79.3122  219.5846 H   0  0  0  0  0  0  0  0  0  0  0  0
  142.6021   77.1371  221.1905 H   0  0  0  0  0  0  0  0  0  0  0  0
  142.9212   78.2865  222.9051 H   0  0  0  0  0  0  0  0  0  0  0  0
  142.1139   79.7089  224.7301 H   0  0  0  0  0  0  0  0  0  0  0  0
  139.7817   80.6496  224.6567 H   0  0  0  0  0  0  0  0  0  0  0  0
  138.3651   80.0974  222.6910 H   0  0  0  0  0  0  0  0  0  0  0  0
  139.1670   69.4874  222.7159 H   0  0  0  0  0  0  0  0  0  0  0  0
  139.0222   68.2133  224.8154 H   0  0  0  0  0  0  0  0  0  0  0  0
  139.4704   68.1441  227.2654 H   0  0  0  0  0  0  0  0  0  0  0  0
  140.3461   69.2298  229.3137 H   0  0  0  0  0  0  0  0  0  0  0  0
  141.3226   71.5210  229.1914 H   0  0  0  0  0  0  0  0  0  0  0  0
  141.3900   72.6607  226.9912 H   0  0  0  0  0  0  0  0  0  0  0  0
  1  2  2  0
  2  3  1  0
  3  4  1  0
  4  5  1  0
  5  6  2  0
  5  7  1  0
  7  8  1  0
  8  9  1  0
  9 10  1  0
 10 11  1  0
 11 12  1  0
 12 13  2  0
 13 14  1  0
 14 15  2  0
 15 16  1  0
 16 17  2  0
 17 18  1  0
  2 19  1  0
 19 20  2  0
 20 21  1  0
 21 22  2  0
 22 23  1  0
 23 24  2  0
 24 25  1  0
 25 26  2  0
 26 27  1  0
 27 28  2  0
 11  7  1  0
 17 12  1  0
 28 19  1  0
 27 22  1  0
  3 29  1  0
  4 30  1  0
  4 31  1  0
  8 32  1  0
  8 33  1  0
  9 34  1  0
  9 35  1  0
 10 36  1  0
 10 37  1  0
 11 38  1  1
 13 39  1  0
 14 40  1  0
 15 41  1  0
 16 42  1  0
 20 43  1  0
 21 44  1  0
 23 45  1  0
 24 46  1  0
 25 47  1  0
 26 48  1  0
M  END
>  <smiles>  (85) 
O=C(NCC(=O)N1CCCC1c1ccccc1Cl)c1ccc2ccccc2n1

>  <score_type>  (85) 
oracle

>  <origin>  (85) 
autodockgpu

>  <m_score__min__energy>  (85) 
-8.9000000000000004

>  <m_primary>  (85) 
energy

>  <rmsd>  (85) 
1.5452769321125213

>  <m_score__min__rmsd>  (85) 
1.5452769321125213

>  <meeko>  (85) 
{"free_energy": -8.46, "intermolecular_energy": -9.95, "internal_energy": -1.3, "cluster_size": 14, "cluster_id": 1, "rank_in_cluster": 9}

>  <energy>  (85) 
-8.26

>  <cluster_rmsd>  (85) 
0.0

>  <cluster>  (85) 
3

$$$$

     RDKit          3D

 48 51  0  0  0  0  0  0  0  0999 V2000
  139.6440   71.0750  221.2640 O   0  0  0  0  0  0  0  0  0  0  0  0
  139.7150   71.7120  222.3510 C   0  0  0  0  0  0  0  0  0  0  0  0
  139.7690   73.1390  222.3890 N   0  0  0  0  0  0  0  0  0  0  0  0
  139.7360   73.9500  221.2220 C   0  0  0  0  0  0  0  0  0  0  0  0
  140.7940   74.9250  220.9830 C   0  0  0  0  0  0  0  0  0  0  0  0
  141.3330   75.3940  222.0680 O   0  0  0  0  0  0  0  0  0  0  0  0
  141.2940   75.4230  219.7460 N   0  0  0  0  0  0  0  0  0  0  0  0
  141.0000   76.6940  219.0800 C   0  0  0  0  0  0  0  0  0  0  0  0
  142.2830   76.9180  218.2420 C   0  0  0  0  0  0  0  0  0  0  0  0
  142.6370   75.5210  217.8260 C   0  0  0  0  0  0  0  0  0  0  0  0
  142.2380   74.6570  218.9580 C   0  0  1  0  0  0  0  0  0  0  0  0
  143.3680   74.0890  219.7180 C   0  0  0  0  0  0  0  0  0  0  0  0
  144.4130   74.9140  220.0960 C   0  0  0  0  0  0  0  0  0  0  0  0
  145.5070   74.4700  220.8070 C   0  0  0  0  0  0  0  0  0  0  0  0
  145.6000   73.1320  221.1790 C   0  0  0  0  0  0  0  0  0  0  0  0
  144.5610   72.3050  220.8050 C   0  0  0  0  0  0  0  0  0  0  0  0
  143.4680   72.7650  220.0910 C   0  0  0  0  0  0  0  0  0  0  0  0
  142.2280   71.5970  219.6880 Cl  0  0  0  0  0  0  0  0  0  0  0  0
  139.7430   70.9780  223.6170 C   0  0  0  0  0  0  0  0  0  0  0  0
  139.2550   69.6900  223.6990 C   0  0  0  0  0  0  0  0  0  0  0  0
  139.2690   68.9810  224.8700 C   0  0  0  0  0  0  0  0  0  0  0  0
  139.7900   69.5750  226.0080 C   0  0  0  0  0  0  0  0  0  0  0  0
  139.8500   68.9500  227.2290 C   0  0  0  0  0  0  0  0  0  0  0  0
  140.3830   69.5860  228.3480 C   0  0  0  0  0  0  0  0  0  0  0  0
  140.8650   70.8710  228.2480 C   0  0  0  0  0  0  0  0  0  0  0  0
  140.7980   71.4860  227.0180 C   0  0  0  0  0  0  0  0  0  0  0  0
  140.2700   70.8550  225.9110 C   0  0  0  0  0  0  0  0  0  0  0  0
  140.2380   71.5100  224.7510 N   0  0  0  0  0  0  0  0  0  0  0  0
  139.8380   73.5930  223.3490 H   0  0  0  0  0  0  0  0  0  0  0  0
  139.7329   73.2666  220.3600 H   0  0  0  0  0  0  0  0  0  0  0  0
  138.8441   74.5757  221.3733 H   0  0  0  0  0  0  0  0  0  0  0  0
  140.1111   76.6129  218.4372 H   0  0  0  0  0  0  0  0  0  0  0  0
  140.7717   77.5172  219.7730 H   0  0  0  0  0  0  0  0  0  0  0  0
  142.0826   77.5557  217.3684 H   0  0  0  0  0  0  0  0  0  0  0  0
  143.0854   77.4320  218.7915 H   0  0  0  0  0  0  0  0  0  0  0  0
  142.0868   75.2401  216.9158 H   0  0  0  0  0  0  0  0  0  0  0  0
  143.7084   75.4233  217.5967 H   0  0  0  0  0  0  0  0  0  0  0  0
  141.7546   73.7406  218.5884 H   0  0  0  0  0  0  0  0  0  0  0  0
  144.3682   75.9766  219.8151 H   0  0  0  0  0  0  0  0  0  0  0  0
  146.3071   75.1735  221.0807 H   0  0  0  0  0  0  0  0  0  0  0  0
  146.4627   72.7513  221.7454 H   0  0  0  0  0  0  0  0  0  0  0  0
  144.6027   71.2418  221.0842 H   0  0  0  0  0  0  0  0  0  0  0  0
  138.8418   69.2182  222.7953 H   0  0  0  0  0  0  0  0  0  0  0  0
  138.8727   67.9555  224.9068 H   0  0  0  0  0  0  0  0  0  0  0  0
  139.4683   67.9229  227.3260 H   0  0  0  0  0  0  0  0  0  0  0  0
  140.4186   69.0600  229.3134 H   0  0  0  0  0  0  0  0  0  0  0  0
  141.2892   71.3890  229.1207 H   0  0  0  0  0  0  0  0  0  0  0  0
  141.1776   72.5133  226.9149 H   0  0  0  0  0  0  0  0  0  0  0  0
  1  2  2  0
  2  3  1  0
  3  4  1  0
  4  5  1  0
  5  6  2  0
  5  7  1  0
  7  8  1  0
  8  9  1  0
  9 10  1  0
 10 11  1  0
 11 12  1  0
 12 13  2  0
 13 14  1  0
 14 15  2  0
 15 16  1  0
 16 17  2  0
 17 18  1  0
  2 19  1  0
 19 20  2  0
 20 21  1  0
 21 22  2  0
 22 23  1  0
 23 24  2  0
 24 25  1  0
 25 26  2  0
 26 27  1  0
 27 28  2  0
 11  7  1  0
 17 12  1  0
 28 19  1  0
 27 22  1  0
  3 29  1  0
  4 30  1  0
  4 31  1  0
  8 32  1  0
  8 33  1  0
  9 34  1  0
  9 35  1  0
 10 36  1  0
 10 37  1  0
 11 38  1  6
 13 39  1  0
 14 40  1  0
 15 41  1  0
 16 42  1  0
 20 43  1  0
 21 44  1  0
 23 45  1  0
 24 46  1  0
 25 47  1  0
 26 48  1  0
M  END
>  <smiles>  (86) 
O=C(NCC(=O)N1CCCC1c1ccccc1Cl)c1ccc2ccccc2n1

>  <score_type>  (86) 
oracle

>  <origin>  (86) 
autodockgpu

>  <m_score__min__energy>  (86) 
-8.9000000000000004

>  <m_primary>  (86) 
energy

>  <rmsd>  (86) 
1.8755269137942692

>  <m_score__min__rmsd>  (86) 
1.8755269137942692

>  <meeko>  (86) 
{"free_energy": -8.2, "intermolecular_energy": -9.69, "internal_energy": -2.1, "cluster_size": 20, "cluster_id": 2, "rank_in_cluster": 17}

>  <energy>  (86) 
-8.07

>  <cluster_rmsd>  (86) 
1.63

>  <cluster>  (86) 
3

$$$$

     RDKit          3D

 48 51  0  0  0  0  0  0  0  0999 V2000
  141.3430   71.8670  221.5460 O   0  0  0  0  0  0  0  0  0  0  0  0
  140.5910   72.3370  222.4430 C   0  0  0  0  0  0  0  0  0  0  0  0
  139.9930   73.6290  222.3280 N   0  0  0  0  0  0  0  0  0  0  0  0
  140.1840   74.4770  221.2040 C   0  0  0  0  0  0  0  0  0  0  0  0
  140.2100   75.9250  221.3810 C   0  0  0  0  0  0  0  0  0  0  0  0
  141.3990   76.4440  221.3150 O   0  0  0  0  0  0  0  0  0  0  0  0
  139.1270   76.8210  221.6200 N   0  0  0  0  0  0  0  0  0  0  0  0
  137.7560   76.5160  222.0340 C   0  0  0  0  0  0  0  0  0  0  0  0
  137.3430   77.8260  222.7510 C   0  0  0  0  0  0  0  0  0  0  0  0
  138.0290   78.8710  221.9210 C   0  0  0  0  0  0  0  0  0  0  0  0
  139.2950   78.2520  221.4730 C   0  0  1  0  0  0  0  0  0  0  0  0
  140.5030   78.8070  222.1120 C   0  0  0  0  0  0  0  0  0  0  0  0
  140.7040   78.6090  223.4670 C   0  0  0  0  0  0  0  0  0  0  0  0
  141.8030   79.0900  224.1470 C   0  0  0  0  0  0  0  0  0  0  0  0
  142.7780   79.8160  223.4690 C   0  0  0  0  0  0  0  0  0  0  0  0
  142.5840   80.0160  222.1180 C   0  0  0  0  0  0  0  0  0  0  0  0
  141.4750   79.5270  221.4490 C   0  0  0  0  0  0  0  0  0  0  0  0
  141.3660   79.8600  219.7350 Cl  0  0  0  0  0  0  0  0  0  0  0  0
  140.3130   71.5420  223.6410 C   0  0  0  0  0  0  0  0  0  0  0  0
  139.5670   70.3850  223.5660 C   0  0  0  0  0  0  0  0  0  0  0  0
  139.2930   69.6230  224.6700 C   0  0  0  0  0  0  0  0  0  0  0  0
  139.7820   70.0280  225.9010 C   0  0  0  0  0  0  0  0  0  0  0  0
  139.5640   69.3360  227.0670 C   0  0  0  0  0  0  0  0  0  0  0  0
  140.0750   69.7790  228.2840 C   0  0  0  0  0  0  0  0  0  0  0  0
  140.8180   70.9360  228.3410 C   0  0  0  0  0  0  0  0  0  0  0  0
  141.0290   71.6200  227.1660 C   0  0  0  0  0  0  0  0  0  0  0  0
  140.5220   71.1800  225.9610 C   0  0  0  0  0  0  0  0  0  0  0  0
  140.7650   71.8920  224.8610 N   0  0  0  0  0  0  0  0  0  0  0  0
  139.3800   73.9500  223.1380 H   0  0  0  0  0  0  0  0  0  0  0  0
  141.1465   74.1945  220.7525 H   0  0  0  0  0  0  0  0  0  0  0  0
  139.2772   74.3110  220.6038 H   0  0  0  0  0  0  0  0  0  0  0  0
  137.1111   76.3139  221.1661 H   0  0  0  0  0  0  0  0  0  0  0  0
  137.6698   75.6176  222.6628 H   0  0  0  0  0  0  0  0  0  0  0  0
  136.2513   77.9603  222.7389 H   0  0  0  0  0  0  0  0  0  0  0  0
  137.6214   77.8539  223.8148 H   0  0  0  0  0  0  0  0  0  0  0  0
  137.4072   79.1437  221.0556 H   0  0  0  0  0  0  0  0  0  0  0  0
  138.2061   79.7942  222.4923 H   0  0  0  0  0  0  0  0  0  0  0  0
  139.4879   78.4953  220.4178 H   0  0  0  0  0  0  0  0  0  0  0  0
  139.9495   78.0396  224.0295 H   0  0  0  0  0  0  0  0  0  0  0  0
  141.9091   78.8999  225.2252 H   0  0  0  0  0  0  0  0  0  0  0  0
  143.6635   80.2125  223.9873 H   0  0  0  0  0  0  0  0  0  0  0  0
  143.3371   80.5841  221.5522 H   0  0  0  0  0  0  0  0  0  0  0  0
  139.1795   70.0638  222.5879 H   0  0  0  0  0  0  0  0  0  0  0  0
  138.6945   68.7044  224.5808 H   0  0  0  0  0  0  0  0  0  0  0  0
  138.9715   68.4096  227.0388 H   0  0  0  0  0  0  0  0  0  0  0  0
  139.8845   69.2031  229.2017 H   0  0  0  0  0  0  0  0  0  0  0  0
  141.2292   71.3015  229.2936 H   0  0  0  0  0  0  0  0  0  0  0  0
  141.6207   72.5470  227.1882 H   0  0  0  0  0  0  0  0  0  0  0  0
  1  2  2  0
  2  3  1  0
  3  4  1  0
  4  5  1  0
  5  6  2  0
  5  7  1  0
  7  8  1  0
  8  9  1  0
  9 10  1  0
 10 11  1  0
 11 12  1  0
 12 13  2  0
 13 14  1  0
 14 15  2  0
 15 16  1  0
 16 17  2  0
 17 18  1  0
  2 19  1  0
 19 20  2  0
 20 21  1  0
 21 22  2  0
 22 23  1  0
 23 24  2  0
 24 25  1  0
 25 26  2  0
 26 27  1  0
 27 28  2  0
 11  7  1  0
 17 12  1  0
 28 19  1  0
 27 22  1  0
  3 29  1  0
  4 30  1  0
  4 31  1  0
  8 32  1  0
  8 33  1  0
  9 34  1  0
  9 35  1  0
 10 36  1  0
 10 37  1  0
 11 38  1  6
 13 39  1  0
 14 40  1  0
 15 41  1  0
 16 42  1  0
 20 43  1  0
 21 44  1  0
 23 45  1  0
 24 46  1  0
 25 47  1  0
 26 48  1  0
M  END
>  <smiles>  (87) 
O=C(NCC(=O)N1CCCC1c1ccccc1Cl)c1ccc2ccccc2n1

>  <score_type>  (87) 
oracle

>  <origin>  (87) 
autodockgpu

>  <m_score__min__energy>  (87) 
-8.9000000000000004

>  <m_primary>  (87) 
energy

>  <rmsd>  (87) 
2.918321163987725

>  <m_score__min__rmsd>  (87) 
2.918321163987725

>  <meeko>  (87) 
{"free_energy": -8.87, "intermolecular_energy": -10.36, "internal_energy": -1.21, "cluster_size": 14, "cluster_id": 1, "rank_in_cluster": 2}

>  <energy>  (87) 
-8.06

>  <cluster_rmsd>  (87) 
1.8

>  <cluster>  (87) 
3

$$$$

     RDKit          3D

 48 51  0  0  0  0  0  0  0  0999 V2000
  141.4350   72.2160  221.7330 O   0  0  0  0  0  0  0  0  0  0  0  0
  140.4590   72.4560  222.4940 C   0  0  0  0  0  0  0  0  0  0  0  0
  139.5680   73.5470  222.2600 N   0  0  0  0  0  0  0  0  0  0  0  0
  139.6980   74.4350  221.1580 C   0  0  0  0  0  0  0  0  0  0  0  0
  140.9700   75.1030  220.9090 C   0  0  0  0  0  0  0  0  0  0  0  0
  141.7130   75.2340  221.9670 O   0  0  0  0  0  0  0  0  0  0  0  0
  141.4880   75.6250  219.6890 N   0  0  0  0  0  0  0  0  0  0  0  0
  141.2830   76.9480  219.0940 C   0  0  0  0  0  0  0  0  0  0  0  0
  142.5660   77.1150  218.2420 C   0  0  0  0  0  0  0  0  0  0  0  0
  142.8030   75.7190  217.7490 C   0  0  0  0  0  0  0  0  0  0  0  0
  142.3560   74.8310  218.8440 C   0  0  1  0  0  0  0  0  0  0  0  0
  143.4500   74.1390  219.5510 C   0  0  0  0  0  0  0  0  0  0  0  0
  144.4220   74.8860  220.1930 C   0  0  0  0  0  0  0  0  0  0  0  0
  145.4780   74.3250  220.8780 C   0  0  0  0  0  0  0  0  0  0  0  0
  145.6070   72.9410  220.9470 C   0  0  0  0  0  0  0  0  0  0  0  0
  144.6420   72.1900  220.3090 C   0  0  0  0  0  0  0  0  0  0  0  0
  143.5860   72.7680  219.6240 C   0  0  0  0  0  0  0  0  0  0  0  0
  142.4390   71.6860  218.8650 Cl  0  0  0  0  0  0  0  0  0  0  0  0
  140.2210   71.5960  223.6560 C   0  0  0  0  0  0  0  0  0  0  0  0
  139.5230   70.4130  223.5300 C   0  0  0  0  0  0  0  0  0  0  0  0
  139.2870   69.5910  224.5980 C   0  0  0  0  0  0  0  0  0  0  0  0
  139.7640   69.9590  225.8450 C   0  0  0  0  0  0  0  0  0  0  0  0
  139.5820   69.2050  226.9790 C   0  0  0  0  0  0  0  0  0  0  0  0
  140.0800   69.6130  228.2130 C   0  0  0  0  0  0  0  0  0  0  0  0
  140.7740   70.7960  228.3210 C   0  0  0  0  0  0  0  0  0  0  0  0
  140.9500   71.5420  227.1780 C   0  0  0  0  0  0  0  0  0  0  0  0
  140.4560   71.1360  225.9560 C   0  0  0  0  0  0  0  0  0  0  0  0
  140.6640   71.9090  224.8890 N   0  0  0  0  0  0  0  0  0  0  0  0
  138.7760   73.6820  222.9600 H   0  0  0  0  0  0  0  0  0  0  0  0
  139.4603   73.8561  220.2533 H   0  0  0  0  0  0  0  0  0  0  0  0
  139.0228   75.2634  221.4184 H   0  0  0  0  0  0  0  0  0  0  0  0
  140.3799   76.9692  218.4663 H   0  0  0  0  0  0  0  0  0  0  0  0
  141.1310   77.7495  219.8319 H   0  0  0  0  0  0  0  0  0  0  0  0
  142.4018   77.8107  217.4059 H   0  0  0  0  0  0  0  0  0  0  0  0
  143.4150   77.5361  218.8004 H   0  0  0  0  0  0  0  0  0  0  0  0
  142.2179   75.5290  216.8371 H   0  0  0  0  0  0  0  0  0  0  0  0
  143.8595   75.5508  217.4932 H   0  0  0  0  0  0  0  0  0  0  0  0
  141.7961   73.9755  218.4381 H   0  0  0  0  0  0  0  0  0  0  0  0
  144.3480   75.9828  220.1546 H   0  0  0  0  0  0  0  0  0  0  0  0
  146.2193   74.9714  221.3705 H   0  0  0  0  0  0  0  0  0  0  0  0
  146.4408   72.4675  221.4860 H   0  0  0  0  0  0  0  0  0  0  0  0
  144.7136   71.0929  220.3455 H   0  0  0  0  0  0  0  0  0  0  0  0
  139.1441   70.1212  222.5394 H   0  0  0  0  0  0  0  0  0  0  0  0
  138.7274   68.6529  224.4683 H   0  0  0  0  0  0  0  0  0  0  0  0
  139.0296   68.2563  226.9100 H   0  0  0  0  0  0  0  0  0  0  0  0
  139.9184   68.9882  229.1038 H   0  0  0  0  0  0  0  0  0  0  0  0
  141.1746   71.1341  229.2881 H   0  0  0  0  0  0  0  0  0  0  0  0
  141.5018   72.4915  227.2410 H   0  0  0  0  0  0  0  0  0  0  0  0
  1  2  2  0
  2  3  1  0
  3  4  1  0
  4  5  1  0
  5  6  2  0
  5  7  1  0
  7  8  1  0
  8  9  1  0
  9 10  1  0
 10 11  1  0
 11 12  1  0
 12 13  2  0
 13 14  1  0
 14 15  2  0
 15 16  1  0
 16 17  2  0
 17 18  1  0
  2 19  1  0
 19 20  2  0
 20 21  1  0
 21 22  2  0
 22 23  1  0
 23 24  2  0
 24 25  1  0
 25 26  2  0
 26 27  1  0
 27 28  2  0
 11  7  1  0
 17 12  1  0
 28 19  1  0
 27 22  1  0
  3 29  1  0
  4 30  1  0
  4 31  1  0
  8 32  1  0
  8 33  1  0
  9 34  1  0
  9 35  1  0
 10 36  1  0
 10 37  1  0
 11 38  1  6
 13 39  1  0
 14 40  1  0
 15 41  1  0
 16 42  1  0
 20 43  1  0
 21 44  1  0
 23 45  1  0
 24 46  1  0
 25 47  1  0
 26 48  1  0
M  END
>  <smiles>  (88) 
O=C(NCC(=O)N1CCCC1c1ccccc1Cl)c1ccc2ccccc2n1

>  <score_type>  (88) 
oracle

>  <origin>  (88) 
autodockgpu

>  <m_score__min__energy>  (88) 
-8.9000000000000004

>  <m_primary>  (88) 
energy

>  <rmsd>  (88) 
2.1126802787699224

>  <m_score__min__rmsd>  (88) 
2.1126802787699224

>  <meeko>  (88) 
{"free_energy": -8.33, "intermolecular_energy": -9.82, "internal_energy": -1.87, "cluster_size": 20, "cluster_id": 2, "rank_in_cluster": 11}

>  <energy>  (88) 
-8.05

>  <cluster_rmsd>  (88) 
1.8

>  <cluster>  (88) 
3

$$$$

     RDKit          3D

 48 51  0  0  0  0  0  0  0  0999 V2000
  139.4100   70.9030  221.3330 O   0  0  0  0  0  0  0  0  0  0  0  0
  139.6400   71.5210  222.4080 C   0  0  0  0  0  0  0  0  0  0  0  0
  139.8610   72.9320  222.4360 N   0  0  0  0  0  0  0  0  0  0  0  0
  139.8270   73.7480  221.2730 C   0  0  0  0  0  0  0  0  0  0  0  0
  140.7200   74.8960  221.1640 C   0  0  0  0  0  0  0  0  0  0  0  0
  141.0700   75.4030  222.3080 O   0  0  0  0  0  0  0  0  0  0  0  0
  141.2390   75.5230  219.9940 N   0  0  0  0  0  0  0  0  0  0  0  0
  140.9720   76.8670  219.4770 C   0  0  0  0  0  0  0  0  0  0  0  0
  142.2650   77.1610  218.6770 C   0  0  0  0  0  0  0  0  0  0  0  0
  142.5990   75.8150  218.1070 C   0  0  0  0  0  0  0  0  0  0  0  0
  142.1760   74.8350  219.1300 C   0  0  1  0  0  0  0  0  0  0  0  0
  143.2900   74.1650  219.8270 C   0  0  0  0  0  0  0  0  0  0  0  0
  144.4010   74.9030  220.1970 C   0  0  0  0  0  0  0  0  0  0  0  0
  145.4860   74.3600  220.8510 C   0  0  0  0  0  0  0  0  0  0  0  0
  145.5000   73.0060  221.1710 C   0  0  0  0  0  0  0  0  0  0  0  0
  144.3960   72.2650  220.8060 C   0  0  0  0  0  0  0  0  0  0  0  0
  143.3130   72.8240  220.1490 C   0  0  0  0  0  0  0  0  0  0  0  0
  141.9840   71.7570  219.7510 Cl  0  0  0  0  0  0  0  0  0  0  0  0
  139.6840   70.7810  223.6710 C   0  0  0  0  0  0  0  0  0  0  0  0
  139.1890   69.4970  223.7570 C   0  0  0  0  0  0  0  0  0  0  0  0
  139.2170   68.7830  224.9240 C   0  0  0  0  0  0  0  0  0  0  0  0
  139.7620   69.3690  226.0550 C   0  0  0  0  0  0  0  0  0  0  0  0
  139.8390   68.7390  227.2720 C   0  0  0  0  0  0  0  0  0  0  0  0
  140.3960   69.3660  228.3840 C   0  0  0  0  0  0  0  0  0  0  0  0
  140.8860   70.6470  228.2810 C   0  0  0  0  0  0  0  0  0  0  0  0
  140.8030   71.2680  227.0550 C   0  0  0  0  0  0  0  0  0  0  0  0
  140.2510   70.6450  225.9550 C   0  0  0  0  0  0  0  0  0  0  0  0
  140.2030   71.3060  224.7980 N   0  0  0  0  0  0  0  0  0  0  0  0
  140.0580   73.3700  223.3870 H   0  0  0  0  0  0  0  0  0  0  0  0
  140.0465   73.0920  220.4177 H   0  0  0  0  0  0  0  0  0  0  0  0
  138.8279   74.2064  221.3135 H   0  0  0  0  0  0  0  0  0  0  0  0
  140.0864   76.8766  218.8246 H   0  0  0  0  0  0  0  0  0  0  0  0
  140.7529   77.6096  220.2584 H   0  0  0  0  0  0  0  0  0  0  0  0
  142.0822   77.8971  217.8803 H   0  0  0  0  0  0  0  0  0  0  0  0
  143.0717   77.5946  219.2863 H   0  0  0  0  0  0  0  0  0  0  0  0
  142.0521   75.6494  217.1671 H   0  0  0  0  0  0  0  0  0  0  0  0
  143.6705   75.7252  217.8752 H   0  0  0  0  0  0  0  0  0  0  0  0
  141.6800   73.9753  218.6558 H   0  0  0  0  0  0  0  0  0  0  0  0
  144.4189   75.9764  219.9572 H   0  0  0  0  0  0  0  0  0  0  0  0
  146.3412   74.9974  221.1201 H   0  0  0  0  0  0  0  0  0  0  0  0
  146.3535   72.5473  221.6918 H   0  0  0  0  0  0  0  0  0  0  0  0
  144.3749   71.1915  221.0453 H   0  0  0  0  0  0  0  0  0  0  0  0
  138.7576   69.0316  222.8585 H   0  0  0  0  0  0  0  0  0  0  0  0
  138.8134   67.7605  224.9635 H   0  0  0  0  0  0  0  0  0  0  0  0
  139.4515   67.7143  227.3715 H   0  0  0  0  0  0  0  0  0  0  0  0
  140.4441   68.8356  229.3465 H   0  0  0  0  0  0  0  0  0  0  0  0
  141.3291   71.1579  229.1485 H   0  0  0  0  0  0  0  0  0  0  0  0
  141.1888   72.2927  226.9494 H   0  0  0  0  0  0  0  0  0  0  0  0
  1  2  2  0
  2  3  1  0
  3  4  1  0
  4  5  1  0
  5  6  2  0
  5  7  1  0
  7  8  1  0
  8  9  1  0
  9 10  1  0
 10 11  1  0
 11 12  1  0
 12 13  2  0
 13 14  1  0
 14 15  2  0
 15 16  1  0
 16 17  2  0
 17 18  1  0
  2 19  1  0
 19 20  2  0
 20 21  1  0
 21 22  2  0
 22 23  1  0
 23 24  2  0
 24 25  1  0
 25 26  2  0
 26 27  1  0
 27 28  2  0
 11  7  1  0
 17 12  1  0
 28 19  1  0
 27 22  1  0
  3 29  1  0
  4 30  1  0
  4 31  1  0
  8 32  1  0
  8 33  1  0
  9 34  1  0
  9 35  1  0
 10 36  1  0
 10 37  1  0
 11 38  1  6
 13 39  1  0
 14 40  1  0
 15 41  1  0
 16 42  1  0
 20 43  1  0
 21 44  1  0
 23 45  1  0
 24 46  1  0
 25 47  1  0
 26 48  1  0
M  END
>  <smiles>  (89) 
O=C(NCC(=O)N1CCCC1c1ccccc1Cl)c1ccc2ccccc2n1

>  <score_type>  (89) 
oracle

>  <origin>  (89) 
autodockgpu

>  <m_score__min__energy>  (89) 
-8.9000000000000004

>  <m_primary>  (89) 
energy

>  <rmsd>  (89) 
1.8609758173138509

>  <m_score__min__rmsd>  (89) 
1.8609758173138509

>  <meeko>  (89) 
{"free_energy": -8.26, "intermolecular_energy": -9.75, "internal_energy": -2.17, "cluster_size": 20, "cluster_id": 2, "rank_in_cluster": 14}

>  <energy>  (89) 
-8.02

>  <cluster_rmsd>  (89) 
1.79

>  <cluster>  (89) 
3

$$$$

     RDKit          3D

 48 51  0  0  0  0  0  0  0  0999 V2000
  140.0390   71.3780  221.2670 O   0  0  0  0  0  0  0  0  0  0  0  0
  139.8850   71.9560  222.3780 C   0  0  0  0  0  0  0  0  0  0  0  0
  139.6850   73.3670  222.4760 N   0  0  0  0  0  0  0  0  0  0  0  0
  139.6310   74.2240  221.3440 C   0  0  0  0  0  0  0  0  0  0  0  0
  139.5920   75.6710  221.5290 C   0  0  0  0  0  0  0  0  0  0  0  0
  139.9450   76.0600  222.7170 O   0  0  0  0  0  0  0  0  0  0  0  0
  139.2180   76.6860  220.6010 N   0  0  0  0  0  0  0  0  0  0  0  0
  138.0020   76.7890  219.7920 C   0  0  0  0  0  0  0  0  0  0  0  0
  137.8910   78.3200  219.5810 C   0  0  0  0  0  0  0  0  0  0  0  0
  139.3290   78.7280  219.4530 C   0  0  0  0  0  0  0  0  0  0  0  0
  140.0780   77.8250  220.3540 C   0  0  1  0  0  0  0  0  0  0  0  0
  140.6110   78.4790  221.5640 C   0  0  0  0  0  0  0  0  0  0  0  0
  141.9660   78.7420  221.6520 C   0  0  0  0  0  0  0  0  0  0  0  0
  142.5500   79.3490  222.7430 C   0  0  0  0  0  0  0  0  0  0  0  0
  141.7680   79.7290  223.8290 C   0  0  0  0  0  0  0  0  0  0  0  0
  140.4150   79.4700  223.7480 C   0  0  0  0  0  0  0  0  0  0  0  0
  139.8440   78.8590  222.6450 C   0  0  0  0  0  0  0  0  0  0  0  0
  138.1140   78.5970  222.6860 Cl  0  0  0  0  0  0  0  0  0  0  0  0
  139.9100   71.1660  223.6110 C   0  0  0  0  0  0  0  0  0  0  0  0
  139.4940   69.8510  223.6170 C   0  0  0  0  0  0  0  0  0  0  0  0
  139.5080   69.0900  224.7550 C   0  0  0  0  0  0  0  0  0  0  0  0
  139.9530   69.6590  225.9370 C   0  0  0  0  0  0  0  0  0  0  0  0
  140.0050   68.9830  227.1310 C   0  0  0  0  0  0  0  0  0  0  0  0
  140.4610   69.5940  228.2960 C   0  0  0  0  0  0  0  0  0  0  0  0
  140.8720   70.9070  228.2710 C   0  0  0  0  0  0  0  0  0  0  0  0
  140.8140   71.5740  227.0680 C   0  0  0  0  0  0  0  0  0  0  0  0
  140.3630   70.9660  225.9150 C   0  0  0  0  0  0  0  0  0  0  0  0
  140.3330   71.6720  224.7850 N   0  0  0  0  0  0  0  0  0  0  0  0
  139.5750   73.7710  223.4540 H   0  0  0  0  0  0  0  0  0  0  0  0
  140.5213   74.0048  220.7363 H   0  0  0  0  0  0  0  0  0  0  0  0
  138.6501   73.9979  220.9005 H   0  0  0  0  0  0  0  0  0  0  0  0
  138.1121   76.2595  218.8341 H   0  0  0  0  0  0  0  0  0  0  0  0
  137.1150   76.3384  220.2613 H   0  0  0  0  0  0  0  0  0  0  0  0
  137.3265   78.5566  218.6670 H   0  0  0  0  0  0  0  0  0  0  0  0
  137.3552   78.8392  220.3893 H   0  0  0  0  0  0  0  0  0  0  0  0
  139.6721   78.6065  218.4150 H   0  0  0  0  0  0  0  0  0  0  0  0
  139.4783   79.7850  219.7184 H   0  0  0  0  0  0  0  0  0  0  0  0
  141.0083   77.4882  219.8733 H   0  0  0  0  0  0  0  0  0  0  0  0
  142.6101   78.4521  220.8087 H   0  0  0  0  0  0  0  0  0  0  0  0
  143.6344   79.5330  222.7550 H   0  0  0  0  0  0  0  0  0  0  0  0
  142.2084   80.2141  224.7126 H   0  0  0  0  0  0  0  0  0  0  0  0
  139.7678   79.7591  224.5892 H   0  0  0  0  0  0  0  0  0  0  0  0
  139.1400   69.3997  222.6784 H   0  0  0  0  0  0  0  0  0  0  0  0
  139.1711   68.0431  224.7311 H   0  0  0  0  0  0  0  0  0  0  0  0
  139.6785   67.9332  227.1680 H   0  0  0  0  0  0  0  0  0  0  0  0
  140.4928   69.0264  229.2377 H   0  0  0  0  0  0  0  0  0  0  0  0
  141.2346   71.4068  229.1814 H   0  0  0  0  0  0  0  0  0  0  0  0
  141.1374   72.6245  227.0250 H   0  0  0  0  0  0  0  0  0  0  0  0
  1  2  2  0
  2  3  1  0
  3  4  1  0
  4  5  1  0
  5  6  2  0
  5  7  1  0
  7  8  1  0
  8  9  1  0
  9 10  1  0
 10 11  1  0
 11 12  1  0
 12 13  2  0
 13 14  1  0
 14 15  2  0
 15 16  1  0
 16 17  2  0
 17 18  1  0
  2 19  1  0
 19 20  2  0
 20 21  1  0
 21 22  2  0
 22 23  1  0
 23 24  2  0
 24 25  1  0
 25 26  2  0
 26 27  1  0
 27 28  2  0
 11  7  1  0
 17 12  1  0
 28 19  1  0
 27 22  1  0
  3 29  1  0
  4 30  1  0
  4 31  1  0
  8 32  1  0
  8 33  1  0
  9 34  1  0
  9 35  1  0
 10 36  1  0
 10 37  1  0
 11 38  1  6
 13 39  1  0
 14 40  1  0
 15 41  1  0
 16 42  1  0
 20 43  1  0
 21 44  1  0
 23 45  1  0
 24 46  1  0
 25 47  1  0
 26 48  1  0
M  END
>  <smiles>  (90) 
O=C(NCC(=O)N1CCCC1c1ccccc1Cl)c1ccc2ccccc2n1

>  <score_type>  (90) 
oracle

>  <origin>  (90) 
autodockgpu

>  <m_score__min__energy>  (90) 
-8.9000000000000004

>  <m_primary>  (90) 
energy

>  <rmsd>  (90) 
1.7326320166323987

>  <m_score__min__rmsd>  (90) 
1.7326320166323987

>  <meeko>  (90) 
{"free_energy": -8.23, "intermolecular_energy": -9.72, "internal_energy": -1.49, "cluster_size": 14, "cluster_id": 1, "rank_in_cluster": 10}

>  <energy>  (90) 
-8.01

>  <cluster_rmsd>  (90) 
1.66

>  <cluster>  (90) 
3

$$$$

     RDKit          3D

 48 51  0  0  0  0  0  0  0  0999 V2000
  139.9300   71.2020  221.1990 O   0  0  0  0  0  0  0  0  0  0  0  0
  139.8340   71.8910  222.2510 C   0  0  0  0  0  0  0  0  0  0  0  0
  139.6350   73.3050  222.2130 N   0  0  0  0  0  0  0  0  0  0  0  0
  139.5180   74.0410  221.0020 C   0  0  0  0  0  0  0  0  0  0  0  0
  140.6860   74.2270  220.1490 C   0  0  0  0  0  0  0  0  0  0  0  0
  140.4220   74.7900  219.0080 O   0  0  0  0  0  0  0  0  0  0  0  0
  142.0440   73.8710  220.3940 N   0  0  0  0  0  0  0  0  0  0  0  0
  142.6170   72.5460  220.6380 C   0  0  0  0  0  0  0  0  0  0  0  0
  144.0750   72.7360  220.1490 C   0  0  0  0  0  0  0  0  0  0  0  0
  144.3670   74.1480  220.5630 C   0  0  0  0  0  0  0  0  0  0  0  0
  143.0870   74.8760  220.4170 C   0  0  1  0  0  0  0  0  0  0  0  0
  143.0560   75.8330  219.2950 C   0  0  0  0  0  0  0  0  0  0  0  0
  143.6230   75.4760  218.0840 C   0  0  0  0  0  0  0  0  0  0  0  0
  143.6390   76.3040  216.9830 C   0  0  0  0  0  0  0  0  0  0  0  0
  143.0670   77.5710  217.0560 C   0  0  0  0  0  0  0  0  0  0  0  0
  142.5000   77.9330  218.2610 C   0  0  0  0  0  0  0  0  0  0  0  0
  142.4920   77.0890  219.3580 C   0  0  0  0  0  0  0  0  0  0  0  0
  141.7350   77.6880  220.8190 Cl  0  0  0  0  0  0  0  0  0  0  0  0
  139.9270   71.2330  223.5560 C   0  0  0  0  0  0  0  0  0  0  0  0
  139.5290   69.9220  223.7170 C   0  0  0  0  0  0  0  0  0  0  0  0
  139.6050   69.2830  224.9250 C   0  0  0  0  0  0  0  0  0  0  0  0
  140.0970   69.9750  226.0200 C   0  0  0  0  0  0  0  0  0  0  0  0
  140.2150   69.4260  227.2730 C   0  0  0  0  0  0  0  0  0  0  0  0
  140.7160   70.1590  228.3460 C   0  0  0  0  0  0  0  0  0  0  0  0
  141.1080   71.4660  228.1670 C   0  0  0  0  0  0  0  0  0  0  0  0
  140.9850   72.0040  226.9060 C   0  0  0  0  0  0  0  0  0  0  0  0
  140.4880   71.2770  225.8450 C   0  0  0  0  0  0  0  0  0  0  0  0
  140.3970   71.8620  224.6510 N   0  0  0  0  0  0  0  0  0  0  0  0
  139.5750   73.8090  223.1490 H   0  0  0  0  0  0  0  0  0  0  0  0
  138.7569   73.5318  220.3926 H   0  0  0  0  0  0  0  0  0  0  0  0
  139.2893   75.0607  221.3455 H   0  0  0  0  0  0  0  0  0  0  0  0
  142.5836   72.2857  221.7062 H   0  0  0  0  0  0  0  0  0  0  0  0
  142.0808   71.7290  220.1331 H   0  0  0  0  0  0  0  0  0  0  0  0
  144.7565   72.0269  220.6418 H   0  0  0  0  0  0  0  0  0  0  0  0
  144.2064   72.5557  219.0719 H   0  0  0  0  0  0  0  0  0  0  0  0
  144.7099   74.1791  221.6077 H   0  0  0  0  0  0  0  0  0  0  0  0
  145.1633   74.5962  219.9507 H   0  0  0  0  0  0  0  0  0  0  0  0
  142.9309   75.5521  221.2706 H   0  0  0  0  0  0  0  0  0  0  0  0
  144.0840   74.4811  217.9962 H   0  0  0  0  0  0  0  0  0  0  0  0
  144.1039   75.9638  216.0459 H   0  0  0  0  0  0  0  0  0  0  0  0
  143.0669   78.2526  216.1926 H   0  0  0  0  0  0  0  0  0  0  0  0
  142.0382   78.9271  218.3529 H   0  0  0  0  0  0  0  0  0  0  0  0
  139.1384   69.3731  222.8474 H   0  0  0  0  0  0  0  0  0  0  0  0
  139.2806   68.2367  225.0250 H   0  0  0  0  0  0  0  0  0  0  0  0
  139.9065   68.3824  227.4331 H   0  0  0  0  0  0  0  0  0  0  0  0
  140.7986   69.6923  229.3386 H   0  0  0  0  0  0  0  0  0  0  0  0
  141.5059   72.0602  229.0028 H   0  0  0  0  0  0  0  0  0  0  0  0
  141.2929   73.0468  226.7395 H   0  0  0  0  0  0  0  0  0  0  0  0
  1  2  2  0
  2  3  1  0
  3  4  1  0
  4  5  1  0
  5  6  2  0
  5  7  1  0
  7  8  1  0
  8  9  1  0
  9 10  1  0
 10 11  1  0
 11 12  1  0
 12 13  2  0
 13 14  1  0
 14 15  2  0
 15 16  1  0
 16 17  2  0
 17 18  1  0
  2 19  1  0
 19 20  2  0
 20 21  1  0
 21 22  2  0
 22 23  1  0
 23 24  2  0
 24 25  1  0
 25 26  2  0
 26 27  1  0
 27 28  2  0
 11  7  1  0
 17 12  1  0
 28 19  1  0
 27 22  1  0
  3 29  1  0
  4 30  1  0
  4 31  1  0
  8 32  1  0
  8 33  1  0
  9 34  1  0
  9 35  1  0
 10 36  1  0
 10 37  1  0
 11 38  1  1
 13 39  1  0
 14 40  1  0
 15 41  1  0
 16 42  1  0
 20 43  1  0
 21 44  1  0
 23 45  1  0
 24 46  1  0
 25 47  1  0
 26 48  1  0
M  END
>  <smiles>  (91) 
O=C(NCC(=O)N1CCCC1c1ccccc1Cl)c1ccc2ccccc2n1

>  <score_type>  (91) 
oracle

>  <origin>  (91) 
autodockgpu

>  <m_score__min__energy>  (91) 
-8.9000000000000004

>  <m_primary>  (91) 
energy

>  <rmsd>  (91) 
3.002733739250289

>  <m_score__min__rmsd>  (91) 
3.002733739250289

>  <meeko>  (91) 
{"free_energy": -8.01, "intermolecular_energy": -9.5, "internal_energy": -1.83, "cluster_size": 9, "cluster_id": 3, "rank_in_cluster": 6}

>  <energy>  (91) 
-7.95

>  <cluster_rmsd>  (91) 
1.21

>  <cluster>  (91) 
3

$$$$

     RDKit          3D

 48 51  0  0  0  0  0  0  0  0999 V2000
  140.8500   71.3210  221.2710 O   0  0  0  0  0  0  0  0  0  0  0  0
  140.3990   71.9500  222.2670 C   0  0  0  0  0  0  0  0  0  0  0  0
  140.0370   73.3290  222.1900 N   0  0  0  0  0  0  0  0  0  0  0  0
  140.1430   74.0960  220.9980 C   0  0  0  0  0  0  0  0  0  0  0  0
  140.9460   75.3130  220.9850 C   0  0  0  0  0  0  0  0  0  0  0  0
  141.0830   75.8680  222.1520 O   0  0  0  0  0  0  0  0  0  0  0  0
  141.5780   75.9610  219.8850 N   0  0  0  0  0  0  0  0  0  0  0  0
  141.5430   77.3760  219.5070 C   0  0  0  0  0  0  0  0  0  0  0  0
  142.8790   77.5320  218.7390 C   0  0  0  0  0  0  0  0  0  0  0  0
  142.9950   76.2140  218.0330 C   0  0  0  0  0  0  0  0  0  0  0  0
  142.4020   75.2190  218.9530 C   0  0  1  0  0  0  0  0  0  0  0  0
  143.3800   74.3070  219.5750 C   0  0  0  0  0  0  0  0  0  0  0  0
  144.4480   74.8360  220.2790 C   0  0  0  0  0  0  0  0  0  0  0  0
  145.4080   74.0600  220.8930 C   0  0  0  0  0  0  0  0  0  0  0  0
  145.3320   72.6730  220.8210 C   0  0  0  0  0  0  0  0  0  0  0  0
  144.2700   72.1390  220.1200 C   0  0  0  0  0  0  0  0  0  0  0  0
  143.3140   72.9310  219.5090 C   0  0  0  0  0  0  0  0  0  0  0  0
  142.0240   72.1100  218.6570 Cl  0  0  0  0  0  0  0  0  0  0  0  0
  140.2360   71.2540  223.5450 C   0  0  0  0  0  0  0  0  0  0  0  0
  139.5980   70.0330  223.6100 C   0  0  0  0  0  0  0  0  0  0  0  0
  139.4330   69.3610  224.7910 C   0  0  0  0  0  0  0  0  0  0  0  0
  139.9210   69.9260  225.9580 C   0  0  0  0  0  0  0  0  0  0  0  0
  139.8070   69.3340  227.1920 C   0  0  0  0  0  0  0  0  0  0  0  0
  140.3140   69.9380  228.3390 C   0  0  0  0  0  0  0  0  0  0  0  0
  140.9470   71.1560  228.2570 C   0  0  0  0  0  0  0  0  0  0  0  0
  141.0550   71.7390  227.0140 C   0  0  0  0  0  0  0  0  0  0  0  0
  140.5520   71.1390  225.8780 C   0  0  0  0  0  0  0  0  0  0  0  0
  140.6920   71.7600  224.7070 N   0  0  0  0  0  0  0  0  0  0  0  0
  139.6740   73.7830  223.0830 H   0  0  0  0  0  0  0  0  0  0  0  0
  140.5613   73.4309  220.2282 H   0  0  0  0  0  0  0  0  0  0  0  0
  139.1189   74.4662  220.8427 H   0  0  0  0  0  0  0  0  0  0  0  0
  140.6811   77.5966  218.8601 H   0  0  0  0  0  0  0  0  0  0  0  0
  141.4368   78.0624  220.3600 H   0  0  0  0  0  0  0  0  0  0  0  0
  142.8321   78.3653  218.0225 H   0  0  0  0  0  0  0  0  0  0  0  0
  143.7369   77.7620  219.3880 H   0  0  0  0  0  0  0  0  0  0  0  0
  142.4413   76.2369  217.0828 H   0  0  0  0  0  0  0  0  0  0  0  0
  144.0401   75.9723  217.7893 H   0  0  0  0  0  0  0  0  0  0  0  0
  141.7783   74.5054  218.3947 H   0  0  0  0  0  0  0  0  0  0  0  0
  144.5351   75.9301  220.3522 H   0  0  0  0  0  0  0  0  0  0  0  0
  146.2342   74.5378  221.4399 H   0  0  0  0  0  0  0  0  0  0  0  0
  146.0847   72.0305  221.3013 H   0  0  0  0  0  0  0  0  0  0  0  0
  144.1804   71.0453  220.0443 H   0  0  0  0  0  0  0  0  0  0  0  0
  139.2095   69.5850  222.6835 H   0  0  0  0  0  0  0  0  0  0  0  0
  138.9210   68.3877  224.8131 H   0  0  0  0  0  0  0  0  0  0  0  0
  139.3033   68.3597  227.2759 H   0  0  0  0  0  0  0  0  0  0  0  0
  140.2080   69.4396  229.3139 H   0  0  0  0  0  0  0  0  0  0  0  0
  141.3531   71.6477  229.1533 H   0  0  0  0  0  0  0  0  0  0  0  0
  141.5578   72.7132  226.9241 H   0  0  0  0  0  0  0  0  0  0  0  0
  1  2  2  0
  2  3  1  0
  3  4  1  0
  4  5  1  0
  5  6  2  0
  5  7  1  0
  7  8  1  0
  8  9  1  0
  9 10  1  0
 10 11  1  0
 11 12  1  0
 12 13  2  0
 13 14  1  0
 14 15  2  0
 15 16  1  0
 16 17  2  0
 17 18  1  0
  2 19  1  0
 19 20  2  0
 20 21  1  0
 21 22  2  0
 22 23  1  0
 23 24  2  0
 24 25  1  0
 25 26  2  0
 26 27  1  0
 27 28  2  0
 11  7  1  0
 17 12  1  0
 28 19  1  0
 27 22  1  0
  3 29  1  0
  4 30  1  0
  4 31  1  0
  8 32  1  0
  8 33  1  0
  9 34  1  0
  9 35  1  0
 10 36  1  0
 10 37  1  0
 11 38  1  6
 13 39  1  0
 14 40  1  0
 15 41  1  0
 16 42  1  0
 20 43  1  0
 21 44  1  0
 23 45  1  0
 24 46  1  0
 25 47  1  0
 26 48  1  0
M  END
>  <smiles>  (92) 
O=C(NCC(=O)N1CCCC1c1ccccc1Cl)c1ccc2ccccc2n1

>  <score_type>  (92) 
oracle

>  <origin>  (92) 
autodockgpu

>  <m_score__min__energy>  (92) 
-8.9000000000000004

>  <m_primary>  (92) 
energy

>  <rmsd>  (92) 
2.1936538593636543

>  <m_score__min__rmsd>  (92) 
2.1936538593636543

>  <meeko>  (92) 
{"free_energy": -8.53, "intermolecular_energy": -10.02, "internal_energy": -2.01, "cluster_size": 20, "cluster_id": 2, "rank_in_cluster": 4}

>  <energy>  (92) 
-7.95

>  <cluster_rmsd>  (92) 
1.76

>  <cluster>  (92) 
3

$$$$

     RDKit          3D

 48 51  0  0  0  0  0  0  0  0999 V2000
  140.0550   71.8120  221.0350 O   0  0  0  0  0  0  0  0  0  0  0  0
  139.8800   72.3100  222.1810 C   0  0  0  0  0  0  0  0  0  0  0  0
  139.6900   73.7120  222.3750 N   0  0  0  0  0  0  0  0  0  0  0  0
  139.6700   74.6490  221.3070 C   0  0  0  0  0  0  0  0  0  0  0  0
  140.6540   75.7250  221.2660 C   0  0  0  0  0  0  0  0  0  0  0  0
  141.4630   75.7400  222.2830 O   0  0  0  0  0  0  0  0  0  0  0  0
  140.8350   76.7420  220.2830 N   0  0  0  0  0  0  0  0  0  0  0  0
  140.6160   76.6710  218.8370 C   0  0  0  0  0  0  0  0  0  0  0  0
  140.3160   78.1500  218.4890 C   0  0  0  0  0  0  0  0  0  0  0  0
  141.2300   78.8870  219.4230 C   0  0  0  0  0  0  0  0  0  0  0  0
  141.2820   78.0690  220.6540 C   0  0  1  0  0  0  0  0  0  0  0  0
  140.5830   78.6620  221.8090 C   0  0  0  0  0  0  0  0  0  0  0  0
  139.2190   78.4730  221.9460 C   0  0  0  0  0  0  0  0  0  0  0  0
  138.4850   78.9900  222.9920 C   0  0  0  0  0  0  0  0  0  0  0  0
  139.1140   79.7440  223.9780 C   0  0  0  0  0  0  0  0  0  0  0  0
  140.4740   79.9360  223.8470 C   0  0  0  0  0  0  0  0  0  0  0  0
  141.1970   79.4110  222.7900 C   0  0  0  0  0  0  0  0  0  0  0  0
  142.9160   79.7380  222.7600 Cl  0  0  0  0  0  0  0  0  0  0  0  0
  139.8680   71.4340  223.3540 C   0  0  0  0  0  0  0  0  0  0  0  0
  139.3660   70.1520  223.2750 C   0  0  0  0  0  0  0  0  0  0  0  0
  139.3430   69.3120  224.3560 C   0  0  0  0  0  0  0  0  0  0  0  0
  139.8410   69.7640  225.5670 C   0  0  0  0  0  0  0  0  0  0  0  0
  139.8640   69.0010  226.7090 C   0  0  0  0  0  0  0  0  0  0  0  0
  140.3750   69.4970  227.9060 C   0  0  0  0  0  0  0  0  0  0  0  0
  140.8720   70.7780  227.9670 C   0  0  0  0  0  0  0  0  0  0  0  0
  140.8430   71.5320  226.8160 C   0  0  0  0  0  0  0  0  0  0  0  0
  140.3370   71.0400  225.6310 C   0  0  0  0  0  0  0  0  0  0  0  0
  140.3400   71.8260  224.5540 N   0  0  0  0  0  0  0  0  0  0  0  0
  139.5590   74.0460  223.3780 H   0  0  0  0  0  0  0  0  0  0  0  0
  139.7885   74.0738  220.3769 H   0  0  0  0  0  0  0  0  0  0  0  0
  138.7180   75.1805  221.4529 H   0  0  0  0  0  0  0  0  0  0  0  0
  141.5136   76.3104  218.3132 H   0  0  0  0  0  0  0  0  0  0  0  0
  139.8189   75.9732  218.5409 H   0  0  0  0  0  0  0  0  0  0  0  0
  140.5577   78.3695  217.4386 H   0  0  0  0  0  0  0  0  0  0  0  0
  139.2565   78.4237  218.6006 H   0  0  0  0  0  0  0  0  0  0  0  0
  142.2334   78.9828  218.9827 H   0  0  0  0  0  0  0  0  0  0  0  0
  140.8699   79.9064  219.6259 H   0  0  0  0  0  0  0  0  0  0  0  0
  142.3115   78.0197  221.0382 H   0  0  0  0  0  0  0  0  0  0  0  0
  138.6942   77.8806  221.1820 H   0  0  0  0  0  0  0  0  0  0  0  0
  137.4018   78.8065  223.0473 H   0  0  0  0  0  0  0  0  0  0  0  0
  138.5524   80.1678  224.8236 H   0  0  0  0  0  0  0  0  0  0  0  0
  141.0023   80.5272  224.6095 H   0  0  0  0  0  0  0  0  0  0  0  0
  138.9715   69.7929  222.3130 H   0  0  0  0  0  0  0  0  0  0  0  0
  138.9355   68.2944  224.2643 H   0  0  0  0  0  0  0  0  0  0  0  0
  139.4697   67.9746  226.6774 H   0  0  0  0  0  0  0  0  0  0  0  0
  140.3811   68.8627  228.8047 H   0  0  0  0  0  0  0  0  0  0  0  0
  141.2789   71.1861  228.9040 H   0  0  0  0  0  0  0  0  0  0  0  0
  141.2357   72.5592  226.8419 H   0  0  0  0  0  0  0  0  0  0  0  0
  1  2  2  0
  2  3  1  0
  3  4  1  0
  4  5  1  0
  5  6  2  0
  5  7  1  0
  7  8  1  0
  8  9  1  0
  9 10  1  0
 10 11  1  0
 11 12  1  0
 12 13  2  0
 13 14  1  0
 14 15  2  0
 15 16  1  0
 16 17  2  0
 17 18  1  0
  2 19  1  0
 19 20  2  0
 20 21  1  0
 21 22  2  0
 22 23  1  0
 23 24  2  0
 24 25  1  0
 25 26  2  0
 26 27  1  0
 27 28  2  0
 11  7  1  0
 17 12  1  0
 28 19  1  0
 27 22  1  0
  3 29  1  0
  4 30  1  0
  4 31  1  0
  8 32  1  0
  8 33  1  0
  9 34  1  0
  9 35  1  0
 10 36  1  0
 10 37  1  0
 11 38  1  1
 13 39  1  0
 14 40  1  0
 15 41  1  0
 16 42  1  0
 20 43  1  0
 21 44  1  0
 23 45  1  0
 24 46  1  0
 25 47  1  0
 26 48  1  0
M  END
>  <smiles>  (93) 
O=C(NCC(=O)N1CCCC1c1ccccc1Cl)c1ccc2ccccc2n1

>  <score_type>  (93) 
oracle

>  <origin>  (93) 
autodockgpu

>  <m_score__min__energy>  (93) 
-8.9000000000000004

>  <m_primary>  (93) 
energy

>  <rmsd>  (93) 
1.5877502347297006

>  <m_score__min__rmsd>  (93) 
1.5877502347297006

>  <meeko>  (93) 
{"free_energy": -8.22, "intermolecular_energy": -9.71, "internal_energy": -1.6, "cluster_size": 14, "cluster_id": 1, "rank_in_cluster": 11}

>  <energy>  (93) 
-7.53

>  <cluster_rmsd>  (93) 
1.57

>  <cluster>  (93) 
3

$$$$

     RDKit          3D

 48 51  0  0  0  0  0  0  0  0999 V2000
  141.5090   72.1610  221.7460 O   0  0  0  0  0  0  0  0  0  0  0  0
  140.5120   72.4030  222.4790 C   0  0  0  0  0  0  0  0  0  0  0  0
  139.6150   73.4810  222.2030 N   0  0  0  0  0  0  0  0  0  0  0  0
  139.7630   74.3500  221.0880 C   0  0  0  0  0  0  0  0  0  0  0  0
  140.8940   75.2690  221.0280 C   0  0  0  0  0  0  0  0  0  0  0  0
  141.4280   75.5250  222.1850 O   0  0  0  0  0  0  0  0  0  0  0  0
  141.4700   75.9130  219.8950 N   0  0  0  0  0  0  0  0  0  0  0  0
  141.3670   77.3140  219.4830 C   0  0  0  0  0  0  0  0  0  0  0  0
  142.6740   77.5040  218.6750 C   0  0  0  0  0  0  0  0  0  0  0  0
  142.8260   76.1730  218.0000 C   0  0  0  0  0  0  0  0  0  0  0  0
  142.2980   75.1800  218.9590 C   0  0  1  0  0  0  0  0  0  0  0  0
  143.3290   74.3240  219.5770 C   0  0  0  0  0  0  0  0  0  0  0  0
  144.3910   74.9140  220.2410 C   0  0  0  0  0  0  0  0  0  0  0  0
  145.3970   74.1930  220.8470 C   0  0  0  0  0  0  0  0  0  0  0  0
  145.3780   72.8030  220.8100 C   0  0  0  0  0  0  0  0  0  0  0  0
  144.3220   72.2080  220.1500 C   0  0  0  0  0  0  0  0  0  0  0  0
  143.3180   72.9460  219.5450 C   0  0  0  0  0  0  0  0  0  0  0  0
  142.0430   72.0520  218.7470 Cl  0  0  0  0  0  0  0  0  0  0  0  0
  140.2550   71.5620  223.6490 C   0  0  0  0  0  0  0  0  0  0  0  0
  139.5510   70.3820  223.5310 C   0  0  0  0  0  0  0  0  0  0  0  0
  139.2960   69.5760  224.6080 C   0  0  0  0  0  0  0  0  0  0  0  0
  139.7610   69.9590  225.8560 C   0  0  0  0  0  0  0  0  0  0  0  0
  139.5600   69.2220  226.9980 C   0  0  0  0  0  0  0  0  0  0  0  0
  140.0470   69.6450  228.2320 C   0  0  0  0  0  0  0  0  0  0  0  0
  140.7480   70.8250  228.3320 C   0  0  0  0  0  0  0  0  0  0  0  0
  140.9420   71.5530  227.1800 C   0  0  0  0  0  0  0  0  0  0  0  0
  140.4590   71.1330  225.9580 C   0  0  0  0  0  0  0  0  0  0  0  0
  140.6850   71.8890  224.8830 N   0  0  0  0  0  0  0  0  0  0  0  0
  138.8050   73.6190  222.8810 H   0  0  0  0  0  0  0  0  0  0  0  0
  139.8234   73.7125  220.1936 H   0  0  0  0  0  0  0  0  0  0  0  0
  138.8949   75.0205  221.1714 H   0  0  0  0  0  0  0  0  0  0  0  0
  140.4798   77.4825  218.8549 H   0  0  0  0  0  0  0  0  0  0  0  0
  141.2555   78.0176  220.3212 H   0  0  0  0  0  0  0  0  0  0  0  0
  142.5734   78.3152  217.9389 H   0  0  0  0  0  0  0  0  0  0  0  0
  143.5384   77.7864  219.2939 H   0  0  0  0  0  0  0  0  0  0  0  0
  142.2482   76.1485  217.0643 H   0  0  0  0  0  0  0  0  0  0  0  0
  143.8738   75.9673  217.7357 H   0  0  0  0  0  0  0  0  0  0  0  0
  141.6888   74.4283  218.4358 H   0  0  0  0  0  0  0  0  0  0  0  0
  144.4339   76.0122  220.2871 H   0  0  0  0  0  0  0  0  0  0  0  0
  146.2161   74.7177  221.3606 H   0  0  0  0  0  0  0  0  0  0  0  0
  146.1691   72.2046  221.2854 H   0  0  0  0  0  0  0  0  0  0  0  0
  144.2761   71.1100  220.1028 H   0  0  0  0  0  0  0  0  0  0  0  0
  139.1825   70.0787  222.5399 H   0  0  0  0  0  0  0  0  0  0  0  0
  138.7314   68.6400  224.4847 H   0  0  0  0  0  0  0  0  0  0  0  0
  139.0016   68.2763  226.9360 H   0  0  0  0  0  0  0  0  0  0  0  0
  139.8709   69.0341  229.1296 H   0  0  0  0  0  0  0  0  0  0  0  0
  141.1396   71.1742  229.2988 H   0  0  0  0  0  0  0  0  0  0  0  0
  141.4997   72.4995  227.2356 H   0  0  0  0  0  0  0  0  0  0  0  0
  1  2  2  0
  2  3  1  0
  3  4  1  0
  4  5  1  0
  5  6  2  0
  5  7  1  0
  7  8  1  0
  8  9  1  0
  9 10  1  0
 10 11  1  0
 11 12  1  0
 12 13  2  0
 13 14  1  0
 14 15  2  0
 15 16  1  0
 16 17  2  0
 17 18  1  0
  2 19  1  0
 19 20  2  0
 20 21  1  0
 21 22  2  0
 22 23  1  0
 23 24  2  0
 24 25  1  0
 25 26  2  0
 26 27  1  0
 27 28  2  0
 11  7  1  0
 17 12  1  0
 28 19  1  0
 27 22  1  0
  3 29  1  0
  4 30  1  0
  4 31  1  0
  8 32  1  0
  8 33  1  0
  9 34  1  0
  9 35  1  0
 10 36  1  0
 10 37  1  0
 11 38  1  6
 13 39  1  0
 14 40  1  0
 15 41  1  0
 16 42  1  0
 20 43  1  0
 21 44  1  0
 23 45  1  0
 24 46  1  0
 25 47  1  0
 26 48  1  0
M  END
>  <smiles>  (94) 
O=C(NCC(=O)N1CCCC1c1ccccc1Cl)c1ccc2ccccc2n1

>  <score_type>  (94) 
oracle

>  <origin>  (94) 
autodockgpu

>  <m_score__min__energy>  (94) 
-8.9000000000000004

>  <m_primary>  (94) 
energy

>  <rmsd>  (94) 
2.146354311214675

>  <m_score__min__rmsd>  (94) 
2.146354311214675

>  <meeko>  (94) 
{"free_energy": -8.53, "intermolecular_energy": -10.03, "internal_energy": -1.89, "cluster_size": 20, "cluster_id": 2, "rank_in_cluster": 3}

>  <energy>  (94) 
-7.83

>  <cluster_rmsd>  (94) 
0.0

>  <cluster>  (94) 
4

$$$$

     RDKit          3D

 48 51  0  0  0  0  0  0  0  0999 V2000
  139.6500   70.8580  221.3060 O   0  0  0  0  0  0  0  0  0  0  0  0
  139.7850   71.4940  222.3870 C   0  0  0  0  0  0  0  0  0  0  0  0
  139.9330   72.9150  222.4150 N   0  0  0  0  0  0  0  0  0  0  0  0
  139.9270   73.7200  221.2440 C   0  0  0  0  0  0  0  0  0  0  0  0
  140.7850   74.8970  221.1670 C   0  0  0  0  0  0  0  0  0  0  0  0
  141.0980   75.3980  222.3240 O   0  0  0  0  0  0  0  0  0  0  0  0
  141.3040   75.5570  220.0160 N   0  0  0  0  0  0  0  0  0  0  0  0
  141.0450   76.9190  219.5420 C   0  0  0  0  0  0  0  0  0  0  0  0
  142.3380   77.2280  218.7460 C   0  0  0  0  0  0  0  0  0  0  0  0
  142.6590   75.8970  218.1320 C   0  0  0  0  0  0  0  0  0  0  0  0
  142.2320   74.8890  219.1260 C   0  0  1  0  0  0  0  0  0  0  0  0
  143.3430   74.1880  219.7970 C   0  0  0  0  0  0  0  0  0  0  0  0
  144.4490   74.9100  220.2110 C   0  0  0  0  0  0  0  0  0  0  0  0
  145.5310   74.3380  220.8450 C   0  0  0  0  0  0  0  0  0  0  0  0
  145.5470   72.9700  221.0970 C   0  0  0  0  0  0  0  0  0  0  0  0
  144.4480   72.2440  220.6870 C   0  0  0  0  0  0  0  0  0  0  0  0
  143.3680   72.8330  220.0510 C   0  0  0  0  0  0  0  0  0  0  0  0
  142.0450   71.7830  219.5900 Cl  0  0  0  0  0  0  0  0  0  0  0  0
  139.7920   70.7650  223.6570 C   0  0  0  0  0  0  0  0  0  0  0  0
  139.2780   69.4890  223.7430 C   0  0  0  0  0  0  0  0  0  0  0  0
  139.2720   68.7850  224.9170 C   0  0  0  0  0  0  0  0  0  0  0  0
  139.8000   69.3740  226.0540 C   0  0  0  0  0  0  0  0  0  0  0  0
  139.8420   68.7540  227.2790 C   0  0  0  0  0  0  0  0  0  0  0  0
  140.3840   69.3840  228.3970 C   0  0  0  0  0  0  0  0  0  0  0  0
  140.8930   70.6570  228.2930 C   0  0  0  0  0  0  0  0  0  0  0  0
  140.8440   71.2680  227.0600 C   0  0  0  0  0  0  0  0  0  0  0  0
  140.3080   70.6430  225.9540 C   0  0  0  0  0  0  0  0  0  0  0  0
  140.2940   71.2930  224.7910 N   0  0  0  0  0  0  0  0  0  0  0  0
  140.0520   73.3680  223.3710 H   0  0  0  0  0  0  0  0  0  0  0  0
  140.2092   73.0652  220.4064 H   0  0  0  0  0  0  0  0  0  0  0  0
  138.9121   74.1441  221.2323 H   0  0  0  0  0  0  0  0  0  0  0  0
  140.1571   76.9555  218.8938 H   0  0  0  0  0  0  0  0  0  0  0  0
  140.8343   77.6386  220.3469 H   0  0  0  0  0  0  0  0  0  0  0  0
  142.1581   77.9904  217.9737 H   0  0  0  0  0  0  0  0  0  0  0  0
  143.1506   77.6357  219.3653 H   0  0  0  0  0  0  0  0  0  0  0  0
  142.1069   75.7653  217.1897 H   0  0  0  0  0  0  0  0  0  0  0  0
  143.7288   75.8058  217.8926 H   0  0  0  0  0  0  0  0  0  0  0  0
  141.7268   74.0491  218.6266 H   0  0  0  0  0  0  0  0  0  0  0  0
  144.4653   75.9940  220.0248 H   0  0  0  0  0  0  0  0  0  0  0  0
  146.3822   74.9635  221.1518 H   0  0  0  0  0  0  0  0  0  0  0  0
  146.3981   72.4886  221.6008 H   0  0  0  0  0  0  0  0  0  0  0  0
  144.4288   71.1598  220.8716 H   0  0  0  0  0  0  0  0  0  0  0  0
  138.8593   69.0215  222.8396 H   0  0  0  0  0  0  0  0  0  0  0  0
  138.8546   67.7680  224.9568 H   0  0  0  0  0  0  0  0  0  0  0  0
  139.4380   67.7358  227.3796 H   0  0  0  0  0  0  0  0  0  0  0  0
  140.4048   68.8620  229.3650 H   0  0  0  0  0  0  0  0  0  0  0  0
  141.3247   71.1699  229.1651 H   0  0  0  0  0  0  0  0  0  0  0  0
  141.2451   72.2868  226.9540 H   0  0  0  0  0  0  0  0  0  0  0  0
  1  2  2  0
  2  3  1  0
  3  4  1  0
  4  5  1  0
  5  6  2  0
  5  7  1  0
  7  8  1  0
  8  9  1  0
  9 10  1  0
 10 11  1  0
 11 12  1  0
 12 13  2  0
 13 14  1  0
 14 15  2  0
 15 16  1  0
 16 17  2  0
 17 18  1  0
  2 19  1  0
 19 20  2  0
 20 21  1  0
 21 22  2  0
 22 23  1  0
 23 24  2  0
 24 25  1  0
 25 26  2  0
 26 27  1  0
 27 28  2  0
 11  7  1  0
 17 12  1  0
 28 19  1  0
 27 22  1  0
  3 29  1  0
  4 30  1  0
  4 31  1  0
  8 32  1  0
  8 33  1  0
  9 34  1  0
  9 35  1  0
 10 36  1  0
 10 37  1  0
 11 38  1  6
 13 39  1  0
 14 40  1  0
 15 41  1  0
 16 42  1  0
 20 43  1  0
 21 44  1  0
 23 45  1  0
 24 46  1  0
 25 47  1  0
 26 48  1  0
M  END
>  <smiles>  (95) 
O=C(NCC(=O)N1CCCC1c1ccccc1Cl)c1ccc2ccccc2n1

>  <score_type>  (95) 
oracle

>  <origin>  (95) 
autodockgpu

>  <m_score__min__energy>  (95) 
-8.9000000000000004

>  <m_primary>  (95) 
energy

>  <rmsd>  (95) 
1.9023153933229973

>  <m_score__min__rmsd>  (95) 
1.9023153933229973

>  <meeko>  (95) 
{"free_energy": -8.29, "intermolecular_energy": -9.78, "internal_energy": -2.14, "cluster_size": 20, "cluster_id": 2, "rank_in_cluster": 12}

>  <energy>  (95) 
-7.82

>  <cluster_rmsd>  (95) 
0.07

>  <cluster>  (95) 
4

$$$$

     RDKit          3D

 48 51  0  0  0  0  0  0  0  0999 V2000
  141.5410   72.3210  221.8310 O   0  0  0  0  0  0  0  0  0  0  0  0
  140.4710   72.4590  222.4850 C   0  0  0  0  0  0  0  0  0  0  0  0
  139.4880   73.4330  222.1310 N   0  0  0  0  0  0  0  0  0  0  0  0
  139.6260   74.3090  221.0200 C   0  0  0  0  0  0  0  0  0  0  0  0
  140.8360   75.1110  220.8730 C   0  0  0  0  0  0  0  0  0  0  0  0
  141.4720   75.3150  221.9870 O   0  0  0  0  0  0  0  0  0  0  0  0
  141.3920   75.6920  219.6970 N   0  0  0  0  0  0  0  0  0  0  0  0
  141.2220   77.0490  219.1730 C   0  0  0  0  0  0  0  0  0  0  0  0
  142.5280   77.2420  218.3630 C   0  0  0  0  0  0  0  0  0  0  0  0
  142.7560   75.8710  217.7980 C   0  0  0  0  0  0  0  0  0  0  0  0
  142.2680   74.9310  218.8300 C   0  0  1  0  0  0  0  0  0  0  0  0
  143.3340   74.1820  219.5230 C   0  0  0  0  0  0  0  0  0  0  0  0
  144.3600   74.8770  220.1390 C   0  0  0  0  0  0  0  0  0  0  0  0
  145.3950   74.2610  220.8090 C   0  0  0  0  0  0  0  0  0  0  0  0
  145.4440   72.8730  220.8890 C   0  0  0  0  0  0  0  0  0  0  0  0
  144.4240   72.1740  220.2770 C   0  0  0  0  0  0  0  0  0  0  0  0
  143.3900   72.8070  219.6070 C   0  0  0  0  0  0  0  0  0  0  0  0
  142.1680   71.7870  218.8810 Cl  0  0  0  0  0  0  0  0  0  0  0  0
  140.2170   71.5980  223.6430 C   0  0  0  0  0  0  0  0  0  0  0  0
  139.4890   70.4340  223.5130 C   0  0  0  0  0  0  0  0  0  0  0  0
  139.2370   69.6120  224.5780 C   0  0  0  0  0  0  0  0  0  0  0  0
  139.7300   69.9610  225.8250 C   0  0  0  0  0  0  0  0  0  0  0  0
  139.5340   69.2060  226.9550 C   0  0  0  0  0  0  0  0  0  0  0  0
  140.0480   69.5940  228.1900 C   0  0  0  0  0  0  0  0  0  0  0  0
  140.7730   70.7590  228.3010 C   0  0  0  0  0  0  0  0  0  0  0  0
  140.9620   71.5060  227.1610 C   0  0  0  0  0  0  0  0  0  0  0  0
  140.4510   71.1200  225.9380 C   0  0  0  0  0  0  0  0  0  0  0  0
  140.6740   71.8930  224.8750 N   0  0  0  0  0  0  0  0  0  0  0  0
  138.6190   73.4860  222.7440 H   0  0  0  0  0  0  0  0  0  0  0  0
  139.5426   73.6901  220.1145 H   0  0  0  0  0  0  0  0  0  0  0  0
  138.8415   75.0611  221.1902 H   0  0  0  0  0  0  0  0  0  0  0  0
  140.3352   77.1203  218.5260 H   0  0  0  0  0  0  0  0  0  0  0  0
  141.0638   77.8103  219.9511 H   0  0  0  0  0  0  0  0  0  0  0  0
  142.3953   77.9858  217.5636 H   0  0  0  0  0  0  0  0  0  0  0  0
  143.3692   77.6173  218.9643 H   0  0  0  0  0  0  0  0  0  0  0  0
  142.1913   75.7420  216.8629 H   0  0  0  0  0  0  0  0  0  0  0  0
  143.8160   75.6997  217.5591 H   0  0  0  0  0  0  0  0  0  0  0  0
  141.7049   74.1089  218.3642 H   0  0  0  0  0  0  0  0  0  0  0  0
  144.3489   75.9759  220.0915 H   0  0  0  0  0  0  0  0  0  0  0  0
  146.1826   74.8671  221.2806 H   0  0  0  0  0  0  0  0  0  0  0  0
  146.2592   72.3561  221.4164 H   0  0  0  0  0  0  0  0  0  0  0  0
  144.4322   71.0750  220.3227 H   0  0  0  0  0  0  0  0  0  0  0  0
  139.0986   70.1575  222.5225 H   0  0  0  0  0  0  0  0  0  0  0  0
  138.6527   68.6894  224.4461 H   0  0  0  0  0  0  0  0  0  0  0  0
  138.9571   68.2722  226.8832 H   0  0  0  0  0  0  0  0  0  0  0  0
  139.8744   68.9686  229.0781 H   0  0  0  0  0  0  0  0  0  0  0  0
  141.1869   71.0816  229.2677 H   0  0  0  0  0  0  0  0  0  0  0  0
  141.5386   72.4405  227.2262 H   0  0  0  0  0  0  0  0  0  0  0  0
  1  2  2  0
  2  3  1  0
  3  4  1  0
  4  5  1  0
  5  6  2  0
  5  7  1  0
  7  8  1  0
  8  9  1  0
  9 10  1  0
 10 11  1  0
 11 12  1  0
 12 13  2  0
 13 14  1  0
 14 15  2  0
 15 16  1  0
 16 17  2  0
 17 18  1  0
  2 19  1  0
 19 20  2  0
 20 21  1  0
 21 22  2  0
 22 23  1  0
 23 24  2  0
 24 25  1  0
 25 26  2  0
 26 27  1  0
 27 28  2  0
 11  7  1  0
 17 12  1  0
 28 19  1  0
 27 22  1  0
  3 29  1  0
  4 30  1  0
  4 31  1  0
  8 32  1  0
  8 33  1  0
  9 34  1  0
  9 35  1  0
 10 36  1  0
 10 37  1  0
 11 38  1  6
 13 39  1  0
 14 40  1  0
 15 41  1  0
 16 42  1  0
 20 43  1  0
 21 44  1  0
 23 45  1  0
 24 46  1  0
 25 47  1  0
 26 48  1  0
M  END
>  <smiles>  (96) 
O=C(NCC(=O)N1CCCC1c1ccccc1Cl)c1ccc2ccccc2n1

>  <score_type>  (96) 
oracle

>  <origin>  (96) 
autodockgpu

>  <m_score__min__energy>  (96) 
-8.9000000000000004

>  <m_primary>  (96) 
energy

>  <rmsd>  (96) 
2.0885756725892834

>  <m_score__min__rmsd>  (96) 
2.0885756725892834

>  <meeko>  (96) 
{"free_energy": -8.43, "intermolecular_energy": -9.92, "internal_energy": -1.87, "cluster_size": 20, "cluster_id": 2, "rank_in_cluster": 8}

>  <energy>  (96) 
-7.82

>  <cluster_rmsd>  (96) 
0.07

>  <cluster>  (96) 
4

$$$$

     RDKit          3D

 48 51  0  0  0  0  0  0  0  0999 V2000
  140.0760   71.2400  221.1760 O   0  0  0  0  0  0  0  0  0  0  0  0
  139.9240   71.9200  222.2270 C   0  0  0  0  0  0  0  0  0  0  0  0
  139.6810   73.3270  222.1890 N   0  0  0  0  0  0  0  0  0  0  0  0
  139.5800   74.0660  220.9790 C   0  0  0  0  0  0  0  0  0  0  0  0
  140.6050   73.9210  219.9510 C   0  0  0  0  0  0  0  0  0  0  0  0
  140.1410   73.9360  218.7380 O   0  0  0  0  0  0  0  0  0  0  0  0
  142.0130   73.7600  220.1020 N   0  0  0  0  0  0  0  0  0  0  0  0
  142.8290   72.5620  219.8940 C   0  0  0  0  0  0  0  0  0  0  0  0
  144.2080   73.1740  219.5460 C   0  0  0  0  0  0  0  0  0  0  0  0
  144.2490   74.3870  220.4280 C   0  0  0  0  0  0  0  0  0  0  0  0
  142.8530   74.8700  220.5010 C   0  0  1  0  0  0  0  0  0  0  0  0
  142.6080   76.1310  219.7750 C   0  0  0  0  0  0  0  0  0  0  0  0
  143.1700   76.3130  218.5240 C   0  0  0  0  0  0  0  0  0  0  0  0
  142.9930   77.4560  217.7740 C   0  0  0  0  0  0  0  0  0  0  0  0
  142.2180   78.5000  218.2690 C   0  0  0  0  0  0  0  0  0  0  0  0
  141.6540   78.3250  219.5160 C   0  0  0  0  0  0  0  0  0  0  0  0
  141.8410   77.1700  220.2570 C   0  0  0  0  0  0  0  0  0  0  0  0
  141.0610   77.0930  221.8220 Cl  0  0  0  0  0  0  0  0  0  0  0  0
  139.9950   71.2580  223.5320 C   0  0  0  0  0  0  0  0  0  0  0  0
  139.5790   69.9520  223.6860 C   0  0  0  0  0  0  0  0  0  0  0  0
  139.6350   69.3090  224.8930 C   0  0  0  0  0  0  0  0  0  0  0  0
  140.1260   69.9920  225.9940 C   0  0  0  0  0  0  0  0  0  0  0  0
  140.2230   69.4380  227.2470 C   0  0  0  0  0  0  0  0  0  0  0  0
  140.7240   70.1620  228.3260 C   0  0  0  0  0  0  0  0  0  0  0  0
  141.1350   71.4630  228.1540 C   0  0  0  0  0  0  0  0  0  0  0  0
  141.0320   72.0060  226.8940 C   0  0  0  0  0  0  0  0  0  0  0  0
  140.5360   71.2880  225.8260 C   0  0  0  0  0  0  0  0  0  0  0  0
  140.4640   71.8770  224.6320 N   0  0  0  0  0  0  0  0  0  0  0  0
  139.5760   73.8230  223.1250 H   0  0  0  0  0  0  0  0  0  0  0  0
  138.6224   73.7872  220.5150 H   0  0  0  0  0  0  0  0  0  0  0  0
  139.6958   75.1092  221.3080 H   0  0  0  0  0  0  0  0  0  0  0  0
  142.8813   71.9498  220.8064 H   0  0  0  0  0  0  0  0  0  0  0  0
  142.4355   71.8836  219.1227 H   0  0  0  0  0  0  0  0  0  0  0  0
  145.0252   72.4782  219.7868 H   0  0  0  0  0  0  0  0  0  0  0  0
  144.3328   73.4013  218.4770 H   0  0  0  0  0  0  0  0  0  0  0  0
  144.6168   74.1214  221.4301 H   0  0  0  0  0  0  0  0  0  0  0  0
  144.9270   75.1571  220.0314 H   0  0  0  0  0  0  0  0  0  0  0  0
  142.6040   75.1703  221.5295 H   0  0  0  0  0  0  0  0  0  0  0  0
  143.7891   75.5051  218.1069 H   0  0  0  0  0  0  0  0  0  0  0  0
  143.4646   77.5426  216.7840 H   0  0  0  0  0  0  0  0  0  0  0  0
  142.0619   79.4235  217.6921 H   0  0  0  0  0  0  0  0  0  0  0  0
  141.0343   79.1308  219.9362 H   0  0  0  0  0  0  0  0  0  0  0  0
  139.1900   69.4102  222.8113 H   0  0  0  0  0  0  0  0  0  0  0  0
  139.2957   68.2669  224.9874 H   0  0  0  0  0  0  0  0  0  0  0  0
  139.8975   68.3987  227.4018 H   0  0  0  0  0  0  0  0  0  0  0  0
  140.7911   69.6920  229.3183 H   0  0  0  0  0  0  0  0  0  0  0  0
  141.5326   72.0497  228.9953 H   0  0  0  0  0  0  0  0  0  0  0  0
  141.3553   73.0451  226.7335 H   0  0  0  0  0  0  0  0  0  0  0  0
  1  2  2  0
  2  3  1  0
  3  4  1  0
  4  5  1  0
  5  6  2  0
  5  7  1  0
  7  8  1  0
  8  9  1  0
  9 10  1  0
 10 11  1  0
 11 12  1  0
 12 13  2  0
 13 14  1  0
 14 15  2  0
 15 16  1  0
 16 17  2  0
 17 18  1  0
  2 19  1  0
 19 20  2  0
 20 21  1  0
 21 22  2  0
 22 23  1  0
 23 24  2  0
 24 25  1  0
 25 26  2  0
 26 27  1  0
 27 28  2  0
 11  7  1  0
 17 12  1  0
 28 19  1  0
 27 22  1  0
  3 29  1  0
  4 30  1  0
  4 31  1  0
  8 32  1  0
  8 33  1  0
  9 34  1  0
  9 35  1  0
 10 36  1  0
 10 37  1  0
 11 38  1  1
 13 39  1  0
 14 40  1  0
 15 41  1  0
 16 42  1  0
 20 43  1  0
 21 44  1  0
 23 45  1  0
 24 46  1  0
 25 47  1  0
 26 48  1  0
M  END
>  <smiles>  (97) 
O=C(NCC(=O)N1CCCC1c1ccccc1Cl)c1ccc2ccccc2n1

>  <score_type>  (97) 
oracle

>  <origin>  (97) 
autodockgpu

>  <m_score__min__energy>  (97) 
-8.9000000000000004

>  <m_primary>  (97) 
energy

>  <rmsd>  (97) 
2.9024654288606477

>  <m_score__min__rmsd>  (97) 
2.9024654288606477

>  <meeko>  (97) 
{"free_energy": -8.05, "intermolecular_energy": -9.54, "internal_energy": -1.89, "cluster_size": 9, "cluster_id": 3, "rank_in_cluster": 4}

>  <energy>  (97) 
-7.65

>  <cluster_rmsd>  (97) 
0.18

>  <cluster>  (97) 
4

$$$$

     RDKit          3D

 48 51  0  0  0  0  0  0  0  0999 V2000
  140.1230   71.3930  221.2540 O   0  0  0  0  0  0  0  0  0  0  0  0
  139.9430   72.0170  222.3360 C   0  0  0  0  0  0  0  0  0  0  0  0
  139.7000   73.4240  222.3660 N   0  0  0  0  0  0  0  0  0  0  0  0
  139.6300   74.2260  221.1940 C   0  0  0  0  0  0  0  0  0  0  0  0
  140.8210   74.9190  220.7160 C   0  0  0  0  0  0  0  0  0  0  0  0
  141.5360   75.4540  221.6590 O   0  0  0  0  0  0  0  0  0  0  0  0
  141.2860   75.0870  219.3790 N   0  0  0  0  0  0  0  0  0  0  0  0
  140.9680   76.1500  218.4230 C   0  0  0  0  0  0  0  0  0  0  0  0
  142.2280   76.1510  217.5210 C   0  0  0  0  0  0  0  0  0  0  0  0
  142.5770   74.6940  217.4610 C   0  0  0  0  0  0  0  0  0  0  0  0
  142.2120   74.1450  218.7850 C   0  0  1  0  0  0  0  0  0  0  0  0
  143.3640   73.7840  219.6330 C   0  0  0  0  0  0  0  0  0  0  0  0
  144.2350   74.7750  220.0510 C   0  0  0  0  0  0  0  0  0  0  0  0
  145.3350   74.5310  220.8440 C   0  0  0  0  0  0  0  0  0  0  0  0
  145.6160   73.2340  221.2640 C   0  0  0  0  0  0  0  0  0  0  0  0
  144.7520   72.2410  220.8510 C   0  0  0  0  0  0  0  0  0  0  0  0
  143.6500   72.5030  220.0540 C   0  0  0  0  0  0  0  0  0  0  0  0
  142.6440   71.1400  219.6120 Cl  0  0  0  0  0  0  0  0  0  0  0  0
  139.9800   71.2870  223.6050 C   0  0  0  0  0  0  0  0  0  0  0  0
  139.5380   69.9830  223.6840 C   0  0  0  0  0  0  0  0  0  0  0  0
  139.5620   69.2770  224.8570 C   0  0  0  0  0  0  0  0  0  0  0  0
  140.0470   69.8920  225.9990 C   0  0  0  0  0  0  0  0  0  0  0  0
  140.1140   69.2730  227.2230 C   0  0  0  0  0  0  0  0  0  0  0  0
  140.6100   69.9300  228.3460 C   0  0  0  0  0  0  0  0  0  0  0  0
  141.0480   71.2300  228.2490 C   0  0  0  0  0  0  0  0  0  0  0  0
  140.9750   71.8400  227.0170 C   0  0  0  0  0  0  0  0  0  0  0  0
  140.4830   71.1880  225.9050 C   0  0  0  0  0  0  0  0  0  0  0  0
  140.4420   71.8390  224.7430 N   0  0  0  0  0  0  0  0  0  0  0  0
  139.5690   73.8700  223.3240 H   0  0  0  0  0  0  0  0  0  0  0  0
  139.2954   73.5685  220.3780 H   0  0  0  0  0  0  0  0  0  0  0  0
  138.9587   75.0466  221.4871 H   0  0  0  0  0  0  0  0  0  0  0  0
  140.0623   75.9121  217.8459 H   0  0  0  0  0  0  0  0  0  0  0  0
  140.7544   77.1220  218.8917 H   0  0  0  0  0  0  0  0  0  0  0  0
  142.0017   76.5483  216.5205 H   0  0  0  0  0  0  0  0  0  0  0  0
  143.0427   76.7845  217.9018 H   0  0  0  0  0  0  0  0  0  0  0  0
  142.0040   74.1939  216.6663 H   0  0  0  0  0  0  0  0  0  0  0  0
  143.6422   74.5387  217.2345 H   0  0  0  0  0  0  0  0  0  0  0  0
  141.7229   73.1662  218.6719 H   0  0  0  0  0  0  0  0  0  0  0  0
  144.0391   75.8100  219.7340 H   0  0  0  0  0  0  0  0  0  0  0  0
  145.9910   75.3610  221.1451 H   0  0  0  0  0  0  0  0  0  0  0  0
  146.4877   73.0109  221.8967 H   0  0  0  0  0  0  0  0  0  0  0  0
  144.9451   71.2048  221.1657 H   0  0  0  0  0  0  0  0  0  0  0  0
  139.1541   69.4947  222.7761 H   0  0  0  0  0  0  0  0  0  0  0  0
  139.2019   68.2382  224.8916 H   0  0  0  0  0  0  0  0  0  0  0  0
  139.7676   68.2334  227.3186 H   0  0  0  0  0  0  0  0  0  0  0  0
  140.6516   69.4078  229.3133 H   0  0  0  0  0  0  0  0  0  0  0  0
  141.4431   71.7641  229.1257 H   0  0  0  0  0  0  0  0  0  0  0  0
  141.3197   72.8797  226.9160 H   0  0  0  0  0  0  0  0  0  0  0  0
  1  2  2  0
  2  3  1  0
  3  4  1  0
  4  5  1  0
  5  6  2  0
  5  7  1  0
  7  8  1  0
  8  9  1  0
  9 10  1  0
 10 11  1  0
 11 12  1  0
 12 13  2  0
 13 14  1  0
 14 15  2  0
 15 16  1  0
 16 17  2  0
 17 18  1  0
  2 19  1  0
 19 20  2  0
 20 21  1  0
 21 22  2  0
 22 23  1  0
 23 24  2  0
 24 25  1  0
 25 26  2  0
 26 27  1  0
 27 28  2  0
 11  7  1  0
 17 12  1  0
 28 19  1  0
 27 22  1  0
  3 29  1  0
  4 30  1  0
  4 31  1  0
  8 32  1  0
  8 33  1  0
  9 34  1  0
  9 35  1  0
 10 36  1  0
 10 37  1  0
 11 38  1  6
 13 39  1  0
 14 40  1  0
 15 41  1  0
 16 42  1  0
 20 43  1  0
 21 44  1  0
 23 45  1  0
 24 46  1  0
 25 47  1  0
 26 48  1  0
M  END
>  <smiles>  (98) 
O=C(NCC(=O)N1CCCC1c1ccccc1Cl)c1ccc2ccccc2n1

>  <score_type>  (98) 
oracle

>  <origin>  (98) 
autodockgpu

>  <m_score__min__energy>  (98) 
-8.9000000000000004

>  <m_primary>  (98) 
energy

>  <rmsd>  (98) 
2.019165881633509

>  <m_score__min__rmsd>  (98) 
2.019165881633509

>  <meeko>  (98) 
{"free_energy": -7.96, "intermolecular_energy": -9.45, "internal_energy": -2.02, "cluster_size": 20, "cluster_id": 2, "rank_in_cluster": 20}

>  <energy>  (98) 
-7.5

>  <cluster_rmsd>  (98) 
0.0

>  <cluster>  (98) 
5

$$$$

     RDKit          3D

 48 51  0  0  0  0  0  0  0  0999 V2000
  141.4760   72.3510  221.6110 O   0  0  0  0  0  0  0  0  0  0  0  0
  140.4900   72.5510  222.3720 C   0  0  0  0  0  0  0  0  0  0  0  0
  139.5970   73.6490  222.1800 N   0  0  0  0  0  0  0  0  0  0  0  0
  139.7360   74.5890  221.1230 C   0  0  0  0  0  0  0  0  0  0  0  0
  140.7230   75.6580  221.2260 C   0  0  0  0  0  0  0  0  0  0  0  0
  141.3810   75.6630  222.3460 O   0  0  0  0  0  0  0  0  0  0  0  0
  141.0450   76.6780  220.2840 N   0  0  0  0  0  0  0  0  0  0  0  0
  140.9640   76.6380  218.8220 C   0  0  0  0  0  0  0  0  0  0  0  0
  140.7700   78.1350  218.4750 C   0  0  0  0  0  0  0  0  0  0  0  0
  141.6240   78.8130  219.5050 C   0  0  0  0  0  0  0  0  0  0  0  0
  141.5180   77.9760  220.7200 C   0  0  1  0  0  0  0  0  0  0  0  0
  140.7400   78.5870  221.8140 C   0  0  0  0  0  0  0  0  0  0  0  0
  139.3860   78.3190  221.9160 C   0  0  0  0  0  0  0  0  0  0  0  0
  138.5830   78.8450  222.9040 C   0  0  0  0  0  0  0  0  0  0  0  0
  139.1260   79.6930  223.8650 C   0  0  0  0  0  0  0  0  0  0  0  0
  140.4750   79.9640  223.7690 C   0  0  0  0  0  0  0  0  0  0  0  0
  141.2690   79.4280  222.7700 C   0  0  0  0  0  0  0  0  0  0  0  0
  142.9640   79.8640  222.7790 Cl  0  0  0  0  0  0  0  0  0  0  0  0
  140.2430   71.6360  223.4880 C   0  0  0  0  0  0  0  0  0  0  0  0
  139.4750   70.5030  223.3170 C   0  0  0  0  0  0  0  0  0  0  0  0
  139.2290   69.6300  224.3430 C   0  0  0  0  0  0  0  0  0  0  0  0
  139.7680   69.8940  225.5910 C   0  0  0  0  0  0  0  0  0  0  0  0
  139.5810   69.0830  226.6840 C   0  0  0  0  0  0  0  0  0  0  0  0
  140.1430   69.3860  227.9210 C   0  0  0  0  0  0  0  0  0  0  0  0
  140.9070   70.5200  228.0740 C   0  0  0  0  0  0  0  0  0  0  0  0
  141.0870   71.3250  226.9710 C   0  0  0  0  0  0  0  0  0  0  0  0
  140.5290   71.0230  225.7460 C   0  0  0  0  0  0  0  0  0  0  0  0
  140.7450   71.8470  224.7200 N   0  0  0  0  0  0  0  0  0  0  0  0
  138.7980   73.7470  222.8770 H   0  0  0  0  0  0  0  0  0  0  0  0
  139.9820   74.0152  220.2173 H   0  0  0  0  0  0  0  0  0  0  0  0
  138.7767   75.1271  221.1338 H   0  0  0  0  0  0  0  0  0  0  0  0
  141.8899   76.2411  218.3802 H   0  0  0  0  0  0  0  0  0  0  0  0
  140.1671   75.9844  218.4375 H   0  0  0  0  0  0  0  0  0  0  0  0
  141.1216   78.3571  217.4567 H   0  0  0  0  0  0  0  0  0  0  0  0
  139.7189   78.4590  218.4906 H   0  0  0  0  0  0  0  0  0  0  0  0
  142.6686   78.8653  219.1642 H   0  0  0  0  0  0  0  0  0  0  0  0
  141.2954   79.8461  219.6914 H   0  0  0  0  0  0  0  0  0  0  0  0
  142.5026   77.8701  221.1990 H   0  0  0  0  0  0  0  0  0  0  0  0
  138.9280   77.6523  221.1705 H   0  0  0  0  0  0  0  0  0  0  0  0
  137.5122   78.5948  222.9335 H   0  0  0  0  0  0  0  0  0  0  0  0
  138.5076   80.1272  224.6644 H   0  0  0  0  0  0  0  0  0  0  0  0
  140.9364   80.6300  224.5131 H   0  0  0  0  0  0  0  0  0  0  0  0
  139.0468   70.2942  222.3255 H   0  0  0  0  0  0  0  0  0  0  0  0
  138.6132   68.7335  224.1785 H   0  0  0  0  0  0  0  0  0  0  0  0
  138.9727   68.1725  226.5792 H   0  0  0  0  0  0  0  0  0  0  0  0
  139.9759   68.7172  228.7782 H   0  0  0  0  0  0  0  0  0  0  0  0
  141.3586   70.7750  229.0441 H   0  0  0  0  0  0  0  0  0  0  0  0
  141.6944   72.2368  227.0699 H   0  0  0  0  0  0  0  0  0  0  0  0
  1  2  2  0
  2  3  1  0
  3  4  1  0
  4  5  1  0
  5  6  2  0
  5  7  1  0
  7  8  1  0
  8  9  1  0
  9 10  1  0
 10 11  1  0
 11 12  1  0
 12 13  2  0
 13 14  1  0
 14 15  2  0
 15 16  1  0
 16 17  2  0
 17 18  1  0
  2 19  1  0
 19 20  2  0
 20 21  1  0
 21 22  2  0
 22 23  1  0
 23 24  2  0
 24 25  1  0
 25 26  2  0
 26 27  1  0
 27 28  2  0
 11  7  1  0
 17 12  1  0
 28 19  1  0
 27 22  1  0
  3 29  1  0
  4 30  1  0
  4 31  1  0
  8 32  1  0
  8 33  1  0
  9 34  1  0
  9 35  1  0
 10 36  1  0
 10 37  1  0
 11 38  1  1
 13 39  1  0
 14 40  1  0
 15 41  1  0
 16 42  1  0
 20 43  1  0
 21 44  1  0
 23 45  1  0
 24 46  1  0
 25 47  1  0
 26 48  1  0
M  END
>  <smiles>  (99) 
O=C(NCC(=O)N1CCCC1c1ccccc1Cl)c1ccc2ccccc2n1

>  <score_type>  (99) 
oracle

>  <origin>  (99) 
autodockgpu

>  <m_score__min__energy>  (99) 
-8.9000000000000004

>  <m_primary>  (99) 
energy

>  <rmsd>  (99) 
1.7680244818729602

>  <m_score__min__rmsd>  (99) 
1.7680244818729602

>  <meeko>  (99) 
{"free_energy": -8.73, "intermolecular_energy": -10.23, "internal_energy": -1.31, "cluster_size": 14, "cluster_id": 1, "rank_in_cluster": 5}

>  <energy>  (99) 
-7.25

>  <cluster_rmsd>  (99) 
0.6

>  <cluster>  (99) 
5

$$$$

     RDKit          3D

 48 51  0  0  0  0  0  0  0  0999 V2000
  138.7910   75.3080  222.0340 O   0  0  0  0  0  0  0  0  0  0  0  0
  139.9590   75.7840  222.0160 C   0  0  0  0  0  0  0  0  0  0  0  0
  141.0850   75.0080  221.6050 N   0  0  0  0  0  0  0  0  0  0  0  0
  140.9830   73.6570  221.1740 C   0  0  0  0  0  0  0  0  0  0  0  0
  142.0370   73.0750  220.3500 C   0  0  0  0  0  0  0  0  0  0  0  0
  141.5970   72.3700  219.3510 O   0  0  0  0  0  0  0  0  0  0  0  0
  143.4510   73.1700  220.5000 N   0  0  0  0  0  0  0  0  0  0  0  0
  144.4320   72.0960  220.6660 C   0  0  0  0  0  0  0  0  0  0  0  0
  145.7160   72.7490  220.0940 C   0  0  0  0  0  0  0  0  0  0  0  0
  145.5700   74.1750  220.5350 C   0  0  0  0  0  0  0  0  0  0  0  0
  144.1190   74.4560  220.4920 C   0  0  1  0  0  0  0  0  0  0  0  0
  143.7070   75.3650  219.4060 C   0  0  0  0  0  0  0  0  0  0  0  0
  143.2910   76.6480  219.7160 C   0  0  0  0  0  0  0  0  0  0  0  0
  142.8900   77.5630  218.7670 C   0  0  0  0  0  0  0  0  0  0  0  0
  142.8900   77.2150  217.4200 C   0  0  0  0  0  0  0  0  0  0  0  0
  143.3050   75.9380  217.1030 C   0  0  0  0  0  0  0  0  0  0  0  0
  143.7040   75.0290  218.0680 C   0  0  0  0  0  0  0  0  0  0  0  0
  144.2040   73.4460  217.5140 Cl  0  0  0  0  0  0  0  0  0  0  0  0
  140.1790   77.1720  222.4280 C   0  0  0  0  0  0  0  0  0  0  0  0
  139.1150   78.0130  222.6780 C   0  0  0  0  0  0  0  0  0  0  0  0
  139.2920   79.3140  223.0650 C   0  0  0  0  0  0  0  0  0  0  0  0
  140.5810   79.8010  223.2090 C   0  0  0  0  0  0  0  0  0  0  0  0
  140.8660   81.0880  223.5920 C   0  0  0  0  0  0  0  0  0  0  0  0
  142.1790   81.5360  223.7250 C   0  0  0  0  0  0  0  0  0  0  0  0
  143.2280   80.6830  223.4720 C   0  0  0  0  0  0  0  0  0  0  0  0
  142.9290   79.3950  223.0890 C   0  0  0  0  0  0  0  0  0  0  0  0
  141.6290   78.9540  222.9570 C   0  0  0  0  0  0  0  0  0  0  0  0
  141.4120   77.6930  222.5830 N   0  0  0  0  0  0  0  0  0  0  0  0
  142.0360   75.4860  221.6310 H   0  0  0  0  0  0  0  0  0  0  0  0
  140.9101   73.0385  222.0807 H   0  0  0  0  0  0  0  0  0  0  0  0
  140.1128   73.6700  220.5013 H   0  0  0  0  0  0  0  0  0  0  0  0
  144.5569   71.8277  221.7254 H   0  0  0  0  0  0  0  0  0  0  0  0
  144.1513   71.1553  220.1697 H   0  0  0  0  0  0  0  0  0  0  0  0
  146.6205   72.2904  220.5202 H   0  0  0  0  0  0  0  0  0  0  0  0
  145.8233   72.6323  219.0055 H   0  0  0  0  0  0  0  0  0  0  0  0
  145.9560   74.3026  221.5571 H   0  0  0  0  0  0  0  0  0  0  0  0
  146.1376   74.8616  219.8897 H   0  0  0  0  0  0  0  0  0  0  0  0
  143.8155   75.0367  221.3756 H   0  0  0  0  0  0  0  0  0  0  0  0
  143.2799   76.9526  220.7729 H   0  0  0  0  0  0  0  0  0  0  0  0
  142.5696   78.5693  219.0747 H   0  0  0  0  0  0  0  0  0  0  0  0
  142.5734   77.9260  216.6427 H   0  0  0  0  0  0  0  0  0  0  0  0
  143.3193   75.6314  216.0467 H   0  0  0  0  0  0  0  0  0  0  0  0
  138.0918   77.6261  222.5628 H   0  0  0  0  0  0  0  0  0  0  0  0
  138.4248   79.9624  223.2586 H   0  0  0  0  0  0  0  0  0  0  0  0
  140.0383   81.7823  223.7989 H   0  0  0  0  0  0  0  0  0  0  0  0
  142.3767   82.5734  224.0328 H   0  0  0  0  0  0  0  0  0  0  0  0
  144.2707   81.0187  223.5723 H   0  0  0  0  0  0  0  0  0  0  0  0
  143.7526   78.6958  222.8818 H   0  0  0  0  0  0  0  0  0  0  0  0
  1  2  2  0
  2  3  1  0
  3  4  1  0
  4  5  1  0
  5  6  2  0
  5  7  1  0
  7  8  1  0
  8  9  1  0
  9 10  1  0
 10 11  1  0
 11 12  1  0
 12 13  2  0
 13 14  1  0
 14 15  2  0
 15 16  1  0
 16 17  2  0
 17 18  1  0
  2 19  1  0
 19 20  2  0
 20 21  1  0
 21 22  2  0
 22 23  1  0
 23 24  2  0
 24 25  1  0
 25 26  2  0
 26 27  1  0
 27 28  2  0
 11  7  1  0
 17 12  1  0
 28 19  1  0
 27 22  1  0
  3 29  1  0
  4 30  1  0
  4 31  1  0
  8 32  1  0
  8 33  1  0
  9 34  1  0
  9 35  1  0
 10 36  1  0
 10 37  1  0
 11 38  1  1
 13 39  1  0
 14 40  1  0
 15 41  1  0
 16 42  1  0
 20 43  1  0
 21 44  1  0
 23 45  1  0
 24 46  1  0
 25 47  1  0
 26 48  1  0
M  END
>  <smiles>  (100) 
O=C(NCC(=O)N1CCCC1c1ccccc1Cl)c1ccc2ccccc2n1

>  <score_type>  (100) 
oracle

>  <origin>  (100) 
autodockgpu

>  <m_score__min__energy>  (100) 
-8.9000000000000004

>  <m_primary>  (100) 
energy

>  <rmsd>  (100) 
7.892707242979748

>  <m_score__min__rmsd>  (100) 
7.892707242979748

>  <meeko>  (100) 
{"free_energy": -7.82, "intermolecular_energy": -9.31, "internal_energy": -2.11, "cluster_size": 4, "cluster_id": 4, "rank_in_cluster": 3}

>  <energy>  (100) 
-7.19

>  <cluster_rmsd>  (100) 
1.11

>  <cluster>  (100) 
5

$$$$
