
     RDKit          3D

 62 65  0  0  0  0  0  0  0  0999 V2000
  138.2430   71.4330  222.1300 O   0  0  0  0  0  0  0  0  0  0  0  0
  139.2020   71.6550  222.9260 C   0  0  0  0  0  0  0  0  0  0  0  0
  139.9860   72.8260  222.6120 N   0  0  0  0  0  0  0  0  0  0  0  0
  139.5550   73.5640  221.4400 C   0  0  0  0  0  0  0  0  0  0  0  0
  139.8960   75.0210  221.6880 C   0  0  0  0  0  0  0  0  0  0  0  0
  141.0460   75.2060  222.1420 O   0  0  0  0  0  0  0  0  0  0  0  0
  138.9270   76.0000  221.3960 N   0  0  0  0  0  0  0  0  0  0  0  0
  137.5430   75.6690  221.7520 C   0  0  0  0  0  0  0  0  0  0  0  0
  137.0550   76.7540  222.7270 C   0  0  0  0  0  0  0  0  0  0  0  0
  137.0150   78.0050  221.8960 C   0  0  0  0  0  0  0  0  0  0  0  0
  138.4330   78.3750  221.5130 C   0  0  0  0  0  0  0  0  0  0  0  0
  139.1480   77.2860  220.7830 C   0  0  1  0  0  0  0  0  0  0  0  0
  140.6120   77.5050  220.6080 C   0  0  0  0  0  0  0  0  0  0  0  0
  141.3950   77.9650  221.6740 N   0  0  0  0  0  0  0  0  0  0  0  0
  142.0400   79.2050  221.6730 C   0  0  0  0  0  0  0  0  0  0  0  0
  142.7460   79.3850  223.0280 C   0  0  0  0  0  0  0  0  0  0  0  0
  141.8110   79.0770  224.1600 C   0  0  0  0  0  0  0  0  0  0  0  0
  140.3760   79.4280  223.8260 C   0  0  0  0  0  0  0  0  0  0  0  0
  140.3240   80.6040  222.8830 C   0  0  0  0  0  0  0  0  0  0  0  0
  140.9640   80.3060  221.5610 C   0  0  0  0  0  0  0  0  0  0  0  0
  139.5030   70.8080  224.0690 C   0  0  0  0  0  0  0  0  0  0  0  0
  139.0850   69.4810  223.9750 C   0  0  0  0  0  0  0  0  0  0  0  0
  139.3100   68.5820  224.9980 C   0  0  0  0  0  0  0  0  0  0  0  0
  139.9700   69.0710  226.1100 C   0  0  0  0  0  0  0  0  0  0  0  0
  140.2280   68.2100  227.1790 C   0  0  0  0  0  0  0  0  0  0  0  0
  140.8800   68.6470  228.3110 C   0  0  0  0  0  0  0  0  0  0  0  0
  141.1040   67.7720  229.3190 F   0  0  0  0  0  0  0  0  0  0  0  0
  141.2780   69.9710  228.3610 C   0  0  0  0  0  0  0  0  0  0  0  0
  141.0420   70.8480  227.3300 C   0  0  0  0  0  0  0  0  0  0  0  0
  140.3880   70.3910  226.2070 C   0  0  0  0  0  0  0  0  0  0  0  0
  140.1460   71.2520  225.1730 N   0  0  0  0  0  0  0  0  0  0  0  0
  140.7990   73.0950  223.2070 H   0  0  0  0  0  0  0  0  0  0  0  0
  140.0833   73.1984  220.5471 H   0  0  0  0  0  0  0  0  0  0  0  0
  138.4762   73.4355  221.2680 H   0  0  0  0  0  0  0  0  0  0  0  0
  136.9130   75.6610  220.8503 H   0  0  0  0  0  0  0  0  0  0  0  0
  137.4852   74.6725  222.2143 H   0  0  0  0  0  0  0  0  0  0  0  0
  136.0543   76.5100  223.1132 H   0  0  0  0  0  0  0  0  0  0  0  0
  137.7070   76.8536  223.6074 H   0  0  0  0  0  0  0  0  0  0  0  0
  136.4199   77.8281  220.9880 H   0  0  0  0  0  0  0  0  0  0  0  0
  136.5545   78.8230  222.4694 H   0  0  0  0  0  0  0  0  0  0  0  0
  138.3999   79.2653  220.8678 H   0  0  0  0  0  0  0  0  0  0  0  0
  138.9857   78.5611  222.4457 H   0  0  0  0  0  0  0  0  0  0  0  0
  138.7055   77.3061  219.7761 H   0  0  0  0  0  0  0  0  0  0  0  0
  141.0397   76.5407  220.2962 H   0  0  0  0  0  0  0  0  0  0  0  0
  140.6531   78.3400  219.8930 H   0  0  0  0  0  0  0  0  0  0  0  0
  141.8150   77.2290  222.2840 H   0  0  0  0  0  0  0  0  0  0  0  0
  142.7586   79.2634  220.8422 H   0  0  0  0  0  0  0  0  0  0  0  0
  143.6094   78.7053  223.0781 H   0  0  0  0  0  0  0  0  0  0  0  0
  143.0765   80.4303  223.1177 H   0  0  0  0  0  0  0  0  0  0  0  0
  141.8697   78.0021  224.3860 H   0  0  0  0  0  0  0  0  0  0  0  0
  142.1154   79.6842  225.0252 H   0  0  0  0  0  0  0  0  0  0  0  0
  139.8929   78.5616  223.3507 H   0  0  0  0  0  0  0  0  0  0  0  0
  139.8501   79.6941  224.7548 H   0  0  0  0  0  0  0  0  0  0  0  0
  139.2713   80.8739  222.7128 H   0  0  0  0  0  0  0  0  0  0  0  0
  140.8825   81.4304  223.3469 H   0  0  0  0  0  0  0  0  0  0  0  0
  140.1868   79.9724  220.8576 H   0  0  0  0  0  0  0  0  0  0  0  0
  141.4544   81.2247  221.2068 H   0  0  0  0  0  0  0  0  0  0  0  0
  138.5650   69.1435  223.0664 H   0  0  0  0  0  0  0  0  0  0  0  0
  138.9822   67.5341  224.9321 H   0  0  0  0  0  0  0  0  0  0  0  0
  139.9037   67.1608  227.1157 H   0  0  0  0  0  0  0  0  0  0  0  0
  141.8017   70.3343  229.2575 H   0  0  0  0  0  0  0  0  0  0  0  0
  141.3693   71.8958  227.4000 H   0  0  0  0  0  0  0  0  0  0  0  0
  1  2  2  0
  2  3  1  0
  3  4  1  0
  4  5  1  0
  5  6  2  0
  5  7  1  0
  7  8  1  0
  8  9  1  0
  9 10  1  0
 10 11  1  0
 11 12  1  0
 12 13  1  0
 13 14  1  0
 14 15  1  0
 15 16  1  0
 16 17  1  0
 17 18  1  0
 18 19  1  0
 19 20  1  0
  2 21  1  0
 21 22  2  0
 22 23  1  0
 23 24  2  0
 24 25  1  0
 25 26  2  0
 26 27  1  0
 26 28  1  0
 28 29  2  0
 29 30  1  0
 30 31  2  0
 12  7  1  0
 20 15  1  0
 31 21  1  0
 30 24  1  0
  3 32  1  0
  4 33  1  0
  4 34  1  0
  8 35  1  0
  8 36  1  0
  9 37  1  0
  9 38  1  0
 10 39  1  0
 10 40  1  0
 11 41  1  0
 11 42  1  0
 12 43  1  6
 13 44  1  0
 13 45  1  0
 14 46  1  0
 15 47  1  0
 16 48  1  0
 16 49  1  0
 17 50  1  0
 17 51  1  0
 18 52  1  0
 18 53  1  0
 19 54  1  0
 19 55  1  0
 20 56  1  0
 20 57  1  0
 22 58  1  0
 23 59  1  0
 25 60  1  0
 28 61  1  0
 29 62  1  0
M  END
>  <smiles>  (1) 
O=C(NCC(=O)N1CCCC[C@H]1CNC1CCCCC1)c1ccc2cc(F)ccc2n1

>  <score_type>  (1) 
oracle

>  <origin>  (1) 
autodockgpu

>  <m_score__min__energy>  (1) 
-9.5700000000000003

>  <m_primary>  (1) 
energy

>  <rmsd>  (1) 
3.013295915837906

>  <m_score__min__rmsd>  (1) 
3.013295915837906

>  <meeko>  (1) 
{"free_energy": -8.34, "intermolecular_energy": -10.43, "internal_energy": -2.8, "cluster_size": 45, "cluster_id": 1, "rank_in_cluster": 35}

>  <energy>  (1) 
-9.57

>  <cluster_rmsd>  (1) 
0.0

>  <cluster>  (1) 
1

$$$$

     RDKit          3D

 62 65  0  0  0  0  0  0  0  0999 V2000
  135.3440   68.5540  224.8020 O   0  0  0  0  0  0  0  0  0  0  0  0
  135.7210   69.7480  224.9830 C   0  0  0  0  0  0  0  0  0  0  0  0
  137.0870   70.0130  224.6020 N   0  0  0  0  0  0  0  0  0  0  0  0
  137.8140   68.8760  224.0720 C   0  0  0  0  0  0  0  0  0  0  0  0
  138.9290   68.5700  225.0540 C   0  0  0  0  0  0  0  0  0  0  0  0
  139.3780   67.4060  224.9700 O   0  0  0  0  0  0  0  0  0  0  0  0
  139.3460   69.5830  225.9390 N   0  0  0  0  0  0  0  0  0  0  0  0
  139.2630   69.2680  227.3690 C   0  0  0  0  0  0  0  0  0  0  0  0
  140.6810   69.4140  227.9480 C   0  0  0  0  0  0  0  0  0  0  0  0
  140.9780   70.8830  227.8300 C   0  0  0  0  0  0  0  0  0  0  0  0
  141.0720   71.2400  226.3600 C   0  0  0  0  0  0  0  0  0  0  0  0
  139.8390   70.8920  225.5910 C   0  0  1  0  0  0  0  0  0  0  0  0
  139.9770   70.9910  224.1100 C   0  0  0  0  0  0  0  0  0  0  0  0
  139.0300   71.6920  223.3530 N   0  0  0  0  0  0  0  0  0  0  0  0
  139.1340   71.8710  221.9710 C   0  0  0  0  0  0  0  0  0  0  0  0
  138.4840   73.2190  221.6070 C   0  0  0  0  0  0  0  0  0  0  0  0
  137.1260   73.3410  222.2340 C   0  0  0  0  0  0  0  0  0  0  0  0
  136.4340   71.9990  222.3620 C   0  0  0  0  0  0  0  0  0  0  0  0
  136.8510   71.0790  221.2430 C   0  0  0  0  0  0  0  0  0  0  0  0
  138.3160   70.7610  221.2790 C   0  0  0  0  0  0  0  0  0  0  0  0
  134.8570   70.7820  225.5310 C   0  0  0  0  0  0  0  0  0  0  0  0
  133.8190   70.3430  226.3520 C   0  0  0  0  0  0  0  0  0  0  0  0
  132.9320   71.2300  226.9270 C   0  0  0  0  0  0  0  0  0  0  0  0
  133.1320   72.5690  226.6430 C   0  0  0  0  0  0  0  0  0  0  0  0
  132.2680   73.5160  227.1950 C   0  0  0  0  0  0  0  0  0  0  0  0
  132.4220   74.8610  226.9440 C   0  0  0  0  0  0  0  0  0  0  0  0
  131.5560   75.7370  227.5020 F   0  0  0  0  0  0  0  0  0  0  0  0
  133.4660   75.2530  226.1240 C   0  0  0  0  0  0  0  0  0  0  0  0
  134.3370   74.3500  225.5620 C   0  0  0  0  0  0  0  0  0  0  0  0
  134.1650   73.0090  225.8260 C   0  0  0  0  0  0  0  0  0  0  0  0
  135.0230   72.1000  225.2740 N   0  0  0  0  0  0  0  0  0  0  0  0
  137.4940   70.9670  224.7130 H   0  0  0  0  0  0  0  0  0  0  0  0
  137.1439   68.0088  223.9782 H   0  0  0  0  0  0  0  0  0  0  0  0
  138.2184   69.0977  223.0733 H   0  0  0  0  0  0  0  0  0  0  0  0
  138.5771   69.9670  227.8701 H   0  0  0  0  0  0  0  0  0  0  0  0
  138.8803   68.2483  227.5235 H   0  0  0  0  0  0  0  0  0  0  0  0
  140.7077   69.0938  229.0000 H   0  0  0  0  0  0  0  0  0  0  0  0
  141.4180   68.7913  227.4197 H   0  0  0  0  0  0  0  0  0  0  0  0
  140.1713   71.4634  228.3016 H   0  0  0  0  0  0  0  0  0  0  0  0
  141.9268   71.1167  228.3352 H   0  0  0  0  0  0  0  0  0  0  0  0
  141.2444   72.3229  226.2733 H   0  0  0  0  0  0  0  0  0  0  0  0
  141.9001   70.6550  225.9333 H   0  0  0  0  0  0  0  0  0  0  0  0
  139.1119   71.6610  225.8909 H   0  0  0  0  0  0  0  0  0  0  0  0
  140.9500   71.4656  223.9152 H   0  0  0  0  0  0  0  0  0  0  0  0
  139.8380   69.9513  223.7787 H   0  0  0  0  0  0  0  0  0  0  0  0
  138.4700   72.4070  223.8690 H   0  0  0  0  0  0  0  0  0  0  0  0
  140.1884   71.8426  221.6587 H   0  0  0  0  0  0  0  0  0  0  0  0
  139.1235   74.0375  221.9691 H   0  0  0  0  0  0  0  0  0  0  0  0
  138.3745   73.2745  220.5139 H   0  0  0  0  0  0  0  0  0  0  0  0
  137.2365   73.7801  223.2365 H   0  0  0  0  0  0  0  0  0  0  0  0
  136.5093   73.9793  221.5842 H   0  0  0  0  0  0  0  0  0  0  0  0
  136.7052   71.5427  223.3254 H   0  0  0  0  0  0  0  0  0  0  0  0
  135.3463   72.1539  222.3075 H   0  0  0  0  0  0  0  0  0  0  0  0
  136.2838   70.1403  221.3277 H   0  0  0  0  0  0  0  0  0  0  0  0
  136.6428   71.5920  220.2924 H   0  0  0  0  0  0  0  0  0  0  0  0
  138.4610   69.8189  221.8280 H   0  0  0  0  0  0  0  0  0  0  0  0
  138.6699   70.6766  220.2409 H   0  0  0  0  0  0  0  0  0  0  0  0
  133.7047   69.2662  226.5455 H   0  0  0  0  0  0  0  0  0  0  0  0
  132.1109   70.8909  227.5757 H   0  0  0  0  0  0  0  0  0  0  0  0
  131.4462   73.1805  227.8447 H   0  0  0  0  0  0  0  0  0  0  0  0
  133.6035   76.3241  225.9148 H   0  0  0  0  0  0  0  0  0  0  0  0
  135.1567   74.6922  224.9131 H   0  0  0  0  0  0  0  0  0  0  0  0
  1  2  2  0
  2  3  1  0
  3  4  1  0
  4  5  1  0
  5  6  2  0
  5  7  1  0
  7  8  1  0
  8  9  1  0
  9 10  1  0
 10 11  1  0
 11 12  1  0
 12 13  1  0
 13 14  1  0
 14 15  1  0
 15 16  1  0
 16 17  1  0
 17 18  1  0
 18 19  1  0
 19 20  1  0
  2 21  1  0
 21 22  2  0
 22 23  1  0
 23 24  2  0
 24 25  1  0
 25 26  2  0
 26 27  1  0
 26 28  1  0
 28 29  2  0
 29 30  1  0
 30 31  2  0
 12  7  1  0
 20 15  1  0
 31 21  1  0
 30 24  1  0
  3 32  1  0
  4 33  1  0
  4 34  1  0
  8 35  1  0
  8 36  1  0
  9 37  1  0
  9 38  1  0
 10 39  1  0
 10 40  1  0
 11 41  1  0
 11 42  1  0
 12 43  1  1
 13 44  1  0
 13 45  1  0
 14 46  1  0
 15 47  1  0
 16 48  1  0
 16 49  1  0
 17 50  1  0
 17 51  1  0
 18 52  1  0
 18 53  1  0
 19 54  1  0
 19 55  1  0
 20 56  1  0
 20 57  1  0
 22 58  1  0
 23 59  1  0
 25 60  1  0
 28 61  1  0
 29 62  1  0
M  END
>  <smiles>  (2) 
O=C(NCC(=O)N1CCCC[C@H]1CNC1CCCCC1)c1ccc2cc(F)ccc2n1

>  <score_type>  (2) 
oracle

>  <origin>  (2) 
autodockgpu

>  <m_score__min__energy>  (2) 
-9.5700000000000003

>  <m_primary>  (2) 
energy

>  <rmsd>  (2) 
8.785010472537676

>  <m_score__min__rmsd>  (2) 
8.785010472537676

>  <meeko>  (2) 
{"free_energy": -7.55, "intermolecular_energy": -9.64, "internal_energy": -3.06, "cluster_size": 2, "cluster_id": 4, "rank_in_cluster": 2}

>  <energy>  (2) 
-9.43

>  <cluster_rmsd>  (2) 
0.63

>  <cluster>  (2) 
1

$$$$

     RDKit          3D

 62 65  0  0  0  0  0  0  0  0999 V2000
  141.2440   72.0400  221.4550 O   0  0  0  0  0  0  0  0  0  0  0  0
  140.5440   72.3860  222.4510 C   0  0  0  0  0  0  0  0  0  0  0  0
  139.9390   73.6920  222.3370 N   0  0  0  0  0  0  0  0  0  0  0  0
  140.2240   74.4010  221.1050 C   0  0  0  0  0  0  0  0  0  0  0  0
  140.7120   75.7830  221.4960 C   0  0  0  0  0  0  0  0  0  0  0  0
  140.3810   76.1340  222.6500 O   0  0  0  0  0  0  0  0  0  0  0  0
  141.4660   76.5220  220.5640 N   0  0  0  0  0  0  0  0  0  0  0  0
  142.5980   75.8230  219.9470 C   0  0  0  0  0  0  0  0  0  0  0  0
  142.3650   75.8360  218.4270 C   0  0  0  0  0  0  0  0  0  0  0  0
  142.4750   77.2860  218.0490 C   0  0  0  0  0  0  0  0  0  0  0  0
  141.3150   78.0370  218.6710 C   0  0  0  0  0  0  0  0  0  0  0  0
  141.2460   77.8870  220.1560 C   0  0  1  0  0  0  0  0  0  0  0  0
  139.9900   78.3940  220.7790 C   0  0  0  0  0  0  0  0  0  0  0  0
  140.0020   79.5560  221.5600 N   0  0  0  0  0  0  0  0  0  0  0  0
  140.0610   79.5400  222.9560 C   0  0  0  0  0  0  0  0  0  0  0  0
  140.2980   80.9800  223.4470 C   0  0  0  0  0  0  0  0  0  0  0  0
  141.4330   81.6170  222.7000 C   0  0  0  0  0  0  0  0  0  0  0  0
  142.4860   80.6060  222.2940 C   0  0  0  0  0  0  0  0  0  0  0  0
  142.5600   79.4850  223.3000 C   0  0  0  0  0  0  0  0  0  0  0  0
  141.2850   78.7010  223.3770 C   0  0  0  0  0  0  0  0  0  0  0  0
  140.3560   71.5470  223.6230 C   0  0  0  0  0  0  0  0  0  0  0  0
  139.7130   70.3280  223.4080 C   0  0  0  0  0  0  0  0  0  0  0  0
  139.4740   69.4480  224.4440 C   0  0  0  0  0  0  0  0  0  0  0  0
  139.9080   69.8420  225.6960 C   0  0  0  0  0  0  0  0  0  0  0  0
  139.6960   68.9950  226.7860 C   0  0  0  0  0  0  0  0  0  0  0  0
  140.1070   69.3400  228.0540 C   0  0  0  0  0  0  0  0  0  0  0  0
  139.8750   68.4830  229.0750 F   0  0  0  0  0  0  0  0  0  0  0  0
  140.7420   70.5570  228.2220 C   0  0  0  0  0  0  0  0  0  0  0  0
  140.9690   71.4180  227.1750 C   0  0  0  0  0  0  0  0  0  0  0  0
  140.5490   71.0540  225.9140 C   0  0  0  0  0  0  0  0  0  0  0  0
  140.7670   71.9000  224.8630 N   0  0  0  0  0  0  0  0  0  0  0  0
  139.3440   74.0690  223.1060 H   0  0  0  0  0  0  0  0  0  0  0  0
  141.0022   73.8720  220.5352 H   0  0  0  0  0  0  0  0  0  0  0  0
  139.3278   74.4644  220.4703 H   0  0  0  0  0  0  0  0  0  0  0  0
  143.5380   76.3406  220.1889 H   0  0  0  0  0  0  0  0  0  0  0  0
  142.6723   74.7917  220.3224 H   0  0  0  0  0  0  0  0  0  0  0  0
  143.1307   75.2390  217.9099 H   0  0  0  0  0  0  0  0  0  0  0  0
  141.3950   75.4000  218.1460 H   0  0  0  0  0  0  0  0  0  0  0  0
  143.4249   77.6955  218.4232 H   0  0  0  0  0  0  0  0  0  0  0  0
  142.4478   77.3922  216.9545 H   0  0  0  0  0  0  0  0  0  0  0  0
  141.4217   79.1054  218.4320 H   0  0  0  0  0  0  0  0  0  0  0  0
  140.3895   77.6115  218.2559 H   0  0  0  0  0  0  0  0  0  0  0  0
  142.0600   78.5274  220.5265 H   0  0  0  0  0  0  0  0  0  0  0  0
  139.2813   78.5741  219.9573 H   0  0  0  0  0  0  0  0  0  0  0  0
  139.7417   77.6088  221.5083 H   0  0  0  0  0  0  0  0  0  0  0  0
  139.5710   80.4030  221.1270 H   0  0  0  0  0  0  0  0  0  0  0  0
  139.1314   79.1264  223.3742 H   0  0  0  0  0  0  0  0  0  0  0  0
  139.3840   81.5708  223.2869 H   0  0  0  0  0  0  0  0  0  0  0  0
  140.5520   80.9507  224.5169 H   0  0  0  0  0  0  0  0  0  0  0  0
  141.0357   82.0987  221.7944 H   0  0  0  0  0  0  0  0  0  0  0  0
  141.9078   82.3517  223.3669 H   0  0  0  0  0  0  0  0  0  0  0  0
  142.2281   80.1911  221.3085 H   0  0  0  0  0  0  0  0  0  0  0  0
  143.4632   81.1092  222.2506 H   0  0  0  0  0  0  0  0  0  0  0  0
  143.3757   78.8054  223.0122 H   0  0  0  0  0  0  0  0  0  0  0  0
  142.7383   79.9330  224.2887 H   0  0  0  0  0  0  0  0  0  0  0  0
  141.3638   77.8295  222.7104 H   0  0  0  0  0  0  0  0  0  0  0  0
  141.1402   78.3921  224.4228 H   0  0  0  0  0  0  0  0  0  0  0  0
  139.3894   70.0623  222.3908 H   0  0  0  0  0  0  0  0  0  0  0  0
  138.9660   68.4858  224.2823 H   0  0  0  0  0  0  0  0  0  0  0  0
  139.1897   68.0313  226.6281 H   0  0  0  0  0  0  0  0  0  0  0  0
  141.0772   70.8461  229.2290 H   0  0  0  0  0  0  0  0  0  0  0  0
  141.4765   72.3798  227.3406 H   0  0  0  0  0  0  0  0  0  0  0  0
  1  2  2  0
  2  3  1  0
  3  4  1  0
  4  5  1  0
  5  6  2  0
  5  7  1  0
  7  8  1  0
  8  9  1  0
  9 10  1  0
 10 11  1  0
 11 12  1  0
 12 13  1  0
 13 14  1  0
 14 15  1  0
 15 16  1  0
 16 17  1  0
 17 18  1  0
 18 19  1  0
 19 20  1  0
  2 21  1  0
 21 22  2  0
 22 23  1  0
 23 24  2  0
 24 25  1  0
 25 26  2  0
 26 27  1  0
 26 28  1  0
 28 29  2  0
 29 30  1  0
 30 31  2  0
 12  7  1  0
 20 15  1  0
 31 21  1  0
 30 24  1  0
  3 32  1  0
  4 33  1  0
  4 34  1  0
  8 35  1  0
  8 36  1  0
  9 37  1  0
  9 38  1  0
 10 39  1  0
 10 40  1  0
 11 41  1  0
 11 42  1  0
 12 43  1  1
 13 44  1  0
 13 45  1  0
 14 46  1  0
 15 47  1  0
 16 48  1  0
 16 49  1  0
 17 50  1  0
 17 51  1  0
 18 52  1  0
 18 53  1  0
 19 54  1  0
 19 55  1  0
 20 56  1  0
 20 57  1  0
 22 58  1  0
 23 59  1  0
 25 60  1  0
 28 61  1  0
 29 62  1  0
M  END
>  <smiles>  (3) 
O=C(NCC(=O)N1CCCC[C@H]1CNC1CCCCC1)c1ccc2cc(F)ccc2n1

>  <score_type>  (3) 
oracle

>  <origin>  (3) 
autodockgpu

>  <m_score__min__energy>  (3) 
-9.5700000000000003

>  <m_primary>  (3) 
energy

>  <rmsd>  (3) 
2.285386543663648

>  <m_score__min__rmsd>  (3) 
2.285386543663648

>  <meeko>  (3) 
{"free_energy": -8.75, "intermolecular_energy": -10.84, "internal_energy": -2.14, "cluster_size": 45, "cluster_id": 1, "rank_in_cluster": 21}

>  <energy>  (3) 
-9.42

>  <cluster_rmsd>  (3) 
0.56

>  <cluster>  (3) 
1

$$$$

     RDKit          3D

 62 65  0  0  0  0  0  0  0  0999 V2000
  140.8950   71.7090  221.3690 O   0  0  0  0  0  0  0  0  0  0  0  0
  140.3310   72.1380  222.4180 C   0  0  0  0  0  0  0  0  0  0  0  0
  139.8140   73.4820  222.3180 N   0  0  0  0  0  0  0  0  0  0  0  0
  140.0180   74.1300  221.0380 C   0  0  0  0  0  0  0  0  0  0  0  0
  140.0310   75.6240  221.2980 C   0  0  0  0  0  0  0  0  0  0  0  0
  139.6090   75.9490  222.4290 O   0  0  0  0  0  0  0  0  0  0  0  0
  140.4990   76.4820  220.2840 N   0  0  0  0  0  0  0  0  0  0  0  0
  140.1530   76.1100  218.9090 C   0  0  0  0  0  0  0  0  0  0  0  0
  139.3650   77.2850  218.3060 C   0  0  0  0  0  0  0  0  0  0  0  0
  140.3690   78.4010  218.2270 C   0  0  0  0  0  0  0  0  0  0  0  0
  140.7470   78.8100  219.6360 C   0  0  0  0  0  0  0  0  0  0  0  0
  141.2830   77.6810  220.4530 C   0  0  1  0  0  0  0  0  0  0  0  0
  141.4300   77.9740  221.9070 C   0  0  0  0  0  0  0  0  0  0  0  0
  140.3770   78.5510  222.6270 N   0  0  0  0  0  0  0  0  0  0  0  0
  140.5610   79.2710  223.8100 C   0  0  0  0  0  0  0  0  0  0  0  0
  139.6150   80.4850  223.7900 C   0  0  0  0  0  0  0  0  0  0  0  0
  139.7270   81.2250  222.4900 C   0  0  0  0  0  0  0  0  0  0  0  0
  141.1240   81.1470  221.9070 C   0  0  0  0  0  0  0  0  0  0  0  0
  142.1520   81.0570  223.0070 C   0  0  0  0  0  0  0  0  0  0  0  0
  142.0060   79.8100  223.8260 C   0  0  0  0  0  0  0  0  0  0  0  0
  140.2060   71.3510  223.6340 C   0  0  0  0  0  0  0  0  0  0  0  0
  139.5910   70.1070  223.5000 C   0  0  0  0  0  0  0  0  0  0  0  0
  139.4120   69.2720  224.5840 C   0  0  0  0  0  0  0  0  0  0  0  0
  139.8780   69.7360  225.8000 C   0  0  0  0  0  0  0  0  0  0  0  0
  139.7270   68.9370  226.9350 C   0  0  0  0  0  0  0  0  0  0  0  0
  140.1720   69.3530  228.1700 C   0  0  0  0  0  0  0  0  0  0  0  0
  139.9990   68.5400  229.2380 F   0  0  0  0  0  0  0  0  0  0  0  0
  140.7780   70.5930  228.2580 C   0  0  0  0  0  0  0  0  0  0  0  0
  140.9440   71.4090  227.1640 C   0  0  0  0  0  0  0  0  0  0  0  0
  140.4920   70.9740  225.9370 C   0  0  0  0  0  0  0  0  0  0  0  0
  140.6500   71.7740  224.8410 N   0  0  0  0  0  0  0  0  0  0  0  0
  139.3330   73.9270  223.1290 H   0  0  0  0  0  0  0  0  0  0  0  0
  140.9772   73.8135  220.6023 H   0  0  0  0  0  0  0  0  0  0  0  0
  139.2215   73.8606  220.3288 H   0  0  0  0  0  0  0  0  0  0  0  0
  141.0679   75.9305  218.3253 H   0  0  0  0  0  0  0  0  0  0  0  0
  139.5536   75.1878  218.8925 H   0  0  0  0  0  0  0  0  0  0  0  0
  138.9873   77.0286  217.3052 H   0  0  0  0  0  0  0  0  0  0  0  0
  138.4834   77.5533  218.9067 H   0  0  0  0  0  0  0  0  0  0  0  0
  141.2641   78.0571  217.6880 H   0  0  0  0  0  0  0  0  0  0  0  0
  139.9374   79.2581  217.6893 H   0  0  0  0  0  0  0  0  0  0  0  0
  141.5154   79.5949  219.5778 H   0  0  0  0  0  0  0  0  0  0  0  0
  139.8304   79.1645  220.1302 H   0  0  0  0  0  0  0  0  0  0  0  0
  142.2988   77.5274  220.0598 H   0  0  0  0  0  0  0  0  0  0  0  0
  141.6610   77.0177  222.3991 H   0  0  0  0  0  0  0  0  0  0  0  0
  142.1998   78.7596  221.9237 H   0  0  0  0  0  0  0  0  0  0  0  0
  139.4390   78.1090  222.4980 H   0  0  0  0  0  0  0  0  0  0  0  0
  140.3652   78.6309  224.6829 H   0  0  0  0  0  0  0  0  0  0  0  0
  138.5794   80.1376  223.9193 H   0  0  0  0  0  0  0  0  0  0  0  0
  139.8954   81.1645  224.6083 H   0  0  0  0  0  0  0  0  0  0  0  0
  139.0180   80.7883  221.7713 H   0  0  0  0  0  0  0  0  0  0  0  0
  139.4994   82.2838  222.6827 H   0  0  0  0  0  0  0  0  0  0  0  0
  141.1998   80.2555  221.2671 H   0  0  0  0  0  0  0  0  0  0  0  0
  141.3139   82.0554  221.3165 H   0  0  0  0  0  0  0  0  0  0  0  0
  143.1547   81.0671  222.5549 H   0  0  0  0  0  0  0  0  0  0  0  0
  142.0025   81.9169  223.6765 H   0  0  0  0  0  0  0  0  0  0  0  0
  142.6768   79.0385  223.4201 H   0  0  0  0  0  0  0  0  0  0  0  0
  142.2641   80.0561  224.8666 H   0  0  0  0  0  0  0  0  0  0  0  0
  139.2408   69.7840  222.5085 H   0  0  0  0  0  0  0  0  0  0  0  0
  138.9250   68.2906  224.4858 H   0  0  0  0  0  0  0  0  0  0  0  0
  139.2422   67.9541  226.8407 H   0  0  0  0  0  0  0  0  0  0  0  0
  141.1399   70.9385  229.2376 H   0  0  0  0  0  0  0  0  0  0  0  0
  141.4287   72.3911  227.2663 H   0  0  0  0  0  0  0  0  0  0  0  0
  1  2  2  0
  2  3  1  0
  3  4  1  0
  4  5  1  0
  5  6  2  0
  5  7  1  0
  7  8  1  0
  8  9  1  0
  9 10  1  0
 10 11  1  0
 11 12  1  0
 12 13  1  0
 13 14  1  0
 14 15  1  0
 15 16  1  0
 16 17  1  0
 17 18  1  0
 18 19  1  0
 19 20  1  0
  2 21  1  0
 21 22  2  0
 22 23  1  0
 23 24  2  0
 24 25  1  0
 25 26  2  0
 26 27  1  0
 26 28  1  0
 28 29  2  0
 29 30  1  0
 30 31  2  0
 12  7  1  0
 20 15  1  0
 31 21  1  0
 30 24  1  0
  3 32  1  0
  4 33  1  0
  4 34  1  0
  8 35  1  0
  8 36  1  0
  9 37  1  0
  9 38  1  0
 10 39  1  0
 10 40  1  0
 11 41  1  0
 11 42  1  0
 12 43  1  6
 13 44  1  0
 13 45  1  0
 14 46  1  0
 15 47  1  0
 16 48  1  0
 16 49  1  0
 17 50  1  0
 17 51  1  0
 18 52  1  0
 18 53  1  0
 19 54  1  0
 19 55  1  0
 20 56  1  0
 20 57  1  0
 22 58  1  0
 23 59  1  0
 25 60  1  0
 28 61  1  0
 29 62  1  0
M  END
>  <smiles>  (4) 
O=C(NCC(=O)N1CCCC[C@H]1CNC1CCCCC1)c1ccc2cc(F)ccc2n1

>  <score_type>  (4) 
oracle

>  <origin>  (4) 
autodockgpu

>  <m_score__min__energy>  (4) 
-9.5700000000000003

>  <m_primary>  (4) 
energy

>  <rmsd>  (4) 
1.884727210073499

>  <m_score__min__rmsd>  (4) 
1.884727210073499

>  <meeko>  (4) 
{"free_energy": -8.22, "intermolecular_energy": -10.31, "internal_energy": -2.76, "cluster_size": 45, "cluster_id": 1, "rank_in_cluster": 40}

>  <energy>  (4) 
-9.41

>  <cluster_rmsd>  (4) 
0.58

>  <cluster>  (4) 
1

$$$$

     RDKit          3D

 62 65  0  0  0  0  0  0  0  0999 V2000
  141.1600   71.9580  221.3880 O   0  0  0  0  0  0  0  0  0  0  0  0
  140.4240   72.3000  222.3590 C   0  0  0  0  0  0  0  0  0  0  0  0
  139.7610   73.5710  222.1950 N   0  0  0  0  0  0  0  0  0  0  0  0
  140.0380   74.2570  220.9480 C   0  0  0  0  0  0  0  0  0  0  0  0
  141.1140   75.2860  221.2410 C   0  0  0  0  0  0  0  0  0  0  0  0
  140.9830   75.8600  222.3440 O   0  0  0  0  0  0  0  0  0  0  0  0
  142.1260   75.4960  220.2850 N   0  0  0  0  0  0  0  0  0  0  0  0
  142.8120   74.2970  219.7930 C   0  0  0  0  0  0  0  0  0  0  0  0
  142.6150   74.2560  218.2680 C   0  0  0  0  0  0  0  0  0  0  0  0
  143.3820   75.4470  217.7650 C   0  0  0  0  0  0  0  0  0  0  0  0
  142.6950   76.7050  218.2560 C   0  0  0  0  0  0  0  0  0  0  0  0
  142.5600   76.7600  219.7430 C   0  0  1  0  0  0  0  0  0  0  0  0
  141.6770   77.8470  220.2520 C   0  0  0  0  0  0  0  0  0  0  0  0
  141.8580   78.3660  221.5400 N   0  0  0  0  0  0  0  0  0  0  0  0
  142.1790   79.7030  221.7890 C   0  0  0  0  0  0  0  0  0  0  0  0
  142.5960   79.8340  223.2650 C   0  0  0  0  0  0  0  0  0  0  0  0
  141.5920   79.1720  224.1620 C   0  0  0  0  0  0  0  0  0  0  0  0
  140.1870   79.2480  223.6000 C   0  0  0  0  0  0  0  0  0  0  0  0
  140.0080   80.5080  222.7920 C   0  0  0  0  0  0  0  0  0  0  0  0
  140.9040   80.5490  221.5910 C   0  0  0  0  0  0  0  0  0  0  0  0
  140.2500   71.4870  223.5520 C   0  0  0  0  0  0  0  0  0  0  0  0
  139.5520   70.2920  223.3850 C   0  0  0  0  0  0  0  0  0  0  0  0
  139.3210   69.4380  224.4440 C   0  0  0  0  0  0  0  0  0  0  0  0
  139.8200   69.8340  225.6710 C   0  0  0  0  0  0  0  0  0  0  0  0
  139.6190   69.0130  226.7820 C   0  0  0  0  0  0  0  0  0  0  0  0
  140.0940   69.3610  228.0270 C   0  0  0  0  0  0  0  0  0  0  0  0
  139.8710   68.5300  229.0710 F   0  0  0  0  0  0  0  0  0  0  0  0
  140.7830   70.5550  228.1480 C   0  0  0  0  0  0  0  0  0  0  0  0
  141.0010   71.3890  227.0790 C   0  0  0  0  0  0  0  0  0  0  0  0
  140.5170   71.0230  225.8420 C   0  0  0  0  0  0  0  0  0  0  0  0
  140.7250   71.8430  224.7680 N   0  0  0  0  0  0  0  0  0  0  0  0
  139.1330   73.9420  222.9400 H   0  0  0  0  0  0  0  0  0  0  0  0
  140.3950   73.5407  220.1933 H   0  0  0  0  0  0  0  0  0  0  0  0
  139.1308   74.7374  220.5528 H   0  0  0  0  0  0  0  0  0  0  0  0
  143.8840   74.3503  220.0335 H   0  0  0  0  0  0  0  0  0  0  0  0
  142.4034   73.3912  220.2647 H   0  0  0  0  0  0  0  0  0  0  0  0
  143.0210   73.3243  217.8471 H   0  0  0  0  0  0  0  0  0  0  0  0
  141.5540   74.2855  217.9793 H   0  0  0  0  0  0  0  0  0  0  0  0
  144.4125   75.4134  218.1485 H   0  0  0  0  0  0  0  0  0  0  0  0
  143.4113   75.4388  216.6654 H   0  0  0  0  0  0  0  0  0  0  0  0
  143.2814   77.5751  217.9258 H   0  0  0  0  0  0  0  0  0  0  0  0
  141.6787   76.7078  217.8352 H   0  0  0  0  0  0  0  0  0  0  0  0
  143.5761   76.9925  220.0944 H   0  0  0  0  0  0  0  0  0  0  0  0
  141.7825   78.6911  219.5546 H   0  0  0  0  0  0  0  0  0  0  0  0
  140.6948   77.3564  220.3191 H   0  0  0  0  0  0  0  0  0  0  0  0
  142.1420   77.6800  222.2740 H   0  0  0  0  0  0  0  0  0  0  0  0
  142.9856   80.0352  221.1189 H   0  0  0  0  0  0  0  0  0  0  0  0
  143.5767   79.3563  223.4066 H   0  0  0  0  0  0  0  0  0  0  0  0
  142.6500   80.9019  223.5231 H   0  0  0  0  0  0  0  0  0  0  0  0
  141.8684   78.1143  224.2838 H   0  0  0  0  0  0  0  0  0  0  0  0
  141.5997   79.7005  225.1267 H   0  0  0  0  0  0  0  0  0  0  0  0
  140.0079   78.3756  222.9543 H   0  0  0  0  0  0  0  0  0  0  0  0
  139.4704   79.2562  224.4345 H   0  0  0  0  0  0  0  0  0  0  0  0
  138.9625   80.5659  222.4549 H   0  0  0  0  0  0  0  0  0  0  0  0
  140.2716   81.3597  223.4362 H   0  0  0  0  0  0  0  0  0  0  0  0
  140.3516   80.1602  220.7229 H   0  0  0  0  0  0  0  0  0  0  0  0
  141.2115   81.5933  221.4333 H   0  0  0  0  0  0  0  0  0  0  0  0
  139.1768   70.0237  222.3864 H   0  0  0  0  0  0  0  0  0  0  0  0
  138.7701   68.4941  224.3188 H   0  0  0  0  0  0  0  0  0  0  0  0
  139.0695   68.0679  226.6604 H   0  0  0  0  0  0  0  0  0  0  0  0
  141.1698   70.8464  229.1356 H   0  0  0  0  0  0  0  0  0  0  0  0
  141.5521   72.3322  227.2080 H   0  0  0  0  0  0  0  0  0  0  0  0
  1  2  2  0
  2  3  1  0
  3  4  1  0
  4  5  1  0
  5  6  2  0
  5  7  1  0
  7  8  1  0
  8  9  1  0
  9 10  1  0
 10 11  1  0
 11 12  1  0
 12 13  1  0
 13 14  1  0
 14 15  1  0
 15 16  1  0
 16 17  1  0
 17 18  1  0
 18 19  1  0
 19 20  1  0
  2 21  1  0
 21 22  2  0
 22 23  1  0
 23 24  2  0
 24 25  1  0
 25 26  2  0
 26 27  1  0
 26 28  1  0
 28 29  2  0
 29 30  1  0
 30 31  2  0
 12  7  1  0
 20 15  1  0
 31 21  1  0
 30 24  1  0
  3 32  1  0
  4 33  1  0
  4 34  1  0
  8 35  1  0
  8 36  1  0
  9 37  1  0
  9 38  1  0
 10 39  1  0
 10 40  1  0
 11 41  1  0
 11 42  1  0
 12 43  1  1
 13 44  1  0
 13 45  1  0
 14 46  1  0
 15 47  1  0
 16 48  1  0
 16 49  1  0
 17 50  1  0
 17 51  1  0
 18 52  1  0
 18 53  1  0
 19 54  1  0
 19 55  1  0
 20 56  1  0
 20 57  1  0
 22 58  1  0
 23 59  1  0
 25 60  1  0
 28 61  1  0
 29 62  1  0
M  END
>  <smiles>  (5) 
O=C(NCC(=O)N1CCCC[C@H]1CNC1CCCCC1)c1ccc2cc(F)ccc2n1

>  <score_type>  (5) 
oracle

>  <origin>  (5) 
autodockgpu

>  <m_score__min__energy>  (5) 
-9.5700000000000003

>  <m_primary>  (5) 
energy

>  <rmsd>  (5) 
2.5262360480525845

>  <m_score__min__rmsd>  (5) 
2.5262360480525845

>  <meeko>  (5) 
{"free_energy": -9.32, "intermolecular_energy": -11.41, "internal_energy": -2.42, "cluster_size": 45, "cluster_id": 1, "rank_in_cluster": 7}

>  <energy>  (5) 
-9.39

>  <cluster_rmsd>  (5) 
0.57

>  <cluster>  (5) 
1

$$$$

     RDKit          3D

 62 65  0  0  0  0  0  0  0  0999 V2000
  140.8840   71.9100  221.3010 O   0  0  0  0  0  0  0  0  0  0  0  0
  140.3230   72.3030  222.3650 C   0  0  0  0  0  0  0  0  0  0  0  0
  139.7950   73.6450  222.3080 N   0  0  0  0  0  0  0  0  0  0  0  0
  139.9860   74.3320  221.0460 C   0  0  0  0  0  0  0  0  0  0  0  0
  140.8440   75.5490  221.3320 C   0  0  0  0  0  0  0  0  0  0  0  0
  140.4850   76.2010  222.3370 O   0  0  0  0  0  0  0  0  0  0  0  0
  141.9280   75.8270  220.4780 N   0  0  0  0  0  0  0  0  0  0  0  0
  142.6750   74.6670  219.9800 C   0  0  0  0  0  0  0  0  0  0  0  0
  142.6070   74.7110  218.4430 C   0  0  0  0  0  0  0  0  0  0  0  0
  143.3900   75.9390  218.0740 C   0  0  0  0  0  0  0  0  0  0  0  0
  142.6420   77.1580  218.5750 C   0  0  0  0  0  0  0  0  0  0  0  0
  142.3830   77.1250  220.0460 C   0  0  1  0  0  0  0  0  0  0  0  0
  141.4410   78.1690  220.5390 C   0  0  0  0  0  0  0  0  0  0  0  0
  141.9020   79.2290  221.3280 N   0  0  0  0  0  0  0  0  0  0  0  0
  141.0970   80.3020  221.7190 C   0  0  0  0  0  0  0  0  0  0  0  0
  141.8730   81.1410  222.7500 C   0  0  0  0  0  0  0  0  0  0  0  0
  142.4490   80.2640  223.8230 C   0  0  0  0  0  0  0  0  0  0  0  0
  141.5800   79.0550  224.0990 C   0  0  0  0  0  0  0  0  0  0  0  0
  140.1270   79.3810  223.8590 C   0  0  0  0  0  0  0  0  0  0  0  0
  139.8500   79.7340  222.4280 C   0  0  0  0  0  0  0  0  0  0  0  0
  140.2130   71.4790  223.5580 C   0  0  0  0  0  0  0  0  0  0  0  0
  139.5840   70.2450  223.3970 C   0  0  0  0  0  0  0  0  0  0  0  0
  139.4170   69.3780  224.4570 C   0  0  0  0  0  0  0  0  0  0  0  0
  139.9080   69.8010  225.6790 C   0  0  0  0  0  0  0  0  0  0  0  0
  139.7690   68.9680  226.7910 C   0  0  0  0  0  0  0  0  0  0  0  0
  140.2390   69.3420  228.0300 C   0  0  0  0  0  0  0  0  0  0  0  0
  140.0780   68.4980  229.0750 F   0  0  0  0  0  0  0  0  0  0  0  0
  140.8570   70.5740  228.1460 C   0  0  0  0  0  0  0  0  0  0  0  0
  141.0110   71.4220  227.0750 C   0  0  0  0  0  0  0  0  0  0  0  0
  140.5340   71.0290  225.8430 C   0  0  0  0  0  0  0  0  0  0  0  0
  140.6810   71.8610  224.7690 N   0  0  0  0  0  0  0  0  0  0  0  0
  139.3150   74.0610  223.1350 H   0  0  0  0  0  0  0  0  0  0  0  0
  140.4944   73.6709  220.3287 H   0  0  0  0  0  0  0  0  0  0  0  0
  139.0207   74.6252  220.6075 H   0  0  0  0  0  0  0  0  0  0  0  0
  143.7220   74.7210  220.3131 H   0  0  0  0  0  0  0  0  0  0  0  0
  142.2453   73.7302  220.3643 H   0  0  0  0  0  0  0  0  0  0  0  0
  143.0644   73.8109  218.0064 H   0  0  0  0  0  0  0  0  0  0  0  0
  141.5734   74.7421  218.0679 H   0  0  0  0  0  0  0  0  0  0  0  0
  144.3855   75.8977  218.5401 H   0  0  0  0  0  0  0  0  0  0  0  0
  143.5099   75.9942  216.9819 H   0  0  0  0  0  0  0  0  0  0  0  0
  143.2382   78.0533  218.3448 H   0  0  0  0  0  0  0  0  0  0  0  0
  141.6645   77.1723  218.0708 H   0  0  0  0  0  0  0  0  0  0  0  0
  143.3623   77.3496  220.4938 H   0  0  0  0  0  0  0  0  0  0  0  0
  140.9754   78.6182  219.6493 H   0  0  0  0  0  0  0  0  0  0  0  0
  140.7940   77.6100  221.2311 H   0  0  0  0  0  0  0  0  0  0  0  0
  142.9290   79.4160  221.2890 H   0  0  0  0  0  0  0  0  0  0  0  0
  140.8173   80.9096  220.8457 H   0  0  0  0  0  0  0  0  0  0  0  0
  142.6904   81.6727  222.2410 H   0  0  0  0  0  0  0  0  0  0  0  0
  141.1809   81.8590  223.2142 H   0  0  0  0  0  0  0  0  0  0  0  0
  143.4439   79.9201  223.5037 H   0  0  0  0  0  0  0  0  0  0  0  0
  142.5089   80.8561  224.7481 H   0  0  0  0  0  0  0  0  0  0  0  0
  141.8812   78.2333  223.4326 H   0  0  0  0  0  0  0  0  0  0  0  0
  141.7083   78.7580  225.1504 H   0  0  0  0  0  0  0  0  0  0  0  0
  139.5188   78.5058  224.1312 H   0  0  0  0  0  0  0  0  0  0  0  0
  139.8728   80.2556  224.4758 H   0  0  0  0  0  0  0  0  0  0  0  0
  139.5212   78.8288  221.8965 H   0  0  0  0  0  0  0  0  0  0  0  0
  139.0701   80.5096  222.4151 H   0  0  0  0  0  0  0  0  0  0  0  0
  139.2127   69.9564  222.4026 H   0  0  0  0  0  0  0  0  0  0  0  0
  138.9206   68.4037  224.3370 H   0  0  0  0  0  0  0  0  0  0  0  0
  139.2737   67.9927  226.6748 H   0  0  0  0  0  0  0  0  0  0  0  0
  141.2385   70.8861  229.1294 H   0  0  0  0  0  0  0  0  0  0  0  0
  141.5059   72.3965  227.1990 H   0  0  0  0  0  0  0  0  0  0  0  0
  1  2  2  0
  2  3  1  0
  3  4  1  0
  4  5  1  0
  5  6  2  0
  5  7  1  0
  7  8  1  0
  8  9  1  0
  9 10  1  0
 10 11  1  0
 11 12  1  0
 12 13  1  0
 13 14  1  0
 14 15  1  0
 15 16  1  0
 16 17  1  0
 17 18  1  0
 18 19  1  0
 19 20  1  0
  2 21  1  0
 21 22  2  0
 22 23  1  0
 23 24  2  0
 24 25  1  0
 25 26  2  0
 26 27  1  0
 26 28  1  0
 28 29  2  0
 29 30  1  0
 30 31  2  0
 12  7  1  0
 20 15  1  0
 31 21  1  0
 30 24  1  0
  3 32  1  0
  4 33  1  0
  4 34  1  0
  8 35  1  0
  8 36  1  0
  9 37  1  0
  9 38  1  0
 10 39  1  0
 10 40  1  0
 11 41  1  0
 11 42  1  0
 12 43  1  1
 13 44  1  0
 13 45  1  0
 14 46  1  0
 15 47  1  0
 16 48  1  0
 16 49  1  0
 17 50  1  0
 17 51  1  0
 18 52  1  0
 18 53  1  0
 19 54  1  0
 19 55  1  0
 20 56  1  0
 20 57  1  0
 22 58  1  0
 23 59  1  0
 25 60  1  0
 28 61  1  0
 29 62  1  0
M  END
>  <smiles>  (6) 
O=C(NCC(=O)N1CCCC[C@H]1CNC1CCCCC1)c1ccc2cc(F)ccc2n1

>  <score_type>  (6) 
oracle

>  <origin>  (6) 
autodockgpu

>  <m_score__min__energy>  (6) 
-9.5700000000000003

>  <m_primary>  (6) 
energy

>  <rmsd>  (6) 
2.5564703176678205

>  <m_score__min__rmsd>  (6) 
2.5564703176678205

>  <meeko>  (6) 
{"free_energy": -9.57, "intermolecular_energy": -11.66, "internal_energy": -1.88, "cluster_size": 45, "cluster_id": 1, "rank_in_cluster": 1}

>  <energy>  (6) 
-9.36

>  <cluster_rmsd>  (6) 
0.54

>  <cluster>  (6) 
1

$$$$

     RDKit          3D

 62 65  0  0  0  0  0  0  0  0999 V2000
  138.8090   71.0340  221.6670 O   0  0  0  0  0  0  0  0  0  0  0  0
  139.2860   71.4970  222.7440 C   0  0  0  0  0  0  0  0  0  0  0  0
  139.5820   72.9090  222.7140 N   0  0  0  0  0  0  0  0  0  0  0  0
  139.2880   73.5770  221.4610 C   0  0  0  0  0  0  0  0  0  0  0  0
  139.6690   75.0340  221.6400 C   0  0  0  0  0  0  0  0  0  0  0  0
  140.8380   75.2100  222.0470 O   0  0  0  0  0  0  0  0  0  0  0  0
  138.7120   76.0240  221.3420 N   0  0  0  0  0  0  0  0  0  0  0  0
  137.3260   75.7160  221.7090 C   0  0  0  0  0  0  0  0  0  0  0  0
  136.8580   76.8180  222.6740 C   0  0  0  0  0  0  0  0  0  0  0  0
  136.8310   78.0610  221.8300 C   0  0  0  0  0  0  0  0  0  0  0  0
  138.2520   78.4070  221.4360 C   0  0  0  0  0  0  0  0  0  0  0  0
  138.9480   77.3000  220.7140 C   0  0  1  0  0  0  0  0  0  0  0  0
  140.4140   77.4970  220.5290 C   0  0  0  0  0  0  0  0  0  0  0  0
  141.2070   77.9660  221.5840 N   0  0  0  0  0  0  0  0  0  0  0  0
  141.8470   79.2080  221.5680 C   0  0  0  0  0  0  0  0  0  0  0  0
  142.6070   79.3770  222.8960 C   0  0  0  0  0  0  0  0  0  0  0  0
  141.7200   79.0560  224.0620 C   0  0  0  0  0  0  0  0  0  0  0  0
  140.2710   79.4040  223.7900 C   0  0  0  0  0  0  0  0  0  0  0  0
  140.1770   80.5890  222.8610 C   0  0  0  0  0  0  0  0  0  0  0  0
  140.7640   80.3060  221.5110 C   0  0  0  0  0  0  0  0  0  0  0  0
  139.5220   70.6830  223.9260 C   0  0  0  0  0  0  0  0  0  0  0  0
  139.1010   69.3560  223.8510 C   0  0  0  0  0  0  0  0  0  0  0  0
  139.2670   68.4870  224.9110 C   0  0  0  0  0  0  0  0  0  0  0  0
  139.8720   69.0060  226.0410 C   0  0  0  0  0  0  0  0  0  0  0  0
  140.0690   68.1770  227.1460 C   0  0  0  0  0  0  0  0  0  0  0  0
  140.6660   68.6450  228.2960 C   0  0  0  0  0  0  0  0  0  0  0  0
  140.8310   67.7990  229.3400 F   0  0  0  0  0  0  0  0  0  0  0  0
  141.0690   69.9670  228.3270 C   0  0  0  0  0  0  0  0  0  0  0  0
  140.8920   70.8140  227.2600 C   0  0  0  0  0  0  0  0  0  0  0  0
  140.2930   70.3270  226.1180 C   0  0  0  0  0  0  0  0  0  0  0  0
  140.1100   71.1580  225.0480 N   0  0  0  0  0  0  0  0  0  0  0  0
  139.9790   73.3860  223.5530 H   0  0  0  0  0  0  0  0  0  0  0  0
  139.8761   73.1293  220.6463 H   0  0  0  0  0  0  0  0  0  0  0  0
  138.2239   73.4768  221.2010 H   0  0  0  0  0  0  0  0  0  0  0  0
  136.6911   75.7065  220.8108 H   0  0  0  0  0  0  0  0  0  0  0  0
  137.2574   74.7257  222.1829 H   0  0  0  0  0  0  0  0  0  0  0  0
  135.8560   76.5920  223.0676 H   0  0  0  0  0  0  0  0  0  0  0  0
  137.5159   76.9180  223.5498 H   0  0  0  0  0  0  0  0  0  0  0  0
  136.2287   77.8830  220.9269 H   0  0  0  0  0  0  0  0  0  0  0  0
  136.3849   78.8913  222.3971 H   0  0  0  0  0  0  0  0  0  0  0  0
  138.2281   79.2907  220.7815 H   0  0  0  0  0  0  0  0  0  0  0  0
  138.8121   78.5954  222.3638 H   0  0  0  0  0  0  0  0  0  0  0  0
  138.5008   77.3150  219.7091 H   0  0  0  0  0  0  0  0  0  0  0  0
  140.8281   76.5219  220.2328 H   0  0  0  0  0  0  0  0  0  0  0  0
  140.4630   78.3182  219.7987 H   0  0  0  0  0  0  0  0  0  0  0  0
  141.6370   77.2340  222.1930 H   0  0  0  0  0  0  0  0  0  0  0  0
  142.5305   79.2774  220.7089 H   0  0  0  0  0  0  0  0  0  0  0  0
  143.4733   78.6991  222.9045 H   0  0  0  0  0  0  0  0  0  0  0  0
  142.9380   80.4225  222.9822 H   0  0  0  0  0  0  0  0  0  0  0  0
  141.7918   77.9794  224.2762 H   0  0  0  0  0  0  0  0  0  0  0  0
  142.0571   79.6575  224.9191 H   0  0  0  0  0  0  0  0  0  0  0  0
  139.7723   78.5402  223.3263 H   0  0  0  0  0  0  0  0  0  0  0  0
  139.7819   79.6587  224.7418 H   0  0  0  0  0  0  0  0  0  0  0  0
  139.1174   80.8566  222.7362 H   0  0  0  0  0  0  0  0  0  0  0  0
  140.7512   81.4129  223.3099 H   0  0  0  0  0  0  0  0  0  0  0  0
  139.9600   79.9766  220.8365 H   0  0  0  0  0  0  0  0  0  0  0  0
  141.2369   81.2299  221.1466 H   0  0  0  0  0  0  0  0  0  0  0  0
  138.6263   68.9935  222.9273 H   0  0  0  0  0  0  0  0  0  0  0  0
  138.9361   67.4392  224.8595 H   0  0  0  0  0  0  0  0  0  0  0  0
  139.7409   67.1282  227.0979 H   0  0  0  0  0  0  0  0  0  0  0  0
  141.5483   70.3544  229.2382 H   0  0  0  0  0  0  0  0  0  0  0  0
  141.2223   71.8618  227.3159 H   0  0  0  0  0  0  0  0  0  0  0  0
  1  2  2  0
  2  3  1  0
  3  4  1  0
  4  5  1  0
  5  6  2  0
  5  7  1  0
  7  8  1  0
  8  9  1  0
  9 10  1  0
 10 11  1  0
 11 12  1  0
 12 13  1  0
 13 14  1  0
 14 15  1  0
 15 16  1  0
 16 17  1  0
 17 18  1  0
 18 19  1  0
 19 20  1  0
  2 21  1  0
 21 22  2  0
 22 23  1  0
 23 24  2  0
 24 25  1  0
 25 26  2  0
 26 27  1  0
 26 28  1  0
 28 29  2  0
 29 30  1  0
 30 31  2  0
 12  7  1  0
 20 15  1  0
 31 21  1  0
 30 24  1  0
  3 32  1  0
  4 33  1  0
  4 34  1  0
  8 35  1  0
  8 36  1  0
  9 37  1  0
  9 38  1  0
 10 39  1  0
 10 40  1  0
 11 41  1  0
 11 42  1  0
 12 43  1  6
 13 44  1  0
 13 45  1  0
 14 46  1  0
 15 47  1  0
 16 48  1  0
 16 49  1  0
 17 50  1  0
 17 51  1  0
 18 52  1  0
 18 53  1  0
 19 54  1  0
 19 55  1  0
 20 56  1  0
 20 57  1  0
 22 58  1  0
 23 59  1  0
 25 60  1  0
 28 61  1  0
 29 62  1  0
M  END
>  <smiles>  (7) 
O=C(NCC(=O)N1CCCC[C@H]1CNC1CCCCC1)c1ccc2cc(F)ccc2n1

>  <score_type>  (7) 
oracle

>  <origin>  (7) 
autodockgpu

>  <m_score__min__energy>  (7) 
-9.5700000000000003

>  <m_primary>  (7) 
energy

>  <rmsd>  (7) 
3.0068809634293228

>  <m_score__min__rmsd>  (7) 
3.0068809634293228

>  <meeko>  (7) 
{"free_energy": -8.54, "intermolecular_energy": -10.63, "internal_energy": -2.65, "cluster_size": 45, "cluster_id": 1, "rank_in_cluster": 27}

>  <energy>  (7) 
-9.32

>  <cluster_rmsd>  (7) 
0.58

>  <cluster>  (7) 
1

$$$$

     RDKit          3D

 62 65  0  0  0  0  0  0  0  0999 V2000
  140.9040   71.8450  221.3300 O   0  0  0  0  0  0  0  0  0  0  0  0
  140.3690   72.2660  222.3960 C   0  0  0  0  0  0  0  0  0  0  0  0
  139.9000   73.6290  222.3370 N   0  0  0  0  0  0  0  0  0  0  0  0
  140.1110   74.3030  221.0710 C   0  0  0  0  0  0  0  0  0  0  0  0
  140.9700   75.5200  221.3570 C   0  0  0  0  0  0  0  0  0  0  0  0
  140.6680   76.1210  222.4110 O   0  0  0  0  0  0  0  0  0  0  0  0
  141.9930   75.8530  220.4490 N   0  0  0  0  0  0  0  0  0  0  0  0
  142.7060   74.7280  219.8350 C   0  0  0  0  0  0  0  0  0  0  0  0
  142.5330   74.8600  218.3120 C   0  0  0  0  0  0  0  0  0  0  0  0
  143.2880   76.1120  217.9620 C   0  0  0  0  0  0  0  0  0  0  0  0
  142.5730   77.2950  218.5820 C   0  0  0  0  0  0  0  0  0  0  0  0
  142.4150   77.1760  220.0630 C   0  0  1  0  0  0  0  0  0  0  0  0
  141.5060   78.1850  220.6780 C   0  0  0  0  0  0  0  0  0  0  0  0
  142.0130   79.1790  221.5240 N   0  0  0  0  0  0  0  0  0  0  0  0
  142.1500   79.0140  222.9050 C   0  0  0  0  0  0  0  0  0  0  0  0
  140.7490   79.0730  223.5400 C   0  0  0  0  0  0  0  0  0  0  0  0
  139.9900   80.2680  223.0440 C   0  0  0  0  0  0  0  0  0  0  0  0
  140.9030   81.4380  222.7390 C   0  0  0  0  0  0  0  0  0  0  0  0
  142.1040   81.4240  223.6510 C   0  0  0  0  0  0  0  0  0  0  0  0
  142.9590   80.2080  223.4530 C   0  0  0  0  0  0  0  0  0  0  0  0
  140.2310   71.4530  223.5940 C   0  0  0  0  0  0  0  0  0  0  0  0
  139.5930   70.2240  223.4310 C   0  0  0  0  0  0  0  0  0  0  0  0
  139.4000   69.3670  224.4950 C   0  0  0  0  0  0  0  0  0  0  0  0
  139.8750   69.7940  225.7220 C   0  0  0  0  0  0  0  0  0  0  0  0
  139.7110   68.9710  226.8370 C   0  0  0  0  0  0  0  0  0  0  0  0
  140.1650   69.3500  228.0810 C   0  0  0  0  0  0  0  0  0  0  0  0
  139.9790   68.5150  229.1300 F   0  0  0  0  0  0  0  0  0  0  0  0
  140.7940   70.5760  228.1970 C   0  0  0  0  0  0  0  0  0  0  0  0
  140.9740   71.4140  227.1230 C   0  0  0  0  0  0  0  0  0  0  0  0
  140.5120   71.0170  225.8870 C   0  0  0  0  0  0  0  0  0  0  0  0
  140.6840   71.8390  224.8090 N   0  0  0  0  0  0  0  0  0  0  0  0
  139.4440   74.0700  223.1660 H   0  0  0  0  0  0  0  0  0  0  0  0
  140.6266   73.6331  220.3672 H   0  0  0  0  0  0  0  0  0  0  0  0
  139.1530   74.5955  220.6165 H   0  0  0  0  0  0  0  0  0  0  0  0
  143.7732   74.7686  220.0985 H   0  0  0  0  0  0  0  0  0  0  0  0
  142.3052   73.7682  220.1929 H   0  0  0  0  0  0  0  0  0  0  0  0
  142.9606   73.9889  217.7939 H   0  0  0  0  0  0  0  0  0  0  0  0
  141.4762   74.9073  218.0106 H   0  0  0  0  0  0  0  0  0  0  0  0
  144.3128   76.0496  218.3567 H   0  0  0  0  0  0  0  0  0  0  0  0
  143.3344   76.2306  216.8694 H   0  0  0  0  0  0  0  0  0  0  0  0
  143.1498   78.2059  218.3639 H   0  0  0  0  0  0  0  0  0  0  0  0
  141.5633   77.3318  218.1471 H   0  0  0  0  0  0  0  0  0  0  0  0
  143.4220   77.3801  220.4559 H   0  0  0  0  0  0  0  0  0  0  0  0
  141.0044   78.7040  219.8479 H   0  0  0  0  0  0  0  0  0  0  0  0
  140.8862   77.5783  221.3545 H   0  0  0  0  0  0  0  0  0  0  0  0
  141.9150   80.1620  221.1850 H   0  0  0  0  0  0  0  0  0  0  0  0
  142.6467   78.0590  223.1313 H   0  0  0  0  0  0  0  0  0  0  0  0
  140.1952   78.1595  223.2776 H   0  0  0  0  0  0  0  0  0  0  0  0
  140.8594   79.1532  224.6315 H   0  0  0  0  0  0  0  0  0  0  0  0
  139.4514   79.9899  222.1261 H   0  0  0  0  0  0  0  0  0  0  0  0
  139.2941   80.5797  223.8368 H   0  0  0  0  0  0  0  0  0  0  0  0
  141.2411   81.3703  221.6944 H   0  0  0  0  0  0  0  0  0  0  0  0
  140.3468   82.3736  222.8983 H   0  0  0  0  0  0  0  0  0  0  0  0
  142.7109   82.3190  223.4494 H   0  0  0  0  0  0  0  0  0  0  0  0
  141.7371   81.4104  224.6879 H   0  0  0  0  0  0  0  0  0  0  0  0
  143.7610   80.4503  222.7402 H   0  0  0  0  0  0  0  0  0  0  0  0
  143.3695   79.9190  224.4317 H   0  0  0  0  0  0  0  0  0  0  0  0
  139.2358   69.9313  222.4326 H   0  0  0  0  0  0  0  0  0  0  0  0
  138.8958   68.3969  224.3741 H   0  0  0  0  0  0  0  0  0  0  0  0
  139.2087   67.9994  226.7200 H   0  0  0  0  0  0  0  0  0  0  0  0
  141.1633   70.8916  229.1839 H   0  0  0  0  0  0  0  0  0  0  0  0
  141.4776   72.3840  227.2476 H   0  0  0  0  0  0  0  0  0  0  0  0
  1  2  2  0
  2  3  1  0
  3  4  1  0
  4  5  1  0
  5  6  2  0
  5  7  1  0
  7  8  1  0
  8  9  1  0
  9 10  1  0
 10 11  1  0
 11 12  1  0
 12 13  1  0
 13 14  1  0
 14 15  1  0
 15 16  1  0
 16 17  1  0
 17 18  1  0
 18 19  1  0
 19 20  1  0
  2 21  1  0
 21 22  2  0
 22 23  1  0
 23 24  2  0
 24 25  1  0
 25 26  2  0
 26 27  1  0
 26 28  1  0
 28 29  2  0
 29 30  1  0
 30 31  2  0
 12  7  1  0
 20 15  1  0
 31 21  1  0
 30 24  1  0
  3 32  1  0
  4 33  1  0
  4 34  1  0
  8 35  1  0
  8 36  1  0
  9 37  1  0
  9 38  1  0
 10 39  1  0
 10 40  1  0
 11 41  1  0
 11 42  1  0
 12 43  1  1
 13 44  1  0
 13 45  1  0
 14 46  1  0
 15 47  1  0
 16 48  1  0
 16 49  1  0
 17 50  1  0
 17 51  1  0
 18 52  1  0
 18 53  1  0
 19 54  1  0
 19 55  1  0
 20 56  1  0
 20 57  1  0
 22 58  1  0
 23 59  1  0
 25 60  1  0
 28 61  1  0
 29 62  1  0
M  END
>  <smiles>  (8) 
O=C(NCC(=O)N1CCCC[C@H]1CNC1CCCCC1)c1ccc2cc(F)ccc2n1

>  <score_type>  (8) 
oracle

>  <origin>  (8) 
autodockgpu

>  <m_score__min__energy>  (8) 
-9.5700000000000003

>  <m_primary>  (8) 
energy

>  <rmsd>  (8) 
2.1292885104361856

>  <m_score__min__rmsd>  (8) 
2.1292885104361856

>  <meeko>  (8) 
{"free_energy": -9.24, "intermolecular_energy": -11.33, "internal_energy": -1.8, "cluster_size": 45, "cluster_id": 1, "rank_in_cluster": 8}

>  <energy>  (8) 
-9.24

>  <cluster_rmsd>  (8) 
0.47

>  <cluster>  (8) 
1

$$$$

     RDKit          3D

 62 65  0  0  0  0  0  0  0  0999 V2000
  140.8620   71.8260  221.2510 O   0  0  0  0  0  0  0  0  0  0  0  0
  140.3820   72.2840  222.3290 C   0  0  0  0  0  0  0  0  0  0  0  0
  139.9830   73.6690  222.2690 N   0  0  0  0  0  0  0  0  0  0  0  0
  140.1910   74.3190  220.9900 C   0  0  0  0  0  0  0  0  0  0  0  0
  141.2350   75.3980  221.2100 C   0  0  0  0  0  0  0  0  0  0  0  0
  141.2190   75.8980  222.3550 O   0  0  0  0  0  0  0  0  0  0  0  0
  142.0980   75.7280  220.1470 N   0  0  0  0  0  0  0  0  0  0  0  0
  142.7820   74.6070  219.4950 C   0  0  0  0  0  0  0  0  0  0  0  0
  142.3880   74.6390  218.0080 C   0  0  0  0  0  0  0  0  0  0  0  0
  143.0100   75.9050  217.4890 C   0  0  0  0  0  0  0  0  0  0  0  0
  142.3220   77.0850  218.1440 C   0  0  0  0  0  0  0  0  0  0  0  0
  142.3820   77.0460  219.6360 C   0  0  1  0  0  0  0  0  0  0  0  0
  141.5110   78.0420  220.3240 C   0  0  0  0  0  0  0  0  0  0  0  0
  141.8440   78.5180  221.5980 N   0  0  0  0  0  0  0  0  0  0  0  0
  142.1890   79.8480  221.8530 C   0  0  0  0  0  0  0  0  0  0  0  0
  142.6060   79.9660  223.3300 C   0  0  0  0  0  0  0  0  0  0  0  0
  141.5880   79.3180  224.2220 C   0  0  0  0  0  0  0  0  0  0  0  0
  140.1860   79.4220  223.6590 C   0  0  0  0  0  0  0  0  0  0  0  0
  140.0310   80.6890  222.8550 C   0  0  0  0  0  0  0  0  0  0  0  0
  140.9300   80.7180  221.6560 C   0  0  0  0  0  0  0  0  0  0  0  0
  140.2390   71.4890  223.5380 C   0  0  0  0  0  0  0  0  0  0  0  0
  139.5700   70.2740  223.3990 C   0  0  0  0  0  0  0  0  0  0  0  0
  139.3690   69.4350  224.4750 C   0  0  0  0  0  0  0  0  0  0  0  0
  139.8670   69.8670  225.6910 C   0  0  0  0  0  0  0  0  0  0  0  0
  139.6960   69.0620  226.8190 C   0  0  0  0  0  0  0  0  0  0  0  0
  140.1710   69.4460  228.0530 C   0  0  0  0  0  0  0  0  0  0  0  0
  139.9770   68.6300  229.1150 F   0  0  0  0  0  0  0  0  0  0  0  0
  140.8300   70.6590  228.1470 C   0  0  0  0  0  0  0  0  0  0  0  0
  141.0180   71.4790  227.0590 C   0  0  0  0  0  0  0  0  0  0  0  0
  140.5340   71.0760  225.8340 C   0  0  0  0  0  0  0  0  0  0  0  0
  140.7130   71.8810  224.7430 N   0  0  0  0  0  0  0  0  0  0  0  0
  139.5760   74.1400  223.1070 H   0  0  0  0  0  0  0  0  0  0  0  0
  140.5505   73.5899  220.2489 H   0  0  0  0  0  0  0  0  0  0  0  0
  139.2531   74.7497  220.6095 H   0  0  0  0  0  0  0  0  0  0  0  0
  143.8714   74.7179  219.5990 H   0  0  0  0  0  0  0  0  0  0  0  0
  142.4931   73.6509  219.9558 H   0  0  0  0  0  0  0  0  0  0  0  0
  142.7892   73.7619  217.4791 H   0  0  0  0  0  0  0  0  0  0  0  0
  141.2983   74.6136  217.8602 H   0  0  0  0  0  0  0  0  0  0  0  0
  144.0823   75.9185  217.7338 H   0  0  0  0  0  0  0  0  0  0  0  0
  142.8933   75.9608  216.3966 H   0  0  0  0  0  0  0  0  0  0  0  0
  142.8081   78.0093  217.7984 H   0  0  0  0  0  0  0  0  0  0  0  0
  141.2606   77.0451  217.8580 H   0  0  0  0  0  0  0  0  0  0  0  0
  143.4207   77.3244  219.8676 H   0  0  0  0  0  0  0  0  0  0  0  0
  141.4549   78.9204  219.6642 H   0  0  0  0  0  0  0  0  0  0  0  0
  140.5850   77.4767  220.5057 H   0  0  0  0  0  0  0  0  0  0  0  0
  142.2160   77.8100  222.2680 H   0  0  0  0  0  0  0  0  0  0  0  0
  143.0028   80.1678  221.1856 H   0  0  0  0  0  0  0  0  0  0  0  0
  143.5778   79.4704  223.4715 H   0  0  0  0  0  0  0  0  0  0  0  0
  142.6792   81.0317  223.5927 H   0  0  0  0  0  0  0  0  0  0  0  0
  141.8449   78.2548  224.3390 H   0  0  0  0  0  0  0  0  0  0  0  0
  141.6036   79.8421  225.1890 H   0  0  0  0  0  0  0  0  0  0  0  0
  139.9916   78.5555  223.0098 H   0  0  0  0  0  0  0  0  0  0  0  0
  139.4688   79.4403  224.4928 H   0  0  0  0  0  0  0  0  0  0  0  0
  138.9874   80.7670  222.5161 H   0  0  0  0  0  0  0  0  0  0  0  0
  140.3084   81.5336  223.5029 H   0  0  0  0  0  0  0  0  0  0  0  0
  140.3722   80.3427  220.7854 H   0  0  0  0  0  0  0  0  0  0  0  0
  141.2570   81.7571  221.5030 H   0  0  0  0  0  0  0  0  0  0  0  0
  139.1939   69.9777  222.4087 H   0  0  0  0  0  0  0  0  0  0  0  0
  138.8417   68.4751  224.3719 H   0  0  0  0  0  0  0  0  0  0  0  0
  139.1707   68.1007  226.7197 H   0  0  0  0  0  0  0  0  0  0  0  0
  141.2169   70.9786  229.1259 H   0  0  0  0  0  0  0  0  0  0  0  0
  141.5450   72.4387  227.1651 H   0  0  0  0  0  0  0  0  0  0  0  0
  1  2  2  0
  2  3  1  0
  3  4  1  0
  4  5  1  0
  5  6  2  0
  5  7  1  0
  7  8  1  0
  8  9  1  0
  9 10  1  0
 10 11  1  0
 11 12  1  0
 12 13  1  0
 13 14  1  0
 14 15  1  0
 15 16  1  0
 16 17  1  0
 17 18  1  0
 18 19  1  0
 19 20  1  0
  2 21  1  0
 21 22  2  0
 22 23  1  0
 23 24  2  0
 24 25  1  0
 25 26  2  0
 26 27  1  0
 26 28  1  0
 28 29  2  0
 29 30  1  0
 30 31  2  0
 12  7  1  0
 20 15  1  0
 31 21  1  0
 30 24  1  0
  3 32  1  0
  4 33  1  0
  4 34  1  0
  8 35  1  0
  8 36  1  0
  9 37  1  0
  9 38  1  0
 10 39  1  0
 10 40  1  0
 11 41  1  0
 11 42  1  0
 12 43  1  6
 13 44  1  0
 13 45  1  0
 14 46  1  0
 15 47  1  0
 16 48  1  0
 16 49  1  0
 17 50  1  0
 17 51  1  0
 18 52  1  0
 18 53  1  0
 19 54  1  0
 19 55  1  0
 20 56  1  0
 20 57  1  0
 22 58  1  0
 23 59  1  0
 25 60  1  0
 28 61  1  0
 29 62  1  0
M  END
>  <smiles>  (9) 
O=C(NCC(=O)N1CCCC[C@H]1CNC1CCCCC1)c1ccc2cc(F)ccc2n1

>  <score_type>  (9) 
oracle

>  <origin>  (9) 
autodockgpu

>  <m_score__min__energy>  (9) 
-9.5700000000000003

>  <m_primary>  (9) 
energy

>  <rmsd>  (9) 
2.4630988082002596

>  <m_score__min__rmsd>  (9) 
2.4630988082002596

>  <meeko>  (9) 
{"free_energy": -9.16, "intermolecular_energy": -11.25, "internal_energy": -2.51, "cluster_size": 45, "cluster_id": 1, "rank_in_cluster": 10}

>  <energy>  (9) 
-9.22

>  <cluster_rmsd>  (9) 
0.57

>  <cluster>  (9) 
1

$$$$

     RDKit          3D

 62 65  0  0  0  0  0  0  0  0999 V2000
  138.9190   72.0310  221.4030 O   0  0  0  0  0  0  0  0  0  0  0  0
  139.7620   72.2420  222.3230 C   0  0  0  0  0  0  0  0  0  0  0  0
  140.6360   73.3660  222.0930 N   0  0  0  0  0  0  0  0  0  0  0  0
  140.4150   74.0790  220.8500 C   0  0  0  0  0  0  0  0  0  0  0  0
  140.1740   75.5320  221.2120 C   0  0  0  0  0  0  0  0  0  0  0  0
  140.5750   75.8460  222.3530 O   0  0  0  0  0  0  0  0  0  0  0  0
  139.5450   76.3670  220.2690 N   0  0  0  0  0  0  0  0  0  0  0  0
  138.1400   76.0700  219.9740 C   0  0  0  0  0  0  0  0  0  0  0  0
  137.3300   77.3340  220.3070 C   0  0  0  0  0  0  0  0  0  0  0  0
  137.7940   78.3460  219.2970 C   0  0  0  0  0  0  0  0  0  0  0  0
  139.2460   78.6760  219.5770 C   0  0  0  0  0  0  0  0  0  0  0  0
  140.1350   77.4760  219.5610 C   0  0  1  0  0  0  0  0  0  0  0  0
  141.5150   77.7130  220.0740 C   0  0  0  0  0  0  0  0  0  0  0  0
  141.7180   78.2160  221.3640 N   0  0  0  0  0  0  0  0  0  0  0  0
  142.1620   79.5160  221.6190 C   0  0  0  0  0  0  0  0  0  0  0  0
  142.6120   79.5950  223.0890 C   0  0  0  0  0  0  0  0  0  0  0  0
  141.5660   79.0170  223.9970 C   0  0  0  0  0  0  0  0  0  0  0  0
  140.1650   79.2250  223.4580 C   0  0  0  0  0  0  0  0  0  0  0  0
  140.0880   80.5040  222.6630 C   0  0  0  0  0  0  0  0  0  0  0  0
  140.9660   80.4760  221.4480 C   0  0  0  0  0  0  0  0  0  0  0  0
  139.8530   71.4240  223.5220 C   0  0  0  0  0  0  0  0  0  0  0  0
  139.3140   70.1420  223.4330 C   0  0  0  0  0  0  0  0  0  0  0  0
  139.3380   69.2750  224.5070 C   0  0  0  0  0  0  0  0  0  0  0  0
  139.9250   69.7490  225.6650 C   0  0  0  0  0  0  0  0  0  0  0  0
  139.9810   68.9190  226.7860 C   0  0  0  0  0  0  0  0  0  0  0  0
  140.5540   69.3420  227.9650 C   0  0  0  0  0  0  0  0  0  0  0  0
  140.5810   68.4990  229.0230 F   0  0  0  0  0  0  0  0  0  0  0  0
  141.0790   70.6220  228.0090 C   0  0  0  0  0  0  0  0  0  0  0  0
  141.0430   71.4680  226.9260 C   0  0  0  0  0  0  0  0  0  0  0  0
  140.4650   71.0250  225.7570 C   0  0  0  0  0  0  0  0  0  0  0  0
  140.4210   71.8550  224.6720 N   0  0  0  0  0  0  0  0  0  0  0  0
  141.3670   73.6220  222.7920 H   0  0  0  0  0  0  0  0  0  0  0  0
  141.2996   73.9924  220.2019 H   0  0  0  0  0  0  0  0  0  0  0  0
  139.5559   73.6617  220.3042 H   0  0  0  0  0  0  0  0  0  0  0  0
  138.0234   75.8168  218.9099 H   0  0  0  0  0  0  0  0  0  0  0  0
  137.7886   75.2128  220.5670 H   0  0  0  0  0  0  0  0  0  0  0  0
  136.2514   77.1449  220.2027 H   0  0  0  0  0  0  0  0  0  0  0  0
  137.4828   77.6717  221.3427 H   0  0  0  0  0  0  0  0  0  0  0  0
  137.6972   77.9296  218.2835 H   0  0  0  0  0  0  0  0  0  0  0  0
  137.1808   79.2565  219.3676 H   0  0  0  0  0  0  0  0  0  0  0  0
  139.5982   79.3824  218.8108 H   0  0  0  0  0  0  0  0  0  0  0  0
  139.2947   79.1058  220.5884 H   0  0  0  0  0  0  0  0  0  0  0  0
  140.2347   77.2319  218.4931 H   0  0  0  0  0  0  0  0  0  0  0  0
  142.0387   76.7468  220.0268 H   0  0  0  0  0  0  0  0  0  0  0  0
  141.8806   78.5274  219.4313 H   0  0  0  0  0  0  0  0  0  0  0  0
  141.9180   77.5080  222.1050 H   0  0  0  0  0  0  0  0  0  0  0  0
  142.9851   79.7802  220.9387 H   0  0  0  0  0  0  0  0  0  0  0  0
  143.5478   79.0299  223.2108 H   0  0  0  0  0  0  0  0  0  0  0  0
  142.7659   80.6512  223.3549 H   0  0  0  0  0  0  0  0  0  0  0  0
  141.7477   77.9375  224.1054 H   0  0  0  0  0  0  0  0  0  0  0  0
  141.6361   79.5329  224.9660 H   0  0  0  0  0  0  0  0  0  0  0  0
  139.8980   78.3785  222.8082 H   0  0  0  0  0  0  0  0  0  0  0  0
  139.4650   79.2900  224.3040 H   0  0  0  0  0  0  0  0  0  0  0  0
  139.0470   80.6588  222.3430 H   0  0  0  0  0  0  0  0  0  0  0  0
  140.4370   81.3223  223.3100 H   0  0  0  0  0  0  0  0  0  0  0  0
  140.3677   80.1474  220.5854 H   0  0  0  0  0  0  0  0  0  0  0  0
  141.3643   81.4897  221.2941 H   0  0  0  0  0  0  0  0  0  0  0  0
  138.8596   69.8138  222.4865 H   0  0  0  0  0  0  0  0  0  0  0  0
  138.9132   68.2623  224.4446 H   0  0  0  0  0  0  0  0  0  0  0  0
  139.5584   67.9052  226.7265 H   0  0  0  0  0  0  0  0  0  0  0  0
  141.5410   70.9745  228.9429 H   0  0  0  0  0  0  0  0  0  0  0  0
  141.4681   72.4804  226.9919 H   0  0  0  0  0  0  0  0  0  0  0  0
  1  2  2  0
  2  3  1  0
  3  4  1  0
  4  5  1  0
  5  6  2  0
  5  7  1  0
  7  8  1  0
  8  9  1  0
  9 10  1  0
 10 11  1  0
 11 12  1  0
 12 13  1  0
 13 14  1  0
 14 15  1  0
 15 16  1  0
 16 17  1  0
 17 18  1  0
 18 19  1  0
 19 20  1  0
  2 21  1  0
 21 22  2  0
 22 23  1  0
 23 24  2  0
 24 25  1  0
 25 26  2  0
 26 27  1  0
 26 28  1  0
 28 29  2  0
 29 30  1  0
 30 31  2  0
 12  7  1  0
 20 15  1  0
 31 21  1  0
 30 24  1  0
  3 32  1  0
  4 33  1  0
  4 34  1  0
  8 35  1  0
  8 36  1  0
  9 37  1  0
  9 38  1  0
 10 39  1  0
 10 40  1  0
 11 41  1  0
 11 42  1  0
 12 43  1  6
 13 44  1  0
 13 45  1  0
 14 46  1  0
 15 47  1  0
 16 48  1  0
 16 49  1  0
 17 50  1  0
 17 51  1  0
 18 52  1  0
 18 53  1  0
 19 54  1  0
 19 55  1  0
 20 56  1  0
 20 57  1  0
 22 58  1  0
 23 59  1  0
 25 60  1  0
 28 61  1  0
 29 62  1  0
M  END
>  <smiles>  (10) 
O=C(NCC(=O)N1CCCC[C@H]1CNC1CCCCC1)c1ccc2cc(F)ccc2n1

>  <score_type>  (10) 
oracle

>  <origin>  (10) 
autodockgpu

>  <m_score__min__energy>  (10) 
-9.5700000000000003

>  <m_primary>  (10) 
energy

>  <rmsd>  (10) 
2.5490264737900636

>  <m_score__min__rmsd>  (10) 
2.5490264737900636

>  <meeko>  (10) 
{"free_energy": -7.58, "intermolecular_energy": -9.67, "internal_energy": -3.0, "cluster_size": 45, "cluster_id": 1, "rank_in_cluster": 45}

>  <energy>  (10) 
-9.16

>  <cluster_rmsd>  (10) 
0.57

>  <cluster>  (10) 
1

$$$$

     RDKit          3D

 62 65  0  0  0  0  0  0  0  0999 V2000
  141.2050   72.1020  221.4340 O   0  0  0  0  0  0  0  0  0  0  0  0
  140.4510   72.4050  222.4030 C   0  0  0  0  0  0  0  0  0  0  0  0
  139.7650   73.6660  222.2620 N   0  0  0  0  0  0  0  0  0  0  0  0
  140.0430   74.3890  221.0360 C   0  0  0  0  0  0  0  0  0  0  0  0
  141.0830   75.4400  221.3710 C   0  0  0  0  0  0  0  0  0  0  0  0
  140.8790   76.0330  222.4530 O   0  0  0  0  0  0  0  0  0  0  0  0
  142.1470   75.6480  220.4720 N   0  0  0  0  0  0  0  0  0  0  0  0
  143.0210   74.4970  220.2250 C   0  0  0  0  0  0  0  0  0  0  0  0
  142.9760   74.2100  218.7140 C   0  0  0  0  0  0  0  0  0  0  0  0
  143.6320   75.4110  218.0920 C   0  0  0  0  0  0  0  0  0  0  0  0
  142.7500   76.6200  218.3290 C   0  0  0  0  0  0  0  0  0  0  0  0
  142.4700   76.8680  219.7750 C   0  0  1  0  0  0  0  0  0  0  0  0
  141.4130   77.8850  220.0430 C   0  0  0  0  0  0  0  0  0  0  0  0
  141.3630   78.5530  221.2720 N   0  0  0  0  0  0  0  0  0  0  0  0
  141.8240   79.8600  221.4530 C   0  0  0  0  0  0  0  0  0  0  0  0
  142.7610   79.8780  222.6740 C   0  0  0  0  0  0  0  0  0  0  0  0
  142.1240   79.1870  223.8430 C   0  0  0  0  0  0  0  0  0  0  0  0
  140.6170   79.3430  223.8470 C   0  0  0  0  0  0  0  0  0  0  0  0
  140.2190   80.6600  223.2290 C   0  0  0  0  0  0  0  0  0  0  0  0
  140.6120   80.7550  221.7850 C   0  0  0  0  0  0  0  0  0  0  0  0
  140.2790   71.5590  223.5740 C   0  0  0  0  0  0  0  0  0  0  0  0
  139.5820   70.3680  223.3730 C   0  0  0  0  0  0  0  0  0  0  0  0
  139.3520   69.4850  224.4090 C   0  0  0  0  0  0  0  0  0  0  0  0
  139.8520   69.8470  225.6460 C   0  0  0  0  0  0  0  0  0  0  0  0
  139.6530   68.9960  226.7350 C   0  0  0  0  0  0  0  0  0  0  0  0
  140.1290   69.3100  227.9880 C   0  0  0  0  0  0  0  0  0  0  0  0
  139.9070   68.4500  229.0090 F   0  0  0  0  0  0  0  0  0  0  0  0
  140.8160   70.5010  228.1420 C   0  0  0  0  0  0  0  0  0  0  0  0
  141.0320   71.3650  227.0950 C   0  0  0  0  0  0  0  0  0  0  0  0
  140.5470   71.0320  225.8490 C   0  0  0  0  0  0  0  0  0  0  0  0
  140.7540   71.8820  224.7990 N   0  0  0  0  0  0  0  0  0  0  0  0
  139.1200   74.0060  223.0080 H   0  0  0  0  0  0  0  0  0  0  0  0
  140.4330   73.7011  220.2713 H   0  0  0  0  0  0  0  0  0  0  0  0
  139.1291   74.8527  220.6363 H   0  0  0  0  0  0  0  0  0  0  0  0
  144.0503   74.7318  220.5339 H   0  0  0  0  0  0  0  0  0  0  0  0
  142.6861   73.6210  220.7998 H   0  0  0  0  0  0  0  0  0  0  0  0
  143.5336   73.2927  218.4742 H   0  0  0  0  0  0  0  0  0  0  0  0
  141.9520   74.0505  218.3453 H   0  0  0  0  0  0  0  0  0  0  0  0
  144.6174   75.5751  218.5524 H   0  0  0  0  0  0  0  0  0  0  0  0
  143.7660   75.2492  217.0122 H   0  0  0  0  0  0  0  0  0  0  0  0
  143.2517   77.5061  217.9128 H   0  0  0  0  0  0  0  0  0  0  0  0
  141.7857   76.4232  217.8378 H   0  0  0  0  0  0  0  0  0  0  0  0
  143.4120   77.2853  220.1603 H   0  0  0  0  0  0  0  0  0  0  0  0
  141.5170   78.6588  219.2681 H   0  0  0  0  0  0  0  0  0  0  0  0
  140.4905   77.2858  220.0503 H   0  0  0  0  0  0  0  0  0  0  0  0
  141.3530   77.9470  222.1220 H   0  0  0  0  0  0  0  0  0  0  0  0
  142.3444   80.2126  220.5503 H   0  0  0  0  0  0  0  0  0  0  0  0
  143.6983   79.3627  222.4172 H   0  0  0  0  0  0  0  0  0  0  0  0
  142.9626   80.9238  222.9490 H   0  0  0  0  0  0  0  0  0  0  0  0
  142.3693   78.1156  223.7982 H   0  0  0  0  0  0  0  0  0  0  0  0
  142.5142   79.6484  224.7622 H   0  0  0  0  0  0  0  0  0  0  0  0
  140.1668   78.5219  223.2698 H   0  0  0  0  0  0  0  0  0  0  0  0
  140.2601   79.3166  224.8872 H   0  0  0  0  0  0  0  0  0  0  0  0
  139.1273   80.7710  223.3062 H   0  0  0  0  0  0  0  0  0  0  0  0
  140.7444   81.4586  223.7732 H   0  0  0  0  0  0  0  0  0  0  0  0
  139.7595   80.4422  221.1641 H   0  0  0  0  0  0  0  0  0  0  0  0
  140.8947   81.7979  221.5789 H   0  0  0  0  0  0  0  0  0  0  0  0
  139.2074   70.1269  222.3673 H   0  0  0  0  0  0  0  0  0  0  0  0
  138.8011   68.5449  224.2585 H   0  0  0  0  0  0  0  0  0  0  0  0
  139.1039   68.0542  226.5885 H   0  0  0  0  0  0  0  0  0  0  0  0
  141.2029   70.7658  229.1371 H   0  0  0  0  0  0  0  0  0  0  0  0
  141.5820   72.3051  227.2490 H   0  0  0  0  0  0  0  0  0  0  0  0
  1  2  2  0
  2  3  1  0
  3  4  1  0
  4  5  1  0
  5  6  2  0
  5  7  1  0
  7  8  1  0
  8  9  1  0
  9 10  1  0
 10 11  1  0
 11 12  1  0
 12 13  1  0
 13 14  1  0
 14 15  1  0
 15 16  1  0
 16 17  1  0
 17 18  1  0
 18 19  1  0
 19 20  1  0
  2 21  1  0
 21 22  2  0
 22 23  1  0
 23 24  2  0
 24 25  1  0
 25 26  2  0
 26 27  1  0
 26 28  1  0
 28 29  2  0
 29 30  1  0
 30 31  2  0
 12  7  1  0
 20 15  1  0
 31 21  1  0
 30 24  1  0
  3 32  1  0
  4 33  1  0
  4 34  1  0
  8 35  1  0
  8 36  1  0
  9 37  1  0
  9 38  1  0
 10 39  1  0
 10 40  1  0
 11 41  1  0
 11 42  1  0
 12 43  1  1
 13 44  1  0
 13 45  1  0
 14 46  1  0
 15 47  1  0
 16 48  1  0
 16 49  1  0
 17 50  1  0
 17 51  1  0
 18 52  1  0
 18 53  1  0
 19 54  1  0
 19 55  1  0
 20 56  1  0
 20 57  1  0
 22 58  1  0
 23 59  1  0
 25 60  1  0
 28 61  1  0
 29 62  1  0
M  END
>  <smiles>  (11) 
O=C(NCC(=O)N1CCCC[C@H]1CNC1CCCCC1)c1ccc2cc(F)ccc2n1

>  <score_type>  (11) 
oracle

>  <origin>  (11) 
autodockgpu

>  <m_score__min__energy>  (11) 
-9.5700000000000003

>  <m_primary>  (11) 
energy

>  <rmsd>  (11) 
2.6251568217765744

>  <m_score__min__rmsd>  (11) 
2.6251568217765744

>  <meeko>  (11) 
{"free_energy": -8.98, "intermolecular_energy": -11.06, "internal_energy": -2.47, "cluster_size": 45, "cluster_id": 1, "rank_in_cluster": 13}

>  <energy>  (11) 
-9.13

>  <cluster_rmsd>  (11) 
0.78

>  <cluster>  (11) 
1

$$$$

     RDKit          3D

 62 65  0  0  0  0  0  0  0  0999 V2000
  138.6140   70.9970  221.7110 O   0  0  0  0  0  0  0  0  0  0  0  0
  139.1600   71.4640  222.7530 C   0  0  0  0  0  0  0  0  0  0  0  0
  139.4950   72.8660  222.6810 N   0  0  0  0  0  0  0  0  0  0  0  0
  139.1550   73.5200  221.4330 C   0  0  0  0  0  0  0  0  0  0  0  0
  140.1280   74.6720  221.2610 C   0  0  0  0  0  0  0  0  0  0  0  0
  141.0590   74.6820  222.0950 O   0  0  0  0  0  0  0  0  0  0  0  0
  139.9070   75.5910  220.2170 N   0  0  0  0  0  0  0  0  0  0  0  0
  139.4080   75.0330  218.9560 C   0  0  0  0  0  0  0  0  0  0  0  0
  138.0700   75.7270  218.6520 C   0  0  0  0  0  0  0  0  0  0  0  0
  138.4470   77.1580  218.3890 C   0  0  0  0  0  0  0  0  0  0  0  0
  138.9660   77.7650  219.6770 C   0  0  0  0  0  0  0  0  0  0  0  0
  140.1220   77.0160  220.2550 C   0  0  1  0  0  0  0  0  0  0  0  0
  140.5030   77.4230  221.6380 C   0  0  0  0  0  0  0  0  0  0  0  0
  140.0260   78.6210  222.1840 N   0  0  0  0  0  0  0  0  0  0  0  0
  140.3670   79.0700  223.4630 C   0  0  0  0  0  0  0  0  0  0  0  0
  140.2200   80.6020  223.4930 C   0  0  0  0  0  0  0  0  0  0  0  0
  140.9140   81.2260  222.3190 C   0  0  0  0  0  0  0  0  0  0  0  0
  142.1320   80.4340  221.8890 C   0  0  0  0  0  0  0  0  0  0  0  0
  142.7650   79.7510  223.0750 C   0  0  0  0  0  0  0  0  0  0  0  0
  141.8550   78.7420  223.7070 C   0  0  0  0  0  0  0  0  0  0  0  0
  139.4350   70.6640  223.9360 C   0  0  0  0  0  0  0  0  0  0  0  0
  139.0450   69.3260  223.8760 C   0  0  0  0  0  0  0  0  0  0  0  0
  139.2490   68.4690  224.9380 C   0  0  0  0  0  0  0  0  0  0  0  0
  139.8600   69.0090  226.0540 C   0  0  0  0  0  0  0  0  0  0  0  0
  140.0950   68.1920  227.1620 C   0  0  0  0  0  0  0  0  0  0  0  0
  140.6990   68.6810  228.2990 C   0  0  0  0  0  0  0  0  0  0  0  0
  140.9010   67.8470  229.3450 F   0  0  0  0  0  0  0  0  0  0  0  0
  141.0710   70.0140  228.3150 C   0  0  0  0  0  0  0  0  0  0  0  0
  140.8560   70.8490  227.2450 C   0  0  0  0  0  0  0  0  0  0  0  0
  140.2500   70.3400  226.1170 C   0  0  0  0  0  0  0  0  0  0  0  0
  140.0300   71.1590  225.0450 N   0  0  0  0  0  0  0  0  0  0  0  0
  139.9500   73.3440  223.4890 H   0  0  0  0  0  0  0  0  0  0  0  0
  139.2537   72.8130  220.5961 H   0  0  0  0  0  0  0  0  0  0  0  0
  138.1158   73.8804  221.4471 H   0  0  0  0  0  0  0  0  0  0  0  0
  140.1267   75.2283  218.1465 H   0  0  0  0  0  0  0  0  0  0  0  0
  139.2748   73.9440  219.0355 H   0  0  0  0  0  0  0  0  0  0  0  0
  137.5915   75.2810  217.7676 H   0  0  0  0  0  0  0  0  0  0  0  0
  137.3472   75.6266  219.4751 H   0  0  0  0  0  0  0  0  0  0  0  0
  139.2302   77.1993  217.6177 H   0  0  0  0  0  0  0  0  0  0  0  0
  137.5695   77.7193  218.0355 H   0  0  0  0  0  0  0  0  0  0  0  0
  139.2849   78.7979  219.4734 H   0  0  0  0  0  0  0  0  0  0  0  0
  138.1483   77.7230  220.4116 H   0  0  0  0  0  0  0  0  0  0  0  0
  140.9666   77.2869  219.6044 H   0  0  0  0  0  0  0  0  0  0  0  0
  140.1683   76.6166  222.3071 H   0  0  0  0  0  0  0  0  0  0  0  0
  141.5847   77.6038  221.5530 H   0  0  0  0  0  0  0  0  0  0  0  0
  139.1190   78.9690  221.8000 H   0  0  0  0  0  0  0  0  0  0  0  0
  139.7253   78.5961  224.2204 H   0  0  0  0  0  0  0  0  0  0  0  0
  139.1518   80.8626  223.4609 H   0  0  0  0  0  0  0  0  0  0  0  0
  140.6790   80.9825  224.4174 H   0  0  0  0  0  0  0  0  0  0  0  0
  140.2088   81.2772  221.4764 H   0  0  0  0  0  0  0  0  0  0  0  0
  141.2512   82.2291  222.6192 H   0  0  0  0  0  0  0  0  0  0  0  0
  141.8285   79.6744  221.1536 H   0  0  0  0  0  0  0  0  0  0  0  0
  142.8645   81.1230  221.4431 H   0  0  0  0  0  0  0  0  0  0  0  0
  143.6806   79.2407  222.7414 H   0  0  0  0  0  0  0  0  0  0  0  0
  142.9845   80.5223  223.8280 H   0  0  0  0  0  0  0  0  0  0  0  0
  142.0742   77.7513  223.2822 H   0  0  0  0  0  0  0  0  0  0  0  0
  142.0322   78.7586  224.7925 H   0  0  0  0  0  0  0  0  0  0  0  0
  138.5645   68.9459  222.9624 H   0  0  0  0  0  0  0  0  0  0  0  0
  138.9420   67.4134  224.8986 H   0  0  0  0  0  0  0  0  0  0  0  0
  139.7912   67.1354  227.1258 H   0  0  0  0  0  0  0  0  0  0  0  0
  141.5556   70.4191  229.2156 H   0  0  0  0  0  0  0  0  0  0  0  0
  141.1621   71.9047  227.2882 H   0  0  0  0  0  0  0  0  0  0  0  0
  1  2  2  0
  2  3  1  0
  3  4  1  0
  4  5  1  0
  5  6  2  0
  5  7  1  0
  7  8  1  0
  8  9  1  0
  9 10  1  0
 10 11  1  0
 11 12  1  0
 12 13  1  0
 13 14  1  0
 14 15  1  0
 15 16  1  0
 16 17  1  0
 17 18  1  0
 18 19  1  0
 19 20  1  0
  2 21  1  0
 21 22  2  0
 22 23  1  0
 23 24  2  0
 24 25  1  0
 25 26  2  0
 26 27  1  0
 26 28  1  0
 28 29  2  0
 29 30  1  0
 30 31  2  0
 12  7  1  0
 20 15  1  0
 31 21  1  0
 30 24  1  0
  3 32  1  0
  4 33  1  0
  4 34  1  0
  8 35  1  0
  8 36  1  0
  9 37  1  0
  9 38  1  0
 10 39  1  0
 10 40  1  0
 11 41  1  0
 11 42  1  0
 12 43  1  6
 13 44  1  0
 13 45  1  0
 14 46  1  0
 15 47  1  0
 16 48  1  0
 16 49  1  0
 17 50  1  0
 17 51  1  0
 18 52  1  0
 18 53  1  0
 19 54  1  0
 19 55  1  0
 20 56  1  0
 20 57  1  0
 22 58  1  0
 23 59  1  0
 25 60  1  0
 28 61  1  0
 29 62  1  0
M  END
>  <smiles>  (12) 
O=C(NCC(=O)N1CCCC[C@H]1CNC1CCCCC1)c1ccc2cc(F)ccc2n1

>  <score_type>  (12) 
oracle

>  <origin>  (12) 
autodockgpu

>  <m_score__min__energy>  (12) 
-9.5700000000000003

>  <m_primary>  (12) 
energy

>  <rmsd>  (12) 
1.873973557959428

>  <m_score__min__rmsd>  (12) 
1.873973557959428

>  <meeko>  (12) 
{"free_energy": -7.92, "intermolecular_energy": -10.01, "internal_energy": -2.14, "cluster_size": 45, "cluster_id": 1, "rank_in_cluster": 44}

>  <energy>  (12) 
-9.07

>  <cluster_rmsd>  (12) 
0.59

>  <cluster>  (12) 
1

$$$$

     RDKit          3D

 62 65  0  0  0  0  0  0  0  0999 V2000
  140.5810   71.7830  221.1480 O   0  0  0  0  0  0  0  0  0  0  0  0
  140.2170   72.2680  222.2590 C   0  0  0  0  0  0  0  0  0  0  0  0
  139.8990   73.6750  222.2260 N   0  0  0  0  0  0  0  0  0  0  0  0
  140.0440   74.3130  220.9330 C   0  0  0  0  0  0  0  0  0  0  0  0
  140.7310   75.6440  221.1730 C   0  0  0  0  0  0  0  0  0  0  0  0
  140.9320   75.9040  222.3790 O   0  0  0  0  0  0  0  0  0  0  0  0
  141.0680   76.4400  220.0610 N   0  0  0  0  0  0  0  0  0  0  0  0
  140.5280   77.8030  220.0510 C   0  0  0  0  0  0  0  0  0  0  0  0
  141.7270   78.7640  219.9780 C   0  0  0  0  0  0  0  0  0  0  0  0
  142.3220   78.5100  218.6210 C   0  0  0  0  0  0  0  0  0  0  0  0
  142.8910   77.1060  218.6000 C   0  0  0  0  0  0  0  0  0  0  0  0
  141.8820   76.0570  218.9340 C   0  0  1  0  0  0  0  0  0  0  0  0
  142.4460   74.6970  219.1700 C   0  0  0  0  0  0  0  0  0  0  0  0
  143.7580   74.5420  219.6340 N   0  0  0  0  0  0  0  0  0  0  0  0
  144.0730   73.9380  220.8540 C   0  0  0  0  0  0  0  0  0  0  0  0
  145.6060   73.8410  220.9640 C   0  0  0  0  0  0  0  0  0  0  0  0
  146.1930   73.2540  219.7140 C   0  0  0  0  0  0  0  0  0  0  0  0
  145.2600   72.2560  219.0600 C   0  0  0  0  0  0  0  0  0  0  0  0
  144.4200   71.5550  220.0980 C   0  0  0  0  0  0  0  0  0  0  0  0
  143.5180   72.4990  220.8350 C   0  0  0  0  0  0  0  0  0  0  0  0
  140.1210   71.4820  223.4790 C   0  0  0  0  0  0  0  0  0  0  0  0
  139.4660   70.2560  223.3700 C   0  0  0  0  0  0  0  0  0  0  0  0
  139.3090   69.4240  224.4600 C   0  0  0  0  0  0  0  0  0  0  0  0
  139.8390   69.8740  225.6560 C   0  0  0  0  0  0  0  0  0  0  0  0
  139.7130   69.0770  226.7950 C   0  0  0  0  0  0  0  0  0  0  0  0
  140.2210   69.4780  228.0110 C   0  0  0  0  0  0  0  0  0  0  0  0
  140.0710   68.6690  229.0850 F   0  0  0  0  0  0  0  0  0  0  0  0
  140.8650   70.7010  228.0740 C   0  0  0  0  0  0  0  0  0  0  0  0
  141.0080   71.5130  226.9750 C   0  0  0  0  0  0  0  0  0  0  0  0
  140.4930   71.0930  225.7680 C   0  0  0  0  0  0  0  0  0  0  0  0
  140.6270   71.8910  224.6660 N   0  0  0  0  0  0  0  0  0  0  0  0
  139.5900   74.1690  223.0920 H   0  0  0  0  0  0  0  0  0  0  0  0
  140.6561   73.6858  220.2682 H   0  0  0  0  0  0  0  0  0  0  0  0
  139.0649   74.4563  220.4526 H   0  0  0  0  0  0  0  0  0  0  0  0
  139.8771   77.9446  219.1756 H   0  0  0  0  0  0  0  0  0  0  0  0
  139.9282   77.9931  220.9533 H   0  0  0  0  0  0  0  0  0  0  0  0
  141.3955   79.8089  220.0691 H   0  0  0  0  0  0  0  0  0  0  0  0
  142.4487   78.5994  220.7917 H   0  0  0  0  0  0  0  0  0  0  0  0
  141.5429   78.6060  217.8505 H   0  0  0  0  0  0  0  0  0  0  0  0
  143.1172   79.2418  218.4155 H   0  0  0  0  0  0  0  0  0  0  0  0
  143.2854   76.9037  217.5933 H   0  0  0  0  0  0  0  0  0  0  0  0
  143.6766   77.0603  219.3686 H   0  0  0  0  0  0  0  0  0  0  0  0
  141.2626   75.9862  218.0277 H   0  0  0  0  0  0  0  0  0  0  0  0
  141.7915   74.2080  219.9065 H   0  0  0  0  0  0  0  0  0  0  0  0
  142.4895   74.2684  218.1579 H   0  0  0  0  0  0  0  0  0  0  0  0
  144.4580   75.2240  219.2640 H   0  0  0  0  0  0  0  0  0  0  0  0
  143.6520   74.5165  221.6895 H   0  0  0  0  0  0  0  0  0  0  0  0
  146.0210   74.8478  221.1192 H   0  0  0  0  0  0  0  0  0  0  0  0
  145.8584   73.1883  221.8127 H   0  0  0  0  0  0  0  0  0  0  0  0
  146.3974   74.0675  219.0023 H   0  0  0  0  0  0  0  0  0  0  0  0
  147.1163   72.7236  219.9902 H   0  0  0  0  0  0  0  0  0  0  0  0
  144.5993   72.7853  218.3577 H   0  0  0  0  0  0  0  0  0  0  0  0
  145.8614   71.5061  218.5252 H   0  0  0  0  0  0  0  0  0  0  0  0
  143.8026   70.7942  219.5980 H   0  0  0  0  0  0  0  0  0  0  0  0
  145.1026   71.1013  220.8317 H   0  0  0  0  0  0  0  0  0  0  0  0
  142.5338   72.5051  220.3437 H   0  0  0  0  0  0  0  0  0  0  0  0
  143.4430   72.1517  221.8760 H   0  0  0  0  0  0  0  0  0  0  0  0
  139.0656   69.9450  222.3938 H   0  0  0  0  0  0  0  0  0  0  0  0
  138.7911   68.4567  224.3821 H   0  0  0  0  0  0  0  0  0  0  0  0
  139.1972   68.1083  226.7200 H   0  0  0  0  0  0  0  0  0  0  0  0
  141.2769   71.0349  229.0378 H   0  0  0  0  0  0  0  0  0  0  0  0
  141.5242   72.4808  227.0572 H   0  0  0  0  0  0  0  0  0  0  0  0
  1  2  2  0
  2  3  1  0
  3  4  1  0
  4  5  1  0
  5  6  2  0
  5  7  1  0
  7  8  1  0
  8  9  1  0
  9 10  1  0
 10 11  1  0
 11 12  1  0
 12 13  1  0
 13 14  1  0
 14 15  1  0
 15 16  1  0
 16 17  1  0
 17 18  1  0
 18 19  1  0
 19 20  1  0
  2 21  1  0
 21 22  2  0
 22 23  1  0
 23 24  2  0
 24 25  1  0
 25 26  2  0
 26 27  1  0
 26 28  1  0
 28 29  2  0
 29 30  1  0
 30 31  2  0
 12  7  1  0
 20 15  1  0
 31 21  1  0
 30 24  1  0
  3 32  1  0
  4 33  1  0
  4 34  1  0
  8 35  1  0
  8 36  1  0
  9 37  1  0
  9 38  1  0
 10 39  1  0
 10 40  1  0
 11 41  1  0
 11 42  1  0
 12 43  1  6
 13 44  1  0
 13 45  1  0
 14 46  1  0
 15 47  1  0
 16 48  1  0
 16 49  1  0
 17 50  1  0
 17 51  1  0
 18 52  1  0
 18 53  1  0
 19 54  1  0
 19 55  1  0
 20 56  1  0
 20 57  1  0
 22 58  1  0
 23 59  1  0
 25 60  1  0
 28 61  1  0
 29 62  1  0
M  END
>  <smiles>  (13) 
O=C(NCC(=O)N1CCCC[C@H]1CNC1CCCCC1)c1ccc2cc(F)ccc2n1

>  <score_type>  (13) 
oracle

>  <origin>  (13) 
autodockgpu

>  <m_score__min__energy>  (13) 
-9.5700000000000003

>  <m_primary>  (13) 
energy

>  <rmsd>  (13) 
4.702504600644854

>  <m_score__min__rmsd>  (13) 
4.702504600644854

>  <meeko>  (13) 
{"free_energy": -8.43, "intermolecular_energy": -10.52, "internal_energy": -2.43, "cluster_size": 45, "cluster_id": 1, "rank_in_cluster": 30}

>  <energy>  (13) 
-8.98

>  <cluster_rmsd>  (13) 
0.64

>  <cluster>  (13) 
1

$$$$

     RDKit          3D

 62 65  0  0  0  0  0  0  0  0999 V2000
  140.9750   71.9960  221.3390 O   0  0  0  0  0  0  0  0  0  0  0  0
  140.3440   72.3670  222.3720 C   0  0  0  0  0  0  0  0  0  0  0  0
  139.7720   73.6890  222.2860 N   0  0  0  0  0  0  0  0  0  0  0  0
  140.0040   74.3840  221.0350 C   0  0  0  0  0  0  0  0  0  0  0  0
  141.0770   75.4220  221.3020 C   0  0  0  0  0  0  0  0  0  0  0  0
  140.8800   76.1090  222.3270 O   0  0  0  0  0  0  0  0  0  0  0  0
  142.1610   75.5180  220.4070 N   0  0  0  0  0  0  0  0  0  0  0  0
  142.8260   74.2590  220.0570 C   0  0  0  0  0  0  0  0  0  0  0  0
  142.7320   74.1060  218.5300 C   0  0  0  0  0  0  0  0  0  0  0  0
  143.5820   75.2240  217.9940 C   0  0  0  0  0  0  0  0  0  0  0  0
  142.9200   76.5420  218.3390 C   0  0  0  0  0  0  0  0  0  0  0  0
  142.6860   76.7170  219.8040 C   0  0  1  0  0  0  0  0  0  0  0  0
  141.8180   77.8740  220.1660 C   0  0  0  0  0  0  0  0  0  0  0  0
  141.9180   78.4720  221.4280 N   0  0  0  0  0  0  0  0  0  0  0  0
  142.1940   79.8290  221.6140 C   0  0  0  0  0  0  0  0  0  0  0  0
  142.7350   80.0220  223.0420 C   0  0  0  0  0  0  0  0  0  0  0  0
  141.8500   79.3380  224.0430 C   0  0  0  0  0  0  0  0  0  0  0  0
  140.3980   79.3320  223.6100 C   0  0  0  0  0  0  0  0  0  0  0  0
  140.0840   80.5590  222.7910 C   0  0  0  0  0  0  0  0  0  0  0  0
  140.8660   80.6080  221.5120 C   0  0  0  0  0  0  0  0  0  0  0  0
  140.2010   71.5390  223.5590 C   0  0  0  0  0  0  0  0  0  0  0  0
  139.5450   70.3210  223.3810 C   0  0  0  0  0  0  0  0  0  0  0  0
  139.3450   69.4510  224.4330 C   0  0  0  0  0  0  0  0  0  0  0  0
  139.8320   69.8540  225.6640 C   0  0  0  0  0  0  0  0  0  0  0  0
  139.6610   69.0170  226.7680 C   0  0  0  0  0  0  0  0  0  0  0  0
  140.1260   69.3720  228.0150 C   0  0  0  0  0  0  0  0  0  0  0  0
  139.9330   68.5240  229.0530 F   0  0  0  0  0  0  0  0  0  0  0  0
  140.7720   70.5880  228.1460 C   0  0  0  0  0  0  0  0  0  0  0  0
  140.9590   71.4380  227.0830 C   0  0  0  0  0  0  0  0  0  0  0  0
  140.4860   71.0650  225.8440 C   0  0  0  0  0  0  0  0  0  0  0  0
  140.6640   71.9010  224.7770 N   0  0  0  0  0  0  0  0  0  0  0  0
  139.2340   74.0870  223.0860 H   0  0  0  0  0  0  0  0  0  0  0  0
  140.3457   73.6755  220.2660 H   0  0  0  0  0  0  0  0  0  0  0  0
  139.0805   74.8565  220.6692 H   0  0  0  0  0  0  0  0  0  0  0  0
  143.8805   74.2901  220.3687 H   0  0  0  0  0  0  0  0  0  0  0  0
  142.3470   73.4092  220.5654 H   0  0  0  0  0  0  0  0  0  0  0  0
  143.1253   73.1295  218.2109 H   0  0  0  0  0  0  0  0  0  0  0  0
  141.6954   74.1528  218.1650 H   0  0  0  0  0  0  0  0  0  0  0  0
  144.5820   75.1809  218.4503 H   0  0  0  0  0  0  0  0  0  0  0  0
  143.6840   75.1288  216.9029 H   0  0  0  0  0  0  0  0  0  0  0  0
  143.5660   77.3602  217.9879 H   0  0  0  0  0  0  0  0  0  0  0  0
  141.9361   76.5524  217.8472 H   0  0  0  0  0  0  0  0  0  0  0  0
  143.6853   76.9361  220.2082 H   0  0  0  0  0  0  0  0  0  0  0  0
  142.0207   78.6630  219.4268 H   0  0  0  0  0  0  0  0  0  0  0  0
  140.8111   77.4313  220.1821 H   0  0  0  0  0  0  0  0  0  0  0  0
  142.1790   77.8370  222.2150 H   0  0  0  0  0  0  0  0  0  0  0  0
  142.9200   80.1793  220.8656 H   0  0  0  0  0  0  0  0  0  0  0  0
  143.7473   79.5963  223.1050 H   0  0  0  0  0  0  0  0  0  0  0  0
  142.7581   81.0982  223.2684 H   0  0  0  0  0  0  0  0  0  0  0  0
  142.1884   78.2983  224.1636 H   0  0  0  0  0  0  0  0  0  0  0  0
  141.9186   79.8926  224.9905 H   0  0  0  0  0  0  0  0  0  0  0  0
  140.2048   78.4340  223.0048 H   0  0  0  0  0  0  0  0  0  0  0  0
  139.7603   79.3307  224.5063 H   0  0  0  0  0  0  0  0  0  0  0  0
  139.0109   80.5572  222.5492 H   0  0  0  0  0  0  0  0  0  0  0  0
  140.3612   81.4406  223.3877 H   0  0  0  0  0  0  0  0  0  0  0  0
  140.2580   80.1688  220.7074 H   0  0  0  0  0  0  0  0  0  0  0  0
  141.1059   81.6607  221.3015 H   0  0  0  0  0  0  0  0  0  0  0  0
  139.1792   70.0481  222.3801 H   0  0  0  0  0  0  0  0  0  0  0  0
  138.8269   68.4898  224.3005 H   0  0  0  0  0  0  0  0  0  0  0  0
  139.1444   68.0544  226.6395 H   0  0  0  0  0  0  0  0  0  0  0  0
  141.1492   70.8848  229.1358 H   0  0  0  0  0  0  0  0  0  0  0  0
  141.4770   72.3989  227.2187 H   0  0  0  0  0  0  0  0  0  0  0  0
  1  2  2  0
  2  3  1  0
  3  4  1  0
  4  5  1  0
  5  6  2  0
  5  7  1  0
  7  8  1  0
  8  9  1  0
  9 10  1  0
 10 11  1  0
 11 12  1  0
 12 13  1  0
 13 14  1  0
 14 15  1  0
 15 16  1  0
 16 17  1  0
 17 18  1  0
 18 19  1  0
 19 20  1  0
  2 21  1  0
 21 22  2  0
 22 23  1  0
 23 24  2  0
 24 25  1  0
 25 26  2  0
 26 27  1  0
 26 28  1  0
 28 29  2  0
 29 30  1  0
 30 31  2  0
 12  7  1  0
 20 15  1  0
 31 21  1  0
 30 24  1  0
  3 32  1  0
  4 33  1  0
  4 34  1  0
  8 35  1  0
  8 36  1  0
  9 37  1  0
  9 38  1  0
 10 39  1  0
 10 40  1  0
 11 41  1  0
 11 42  1  0
 12 43  1  1
 13 44  1  0
 13 45  1  0
 14 46  1  0
 15 47  1  0
 16 48  1  0
 16 49  1  0
 17 50  1  0
 17 51  1  0
 18 52  1  0
 18 53  1  0
 19 54  1  0
 19 55  1  0
 20 56  1  0
 20 57  1  0
 22 58  1  0
 23 59  1  0
 25 60  1  0
 28 61  1  0
 29 62  1  0
M  END
>  <smiles>  (14) 
O=C(NCC(=O)N1CCCC[C@H]1CNC1CCCCC1)c1ccc2cc(F)ccc2n1

>  <score_type>  (14) 
oracle

>  <origin>  (14) 
autodockgpu

>  <m_score__min__energy>  (14) 
-9.5700000000000003

>  <m_primary>  (14) 
energy

>  <rmsd>  (14) 
2.5734191141974314

>  <m_score__min__rmsd>  (14) 
2.5734191141974314

>  <meeko>  (14) 
{"free_energy": -9.39, "intermolecular_energy": -11.48, "internal_energy": -2.43, "cluster_size": 45, "cluster_id": 1, "rank_in_cluster": 5}

>  <energy>  (14) 
-8.94

>  <cluster_rmsd>  (14) 
0.7

>  <cluster>  (14) 
1

$$$$

     RDKit          3D

 62 65  0  0  0  0  0  0  0  0999 V2000
  138.3130   71.2460  222.0400 O   0  0  0  0  0  0  0  0  0  0  0  0
  139.2250   71.5180  222.8740 C   0  0  0  0  0  0  0  0  0  0  0  0
  139.9630   72.7240  222.5870 N   0  0  0  0  0  0  0  0  0  0  0  0
  139.5470   73.4360  221.3950 C   0  0  0  0  0  0  0  0  0  0  0  0
  139.8980   74.8970  221.6100 C   0  0  0  0  0  0  0  0  0  0  0  0
  141.0790   75.0900  221.9710 O   0  0  0  0  0  0  0  0  0  0  0  0
  138.9030   75.8690  221.3910 N   0  0  0  0  0  0  0  0  0  0  0  0
  137.5390   75.5000  221.7830 C   0  0  0  0  0  0  0  0  0  0  0  0
  137.0680   76.5370  222.8170 C   0  0  0  0  0  0  0  0  0  0  0  0
  136.9780   77.8200  222.0380 C   0  0  0  0  0  0  0  0  0  0  0  0
  138.3750   78.2290  221.6190 C   0  0  0  0  0  0  0  0  0  0  0  0
  139.0810   77.1810  220.8220 C   0  0  1  0  0  0  0  0  0  0  0  0
  140.5340   77.4330  220.6040 C   0  0  0  0  0  0  0  0  0  0  0  0
  141.3420   77.8910  221.6510 N   0  0  0  0  0  0  0  0  0  0  0  0
  141.9830   79.1330  221.6390 C   0  0  0  0  0  0  0  0  0  0  0  0
  142.7120   79.3150  222.9830 C   0  0  0  0  0  0  0  0  0  0  0  0
  141.7970   79.0050  224.1310 C   0  0  0  0  0  0  0  0  0  0  0  0
  140.3550   79.3520  223.8210 C   0  0  0  0  0  0  0  0  0  0  0  0
  140.2840   80.5270  222.8790 C   0  0  0  0  0  0  0  0  0  0  0  0
  140.9020   80.2310  221.5460 C   0  0  0  0  0  0  0  0  0  0  0  0
  139.5180   70.6890  224.0320 C   0  0  0  0  0  0  0  0  0  0  0  0
  139.1000   69.3610  223.9590 C   0  0  0  0  0  0  0  0  0  0  0  0
  139.3180   68.4800  224.9980 C   0  0  0  0  0  0  0  0  0  0  0  0
  139.9710   68.9860  226.1060 C   0  0  0  0  0  0  0  0  0  0  0  0
  140.2220   68.1440  227.1910 C   0  0  0  0  0  0  0  0  0  0  0  0
  140.8680   68.5990  228.3190 C   0  0  0  0  0  0  0  0  0  0  0  0
  141.0840   67.7410  229.3420 F   0  0  0  0  0  0  0  0  0  0  0  0
  141.2670   69.9230  228.3490 C   0  0  0  0  0  0  0  0  0  0  0  0
  141.0380   70.7830  227.3010 C   0  0  0  0  0  0  0  0  0  0  0  0
  140.3900   70.3080  226.1820 C   0  0  0  0  0  0  0  0  0  0  0  0
  140.1550   71.1520  225.1330 N   0  0  0  0  0  0  0  0  0  0  0  0
  140.7370   73.0340  223.2150 H   0  0  0  0  0  0  0  0  0  0  0  0
  140.0790   73.0445  220.5154 H   0  0  0  0  0  0  0  0  0  0  0  0
  138.4685   73.3118  221.2181 H   0  0  0  0  0  0  0  0  0  0  0  0
  136.8769   75.5157  220.9047 H   0  0  0  0  0  0  0  0  0  0  0  0
  137.5151   74.4856  222.2078 H   0  0  0  0  0  0  0  0  0  0  0  0
  136.0858   76.2602  223.2276 H   0  0  0  0  0  0  0  0  0  0  0  0
  137.7490   76.6134  223.6775 H   0  0  0  0  0  0  0  0  0  0  0  0
  136.3527   77.6689  221.1457 H   0  0  0  0  0  0  0  0  0  0  0  0
  136.5264   78.6068  222.6600 H   0  0  0  0  0  0  0  0  0  0  0  0
  138.3041   79.1425  221.0103 H   0  0  0  0  0  0  0  0  0  0  0  0
  138.9582   78.3890  222.5379 H   0  0  0  0  0  0  0  0  0  0  0  0
  138.6022   77.2314  219.8330 H   0  0  0  0  0  0  0  0  0  0  0  0
  140.9704   76.4830  220.2620 H   0  0  0  0  0  0  0  0  0  0  0  0
  140.5348   78.2807  219.9030 H   0  0  0  0  0  0  0  0  0  0  0  0
  141.7790   77.1540  222.2480 H   0  0  0  0  0  0  0  0  0  0  0  0
  142.6868   79.1937  220.7958 H   0  0  0  0  0  0  0  0  0  0  0  0
  143.5777   78.6373  223.0185 H   0  0  0  0  0  0  0  0  0  0  0  0
  143.0414   80.3612  223.0669 H   0  0  0  0  0  0  0  0  0  0  0  0
  141.8625   77.9303  224.3565 H   0  0  0  0  0  0  0  0  0  0  0  0
  142.1143   79.6135  224.9907 H   0  0  0  0  0  0  0  0  0  0  0  0
  139.8664   78.4841  223.3542 H   0  0  0  0  0  0  0  0  0  0  0  0
  139.8440   79.6169  224.7584 H   0  0  0  0  0  0  0  0  0  0  0  0
  139.2278   80.7941  222.7269 H   0  0  0  0  0  0  0  0  0  0  0  0
  140.8486   81.3546  223.3332 H   0  0  0  0  0  0  0  0  0  0  0  0
  140.1137   79.8954  220.8561 H   0  0  0  0  0  0  0  0  0  0  0  0
  141.3836   81.1512  221.1837 H   0  0  0  0  0  0  0  0  0  0  0  0
  138.5852   69.0080  223.0533 H   0  0  0  0  0  0  0  0  0  0  0  0
  138.9898   67.4313  224.9473 H   0  0  0  0  0  0  0  0  0  0  0  0
  139.8967   67.0943  227.1439 H   0  0  0  0  0  0  0  0  0  0  0  0
  141.7856   70.3011  229.2424 H   0  0  0  0  0  0  0  0  0  0  0  0
  141.3663   71.8315  227.3551 H   0  0  0  0  0  0  0  0  0  0  0  0
  1  2  2  0
  2  3  1  0
  3  4  1  0
  4  5  1  0
  5  6  2  0
  5  7  1  0
  7  8  1  0
  8  9  1  0
  9 10  1  0
 10 11  1  0
 11 12  1  0
 12 13  1  0
 13 14  1  0
 14 15  1  0
 15 16  1  0
 16 17  1  0
 17 18  1  0
 18 19  1  0
 19 20  1  0
  2 21  1  0
 21 22  2  0
 22 23  1  0
 23 24  2  0
 24 25  1  0
 25 26  2  0
 26 27  1  0
 26 28  1  0
 28 29  2  0
 29 30  1  0
 30 31  2  0
 12  7  1  0
 20 15  1  0
 31 21  1  0
 30 24  1  0
  3 32  1  0
  4 33  1  0
  4 34  1  0
  8 35  1  0
  8 36  1  0
  9 37  1  0
  9 38  1  0
 10 39  1  0
 10 40  1  0
 11 41  1  0
 11 42  1  0
 12 43  1  6
 13 44  1  0
 13 45  1  0
 14 46  1  0
 15 47  1  0
 16 48  1  0
 16 49  1  0
 17 50  1  0
 17 51  1  0
 18 52  1  0
 18 53  1  0
 19 54  1  0
 19 55  1  0
 20 56  1  0
 20 57  1  0
 22 58  1  0
 23 59  1  0
 25 60  1  0
 28 61  1  0
 29 62  1  0
M  END
>  <smiles>  (15) 
O=C(NCC(=O)N1CCCC[C@H]1CNC1CCCCC1)c1ccc2cc(F)ccc2n1

>  <score_type>  (15) 
oracle

>  <origin>  (15) 
autodockgpu

>  <m_score__min__energy>  (15) 
-9.5700000000000003

>  <m_primary>  (15) 
energy

>  <rmsd>  (15) 
3.03236353894663

>  <m_score__min__rmsd>  (15) 
3.03236353894663

>  <meeko>  (15) 
{"free_energy": -8.4, "intermolecular_energy": -10.49, "internal_energy": -2.71, "cluster_size": 45, "cluster_id": 1, "rank_in_cluster": 32}

>  <energy>  (15) 
-8.93

>  <cluster_rmsd>  (15) 
1.48

>  <cluster>  (15) 
1

$$$$

     RDKit          3D

 62 65  0  0  0  0  0  0  0  0999 V2000
  141.0200   71.8770  221.2960 O   0  0  0  0  0  0  0  0  0  0  0  0
  140.4490   72.2910  222.3460 C   0  0  0  0  0  0  0  0  0  0  0  0
  139.9550   73.6440  222.2700 N   0  0  0  0  0  0  0  0  0  0  0  0
  140.1860   74.3180  221.0070 C   0  0  0  0  0  0  0  0  0  0  0  0
  141.1770   75.4330  221.2770 C   0  0  0  0  0  0  0  0  0  0  0  0
  141.0390   75.9790  222.3930 O   0  0  0  0  0  0  0  0  0  0  0  0
  142.1300   75.7440  220.2880 N   0  0  0  0  0  0  0  0  0  0  0  0
  142.7980   74.6050  219.6500 C   0  0  0  0  0  0  0  0  0  0  0  0
  142.5130   74.7010  218.1420 C   0  0  0  0  0  0  0  0  0  0  0  0
  143.2380   75.9440  217.7070 C   0  0  0  0  0  0  0  0  0  0  0  0
  142.5690   77.1420  218.3500 C   0  0  0  0  0  0  0  0  0  0  0  0
  142.5210   77.0580  219.8410 C   0  0  1  0  0  0  0  0  0  0  0  0
  141.6580   78.0810  220.4970 C   0  0  0  0  0  0  0  0  0  0  0  0
  141.9000   78.4750  221.8190 N   0  0  0  0  0  0  0  0  0  0  0  0
  142.2690   79.7740  222.1760 C   0  0  0  0  0  0  0  0  0  0  0  0
  141.8240   80.0220  223.6290 C   0  0  0  0  0  0  0  0  0  0  0  0
  140.3920   79.6170  223.8220 C   0  0  0  0  0  0  0  0  0  0  0  0
  139.5670   79.8200  222.5680 C   0  0  0  0  0  0  0  0  0  0  0  0
  140.0940   80.9870  221.7710 C   0  0  0  0  0  0  0  0  0  0  0  0
  141.4910   80.7590  221.2790 C   0  0  0  0  0  0  0  0  0  0  0  0
  140.2970   71.4790  223.5430 C   0  0  0  0  0  0  0  0  0  0  0  0
  139.6250   70.2680  223.3820 C   0  0  0  0  0  0  0  0  0  0  0  0
  139.4150   69.4140  224.4450 C   0  0  0  0  0  0  0  0  0  0  0  0
  139.9080   69.8260  225.6700 C   0  0  0  0  0  0  0  0  0  0  0  0
  139.7280   69.0060  226.7850 C   0  0  0  0  0  0  0  0  0  0  0  0
  140.1990   69.3690  228.0270 C   0  0  0  0  0  0  0  0  0  0  0  0
  139.9960   68.5380  229.0750 F   0  0  0  0  0  0  0  0  0  0  0  0
  140.8610   70.5790  228.1420 C   0  0  0  0  0  0  0  0  0  0  0  0
  141.0570   71.4140  227.0680 C   0  0  0  0  0  0  0  0  0  0  0  0
  140.5780   71.0310  225.8340 C   0  0  0  0  0  0  0  0  0  0  0  0
  140.7660   71.8510  224.7570 N   0  0  0  0  0  0  0  0  0  0  0  0
  139.4700   74.0790  223.0850 H   0  0  0  0  0  0  0  0  0  0  0  0
  140.6014   73.6125  220.2723 H   0  0  0  0  0  0  0  0  0  0  0  0
  139.2468   74.7172  220.5965 H   0  0  0  0  0  0  0  0  0  0  0  0
  143.8816   74.6521  219.8330 H   0  0  0  0  0  0  0  0  0  0  0  0
  142.4267   73.6538  220.0590 H   0  0  0  0  0  0  0  0  0  0  0  0
  142.9024   73.8177  217.6146 H   0  0  0  0  0  0  0  0  0  0  0  0
  141.4366   74.7416  217.9188 H   0  0  0  0  0  0  0  0  0  0  0  0
  144.2894   75.8909  218.0259 H   0  0  0  0  0  0  0  0  0  0  0  0
  143.2030   76.0363  216.6114 H   0  0  0  0  0  0  0  0  0  0  0  0
  143.1269   78.0472  218.0684 H   0  0  0  0  0  0  0  0  0  0  0  0
  141.5299   77.1691  217.9900 H   0  0  0  0  0  0  0  0  0  0  0  0
  143.5538   77.2710  220.1539 H   0  0  0  0  0  0  0  0  0  0  0  0
  141.7231   78.9898  219.8807 H   0  0  0  0  0  0  0  0  0  0  0  0
  140.6837   77.5750  220.5648 H   0  0  0  0  0  0  0  0  0  0  0  0
  142.1910   77.7170  222.4760 H   0  0  0  0  0  0  0  0  0  0  0  0
  143.3553   79.9080  222.0664 H   0  0  0  0  0  0  0  0  0  0  0  0
  142.4601   79.4337  224.3068 H   0  0  0  0  0  0  0  0  0  0  0  0
  141.9207   81.0952  223.8500 H   0  0  0  0  0  0  0  0  0  0  0  0
  140.3589   78.5531  224.0997 H   0  0  0  0  0  0  0  0  0  0  0  0
  139.9653   80.2503  224.6137 H   0  0  0  0  0  0  0  0  0  0  0  0
  139.6151   78.9099  221.9520 H   0  0  0  0  0  0  0  0  0  0  0  0
  138.5263   80.0282  222.8571 H   0  0  0  0  0  0  0  0  0  0  0  0
  139.4363   81.1485  220.9042 H   0  0  0  0  0  0  0  0  0  0  0  0
  140.1110   81.8650  222.4335 H   0  0  0  0  0  0  0  0  0  0  0  0
  141.4454   80.3496  220.2590 H   0  0  0  0  0  0  0  0  0  0  0  0
  142.0186   81.7240  221.2987 H   0  0  0  0  0  0  0  0  0  0  0  0
  139.2540   69.9872  222.3852 H   0  0  0  0  0  0  0  0  0  0  0  0
  138.8846   68.4578  224.3250 H   0  0  0  0  0  0  0  0  0  0  0  0
  139.1983   68.0489  226.6691 H   0  0  0  0  0  0  0  0  0  0  0  0
  141.2437   70.8831  229.1275 H   0  0  0  0  0  0  0  0  0  0  0  0
  141.5864   72.3703  227.1912 H   0  0  0  0  0  0  0  0  0  0  0  0
  1  2  2  0
  2  3  1  0
  3  4  1  0
  4  5  1  0
  5  6  2  0
  5  7  1  0
  7  8  1  0
  8  9  1  0
  9 10  1  0
 10 11  1  0
 11 12  1  0
 12 13  1  0
 13 14  1  0
 14 15  1  0
 15 16  1  0
 16 17  1  0
 17 18  1  0
 18 19  1  0
 19 20  1  0
  2 21  1  0
 21 22  2  0
 22 23  1  0
 23 24  2  0
 24 25  1  0
 25 26  2  0
 26 27  1  0
 26 28  1  0
 28 29  2  0
 29 30  1  0
 30 31  2  0
 12  7  1  0
 20 15  1  0
 31 21  1  0
 30 24  1  0
  3 32  1  0
  4 33  1  0
  4 34  1  0
  8 35  1  0
  8 36  1  0
  9 37  1  0
  9 38  1  0
 10 39  1  0
 10 40  1  0
 11 41  1  0
 11 42  1  0
 12 43  1  1
 13 44  1  0
 13 45  1  0
 14 46  1  0
 15 47  1  0
 16 48  1  0
 16 49  1  0
 17 50  1  0
 17 51  1  0
 18 52  1  0
 18 53  1  0
 19 54  1  0
 19 55  1  0
 20 56  1  0
 20 57  1  0
 22 58  1  0
 23 59  1  0
 25 60  1  0
 28 61  1  0
 29 62  1  0
M  END
>  <smiles>  (16) 
O=C(NCC(=O)N1CCCC[C@H]1CNC1CCCCC1)c1ccc2cc(F)ccc2n1

>  <score_type>  (16) 
oracle

>  <origin>  (16) 
autodockgpu

>  <m_score__min__energy>  (16) 
-9.5700000000000003

>  <m_primary>  (16) 
energy

>  <rmsd>  (16) 
2.357179923773918

>  <m_score__min__rmsd>  (16) 
2.357179923773918

>  <meeko>  (16) 
{"free_energy": -9.07, "intermolecular_energy": -11.16, "internal_energy": -2.45, "cluster_size": 45, "cluster_id": 1, "rank_in_cluster": 12}

>  <energy>  (16) 
-8.9

>  <cluster_rmsd>  (16) 
1.46

>  <cluster>  (16) 
1

$$$$

     RDKit          3D

 62 65  0  0  0  0  0  0  0  0999 V2000
  140.9020   71.8730  221.2640 O   0  0  0  0  0  0  0  0  0  0  0  0
  140.3760   72.3020  222.3320 C   0  0  0  0  0  0  0  0  0  0  0  0
  139.9090   73.6660  222.2670 N   0  0  0  0  0  0  0  0  0  0  0  0
  140.1120   74.3310  220.9950 C   0  0  0  0  0  0  0  0  0  0  0  0
  140.3300   75.8010  221.2960 C   0  0  0  0  0  0  0  0  0  0  0  0
  140.1050   76.1180  222.4840 O   0  0  0  0  0  0  0  0  0  0  0  0
  140.7510   76.6490  220.2530 N   0  0  0  0  0  0  0  0  0  0  0  0
  140.4020   76.2250  218.8930 C   0  0  0  0  0  0  0  0  0  0  0  0
  139.5600   77.3530  218.2700 C   0  0  0  0  0  0  0  0  0  0  0  0
  140.5190   78.5040  218.1470 C   0  0  0  0  0  0  0  0  0  0  0  0
  140.8980   78.9660  219.5390 C   0  0  0  0  0  0  0  0  0  0  0  0
  141.4890   77.8810  220.3790 C   0  0  1  0  0  0  0  0  0  0  0  0
  141.6440   78.2200  221.8220 C   0  0  0  0  0  0  0  0  0  0  0  0
  140.5570   78.7060  222.5590 N   0  0  0  0  0  0  0  0  0  0  0  0
  140.6950   79.3710  223.7800 C   0  0  0  0  0  0  0  0  0  0  0  0
  139.6900   80.5370  223.8130 C   0  0  0  0  0  0  0  0  0  0  0  0
  139.7760   81.3490  222.5540 C   0  0  0  0  0  0  0  0  0  0  0  0
  141.1790   81.3690  221.9830 C   0  0  0  0  0  0  0  0  0  0  0  0
  142.2020   81.2740  223.0870 C   0  0  0  0  0  0  0  0  0  0  0  0
  142.1120   79.9800  223.8390 C   0  0  0  0  0  0  0  0  0  0  0  0
  140.2460   71.4970  223.5360 C   0  0  0  0  0  0  0  0  0  0  0  0
  139.5960   70.2730  223.3890 C   0  0  0  0  0  0  0  0  0  0  0  0
  139.4100   69.4230  224.4600 C   0  0  0  0  0  0  0  0  0  0  0  0
  139.9030   69.8540  225.6780 C   0  0  0  0  0  0  0  0  0  0  0  0
  139.7450   69.0390  226.8000 C   0  0  0  0  0  0  0  0  0  0  0  0
  140.2170   69.4220  228.0370 C   0  0  0  0  0  0  0  0  0  0  0  0
  140.0370   68.5950  229.0930 F   0  0  0  0  0  0  0  0  0  0  0  0
  140.8570   70.6440  228.1380 C   0  0  0  0  0  0  0  0  0  0  0  0
  141.0300   71.4740  227.0560 C   0  0  0  0  0  0  0  0  0  0  0  0
  140.5510   71.0730  225.8280 C   0  0  0  0  0  0  0  0  0  0  0  0
  140.7160   71.8880  224.7430 N   0  0  0  0  0  0  0  0  0  0  0  0
  139.4620   74.1130  223.0960 H   0  0  0  0  0  0  0  0  0  0  0  0
  140.9940   73.9141  220.4868 H   0  0  0  0  0  0  0  0  0  0  0  0
  139.2445   74.1891  220.3338 H   0  0  0  0  0  0  0  0  0  0  0  0
  141.3155   76.0651  218.3014 H   0  0  0  0  0  0  0  0  0  0  0  0
  139.8397   75.2797  218.9095 H   0  0  0  0  0  0  0  0  0  0  0  0
  139.1790   77.0553  217.2820 H   0  0  0  0  0  0  0  0  0  0  0  0
  138.6767   77.6034  218.8759 H   0  0  0  0  0  0  0  0  0  0  0  0
  141.4200   78.1798  217.6057 H   0  0  0  0  0  0  0  0  0  0  0  0
  140.0482   79.3286  217.5918 H   0  0  0  0  0  0  0  0  0  0  0  0
  141.6338   79.7787  219.4493 H   0  0  0  0  0  0  0  0  0  0  0  0
  139.9744   79.2976  220.0360 H   0  0  0  0  0  0  0  0  0  0  0  0
  142.5049   77.7557  219.9762 H   0  0  0  0  0  0  0  0  0  0  0  0
  141.9819   77.3028  222.3266 H   0  0  0  0  0  0  0  0  0  0  0  0
  142.3323   79.0778  221.8018 H   0  0  0  0  0  0  0  0  0  0  0  0
  139.6430   78.2270  222.3970 H   0  0  0  0  0  0  0  0  0  0  0  0
  140.5240   78.6770  224.6161 H   0  0  0  0  0  0  0  0  0  0  0  0
  138.6718   80.1330  223.9130 H   0  0  0  0  0  0  0  0  0  0  0  0
  139.9297   81.1856  224.6685 H   0  0  0  0  0  0  0  0  0  0  0  0
  139.0949   80.9169  221.8061 H   0  0  0  0  0  0  0  0  0  0  0  0
  139.4954   82.3840  222.7989 H   0  0  0  0  0  0  0  0  0  0  0  0
  141.3037   80.5158  221.3000 H   0  0  0  0  0  0  0  0  0  0  0  0
  141.3283   82.3146  221.4412 H   0  0  0  0  0  0  0  0  0  0  0  0
  143.2064   81.3574  222.6462 H   0  0  0  0  0  0  0  0  0  0  0  0
  142.0052   82.0899  223.7981 H   0  0  0  0  0  0  0  0  0  0  0  0
  142.8238   79.2650  223.4008 H   0  0  0  0  0  0  0  0  0  0  0  0
  142.3491   80.1841  224.8936 H   0  0  0  0  0  0  0  0  0  0  0  0
  139.2229   69.9779  222.3972 H   0  0  0  0  0  0  0  0  0  0  0  0
  138.8977   68.4557  224.3509 H   0  0  0  0  0  0  0  0  0  0  0  0
  139.2332   68.0710  226.6949 H   0  0  0  0  0  0  0  0  0  0  0  0
  141.2409   70.9628  229.1183 H   0  0  0  0  0  0  0  0  0  0  0  0
  141.5418   72.4412  227.1686 H   0  0  0  0  0  0  0  0  0  0  0  0
  1  2  2  0
  2  3  1  0
  3  4  1  0
  4  5  1  0
  5  6  2  0
  5  7  1  0
  7  8  1  0
  8  9  1  0
  9 10  1  0
 10 11  1  0
 11 12  1  0
 12 13  1  0
 13 14  1  0
 14 15  1  0
 15 16  1  0
 16 17  1  0
 17 18  1  0
 18 19  1  0
 19 20  1  0
  2 21  1  0
 21 22  2  0
 22 23  1  0
 23 24  2  0
 24 25  1  0
 25 26  2  0
 26 27  1  0
 26 28  1  0
 28 29  2  0
 29 30  1  0
 30 31  2  0
 12  7  1  0
 20 15  1  0
 31 21  1  0
 30 24  1  0
  3 32  1  0
  4 33  1  0
  4 34  1  0
  8 35  1  0
  8 36  1  0
  9 37  1  0
  9 38  1  0
 10 39  1  0
 10 40  1  0
 11 41  1  0
 11 42  1  0
 12 43  1  6
 13 44  1  0
 13 45  1  0
 14 46  1  0
 15 47  1  0
 16 48  1  0
 16 49  1  0
 17 50  1  0
 17 51  1  0
 18 52  1  0
 18 53  1  0
 19 54  1  0
 19 55  1  0
 20 56  1  0
 20 57  1  0
 22 58  1  0
 23 59  1  0
 25 60  1  0
 28 61  1  0
 29 62  1  0
M  END
>  <smiles>  (17) 
O=C(NCC(=O)N1CCCC[C@H]1CNC1CCCCC1)c1ccc2cc(F)ccc2n1

>  <score_type>  (17) 
oracle

>  <origin>  (17) 
autodockgpu

>  <m_score__min__energy>  (17) 
-9.5700000000000003

>  <m_primary>  (17) 
energy

>  <rmsd>  (17) 
1.9190851703937732

>  <m_score__min__rmsd>  (17) 
1.9190851703937732

>  <meeko>  (17) 
{"free_energy": -8.28, "intermolecular_energy": -10.37, "internal_energy": -2.66, "cluster_size": 45, "cluster_id": 1, "rank_in_cluster": 39}

>  <energy>  (17) 
-8.88

>  <cluster_rmsd>  (17) 
0.95

>  <cluster>  (17) 
1

$$$$

     RDKit          3D

 62 65  0  0  0  0  0  0  0  0999 V2000
  141.0290   71.8460  221.3040 O   0  0  0  0  0  0  0  0  0  0  0  0
  140.4400   72.2620  222.3430 C   0  0  0  0  0  0  0  0  0  0  0  0
  139.9180   73.6040  222.2430 N   0  0  0  0  0  0  0  0  0  0  0  0
  140.1460   74.2640  220.9730 C   0  0  0  0  0  0  0  0  0  0  0  0
  140.8150   75.5910  221.2810 C   0  0  0  0  0  0  0  0  0  0  0  0
  140.3970   76.1440  222.3210 O   0  0  0  0  0  0  0  0  0  0  0  0
  141.8100   76.0640  220.4040 N   0  0  0  0  0  0  0  0  0  0  0  0
  142.9720   75.1910  220.2090 C   0  0  0  0  0  0  0  0  0  0  0  0
  143.0540   74.8760  218.7050 C   0  0  0  0  0  0  0  0  0  0  0  0
  143.3770   76.1980  218.0680 C   0  0  0  0  0  0  0  0  0  0  0  0
  142.1920   77.1250  218.2520 C   0  0  0  0  0  0  0  0  0  0  0  0
  141.8100   77.3130  219.6830 C   0  0  1  0  0  0  0  0  0  0  0  0
  140.5080   78.0080  219.8970 C   0  0  0  0  0  0  0  0  0  0  0  0
  140.2230   78.6250  221.1210 N   0  0  0  0  0  0  0  0  0  0  0  0
  140.3590   79.9990  221.3370 C   0  0  0  0  0  0  0  0  0  0  0  0
  141.8610   80.3310  221.4170 C   0  0  0  0  0  0  0  0  0  0  0  0
  142.5620   79.3960  222.3580 C   0  0  0  0  0  0  0  0  0  0  0  0
  141.6640   78.9500  223.4940 C   0  0  0  0  0  0  0  0  0  0  0  0
  140.6720   80.0320  223.8410 C   0  0  0  0  0  0  0  0  0  0  0  0
  139.7370   80.3340  222.7090 C   0  0  0  0  0  0  0  0  0  0  0  0
  140.2930   71.4640  223.5500 C   0  0  0  0  0  0  0  0  0  0  0  0
  139.6310   70.2460  223.4030 C   0  0  0  0  0  0  0  0  0  0  0  0
  139.4280   69.4030  224.4770 C   0  0  0  0  0  0  0  0  0  0  0  0
  139.9170   69.8340  225.6960 C   0  0  0  0  0  0  0  0  0  0  0  0
  139.7430   69.0260  226.8220 C   0  0  0  0  0  0  0  0  0  0  0  0
  140.2100   69.4080  228.0590 C   0  0  0  0  0  0  0  0  0  0  0  0
  140.0140   68.5880  229.1180 F   0  0  0  0  0  0  0  0  0  0  0  0
  140.8630   70.6240  228.1590 C   0  0  0  0  0  0  0  0  0  0  0  0
  141.0530   71.4470  227.0760 C   0  0  0  0  0  0  0  0  0  0  0  0
  140.5780   71.0460  225.8460 C   0  0  0  0  0  0  0  0  0  0  0  0
  140.7590   71.8540  224.7590 N   0  0  0  0  0  0  0  0  0  0  0  0
  139.4160   74.0390  223.0480 H   0  0  0  0  0  0  0  0  0  0  0  0
  140.8006   73.6483  220.3387 H   0  0  0  0  0  0  0  0  0  0  0  0
  139.2002   74.4155  220.4321 H   0  0  0  0  0  0  0  0  0  0  0  0
  143.8882   75.7033  220.5377 H   0  0  0  0  0  0  0  0  0  0  0  0
  142.8708   74.2672  220.7975 H   0  0  0  0  0  0  0  0  0  0  0  0
  143.8476   74.1415  218.5031 H   0  0  0  0  0  0  0  0  0  0  0  0
  142.1237   74.4369  218.3154 H   0  0  0  0  0  0  0  0  0  0  0  0
  144.2661   76.6332  218.5476 H   0  0  0  0  0  0  0  0  0  0  0  0
  143.5828   76.0588  216.9964 H   0  0  0  0  0  0  0  0  0  0  0  0
  142.4465   78.1067  217.8260 H   0  0  0  0  0  0  0  0  0  0  0  0
  141.3334   76.6638  217.7420 H   0  0  0  0  0  0  0  0  0  0  0  0
  142.5904   77.9780  220.0813 H   0  0  0  0  0  0  0  0  0  0  0  0
  140.4382   78.7899  219.1265 H   0  0  0  0  0  0  0  0  0  0  0  0
  139.7799   77.1843  219.8606 H   0  0  0  0  0  0  0  0  0  0  0  0
  140.2950   78.0170  221.9680 H   0  0  0  0  0  0  0  0  0  0  0  0
  139.8714   80.5645  220.5293 H   0  0  0  0  0  0  0  0  0  0  0  0
  142.3056   80.2356  220.4154 H   0  0  0  0  0  0  0  0  0  0  0  0
  141.9762   81.3595  221.7897 H   0  0  0  0  0  0  0  0  0  0  0  0
  142.8909   78.5089  221.7968 H   0  0  0  0  0  0  0  0  0  0  0  0
  143.4174   79.9330  222.7938 H   0  0  0  0  0  0  0  0  0  0  0  0
  141.1194   78.0438  223.1902 H   0  0  0  0  0  0  0  0  0  0  0  0
  142.2856   78.7415  224.3773 H   0  0  0  0  0  0  0  0  0  0  0  0
  140.0814   79.7046  224.7093 H   0  0  0  0  0  0  0  0  0  0  0  0
  141.2387   80.9486  224.0617 H   0  0  0  0  0  0  0  0  0  0  0  0
  138.8206   79.7393  222.8377 H   0  0  0  0  0  0  0  0  0  0  0  0
  139.5193   81.4121  222.7280 H   0  0  0  0  0  0  0  0  0  0  0  0
  139.2624   69.9503  222.4097 H   0  0  0  0  0  0  0  0  0  0  0  0
  138.9057   68.4410  224.3688 H   0  0  0  0  0  0  0  0  0  0  0  0
  139.2212   68.0632  226.7178 H   0  0  0  0  0  0  0  0  0  0  0  0
  141.2434   70.9427  229.1407 H   0  0  0  0  0  0  0  0  0  0  0  0
  141.5748   72.4088  227.1883 H   0  0  0  0  0  0  0  0  0  0  0  0
  1  2  2  0
  2  3  1  0
  3  4  1  0
  4  5  1  0
  5  6  2  0
  5  7  1  0
  7  8  1  0
  8  9  1  0
  9 10  1  0
 10 11  1  0
 11 12  1  0
 12 13  1  0
 13 14  1  0
 14 15  1  0
 15 16  1  0
 16 17  1  0
 17 18  1  0
 18 19  1  0
 19 20  1  0
  2 21  1  0
 21 22  2  0
 22 23  1  0
 23 24  2  0
 24 25  1  0
 25 26  2  0
 26 27  1  0
 26 28  1  0
 28 29  2  0
 29 30  1  0
 30 31  2  0
 12  7  1  0
 20 15  1  0
 31 21  1  0
 30 24  1  0
  3 32  1  0
  4 33  1  0
  4 34  1  0
  8 35  1  0
  8 36  1  0
  9 37  1  0
  9 38  1  0
 10 39  1  0
 10 40  1  0
 11 41  1  0
 11 42  1  0
 12 43  1  1
 13 44  1  0
 13 45  1  0
 14 46  1  0
 15 47  1  0
 16 48  1  0
 16 49  1  0
 17 50  1  0
 17 51  1  0
 18 52  1  0
 18 53  1  0
 19 54  1  0
 19 55  1  0
 20 56  1  0
 20 57  1  0
 22 58  1  0
 23 59  1  0
 25 60  1  0
 28 61  1  0
 29 62  1  0
M  END
>  <smiles>  (18) 
O=C(NCC(=O)N1CCCC[C@H]1CNC1CCCCC1)c1ccc2cc(F)ccc2n1

>  <score_type>  (18) 
oracle

>  <origin>  (18) 
autodockgpu

>  <m_score__min__energy>  (18) 
-9.5700000000000003

>  <m_primary>  (18) 
energy

>  <rmsd>  (18) 
2.574933642541157

>  <m_score__min__rmsd>  (18) 
2.574933642541157

>  <meeko>  (18) 
{"free_energy": -8.49, "intermolecular_energy": -10.58, "internal_energy": -2.8, "cluster_size": 45, "cluster_id": 1, "rank_in_cluster": 28}

>  <energy>  (18) 
-8.88

>  <cluster_rmsd>  (18) 
0.71

>  <cluster>  (18) 
1

$$$$

     RDKit          3D

 62 65  0  0  0  0  0  0  0  0999 V2000
  140.8250   71.6330  221.9240 O   0  0  0  0  0  0  0  0  0  0  0  0
  140.0280   71.7450  222.9000 C   0  0  0  0  0  0  0  0  0  0  0  0
  138.8700   72.5660  222.6410 N   0  0  0  0  0  0  0  0  0  0  0  0
  138.7990   73.1340  221.3090 C   0  0  0  0  0  0  0  0  0  0  0  0
  139.2970   74.5630  221.4120 C   0  0  0  0  0  0  0  0  0  0  0  0
  138.5230   75.3300  222.0240 O   0  0  0  0  0  0  0  0  0  0  0  0
  140.5390   74.8880  220.8330 N   0  0  0  0  0  0  0  0  0  0  0  0
  140.9440   74.0850  219.6750 C   0  0  0  0  0  0  0  0  0  0  0  0
  141.1490   75.0560  218.5000 C   0  0  0  0  0  0  0  0  0  0  0  0
  142.3360   75.8830  218.9080 C   0  0  0  0  0  0  0  0  0  0  0  0
  141.9480   76.7280  220.1040 C   0  0  0  0  0  0  0  0  0  0  0  0
  141.4520   75.9190  221.2580 C   0  0  1  0  0  0  0  0  0  0  0  0
  140.8270   76.7120  222.3550 C   0  0  0  0  0  0  0  0  0  0  0  0
  141.4710   77.8440  222.8710 N   0  0  0  0  0  0  0  0  0  0  0  0
  140.7860   78.9310  223.4210 C   0  0  0  0  0  0  0  0  0  0  0  0
  139.9220   79.5680  222.3180 C   0  0  0  0  0  0  0  0  0  0  0  0
  140.7310   79.8000  221.0760 C   0  0  0  0  0  0  0  0  0  0  0  0
  142.1820   80.1040  221.3890 C   0  0  0  0  0  0  0  0  0  0  0  0
  142.3000   80.8210  222.7110 C   0  0  0  0  0  0  0  0  0  0  0  0
  141.8270   79.9820  223.8600 C   0  0  0  0  0  0  0  0  0  0  0  0
  140.2470   71.1020  224.1860 C   0  0  0  0  0  0  0  0  0  0  0  0
  140.7810   71.9070  225.1910 C   0  0  0  0  0  0  0  0  0  0  0  0
  141.0370   71.4090  226.4520 C   0  0  0  0  0  0  0  0  0  0  0  0
  140.7340   70.0760  226.6590 C   0  0  0  0  0  0  0  0  0  0  0  0
  140.9700   69.5120  227.9140 C   0  0  0  0  0  0  0  0  0  0  0  0
  140.6860   68.1890  228.1720 C   0  0  0  0  0  0  0  0  0  0  0  0
  140.9360   67.6930  229.4050 F   0  0  0  0  0  0  0  0  0  0  0  0
  140.1560   67.4270  227.1460 C   0  0  0  0  0  0  0  0  0  0  0  0
  139.9100   67.9450  225.8970 C   0  0  0  0  0  0  0  0  0  0  0  0
  140.2010   69.2710  225.6600 C   0  0  0  0  0  0  0  0  0  0  0  0
  139.9620   69.8010  224.4230 N   0  0  0  0  0  0  0  0  0  0  0  0
  138.1530   72.7210  223.3830 H   0  0  0  0  0  0  0  0  0  0  0  0
  139.4353   72.5605  220.6189 H   0  0  0  0  0  0  0  0  0  0  0  0
  137.7698   73.1028  220.9221 H   0  0  0  0  0  0  0  0  0  0  0  0
  141.8822   73.5541  219.8937 H   0  0  0  0  0  0  0  0  0  0  0  0
  140.1780   73.3337  219.4327 H   0  0  0  0  0  0  0  0  0  0  0  0
  141.3579   74.5055  217.5708 H   0  0  0  0  0  0  0  0  0  0  0  0
  140.2577   75.6685  218.2991 H   0  0  0  0  0  0  0  0  0  0  0  0
  143.1732   75.2222  219.1771 H   0  0  0  0  0  0  0  0  0  0  0  0
  142.6469   76.5308  218.0751 H   0  0  0  0  0  0  0  0  0  0  0  0
  142.8300   77.2987  220.4301 H   0  0  0  0  0  0  0  0  0  0  0  0
  141.1252   77.3858  219.7873 H   0  0  0  0  0  0  0  0  0  0  0  0
  142.3629   75.4665  221.6770 H   0  0  0  0  0  0  0  0  0  0  0  0
  139.8485   77.0489  221.9820 H   0  0  0  0  0  0  0  0  0  0  0  0
  140.8397   76.0123  223.2037 H   0  0  0  0  0  0  0  0  0  0  0  0
  142.4200   78.0450  222.4860 H   0  0  0  0  0  0  0  0  0  0  0  0
  140.1661   78.6051  224.2693 H   0  0  0  0  0  0  0  0  0  0  0  0
  139.0841   78.8953  222.0824 H   0  0  0  0  0  0  0  0  0  0  0  0
  139.5452   80.5361  222.6797 H   0  0  0  0  0  0  0  0  0  0  0  0
  140.6850   78.8973  220.4491 H   0  0  0  0  0  0  0  0  0  0  0  0
  140.3077   80.6707  220.5539 H   0  0  0  0  0  0  0  0  0  0  0  0
  142.7468   79.1613  221.4371 H   0  0  0  0  0  0  0  0  0  0  0  0
  142.5882   80.7504  220.5970 H   0  0  0  0  0  0  0  0  0  0  0  0
  143.3549   81.0849  222.8769 H   0  0  0  0  0  0  0  0  0  0  0  0
  141.6631   81.7167  222.6650 H   0  0  0  0  0  0  0  0  0  0  0  0
  142.6914   79.4630  224.2998 H   0  0  0  0  0  0  0  0  0  0  0  0
  141.3475   80.6488  224.5917 H   0  0  0  0  0  0  0  0  0  0  0  0
  141.0031   72.9622  224.9740 H   0  0  0  0  0  0  0  0  0  0  0  0
  141.4592   72.0383  227.2493 H   0  0  0  0  0  0  0  0  0  0  0  0
  141.3919   70.1377  228.7143 H   0  0  0  0  0  0  0  0  0  0  0  0
  139.9232   66.3690  227.3367 H   0  0  0  0  0  0  0  0  0  0  0  0
  139.4887   67.3130  225.1014 H   0  0  0  0  0  0  0  0  0  0  0  0
  1  2  2  0
  2  3  1  0
  3  4  1  0
  4  5  1  0
  5  6  2  0
  5  7  1  0
  7  8  1  0
  8  9  1  0
  9 10  1  0
 10 11  1  0
 11 12  1  0
 12 13  1  0
 13 14  1  0
 14 15  1  0
 15 16  1  0
 16 17  1  0
 17 18  1  0
 18 19  1  0
 19 20  1  0
  2 21  1  0
 21 22  2  0
 22 23  1  0
 23 24  2  0
 24 25  1  0
 25 26  2  0
 26 27  1  0
 26 28  1  0
 28 29  2  0
 29 30  1  0
 30 31  2  0
 12  7  1  0
 20 15  1  0
 31 21  1  0
 30 24  1  0
  3 32  1  0
  4 33  1  0
  4 34  1  0
  8 35  1  0
  8 36  1  0
  9 37  1  0
  9 38  1  0
 10 39  1  0
 10 40  1  0
 11 41  1  0
 11 42  1  0
 12 43  1  1
 13 44  1  0
 13 45  1  0
 14 46  1  0
 15 47  1  0
 16 48  1  0
 16 49  1  0
 17 50  1  0
 17 51  1  0
 18 52  1  0
 18 53  1  0
 19 54  1  0
 19 55  1  0
 20 56  1  0
 20 57  1  0
 22 58  1  0
 23 59  1  0
 25 60  1  0
 28 61  1  0
 29 62  1  0
M  END
>  <smiles>  (19) 
O=C(NCC(=O)N1CCCC[C@H]1CNC1CCCCC1)c1ccc2cc(F)ccc2n1

>  <score_type>  (19) 
oracle

>  <origin>  (19) 
autodockgpu

>  <m_score__min__energy>  (19) 
-9.5700000000000003

>  <m_primary>  (19) 
energy

>  <rmsd>  (19) 
2.649589051057416

>  <m_score__min__rmsd>  (19) 
2.649589051057416

>  <meeko>  (19) 
{"free_energy": -8.64, "intermolecular_energy": -10.73, "internal_energy": -1.67, "cluster_size": 45, "cluster_id": 1, "rank_in_cluster": 24}

>  <energy>  (19) 
-8.88

>  <cluster_rmsd>  (19) 
0.81

>  <cluster>  (19) 
1

$$$$

     RDKit          3D

 62 65  0  0  0  0  0  0  0  0999 V2000
  141.3210   72.5310  221.9460 O   0  0  0  0  0  0  0  0  0  0  0  0
  140.3080   72.4460  222.7000 C   0  0  0  0  0  0  0  0  0  0  0  0
  139.2160   73.3200  222.3410 N   0  0  0  0  0  0  0  0  0  0  0  0
  139.4470   74.1550  221.1790 C   0  0  0  0  0  0  0  0  0  0  0  0
  139.7240   75.5560  221.6910 C   0  0  0  0  0  0  0  0  0  0  0  0
  140.7790   75.6570  222.3540 O   0  0  0  0  0  0  0  0  0  0  0  0
  138.8070   76.5790  221.3870 N   0  0  0  0  0  0  0  0  0  0  0  0
  137.4150   76.3410  221.7830 C   0  0  0  0  0  0  0  0  0  0  0  0
  137.0120   77.4840  222.7310 C   0  0  0  0  0  0  0  0  0  0  0  0
  137.0250   78.7080  221.8590 C   0  0  0  0  0  0  0  0  0  0  0  0
  138.4530   78.9820  221.4340 C   0  0  0  0  0  0  0  0  0  0  0  0
  139.0870   77.8300  220.7260 C   0  0  1  0  0  0  0  0  0  0  0  0
  140.5570   77.9580  220.5130 C   0  0  0  0  0  0  0  0  0  0  0  0
  141.4080   78.2560  221.5840 N   0  0  0  0  0  0  0  0  0  0  0  0
  142.1210   79.4530  221.6860 C   0  0  0  0  0  0  0  0  0  0  0  0
  142.8200   79.4850  223.0580 C   0  0  0  0  0  0  0  0  0  0  0  0
  141.8540   79.1440  224.1540 C   0  0  0  0  0  0  0  0  0  0  0  0
  140.4450   79.6010  223.8370 C   0  0  0  0  0  0  0  0  0  0  0  0
  140.4710   80.8490  222.9900 C   0  0  0  0  0  0  0  0  0  0  0  0
  141.1100   80.6190  221.6540 C   0  0  0  0  0  0  0  0  0  0  0  0
  140.2350   71.5460  223.8390 C   0  0  0  0  0  0  0  0  0  0  0  0
  139.6380   70.3070  223.6050 C   0  0  0  0  0  0  0  0  0  0  0  0
  139.5080   69.3700  224.6090 C   0  0  0  0  0  0  0  0  0  0  0  0
  140.0010   69.7270  225.8500 C   0  0  0  0  0  0  0  0  0  0  0  0
  139.9000   68.8220  226.9080 C   0  0  0  0  0  0  0  0  0  0  0  0
  140.3740   69.1290  228.1640 C   0  0  0  0  0  0  0  0  0  0  0  0
  140.2490   68.2160  229.1540 F   0  0  0  0  0  0  0  0  0  0  0  0
  140.9600   70.3680  228.3520 C   0  0  0  0  0  0  0  0  0  0  0  0
  141.0770   71.2870  227.3360 C   0  0  0  0  0  0  0  0  0  0  0  0
  140.5970   70.9600  226.0870 C   0  0  0  0  0  0  0  0  0  0  0  0
  140.7070   71.8630  225.0670 N   0  0  0  0  0  0  0  0  0  0  0  0
  138.3360   73.3260  222.9010 H   0  0  0  0  0  0  0  0  0  0  0  0
  140.3120   73.7819  220.6111 H   0  0  0  0  0  0  0  0  0  0  0  0
  138.5752   74.1462  220.5083 H   0  0  0  0  0  0  0  0  0  0  0  0
  136.7652   76.3402  220.8955 H   0  0  0  0  0  0  0  0  0  0  0  0
  137.3110   75.3653  222.2801 H   0  0  0  0  0  0  0  0  0  0  0  0
  136.0080   77.3112  223.1458 H   0  0  0  0  0  0  0  0  0  0  0  0
  137.6883   77.5741  223.5938 H   0  0  0  0  0  0  0  0  0  0  0  0
  136.4000   78.5367  220.9702 H   0  0  0  0  0  0  0  0  0  0  0  0
  136.6256   79.5697  222.4140 H   0  0  0  0  0  0  0  0  0  0  0  0
  138.4566   79.8514  220.7602 H   0  0  0  0  0  0  0  0  0  0  0  0
  139.0368   79.1655  222.3481 H   0  0  0  0  0  0  0  0  0  0  0  0
  138.6230   77.8428  219.7287 H   0  0  0  0  0  0  0  0  0  0  0  0
  140.8994   76.9994  220.0960 H   0  0  0  0  0  0  0  0  0  0  0  0
  140.6374   78.8524  219.8777 H   0  0  0  0  0  0  0  0  0  0  0  0
  141.8110   77.4360  222.0910 H   0  0  0  0  0  0  0  0  0  0  0  0
  142.8514   79.5358  220.8677 H   0  0  0  0  0  0  0  0  0  0  0  0
  143.6423   78.7544  223.0613 H   0  0  0  0  0  0  0  0  0  0  0  0
  143.2092   80.4989  223.2328 H   0  0  0  0  0  0  0  0  0  0  0  0
  141.8493   78.0531  224.2955 H   0  0  0  0  0  0  0  0  0  0  0  0
  142.1808   79.6644  225.0664 H   0  0  0  0  0  0  0  0  0  0  0  0
  139.9205   78.8036  223.2902 H   0  0  0  0  0  0  0  0  0  0  0  0
  139.9228   79.8222  224.7795 H   0  0  0  0  0  0  0  0  0  0  0  0
  139.4374   81.1911  222.8331 H   0  0  0  0  0  0  0  0  0  0  0  0
  141.0687   81.6035  223.5224 H   0  0  0  0  0  0  0  0  0  0  0  0
  140.3240   80.3867  220.9203 H   0  0  0  0  0  0  0  0  0  0  0  0
  141.6563   81.5331  221.3784 H   0  0  0  0  0  0  0  0  0  0  0  0
  139.2628   70.0722  222.5980 H   0  0  0  0  0  0  0  0  0  0  0  0
  139.0375   68.3917  224.4316 H   0  0  0  0  0  0  0  0  0  0  0  0
  139.4314   67.8420  226.7346 H   0  0  0  0  0  0  0  0  0  0  0  0
  141.3458   70.6270  229.3491 H   0  0  0  0  0  0  0  0  0  0  0  0
  141.5454   72.2656  227.5173 H   0  0  0  0  0  0  0  0  0  0  0  0
  1  2  2  0
  2  3  1  0
  3  4  1  0
  4  5  1  0
  5  6  2  0
  5  7  1  0
  7  8  1  0
  8  9  1  0
  9 10  1  0
 10 11  1  0
 11 12  1  0
 12 13  1  0
 13 14  1  0
 14 15  1  0
 15 16  1  0
 16 17  1  0
 17 18  1  0
 18 19  1  0
 19 20  1  0
  2 21  1  0
 21 22  2  0
 22 23  1  0
 23 24  2  0
 24 25  1  0
 25 26  2  0
 26 27  1  0
 26 28  1  0
 28 29  2  0
 29 30  1  0
 30 31  2  0
 12  7  1  0
 20 15  1  0
 31 21  1  0
 30 24  1  0
  3 32  1  0
  4 33  1  0
  4 34  1  0
  8 35  1  0
  8 36  1  0
  9 37  1  0
  9 38  1  0
 10 39  1  0
 10 40  1  0
 11 41  1  0
 11 42  1  0
 12 43  1  6
 13 44  1  0
 13 45  1  0
 14 46  1  0
 15 47  1  0
 16 48  1  0
 16 49  1  0
 17 50  1  0
 17 51  1  0
 18 52  1  0
 18 53  1  0
 19 54  1  0
 19 55  1  0
 20 56  1  0
 20 57  1  0
 22 58  1  0
 23 59  1  0
 25 60  1  0
 28 61  1  0
 29 62  1  0
M  END
>  <smiles>  (20) 
O=C(NCC(=O)N1CCCC[C@H]1CNC1CCCCC1)c1ccc2cc(F)ccc2n1

>  <score_type>  (20) 
oracle

>  <origin>  (20) 
autodockgpu

>  <m_score__min__energy>  (20) 
-9.5700000000000003

>  <m_primary>  (20) 
energy

>  <rmsd>  (20) 
3.096315953983807

>  <m_score__min__rmsd>  (20) 
3.096315953983807

>  <meeko>  (20) 
{"free_energy": -8.93, "intermolecular_energy": -11.02, "internal_energy": -2.39, "cluster_size": 45, "cluster_id": 1, "rank_in_cluster": 15}

>  <energy>  (20) 
-8.87

>  <cluster_rmsd>  (20) 
0.68

>  <cluster>  (20) 
1

$$$$

     RDKit          3D

 62 65  0  0  0  0  0  0  0  0999 V2000
  138.3030   71.7260  222.1050 O   0  0  0  0  0  0  0  0  0  0  0  0
  139.3060   71.8460  222.8670 C   0  0  0  0  0  0  0  0  0  0  0  0
  140.1930   72.9320  222.5260 N   0  0  0  0  0  0  0  0  0  0  0  0
  139.8000   73.7140  221.3710 C   0  0  0  0  0  0  0  0  0  0  0  0
  139.9950   75.1730  221.7400 C   0  0  0  0  0  0  0  0  0  0  0  0
  141.0810   75.4140  222.3100 O   0  0  0  0  0  0  0  0  0  0  0  0
  138.9770   76.0920  221.4200 N   0  0  0  0  0  0  0  0  0  0  0  0
  137.6150   75.7110  221.8080 C   0  0  0  0  0  0  0  0  0  0  0  0
  137.0870   76.8130  222.7420 C   0  0  0  0  0  0  0  0  0  0  0  0
  136.9780   78.0250  221.8600 C   0  0  0  0  0  0  0  0  0  0  0  0
  138.3720   78.4440  221.4420 C   0  0  0  0  0  0  0  0  0  0  0  0
  139.1300   77.3590  220.7500 C   0  0  1  0  0  0  0  0  0  0  0  0
  140.5800   77.6400  220.5460 C   0  0  0  0  0  0  0  0  0  0  0  0
  141.3830   78.0470  221.6180 N   0  0  0  0  0  0  0  0  0  0  0  0
  142.0120   79.2940  221.6750 C   0  0  0  0  0  0  0  0  0  0  0  0
  142.7230   79.4160  223.0350 C   0  0  0  0  0  0  0  0  0  0  0  0
  141.7970   79.0410  224.1550 C   0  0  0  0  0  0  0  0  0  0  0  0
  140.3560   79.3890  223.8440 C   0  0  0  0  0  0  0  0  0  0  0  0
  140.2840   80.6090  222.9600 C   0  0  0  0  0  0  0  0  0  0  0  0
  140.9220   80.3840  221.6220 C   0  0  0  0  0  0  0  0  0  0  0  0
  139.5580   70.9680  223.9980 C   0  0  0  0  0  0  0  0  0  0  0  0
  139.1360   69.6470  223.8560 C   0  0  0  0  0  0  0  0  0  0  0  0
  139.3170   68.7210  224.8630 C   0  0  0  0  0  0  0  0  0  0  0  0
  139.9360   69.1770  226.0120 C   0  0  0  0  0  0  0  0  0  0  0  0
  140.1480   68.2880  227.0670 C   0  0  0  0  0  0  0  0  0  0  0  0
  140.7590   68.6920  228.2340 C   0  0  0  0  0  0  0  0  0  0  0  0
  140.9390   67.7900  229.2270 F   0  0  0  0  0  0  0  0  0  0  0  0
  141.1620   70.0110  228.3330 C   0  0  0  0  0  0  0  0  0  0  0  0
  140.9710   70.9160  227.3160 C   0  0  0  0  0  0  0  0  0  0  0  0
  140.3580   70.4920  226.1570 C   0  0  0  0  0  0  0  0  0  0  0  0
  140.1610   71.3800  225.1370 N   0  0  0  0  0  0  0  0  0  0  0  0
  141.0500   73.1140  223.0930 H   0  0  0  0  0  0  0  0  0  0  0  0
  140.4293   73.4549  220.5068 H   0  0  0  0  0  0  0  0  0  0  0  0
  138.7537   73.5134  221.0970 H   0  0  0  0  0  0  0  0  0  0  0  0
  136.9760   75.6340  220.9160 H   0  0  0  0  0  0  0  0  0  0  0  0
  137.6102   74.7337  222.3129 H   0  0  0  0  0  0  0  0  0  0  0  0
  136.1035   76.5390  223.1513 H   0  0  0  0  0  0  0  0  0  0  0  0
  137.7439   76.9808  223.6082 H   0  0  0  0  0  0  0  0  0  0  0  0
  136.3808   77.7824  220.9686 H   0  0  0  0  0  0  0  0  0  0  0  0
  136.4865   78.8442  222.4053 H   0  0  0  0  0  0  0  0  0  0  0  0
  138.2890   79.3026  220.7594 H   0  0  0  0  0  0  0  0  0  0  0  0
  138.9259   78.6965  222.3582 H   0  0  0  0  0  0  0  0  0  0  0  0
  138.6761   77.3136  219.7490 H   0  0  0  0  0  0  0  0  0  0  0  0
  141.0273   76.7162  220.1503 H   0  0  0  0  0  0  0  0  0  0  0  0
  140.5707   78.5259  219.8940 H   0  0  0  0  0  0  0  0  0  0  0  0
  141.8280   77.2820  222.1730 H   0  0  0  0  0  0  0  0  0  0  0  0
  142.7255   79.4030  220.8450 H   0  0  0  0  0  0  0  0  0  0  0  0
  143.5948   78.7454  223.0478 H   0  0  0  0  0  0  0  0  0  0  0  0
  143.0413   80.4597  223.1746 H   0  0  0  0  0  0  0  0  0  0  0  0
  141.8707   77.9572  224.3283 H   0  0  0  0  0  0  0  0  0  0  0  0
  142.0976   79.6093  225.0475 H   0  0  0  0  0  0  0  0  0  0  0  0
  139.8822   78.5405  223.3286 H   0  0  0  0  0  0  0  0  0  0  0  0
  139.8310   79.6024  224.7868 H   0  0  0  0  0  0  0  0  0  0  0  0
  139.2270   80.8728  222.8075 H   0  0  0  0  0  0  0  0  0  0  0  0
  140.8335   81.4193  223.4615 H   0  0  0  0  0  0  0  0  0  0  0  0
  140.1458   80.0750  220.9064 H   0  0  0  0  0  0  0  0  0  0  0  0
  141.3990   81.3253  221.3115 H   0  0  0  0  0  0  0  0  0  0  0  0
  138.6479   69.3359  222.9206 H   0  0  0  0  0  0  0  0  0  0  0  0
  138.9868   67.6771  224.7573 H   0  0  0  0  0  0  0  0  0  0  0  0
  139.8204   67.2429  226.9646 H   0  0  0  0  0  0  0  0  0  0  0  0
  141.6527   70.3480  229.2580 H   0  0  0  0  0  0  0  0  0  0  0  0
  141.3014   71.9595  227.4254 H   0  0  0  0  0  0  0  0  0  0  0  0
  1  2  2  0
  2  3  1  0
  3  4  1  0
  4  5  1  0
  5  6  2  0
  5  7  1  0
  7  8  1  0
  8  9  1  0
  9 10  1  0
 10 11  1  0
 11 12  1  0
 12 13  1  0
 13 14  1  0
 14 15  1  0
 15 16  1  0
 16 17  1  0
 17 18  1  0
 18 19  1  0
 19 20  1  0
  2 21  1  0
 21 22  2  0
 22 23  1  0
 23 24  2  0
 24 25  1  0
 25 26  2  0
 26 27  1  0
 26 28  1  0
 28 29  2  0
 29 30  1  0
 30 31  2  0
 12  7  1  0
 20 15  1  0
 31 21  1  0
 30 24  1  0
  3 32  1  0
  4 33  1  0
  4 34  1  0
  8 35  1  0
  8 36  1  0
  9 37  1  0
  9 38  1  0
 10 39  1  0
 10 40  1  0
 11 41  1  0
 11 42  1  0
 12 43  1  6
 13 44  1  0
 13 45  1  0
 14 46  1  0
 15 47  1  0
 16 48  1  0
 16 49  1  0
 17 50  1  0
 17 51  1  0
 18 52  1  0
 18 53  1  0
 19 54  1  0
 19 55  1  0
 20 56  1  0
 20 57  1  0
 22 58  1  0
 23 59  1  0
 25 60  1  0
 28 61  1  0
 29 62  1  0
M  END
>  <smiles>  (21) 
O=C(NCC(=O)N1CCCC[C@H]1CNC1CCCCC1)c1ccc2cc(F)ccc2n1

>  <score_type>  (21) 
oracle

>  <origin>  (21) 
autodockgpu

>  <m_score__min__energy>  (21) 
-9.5700000000000003

>  <m_primary>  (21) 
energy

>  <rmsd>  (21) 
3.027185138591892

>  <m_score__min__rmsd>  (21) 
3.027185138591892

>  <meeko>  (21) 
{"free_energy": -8.28, "intermolecular_energy": -10.37, "internal_energy": -2.86, "cluster_size": 45, "cluster_id": 1, "rank_in_cluster": 38}

>  <energy>  (21) 
-8.75

>  <cluster_rmsd>  (21) 
0.98

>  <cluster>  (21) 
1

$$$$

     RDKit          3D

 62 65  0  0  0  0  0  0  0  0999 V2000
  135.6560   68.8830  224.6440 O   0  0  0  0  0  0  0  0  0  0  0  0
  136.0500   70.0830  224.7230 C   0  0  0  0  0  0  0  0  0  0  0  0
  137.4320   70.2880  224.3630 N   0  0  0  0  0  0  0  0  0  0  0  0
  138.1520   69.0950  223.9650 C   0  0  0  0  0  0  0  0  0  0  0  0
  139.0760   68.7360  225.1120 C   0  0  0  0  0  0  0  0  0  0  0  0
  139.3910   67.5270  225.1550 O   0  0  0  0  0  0  0  0  0  0  0  0
  139.4850   69.7550  225.9940 N   0  0  0  0  0  0  0  0  0  0  0  0
  139.2760   69.4980  227.4230 C   0  0  0  0  0  0  0  0  0  0  0  0
  140.6520   69.5840  228.1040 C   0  0  0  0  0  0  0  0  0  0  0  0
  141.0450   71.0270  227.9630 C   0  0  0  0  0  0  0  0  0  0  0  0
  141.2700   71.3250  226.4950 C   0  0  0  0  0  0  0  0  0  0  0  0
  140.0800   71.0200  225.6440 C   0  0  1  0  0  0  0  0  0  0  0  0
  140.3350   71.0570  224.1750 C   0  0  0  0  0  0  0  0  0  0  0  0
  139.6170   71.9320  223.3510 N   0  0  0  0  0  0  0  0  0  0  0  0
  140.0270   72.2820  222.0620 C   0  0  0  0  0  0  0  0  0  0  0  0
  139.3430   73.6060  221.6780 C   0  0  0  0  0  0  0  0  0  0  0  0
  137.8700   73.5430  221.9550 C   0  0  0  0  0  0  0  0  0  0  0  0
  137.3150   72.1450  221.7790 C   0  0  0  0  0  0  0  0  0  0  0  0
  138.0830   71.4000  220.7160 C   0  0  0  0  0  0  0  0  0  0  0  0
  139.5220   71.1990  221.0860 C   0  0  0  0  0  0  0  0  0  0  0  0
  135.1900   71.1770  225.1440 C   0  0  0  0  0  0  0  0  0  0  0  0
  135.4560   72.4220  224.5740 C   0  0  0  0  0  0  0  0  0  0  0  0
  134.7110   73.5360  224.8980 C   0  0  0  0  0  0  0  0  0  0  0  0
  133.6910   73.3480  225.8120 C   0  0  0  0  0  0  0  0  0  0  0  0
  132.9000   74.4380  226.1810 C   0  0  0  0  0  0  0  0  0  0  0  0
  131.8720   74.3050  227.0880 C   0  0  0  0  0  0  0  0  0  0  0  0
  131.1370   75.3930  227.4120 F   0  0  0  0  0  0  0  0  0  0  0  0
  131.6410   73.0520  227.6290 C   0  0  0  0  0  0  0  0  0  0  0  0
  132.3990   71.9560  227.2910 C   0  0  0  0  0  0  0  0  0  0  0  0
  133.4220   72.1110  226.3820 C   0  0  0  0  0  0  0  0  0  0  0  0
  134.1830   71.0290  226.0360 N   0  0  0  0  0  0  0  0  0  0  0  0
  137.8520   71.2420  224.3970 H   0  0  0  0  0  0  0  0  0  0  0  0
  137.4464   68.2726  223.7759 H   0  0  0  0  0  0  0  0  0  0  0  0
  138.7213   69.2685  223.0399 H   0  0  0  0  0  0  0  0  0  0  0  0
  138.5974   70.2529  227.8468 H   0  0  0  0  0  0  0  0  0  0  0  0
  138.8224   68.5083  227.5805 H   0  0  0  0  0  0  0  0  0  0  0  0
  140.5804   69.3013  229.1646 H   0  0  0  0  0  0  0  0  0  0  0  0
  141.3878   68.9016  227.6536 H   0  0  0  0  0  0  0  0  0  0  0  0
  140.2419   71.6697  228.3528 H   0  0  0  0  0  0  0  0  0  0  0  0
  141.9658   71.2232  228.5319 H   0  0  0  0  0  0  0  0  0  0  0  0
  141.5121   72.3927  226.3880 H   0  0  0  0  0  0  0  0  0  0  0  0
  142.0917   70.6790  226.1522 H   0  0  0  0  0  0  0  0  0  0  0  0
  139.3797   71.8397  225.8621 H   0  0  0  0  0  0  0  0  0  0  0  0
  141.3990   71.3044  224.0460 H   0  0  0  0  0  0  0  0  0  0  0  0
  139.9946   70.0662  223.8398 H   0  0  0  0  0  0  0  0  0  0  0  0
  139.0010   72.6200  223.8400 H   0  0  0  0  0  0  0  0  0  0  0  0
  141.1221   72.3767  222.0204 H   0  0  0  0  0  0  0  0  0  0  0  0
  139.7858   74.4244  222.2646 H   0  0  0  0  0  0  0  0  0  0  0  0
  139.4929   73.7820  220.6026 H   0  0  0  0  0  0  0  0  0  0  0  0
  137.6898   73.8681  222.9903 H   0  0  0  0  0  0  0  0  0  0  0  0
  137.3621   74.2015  221.2350 H   0  0  0  0  0  0  0  0  0  0  0  0
  137.3958   71.6012  222.7317 H   0  0  0  0  0  0  0  0  0  0  0  0
  136.2615   72.2174  221.4710 H   0  0  0  0  0  0  0  0  0  0  0  0
  137.6156   70.4154  220.5671 H   0  0  0  0  0  0  0  0  0  0  0  0
  138.0541   72.0030  219.7964 H   0  0  0  0  0  0  0  0  0  0  0  0
  139.6315   70.2135  221.5622 H   0  0  0  0  0  0  0  0  0  0  0  0
  140.1210   71.2664  220.1658 H   0  0  0  0  0  0  0  0  0  0  0  0
  136.2785   72.5172  223.8498 H   0  0  0  0  0  0  0  0  0  0  0  0
  134.9170   74.5208  224.4534 H   0  0  0  0  0  0  0  0  0  0  0  0
  133.1023   75.4242  225.7377 H   0  0  0  0  0  0  0  0  0  0  0  0
  130.8230   72.9290  228.3541 H   0  0  0  0  0  0  0  0  0  0  0  0
  132.1921   70.9727  227.7386 H   0  0  0  0  0  0  0  0  0  0  0  0
  1  2  2  0
  2  3  1  0
  3  4  1  0
  4  5  1  0
  5  6  2  0
  5  7  1  0
  7  8  1  0
  8  9  1  0
  9 10  1  0
 10 11  1  0
 11 12  1  0
 12 13  1  0
 13 14  1  0
 14 15  1  0
 15 16  1  0
 16 17  1  0
 17 18  1  0
 18 19  1  0
 19 20  1  0
  2 21  1  0
 21 22  2  0
 22 23  1  0
 23 24  2  0
 24 25  1  0
 25 26  2  0
 26 27  1  0
 26 28  1  0
 28 29  2  0
 29 30  1  0
 30 31  2  0
 12  7  1  0
 20 15  1  0
 31 21  1  0
 30 24  1  0
  3 32  1  0
  4 33  1  0
  4 34  1  0
  8 35  1  0
  8 36  1  0
  9 37  1  0
  9 38  1  0
 10 39  1  0
 10 40  1  0
 11 41  1  0
 11 42  1  0
 12 43  1  6
 13 44  1  0
 13 45  1  0
 14 46  1  0
 15 47  1  0
 16 48  1  0
 16 49  1  0
 17 50  1  0
 17 51  1  0
 18 52  1  0
 18 53  1  0
 19 54  1  0
 19 55  1  0
 20 56  1  0
 20 57  1  0
 22 58  1  0
 23 59  1  0
 25 60  1  0
 28 61  1  0
 29 62  1  0
M  END
>  <smiles>  (22) 
O=C(NCC(=O)N1CCCC[C@H]1CNC1CCCCC1)c1ccc2cc(F)ccc2n1

>  <score_type>  (22) 
oracle

>  <origin>  (22) 
autodockgpu

>  <m_score__min__energy>  (22) 
-9.5700000000000003

>  <m_primary>  (22) 
energy

>  <rmsd>  (22) 
8.674270324538695

>  <m_score__min__rmsd>  (22) 
8.674270324538695

>  <meeko>  (22) 
{"free_energy": -7.58, "intermolecular_energy": -9.66, "internal_energy": -2.74, "cluster_size": 2, "cluster_id": 4, "rank_in_cluster": 1}

>  <energy>  (22) 
-8.73

>  <cluster_rmsd>  (22) 
0.76

>  <cluster>  (22) 
1

$$$$

     RDKit          3D

 62 65  0  0  0  0  0  0  0  0999 V2000
  139.1540   71.6760  221.0730 O   0  0  0  0  0  0  0  0  0  0  0  0
  139.4280   72.1810  222.2010 C   0  0  0  0  0  0  0  0  0  0  0  0
  139.5410   73.6190  222.2050 N   0  0  0  0  0  0  0  0  0  0  0  0
  139.3250   74.2620  220.9240 C   0  0  0  0  0  0  0  0  0  0  0  0
  140.4780   73.8540  220.0260 C   0  0  0  0  0  0  0  0  0  0  0  0
  140.1300   73.4820  218.8850 O   0  0  0  0  0  0  0  0  0  0  0  0
  141.7890   73.9300  220.5360 N   0  0  0  0  0  0  0  0  0  0  0  0
  142.3860   72.6660  220.9780 C   0  0  0  0  0  0  0  0  0  0  0  0
  143.6710   72.4610  220.1570 C   0  0  0  0  0  0  0  0  0  0  0  0
  144.5800   73.5680  220.6130 C   0  0  0  0  0  0  0  0  0  0  0  0
  143.9900   74.8910  220.1690 C   0  0  0  0  0  0  0  0  0  0  0  0
  142.6010   75.1130  220.6730 C   0  0  1  0  0  0  0  0  0  0  0  0
  141.8920   76.2740  220.0620 C   0  0  0  0  0  0  0  0  0  0  0  0
  141.8640   77.5130  220.7120 N   0  0  0  0  0  0  0  0  0  0  0  0
  140.6900   78.1050  221.1860 C   0  0  0  0  0  0  0  0  0  0  0  0
  140.7990   79.6270  220.9850 C   0  0  0  0  0  0  0  0  0  0  0  0
  142.1080   80.1400  221.5080 C   0  0  0  0  0  0  0  0  0  0  0  0
  142.6010   79.3390  222.6960 C   0  0  0  0  0  0  0  0  0  0  0  0
  141.4380   78.8030  223.4920 C   0  0  0  0  0  0  0  0  0  0  0  0
  140.5990   77.8430  222.7040 C   0  0  0  0  0  0  0  0  0  0  0  0
  139.6160   71.3870  223.4050 C   0  0  0  0  0  0  0  0  0  0  0  0
  139.1580   70.0710  223.3500 C   0  0  0  0  0  0  0  0  0  0  0  0
  139.2770   69.2220  224.4310 C   0  0  0  0  0  0  0  0  0  0  0  0
  139.8740   69.7480  225.5620 C   0  0  0  0  0  0  0  0  0  0  0  0
  140.0230   68.9390  226.6890 C   0  0  0  0  0  0  0  0  0  0  0  0
  140.6090   69.4150  227.8410 C   0  0  0  0  0  0  0  0  0  0  0  0
  140.7290   68.5890  228.9070 F   0  0  0  0  0  0  0  0  0  0  0  0
  141.0510   70.7260  227.8520 C   0  0  0  0  0  0  0  0  0  0  0  0
  140.9200   71.5530  226.7630 C   0  0  0  0  0  0  0  0  0  0  0  0
  140.3310   71.0580  225.6200 C   0  0  0  0  0  0  0  0  0  0  0  0
  140.1950   71.8690  224.5280 N   0  0  0  0  0  0  0  0  0  0  0  0
  139.7650   74.1310  223.0860 H   0  0  0  0  0  0  0  0  0  0  0  0
  138.3709   73.9287  220.4896 H   0  0  0  0  0  0  0  0  0  0  0  0
  139.2802   75.3555  221.0349 H   0  0  0  0  0  0  0  0  0  0  0  0
  142.6273   72.7172  222.0500 H   0  0  0  0  0  0  0  0  0  0  0  0
  141.6877   71.8295  220.8276 H   0  0  0  0  0  0  0  0  0  0  0  0
  144.1167   71.4779  220.3688 H   0  0  0  0  0  0  0  0  0  0  0  0
  143.4870   72.4863  219.0728 H   0  0  0  0  0  0  0  0  0  0  0  0
  144.6654   73.5496  221.7095 H   0  0  0  0  0  0  0  0  0  0  0  0
  145.5808   73.4369  220.1757 H   0  0  0  0  0  0  0  0  0  0  0  0
  144.6315   75.7030  220.5420 H   0  0  0  0  0  0  0  0  0  0  0  0
  143.9413   74.8757  219.0702 H   0  0  0  0  0  0  0  0  0  0  0  0
  142.7390   75.3541  221.7373 H   0  0  0  0  0  0  0  0  0  0  0  0
  142.3558   76.4445  219.0792 H   0  0  0  0  0  0  0  0  0  0  0  0
  140.8382   75.9595  220.0851 H   0  0  0  0  0  0  0  0  0  0  0  0
  142.6500   78.1650  220.4880 H   0  0  0  0  0  0  0  0  0  0  0  0
  139.8148   77.6986  220.6579 H   0  0  0  0  0  0  0  0  0  0  0  0
  140.7249   79.8554  219.9115 H   0  0  0  0  0  0  0  0  0  0  0  0
  139.9825   80.1154  221.5371 H   0  0  0  0  0  0  0  0  0  0  0  0
  142.8579   80.0818  220.7053 H   0  0  0  0  0  0  0  0  0  0  0  0
  141.9569   81.1781  221.8389 H   0  0  0  0  0  0  0  0  0  0  0  0
  143.2119   78.4977  222.3367 H   0  0  0  0  0  0  0  0  0  0  0  0
  143.2017   79.9955  223.3426 H   0  0  0  0  0  0  0  0  0  0  0  0
  141.8274   78.2845  224.3806 H   0  0  0  0  0  0  0  0  0  0  0  0
  140.8005   79.6555  223.7692 H   0  0  0  0  0  0  0  0  0  0  0  0
  140.9445   76.8189  222.9087 H   0  0  0  0  0  0  0  0  0  0  0  0
  139.5510   77.9786  223.0094 H   0  0  0  0  0  0  0  0  0  0  0  0
  138.6917   69.7018  222.4247 H   0  0  0  0  0  0  0  0  0  0  0  0
  138.9166   68.1833  224.3951 H   0  0  0  0  0  0  0  0  0  0  0  0
  139.6650   67.8994  226.6568 H   0  0  0  0  0  0  0  0  0  0  0  0
  141.5235   71.1196  228.7641 H   0  0  0  0  0  0  0  0  0  0  0  0
  141.2790   72.5920  226.8028 H   0  0  0  0  0  0  0  0  0  0  0  0
  1  2  2  0
  2  3  1  0
  3  4  1  0
  4  5  1  0
  5  6  2  0
  5  7  1  0
  7  8  1  0
  8  9  1  0
  9 10  1  0
 10 11  1  0
 11 12  1  0
 12 13  1  0
 13 14  1  0
 14 15  1  0
 15 16  1  0
 16 17  1  0
 17 18  1  0
 18 19  1  0
 19 20  1  0
  2 21  1  0
 21 22  2  0
 22 23  1  0
 23 24  2  0
 24 25  1  0
 25 26  2  0
 26 27  1  0
 26 28  1  0
 28 29  2  0
 29 30  1  0
 30 31  2  0
 12  7  1  0
 20 15  1  0
 31 21  1  0
 30 24  1  0
  3 32  1  0
  4 33  1  0
  4 34  1  0
  8 35  1  0
  8 36  1  0
  9 37  1  0
  9 38  1  0
 10 39  1  0
 10 40  1  0
 11 41  1  0
 11 42  1  0
 12 43  1  1
 13 44  1  0
 13 45  1  0
 14 46  1  0
 15 47  1  0
 16 48  1  0
 16 49  1  0
 17 50  1  0
 17 51  1  0
 18 52  1  0
 18 53  1  0
 19 54  1  0
 19 55  1  0
 20 56  1  0
 20 57  1  0
 22 58  1  0
 23 59  1  0
 25 60  1  0
 28 61  1  0
 29 62  1  0
M  END
>  <smiles>  (23) 
O=C(NCC(=O)N1CCCC[C@H]1CNC1CCCCC1)c1ccc2cc(F)ccc2n1

>  <score_type>  (23) 
oracle

>  <origin>  (23) 
autodockgpu

>  <m_score__min__energy>  (23) 
-9.5700000000000003

>  <m_primary>  (23) 
energy

>  <rmsd>  (23) 
2.950490589258532

>  <m_score__min__rmsd>  (23) 
2.950490589258532

>  <meeko>  (23) 
{"free_energy": -8.34, "intermolecular_energy": -10.43, "internal_energy": -1.9, "cluster_size": 45, "cluster_id": 1, "rank_in_cluster": 34}

>  <energy>  (23) 
-8.72

>  <cluster_rmsd>  (23) 
0.81

>  <cluster>  (23) 
1

$$$$

     RDKit          3D

 62 65  0  0  0  0  0  0  0  0999 V2000
  141.0350   71.9900  221.4120 O   0  0  0  0  0  0  0  0  0  0  0  0
  140.3760   72.3470  222.4310 C   0  0  0  0  0  0  0  0  0  0  0  0
  139.7620   73.6490  222.3250 N   0  0  0  0  0  0  0  0  0  0  0  0
  139.9930   74.3430  221.0740 C   0  0  0  0  0  0  0  0  0  0  0  0
  141.0400   75.4050  221.3460 C   0  0  0  0  0  0  0  0  0  0  0  0
  140.8070   76.1050  222.3550 O   0  0  0  0  0  0  0  0  0  0  0  0
  142.1410   75.5060  220.4740 N   0  0  0  0  0  0  0  0  0  0  0  0
  142.8240   74.2510  220.1440 C   0  0  0  0  0  0  0  0  0  0  0  0
  142.7640   74.0920  218.6150 C   0  0  0  0  0  0  0  0  0  0  0  0
  143.6160   75.2150  218.0930 C   0  0  0  0  0  0  0  0  0  0  0  0
  142.9360   76.5290  218.4180 C   0  0  0  0  0  0  0  0  0  0  0  0
  142.6700   76.7080  219.8770 C   0  0  1  0  0  0  0  0  0  0  0  0
  141.7850   77.8590  220.2160 C   0  0  0  0  0  0  0  0  0  0  0  0
  141.8580   78.4660  221.4750 N   0  0  0  0  0  0  0  0  0  0  0  0
  142.1550   79.8190  221.6580 C   0  0  0  0  0  0  0  0  0  0  0  0
  142.6920   80.0080  223.0880 C   0  0  0  0  0  0  0  0  0  0  0  0
  141.7900   79.3440  224.0870 C   0  0  0  0  0  0  0  0  0  0  0  0
  140.3410   79.3600  223.6460 C   0  0  0  0  0  0  0  0  0  0  0  0
  140.0520   80.5890  222.8200 C   0  0  0  0  0  0  0  0  0  0  0  0
  140.8410   80.6200  221.5460 C   0  0  0  0  0  0  0  0  0  0  0  0
  140.2390   71.5230  223.6210 C   0  0  0  0  0  0  0  0  0  0  0  0
  139.5810   70.3050  223.4520 C   0  0  0  0  0  0  0  0  0  0  0  0
  139.3870   69.4390  224.5090 C   0  0  0  0  0  0  0  0  0  0  0  0
  139.8810   69.8460  225.7340 C   0  0  0  0  0  0  0  0  0  0  0  0
  139.7170   69.0130  226.8430 C   0  0  0  0  0  0  0  0  0  0  0  0
  140.1890   69.3710  228.0860 C   0  0  0  0  0  0  0  0  0  0  0  0
  140.0010   68.5280  229.1270 F   0  0  0  0  0  0  0  0  0  0  0  0
  140.8370   70.5870  228.2090 C   0  0  0  0  0  0  0  0  0  0  0  0
  141.0170   71.4340  227.1410 C   0  0  0  0  0  0  0  0  0  0  0  0
  140.5370   71.0570  225.9060 C   0  0  0  0  0  0  0  0  0  0  0  0
  140.7100   71.8890  224.8360 N   0  0  0  0  0  0  0  0  0  0  0  0
  139.1970   74.0350  223.1130 H   0  0  0  0  0  0  0  0  0  0  0  0
  140.3581   73.6383  220.3124 H   0  0  0  0  0  0  0  0  0  0  0  0
  139.0634   74.7942  220.6968 H   0  0  0  0  0  0  0  0  0  0  0  0
  143.8712   74.2921  220.4783 H   0  0  0  0  0  0  0  0  0  0  0  0
  142.3416   73.3991  220.6455 H   0  0  0  0  0  0  0  0  0  0  0  0
  143.1720   73.1177  218.3079 H   0  0  0  0  0  0  0  0  0  0  0  0
  141.7350   74.1292  218.2279 H   0  0  0  0  0  0  0  0  0  0  0  0
  144.6062   75.1820  218.5710 H   0  0  0  0  0  0  0  0  0  0  0  0
  143.7422   75.1163  217.0047 H   0  0  0  0  0  0  0  0  0  0  0  0
  143.5824   77.3511  218.0769 H   0  0  0  0  0  0  0  0  0  0  0  0
  141.9627   76.5293  217.9055 H   0  0  0  0  0  0  0  0  0  0  0  0
  143.6588   76.9369  220.3011 H   0  0  0  0  0  0  0  0  0  0  0  0
  141.9929   78.6449  219.4750 H   0  0  0  0  0  0  0  0  0  0  0  0
  140.7822   77.4070  220.2178 H   0  0  0  0  0  0  0  0  0  0  0  0
  142.0820   77.8340  222.2760 H   0  0  0  0  0  0  0  0  0  0  0  0
  142.8904   80.1546  220.9120 H   0  0  0  0  0  0  0  0  0  0  0  0
  143.6962   79.5645  223.1579 H   0  0  0  0  0  0  0  0  0  0  0  0
  142.7331   81.0845  223.3103 H   0  0  0  0  0  0  0  0  0  0  0  0
  142.1103   78.2994  224.2147 H   0  0  0  0  0  0  0  0  0  0  0  0
  141.8624   79.9022  225.0321 H   0  0  0  0  0  0  0  0  0  0  0  0
  140.1364   78.4628  223.0433 H   0  0  0  0  0  0  0  0  0  0  0  0
  139.6983   79.3729  224.5386 H   0  0  0  0  0  0  0  0  0  0  0  0
  138.9804   80.6041  222.5723 H   0  0  0  0  0  0  0  0  0  0  0  0
  140.3408   81.4682  223.4147 H   0  0  0  0  0  0  0  0  0  0  0  0
  140.2299   80.1883  220.7397 H   0  0  0  0  0  0  0  0  0  0  0  0
  141.0998   81.6677  221.3330 H   0  0  0  0  0  0  0  0  0  0  0  0
  139.2085   70.0285  222.4546 H   0  0  0  0  0  0  0  0  0  0  0  0
  138.8676   68.4775  224.3834 H   0  0  0  0  0  0  0  0  0  0  0  0
  139.1995   68.0500  226.7208 H   0  0  0  0  0  0  0  0  0  0  0  0
  141.2215   70.8866  229.1951 H   0  0  0  0  0  0  0  0  0  0  0  0
  141.5351   72.3957  227.2704 H   0  0  0  0  0  0  0  0  0  0  0  0
  1  2  2  0
  2  3  1  0
  3  4  1  0
  4  5  1  0
  5  6  2  0
  5  7  1  0
  7  8  1  0
  8  9  1  0
  9 10  1  0
 10 11  1  0
 11 12  1  0
 12 13  1  0
 13 14  1  0
 14 15  1  0
 15 16  1  0
 16 17  1  0
 17 18  1  0
 18 19  1  0
 19 20  1  0
  2 21  1  0
 21 22  2  0
 22 23  1  0
 23 24  2  0
 24 25  1  0
 25 26  2  0
 26 27  1  0
 26 28  1  0
 28 29  2  0
 29 30  1  0
 30 31  2  0
 12  7  1  0
 20 15  1  0
 31 21  1  0
 30 24  1  0
  3 32  1  0
  4 33  1  0
  4 34  1  0
  8 35  1  0
  8 36  1  0
  9 37  1  0
  9 38  1  0
 10 39  1  0
 10 40  1  0
 11 41  1  0
 11 42  1  0
 12 43  1  1
 13 44  1  0
 13 45  1  0
 14 46  1  0
 15 47  1  0
 16 48  1  0
 16 49  1  0
 17 50  1  0
 17 51  1  0
 18 52  1  0
 18 53  1  0
 19 54  1  0
 19 55  1  0
 20 56  1  0
 20 57  1  0
 22 58  1  0
 23 59  1  0
 25 60  1  0
 28 61  1  0
 29 62  1  0
M  END
>  <smiles>  (24) 
O=C(NCC(=O)N1CCCC[C@H]1CNC1CCCCC1)c1ccc2cc(F)ccc2n1

>  <score_type>  (24) 
oracle

>  <origin>  (24) 
autodockgpu

>  <m_score__min__energy>  (24) 
-9.5700000000000003

>  <m_primary>  (24) 
energy

>  <rmsd>  (24) 
2.5828274262899753

>  <m_score__min__rmsd>  (24) 
2.5828274262899753

>  <meeko>  (24) 
{"free_energy": -9.41, "intermolecular_energy": -11.5, "internal_energy": -2.42, "cluster_size": 45, "cluster_id": 1, "rank_in_cluster": 4}

>  <energy>  (24) 
-8.64

>  <cluster_rmsd>  (24) 
1.31

>  <cluster>  (24) 
1

$$$$

     RDKit          3D

 62 65  0  0  0  0  0  0  0  0999 V2000
  140.6660   71.3310  221.2650 O   0  0  0  0  0  0  0  0  0  0  0  0
  140.2870   71.8630  222.3490 C   0  0  0  0  0  0  0  0  0  0  0  0
  139.9800   73.2700  222.2540 N   0  0  0  0  0  0  0  0  0  0  0  0
  140.1500   73.8530  220.9380 C   0  0  0  0  0  0  0  0  0  0  0  0
  140.6940   75.2540  221.1440 C   0  0  0  0  0  0  0  0  0  0  0  0
  140.8570   75.5670  222.3430 O   0  0  0  0  0  0  0  0  0  0  0  0
  140.9600   76.0480  220.0120 N   0  0  0  0  0  0  0  0  0  0  0  0
  139.8530   76.8810  219.5300 C   0  0  0  0  0  0  0  0  0  0  0  0
  140.3370   78.3410  219.5630 C   0  0  0  0  0  0  0  0  0  0  0  0
  141.4210   78.3930  218.5240 C   0  0  0  0  0  0  0  0  0  0  0  0
  142.5830   77.5420  218.9940 C   0  0  0  0  0  0  0  0  0  0  0  0
  142.1980   76.1270  219.2770 C   0  0  1  0  0  0  0  0  0  0  0  0
  143.2400   75.3220  219.9750 C   0  0  0  0  0  0  0  0  0  0  0  0
  143.2940   73.9320  219.8120 N   0  0  0  0  0  0  0  0  0  0  0  0
  143.6430   73.0530  220.8400 C   0  0  0  0  0  0  0  0  0  0  0  0
  145.1120   73.3110  221.2210 C   0  0  0  0  0  0  0  0  0  0  0  0
  145.9800   73.3450  219.9970 C   0  0  0  0  0  0  0  0  0  0  0  0
  145.4680   72.4250  218.9080 C   0  0  0  0  0  0  0  0  0  0  0  0
  144.7710   71.2300  219.5090 C   0  0  0  0  0  0  0  0  0  0  0  0
  143.5520   71.6130  220.2930 C   0  0  0  0  0  0  0  0  0  0  0  0
  140.1680   71.1290  223.5990 C   0  0  0  0  0  0  0  0  0  0  0  0
  139.5000   69.9070  223.5310 C   0  0  0  0  0  0  0  0  0  0  0  0
  139.3210   69.1210  224.6510 C   0  0  0  0  0  0  0  0  0  0  0  0
  139.8390   69.6130  225.8350 C   0  0  0  0  0  0  0  0  0  0  0  0
  139.6900   68.8650  227.0040 C   0  0  0  0  0  0  0  0  0  0  0  0
  140.1870   69.3100  228.2090 C   0  0  0  0  0  0  0  0  0  0  0  0
  140.0140   68.5460  229.3130 F   0  0  0  0  0  0  0  0  0  0  0  0
  140.8440   70.5270  228.2310 C   0  0  0  0  0  0  0  0  0  0  0  0
  141.0100   71.2920  227.1020 C   0  0  0  0  0  0  0  0  0  0  0  0
  140.5050   70.8290  225.9060 C   0  0  0  0  0  0  0  0  0  0  0  0
  140.6630   71.5800  224.7750 N   0  0  0  0  0  0  0  0  0  0  0  0
  139.6610   73.8010  223.0930 H   0  0  0  0  0  0  0  0  0  0  0  0
  140.8597   73.2546  220.3479 H   0  0  0  0  0  0  0  0  0  0  0  0
  139.1955   73.8775  220.3918 H   0  0  0  0  0  0  0  0  0  0  0  0
  139.5858   76.5953  218.5019 H   0  0  0  0  0  0  0  0  0  0  0  0
  138.9614   76.7500  220.1607 H   0  0  0  0  0  0  0  0  0  0  0  0
  139.5181   79.0295  219.3073 H   0  0  0  0  0  0  0  0  0  0  0  0
  140.6925   78.6448  220.5586 H   0  0  0  0  0  0  0  0  0  0  0  0
  141.0383   78.0027  217.5694 H   0  0  0  0  0  0  0  0  0  0  0  0
  141.7514   79.4319  218.3776 H   0  0  0  0  0  0  0  0  0  0  0  0
  143.3569   77.5443  218.2123 H   0  0  0  0  0  0  0  0  0  0  0  0
  142.9471   77.9769  219.9365 H   0  0  0  0  0  0  0  0  0  0  0  0
  142.0735   75.6810  218.2792 H   0  0  0  0  0  0  0  0  0  0  0  0
  144.2136   75.7154  219.6475 H   0  0  0  0  0  0  0  0  0  0  0  0
  142.9703   75.4357  221.0353 H   0  0  0  0  0  0  0  0  0  0  0  0
  143.4610   73.5920  218.8390 H   0  0  0  0  0  0  0  0  0  0  0  0
  142.9797   73.1931  221.7062 H   0  0  0  0  0  0  0  0  0  0  0  0
  145.1854   74.2767  221.7425 H   0  0  0  0  0  0  0  0  0  0  0  0
  145.4557   72.4964  221.8754 H   0  0  0  0  0  0  0  0  0  0  0  0
  146.0053   74.3739  219.6089 H   0  0  0  0  0  0  0  0  0  0  0  0
  146.9845   73.0016  220.2852 H   0  0  0  0  0  0  0  0  0  0  0  0
  144.7587   72.9759  218.2728 H   0  0  0  0  0  0  0  0  0  0  0  0
  146.3213   72.0744  218.3088 H   0  0  0  0  0  0  0  0  0  0  0  0
  144.4699   70.5516  218.6971 H   0  0  0  0  0  0  0  0  0  0  0  0
  145.4751   70.7442  220.2005 H   0  0  0  0  0  0  0  0  0  0  0  0
  142.6710   71.5370  219.6387 H   0  0  0  0  0  0  0  0  0  0  0  0
  143.4719   70.9290  221.1508 H   0  0  0  0  0  0  0  0  0  0  0  0
  139.1070   69.5619  222.5633 H   0  0  0  0  0  0  0  0  0  0  0  0
  138.7951   68.1560  224.6045 H   0  0  0  0  0  0  0  0  0  0  0  0
  139.1645   67.8996  226.9620 H   0  0  0  0  0  0  0  0  0  0  0  0
  141.2476   70.8951  229.1857 H   0  0  0  0  0  0  0  0  0  0  0  0
  141.5364   72.2566  227.1516 H   0  0  0  0  0  0  0  0  0  0  0  0
  1  2  2  0
  2  3  1  0
  3  4  1  0
  4  5  1  0
  5  6  2  0
  5  7  1  0
  7  8  1  0
  8  9  1  0
  9 10  1  0
 10 11  1  0
 11 12  1  0
 12 13  1  0
 13 14  1  0
 14 15  1  0
 15 16  1  0
 16 17  1  0
 17 18  1  0
 18 19  1  0
 19 20  1  0
  2 21  1  0
 21 22  2  0
 22 23  1  0
 23 24  2  0
 24 25  1  0
 25 26  2  0
 26 27  1  0
 26 28  1  0
 28 29  2  0
 29 30  1  0
 30 31  2  0
 12  7  1  0
 20 15  1  0
 31 21  1  0
 30 24  1  0
  3 32  1  0
  4 33  1  0
  4 34  1  0
  8 35  1  0
  8 36  1  0
  9 37  1  0
  9 38  1  0
 10 39  1  0
 10 40  1  0
 11 41  1  0
 11 42  1  0
 12 43  1  6
 13 44  1  0
 13 45  1  0
 14 46  1  0
 15 47  1  0
 16 48  1  0
 16 49  1  0
 17 50  1  0
 17 51  1  0
 18 52  1  0
 18 53  1  0
 19 54  1  0
 19 55  1  0
 20 56  1  0
 20 57  1  0
 22 58  1  0
 23 59  1  0
 25 60  1  0
 28 61  1  0
 29 62  1  0
M  END
>  <smiles>  (25) 
O=C(NCC(=O)N1CCCC[C@H]1CNC1CCCCC1)c1ccc2cc(F)ccc2n1

>  <score_type>  (25) 
oracle

>  <origin>  (25) 
autodockgpu

>  <m_score__min__energy>  (25) 
-9.5700000000000003

>  <m_primary>  (25) 
energy

>  <rmsd>  (25) 
4.770595674080257

>  <m_score__min__rmsd>  (25) 
4.770595674080257

>  <meeko>  (25) 
{"free_energy": -7.87, "intermolecular_energy": -9.96, "internal_energy": -2.5, "cluster_size": 1, "cluster_id": 3, "rank_in_cluster": 1}

>  <energy>  (25) 
-8.62

>  <cluster_rmsd>  (25) 
1.36

>  <cluster>  (25) 
1

$$$$

     RDKit          3D

 62 65  0  0  0  0  0  0  0  0999 V2000
  139.7910   71.6020  221.1500 O   0  0  0  0  0  0  0  0  0  0  0  0
  139.7610   72.1070  222.3100 C   0  0  0  0  0  0  0  0  0  0  0  0
  139.6090   73.5420  222.3380 N   0  0  0  0  0  0  0  0  0  0  0  0
  139.5130   74.1800  221.0400 C   0  0  0  0  0  0  0  0  0  0  0  0
  139.8030   75.6540  221.2520 C   0  0  0  0  0  0  0  0  0  0  0  0
  140.3740   75.9120  222.3340 O   0  0  0  0  0  0  0  0  0  0  0  0
  139.4210   76.5680  220.2510 N   0  0  0  0  0  0  0  0  0  0  0  0
  138.0320   76.4790  219.7880 C   0  0  0  0  0  0  0  0  0  0  0  0
  137.3830   77.8510  220.0390 C   0  0  0  0  0  0  0  0  0  0  0  0
  138.1060   78.7780  219.1040 C   0  0  0  0  0  0  0  0  0  0  0  0
  139.5470   78.8930  219.5570 C   0  0  0  0  0  0  0  0  0  0  0  0
  140.2470   77.5750  219.6320 C   0  0  1  0  0  0  0  0  0  0  0  0
  141.5750   77.6080  220.3070 C   0  0  0  0  0  0  0  0  0  0  0  0
  141.7150   78.1880  221.5740 N   0  0  0  0  0  0  0  0  0  0  0  0
  142.2050   79.4810  221.7750 C   0  0  0  0  0  0  0  0  0  0  0  0
  142.7620   79.5700  223.2080 C   0  0  0  0  0  0  0  0  0  0  0  0
  141.7740   79.0290  224.1970 C   0  0  0  0  0  0  0  0  0  0  0  0
  140.3420   79.2600  223.7590 C   0  0  0  0  0  0  0  0  0  0  0  0
  140.2340   80.5300  222.9520 C   0  0  0  0  0  0  0  0  0  0  0  0
  141.0200   80.4650  221.6770 C   0  0  0  0  0  0  0  0  0  0  0  0
  139.8700   71.3180  223.5260 C   0  0  0  0  0  0  0  0  0  0  0  0
  139.3920   70.0100  223.4530 C   0  0  0  0  0  0  0  0  0  0  0  0
  139.4370   69.1650  224.5440 C   0  0  0  0  0  0  0  0  0  0  0  0
  139.9830   69.6880  225.7020 C   0  0  0  0  0  0  0  0  0  0  0  0
  140.0570   68.8830  226.8400 C   0  0  0  0  0  0  0  0  0  0  0  0
  140.5900   69.3540  228.0190 C   0  0  0  0  0  0  0  0  0  0  0  0
  140.6370   68.5330  229.0940 F   0  0  0  0  0  0  0  0  0  0  0  0
  141.0540   70.6570  228.0470 C   0  0  0  0  0  0  0  0  0  0  0  0
  140.9970   71.4810  226.9480 C   0  0  0  0  0  0  0  0  0  0  0  0
  140.4600   70.9890  225.7780 C   0  0  0  0  0  0  0  0  0  0  0  0
  140.3970   71.7960  224.6760 N   0  0  0  0  0  0  0  0  0  0  0  0
  139.5740   74.0540  223.2460 H   0  0  0  0  0  0  0  0  0  0  0  0
  140.2500   73.7449  220.3490 H   0  0  0  0  0  0  0  0  0  0  0  0
  138.5147   74.0338  220.6018 H   0  0  0  0  0  0  0  0  0  0  0  0
  138.0066   76.2403  218.7145 H   0  0  0  0  0  0  0  0  0  0  0  0
  137.4905   75.6857  220.3242 H   0  0  0  0  0  0  0  0  0  0  0  0
  136.3083   77.8225  219.8063 H   0  0  0  0  0  0  0  0  0  0  0  0
  137.4608   78.1677  221.0896 H   0  0  0  0  0  0  0  0  0  0  0  0
  138.0700   78.3750  218.0811 H   0  0  0  0  0  0  0  0  0  0  0  0
  137.6287   79.7690  219.1132 H   0  0  0  0  0  0  0  0  0  0  0  0
  140.0868   79.5357  218.8460 H   0  0  0  0  0  0  0  0  0  0  0  0
  139.5379   79.3167  220.5721 H   0  0  0  0  0  0  0  0  0  0  0  0
  140.4366   77.3147  218.5802 H   0  0  0  0  0  0  0  0  0  0  0  0
  141.9069   76.5634  220.4004 H   0  0  0  0  0  0  0  0  0  0  0  0
  142.1631   78.2778  219.6624 H   0  0  0  0  0  0  0  0  0  0  0  0
  141.8300   77.5230  222.3710 H   0  0  0  0  0  0  0  0  0  0  0  0
  142.9817   79.7171  221.0328 H   0  0  0  0  0  0  0  0  0  0  0  0
  143.6919   78.9857  223.2705 H   0  0  0  0  0  0  0  0  0  0  0  0
  142.9571   80.6261  223.4458 H   0  0  0  0  0  0  0  0  0  0  0  0
  141.9404   77.9474  224.3087 H   0  0  0  0  0  0  0  0  0  0  0  0
  141.9255   79.5574  225.1498 H   0  0  0  0  0  0  0  0  0  0  0  0
  140.0104   78.4108  223.1435 H   0  0  0  0  0  0  0  0  0  0  0  0
  139.7073   79.3517  224.6527 H   0  0  0  0  0  0  0  0  0  0  0  0
  139.1759   80.7036  222.7063 H   0  0  0  0  0  0  0  0  0  0  0  0
  140.6463   81.3494  223.5590 H   0  0  0  0  0  0  0  0  0  0  0  0
  140.3533   80.1376  220.8656 H   0  0  0  0  0  0  0  0  0  0  0  0
  141.4275   81.4673  221.4788 H   0  0  0  0  0  0  0  0  0  0  0  0
  138.9699   69.6435  222.5056 H   0  0  0  0  0  0  0  0  0  0  0  0
  139.0595   68.1330  224.4949 H   0  0  0  0  0  0  0  0  0  0  0  0
  139.6814   67.8501  226.7939 H   0  0  0  0  0  0  0  0  0  0  0  0
  141.4836   71.0474  228.9813 H   0  0  0  0  0  0  0  0  0  0  0  0
  141.3729   72.5134  227.0015 H   0  0  0  0  0  0  0  0  0  0  0  0
  1  2  2  0
  2  3  1  0
  3  4  1  0
  4  5  1  0
  5  6  2  0
  5  7  1  0
  7  8  1  0
  8  9  1  0
  9 10  1  0
 10 11  1  0
 11 12  1  0
 12 13  1  0
 13 14  1  0
 14 15  1  0
 15 16  1  0
 16 17  1  0
 17 18  1  0
 18 19  1  0
 19 20  1  0
  2 21  1  0
 21 22  2  0
 22 23  1  0
 23 24  2  0
 24 25  1  0
 25 26  2  0
 26 27  1  0
 26 28  1  0
 28 29  2  0
 29 30  1  0
 30 31  2  0
 12  7  1  0
 20 15  1  0
 31 21  1  0
 30 24  1  0
  3 32  1  0
  4 33  1  0
  4 34  1  0
  8 35  1  0
  8 36  1  0
  9 37  1  0
  9 38  1  0
 10 39  1  0
 10 40  1  0
 11 41  1  0
 11 42  1  0
 12 43  1  6
 13 44  1  0
 13 45  1  0
 14 46  1  0
 15 47  1  0
 16 48  1  0
 16 49  1  0
 17 50  1  0
 17 51  1  0
 18 52  1  0
 18 53  1  0
 19 54  1  0
 19 55  1  0
 20 56  1  0
 20 57  1  0
 22 58  1  0
 23 59  1  0
 25 60  1  0
 28 61  1  0
 29 62  1  0
M  END
>  <smiles>  (26) 
O=C(NCC(=O)N1CCCC[C@H]1CNC1CCCCC1)c1ccc2cc(F)ccc2n1

>  <score_type>  (26) 
oracle

>  <origin>  (26) 
autodockgpu

>  <m_score__min__energy>  (26) 
-9.5700000000000003

>  <m_primary>  (26) 
energy

>  <rmsd>  (26) 
2.489624745942339

>  <m_score__min__rmsd>  (26) 
2.489624745942339

>  <meeko>  (26) 
{"free_energy": -8.14, "intermolecular_energy": -10.23, "internal_energy": -2.97, "cluster_size": 45, "cluster_id": 1, "rank_in_cluster": 42}

>  <energy>  (26) 
-8.58

>  <cluster_rmsd>  (26) 
0.9

>  <cluster>  (26) 
1

$$$$

     RDKit          3D

 62 65  0  0  0  0  0  0  0  0999 V2000
  140.8020   72.0750  221.3730 O   0  0  0  0  0  0  0  0  0  0  0  0
  140.1060   72.3620  222.3900 C   0  0  0  0  0  0  0  0  0  0  0  0
  139.3610   73.5940  222.2820 N   0  0  0  0  0  0  0  0  0  0  0  0
  139.5230   74.3080  221.0310 C   0  0  0  0  0  0  0  0  0  0  0  0
  140.3160   75.5630  221.3400 C   0  0  0  0  0  0  0  0  0  0  0  0
  139.7250   76.3690  222.0910 O   0  0  0  0  0  0  0  0  0  0  0  0
  141.5990   75.7060  220.7770 N   0  0  0  0  0  0  0  0  0  0  0  0
  142.4660   74.5250  220.8320 C   0  0  0  0  0  0  0  0  0  0  0  0
  142.8450   74.1740  219.3830 C   0  0  0  0  0  0  0  0  0  0  0  0
  143.6940   75.3300  218.9330 C   0  0  0  0  0  0  0  0  0  0  0  0
  142.8240   76.5690  218.8650 C   0  0  0  0  0  0  0  0  0  0  0  0
  142.1510   76.8870  220.1600 C   0  0  1  0  0  0  0  0  0  0  0  0
  141.0990   77.9390  220.0770 C   0  0  0  0  0  0  0  0  0  0  0  0
  140.8760   78.8090  221.1510 N   0  0  0  0  0  0  0  0  0  0  0  0
  141.7650   79.8250  221.5120 C   0  0  0  0  0  0  0  0  0  0  0  0
  142.6260   79.3230  222.6850 C   0  0  0  0  0  0  0  0  0  0  0  0
  141.7650   78.7250  223.7580 C   0  0  0  0  0  0  0  0  0  0  0  0
  140.4100   79.3980  223.8440 C   0  0  0  0  0  0  0  0  0  0  0  0
  140.5140   80.8500  223.4490 C   0  0  0  0  0  0  0  0  0  0  0  0
  140.9410   81.0260  222.0230 C   0  0  0  0  0  0  0  0  0  0  0  0
  140.0520   71.5280  223.5800 C   0  0  0  0  0  0  0  0  0  0  0  0
  139.3530   70.3280  223.4570 C   0  0  0  0  0  0  0  0  0  0  0  0
  139.2300   69.4550  224.5180 C   0  0  0  0  0  0  0  0  0  0  0  0
  139.8360   69.8360  225.7000 C   0  0  0  0  0  0  0  0  0  0  0  0
  139.7470   68.9950  226.8110 C   0  0  0  0  0  0  0  0  0  0  0  0
  140.3320   69.3290  228.0130 C   0  0  0  0  0  0  0  0  0  0  0  0
  140.2140   68.4790  229.0590 F   0  0  0  0  0  0  0  0  0  0  0  0
  141.0160   70.5280  228.0910 C   0  0  0  0  0  0  0  0  0  0  0  0
  141.1250   71.3830  227.0200 C   0  0  0  0  0  0  0  0  0  0  0  0
  140.5330   71.0310  225.8270 C   0  0  0  0  0  0  0  0  0  0  0  0
  140.6330   71.8700  224.7530 N   0  0  0  0  0  0  0  0  0  0  0  0
  138.7580   73.9190  223.0690 H   0  0  0  0  0  0  0  0  0  0  0  0
  140.0684   73.6844  220.3074 H   0  0  0  0  0  0  0  0  0  0  0  0
  138.5464   74.5576  220.5907 H   0  0  0  0  0  0  0  0  0  0  0  0
  143.3715   74.7485  221.4152 H   0  0  0  0  0  0  0  0  0  0  0  0
  141.9502   73.6829  221.3166 H   0  0  0  0  0  0  0  0  0  0  0  0
  143.4148   73.2338  219.3457 H   0  0  0  0  0  0  0  0  0  0  0  0
  141.9639   74.0239  218.7418 H   0  0  0  0  0  0  0  0  0  0  0  0
  144.5124   75.4904  219.6502 H   0  0  0  0  0  0  0  0  0  0  0  0
  144.1250   75.1178  217.9434 H   0  0  0  0  0  0  0  0  0  0  0  0
  143.4547   77.4238  218.5796 H   0  0  0  0  0  0  0  0  0  0  0  0
  142.0338   76.3734  218.1252 H   0  0  0  0  0  0  0  0  0  0  0  0
  142.9571   77.2985  220.7852 H   0  0  0  0  0  0  0  0  0  0  0  0
  141.3498   78.5673  219.2097 H   0  0  0  0  0  0  0  0  0  0  0  0
  140.1682   77.3543  220.0357 H   0  0  0  0  0  0  0  0  0  0  0  0
  140.2570   78.4490  221.9110 H   0  0  0  0  0  0  0  0  0  0  0  0
  142.3926   80.1077  220.6540 H   0  0  0  0  0  0  0  0  0  0  0  0
  143.3270   78.5592  222.3172 H   0  0  0  0  0  0  0  0  0  0  0  0
  143.1774   80.1754  223.1086 H   0  0  0  0  0  0  0  0  0  0  0  0
  141.6172   77.6570  223.5398 H   0  0  0  0  0  0  0  0  0  0  0  0
  142.2761   78.8690  224.7214 H   0  0  0  0  0  0  0  0  0  0  0  0
  139.7092   78.8881  223.1666 H   0  0  0  0  0  0  0  0  0  0  0  0
  140.0482   79.3370  224.8810 H   0  0  0  0  0  0  0  0  0  0  0  0
  139.5306   81.3240  223.5842 H   0  0  0  0  0  0  0  0  0  0  0  0
  141.2783   81.3170  224.0876 H   0  0  0  0  0  0  0  0  0  0  0  0
  140.0444   81.1342  221.3949 H   0  0  0  0  0  0  0  0  0  0  0  0
  141.5771   81.9217  221.9676 H   0  0  0  0  0  0  0  0  0  0  0  0
  138.8895   70.0718  222.4929 H   0  0  0  0  0  0  0  0  0  0  0  0
  138.6794   68.5070  224.4280 H   0  0  0  0  0  0  0  0  0  0  0  0
  139.1982   68.0456  226.7249 H   0  0  0  0  0  0  0  0  0  0  0  0
  141.4897   70.8077  229.0436 H   0  0  0  0  0  0  0  0  0  0  0  0
  141.6750   72.3310  227.1140 H   0  0  0  0  0  0  0  0  0  0  0  0
  1  2  2  0
  2  3  1  0
  3  4  1  0
  4  5  1  0
  5  6  2  0
  5  7  1  0
  7  8  1  0
  8  9  1  0
  9 10  1  0
 10 11  1  0
 11 12  1  0
 12 13  1  0
 13 14  1  0
 14 15  1  0
 15 16  1  0
 16 17  1  0
 17 18  1  0
 18 19  1  0
 19 20  1  0
  2 21  1  0
 21 22  2  0
 22 23  1  0
 23 24  2  0
 24 25  1  0
 25 26  2  0
 26 27  1  0
 26 28  1  0
 28 29  2  0
 29 30  1  0
 30 31  2  0
 12  7  1  0
 20 15  1  0
 31 21  1  0
 30 24  1  0
  3 32  1  0
  4 33  1  0
  4 34  1  0
  8 35  1  0
  8 36  1  0
  9 37  1  0
  9 38  1  0
 10 39  1  0
 10 40  1  0
 11 41  1  0
 11 42  1  0
 12 43  1  1
 13 44  1  0
 13 45  1  0
 14 46  1  0
 15 47  1  0
 16 48  1  0
 16 49  1  0
 17 50  1  0
 17 51  1  0
 18 52  1  0
 18 53  1  0
 19 54  1  0
 19 55  1  0
 20 56  1  0
 20 57  1  0
 22 58  1  0
 23 59  1  0
 25 60  1  0
 28 61  1  0
 29 62  1  0
M  END
>  <smiles>  (27) 
O=C(NCC(=O)N1CCCC[C@H]1CNC1CCCCC1)c1ccc2cc(F)ccc2n1

>  <score_type>  (27) 
oracle

>  <origin>  (27) 
autodockgpu

>  <m_score__min__energy>  (27) 
-9.5700000000000003

>  <m_primary>  (27) 
energy

>  <rmsd>  (27) 
2.5616851186804372

>  <m_score__min__rmsd>  (27) 
2.5616851186804372

>  <meeko>  (27) 
{"free_energy": -8.88, "intermolecular_energy": -10.97, "internal_energy": -2.5, "cluster_size": 45, "cluster_id": 1, "rank_in_cluster": 19}

>  <energy>  (27) 
-8.54

>  <cluster_rmsd>  (27) 
1.69

>  <cluster>  (27) 
1

$$$$

     RDKit          3D

 62 65  0  0  0  0  0  0  0  0999 V2000
  140.9840   71.8400  221.3080 O   0  0  0  0  0  0  0  0  0  0  0  0
  140.4330   72.2880  222.3560 C   0  0  0  0  0  0  0  0  0  0  0  0
  139.9780   73.6540  222.2610 N   0  0  0  0  0  0  0  0  0  0  0  0
  140.2210   74.3000  220.9860 C   0  0  0  0  0  0  0  0  0  0  0  0
  141.0820   75.5170  221.2660 C   0  0  0  0  0  0  0  0  0  0  0  0
  140.8240   76.0870  222.3490 O   0  0  0  0  0  0  0  0  0  0  0  0
  142.0600   75.8840  220.3210 N   0  0  0  0  0  0  0  0  0  0  0  0
  143.0330   74.8480  219.9600 C   0  0  0  0  0  0  0  0  0  0  0  0
  142.9240   74.6350  218.4410 C   0  0  0  0  0  0  0  0  0  0  0  0
  143.4090   75.9290  217.8510 C   0  0  0  0  0  0  0  0  0  0  0  0
  142.4220   77.0220  218.2060 C   0  0  0  0  0  0  0  0  0  0  0  0
  142.2080   77.1650  219.6770 C   0  0  1  0  0  0  0  0  0  0  0  0
  141.0690   78.0470  220.0610 C   0  0  0  0  0  0  0  0  0  0  0  0
  141.0640   78.7060  221.2960 N   0  0  0  0  0  0  0  0  0  0  0  0
  141.8980   79.7880  221.5910 C   0  0  0  0  0  0  0  0  0  0  0  0
  142.5970   79.5100  222.9340 C   0  0  0  0  0  0  0  0  0  0  0  0
  141.6020   79.0830  223.9730 C   0  0  0  0  0  0  0  0  0  0  0  0
  140.2480   79.7300  223.7660 C   0  0  0  0  0  0  0  0  0  0  0  0
  140.4020   81.0960  223.1470 C   0  0  0  0  0  0  0  0  0  0  0  0
  141.0130   81.0390  221.7790 C   0  0  0  0  0  0  0  0  0  0  0  0
  140.2640   71.5000  223.5660 C   0  0  0  0  0  0  0  0  0  0  0  0
  139.6010   70.2810  223.4180 C   0  0  0  0  0  0  0  0  0  0  0  0
  139.3780   69.4480  224.4950 C   0  0  0  0  0  0  0  0  0  0  0  0
  139.8480   69.8880  225.7190 C   0  0  0  0  0  0  0  0  0  0  0  0
  139.6530   69.0890  226.8470 C   0  0  0  0  0  0  0  0  0  0  0  0
  140.1000   69.4810  228.0900 C   0  0  0  0  0  0  0  0  0  0  0  0
  139.8840   68.6700  229.1510 F   0  0  0  0  0  0  0  0  0  0  0  0
  140.7530   70.6960  228.1910 C   0  0  0  0  0  0  0  0  0  0  0  0
  140.9630   71.5100  227.1040 C   0  0  0  0  0  0  0  0  0  0  0  0
  140.5080   71.1000  225.8700 C   0  0  0  0  0  0  0  0  0  0  0  0
  140.7100   71.8990  224.7800 N   0  0  0  0  0  0  0  0  0  0  0  0
  139.5110   74.1150  223.0720 H   0  0  0  0  0  0  0  0  0  0  0  0
  140.7472   73.6123  220.3076 H   0  0  0  0  0  0  0  0  0  0  0  0
  139.2752   74.5890  220.5043 H   0  0  0  0  0  0  0  0  0  0  0  0
  144.0493   75.1767  220.2230 H   0  0  0  0  0  0  0  0  0  0  0  0
  142.8286   73.9130  220.5022 H   0  0  0  0  0  0  0  0  0  0  0  0
  143.5590   73.7969  218.1181 H   0  0  0  0  0  0  0  0  0  0  0  0
  141.9011   74.3845  218.1232 H   0  0  0  0  0  0  0  0  0  0  0  0
  144.3989   76.1758  218.2622 H   0  0  0  0  0  0  0  0  0  0  0  0
  143.4902   75.8365  216.7579 H   0  0  0  0  0  0  0  0  0  0  0  0
  142.8013   77.9769  217.8132 H   0  0  0  0  0  0  0  0  0  0  0  0
  141.4549   76.7473  217.7597 H   0  0  0  0  0  0  0  0  0  0  0  0
  143.1229   77.6619  220.0320 H   0  0  0  0  0  0  0  0  0  0  0  0
  140.9999   78.8265  219.2879 H   0  0  0  0  0  0  0  0  0  0  0  0
  140.2309   77.3408  220.1549 H   0  0  0  0  0  0  0  0  0  0  0  0
  140.7320   78.1460  222.1130 H   0  0  0  0  0  0  0  0  0  0  0  0
  142.6334   79.9364  220.7865 H   0  0  0  0  0  0  0  0  0  0  0  0
  143.3397   78.7105  222.7955 H   0  0  0  0  0  0  0  0  0  0  0  0
  143.0883   80.4335  223.2741 H   0  0  0  0  0  0  0  0  0  0  0  0
  141.4842   77.9904  223.9234 H   0  0  0  0  0  0  0  0  0  0  0  0
  141.9818   79.3995  224.9557 H   0  0  0  0  0  0  0  0  0  0  0  0
  139.6430   79.0973  223.0999 H   0  0  0  0  0  0  0  0  0  0  0  0
  139.7529   79.8368  224.7425 H   0  0  0  0  0  0  0  0  0  0  0  0
  139.4090   81.5632  223.0710 H   0  0  0  0  0  0  0  0  0  0  0  0
  141.0752   81.6814  223.7905 H   0  0  0  0  0  0  0  0  0  0  0  0
  140.2069   81.0191  221.0308 H   0  0  0  0  0  0  0  0  0  0  0  0
  141.6502   81.9270  221.6549 H   0  0  0  0  0  0  0  0  0  0  0  0
  139.2485   69.9777  222.4211 H   0  0  0  0  0  0  0  0  0  0  0  0
  138.8550   68.4864  224.3861 H   0  0  0  0  0  0  0  0  0  0  0  0
  139.1315   68.1262  226.7413 H   0  0  0  0  0  0  0  0  0  0  0  0
  141.1172   71.0223  229.1764 H   0  0  0  0  0  0  0  0  0  0  0  0
  141.4850   72.4716  227.2171 H   0  0  0  0  0  0  0  0  0  0  0  0
  1  2  2  0
  2  3  1  0
  3  4  1  0
  4  5  1  0
  5  6  2  0
  5  7  1  0
  7  8  1  0
  8  9  1  0
  9 10  1  0
 10 11  1  0
 11 12  1  0
 12 13  1  0
 13 14  1  0
 14 15  1  0
 15 16  1  0
 16 17  1  0
 17 18  1  0
 18 19  1  0
 19 20  1  0
  2 21  1  0
 21 22  2  0
 22 23  1  0
 23 24  2  0
 24 25  1  0
 25 26  2  0
 26 27  1  0
 26 28  1  0
 28 29  2  0
 29 30  1  0
 30 31  2  0
 12  7  1  0
 20 15  1  0
 31 21  1  0
 30 24  1  0
  3 32  1  0
  4 33  1  0
  4 34  1  0
  8 35  1  0
  8 36  1  0
  9 37  1  0
  9 38  1  0
 10 39  1  0
 10 40  1  0
 11 41  1  0
 11 42  1  0
 12 43  1  1
 13 44  1  0
 13 45  1  0
 14 46  1  0
 15 47  1  0
 16 48  1  0
 16 49  1  0
 17 50  1  0
 17 51  1  0
 18 52  1  0
 18 53  1  0
 19 54  1  0
 19 55  1  0
 20 56  1  0
 20 57  1  0
 22 58  1  0
 23 59  1  0
 25 60  1  0
 28 61  1  0
 29 62  1  0
M  END
>  <smiles>  (28) 
O=C(NCC(=O)N1CCCC[C@H]1CNC1CCCCC1)c1ccc2cc(F)ccc2n1

>  <score_type>  (28) 
oracle

>  <origin>  (28) 
autodockgpu

>  <m_score__min__energy>  (28) 
-9.5700000000000003

>  <m_primary>  (28) 
energy

>  <rmsd>  (28) 
2.5349682095374124

>  <m_score__min__rmsd>  (28) 
2.5349682095374124

>  <meeko>  (28) 
{"free_energy": -8.87, "intermolecular_energy": -10.95, "internal_energy": -2.59, "cluster_size": 45, "cluster_id": 1, "rank_in_cluster": 20}

>  <energy>  (28) 
-8.49

>  <cluster_rmsd>  (28) 
0.81

>  <cluster>  (28) 
1

$$$$

     RDKit          3D

 62 65  0  0  0  0  0  0  0  0999 V2000
  140.6460   71.9440  221.0910 O   0  0  0  0  0  0  0  0  0  0  0  0
  140.0400   72.3170  222.1370 C   0  0  0  0  0  0  0  0  0  0  0  0
  139.4160   73.6140  222.0420 N   0  0  0  0  0  0  0  0  0  0  0  0
  139.5760   74.2870  220.7680 C   0  0  0  0  0  0  0  0  0  0  0  0
  140.7540   75.2320  220.9140 C   0  0  0  0  0  0  0  0  0  0  0  0
  141.4200   75.0590  221.9570 O   0  0  0  0  0  0  0  0  0  0  0  0
  140.9850   76.1840  219.9020 N   0  0  0  0  0  0  0  0  0  0  0  0
  140.3200   77.4800  220.0670 C   0  0  0  0  0  0  0  0  0  0  0  0
  141.4210   78.5540  220.0930 C   0  0  0  0  0  0  0  0  0  0  0  0
  142.0000   78.5220  218.7060 C   0  0  0  0  0  0  0  0  0  0  0  0
  142.6970   77.1920  218.5050 C   0  0  0  0  0  0  0  0  0  0  0  0
  141.7990   76.0180  218.7240 C   0  0  1  0  0  0  0  0  0  0  0  0
  142.4950   74.7010  218.7840 C   0  0  0  0  0  0  0  0  0  0  0  0
  143.8120   74.6120  219.2470 N   0  0  0  0  0  0  0  0  0  0  0  0
  144.1480   74.1460  220.5210 C   0  0  0  0  0  0  0  0  0  0  0  0
  145.6310   73.7350  220.5120 C   0  0  0  0  0  0  0  0  0  0  0  0
  145.9300   72.8510  219.3370 C   0  0  0  0  0  0  0  0  0  0  0  0
  144.7430   71.9930  218.9510 C   0  0  0  0  0  0  0  0  0  0  0  0
  143.9140   71.6590  220.1660 C   0  0  0  0  0  0  0  0  0  0  0  0
  143.3160   72.8770  220.8030 C   0  0  0  0  0  0  0  0  0  0  0  0
  139.9710   71.5130  223.3470 C   0  0  0  0  0  0  0  0  0  0  0  0
  139.2330   70.3330  223.2590 C   0  0  0  0  0  0  0  0  0  0  0  0
  139.0920   69.4890  224.3420 C   0  0  0  0  0  0  0  0  0  0  0  0
  139.7220   69.8790  225.5090 C   0  0  0  0  0  0  0  0  0  0  0  0
  139.6170   69.0680  226.6410 C   0  0  0  0  0  0  0  0  0  0  0  0
  140.2230   69.4110  227.8280 C   0  0  0  0  0  0  0  0  0  0  0  0
  140.0890   68.5900  228.8960 F   0  0  0  0  0  0  0  0  0  0  0  0
  140.9470   70.5890  227.8720 C   0  0  0  0  0  0  0  0  0  0  0  0
  141.0720   71.4140  226.7800 C   0  0  0  0  0  0  0  0  0  0  0  0
  140.4580   71.0530  225.6010 C   0  0  0  0  0  0  0  0  0  0  0  0
  140.5740   71.8640  224.5070 N   0  0  0  0  0  0  0  0  0  0  0  0
  138.8930   74.0120  222.8520 H   0  0  0  0  0  0  0  0  0  0  0  0
  139.7766   73.5521  219.9745 H   0  0  0  0  0  0  0  0  0  0  0  0
  138.6625   74.8356  220.4949 H   0  0  0  0  0  0  0  0  0  0  0  0
  139.6350   77.6623  219.2258 H   0  0  0  0  0  0  0  0  0  0  0  0
  139.7302   77.5018  220.9953 H   0  0  0  0  0  0  0  0  0  0  0  0
  140.9955   79.5437  220.3154 H   0  0  0  0  0  0  0  0  0  0  0  0
  142.1766   78.3642  220.8695 H   0  0  0  0  0  0  0  0  0  0  0  0
  141.1945   78.6342  217.9653 H   0  0  0  0  0  0  0  0  0  0  0  0
  142.7176   79.3459  218.5787 H   0  0  0  0  0  0  0  0  0  0  0  0
  143.0815   77.1508  217.4752 H   0  0  0  0  0  0  0  0  0  0  0  0
  143.5039   77.1299  219.2500 H   0  0  0  0  0  0  0  0  0  0  0  0
  141.1636   75.9960  217.8263 H   0  0  0  0  0  0  0  0  0  0  0  0
  141.8884   74.0539  219.4345 H   0  0  0  0  0  0  0  0  0  0  0  0
  142.5874   74.4228  217.7238 H   0  0  0  0  0  0  0  0  0  0  0  0
  144.5000   75.2580  218.7980 H   0  0  0  0  0  0  0  0  0  0  0  0
  143.9587   74.9230  221.2763 H   0  0  0  0  0  0  0  0  0  0  0  0
  146.2556   74.6385  220.4521 H   0  0  0  0  0  0  0  0  0  0  0  0
  145.8495   73.1801  221.4363 H   0  0  0  0  0  0  0  0  0  0  0  0
  146.2047   73.4825  218.4792 H   0  0  0  0  0  0  0  0  0  0  0  0
  146.7544   72.1800  219.6199 H   0  0  0  0  0  0  0  0  0  0  0  0
  144.1207   72.5405  218.2278 H   0  0  0  0  0  0  0  0  0  0  0  0
  145.1110   71.0578  218.5039 H   0  0  0  0  0  0  0  0  0  0  0  0
  143.1005   70.9832  219.8635 H   0  0  0  0  0  0  0  0  0  0  0  0
  144.5777   71.1861  220.9048 H   0  0  0  0  0  0  0  0  0  0  0  0
  142.3006   73.0229  220.4060 H   0  0  0  0  0  0  0  0  0  0  0  0
  143.2993   72.7172  221.8912 H   0  0  0  0  0  0  0  0  0  0  0  0
  138.7526   70.0690  222.3053 H   0  0  0  0  0  0  0  0  0  0  0  0
  138.5104   68.5574  224.2799 H   0  0  0  0  0  0  0  0  0  0  0  0
  139.0374   68.1349  226.5826 H   0  0  0  0  0  0  0  0  0  0  0  0
  141.4394   70.8751  228.8131 H   0  0  0  0  0  0  0  0  0  0  0  0
  141.6522   72.3462  226.8463 H   0  0  0  0  0  0  0  0  0  0  0  0
  1  2  2  0
  2  3  1  0
  3  4  1  0
  4  5  1  0
  5  6  2  0
  5  7  1  0
  7  8  1  0
  8  9  1  0
  9 10  1  0
 10 11  1  0
 11 12  1  0
 12 13  1  0
 13 14  1  0
 14 15  1  0
 15 16  1  0
 16 17  1  0
 17 18  1  0
 18 19  1  0
 19 20  1  0
  2 21  1  0
 21 22  2  0
 22 23  1  0
 23 24  2  0
 24 25  1  0
 25 26  2  0
 26 27  1  0
 26 28  1  0
 28 29  2  0
 29 30  1  0
 30 31  2  0
 12  7  1  0
 20 15  1  0
 31 21  1  0
 30 24  1  0
  3 32  1  0
  4 33  1  0
  4 34  1  0
  8 35  1  0
  8 36  1  0
  9 37  1  0
  9 38  1  0
 10 39  1  0
 10 40  1  0
 11 41  1  0
 11 42  1  0
 12 43  1  6
 13 44  1  0
 13 45  1  0
 14 46  1  0
 15 47  1  0
 16 48  1  0
 16 49  1  0
 17 50  1  0
 17 51  1  0
 18 52  1  0
 18 53  1  0
 19 54  1  0
 19 55  1  0
 20 56  1  0
 20 57  1  0
 22 58  1  0
 23 59  1  0
 25 60  1  0
 28 61  1  0
 29 62  1  0
M  END
>  <smiles>  (29) 
O=C(NCC(=O)N1CCCC[C@H]1CNC1CCCCC1)c1ccc2cc(F)ccc2n1

>  <score_type>  (29) 
oracle

>  <origin>  (29) 
autodockgpu

>  <m_score__min__energy>  (29) 
-9.5700000000000003

>  <m_primary>  (29) 
energy

>  <rmsd>  (29) 
4.639442444669314

>  <m_score__min__rmsd>  (29) 
4.639442444669314

>  <meeko>  (29) 
{"free_energy": -8.37, "intermolecular_energy": -10.46, "internal_energy": -2.2, "cluster_size": 45, "cluster_id": 1, "rank_in_cluster": 33}

>  <energy>  (29) 
-8.48

>  <cluster_rmsd>  (29) 
1.16

>  <cluster>  (29) 
1

$$$$

     RDKit          3D

 62 65  0  0  0  0  0  0  0  0999 V2000
  140.2290   71.6320  221.0910 O   0  0  0  0  0  0  0  0  0  0  0  0
  140.0010   72.1410  222.2270 C   0  0  0  0  0  0  0  0  0  0  0  0
  139.7440   73.5600  222.2120 N   0  0  0  0  0  0  0  0  0  0  0  0
  139.7840   74.1830  220.9030 C   0  0  0  0  0  0  0  0  0  0  0  0
  140.5070   75.5060  221.0670 C   0  0  0  0  0  0  0  0  0  0  0  0
  140.4680   75.9690  222.2270 O   0  0  0  0  0  0  0  0  0  0  0  0
  141.1360   76.0750  219.9430 N   0  0  0  0  0  0  0  0  0  0  0  0
  141.0210   75.3260  218.6870 C   0  0  0  0  0  0  0  0  0  0  0  0
  140.3430   76.2550  217.6660 C   0  0  0  0  0  0  0  0  0  0  0  0
  141.3460   77.3520  217.4410 C   0  0  0  0  0  0  0  0  0  0  0  0
  141.4850   78.1470  218.7230 C   0  0  0  0  0  0  0  0  0  0  0  0
  141.8800   77.3090  219.8950 C   0  0  1  0  0  0  0  0  0  0  0  0
  141.7850   77.9950  221.2160 C   0  0  0  0  0  0  0  0  0  0  0  0
  142.1010   79.3540  221.3360 N   0  0  0  0  0  0  0  0  0  0  0  0
  141.1610   80.3340  221.6650 C   0  0  0  0  0  0  0  0  0  0  0  0
  141.8090   81.3110  222.6630 C   0  0  0  0  0  0  0  0  0  0  0  0
  142.4720   80.5650  223.7830 C   0  0  0  0  0  0  0  0  0  0  0  0
  141.7570   79.2700  224.1080 C   0  0  0  0  0  0  0  0  0  0  0  0
  140.2790   79.3980  223.8370 C   0  0  0  0  0  0  0  0  0  0  0  0
  139.9830   79.6460  222.3880 C   0  0  0  0  0  0  0  0  0  0  0  0
  139.9970   71.3680  223.4590 C   0  0  0  0  0  0  0  0  0  0  0  0
  139.4170   70.1020  223.3880 C   0  0  0  0  0  0  0  0  0  0  0  0
  139.3500   69.2770  224.4920 C   0  0  0  0  0  0  0  0  0  0  0  0
  139.8900   69.7760  225.6640 C   0  0  0  0  0  0  0  0  0  0  0  0
  139.8530   68.9890  226.8170 C   0  0  0  0  0  0  0  0  0  0  0  0
  140.3750   69.4390  228.0090 C   0  0  0  0  0  0  0  0  0  0  0  0
  140.3120   68.6370  229.0970 F   0  0  0  0  0  0  0  0  0  0  0  0
  140.9420   70.7000  228.0350 C   0  0  0  0  0  0  0  0  0  0  0  0
  140.9960   71.5040  226.9220 C   0  0  0  0  0  0  0  0  0  0  0  0
  140.4690   71.0360  225.7390 C   0  0  0  0  0  0  0  0  0  0  0  0
  140.5150   71.8240  224.6230 N   0  0  0  0  0  0  0  0  0  0  0  0
  139.5460   74.0730  223.0980 H   0  0  0  0  0  0  0  0  0  0  0  0
  140.3272   73.5403  220.1946 H   0  0  0  0  0  0  0  0  0  0  0  0
  138.7687   74.3353  220.5081 H   0  0  0  0  0  0  0  0  0  0  0  0
  142.0195   75.0359  218.3281 H   0  0  0  0  0  0  0  0  0  0  0  0
  140.4327   74.4079  218.8315 H   0  0  0  0  0  0  0  0  0  0  0  0
  140.1351   75.7184  216.7285 H   0  0  0  0  0  0  0  0  0  0  0  0
  139.3747   76.6365  218.0222 H   0  0  0  0  0  0  0  0  0  0  0  0
  142.3181   76.9156  217.1678 H   0  0  0  0  0  0  0  0  0  0  0  0
  141.0095   78.0086  216.6251 H   0  0  0  0  0  0  0  0  0  0  0  0
  142.2515   78.9215  218.5728 H   0  0  0  0  0  0  0  0  0  0  0  0
  140.4990   78.5798  218.9479 H   0  0  0  0  0  0  0  0  0  0  0  0
  142.9466   77.1006  219.7251 H   0  0  0  0  0  0  0  0  0  0  0  0
  140.7448   77.8823  221.5554 H   0  0  0  0  0  0  0  0  0  0  0  0
  142.5733   77.5049  221.8062 H   0  0  0  0  0  0  0  0  0  0  0  0
  142.9350   79.6790  220.7970 H   0  0  0  0  0  0  0  0  0  0  0  0
  140.8215   80.8601  220.7605 H   0  0  0  0  0  0  0  0  0  0  0  0
  142.5619   81.9169  222.1376 H   0  0  0  0  0  0  0  0  0  0  0  0
  141.0247   81.9569  223.0846 H   0  0  0  0  0  0  0  0  0  0  0  0
  143.5074   80.3348  223.4916 H   0  0  0  0  0  0  0  0  0  0  0  0
  142.4413   81.2025  224.6789 H   0  0  0  0  0  0  0  0  0  0  0  0
  142.1702   78.4627  223.4855 H   0  0  0  0  0  0  0  0  0  0  0  0
  141.9039   79.0413  225.1739 H   0  0  0  0  0  0  0  0  0  0  0  0
  139.7814   78.4665  224.1448 H   0  0  0  0  0  0  0  0  0  0  0  0
  139.9068   80.2614  224.4080 H   0  0  0  0  0  0  0  0  0  0  0  0
  139.7794   78.6827  221.8975 H   0  0  0  0  0  0  0  0  0  0  0  0
  139.1119   80.3151  222.3295 H   0  0  0  0  0  0  0  0  0  0  0  0
  139.0035   69.7531  222.4303 H   0  0  0  0  0  0  0  0  0  0  0  0
  138.8926   68.2778  224.4430 H   0  0  0  0  0  0  0  0  0  0  0  0
  139.3974   67.9888  226.7720 H   0  0  0  0  0  0  0  0  0  0  0  0
  141.3646   71.0725  228.9798 H   0  0  0  0  0  0  0  0  0  0  0  0
  141.4521   72.5036  226.9750 H   0  0  0  0  0  0  0  0  0  0  0  0
  1  2  2  0
  2  3  1  0
  3  4  1  0
  4  5  1  0
  5  6  2  0
  5  7  1  0
  7  8  1  0
  8  9  1  0
  9 10  1  0
 10 11  1  0
 11 12  1  0
 12 13  1  0
 13 14  1  0
 14 15  1  0
 15 16  1  0
 16 17  1  0
 17 18  1  0
 18 19  1  0
 19 20  1  0
  2 21  1  0
 21 22  2  0
 22 23  1  0
 23 24  2  0
 24 25  1  0
 25 26  2  0
 26 27  1  0
 26 28  1  0
 28 29  2  0
 29 30  1  0
 30 31  2  0
 12  7  1  0
 20 15  1  0
 31 21  1  0
 30 24  1  0
  3 32  1  0
  4 33  1  0
  4 34  1  0
  8 35  1  0
  8 36  1  0
  9 37  1  0
  9 38  1  0
 10 39  1  0
 10 40  1  0
 11 41  1  0
 11 42  1  0
 12 43  1  6
 13 44  1  0
 13 45  1  0
 14 46  1  0
 15 47  1  0
 16 48  1  0
 16 49  1  0
 17 50  1  0
 17 51  1  0
 18 52  1  0
 18 53  1  0
 19 54  1  0
 19 55  1  0
 20 56  1  0
 20 57  1  0
 22 58  1  0
 23 59  1  0
 25 60  1  0
 28 61  1  0
 29 62  1  0
M  END
>  <smiles>  (30) 
O=C(NCC(=O)N1CCCC[C@H]1CNC1CCCCC1)c1ccc2cc(F)ccc2n1

>  <score_type>  (30) 
oracle

>  <origin>  (30) 
autodockgpu

>  <m_score__min__energy>  (30) 
-9.5700000000000003

>  <m_primary>  (30) 
energy

>  <rmsd>  (30) 
2.2006282377469146

>  <m_score__min__rmsd>  (30) 
2.2006282377469146

>  <meeko>  (30) 
{"free_energy": -8.73, "intermolecular_energy": -10.82, "internal_energy": -1.91, "cluster_size": 45, "cluster_id": 1, "rank_in_cluster": 22}

>  <energy>  (30) 
-8.43

>  <cluster_rmsd>  (30) 
1.91

>  <cluster>  (30) 
1

$$$$

     RDKit          3D

 62 65  0  0  0  0  0  0  0  0999 V2000
  139.8970   74.0820  222.3290 O   0  0  0  0  0  0  0  0  0  0  0  0
  140.3710   72.9120  222.2540 C   0  0  0  0  0  0  0  0  0  0  0  0
  141.0830   72.6280  221.0310 N   0  0  0  0  0  0  0  0  0  0  0  0
  141.1460   73.7220  220.0830 C   0  0  0  0  0  0  0  0  0  0  0  0
  142.4400   74.4660  220.3540 C   0  0  0  0  0  0  0  0  0  0  0  0
  143.1740   73.9190  221.2060 O   0  0  0  0  0  0  0  0  0  0  0  0
  142.6930   75.6590  219.6510 N   0  0  0  0  0  0  0  0  0  0  0  0
  143.5240   75.5400  218.4490 C   0  0  0  0  0  0  0  0  0  0  0  0
  142.6910   76.0690  217.2690 C   0  0  0  0  0  0  0  0  0  0  0  0
  142.5320   77.5360  217.5580 C   0  0  0  0  0  0  0  0  0  0  0  0
  141.6750   77.6930  218.7970 C   0  0  0  0  0  0  0  0  0  0  0  0
  142.2280   76.9820  219.9890 C   0  0  1  0  0  0  0  0  0  0  0  0
  141.3010   76.8980  221.1540 C   0  0  0  0  0  0  0  0  0  0  0  0
  141.4390   77.7750  222.2360 N   0  0  0  0  0  0  0  0  0  0  0  0
  140.5270   78.7950  222.5170 C   0  0  0  0  0  0  0  0  0  0  0  0
  140.7190   79.9160  221.4800 C   0  0  0  0  0  0  0  0  0  0  0  0
  142.1690   80.2820  221.3560 C   0  0  0  0  0  0  0  0  0  0  0  0
  142.9150   80.1090  222.6630 C   0  0  0  0  0  0  0  0  0  0  0  0
  142.0000   80.3660  223.8330 C   0  0  0  0  0  0  0  0  0  0  0  0
  140.8720   79.3810  223.9030 C   0  0  0  0  0  0  0  0  0  0  0  0
  140.2180   71.9210  223.3070 C   0  0  0  0  0  0  0  0  0  0  0  0
  139.5510   70.7480  222.9550 C   0  0  0  0  0  0  0  0  0  0  0  0
  139.3420   69.7360  223.8700 C   0  0  0  0  0  0  0  0  0  0  0  0
  139.8310   69.9520  225.1450 C   0  0  0  0  0  0  0  0  0  0  0  0
  139.6510   68.9650  226.1170 C   0  0  0  0  0  0  0  0  0  0  0  0
  140.1170   69.1300  227.4020 C   0  0  0  0  0  0  0  0  0  0  0  0
  139.9150   68.1430  228.3060 F   0  0  0  0  0  0  0  0  0  0  0  0
  140.7740   70.3090  227.7080 C   0  0  0  0  0  0  0  0  0  0  0  0
  140.9700   71.3030  226.7800 C   0  0  0  0  0  0  0  0  0  0  0  0
  140.4960   71.1180  225.4990 C   0  0  0  0  0  0  0  0  0  0  0  0
  140.6830   72.0980  224.5650 N   0  0  0  0  0  0  0  0  0  0  0  0
  141.5110   71.6890  220.8720 H   0  0  0  0  0  0  0  0  0  0  0  0
  141.1422   73.3320  219.0545 H   0  0  0  0  0  0  0  0  0  0  0  0
  140.2780   74.3887  220.1929 H   0  0  0  0  0  0  0  0  0  0  0  0
  144.4398   76.1386  218.5627 H   0  0  0  0  0  0  0  0  0  0  0  0
  143.8215   74.4945  218.2806 H   0  0  0  0  0  0  0  0  0  0  0  0
  143.2203   75.9140  216.3173 H   0  0  0  0  0  0  0  0  0  0  0  0
  141.7251   75.5520  217.1699 H   0  0  0  0  0  0  0  0  0  0  0  0
  143.5194   77.9892  217.7302 H   0  0  0  0  0  0  0  0  0  0  0  0
  142.0543   78.0382  216.7039 H   0  0  0  0  0  0  0  0  0  0  0  0
  141.5963   78.7642  219.0342 H   0  0  0  0  0  0  0  0  0  0  0  0
  140.6947   77.2459  218.5753 H   0  0  0  0  0  0  0  0  0  0  0  0
  143.0734   77.6104  220.3058 H   0  0  0  0  0  0  0  0  0  0  0  0
  140.2845   77.0422  220.7590 H   0  0  0  0  0  0  0  0  0  0  0  0
  141.5457   75.9205  221.5950 H   0  0  0  0  0  0  0  0  0  0  0  0
  142.4120   77.9180  222.5890 H   0  0  0  0  0  0  0  0  0  0  0  0
  139.4980   78.4068  222.4935 H   0  0  0  0  0  0  0  0  0  0  0  0
  140.3489   79.5714  220.5031 H   0  0  0  0  0  0  0  0  0  0  0  0
  140.1577   80.8026  221.8100 H   0  0  0  0  0  0  0  0  0  0  0  0
  142.6334   79.6379  220.5948 H   0  0  0  0  0  0  0  0  0  0  0  0
  142.2271   81.3429  221.0711 H   0  0  0  0  0  0  0  0  0  0  0  0
  143.3019   79.0812  222.7253 H   0  0  0  0  0  0  0  0  0  0  0  0
  143.7450   80.8301  222.6962 H   0  0  0  0  0  0  0  0  0  0  0  0
  142.5861   80.2985  224.7614 H   0  0  0  0  0  0  0  0  0  0  0  0
  141.5635   81.3674  223.7040 H   0  0  0  0  0  0  0  0  0  0  0  0
  141.1602   78.5586  224.5742 H   0  0  0  0  0  0  0  0  0  0  0  0
  139.9833   79.9093  224.2786 H   0  0  0  0  0  0  0  0  0  0  0  0
  139.1833   70.6266  221.9254 H   0  0  0  0  0  0  0  0  0  0  0  0
  138.8154   68.8088  223.5997 H   0  0  0  0  0  0  0  0  0  0  0  0
  139.1257   68.0361  225.8501 H   0  0  0  0  0  0  0  0  0  0  0  0
  141.1527   70.4554  228.7303 H   0  0  0  0  0  0  0  0  0  0  0  0
  141.4956   72.2296  227.0543 H   0  0  0  0  0  0  0  0  0  0  0  0
  1  2  2  0
  2  3  1  0
  3  4  1  0
  4  5  1  0
  5  6  2  0
  5  7  1  0
  7  8  1  0
  8  9  1  0
  9 10  1  0
 10 11  1  0
 11 12  1  0
 12 13  1  0
 13 14  1  0
 14 15  1  0
 15 16  1  0
 16 17  1  0
 17 18  1  0
 18 19  1  0
 19 20  1  0
  2 21  1  0
 21 22  2  0
 22 23  1  0
 23 24  2  0
 24 25  1  0
 25 26  2  0
 26 27  1  0
 26 28  1  0
 28 29  2  0
 29 30  1  0
 30 31  2  0
 12  7  1  0
 20 15  1  0
 31 21  1  0
 30 24  1  0
  3 32  1  0
  4 33  1  0
  4 34  1  0
  8 35  1  0
  8 36  1  0
  9 37  1  0
  9 38  1  0
 10 39  1  0
 10 40  1  0
 11 41  1  0
 11 42  1  0
 12 43  1  1
 13 44  1  0
 13 45  1  0
 14 46  1  0
 15 47  1  0
 16 48  1  0
 16 49  1  0
 17 50  1  0
 17 51  1  0
 18 52  1  0
 18 53  1  0
 19 54  1  0
 19 55  1  0
 20 56  1  0
 20 57  1  0
 22 58  1  0
 23 59  1  0
 25 60  1  0
 28 61  1  0
 29 62  1  0
M  END
>  <smiles>  (31) 
O=C(NCC(=O)N1CCCC[C@H]1CNC1CCCCC1)c1ccc2cc(F)ccc2n1

>  <score_type>  (31) 
oracle

>  <origin>  (31) 
autodockgpu

>  <m_score__min__energy>  (31) 
-9.5700000000000003

>  <m_primary>  (31) 
energy

>  <rmsd>  (31) 
2.596368177205076

>  <m_score__min__rmsd>  (31) 
2.596368177205076

>  <meeko>  (31) 
{"free_energy": -8.62, "intermolecular_energy": -10.71, "internal_energy": -1.76, "cluster_size": 45, "cluster_id": 1, "rank_in_cluster": 25}

>  <energy>  (31) 
-8.42

>  <cluster_rmsd>  (31) 
1.35

>  <cluster>  (31) 
1

$$$$

     RDKit          3D

 62 65  0  0  0  0  0  0  0  0999 V2000
  141.2260   71.3940  221.4230 O   0  0  0  0  0  0  0  0  0  0  0  0
  140.6650   72.0120  222.3730 C   0  0  0  0  0  0  0  0  0  0  0  0
  140.3850   73.4020  222.1060 N   0  0  0  0  0  0  0  0  0  0  0  0
  140.7870   73.8740  220.7950 C   0  0  0  0  0  0  0  0  0  0  0  0
  141.0840   75.3550  220.9330 C   0  0  0  0  0  0  0  0  0  0  0  0
  140.5680   75.8880  221.9390 O   0  0  0  0  0  0  0  0  0  0  0  0
  141.8850   75.9760  219.9550 N   0  0  0  0  0  0  0  0  0  0  0  0
  142.5540   75.0840  219.0020 C   0  0  0  0  0  0  0  0  0  0  0  0
  142.0830   75.4890  217.5950 C   0  0  0  0  0  0  0  0  0  0  0  0
  142.6550   76.8650  217.3970 C   0  0  0  0  0  0  0  0  0  0  0  0
  141.9820   77.8130  218.3680 C   0  0  0  0  0  0  0  0  0  0  0  0
  142.1200   77.3890  219.7940 C   0  0  1  0  0  0  0  0  0  0  0  0
  141.2680   78.1450  220.7560 C   0  0  0  0  0  0  0  0  0  0  0  0
  141.6920   78.3450  222.0760 N   0  0  0  0  0  0  0  0  0  0  0  0
  142.4020   79.4740  222.4910 C   0  0  0  0  0  0  0  0  0  0  0  0
  141.8270   79.9390  223.8410 C   0  0  0  0  0  0  0  0  0  0  0  0
  140.3310   80.0310  223.7780 C   0  0  0  0  0  0  0  0  0  0  0  0
  139.8410   80.4140  222.3970 C   0  0  0  0  0  0  0  0  0  0  0  0
  140.8460   81.2980  221.7040 C   0  0  0  0  0  0  0  0  0  0  0  0
  142.1530   80.6020  221.4680 C   0  0  0  0  0  0  0  0  0  0  0  0
  140.3230   71.3850  223.6400 C   0  0  0  0  0  0  0  0  0  0  0  0
  139.5750   70.2100  223.5620 C   0  0  0  0  0  0  0  0  0  0  0  0
  139.1870   69.5270  224.6960 C   0  0  0  0  0  0  0  0  0  0  0  0
  139.5830   70.0700  225.9050 C   0  0  0  0  0  0  0  0  0  0  0  0
  139.2220   69.4240  227.0890 C   0  0  0  0  0  0  0  0  0  0  0  0
  139.5890   69.9240  228.3190 C   0  0  0  0  0  0  0  0  0  0  0  0
  139.2120   69.2600  229.4360 F   0  0  0  0  0  0  0  0  0  0  0  0
  140.3330   71.0900  228.3510 C   0  0  0  0  0  0  0  0  0  0  0  0
  140.7060   71.7540  227.2070 C   0  0  0  0  0  0  0  0  0  0  0  0
  140.3290   71.2380  225.9870 C   0  0  0  0  0  0  0  0  0  0  0  0
  140.6930   71.8880  224.8410 N   0  0  0  0  0  0  0  0  0  0  0  0
  139.9240   73.9990  222.8270 H   0  0  0  0  0  0  0  0  0  0  0  0
  141.6865   73.3373  220.4590 H   0  0  0  0  0  0  0  0  0  0  0  0
  139.9944   73.6985  220.0528 H   0  0  0  0  0  0  0  0  0  0  0  0
  143.6453   75.1972  219.0816 H   0  0  0  0  0  0  0  0  0  0  0  0
  142.3061   74.0327  219.2100 H   0  0  0  0  0  0  0  0  0  0  0  0
  142.4716   74.7922  216.8378 H   0  0  0  0  0  0  0  0  0  0  0  0
  140.9877   75.4695  217.4953 H   0  0  0  0  0  0  0  0  0  0  0  0
  143.7382   76.8469  217.5875 H   0  0  0  0  0  0  0  0  0  0  0  0
  142.4803   77.1992  216.3637 H   0  0  0  0  0  0  0  0  0  0  0  0
  142.4338   78.8094  218.2540 H   0  0  0  0  0  0  0  0  0  0  0  0
  140.9080   77.8173  218.1302 H   0  0  0  0  0  0  0  0  0  0  0  0
  143.1643   77.6282  220.0435 H   0  0  0  0  0  0  0  0  0  0  0  0
  141.1107   79.1430  220.3209 H   0  0  0  0  0  0  0  0  0  0  0  0
  140.3900   77.4930  220.8742 H   0  0  0  0  0  0  0  0  0  0  0  0
  141.8240   77.4820  222.6490 H   0  0  0  0  0  0  0  0  0  0  0  0
  143.4741   79.2430  222.5763 H   0  0  0  0  0  0  0  0  0  0  0  0
  142.1117   79.2185  224.6219 H   0  0  0  0  0  0  0  0  0  0  0  0
  142.2326   80.9347  224.0735 H   0  0  0  0  0  0  0  0  0  0  0  0
  139.9039   79.0537  224.0474 H   0  0  0  0  0  0  0  0  0  0  0  0
  140.0101   80.8143  224.4804 H   0  0  0  0  0  0  0  0  0  0  0  0
  139.6902   79.5018  221.8010 H   0  0  0  0  0  0  0  0  0  0  0  0
  138.8938   80.9643  222.4967 H   0  0  0  0  0  0  0  0  0  0  0  0
  140.4320   81.6104  220.7340 H   0  0  0  0  0  0  0  0  0  0  0  0
  141.0392   82.1619  222.3570 H   0  0  0  0  0  0  0  0  0  0  0  0
  142.1469   80.1690  220.4568 H   0  0  0  0  0  0  0  0  0  0  0  0
  142.9573   81.3441  221.5791 H   0  0  0  0  0  0  0  0  0  0  0  0
  139.2883   69.8195  222.5744 H   0  0  0  0  0  0  0  0  0  0  0  0
  138.5952   68.6014  224.6418 H   0  0  0  0  0  0  0  0  0  0  0  0
  138.6324   68.4967  227.0386 H   0  0  0  0  0  0  0  0  0  0  0  0
  140.6364   71.4997  229.3257 H   0  0  0  0  0  0  0  0  0  0  0  0
  141.2952   72.6811  227.2647 H   0  0  0  0  0  0  0  0  0  0  0  0
  1  2  2  0
  2  3  1  0
  3  4  1  0
  4  5  1  0
  5  6  2  0
  5  7  1  0
  7  8  1  0
  8  9  1  0
  9 10  1  0
 10 11  1  0
 11 12  1  0
 12 13  1  0
 13 14  1  0
 14 15  1  0
 15 16  1  0
 16 17  1  0
 17 18  1  0
 18 19  1  0
 19 20  1  0
  2 21  1  0
 21 22  2  0
 22 23  1  0
 23 24  2  0
 24 25  1  0
 25 26  2  0
 26 27  1  0
 26 28  1  0
 28 29  2  0
 29 30  1  0
 30 31  2  0
 12  7  1  0
 20 15  1  0
 31 21  1  0
 30 24  1  0
  3 32  1  0
  4 33  1  0
  4 34  1  0
  8 35  1  0
  8 36  1  0
  9 37  1  0
  9 38  1  0
 10 39  1  0
 10 40  1  0
 11 41  1  0
 11 42  1  0
 12 43  1  1
 13 44  1  0
 13 45  1  0
 14 46  1  0
 15 47  1  0
 16 48  1  0
 16 49  1  0
 17 50  1  0
 17 51  1  0
 18 52  1  0
 18 53  1  0
 19 54  1  0
 19 55  1  0
 20 56  1  0
 20 57  1  0
 22 58  1  0
 23 59  1  0
 25 60  1  0
 28 61  1  0
 29 62  1  0
M  END
>  <smiles>  (32) 
O=C(NCC(=O)N1CCCC[C@H]1CNC1CCCCC1)c1ccc2cc(F)ccc2n1

>  <score_type>  (32) 
oracle

>  <origin>  (32) 
autodockgpu

>  <m_score__min__energy>  (32) 
-9.5700000000000003

>  <m_primary>  (32) 
energy

>  <rmsd>  (32) 
2.282212653297153

>  <m_score__min__rmsd>  (32) 
2.282212653297153

>  <meeko>  (32) 
{"free_energy": -8.58, "intermolecular_energy": -10.67, "internal_energy": -2.48, "cluster_size": 45, "cluster_id": 1, "rank_in_cluster": 26}

>  <energy>  (32) 
-8.4

>  <cluster_rmsd>  (32) 
1.71

>  <cluster>  (32) 
1

$$$$

     RDKit          3D

 62 65  0  0  0  0  0  0  0  0999 V2000
  138.5580   72.5540  222.3090 O   0  0  0  0  0  0  0  0  0  0  0  0
  139.6790   72.1690  222.7520 C   0  0  0  0  0  0  0  0  0  0  0  0
  140.8190   72.6770  222.0280 N   0  0  0  0  0  0  0  0  0  0  0  0
  140.5070   73.5470  220.9120 C   0  0  0  0  0  0  0  0  0  0  0  0
  140.8950   74.9530  221.3280 C   0  0  0  0  0  0  0  0  0  0  0  0
  140.2930   75.3700  222.3410 O   0  0  0  0  0  0  0  0  0  0  0  0
  141.8610   75.6400  220.5680 N   0  0  0  0  0  0  0  0  0  0  0  0
  143.0090   74.8490  220.1120 C   0  0  0  0  0  0  0  0  0  0  0  0
  143.0360   74.9340  218.5760 C   0  0  0  0  0  0  0  0  0  0  0  0
  143.3460   76.3760  218.2920 C   0  0  0  0  0  0  0  0  0  0  0  0
  142.1760   77.2210  218.7510 C   0  0  0  0  0  0  0  0  0  0  0  0
  141.8460   77.0330  220.1960 C   0  0  1  0  0  0  0  0  0  0  0  0
  140.5570   77.6460  220.6290 C   0  0  0  0  0  0  0  0  0  0  0  0
  140.3510   77.9950  221.9690 N   0  0  0  0  0  0  0  0  0  0  0  0
  139.9240   79.2620  222.3740 C   0  0  0  0  0  0  0  0  0  0  0  0
  140.6490   80.3150  221.5160 C   0  0  0  0  0  0  0  0  0  0  0  0
  142.1250   80.0460  221.4800 C   0  0  0  0  0  0  0  0  0  0  0  0
  142.6220   79.4160  222.7650 C   0  0  0  0  0  0  0  0  0  0  0  0
  141.8010   79.8900  223.9390 C   0  0  0  0  0  0  0  0  0  0  0  0
  140.3650   79.4730  223.8370 C   0  0  0  0  0  0  0  0  0  0  0  0
  139.8220   71.2850  223.8970 C   0  0  0  0  0  0  0  0  0  0  0  0
  139.3850   69.9720  223.7180 C   0  0  0  0  0  0  0  0  0  0  0  0
  139.4660   69.0420  224.7340 C   0  0  0  0  0  0  0  0  0  0  0  0
  140.0030   69.4840  225.9290 C   0  0  0  0  0  0  0  0  0  0  0  0
  140.1120   68.5890  226.9960 C   0  0  0  0  0  0  0  0  0  0  0  0
  140.6380   68.9780  228.2080 C   0  0  0  0  0  0  0  0  0  0  0  0
  140.7200   68.0720  229.2090 F   0  0  0  0  0  0  0  0  0  0  0  0
  141.0610   70.2890  228.3420 C   0  0  0  0  0  0  0  0  0  0  0  0
  140.9690   71.1990  227.3150 C   0  0  0  0  0  0  0  0  0  0  0  0
  140.4400   70.7890  226.1110 C   0  0  0  0  0  0  0  0  0  0  0  0
  140.3420   71.6830  225.0810 N   0  0  0  0  0  0  0  0  0  0  0  0
  141.7880   72.4160  222.3140 H   0  0  0  0  0  0  0  0  0  0  0  0
  141.0805   73.2434  220.0238 H   0  0  0  0  0  0  0  0  0  0  0  0
  139.4384   73.4925  220.6569 H   0  0  0  0  0  0  0  0  0  0  0  0
  143.9401   75.2603  220.5290 H   0  0  0  0  0  0  0  0  0  0  0  0
  142.9213   73.8042  220.4447 H   0  0  0  0  0  0  0  0  0  0  0  0
  143.8166   74.2784  218.1627 H   0  0  0  0  0  0  0  0  0  0  0  0
  142.0896   74.6087  218.1194 H   0  0  0  0  0  0  0  0  0  0  0  0
  144.2544   76.6739  218.8362 H   0  0  0  0  0  0  0  0  0  0  0  0
  143.5132   76.5193  217.2143 H   0  0  0  0  0  0  0  0  0  0  0  0
  142.4223   78.2799  218.5834 H   0  0  0  0  0  0  0  0  0  0  0  0
  141.2966   76.9048  218.1708 H   0  0  0  0  0  0  0  0  0  0  0  0
  142.6444   77.5745  220.7244 H   0  0  0  0  0  0  0  0  0  0  0  0
  140.4328   78.5672  220.0407 H   0  0  0  0  0  0  0  0  0  0  0  0
  139.8315   76.8345  220.4704 H   0  0  0  0  0  0  0  0  0  0  0  0
  140.8900   77.4440  222.6730 H   0  0  0  0  0  0  0  0  0  0  0  0
  138.8325   79.3506  222.2699 H   0  0  0  0  0  0  0  0  0  0  0  0
  140.2509   80.2818  220.4911 H   0  0  0  0  0  0  0  0  0  0  0  0
  140.4815   81.3079  221.9589 H   0  0  0  0  0  0  0  0  0  0  0  0
  142.3408   79.3641  220.6443 H   0  0  0  0  0  0  0  0  0  0  0  0
  142.6414   81.0090  221.3536 H   0  0  0  0  0  0  0  0  0  0  0  0
  142.5422   78.3217  222.6860 H   0  0  0  0  0  0  0  0  0  0  0  0
  143.6702   79.7098  222.9226 H   0  0  0  0  0  0  0  0  0  0  0  0
  142.2268   79.4680  224.8613 H   0  0  0  0  0  0  0  0  0  0  0  0
  141.8313   80.9895  223.9476 H   0  0  0  0  0  0  0  0  0  0  0  0
  140.2295   78.5304  224.3877 H   0  0  0  0  0  0  0  0  0  0  0  0
  139.7478   80.2772  224.2640 H   0  0  0  0  0  0  0  0  0  0  0  0
  138.9669   69.6719  222.7459 H   0  0  0  0  0  0  0  0  0  0  0  0
  139.1222   68.0057  224.6006 H   0  0  0  0  0  0  0  0  0  0  0  0
  139.7705   67.5515  226.8655 H   0  0  0  0  0  0  0  0  0  0  0  0
  141.4855   70.6143  229.3032 H   0  0  0  0  0  0  0  0  0  0  0  0
  141.3115   72.2352  227.4525 H   0  0  0  0  0  0  0  0  0  0  0  0
  1  2  2  0
  2  3  1  0
  3  4  1  0
  4  5  1  0
  5  6  2  0
  5  7  1  0
  7  8  1  0
  8  9  1  0
  9 10  1  0
 10 11  1  0
 11 12  1  0
 12 13  1  0
 13 14  1  0
 14 15  1  0
 15 16  1  0
 16 17  1  0
 17 18  1  0
 18 19  1  0
 19 20  1  0
  2 21  1  0
 21 22  2  0
 22 23  1  0
 23 24  2  0
 24 25  1  0
 25 26  2  0
 26 27  1  0
 26 28  1  0
 28 29  2  0
 29 30  1  0
 30 31  2  0
 12  7  1  0
 20 15  1  0
 31 21  1  0
 30 24  1  0
  3 32  1  0
  4 33  1  0
  4 34  1  0
  8 35  1  0
  8 36  1  0
  9 37  1  0
  9 38  1  0
 10 39  1  0
 10 40  1  0
 11 41  1  0
 11 42  1  0
 12 43  1  1
 13 44  1  0
 13 45  1  0
 14 46  1  0
 15 47  1  0
 16 48  1  0
 16 49  1  0
 17 50  1  0
 17 51  1  0
 18 52  1  0
 18 53  1  0
 19 54  1  0
 19 55  1  0
 20 56  1  0
 20 57  1  0
 22 58  1  0
 23 59  1  0
 25 60  1  0
 28 61  1  0
 29 62  1  0
M  END
>  <smiles>  (33) 
O=C(NCC(=O)N1CCCC[C@H]1CNC1CCCCC1)c1ccc2cc(F)ccc2n1

>  <score_type>  (33) 
oracle

>  <origin>  (33) 
autodockgpu

>  <m_score__min__energy>  (33) 
-9.5700000000000003

>  <m_primary>  (33) 
energy

>  <rmsd>  (33) 
2.4597059888133157

>  <m_score__min__rmsd>  (33) 
2.4597059888133157

>  <meeko>  (33) 
{"free_energy": -8.48, "intermolecular_energy": -10.57, "internal_energy": -2.04, "cluster_size": 45, "cluster_id": 1, "rank_in_cluster": 29}

>  <energy>  (33) 
-8.37

>  <cluster_rmsd>  (33) 
1.92

>  <cluster>  (33) 
1

$$$$

     RDKit          3D

 62 65  0  0  0  0  0  0  0  0999 V2000
  140.8880   71.8400  221.2730 O   0  0  0  0  0  0  0  0  0  0  0  0
  140.3740   72.2870  222.3400 C   0  0  0  0  0  0  0  0  0  0  0  0
  139.9480   73.6640  222.2720 N   0  0  0  0  0  0  0  0  0  0  0  0
  140.1720   74.3190  220.9990 C   0  0  0  0  0  0  0  0  0  0  0  0
  141.1830   75.4240  221.2440 C   0  0  0  0  0  0  0  0  0  0  0  0
  141.0360   76.0160  222.3350 O   0  0  0  0  0  0  0  0  0  0  0  0
  142.1590   75.6760  220.2610 N   0  0  0  0  0  0  0  0  0  0  0  0
  142.8750   74.5050  219.7440 C   0  0  0  0  0  0  0  0  0  0  0  0
  142.6380   74.4640  218.2250 C   0  0  0  0  0  0  0  0  0  0  0  0
  143.3450   75.6850  217.7080 C   0  0  0  0  0  0  0  0  0  0  0  0
  142.6270   76.9140  218.2250 C   0  0  0  0  0  0  0  0  0  0  0  0
  142.5320   76.9570  219.7150 C   0  0  1  0  0  0  0  0  0  0  0  0
  141.6230   78.0080  220.2550 C   0  0  0  0  0  0  0  0  0  0  0  0
  141.8340   78.5450  221.5300 N   0  0  0  0  0  0  0  0  0  0  0  0
  142.1640   79.8850  221.7530 C   0  0  0  0  0  0  0  0  0  0  0  0
  142.7250   80.0150  223.1800 C   0  0  0  0  0  0  0  0  0  0  0  0
  141.8240   79.3370  224.1700 C   0  0  0  0  0  0  0  0  0  0  0  0
  140.3690   79.3990  223.7520 C   0  0  0  0  0  0  0  0  0  0  0  0
  140.0950   80.6600  222.9720 C   0  0  0  0  0  0  0  0  0  0  0  0
  140.8660   80.7170  221.6870 C   0  0  0  0  0  0  0  0  0  0  0  0
  140.2190   71.4880  223.5450 C   0  0  0  0  0  0  0  0  0  0  0  0
  139.5430   70.2770  223.3970 C   0  0  0  0  0  0  0  0  0  0  0  0
  139.3310   69.4350  224.4690 C   0  0  0  0  0  0  0  0  0  0  0  0
  139.8260   69.8590  225.6890 C   0  0  0  0  0  0  0  0  0  0  0  0
  139.6430   69.0500  226.8130 C   0  0  0  0  0  0  0  0  0  0  0  0
  140.1150   69.4260  228.0510 C   0  0  0  0  0  0  0  0  0  0  0  0
  139.9100   68.6060  229.1080 F   0  0  0  0  0  0  0  0  0  0  0  0
  140.7810   70.6340  228.1530 C   0  0  0  0  0  0  0  0  0  0  0  0
  140.9790   71.4570  227.0700 C   0  0  0  0  0  0  0  0  0  0  0  0
  140.5000   71.0630  225.8410 C   0  0  0  0  0  0  0  0  0  0  0  0
  140.6900   71.8710  224.7550 N   0  0  0  0  0  0  0  0  0  0  0  0
  139.5130   74.1250  223.1000 H   0  0  0  0  0  0  0  0  0  0  0  0
  140.5681   73.5991  220.2677 H   0  0  0  0  0  0  0  0  0  0  0  0
  139.2334   74.7264  220.5951 H   0  0  0  0  0  0  0  0  0  0  0  0
  143.9505   74.5966  219.9557 H   0  0  0  0  0  0  0  0  0  0  0  0
  142.5131   73.5826  220.2217 H   0  0  0  0  0  0  0  0  0  0  0  0
  143.0671   73.5504  217.7878 H   0  0  0  0  0  0  0  0  0  0  0  0
  141.5690   74.4549  217.9657 H   0  0  0  0  0  0  0  0  0  0  0  0
  144.3865   75.6879  218.0619 H   0  0  0  0  0  0  0  0  0  0  0  0
  143.3426   75.6832  216.6080 H   0  0  0  0  0  0  0  0  0  0  0  0
  143.1717   77.8066  217.8836 H   0  0  0  0  0  0  0  0  0  0  0  0
  141.5998   76.8815  217.8329 H   0  0  0  0  0  0  0  0  0  0  0  0
  143.5484   77.2252  220.0390 H   0  0  0  0  0  0  0  0  0  0  0  0
  141.6608   78.8503  219.5485 H   0  0  0  0  0  0  0  0  0  0  0  0
  140.6679   77.4740  220.3673 H   0  0  0  0  0  0  0  0  0  0  0  0
  142.1350   77.8690  222.2670 H   0  0  0  0  0  0  0  0  0  0  0  0
  142.8963   80.2292  221.0079 H   0  0  0  0  0  0  0  0  0  0  0  0
  143.7206   79.5489  223.2201 H   0  0  0  0  0  0  0  0  0  0  0  0
  142.7917   81.0825  223.4370 H   0  0  0  0  0  0  0  0  0  0  0  0
  142.1233   78.2821  224.2575 H   0  0  0  0  0  0  0  0  0  0  0  0
  141.9227   79.8610  225.1321 H   0  0  0  0  0  0  0  0  0  0  0  0
  140.1359   78.5270  223.1233 H   0  0  0  0  0  0  0  0  0  0  0  0
  139.7400   79.3961  224.6544 H   0  0  0  0  0  0  0  0  0  0  0  0
  139.0204   80.7062  222.7414 H   0  0  0  0  0  0  0  0  0  0  0  0
  140.4117   81.5124  223.5909 H   0  0  0  0  0  0  0  0  0  0  0  0
  140.2341   80.3252  220.8763 H   0  0  0  0  0  0  0  0  0  0  0  0
  141.1440   81.7655  221.5043 H   0  0  0  0  0  0  0  0  0  0  0  0
  139.1706   69.9869  222.4034 H   0  0  0  0  0  0  0  0  0  0  0  0
  138.7977   68.4792  224.3596 H   0  0  0  0  0  0  0  0  0  0  0  0
  139.1110   68.0930  226.7072 H   0  0  0  0  0  0  0  0  0  0  0  0
  141.1656   70.9469  229.1349 H   0  0  0  0  0  0  0  0  0  0  0  0
  141.5107   72.4133  227.1833 H   0  0  0  0  0  0  0  0  0  0  0  0
  1  2  2  0
  2  3  1  0
  3  4  1  0
  4  5  1  0
  5  6  2  0
  5  7  1  0
  7  8  1  0
  8  9  1  0
  9 10  1  0
 10 11  1  0
 11 12  1  0
 12 13  1  0
 13 14  1  0
 14 15  1  0
 15 16  1  0
 16 17  1  0
 17 18  1  0
 18 19  1  0
 19 20  1  0
  2 21  1  0
 21 22  2  0
 22 23  1  0
 23 24  2  0
 24 25  1  0
 25 26  2  0
 26 27  1  0
 26 28  1  0
 28 29  2  0
 29 30  1  0
 30 31  2  0
 12  7  1  0
 20 15  1  0
 31 21  1  0
 30 24  1  0
  3 32  1  0
  4 33  1  0
  4 34  1  0
  8 35  1  0
  8 36  1  0
  9 37  1  0
  9 38  1  0
 10 39  1  0
 10 40  1  0
 11 41  1  0
 11 42  1  0
 12 43  1  1
 13 44  1  0
 13 45  1  0
 14 46  1  0
 15 47  1  0
 16 48  1  0
 16 49  1  0
 17 50  1  0
 17 51  1  0
 18 52  1  0
 18 53  1  0
 19 54  1  0
 19 55  1  0
 20 56  1  0
 20 57  1  0
 22 58  1  0
 23 59  1  0
 25 60  1  0
 28 61  1  0
 29 62  1  0
M  END
>  <smiles>  (34) 
O=C(NCC(=O)N1CCCC[C@H]1CNC1CCCCC1)c1ccc2cc(F)ccc2n1

>  <score_type>  (34) 
oracle

>  <origin>  (34) 
autodockgpu

>  <m_score__min__energy>  (34) 
-9.5700000000000003

>  <m_primary>  (34) 
energy

>  <rmsd>  (34) 
2.52978532686192

>  <m_score__min__rmsd>  (34) 
2.52978532686192

>  <meeko>  (34) 
{"free_energy": -9.36, "intermolecular_energy": -11.45, "internal_energy": -2.48, "cluster_size": 45, "cluster_id": 1, "rank_in_cluster": 6}

>  <energy>  (34) 
-8.34

>  <cluster_rmsd>  (34) 
1.3

>  <cluster>  (34) 
1

$$$$

     RDKit          3D

 62 65  0  0  0  0  0  0  0  0999 V2000
  140.9730   72.0490  221.4180 O   0  0  0  0  0  0  0  0  0  0  0  0
  140.2400   72.3110  222.4150 C   0  0  0  0  0  0  0  0  0  0  0  0
  139.4480   73.5100  222.2810 N   0  0  0  0  0  0  0  0  0  0  0  0
  139.6130   74.2260  221.0320 C   0  0  0  0  0  0  0  0  0  0  0  0
  140.3120   75.5310  221.3600 C   0  0  0  0  0  0  0  0  0  0  0  0
  139.6690   76.2740  222.1330 O   0  0  0  0  0  0  0  0  0  0  0  0
  141.5750   75.7820  220.7910 N   0  0  0  0  0  0  0  0  0  0  0  0
  142.5410   74.6800  220.8430 C   0  0  0  0  0  0  0  0  0  0  0  0
  142.9410   74.3590  219.3930 C   0  0  0  0  0  0  0  0  0  0  0  0
  143.6840   75.5830  218.9360 C   0  0  0  0  0  0  0  0  0  0  0  0
  142.7120   76.7420  218.8710 C   0  0  0  0  0  0  0  0  0  0  0  0
  142.0200   77.0040  220.1690 C   0  0  1  0  0  0  0  0  0  0  0  0
  140.8810   77.9630  220.0890 C   0  0  0  0  0  0  0  0  0  0  0  0
  140.4980   78.7070  221.2110 N   0  0  0  0  0  0  0  0  0  0  0  0
  140.7350   80.0780  221.3390 C   0  0  0  0  0  0  0  0  0  0  0  0
  142.2170   80.2820  221.7000 C   0  0  0  0  0  0  0  0  0  0  0  0
  142.6150   79.3890  222.8380 C   0  0  0  0  0  0  0  0  0  0  0  0
  141.4680   79.1410  223.7960 C   0  0  0  0  0  0  0  0  0  0  0  0
  140.5490   80.3350  223.8420 C   0  0  0  0  0  0  0  0  0  0  0  0
  139.8940   80.6040  222.5210 C   0  0  0  0  0  0  0  0  0  0  0  0
  140.1880   71.4800  223.6070 C   0  0  0  0  0  0  0  0  0  0  0  0
  139.5890   70.2300  223.4580 C   0  0  0  0  0  0  0  0  0  0  0  0
  139.4780   69.3540  224.5190 C   0  0  0  0  0  0  0  0  0  0  0  0
  139.9940   69.7850  225.7270 C   0  0  0  0  0  0  0  0  0  0  0  0
  139.9120   68.9440  226.8380 C   0  0  0  0  0  0  0  0  0  0  0  0
  140.4090   69.3250  228.0650 C   0  0  0  0  0  0  0  0  0  0  0  0
  140.3030   68.4730  229.1100 F   0  0  0  0  0  0  0  0  0  0  0  0
  140.9970   70.5740  228.1680 C   0  0  0  0  0  0  0  0  0  0  0  0
  141.0950   71.4300  227.0970 C   0  0  0  0  0  0  0  0  0  0  0  0
  140.5920   71.0290  225.8790 C   0  0  0  0  0  0  0  0  0  0  0  0
  140.6820   71.8700  224.8050 N   0  0  0  0  0  0  0  0  0  0  0  0
  138.8110   73.8130  223.0500 H   0  0  0  0  0  0  0  0  0  0  0  0
  140.2246   73.6343  220.3350 H   0  0  0  0  0  0  0  0  0  0  0  0
  138.6401   74.4106  220.5531 H   0  0  0  0  0  0  0  0  0  0  0  0
  143.4271   74.9821  221.4206 H   0  0  0  0  0  0  0  0  0  0  0  0
  142.1020   73.7979  221.3320 H   0  0  0  0  0  0  0  0  0  0  0  0
  143.5900   73.4717  219.3546 H   0  0  0  0  0  0  0  0  0  0  0  0
  142.0729   74.1311  218.7570 H   0  0  0  0  0  0  0  0  0  0  0  0
  144.4899   75.8147  219.6480 H   0  0  0  0  0  0  0  0  0  0  0  0
  144.1250   75.4063  217.9439 H   0  0  0  0  0  0  0  0  0  0  0  0
  143.2661   77.6470  218.5814 H   0  0  0  0  0  0  0  0  0  0  0  0
  141.9378   76.4781  218.1355 H   0  0  0  0  0  0  0  0  0  0  0  0
  142.7906   77.4844  220.7898 H   0  0  0  0  0  0  0  0  0  0  0  0
  141.1344   78.6882  219.3017 H   0  0  0  0  0  0  0  0  0  0  0  0
  140.0154   77.3052  219.9215 H   0  0  0  0  0  0  0  0  0  0  0  0
  140.3990   78.1730  222.1030 H   0  0  0  0  0  0  0  0  0  0  0  0
  140.4798   80.5999  220.4049 H   0  0  0  0  0  0  0  0  0  0  0  0
  142.8377   80.0469  220.8228 H   0  0  0  0  0  0  0  0  0  0  0  0
  142.3654   81.3287  222.0041 H   0  0  0  0  0  0  0  0  0  0  0  0
  142.9519   78.4243  222.4307 H   0  0  0  0  0  0  0  0  0  0  0  0
  143.4200   79.8897  223.3959 H   0  0  0  0  0  0  0  0  0  0  0  0
  140.9005   78.2604  223.4605 H   0  0  0  0  0  0  0  0  0  0  0  0
  141.8769   78.9687  224.8025 H   0  0  0  0  0  0  0  0  0  0  0  0
  139.7667   80.1498  224.5928 H   0  0  0  0  0  0  0  0  0  0  0  0
  141.1560   81.2152  224.1005 H   0  0  0  0  0  0  0  0  0  0  0  0
  138.9114   80.1098  222.5050 H   0  0  0  0  0  0  0  0  0  0  0  0
  139.7942   81.6936  222.4077 H   0  0  0  0  0  0  0  0  0  0  0  0
  139.1963   69.9354  222.4736 H   0  0  0  0  0  0  0  0  0  0  0  0
  139.0049   68.3670  224.4093 H   0  0  0  0  0  0  0  0  0  0  0  0
  139.4405   67.9559  226.7315 H   0  0  0  0  0  0  0  0  0  0  0  0
  141.3998   70.8925  229.1408 H   0  0  0  0  0  0  0  0  0  0  0  0
  141.5665   72.4173  227.2105 H   0  0  0  0  0  0  0  0  0  0  0  0
  1  2  2  0
  2  3  1  0
  3  4  1  0
  4  5  1  0
  5  6  2  0
  5  7  1  0
  7  8  1  0
  8  9  1  0
  9 10  1  0
 10 11  1  0
 11 12  1  0
 12 13  1  0
 13 14  1  0
 14 15  1  0
 15 16  1  0
 16 17  1  0
 17 18  1  0
 18 19  1  0
 19 20  1  0
  2 21  1  0
 21 22  2  0
 22 23  1  0
 23 24  2  0
 24 25  1  0
 25 26  2  0
 26 27  1  0
 26 28  1  0
 28 29  2  0
 29 30  1  0
 30 31  2  0
 12  7  1  0
 20 15  1  0
 31 21  1  0
 30 24  1  0
  3 32  1  0
  4 33  1  0
  4 34  1  0
  8 35  1  0
  8 36  1  0
  9 37  1  0
  9 38  1  0
 10 39  1  0
 10 40  1  0
 11 41  1  0
 11 42  1  0
 12 43  1  1
 13 44  1  0
 13 45  1  0
 14 46  1  0
 15 47  1  0
 16 48  1  0
 16 49  1  0
 17 50  1  0
 17 51  1  0
 18 52  1  0
 18 53  1  0
 19 54  1  0
 19 55  1  0
 20 56  1  0
 20 57  1  0
 22 58  1  0
 23 59  1  0
 25 60  1  0
 28 61  1  0
 29 62  1  0
M  END
>  <smiles>  (35) 
O=C(NCC(=O)N1CCCC[C@H]1CNC1CCCCC1)c1ccc2cc(F)ccc2n1

>  <score_type>  (35) 
oracle

>  <origin>  (35) 
autodockgpu

>  <m_score__min__energy>  (35) 
-9.5700000000000003

>  <m_primary>  (35) 
energy

>  <rmsd>  (35) 
2.59190141969605

>  <m_score__min__rmsd>  (35) 
2.59190141969605

>  <meeko>  (35) 
{"free_energy": -8.72, "intermolecular_energy": -10.81, "internal_energy": -2.53, "cluster_size": 45, "cluster_id": 1, "rank_in_cluster": 23}

>  <energy>  (35) 
-8.34

>  <cluster_rmsd>  (35) 
1.69

>  <cluster>  (35) 
1

$$$$

     RDKit          3D

 62 65  0  0  0  0  0  0  0  0999 V2000
  138.2500   72.1100  222.2850 O   0  0  0  0  0  0  0  0  0  0  0  0
  139.3680   72.0030  222.8680 C   0  0  0  0  0  0  0  0  0  0  0  0
  140.4080   72.8510  222.3360 N   0  0  0  0  0  0  0  0  0  0  0  0
  140.0130   73.6910  221.2230 C   0  0  0  0  0  0  0  0  0  0  0  0
  140.0960   75.1270  221.7050 C   0  0  0  0  0  0  0  0  0  0  0  0
  141.1450   75.3960  222.3290 O   0  0  0  0  0  0  0  0  0  0  0  0
  139.0270   75.9980  221.4180 N   0  0  0  0  0  0  0  0  0  0  0  0
  137.6940   75.5460  221.8310 C   0  0  0  0  0  0  0  0  0  0  0  0
  137.1330   76.6100  222.7900 C   0  0  0  0  0  0  0  0  0  0  0  0
  136.9450   77.8240  221.9250 C   0  0  0  0  0  0  0  0  0  0  0  0
  138.3080   78.3170  221.4830 C   0  0  0  0  0  0  0  0  0  0  0  0
  139.1030   77.2790  220.7600 C   0  0  1  0  0  0  0  0  0  0  0  0
  140.5320   77.6330  220.5300 C   0  0  0  0  0  0  0  0  0  0  0  0
  141.3360   78.0730  221.5880 N   0  0  0  0  0  0  0  0  0  0  0  0
  141.9270   79.3390  221.6270 C   0  0  0  0  0  0  0  0  0  0  0  0
  142.6730   79.4840  222.9660 C   0  0  0  0  0  0  0  0  0  0  0  0
  141.7910   79.0820  224.1120 C   0  0  0  0  0  0  0  0  0  0  0  0
  140.3320   79.3850  223.8420 C   0  0  0  0  0  0  0  0  0  0  0  0
  140.1970   80.6020  222.9610 C   0  0  0  0  0  0  0  0  0  0  0  0
  140.8030   80.3950  221.6050 C   0  0  0  0  0  0  0  0  0  0  0  0
  139.6010   71.1020  223.9850 C   0  0  0  0  0  0  0  0  0  0  0  0
  139.2100   69.7770  223.7970 C   0  0  0  0  0  0  0  0  0  0  0  0
  139.3770   68.8290  224.7860 C   0  0  0  0  0  0  0  0  0  0  0  0
  139.9520   69.2680  225.9650 C   0  0  0  0  0  0  0  0  0  0  0  0
  140.1480   68.3570  227.0040 C   0  0  0  0  0  0  0  0  0  0  0  0
  140.7150   68.7420  228.1990 C   0  0  0  0  0  0  0  0  0  0  0  0
  140.8810   67.8190  229.1750 F   0  0  0  0  0  0  0  0  0  0  0  0
  141.0900   70.0660  228.3420 C   0  0  0  0  0  0  0  0  0  0  0  0
  140.9130   70.9920  227.3430 C   0  0  0  0  0  0  0  0  0  0  0  0
  140.3440   70.5860  226.1560 C   0  0  0  0  0  0  0  0  0  0  0  0
  140.1610   71.4960  225.1520 N   0  0  0  0  0  0  0  0  0  0  0  0
  141.3670   72.8350  222.7470 H   0  0  0  0  0  0  0  0  0  0  0  0
  140.6936   73.5373  220.3726 H   0  0  0  0  0  0  0  0  0  0  0  0
  138.9947   73.4464  220.8865 H   0  0  0  0  0  0  0  0  0  0  0  0
  137.0398   75.4475  220.9522 H   0  0  0  0  0  0  0  0  0  0  0  0
  137.7487   74.5642  222.3240 H   0  0  0  0  0  0  0  0  0  0  0  0
  136.1735   76.2830  223.2171 H   0  0  0  0  0  0  0  0  0  0  0  0
  137.7995   76.8005  223.6441 H   0  0  0  0  0  0  0  0  0  0  0  0
  136.3419   77.5613  221.0434 H   0  0  0  0  0  0  0  0  0  0  0  0
  136.4250   78.6117  222.4899 H   0  0  0  0  0  0  0  0  0  0  0  0
  138.1680   79.1790  220.8141 H   0  0  0  0  0  0  0  0  0  0  0  0
  138.8689   78.5852  222.3905 H   0  0  0  0  0  0  0  0  0  0  0  0
  138.6307   77.2234  219.7681 H   0  0  0  0  0  0  0  0  0  0  0  0
  141.0164   76.7351  220.1189 H   0  0  0  0  0  0  0  0  0  0  0  0
  140.4650   78.5218  219.8853 H   0  0  0  0  0  0  0  0  0  0  0  0
  141.8110   77.3260  222.1430 H   0  0  0  0  0  0  0  0  0  0  0  0
  142.6125   79.4695  220.7766 H   0  0  0  0  0  0  0  0  0  0  0  0
  143.5648   78.8402  222.9539 H   0  0  0  0  0  0  0  0  0  0  0  0
  142.9636   80.5369  223.0963 H   0  0  0  0  0  0  0  0  0  0  0  0
  141.9029   78.0012  224.2835 H   0  0  0  0  0  0  0  0  0  0  0  0
  142.0991   79.6605  224.9954 H   0  0  0  0  0  0  0  0  0  0  0  0
  139.8704   78.5220  223.3397 H   0  0  0  0  0  0  0  0  0  0  0  0
  139.8276   79.5824  224.7994 H   0  0  0  0  0  0  0  0  0  0  0  0
  139.1285   80.8333  222.8391 H   0  0  0  0  0  0  0  0  0  0  0  0
  140.7352   81.4294  223.4466 H   0  0  0  0  0  0  0  0  0  0  0  0
  140.0164   80.0614  220.9121 H   0  0  0  0  0  0  0  0  0  0  0  0
  141.2418   81.3501  221.2806 H   0  0  0  0  0  0  0  0  0  0  0  0
  138.7583   69.4805  222.8389 H   0  0  0  0  0  0  0  0  0  0  0  0
  139.0699   67.7823  224.6445 H   0  0  0  0  0  0  0  0  0  0  0  0
  139.8432   67.3092  226.8657 H   0  0  0  0  0  0  0  0  0  0  0  0
  141.5462   70.3887  229.2895 H   0  0  0  0  0  0  0  0  0  0  0  0
  141.2199   72.0383  227.4882 H   0  0  0  0  0  0  0  0  0  0  0  0
  1  2  2  0
  2  3  1  0
  3  4  1  0
  4  5  1  0
  5  6  2  0
  5  7  1  0
  7  8  1  0
  8  9  1  0
  9 10  1  0
 10 11  1  0
 11 12  1  0
 12 13  1  0
 13 14  1  0
 14 15  1  0
 15 16  1  0
 16 17  1  0
 17 18  1  0
 18 19  1  0
 19 20  1  0
  2 21  1  0
 21 22  2  0
 22 23  1  0
 23 24  2  0
 24 25  1  0
 25 26  2  0
 26 27  1  0
 26 28  1  0
 28 29  2  0
 29 30  1  0
 30 31  2  0
 12  7  1  0
 20 15  1  0
 31 21  1  0
 30 24  1  0
  3 32  1  0
  4 33  1  0
  4 34  1  0
  8 35  1  0
  8 36  1  0
  9 37  1  0
  9 38  1  0
 10 39  1  0
 10 40  1  0
 11 41  1  0
 11 42  1  0
 12 43  1  6
 13 44  1  0
 13 45  1  0
 14 46  1  0
 15 47  1  0
 16 48  1  0
 16 49  1  0
 17 50  1  0
 17 51  1  0
 18 52  1  0
 18 53  1  0
 19 54  1  0
 19 55  1  0
 20 56  1  0
 20 57  1  0
 22 58  1  0
 23 59  1  0
 25 60  1  0
 28 61  1  0
 29 62  1  0
M  END
>  <smiles>  (36) 
O=C(NCC(=O)N1CCCC[C@H]1CNC1CCCCC1)c1ccc2cc(F)ccc2n1

>  <score_type>  (36) 
oracle

>  <origin>  (36) 
autodockgpu

>  <m_score__min__energy>  (36) 
-9.5700000000000003

>  <m_primary>  (36) 
energy

>  <rmsd>  (36) 
3.0464904660911487

>  <m_score__min__rmsd>  (36) 
3.0464904660911487

>  <meeko>  (36) 
{"free_energy": -8.29, "intermolecular_energy": -10.38, "internal_energy": -2.77, "cluster_size": 45, "cluster_id": 1, "rank_in_cluster": 37}

>  <energy>  (36) 
-8.33

>  <cluster_rmsd>  (36) 
1.99

>  <cluster>  (36) 
1

$$$$

     RDKit          3D

 62 65  0  0  0  0  0  0  0  0999 V2000
  133.3050   70.4390  226.4050 O   0  0  0  0  0  0  0  0  0  0  0  0
  133.7450   71.5800  226.0820 C   0  0  0  0  0  0  0  0  0  0  0  0
  134.8320   71.5600  225.1320 N   0  0  0  0  0  0  0  0  0  0  0  0
  135.2490   70.2420  224.6960 C   0  0  0  0  0  0  0  0  0  0  0  0
  136.6220   70.3990  224.0710 C   0  0  0  0  0  0  0  0  0  0  0  0
  137.1600   71.5050  224.2930 O   0  0  0  0  0  0  0  0  0  0  0  0
  137.1500   69.3280  223.3250 N   0  0  0  0  0  0  0  0  0  0  0  0
  136.5970   69.1400  221.9790 C   0  0  0  0  0  0  0  0  0  0  0  0
  137.7700   69.2400  220.9890 C   0  0  0  0  0  0  0  0  0  0  0  0
  138.6160   68.0370  221.2970 C   0  0  0  0  0  0  0  0  0  0  0  0
  139.2040   68.2020  222.6830 C   0  0  0  0  0  0  0  0  0  0  0  0
  138.1690   68.3970  223.7420 C   0  0  1  0  0  0  0  0  0  0  0  0
  138.7030   68.8120  225.0710 C   0  0  0  0  0  0  0  0  0  0  0  0
  139.3710   70.0330  225.2190 N   0  0  0  0  0  0  0  0  0  0  0  0
  140.7530   70.1340  225.4010 C   0  0  0  0  0  0  0  0  0  0  0  0
  141.2010   69.0070  226.3480 C   0  0  0  0  0  0  0  0  0  0  0  0
  140.3320   68.9620  227.5700 C   0  0  0  0  0  0  0  0  0  0  0  0
  139.8260   70.3350  227.9610 C   0  0  0  0  0  0  0  0  0  0  0  0
  140.8290   71.3960  227.5840 C   0  0  0  0  0  0  0  0  0  0  0  0
  141.0490   71.4750  226.1040 C   0  0  0  0  0  0  0  0  0  0  0  0
  133.2090   72.8220  226.6170 C   0  0  0  0  0  0  0  0  0  0  0  0
  132.0200   72.7180  227.3370 C   0  0  0  0  0  0  0  0  0  0  0  0
  131.4140   73.8270  227.8900 C   0  0  0  0  0  0  0  0  0  0  0  0
  132.0500   75.0380  227.6900 C   0  0  0  0  0  0  0  0  0  0  0  0
  131.4860   76.1980  228.2250 C   0  0  0  0  0  0  0  0  0  0  0  0
  132.0790   77.4290  228.0540 C   0  0  0  0  0  0  0  0  0  0  0  0
  131.4900   78.5220  228.5910 F   0  0  0  0  0  0  0  0  0  0  0  0
  133.2590   77.4870  227.3330 C   0  0  0  0  0  0  0  0  0  0  0  0
  133.8440   76.3680  226.7910 C   0  0  0  0  0  0  0  0  0  0  0  0
  133.2350   75.1460  226.9740 C   0  0  0  0  0  0  0  0  0  0  0  0
  133.8050   74.0240  226.4400 N   0  0  0  0  0  0  0  0  0  0  0  0
  135.2660   72.4500  224.8030 H   0  0  0  0  0  0  0  0  0  0  0  0
  135.3007   69.5578  225.5558 H   0  0  0  0  0  0  0  0  0  0  0  0
  134.5335   69.8212  223.9742 H   0  0  0  0  0  0  0  0  0  0  0  0
  136.1213   68.1512  221.9014 H   0  0  0  0  0  0  0  0  0  0  0  0
  135.8341   69.9015  221.7597 H   0  0  0  0  0  0  0  0  0  0  0  0
  137.4081   69.2069  219.9508 H   0  0  0  0  0  0  0  0  0  0  0  0
  138.3267   70.1834  221.0893 H   0  0  0  0  0  0  0  0  0  0  0  0
  137.9957   67.1292  221.2632 H   0  0  0  0  0  0  0  0  0  0  0  0
  139.4228   67.9449  220.5550 H   0  0  0  0  0  0  0  0  0  0  0  0
  139.7865   67.3008  222.9252 H   0  0  0  0  0  0  0  0  0  0  0  0
  139.8297   69.1066  222.6670 H   0  0  0  0  0  0  0  0  0  0  0  0
  137.7344   67.3956  223.8771 H   0  0  0  0  0  0  0  0  0  0  0  0
  137.8467   68.8357  225.7611 H   0  0  0  0  0  0  0  0  0  0  0  0
  139.4949   68.0725  225.2609 H   0  0  0  0  0  0  0  0  0  0  0  0
  138.8000   70.8250  225.5900 H   0  0  0  0  0  0  0  0  0  0  0  0
  141.2729   70.0677  224.4339 H   0  0  0  0  0  0  0  0  0  0  0  0
  141.1322   68.0441  225.8207 H   0  0  0  0  0  0  0  0  0  0  0  0
  142.2383   69.1993  226.6595 H   0  0  0  0  0  0  0  0  0  0  0  0
  139.4691   68.3105  227.3677 H   0  0  0  0  0  0  0  0  0  0  0  0
  140.9382   68.5750  228.4023 H   0  0  0  0  0  0  0  0  0  0  0  0
  138.8773   70.5327  227.4405 H   0  0  0  0  0  0  0  0  0  0  0  0
  139.6742   70.3607  229.0502 H   0  0  0  0  0  0  0  0  0  0  0  0
  140.4625   72.3705  227.9390 H   0  0  0  0  0  0  0  0  0  0  0  0
  141.7887   71.1311  228.0517 H   0  0  0  0  0  0  0  0  0  0  0  0
  140.3860   72.2477  225.6876 H   0  0  0  0  0  0  0  0  0  0  0  0
  142.1070   71.7217  225.9315 H   0  0  0  0  0  0  0  0  0  0  0  0
  131.5547   71.7298  227.4671 H   0  0  0  0  0  0  0  0  0  0  0  0
  130.4757   73.7518  228.4592 H   0  0  0  0  0  0  0  0  0  0  0  0
  130.5480   76.1269  228.7952 H   0  0  0  0  0  0  0  0  0  0  0  0
  133.7455   78.4630  227.1888 H   0  0  0  0  0  0  0  0  0  0  0  0
  134.7817   76.4466  226.2213 H   0  0  0  0  0  0  0  0  0  0  0  0
  1  2  2  0
  2  3  1  0
  3  4  1  0
  4  5  1  0
  5  6  2  0
  5  7  1  0
  7  8  1  0
  8  9  1  0
  9 10  1  0
 10 11  1  0
 11 12  1  0
 12 13  1  0
 13 14  1  0
 14 15  1  0
 15 16  1  0
 16 17  1  0
 17 18  1  0
 18 19  1  0
 19 20  1  0
  2 21  1  0
 21 22  2  0
 22 23  1  0
 23 24  2  0
 24 25  1  0
 25 26  2  0
 26 27  1  0
 26 28  1  0
 28 29  2  0
 29 30  1  0
 30 31  2  0
 12  7  1  0
 20 15  1  0
 31 21  1  0
 30 24  1  0
  3 32  1  0
  4 33  1  0
  4 34  1  0
  8 35  1  0
  8 36  1  0
  9 37  1  0
  9 38  1  0
 10 39  1  0
 10 40  1  0
 11 41  1  0
 11 42  1  0
 12 43  1  1
 13 44  1  0
 13 45  1  0
 14 46  1  0
 15 47  1  0
 16 48  1  0
 16 49  1  0
 17 50  1  0
 17 51  1  0
 18 52  1  0
 18 53  1  0
 19 54  1  0
 19 55  1  0
 20 56  1  0
 20 57  1  0
 22 58  1  0
 23 59  1  0
 25 60  1  0
 28 61  1  0
 29 62  1  0
M  END
>  <smiles>  (37) 
O=C(NCC(=O)N1CCCC[C@H]1CNC1CCCCC1)c1ccc2cc(F)ccc2n1

>  <score_type>  (37) 
oracle

>  <origin>  (37) 
autodockgpu

>  <m_score__min__energy>  (37) 
-9.5700000000000003

>  <m_primary>  (37) 
energy

>  <rmsd>  (37) 
9.660706993420288

>  <m_score__min__rmsd>  (37) 
9.660706993420288

>  <meeko>  (37) 
{"free_energy": -7.42, "intermolecular_energy": -9.51, "internal_energy": -2.79, "cluster_size": 1, "cluster_id": 5, "rank_in_cluster": 1}

>  <energy>  (37) 
-8.29

>  <cluster_rmsd>  (37) 
1.67

>  <cluster>  (37) 
1

$$$$

     RDKit          3D

 62 65  0  0  0  0  0  0  0  0999 V2000
  141.2100   72.0070  221.3590 O   0  0  0  0  0  0  0  0  0  0  0  0
  140.4730   72.3430  222.3310 C   0  0  0  0  0  0  0  0  0  0  0  0
  139.8130   73.6170  222.1740 N   0  0  0  0  0  0  0  0  0  0  0  0
  140.0950   74.3120  220.9330 C   0  0  0  0  0  0  0  0  0  0  0  0
  141.0230   75.4620  221.2740 C   0  0  0  0  0  0  0  0  0  0  0  0
  140.7740   76.0120  222.3690 O   0  0  0  0  0  0  0  0  0  0  0  0
  142.0440   75.7970  220.3640 N   0  0  0  0  0  0  0  0  0  0  0  0
  143.0290   74.7490  220.0800 C   0  0  0  0  0  0  0  0  0  0  0  0
  142.9890   74.4880  218.5640 C   0  0  0  0  0  0  0  0  0  0  0  0
  143.5050   75.7630  217.9570 C   0  0  0  0  0  0  0  0  0  0  0  0
  142.5060   76.8680  218.2320 C   0  0  0  0  0  0  0  0  0  0  0  0
  142.2260   77.0580  219.6870 C   0  0  1  0  0  0  0  0  0  0  0  0
  141.0730   77.9530  219.9910 C   0  0  0  0  0  0  0  0  0  0  0  0
  141.0150   78.6520  221.2020 N   0  0  0  0  0  0  0  0  0  0  0  0
  141.8290   79.7500  221.4940 C   0  0  0  0  0  0  0  0  0  0  0  0
  142.6710   79.4120  222.7370 C   0  0  0  0  0  0  0  0  0  0  0  0
  141.8050   78.8660  223.8340 C   0  0  0  0  0  0  0  0  0  0  0  0
  140.4120   79.4600  223.8090 C   0  0  0  0  0  0  0  0  0  0  0  0
  140.4470   80.8720  223.2820 C   0  0  0  0  0  0  0  0  0  0  0  0
  140.9180   80.9400  221.8600 C   0  0  0  0  0  0  0  0  0  0  0  0
  140.2940   71.5210  223.5170 C   0  0  0  0  0  0  0  0  0  0  0  0
  139.5920   70.3300  223.3390 C   0  0  0  0  0  0  0  0  0  0  0  0
  139.3560   69.4690  224.3920 C   0  0  0  0  0  0  0  0  0  0  0  0
  139.8550   69.8540  225.6230 C   0  0  0  0  0  0  0  0  0  0  0  0
  139.6500   69.0250  226.7270 C   0  0  0  0  0  0  0  0  0  0  0  0
  140.1260   69.3620  227.9750 C   0  0  0  0  0  0  0  0  0  0  0  0
  139.8980   68.5230  229.0130 F   0  0  0  0  0  0  0  0  0  0  0  0
  140.8190   70.5520  228.1070 C   0  0  0  0  0  0  0  0  0  0  0  0
  141.0410   71.3940  227.0430 C   0  0  0  0  0  0  0  0  0  0  0  0
  140.5560   71.0390  225.8030 C   0  0  0  0  0  0  0  0  0  0  0  0
  140.7690   71.8660  224.7370 N   0  0  0  0  0  0  0  0  0  0  0  0
  139.1840   73.9840  222.9210 H   0  0  0  0  0  0  0  0  0  0  0  0
  140.5827   73.6308  220.2202 H   0  0  0  0  0  0  0  0  0  0  0  0
  139.1683   74.6783  220.4672 H   0  0  0  0  0  0  0  0  0  0  0  0
  144.0332   75.0843  220.3786 H   0  0  0  0  0  0  0  0  0  0  0  0
  142.7970   73.8317  220.6411 H   0  0  0  0  0  0  0  0  0  0  0  0
  143.6356   73.6391  218.2970 H   0  0  0  0  0  0  0  0  0  0  0  0
  141.9812   74.2290  218.2073 H   0  0  0  0  0  0  0  0  0  0  0  0
  144.4756   76.0208  218.4058 H   0  0  0  0  0  0  0  0  0  0  0  0
  143.6364   75.6365  216.8722 H   0  0  0  0  0  0  0  0  0  0  0  0
  142.9053   77.8094  217.8268 H   0  0  0  0  0  0  0  0  0  0  0  0
  141.5593   76.5805  217.7512 H   0  0  0  0  0  0  0  0  0  0  0  0
  143.1255   77.5644  220.0671 H   0  0  0  0  0  0  0  0  0  0  0  0
  141.0398   78.7067  219.1905 H   0  0  0  0  0  0  0  0  0  0  0  0
  140.2299   77.2509  220.0707 H   0  0  0  0  0  0  0  0  0  0  0  0
  140.6540   78.1170  222.0230 H   0  0  0  0  0  0  0  0  0  0  0  0
  142.4722   79.9904  220.6347 H   0  0  0  0  0  0  0  0  0  0  0  0
  143.4276   78.6606  222.4668 H   0  0  0  0  0  0  0  0  0  0  0  0
  143.1563   80.3318  223.0953 H   0  0  0  0  0  0  0  0  0  0  0  0
  141.7277   77.7752  223.7152 H   0  0  0  0  0  0  0  0  0  0  0  0
  142.2690   79.1308  224.7955 H   0  0  0  0  0  0  0  0  0  0  0  0
  139.7693   78.8475  223.1595 H   0  0  0  0  0  0  0  0  0  0  0  0
  140.0138   79.4738  224.8343 H   0  0  0  0  0  0  0  0  0  0  0  0
  139.4334   81.2956  223.3390 H   0  0  0  0  0  0  0  0  0  0  0  0
  141.1575   81.4424  223.8982 H   0  0  0  0  0  0  0  0  0  0  0  0
  140.0416   80.9337  221.1952 H   0  0  0  0  0  0  0  0  0  0  0  0
  141.5025   81.8641  221.7401 H   0  0  0  0  0  0  0  0  0  0  0  0
  139.2179   70.0705  222.3377 H   0  0  0  0  0  0  0  0  0  0  0  0
  138.8015   68.5283  224.2592 H   0  0  0  0  0  0  0  0  0  0  0  0
  139.0968   68.0830  226.5979 H   0  0  0  0  0  0  0  0  0  0  0  0
  141.2057   70.8343  229.0973 H   0  0  0  0  0  0  0  0  0  0  0  0
  141.5958   72.3341  227.1791 H   0  0  0  0  0  0  0  0  0  0  0  0
  1  2  2  0
  2  3  1  0
  3  4  1  0
  4  5  1  0
  5  6  2  0
  5  7  1  0
  7  8  1  0
  8  9  1  0
  9 10  1  0
 10 11  1  0
 11 12  1  0
 12 13  1  0
 13 14  1  0
 14 15  1  0
 15 16  1  0
 16 17  1  0
 17 18  1  0
 18 19  1  0
 19 20  1  0
  2 21  1  0
 21 22  2  0
 22 23  1  0
 23 24  2  0
 24 25  1  0
 25 26  2  0
 26 27  1  0
 26 28  1  0
 28 29  2  0
 29 30  1  0
 30 31  2  0
 12  7  1  0
 20 15  1  0
 31 21  1  0
 30 24  1  0
  3 32  1  0
  4 33  1  0
  4 34  1  0
  8 35  1  0
  8 36  1  0
  9 37  1  0
  9 38  1  0
 10 39  1  0
 10 40  1  0
 11 41  1  0
 11 42  1  0
 12 43  1  1
 13 44  1  0
 13 45  1  0
 14 46  1  0
 15 47  1  0
 16 48  1  0
 16 49  1  0
 17 50  1  0
 17 51  1  0
 18 52  1  0
 18 53  1  0
 19 54  1  0
 19 55  1  0
 20 56  1  0
 20 57  1  0
 22 58  1  0
 23 59  1  0
 25 60  1  0
 28 61  1  0
 29 62  1  0
M  END
>  <smiles>  (38) 
O=C(NCC(=O)N1CCCC[C@H]1CNC1CCCCC1)c1ccc2cc(F)ccc2n1

>  <score_type>  (38) 
oracle

>  <origin>  (38) 
autodockgpu

>  <m_score__min__energy>  (38) 
-9.5700000000000003

>  <m_primary>  (38) 
energy

>  <rmsd>  (38) 
2.5683191325803696

>  <m_score__min__rmsd>  (38) 
2.5683191325803696

>  <meeko>  (38) 
{"free_energy": -8.94, "intermolecular_energy": -11.02, "internal_energy": -2.53, "cluster_size": 45, "cluster_id": 1, "rank_in_cluster": 14}

>  <energy>  (38) 
-8.28

>  <cluster_rmsd>  (38) 
1.66

>  <cluster>  (38) 
1

$$$$

     RDKit          3D

 62 65  0  0  0  0  0  0  0  0999 V2000
  140.2530   71.6250  221.1550 O   0  0  0  0  0  0  0  0  0  0  0  0
  140.0050   72.1000  222.3020 C   0  0  0  0  0  0  0  0  0  0  0  0
  139.6830   73.5070  222.3140 N   0  0  0  0  0  0  0  0  0  0  0  0
  139.6910   74.1550  221.0180 C   0  0  0  0  0  0  0  0  0  0  0  0
  140.5370   75.4070  221.1570 C   0  0  0  0  0  0  0  0  0  0  0  0
  140.6520   75.8170  222.3320 O   0  0  0  0  0  0  0  0  0  0  0  0
  141.0990   75.9740  219.9970 N   0  0  0  0  0  0  0  0  0  0  0  0
  140.6240   77.3140  219.6360 C   0  0  0  0  0  0  0  0  0  0  0  0
  141.8550   78.2370  219.6050 C   0  0  0  0  0  0  0  0  0  0  0  0
  142.6700   77.7260  218.4510 C   0  0  0  0  0  0  0  0  0  0  0  0
  143.1780   76.3400  218.7950 C   0  0  0  0  0  0  0  0  0  0  0  0
  142.0840   75.3790  219.1280 C   0  0  1  0  0  0  0  0  0  0  0  0
  142.5420   74.0860  219.7120 C   0  0  0  0  0  0  0  0  0  0  0  0
  143.6120   74.0530  220.6140 N   0  0  0  0  0  0  0  0  0  0  0  0
  144.1550   72.8670  221.1150 C   0  0  0  0  0  0  0  0  0  0  0  0
  145.6450   73.1070  221.4200 C   0  0  0  0  0  0  0  0  0  0  0  0
  146.3280   73.7580  220.2540 C   0  0  0  0  0  0  0  0  0  0  0  0
  145.7250   73.3350  218.9300 C   0  0  0  0  0  0  0  0  0  0  0  0
  145.1940   71.9260  219.0160 C   0  0  0  0  0  0  0  0  0  0  0  0
  144.0760   71.7960  220.0070 C   0  0  0  0  0  0  0  0  0  0  0  0
  140.0390   71.3040  223.5180 C   0  0  0  0  0  0  0  0  0  0  0  0
  139.5140   70.0160  223.4240 C   0  0  0  0  0  0  0  0  0  0  0  0
  139.4880   69.1680  224.5120 C   0  0  0  0  0  0  0  0  0  0  0  0
  140.0100   69.6660  225.6920 C   0  0  0  0  0  0  0  0  0  0  0  0
  140.0120   68.8570  226.8290 C   0  0  0  0  0  0  0  0  0  0  0  0
  140.5190   69.3050  228.0280 C   0  0  0  0  0  0  0  0  0  0  0  0
  140.4960   68.4800  229.1010 F   0  0  0  0  0  0  0  0  0  0  0  0
  141.0310   70.5890  228.0770 C   0  0  0  0  0  0  0  0  0  0  0  0
  141.0460   71.4160  226.9800 C   0  0  0  0  0  0  0  0  0  0  0  0
  140.5340   70.9490  225.7890 C   0  0  0  0  0  0  0  0  0  0  0  0
  140.5420   71.7600  224.6890 N   0  0  0  0  0  0  0  0  0  0  0  0
  139.4640   73.9930  223.2110 H   0  0  0  0  0  0  0  0  0  0  0  0
  140.1278   73.4851  220.2627 H   0  0  0  0  0  0  0  0  0  0  0  0
  138.6691   74.4038  220.6957 H   0  0  0  0  0  0  0  0  0  0  0  0
  140.1449   77.2906  218.6461 H   0  0  0  0  0  0  0  0  0  0  0  0
  139.8817   77.6754  220.3629 H   0  0  0  0  0  0  0  0  0  0  0  0
  141.5549   79.2820  219.4382 H   0  0  0  0  0  0  0  0  0  0  0  0
  142.4135   78.2263  220.5526 H   0  0  0  0  0  0  0  0  0  0  0  0
  142.0441   77.6778  217.5477 H   0  0  0  0  0  0  0  0  0  0  0  0
  143.5176   78.4009  218.2611 H   0  0  0  0  0  0  0  0  0  0  0  0
  143.7370   75.9483  217.9324 H   0  0  0  0  0  0  0  0  0  0  0  0
  143.8121   76.4364  219.6886 H   0  0  0  0  0  0  0  0  0  0  0  0
  141.6335   75.1406  218.1532 H   0  0  0  0  0  0  0  0  0  0  0  0
  141.6765   73.6518  220.2338 H   0  0  0  0  0  0  0  0  0  0  0  0
  142.9380   73.5468  218.8388 H   0  0  0  0  0  0  0  0  0  0  0  0
  143.7370   74.9030  221.2080 H   0  0  0  0  0  0  0  0  0  0  0  0
  143.6128   72.5480  222.0174 H   0  0  0  0  0  0  0  0  0  0  0  0
  145.7324   73.7607  222.3004 H   0  0  0  0  0  0  0  0  0  0  0  0
  146.1262   72.1372  221.6147 H   0  0  0  0  0  0  0  0  0  0  0  0
  146.2353   74.8496  220.3531 H   0  0  0  0  0  0  0  0  0  0  0  0
  147.3823   73.4441  220.2612 H   0  0  0  0  0  0  0  0  0  0  0  0
  144.9010   74.0171  218.6734 H   0  0  0  0  0  0  0  0  0  0  0  0
  146.5054   73.3738  218.1557 H   0  0  0  0  0  0  0  0  0  0  0  0
  144.8236   71.6269  218.0244 H   0  0  0  0  0  0  0  0  0  0  0  0
  146.0167   71.2774  219.3514 H   0  0  0  0  0  0  0  0  0  0  0  0
  143.1181   71.9038  219.4772 H   0  0  0  0  0  0  0  0  0  0  0  0
  144.1593   70.8083  220.4840 H   0  0  0  0  0  0  0  0  0  0  0  0
  139.1116   69.6681  222.4612 H   0  0  0  0  0  0  0  0  0  0  0  0
  139.0745   68.1509  224.4446 H   0  0  0  0  0  0  0  0  0  0  0  0
  139.5995   67.8392  226.7659 H   0  0  0  0  0  0  0  0  0  0  0  0
  141.4406   70.9611  229.0277 H   0  0  0  0  0  0  0  0  0  0  0  0
  141.4594   72.4329  227.0512 H   0  0  0  0  0  0  0  0  0  0  0  0
  1  2  2  0
  2  3  1  0
  3  4  1  0
  4  5  1  0
  5  6  2  0
  5  7  1  0
  7  8  1  0
  8  9  1  0
  9 10  1  0
 10 11  1  0
 11 12  1  0
 12 13  1  0
 13 14  1  0
 14 15  1  0
 15 16  1  0
 16 17  1  0
 17 18  1  0
 18 19  1  0
 19 20  1  0
  2 21  1  0
 21 22  2  0
 22 23  1  0
 23 24  2  0
 24 25  1  0
 25 26  2  0
 26 27  1  0
 26 28  1  0
 28 29  2  0
 29 30  1  0
 30 31  2  0
 12  7  1  0
 20 15  1  0
 31 21  1  0
 30 24  1  0
  3 32  1  0
  4 33  1  0
  4 34  1  0
  8 35  1  0
  8 36  1  0
  9 37  1  0
  9 38  1  0
 10 39  1  0
 10 40  1  0
 11 41  1  0
 11 42  1  0
 12 43  1  6
 13 44  1  0
 13 45  1  0
 14 46  1  0
 15 47  1  0
 16 48  1  0
 16 49  1  0
 17 50  1  0
 17 51  1  0
 18 52  1  0
 18 53  1  0
 19 54  1  0
 19 55  1  0
 20 56  1  0
 20 57  1  0
 22 58  1  0
 23 59  1  0
 25 60  1  0
 28 61  1  0
 29 62  1  0
M  END
>  <smiles>  (39) 
O=C(NCC(=O)N1CCCC[C@H]1CNC1CCCCC1)c1ccc2cc(F)ccc2n1

>  <score_type>  (39) 
oracle

>  <origin>  (39) 
autodockgpu

>  <m_score__min__energy>  (39) 
-9.5700000000000003

>  <m_primary>  (39) 
energy

>  <rmsd>  (39) 
4.743423449280105

>  <m_score__min__rmsd>  (39) 
4.743423449280105

>  <meeko>  (39) 
{"free_energy": -8.33, "intermolecular_energy": -10.42, "internal_energy": -2.46, "cluster_size": 45, "cluster_id": 1, "rank_in_cluster": 36}

>  <energy>  (39) 
-8.28

>  <cluster_rmsd>  (39) 
1.25

>  <cluster>  (39) 
1

$$$$

     RDKit          3D

 62 65  0  0  0  0  0  0  0  0999 V2000
  140.7880   71.9920  221.3590 O   0  0  0  0  0  0  0  0  0  0  0  0
  140.1110   72.2750  222.3910 C   0  0  0  0  0  0  0  0  0  0  0  0
  139.3370   73.4880  222.2900 N   0  0  0  0  0  0  0  0  0  0  0  0
  139.4520   74.1930  221.0280 C   0  0  0  0  0  0  0  0  0  0  0  0
  140.1320   75.5170  221.3240 C   0  0  0  0  0  0  0  0  0  0  0  0
  139.4200   76.3270  221.9560 O   0  0  0  0  0  0  0  0  0  0  0  0
  141.4550   75.7100  220.8810 N   0  0  0  0  0  0  0  0  0  0  0  0
  142.3030   74.5150  220.8310 C   0  0  0  0  0  0  0  0  0  0  0  0
  142.7840   74.3610  219.3780 C   0  0  0  0  0  0  0  0  0  0  0  0
  143.6750   75.5510  219.1570 C   0  0  0  0  0  0  0  0  0  0  0  0
  142.8260   76.8050  219.2000 C   0  0  0  0  0  0  0  0  0  0  0  0
  142.0620   76.9540  220.4760 C   0  0  1  0  0  0  0  0  0  0  0  0
  141.0290   78.0290  220.4660 C   0  0  0  0  0  0  0  0  0  0  0  0
  140.5490   78.5650  221.6660 N   0  0  0  0  0  0  0  0  0  0  0  0
  141.3310   78.6880  222.8180 C   0  0  0  0  0  0  0  0  0  0  0  0
  140.4990   79.4100  223.8930 C   0  0  0  0  0  0  0  0  0  0  0  0
  139.8690   80.6510  223.3340 C   0  0  0  0  0  0  0  0  0  0  0  0
  140.7250   81.2910  222.2600 C   0  0  0  0  0  0  0  0  0  0  0  0
  142.1880   81.0440  222.5310 C   0  0  0  0  0  0  0  0  0  0  0  0
  142.5400   79.5880  222.4850 C   0  0  0  0  0  0  0  0  0  0  0  0
  140.1040   71.4510  223.5890 C   0  0  0  0  0  0  0  0  0  0  0  0
  139.5430   70.1810  223.4580 C   0  0  0  0  0  0  0  0  0  0  0  0
  139.4760   69.3100  224.5260 C   0  0  0  0  0  0  0  0  0  0  0  0
  139.9960   69.7670  225.7240 C   0  0  0  0  0  0  0  0  0  0  0  0
  139.9580   68.9320  226.8420 C   0  0  0  0  0  0  0  0  0  0  0  0
  140.4610   69.3380  228.0580 C   0  0  0  0  0  0  0  0  0  0  0  0
  140.3980   68.4900  229.1110 F   0  0  0  0  0  0  0  0  0  0  0  0
  141.0100   70.6050  228.1430 C   0  0  0  0  0  0  0  0  0  0  0  0
  141.0650   71.4560  227.0650 C   0  0  0  0  0  0  0  0  0  0  0  0
  140.5560   71.0300  225.8580 C   0  0  0  0  0  0  0  0  0  0  0  0
  140.6040   71.8650  224.7770 N   0  0  0  0  0  0  0  0  0  0  0  0
  138.7460   73.8080  223.0880 H   0  0  0  0  0  0  0  0  0  0  0  0
  140.0570   73.6067  220.3207 H   0  0  0  0  0  0  0  0  0  0  0  0
  138.4629   74.3510  220.5733 H   0  0  0  0  0  0  0  0  0  0  0  0
  143.1654   74.6362  221.5029 H   0  0  0  0  0  0  0  0  0  0  0  0
  141.7437   73.6247  221.1543 H   0  0  0  0  0  0  0  0  0  0  0  0
  143.3457   73.4239  219.2502 H   0  0  0  0  0  0  0  0  0  0  0  0
  141.9512   74.3189  218.6605 H   0  0  0  0  0  0  0  0  0  0  0  0
  144.4392   75.5936  219.9470 H   0  0  0  0  0  0  0  0  0  0  0  0
  144.1758   75.4695  218.1810 H   0  0  0  0  0  0  0  0  0  0  0  0
  143.4851   77.6779  219.0829 H   0  0  0  0  0  0  0  0  0  0  0  0
  142.0909   76.7308  218.3850 H   0  0  0  0  0  0  0  0  0  0  0  0
  142.8237   77.2589  221.2087 H   0  0  0  0  0  0  0  0  0  0  0  0
  141.4526   78.8675  219.8937 H   0  0  0  0  0  0  0  0  0  0  0  0
  140.1462   77.5193  220.0527 H   0  0  0  0  0  0  0  0  0  0  0  0
  139.5170   78.5030  221.8150 H   0  0  0  0  0  0  0  0  0  0  0  0
  141.6564   77.6975  223.1688 H   0  0  0  0  0  0  0  0  0  0  0  0
  139.7085   78.7343  224.2515 H   0  0  0  0  0  0  0  0  0  0  0  0
  141.1641   79.6946  224.7217 H   0  0  0  0  0  0  0  0  0  0  0  0
  138.8929   80.3886  222.9000 H   0  0  0  0  0  0  0  0  0  0  0  0
  139.7593   81.3745  224.1553 H   0  0  0  0  0  0  0  0  0  0  0  0
  140.4606   80.8609  221.2827 H   0  0  0  0  0  0  0  0  0  0  0  0
  140.5422   82.3757  222.2599 H   0  0  0  0  0  0  0  0  0  0  0  0
  142.7822   81.5752  221.7729 H   0  0  0  0  0  0  0  0  0  0  0  0
  142.4076   81.4101  223.5448 H   0  0  0  0  0  0  0  0  0  0  0  0
  142.8983   79.3414  221.4746 H   0  0  0  0  0  0  0  0  0  0  0  0
  143.3181   79.4034  223.2403 H   0  0  0  0  0  0  0  0  0  0  0  0
  139.1452   69.8667  222.4818 H   0  0  0  0  0  0  0  0  0  0  0  0
  139.0335   68.3075  224.4303 H   0  0  0  0  0  0  0  0  0  0  0  0
  139.5169   67.9285  226.7498 H   0  0  0  0  0  0  0  0  0  0  0  0
  141.4169   70.9433  229.1074 H   0  0  0  0  0  0  0  0  0  0  0  0
  141.5072   72.4583  227.1643 H   0  0  0  0  0  0  0  0  0  0  0  0
  1  2  2  0
  2  3  1  0
  3  4  1  0
  4  5  1  0
  5  6  2  0
  5  7  1  0
  7  8  1  0
  8  9  1  0
  9 10  1  0
 10 11  1  0
 11 12  1  0
 12 13  1  0
 13 14  1  0
 14 15  1  0
 15 16  1  0
 16 17  1  0
 17 18  1  0
 18 19  1  0
 19 20  1  0
  2 21  1  0
 21 22  2  0
 22 23  1  0
 23 24  2  0
 24 25  1  0
 25 26  2  0
 26 27  1  0
 26 28  1  0
 28 29  2  0
 29 30  1  0
 30 31  2  0
 12  7  1  0
 20 15  1  0
 31 21  1  0
 30 24  1  0
  3 32  1  0
  4 33  1  0
  4 34  1  0
  8 35  1  0
  8 36  1  0
  9 37  1  0
  9 38  1  0
 10 39  1  0
 10 40  1  0
 11 41  1  0
 11 42  1  0
 12 43  1  1
 13 44  1  0
 13 45  1  0
 14 46  1  0
 15 47  1  0
 16 48  1  0
 16 49  1  0
 17 50  1  0
 17 51  1  0
 18 52  1  0
 18 53  1  0
 19 54  1  0
 19 55  1  0
 20 56  1  0
 20 57  1  0
 22 58  1  0
 23 59  1  0
 25 60  1  0
 28 61  1  0
 29 62  1  0
M  END
>  <smiles>  (40) 
O=C(NCC(=O)N1CCCC[C@H]1CNC1CCCCC1)c1ccc2cc(F)ccc2n1

>  <score_type>  (40) 
oracle

>  <origin>  (40) 
autodockgpu

>  <m_score__min__energy>  (40) 
-9.5700000000000003

>  <m_primary>  (40) 
energy

>  <rmsd>  (40) 
2.200783362128243

>  <m_score__min__rmsd>  (40) 
2.200783362128243

>  <meeko>  (40) 
{"free_energy": -8.88, "intermolecular_energy": -10.97, "internal_energy": -2.26, "cluster_size": 45, "cluster_id": 1, "rank_in_cluster": 17}

>  <energy>  (40) 
-8.22

>  <cluster_rmsd>  (40) 
1.31

>  <cluster>  (40) 
1

$$$$

     RDKit          3D

 62 65  0  0  0  0  0  0  0  0999 V2000
  140.8330   71.7900  221.2810 O   0  0  0  0  0  0  0  0  0  0  0  0
  140.3530   72.2660  222.3510 C   0  0  0  0  0  0  0  0  0  0  0  0
  139.9680   73.6550  222.2720 N   0  0  0  0  0  0  0  0  0  0  0  0
  140.1880   74.2870  220.9860 C   0  0  0  0  0  0  0  0  0  0  0  0
  141.2110   75.3850  221.2050 C   0  0  0  0  0  0  0  0  0  0  0  0
  141.1420   75.9310  222.3270 O   0  0  0  0  0  0  0  0  0  0  0  0
  142.1150   75.6810  220.1670 N   0  0  0  0  0  0  0  0  0  0  0  0
  142.8210   74.5390  219.5760 C   0  0  0  0  0  0  0  0  0  0  0  0
  142.4850   74.5280  218.0750 C   0  0  0  0  0  0  0  0  0  0  0  0
  143.1310   75.7760  217.5420 C   0  0  0  0  0  0  0  0  0  0  0  0
  142.4220   76.9760  218.1350 C   0  0  0  0  0  0  0  0  0  0  0  0
  142.4240   76.9830  219.6280 C   0  0  1  0  0  0  0  0  0  0  0  0
  141.5300   78.0000  220.2520 C   0  0  0  0  0  0  0  0  0  0  0  0
  141.8240   78.5270  221.5150 N   0  0  0  0  0  0  0  0  0  0  0  0
  142.1750   79.8630  221.7260 C   0  0  0  0  0  0  0  0  0  0  0  0
  142.7090   80.0020  223.1630 C   0  0  0  0  0  0  0  0  0  0  0  0
  141.7750   79.3550  224.1430 C   0  0  0  0  0  0  0  0  0  0  0  0
  140.3310   79.4390  223.6950 C   0  0  0  0  0  0  0  0  0  0  0  0
  140.0970   80.6940  222.8920 C   0  0  0  0  0  0  0  0  0  0  0  0
  140.8950   80.7180  221.6230 C   0  0  0  0  0  0  0  0  0  0  0  0
  140.1960   71.4880  223.5700 C   0  0  0  0  0  0  0  0  0  0  0  0
  139.5210   70.2750  223.4410 C   0  0  0  0  0  0  0  0  0  0  0  0
  139.3070   69.4520  224.5270 C   0  0  0  0  0  0  0  0  0  0  0  0
  139.7990   69.8960  225.7400 C   0  0  0  0  0  0  0  0  0  0  0  0
  139.6150   69.1070  226.8780 C   0  0  0  0  0  0  0  0  0  0  0  0
  140.0840   69.5040  228.1100 C   0  0  0  0  0  0  0  0  0  0  0  0
  139.8780   68.7030  229.1810 F   0  0  0  0  0  0  0  0  0  0  0  0
  140.7500   70.7140  228.1920 C   0  0  0  0  0  0  0  0  0  0  0  0
  140.9500   71.5190  227.0960 C   0  0  0  0  0  0  0  0  0  0  0  0
  140.4730   71.1030  225.8720 C   0  0  0  0  0  0  0  0  0  0  0  0
  140.6640   71.8920  224.7730 N   0  0  0  0  0  0  0  0  0  0  0  0
  139.5620   74.1400  223.1020 H   0  0  0  0  0  0  0  0  0  0  0  0
  140.5712   73.5514  220.2634 H   0  0  0  0  0  0  0  0  0  0  0  0
  139.2502   74.6968  220.5827 H   0  0  0  0  0  0  0  0  0  0  0  0
  143.9059   74.6508  219.7191 H   0  0  0  0  0  0  0  0  0  0  0  0
  142.5119   73.5975  220.0536 H   0  0  0  0  0  0  0  0  0  0  0  0
  142.9029   73.6343  217.5885 H   0  0  0  0  0  0  0  0  0  0  0  0
  141.4016   74.5016  217.8865 H   0  0  0  0  0  0  0  0  0  0  0  0
  144.1933   75.7946  217.8271 H   0  0  0  0  0  0  0  0  0  0  0  0
  143.0570   75.7992  216.4447 H   0  0  0  0  0  0  0  0  0  0  0  0
  142.9236   77.8886  217.7806 H   0  0  0  0  0  0  0  0  0  0  0  0
  141.3721   76.9283  217.8102 H   0  0  0  0  0  0  0  0  0  0  0  0
  143.4537   77.2673  219.8905 H   0  0  0  0  0  0  0  0  0  0  0  0
  141.4890   78.8518  219.5572 H   0  0  0  0  0  0  0  0  0  0  0  0
  140.6020   77.4368  220.4297 H   0  0  0  0  0  0  0  0  0  0  0  0
  142.1660   77.8440  222.2280 H   0  0  0  0  0  0  0  0  0  0  0  0
  142.9285   80.1829  220.9912 H   0  0  0  0  0  0  0  0  0  0  0  0
  143.6943   79.5177  223.2301 H   0  0  0  0  0  0  0  0  0  0  0  0
  142.7909   81.0715  223.4070 H   0  0  0  0  0  0  0  0  0  0  0  0
  142.0519   78.2959  224.2506 H   0  0  0  0  0  0  0  0  0  0  0  0
  141.8643   79.8903  225.0998 H   0  0  0  0  0  0  0  0  0  0  0  0
  140.0935   78.5628  223.0739 H   0  0  0  0  0  0  0  0  0  0  0  0
  139.6842   79.4611  224.5845 H   0  0  0  0  0  0  0  0  0  0  0  0
  139.0285   80.7570  222.6385 H   0  0  0  0  0  0  0  0  0  0  0  0
  140.4170   81.5491  223.5055 H   0  0  0  0  0  0  0  0  0  0  0  0
  140.2722   80.3270  220.8049 H   0  0  0  0  0  0  0  0  0  0  0  0
  141.1971   81.7584  221.4325 H   0  0  0  0  0  0  0  0  0  0  0  0
  139.1511   69.9676  222.4517 H   0  0  0  0  0  0  0  0  0  0  0  0
  138.7739   68.4945  224.4329 H   0  0  0  0  0  0  0  0  0  0  0  0
  139.0840   68.1479  226.7878 H   0  0  0  0  0  0  0  0  0  0  0  0
  141.1331   71.0435  229.1691 H   0  0  0  0  0  0  0  0  0  0  0  0
  141.4809   72.4774  227.1941 H   0  0  0  0  0  0  0  0  0  0  0  0
  1  2  2  0
  2  3  1  0
  3  4  1  0
  4  5  1  0
  5  6  2  0
  5  7  1  0
  7  8  1  0
  8  9  1  0
  9 10  1  0
 10 11  1  0
 11 12  1  0
 12 13  1  0
 13 14  1  0
 14 15  1  0
 15 16  1  0
 16 17  1  0
 17 18  1  0
 18 19  1  0
 19 20  1  0
  2 21  1  0
 21 22  2  0
 22 23  1  0
 23 24  2  0
 24 25  1  0
 25 26  2  0
 26 27  1  0
 26 28  1  0
 28 29  2  0
 29 30  1  0
 30 31  2  0
 12  7  1  0
 20 15  1  0
 31 21  1  0
 30 24  1  0
  3 32  1  0
  4 33  1  0
  4 34  1  0
  8 35  1  0
  8 36  1  0
  9 37  1  0
  9 38  1  0
 10 39  1  0
 10 40  1  0
 11 41  1  0
 11 42  1  0
 12 43  1  6
 13 44  1  0
 13 45  1  0
 14 46  1  0
 15 47  1  0
 16 48  1  0
 16 49  1  0
 17 50  1  0
 17 51  1  0
 18 52  1  0
 18 53  1  0
 19 54  1  0
 19 55  1  0
 20 56  1  0
 20 57  1  0
 22 58  1  0
 23 59  1  0
 25 60  1  0
 28 61  1  0
 29 62  1  0
M  END
>  <smiles>  (41) 
O=C(NCC(=O)N1CCCC[C@H]1CNC1CCCCC1)c1ccc2cc(F)ccc2n1

>  <score_type>  (41) 
oracle

>  <origin>  (41) 
autodockgpu

>  <m_score__min__energy>  (41) 
-9.5700000000000003

>  <m_primary>  (41) 
energy

>  <rmsd>  (41) 
2.4882198040077483

>  <m_score__min__rmsd>  (41) 
2.4882198040077483

>  <meeko>  (41) 
{"free_energy": -9.22, "intermolecular_energy": -11.31, "internal_energy": -2.51, "cluster_size": 45, "cluster_id": 1, "rank_in_cluster": 9}

>  <energy>  (41) 
-8.18

>  <cluster_rmsd>  (41) 
1.47

>  <cluster>  (41) 
1

$$$$

     RDKit          3D

 62 65  0  0  0  0  0  0  0  0999 V2000
  138.6440   71.1270  221.8400 O   0  0  0  0  0  0  0  0  0  0  0  0
  139.4550   71.4270  222.7630 C   0  0  0  0  0  0  0  0  0  0  0  0
  140.2040   72.6390  222.5370 N   0  0  0  0  0  0  0  0  0  0  0  0
  139.9130   73.3240  221.2930 C   0  0  0  0  0  0  0  0  0  0  0  0
  139.8750   74.8080  221.6050 C   0  0  0  0  0  0  0  0  0  0  0  0
  141.0020   75.3310  221.7370 O   0  0  0  0  0  0  0  0  0  0  0  0
  138.6220   75.4430  221.7150 N   0  0  0  0  0  0  0  0  0  0  0  0
  137.4470   74.6090  221.4420 C   0  0  0  0  0  0  0  0  0  0  0  0
  136.5710   74.6340  222.7060 C   0  0  0  0  0  0  0  0  0  0  0  0
  136.0970   76.0570  222.7980 C   0  0  0  0  0  0  0  0  0  0  0  0
  137.2910   76.9460  223.0820 C   0  0  0  0  0  0  0  0  0  0  0  0
  138.3740   76.8200  222.0600 C   0  0  1  0  0  0  0  0  0  0  0  0
  139.6600   77.4780  222.4270 C   0  0  0  0  0  0  0  0  0  0  0  0
  139.7000   78.8460  222.7240 N   0  0  0  0  0  0  0  0  0  0  0  0
  140.4100   79.3750  223.8060 C   0  0  0  0  0  0  0  0  0  0  0  0
  140.5880   80.8860  223.5750 C   0  0  0  0  0  0  0  0  0  0  0  0
  141.1040   81.1570  222.1930 C   0  0  0  0  0  0  0  0  0  0  0  0
  142.0040   80.0460  221.6930 C   0  0  0  0  0  0  0  0  0  0  0  0
  142.7420   79.4040  222.8410 C   0  0  0  0  0  0  0  0  0  0  0  0
  141.8160   78.7390  223.8150 C   0  0  0  0  0  0  0  0  0  0  0  0
  139.6290   70.6240  223.9630 C   0  0  0  0  0  0  0  0  0  0  0  0
  139.0920   69.3370  223.9240 C   0  0  0  0  0  0  0  0  0  0  0  0
  139.1910   68.4830  225.0030 C   0  0  0  0  0  0  0  0  0  0  0  0
  139.8500   68.9730  226.1160 C   0  0  0  0  0  0  0  0  0  0  0  0
  139.9830   68.1570  227.2400 C   0  0  0  0  0  0  0  0  0  0  0  0
  140.6280   68.5970  228.3740 C   0  0  0  0  0  0  0  0  0  0  0  0
  140.7280   67.7660  229.4370 F   0  0  0  0  0  0  0  0  0  0  0  0
  141.1470   69.8790  228.3700 C   0  0  0  0  0  0  0  0  0  0  0  0
  141.0350   70.7130  227.2830 C   0  0  0  0  0  0  0  0  0  0  0  0
  140.3860   70.2530  226.1580 C   0  0  0  0  0  0  0  0  0  0  0  0
  140.2670   71.0710  225.0690 N   0  0  0  0  0  0  0  0  0  0  0  0
  140.9000   72.9720  223.2400 H   0  0  0  0  0  0  0  0  0  0  0  0
  140.6986   73.1132  220.5525 H   0  0  0  0  0  0  0  0  0  0  0  0
  138.9546   72.9856  220.8723 H   0  0  0  0  0  0  0  0  0  0  0  0
  136.8869   75.0147  220.5866 H   0  0  0  0  0  0  0  0  0  0  0  0
  137.7464   73.5801  221.1935 H   0  0  0  0  0  0  0  0  0  0  0  0
  135.7196   73.9450  222.6042 H   0  0  0  0  0  0  0  0  0  0  0  0
  137.1186   74.3134  223.6045 H   0  0  0  0  0  0  0  0  0  0  0  0
  135.6309   76.3547  221.8471 H   0  0  0  0  0  0  0  0  0  0  0  0
  135.3549   76.1549  223.6041 H   0  0  0  0  0  0  0  0  0  0  0  0
  136.9510   77.9919  223.1042 H   0  0  0  0  0  0  0  0  0  0  0  0
  137.7131   76.6287  224.0470 H   0  0  0  0  0  0  0  0  0  0  0  0
  137.9820   77.3630  221.1873 H   0  0  0  0  0  0  0  0  0  0  0  0
  140.0410   76.9517  223.3146 H   0  0  0  0  0  0  0  0  0  0  0  0
  140.2461   77.4096  221.4987 H   0  0  0  0  0  0  0  0  0  0  0  0
  138.8910   79.4120  222.3840 H   0  0  0  0  0  0  0  0  0  0  0  0
  139.8775   79.1786  224.7483 H   0  0  0  0  0  0  0  0  0  0  0  0
  139.6170   81.3870  223.7019 H   0  0  0  0  0  0  0  0  0  0  0  0
  141.3159   81.2706  224.3046 H   0  0  0  0  0  0  0  0  0  0  0  0
  140.2489   81.2561  221.5082 H   0  0  0  0  0  0  0  0  0  0  0  0
  141.6965   82.0831  222.2281 H   0  0  0  0  0  0  0  0  0  0  0  0
  141.3920   79.2854  221.1860 H   0  0  0  0  0  0  0  0  0  0  0  0
  142.7380   80.4719  220.9931 H   0  0  0  0  0  0  0  0  0  0  0  0
  143.4331   78.6488  222.4385 H   0  0  0  0  0  0  0  0  0  0  0  0
  143.2812   80.1976  223.3790 H   0  0  0  0  0  0  0  0  0  0  0  0
  141.7259   77.6754  223.5492 H   0  0  0  0  0  0  0  0  0  0  0  0
  142.2380   78.8641  224.8231 H   0  0  0  0  0  0  0  0  0  0  0  0
  138.5785   68.9957  223.0131 H   0  0  0  0  0  0  0  0  0  0  0  0
  138.7688   67.4675  224.9795 H   0  0  0  0  0  0  0  0  0  0  0  0
  139.5635   67.1403  227.2197 H   0  0  0  0  0  0  0  0  0  0  0  0
  141.6674   70.2439  229.2678 H   0  0  0  0  0  0  0  0  0  0  0  0
  141.4558   71.7290  227.3108 H   0  0  0  0  0  0  0  0  0  0  0  0
  1  2  2  0
  2  3  1  0
  3  4  1  0
  4  5  1  0
  5  6  2  0
  5  7  1  0
  7  8  1  0
  8  9  1  0
  9 10  1  0
 10 11  1  0
 11 12  1  0
 12 13  1  0
 13 14  1  0
 14 15  1  0
 15 16  1  0
 16 17  1  0
 17 18  1  0
 18 19  1  0
 19 20  1  0
  2 21  1  0
 21 22  2  0
 22 23  1  0
 23 24  2  0
 24 25  1  0
 25 26  2  0
 26 27  1  0
 26 28  1  0
 28 29  2  0
 29 30  1  0
 30 31  2  0
 12  7  1  0
 20 15  1  0
 31 21  1  0
 30 24  1  0
  3 32  1  0
  4 33  1  0
  4 34  1  0
  8 35  1  0
  8 36  1  0
  9 37  1  0
  9 38  1  0
 10 39  1  0
 10 40  1  0
 11 41  1  0
 11 42  1  0
 12 43  1  6
 13 44  1  0
 13 45  1  0
 14 46  1  0
 15 47  1  0
 16 48  1  0
 16 49  1  0
 17 50  1  0
 17 51  1  0
 18 52  1  0
 18 53  1  0
 19 54  1  0
 19 55  1  0
 20 56  1  0
 20 57  1  0
 22 58  1  0
 23 59  1  0
 25 60  1  0
 28 61  1  0
 29 62  1  0
M  END
>  <smiles>  (42) 
O=C(NCC(=O)N1CCCC[C@H]1CNC1CCCCC1)c1ccc2cc(F)ccc2n1

>  <score_type>  (42) 
oracle

>  <origin>  (42) 
autodockgpu

>  <m_score__min__energy>  (42) 
-9.5700000000000003

>  <m_primary>  (42) 
energy

>  <rmsd>  (42) 
3.117525572675213

>  <m_score__min__rmsd>  (42) 
3.117525572675213

>  <meeko>  (42) 
{"free_energy": -8.11, "intermolecular_energy": -10.2, "internal_energy": -1.64, "cluster_size": 45, "cluster_id": 1, "rank_in_cluster": 43}

>  <energy>  (42) 
-8.14

>  <cluster_rmsd>  (42) 
1.45

>  <cluster>  (42) 
1

$$$$

     RDKit          3D

 62 65  0  0  0  0  0  0  0  0999 V2000
  141.1480   72.0180  221.5050 O   0  0  0  0  0  0  0  0  0  0  0  0
  140.3700   72.3120  222.4600 C   0  0  0  0  0  0  0  0  0  0  0  0
  139.6280   73.5360  222.2780 N   0  0  0  0  0  0  0  0  0  0  0  0
  139.8850   74.2370  221.0350 C   0  0  0  0  0  0  0  0  0  0  0  0
  140.9350   75.2900  221.3330 C   0  0  0  0  0  0  0  0  0  0  0  0
  140.6890   75.9850  222.3430 O   0  0  0  0  0  0  0  0  0  0  0  0
  142.0530   75.3890  220.4820 N   0  0  0  0  0  0  0  0  0  0  0  0
  142.7300   74.1310  220.1520 C   0  0  0  0  0  0  0  0  0  0  0  0
  142.6960   73.9870  218.6210 C   0  0  0  0  0  0  0  0  0  0  0  0
  143.5670   75.1070  218.1250 C   0  0  0  0  0  0  0  0  0  0  0  0
  142.8930   76.4240  218.4500 C   0  0  0  0  0  0  0  0  0  0  0  0
  142.6030   76.5920  219.9060 C   0  0  1  0  0  0  0  0  0  0  0  0
  141.7220   77.7480  220.2400 C   0  0  0  0  0  0  0  0  0  0  0  0
  141.8060   78.3670  221.4930 N   0  0  0  0  0  0  0  0  0  0  0  0
  142.1960   79.6980  221.6650 C   0  0  0  0  0  0  0  0  0  0  0  0
  142.7790   79.8510  223.0820 C   0  0  0  0  0  0  0  0  0  0  0  0
  141.8610   79.2480  224.1030 C   0  0  0  0  0  0  0  0  0  0  0  0
  140.4050   79.3610  223.6980 C   0  0  0  0  0  0  0  0  0  0  0  0
  140.1780   80.6050  222.8770 C   0  0  0  0  0  0  0  0  0  0  0  0
  140.9360   80.5840  221.5840 C   0  0  0  0  0  0  0  0  0  0  0  0
  140.2260   71.4900  223.6510 C   0  0  0  0  0  0  0  0  0  0  0  0
  139.5480   70.2830  223.4870 C   0  0  0  0  0  0  0  0  0  0  0  0
  139.3450   69.4210  224.5450 C   0  0  0  0  0  0  0  0  0  0  0  0
  139.8520   69.8210  225.7680 C   0  0  0  0  0  0  0  0  0  0  0  0
  139.6790   68.9920  226.8780 C   0  0  0  0  0  0  0  0  0  0  0  0
  140.1630   69.3430  228.1180 C   0  0  0  0  0  0  0  0  0  0  0  0
  139.9680   68.5040  229.1610 F   0  0  0  0  0  0  0  0  0  0  0  0
  140.8320   70.5490  228.2360 C   0  0  0  0  0  0  0  0  0  0  0  0
  141.0210   71.3920  227.1680 C   0  0  0  0  0  0  0  0  0  0  0  0
  140.5280   71.0220  225.9350 C   0  0  0  0  0  0  0  0  0  0  0  0
  140.7090   71.8500  224.8630 N   0  0  0  0  0  0  0  0  0  0  0  0
  138.9610   73.8660  223.0090 H   0  0  0  0  0  0  0  0  0  0  0  0
  140.2582   73.5350  220.2748 H   0  0  0  0  0  0  0  0  0  0  0  0
  138.9652   74.6970  220.6446 H   0  0  0  0  0  0  0  0  0  0  0  0
  143.7713   74.1590  220.5053 H   0  0  0  0  0  0  0  0  0  0  0  0
  142.2307   73.2790  220.6365 H   0  0  0  0  0  0  0  0  0  0  0  0
  143.1008   73.0120  218.3119 H   0  0  0  0  0  0  0  0  0  0  0  0
  141.6745   74.0371  218.2160 H   0  0  0  0  0  0  0  0  0  0  0  0
  144.5481   75.0607  218.6204 H   0  0  0  0  0  0  0  0  0  0  0  0
  143.7118   75.0172  217.0383 H   0  0  0  0  0  0  0  0  0  0  0  0
  143.5525   77.2433  218.1279 H   0  0  0  0  0  0  0  0  0  0  0  0
  141.9290   76.4378  217.9205 H   0  0  0  0  0  0  0  0  0  0  0  0
  143.5859   76.8082  220.3499 H   0  0  0  0  0  0  0  0  0  0  0  0
  141.9255   78.5263  219.4898 H   0  0  0  0  0  0  0  0  0  0  0  0
  140.7183   77.2982  220.2533 H   0  0  0  0  0  0  0  0  0  0  0  0
  141.9610   77.7330  222.3080 H   0  0  0  0  0  0  0  0  0  0  0  0
  142.9329   79.9842  220.9001 H   0  0  0  0  0  0  0  0  0  0  0  0
  143.7534   79.3426  223.1280 H   0  0  0  0  0  0  0  0  0  0  0  0
  142.8958   80.9225  223.3016 H   0  0  0  0  0  0  0  0  0  0  0  0
  142.1141   78.1843  224.2233 H   0  0  0  0  0  0  0  0  0  0  0  0
  141.9941   79.7991  225.0456 H   0  0  0  0  0  0  0  0  0  0  0  0
  140.1257   78.4791  223.1029 H   0  0  0  0  0  0  0  0  0  0  0  0
  139.7874   79.4179  224.6065 H   0  0  0  0  0  0  0  0  0  0  0  0
  139.1040   80.6905  222.6552 H   0  0  0  0  0  0  0  0  0  0  0  0
  140.5388   81.4633  223.4628 H   0  0  0  0  0  0  0  0  0  0  0  0
  140.2782   80.1939  220.7934 H   0  0  0  0  0  0  0  0  0  0  0  0
  141.2583   81.6123  221.3633 H   0  0  0  0  0  0  0  0  0  0  0  0
  139.1663   70.0117  222.4917 H   0  0  0  0  0  0  0  0  0  0  0  0
  138.8094   68.4680  224.4225 H   0  0  0  0  0  0  0  0  0  0  0  0
  139.1445   68.0380  226.7592 H   0  0  0  0  0  0  0  0  0  0  0  0
  141.2263   70.8428  229.2200 H   0  0  0  0  0  0  0  0  0  0  0  0
  141.5559   72.3448  227.2944 H   0  0  0  0  0  0  0  0  0  0  0  0
  1  2  2  0
  2  3  1  0
  3  4  1  0
  4  5  1  0
  5  6  2  0
  5  7  1  0
  7  8  1  0
  8  9  1  0
  9 10  1  0
 10 11  1  0
 11 12  1  0
 12 13  1  0
 13 14  1  0
 14 15  1  0
 15 16  1  0
 16 17  1  0
 17 18  1  0
 18 19  1  0
 19 20  1  0
  2 21  1  0
 21 22  2  0
 22 23  1  0
 23 24  2  0
 24 25  1  0
 25 26  2  0
 26 27  1  0
 26 28  1  0
 28 29  2  0
 29 30  1  0
 30 31  2  0
 12  7  1  0
 20 15  1  0
 31 21  1  0
 30 24  1  0
  3 32  1  0
  4 33  1  0
  4 34  1  0
  8 35  1  0
  8 36  1  0
  9 37  1  0
  9 38  1  0
 10 39  1  0
 10 40  1  0
 11 41  1  0
 11 42  1  0
 12 43  1  1
 13 44  1  0
 13 45  1  0
 14 46  1  0
 15 47  1  0
 16 48  1  0
 16 49  1  0
 17 50  1  0
 17 51  1  0
 18 52  1  0
 18 53  1  0
 19 54  1  0
 19 55  1  0
 20 56  1  0
 20 57  1  0
 22 58  1  0
 23 59  1  0
 25 60  1  0
 28 61  1  0
 29 62  1  0
M  END
>  <smiles>  (43) 
O=C(NCC(=O)N1CCCC[C@H]1CNC1CCCCC1)c1ccc2cc(F)ccc2n1

>  <score_type>  (43) 
oracle

>  <origin>  (43) 
autodockgpu

>  <m_score__min__energy>  (43) 
-9.5700000000000003

>  <m_primary>  (43) 
energy

>  <rmsd>  (43) 
2.5657986831756863

>  <m_score__min__rmsd>  (43) 
2.5657986831756863

>  <meeko>  (43) 
{"free_energy": -9.43, "intermolecular_energy": -11.52, "internal_energy": -2.36, "cluster_size": 45, "cluster_id": 1, "rank_in_cluster": 2}

>  <energy>  (43) 
-8.11

>  <cluster_rmsd>  (43) 
1.98

>  <cluster>  (43) 
1

$$$$

     RDKit          3D

 62 65  0  0  0  0  0  0  0  0999 V2000
  141.8580   73.1170  221.1310 O   0  0  0  0  0  0  0  0  0  0  0  0
  141.0440   73.9640  221.6010 C   0  0  0  0  0  0  0  0  0  0  0  0
  139.9230   73.3930  222.3090 N   0  0  0  0  0  0  0  0  0  0  0  0
  139.9040   71.9440  222.3730 C   0  0  0  0  0  0  0  0  0  0  0  0
  138.4490   71.5210  222.3140 C   0  0  0  0  0  0  0  0  0  0  0  0
  137.6420   72.4730  222.2370 O   0  0  0  0  0  0  0  0  0  0  0  0
  138.1440   70.1460  222.3490 N   0  0  0  0  0  0  0  0  0  0  0  0
  137.9100   69.5010  221.0530 C   0  0  0  0  0  0  0  0  0  0  0  0
  138.9340   68.3610  220.9230 C   0  0  0  0  0  0  0  0  0  0  0  0
  138.5310   67.3810  221.9890 C   0  0  0  0  0  0  0  0  0  0  0  0
  138.7640   68.0180  223.3430 C   0  0  0  0  0  0  0  0  0  0  0  0
  138.0340   69.3100  223.5180 C   0  0  1  0  0  0  0  0  0  0  0  0
  138.4260   70.0920  224.7250 C   0  0  0  0  0  0  0  0  0  0  0  0
  139.1930   69.5030  225.7370 N   0  0  0  0  0  0  0  0  0  0  0  0
  140.5900   69.5050  225.7410 C   0  0  0  0  0  0  0  0  0  0  0  0
  141.0720   68.7590  226.9990 C   0  0  0  0  0  0  0  0  0  0  0  0
  140.3630   69.2650  228.2200 C   0  0  0  0  0  0  0  0  0  0  0  0
  140.0110   70.7340  228.1090 C   0  0  0  0  0  0  0  0  0  0  0  0
  141.0330   71.4620  227.2710 C   0  0  0  0  0  0  0  0  0  0  0  0
  141.0690   70.9670  225.8560 C   0  0  0  0  0  0  0  0  0  0  0  0
  141.2100   75.4000  221.4480 C   0  0  0  0  0  0  0  0  0  0  0  0
  141.8330   75.8240  220.2740 C   0  0  0  0  0  0  0  0  0  0  0  0
  142.0500   77.1630  220.0180 C   0  0  0  0  0  0  0  0  0  0  0  0
  141.6160   78.0510  220.9850 C   0  0  0  0  0  0  0  0  0  0  0  0
  141.8070   79.4190  220.7840 C   0  0  0  0  0  0  0  0  0  0  0  0
  141.3950   80.3460  221.7160 C   0  0  0  0  0  0  0  0  0  0  0  0
  141.6050   81.6600  221.4730 F   0  0  0  0  0  0  0  0  0  0  0  0
  140.7800   79.8810  222.8660 C   0  0  0  0  0  0  0  0  0  0  0  0
  140.5750   78.5430  223.1000 C   0  0  0  0  0  0  0  0  0  0  0  0
  140.9950   77.6320  222.1550 C   0  0  0  0  0  0  0  0  0  0  0  0
  140.7980   76.2970  222.3730 N   0  0  0  0  0  0  0  0  0  0  0  0
  139.1950   74.0070  222.7330 H   0  0  0  0  0  0  0  0  0  0  0  0
  140.4562   71.5202  221.5213 H   0  0  0  0  0  0  0  0  0  0  0  0
  140.3823   71.5837  223.2957 H   0  0  0  0  0  0  0  0  0  0  0  0
  136.8879   69.0964  221.0121 H   0  0  0  0  0  0  0  0  0  0  0  0
  138.0219   70.2231  220.2308 H   0  0  0  0  0  0  0  0  0  0  0  0
  138.8786   67.8984  219.9265 H   0  0  0  0  0  0  0  0  0  0  0  0
  139.9705   68.7098  221.0411 H   0  0  0  0  0  0  0  0  0  0  0  0
  137.4664   67.1280  221.8766 H   0  0  0  0  0  0  0  0  0  0  0  0
  139.1270   66.4609  221.8987 H   0  0  0  0  0  0  0  0  0  0  0  0
  138.4273   67.3177  224.1216 H   0  0  0  0  0  0  0  0  0  0  0  0
  139.8393   68.2363  223.4214 H   0  0  0  0  0  0  0  0  0  0  0  0
  136.9873   69.0066  223.6678 H   0  0  0  0  0  0  0  0  0  0  0  0
  138.9945   70.9623  224.3653 H   0  0  0  0  0  0  0  0  0  0  0  0
  137.4625   70.2774  225.2222 H   0  0  0  0  0  0  0  0  0  0  0  0
  138.7320   68.7300  226.2680 H   0  0  0  0  0  0  0  0  0  0  0  0
  140.9771   69.0302  224.8274 H   0  0  0  0  0  0  0  0  0  0  0  0
  140.8676   67.6845  226.8821 H   0  0  0  0  0  0  0  0  0  0  0  0
  142.1516   68.9313  227.1202 H   0  0  0  0  0  0  0  0  0  0  0  0
  139.4365   68.6879  228.3564 H   0  0  0  0  0  0  0  0  0  0  0  0
  141.0400   69.1437  229.0785 H   0  0  0  0  0  0  0  0  0  0  0  0
  139.0210   70.8343  227.6401 H   0  0  0  0  0  0  0  0  0  0  0  0
  140.0002   71.1737  229.1172 H   0  0  0  0  0  0  0  0  0  0  0  0
  140.7856   72.5338  227.2642 H   0  0  0  0  0  0  0  0  0  0  0  0
  142.0226   71.2797  227.7154 H   0  0  0  0  0  0  0  0  0  0  0  0
  140.4163   71.6037  225.2407 H   0  0  0  0  0  0  0  0  0  0  0  0
  142.1116   71.0105  225.5080 H   0  0  0  0  0  0  0  0  0  0  0  0
  142.1582   75.0754  219.5366 H   0  0  0  0  0  0  0  0  0  0  0  0
  142.5414   77.5049  219.0951 H   0  0  0  0  0  0  0  0  0  0  0  0
  142.2970   79.7642  219.8617 H   0  0  0  0  0  0  0  0  0  0  0  0
  140.4436   80.6088  223.6190 H   0  0  0  0  0  0  0  0  0  0  0  0
  140.0846   78.2049  224.0248 H   0  0  0  0  0  0  0  0  0  0  0  0
  1  2  2  0
  2  3  1  0
  3  4  1  0
  4  5  1  0
  5  6  2  0
  5  7  1  0
  7  8  1  0
  8  9  1  0
  9 10  1  0
 10 11  1  0
 11 12  1  0
 12 13  1  0
 13 14  1  0
 14 15  1  0
 15 16  1  0
 16 17  1  0
 17 18  1  0
 18 19  1  0
 19 20  1  0
  2 21  1  0
 21 22  2  0
 22 23  1  0
 23 24  2  0
 24 25  1  0
 25 26  2  0
 26 27  1  0
 26 28  1  0
 28 29  2  0
 29 30  1  0
 30 31  2  0
 12  7  1  0
 20 15  1  0
 31 21  1  0
 30 24  1  0
  3 32  1  0
  4 33  1  0
  4 34  1  0
  8 35  1  0
  8 36  1  0
  9 37  1  0
  9 38  1  0
 10 39  1  0
 10 40  1  0
 11 41  1  0
 11 42  1  0
 12 43  1  1
 13 44  1  0
 13 45  1  0
 14 46  1  0
 15 47  1  0
 16 48  1  0
 16 49  1  0
 17 50  1  0
 17 51  1  0
 18 52  1  0
 18 53  1  0
 19 54  1  0
 19 55  1  0
 20 56  1  0
 20 57  1  0
 22 58  1  0
 23 59  1  0
 25 60  1  0
 28 61  1  0
 29 62  1  0
M  END
>  <smiles>  (44) 
O=C(NCC(=O)N1CCCC[C@H]1CNC1CCCCC1)c1ccc2cc(F)ccc2n1

>  <score_type>  (44) 
oracle

>  <origin>  (44) 
autodockgpu

>  <m_score__min__energy>  (44) 
-9.5700000000000003

>  <m_primary>  (44) 
energy

>  <rmsd>  (44) 
9.545498370460894

>  <m_score__min__rmsd>  (44) 
9.545498370460894

>  <meeko>  (44) 
{"free_energy": -7.98, "intermolecular_energy": -10.07, "internal_energy": -2.28, "cluster_size": 1, "cluster_id": 2, "rank_in_cluster": 1}

>  <energy>  (44) 
-7.92

>  <cluster_rmsd>  (44) 
1.7

>  <cluster>  (44) 
1

$$$$

     RDKit          3D

 62 65  0  0  0  0  0  0  0  0999 V2000
  140.9990   71.9500  221.3530 O   0  0  0  0  0  0  0  0  0  0  0  0
  140.3690   72.3300  222.3830 C   0  0  0  0  0  0  0  0  0  0  0  0
  139.7970   73.6520  222.2850 N   0  0  0  0  0  0  0  0  0  0  0  0
  140.0300   74.3370  221.0290 C   0  0  0  0  0  0  0  0  0  0  0  0
  141.0790   75.3990  221.2960 C   0  0  0  0  0  0  0  0  0  0  0  0
  140.8790   76.0650  222.3350 O   0  0  0  0  0  0  0  0  0  0  0  0
  142.1460   75.5380  220.3870 N   0  0  0  0  0  0  0  0  0  0  0  0
  142.8320   74.3010  220.0000 C   0  0  0  0  0  0  0  0  0  0  0  0
  142.7180   74.1800  218.4710 C   0  0  0  0  0  0  0  0  0  0  0  0
  143.5360   75.3270  217.9470 C   0  0  0  0  0  0  0  0  0  0  0  0
  142.8500   76.6230  218.3310 C   0  0  0  0  0  0  0  0  0  0  0  0
  142.6360   76.7620  219.8030 C   0  0  1  0  0  0  0  0  0  0  0  0
  141.7490   77.8910  220.2030 C   0  0  0  0  0  0  0  0  0  0  0  0
  141.8720   78.4780  221.4680 N   0  0  0  0  0  0  0  0  0  0  0  0
  142.1720   79.8290  221.6600 C   0  0  0  0  0  0  0  0  0  0  0  0
  142.7200   80.0050  223.0880 C   0  0  0  0  0  0  0  0  0  0  0  0
  141.8250   79.3330  224.0870 C   0  0  0  0  0  0  0  0  0  0  0  0
  140.3730   79.3550  223.6580 C   0  0  0  0  0  0  0  0  0  0  0  0
  140.0790   80.5910  222.8450 C   0  0  0  0  0  0  0  0  0  0  0  0
  140.8580   80.6330  221.5650 C   0  0  0  0  0  0  0  0  0  0  0  0
  140.2240   71.5110  223.5760 C   0  0  0  0  0  0  0  0  0  0  0  0
  139.5710   70.2910  223.4070 C   0  0  0  0  0  0  0  0  0  0  0  0
  139.3710   69.4290  224.4660 C   0  0  0  0  0  0  0  0  0  0  0  0
  139.8530   69.8440  225.6940 C   0  0  0  0  0  0  0  0  0  0  0  0
  139.6810   69.0160  226.8050 C   0  0  0  0  0  0  0  0  0  0  0  0
  140.1410   69.3820  228.0500 C   0  0  0  0  0  0  0  0  0  0  0  0
  139.9470   68.5430  229.0950 F   0  0  0  0  0  0  0  0  0  0  0  0
  140.7840   70.6010  228.1730 C   0  0  0  0  0  0  0  0  0  0  0  0
  140.9720   71.4430  227.1030 C   0  0  0  0  0  0  0  0  0  0  0  0
  140.5040   71.0580  225.8660 C   0  0  0  0  0  0  0  0  0  0  0  0
  140.6830   71.8850  224.7920 N   0  0  0  0  0  0  0  0  0  0  0  0
  139.2590   74.0560  223.0820 H   0  0  0  0  0  0  0  0  0  0  0  0
  140.3946   73.6266  220.2724 H   0  0  0  0  0  0  0  0  0  0  0  0
  139.1017   74.7869  220.6472 H   0  0  0  0  0  0  0  0  0  0  0  0
  143.8901   74.3476  220.2970 H   0  0  0  0  0  0  0  0  0  0  0  0
  142.3789   73.4303  220.4965 H   0  0  0  0  0  0  0  0  0  0  0  0
  143.1266   73.2193  218.1244 H   0  0  0  0  0  0  0  0  0  0  0  0
  141.6751   74.2133  218.1228 H   0  0  0  0  0  0  0  0  0  0  0  0
  144.5434   75.2959  218.3876 H   0  0  0  0  0  0  0  0  0  0  0  0
  143.6243   75.2576  216.8528 H   0  0  0  0  0  0  0  0  0  0  0  0
  143.4717   77.4628  217.9873 H   0  0  0  0  0  0  0  0  0  0  0  0
  141.8582   76.6213  217.8552 H   0  0  0  0  0  0  0  0  0  0  0  0
  143.6362   76.9949  220.1971 H   0  0  0  0  0  0  0  0  0  0  0  0
  141.9081   78.6927  219.4668 H   0  0  0  0  0  0  0  0  0  0  0  0
  140.7549   77.4218  220.2439 H   0  0  0  0  0  0  0  0  0  0  0  0
  142.1300   77.8340  222.2480 H   0  0  0  0  0  0  0  0  0  0  0  0
  142.9020   80.1700  220.9111 H   0  0  0  0  0  0  0  0  0  0  0  0
  143.7243   79.5601  223.1465 H   0  0  0  0  0  0  0  0  0  0  0  0
  142.7639   81.0794  223.3196 H   0  0  0  0  0  0  0  0  0  0  0  0
  142.1448   78.2868  224.2021 H   0  0  0  0  0  0  0  0  0  0  0  0
  141.9055   79.8824  225.0366 H   0  0  0  0  0  0  0  0  0  0  0  0
  140.1622   78.4633  223.0495 H   0  0  0  0  0  0  0  0  0  0  0  0
  139.7377   79.3614  224.5560 H   0  0  0  0  0  0  0  0  0  0  0  0
  139.0055   80.6091  222.6057 H   0  0  0  0  0  0  0  0  0  0  0  0
  140.3735   81.4645  223.4451 H   0  0  0  0  0  0  0  0  0  0  0  0
  140.2402   80.2095  220.7594 H   0  0  0  0  0  0  0  0  0  0  0  0
  141.1163   81.6823  221.3593 H   0  0  0  0  0  0  0  0  0  0  0  0
  139.2072   70.0093  222.4078 H   0  0  0  0  0  0  0  0  0  0  0  0
  138.8565   68.4649  224.3403 H   0  0  0  0  0  0  0  0  0  0  0  0
  139.1672   68.0510  226.6830 H   0  0  0  0  0  0  0  0  0  0  0  0
  141.1577   70.9068  229.1614 H   0  0  0  0  0  0  0  0  0  0  0  0
  141.4867   72.4065  227.2321 H   0  0  0  0  0  0  0  0  0  0  0  0
  1  2  2  0
  2  3  1  0
  3  4  1  0
  4  5  1  0
  5  6  2  0
  5  7  1  0
  7  8  1  0
  8  9  1  0
  9 10  1  0
 10 11  1  0
 11 12  1  0
 12 13  1  0
 13 14  1  0
 14 15  1  0
 15 16  1  0
 16 17  1  0
 17 18  1  0
 18 19  1  0
 19 20  1  0
  2 21  1  0
 21 22  2  0
 22 23  1  0
 23 24  2  0
 24 25  1  0
 25 26  2  0
 26 27  1  0
 26 28  1  0
 28 29  2  0
 29 30  1  0
 30 31  2  0
 12  7  1  0
 20 15  1  0
 31 21  1  0
 30 24  1  0
  3 32  1  0
  4 33  1  0
  4 34  1  0
  8 35  1  0
  8 36  1  0
  9 37  1  0
  9 38  1  0
 10 39  1  0
 10 40  1  0
 11 41  1  0
 11 42  1  0
 12 43  1  1
 13 44  1  0
 13 45  1  0
 14 46  1  0
 15 47  1  0
 16 48  1  0
 16 49  1  0
 17 50  1  0
 17 51  1  0
 18 52  1  0
 18 53  1  0
 19 54  1  0
 19 55  1  0
 20 56  1  0
 20 57  1  0
 22 58  1  0
 23 59  1  0
 25 60  1  0
 28 61  1  0
 29 62  1  0
M  END
>  <smiles>  (45) 
O=C(NCC(=O)N1CCCC[C@H]1CNC1CCCCC1)c1ccc2cc(F)ccc2n1

>  <score_type>  (45) 
oracle

>  <origin>  (45) 
autodockgpu

>  <m_score__min__energy>  (45) 
-9.5700000000000003

>  <m_primary>  (45) 
energy

>  <rmsd>  (45) 
2.560200363956986

>  <m_score__min__rmsd>  (45) 
2.560200363956986

>  <meeko>  (45) 
{"free_energy": -9.42, "intermolecular_energy": -11.51, "internal_energy": -2.43, "cluster_size": 45, "cluster_id": 1, "rank_in_cluster": 3}

>  <energy>  (45) 
-7.58

>  <cluster_rmsd>  (45) 
1.52

>  <cluster>  (45) 
1

$$$$

     RDKit          3D

 62 65  0  0  0  0  0  0  0  0999 V2000
  140.8230   71.7840  221.2590 O   0  0  0  0  0  0  0  0  0  0  0  0
  140.3410   72.2350  222.3390 C   0  0  0  0  0  0  0  0  0  0  0  0
  139.9300   73.6170  222.2840 N   0  0  0  0  0  0  0  0  0  0  0  0
  140.1290   74.2720  221.0060 C   0  0  0  0  0  0  0  0  0  0  0  0
  140.8790   75.5610  221.2850 C   0  0  0  0  0  0  0  0  0  0  0  0
  140.4250   76.2170  222.2480 O   0  0  0  0  0  0  0  0  0  0  0  0
  141.9770   75.8930  220.4690 N   0  0  0  0  0  0  0  0  0  0  0  0
  142.9830   74.8440  220.2780 C   0  0  0  0  0  0  0  0  0  0  0  0
  143.0790   74.5790  218.7650 C   0  0  0  0  0  0  0  0  0  0  0  0
  143.6480   75.8510  218.2030 C   0  0  0  0  0  0  0  0  0  0  0  0
  142.6290   76.9570  218.3840 C   0  0  0  0  0  0  0  0  0  0  0  0
  142.2190   77.1520  219.8080 C   0  0  1  0  0  0  0  0  0  0  0  0
  141.0440   78.0480  220.0050 C   0  0  0  0  0  0  0  0  0  0  0  0
  140.9170   78.8080  221.1740 N   0  0  0  0  0  0  0  0  0  0  0  0
  141.7950   79.8400  221.5170 C   0  0  0  0  0  0  0  0  0  0  0  0
  142.6650   79.3650  222.6940 C   0  0  0  0  0  0  0  0  0  0  0  0
  141.8150   78.7730  223.7790 C   0  0  0  0  0  0  0  0  0  0  0  0
  140.4530   79.4310  223.8590 C   0  0  0  0  0  0  0  0  0  0  0  0
  140.5380   80.8780  223.4430 C   0  0  0  0  0  0  0  0  0  0  0  0
  140.9580   81.0380  222.0130 C   0  0  0  0  0  0  0  0  0  0  0  0
  140.2070   71.4360  223.5460 C   0  0  0  0  0  0  0  0  0  0  0  0
  139.5570   70.2110  223.4030 C   0  0  0  0  0  0  0  0  0  0  0  0
  139.3660   69.3670  224.4780 C   0  0  0  0  0  0  0  0  0  0  0  0
  139.8550   69.8030  225.6950 C   0  0  0  0  0  0  0  0  0  0  0  0
  139.6930   68.9940  226.8210 C   0  0  0  0  0  0  0  0  0  0  0  0
  140.1610   69.3830  228.0570 C   0  0  0  0  0  0  0  0  0  0  0  0
  139.9770   68.5610  229.1160 F   0  0  0  0  0  0  0  0  0  0  0  0
  140.8010   70.6050  228.1540 C   0  0  0  0  0  0  0  0  0  0  0  0
  140.9790   71.4300  227.0690 C   0  0  0  0  0  0  0  0  0  0  0  0
  140.5030   71.0220  225.8420 C   0  0  0  0  0  0  0  0  0  0  0  0
  140.6730   71.8320  224.7530 N   0  0  0  0  0  0  0  0  0  0  0  0
  139.5210   74.0820  223.1230 H   0  0  0  0  0  0  0  0  0  0  0  0
  140.7195   73.6275  220.3382 H   0  0  0  0  0  0  0  0  0  0  0  0
  139.1669   74.4745  220.5127 H   0  0  0  0  0  0  0  0  0  0  0  0
  143.9565   75.1799  220.6647 H   0  0  0  0  0  0  0  0  0  0  0  0
  142.7014   73.9284  220.8187 H   0  0  0  0  0  0  0  0  0  0  0  0
  143.7462   73.7290  218.5594 H   0  0  0  0  0  0  0  0  0  0  0  0
  142.1068   74.3199  218.3203 H   0  0  0  0  0  0  0  0  0  0  0  0
  144.5747   76.1099  218.7362 H   0  0  0  0  0  0  0  0  0  0  0  0
  143.8762   75.7211  217.1348 H   0  0  0  0  0  0  0  0  0  0  0  0
  143.0637   77.8971  218.0134 H   0  0  0  0  0  0  0  0  0  0  0  0
  141.7292   76.6680  217.8212 H   0  0  0  0  0  0  0  0  0  0  0  0
  143.0804   77.6603  220.2659 H   0  0  0  0  0  0  0  0  0  0  0  0
  141.0459   78.7590  219.1657 H   0  0  0  0  0  0  0  0  0  0  0  0
  140.2040   77.3414  220.0773 H   0  0  0  0  0  0  0  0  0  0  0  0
  140.4160   78.3480  221.9660 H   0  0  0  0  0  0  0  0  0  0  0  0
  142.4166   80.1182  220.6532 H   0  0  0  0  0  0  0  0  0  0  0  0
  143.3733   78.6039  222.3349 H   0  0  0  0  0  0  0  0  0  0  0  0
  143.2077   80.2299  223.1032 H   0  0  0  0  0  0  0  0  0  0  0  0
  141.6793   77.7001  223.5777 H   0  0  0  0  0  0  0  0  0  0  0  0
  142.3274   78.9374  224.7384 H   0  0  0  0  0  0  0  0  0  0  0  0
  139.7565   78.9030  223.1910 H   0  0  0  0  0  0  0  0  0  0  0  0
  140.0951   79.3809  224.8979 H   0  0  0  0  0  0  0  0  0  0  0  0
  139.5494   81.3421  223.5748 H   0  0  0  0  0  0  0  0  0  0  0  0
  141.2985   81.3636  224.0721 H   0  0  0  0  0  0  0  0  0  0  0  0
  140.0581   81.1257  221.3866 H   0  0  0  0  0  0  0  0  0  0  0  0
  141.5827   81.9406  221.9421 H   0  0  0  0  0  0  0  0  0  0  0  0
  139.1882   69.9105  222.4112 H   0  0  0  0  0  0  0  0  0  0  0  0
  138.8526   68.4000  224.3721 H   0  0  0  0  0  0  0  0  0  0  0  0
  139.1810   68.0257  226.7193 H   0  0  0  0  0  0  0  0  0  0  0  0
  141.1812   70.9284  229.1343 H   0  0  0  0  0  0  0  0  0  0  0  0
  141.4915   72.3972  227.1782 H   0  0  0  0  0  0  0  0  0  0  0  0
  1  2  2  0
  2  3  1  0
  3  4  1  0
  4  5  1  0
  5  6  2  0
  5  7  1  0
  7  8  1  0
  8  9  1  0
  9 10  1  0
 10 11  1  0
 11 12  1  0
 12 13  1  0
 13 14  1  0
 14 15  1  0
 15 16  1  0
 16 17  1  0
 17 18  1  0
 18 19  1  0
 19 20  1  0
  2 21  1  0
 21 22  2  0
 22 23  1  0
 23 24  2  0
 24 25  1  0
 25 26  2  0
 26 27  1  0
 26 28  1  0
 28 29  2  0
 29 30  1  0
 30 31  2  0
 12  7  1  0
 20 15  1  0
 31 21  1  0
 30 24  1  0
  3 32  1  0
  4 33  1  0
  4 34  1  0
  8 35  1  0
  8 36  1  0
  9 37  1  0
  9 38  1  0
 10 39  1  0
 10 40  1  0
 11 41  1  0
 11 42  1  0
 12 43  1  1
 13 44  1  0
 13 45  1  0
 14 46  1  0
 15 47  1  0
 16 48  1  0
 16 49  1  0
 17 50  1  0
 17 51  1  0
 18 52  1  0
 18 53  1  0
 19 54  1  0
 19 55  1  0
 20 56  1  0
 20 57  1  0
 22 58  1  0
 23 59  1  0
 25 60  1  0
 28 61  1  0
 29 62  1  0
M  END
>  <smiles>  (46) 
O=C(NCC(=O)N1CCCC[C@H]1CNC1CCCCC1)c1ccc2cc(F)ccc2n1

>  <score_type>  (46) 
oracle

>  <origin>  (46) 
autodockgpu

>  <m_score__min__energy>  (46) 
-9.5700000000000003

>  <m_primary>  (46) 
energy

>  <rmsd>  (46) 
2.5784407179359867

>  <m_score__min__rmsd>  (46) 
2.5784407179359867

>  <meeko>  (46) 
{"free_energy": -8.88, "intermolecular_energy": -10.97, "internal_energy": -2.64, "cluster_size": 45, "cluster_id": 1, "rank_in_cluster": 18}

>  <energy>  (46) 
-7.98

>  <cluster_rmsd>  (46) 
0.0

>  <cluster>  (46) 
2

$$$$

     RDKit          3D

 62 65  0  0  0  0  0  0  0  0999 V2000
  141.3490   72.4360  221.8370 O   0  0  0  0  0  0  0  0  0  0  0  0
  140.3700   72.4270  222.6380 C   0  0  0  0  0  0  0  0  0  0  0  0
  139.3380   73.3900  222.3380 N   0  0  0  0  0  0  0  0  0  0  0  0
  139.5800   74.2130  221.1690 C   0  0  0  0  0  0  0  0  0  0  0  0
  139.8170   75.6260  221.6680 C   0  0  0  0  0  0  0  0  0  0  0  0
  140.8670   75.7630  222.3320 O   0  0  0  0  0  0  0  0  0  0  0  0
  138.8730   76.6210  221.3510 N   0  0  0  0  0  0  0  0  0  0  0  0
  137.4870   76.3480  221.7450 C   0  0  0  0  0  0  0  0  0  0  0  0
  137.0490   77.4880  222.6810 C   0  0  0  0  0  0  0  0  0  0  0  0
  137.0320   78.7040  221.7980 C   0  0  0  0  0  0  0  0  0  0  0  0
  138.4530   79.0140  221.3750 C   0  0  0  0  0  0  0  0  0  0  0  0
  139.1220   77.8730  220.6800 C   0  0  1  0  0  0  0  0  0  0  0  0
  140.5880   78.0390  220.4710 C   0  0  0  0  0  0  0  0  0  0  0  0
  141.4380   78.2860  221.5560 N   0  0  0  0  0  0  0  0  0  0  0  0
  142.1450   79.4800  221.7210 C   0  0  0  0  0  0  0  0  0  0  0  0
  142.8330   79.4490  223.0980 C   0  0  0  0  0  0  0  0  0  0  0  0
  141.8610   79.0520  224.1690 C   0  0  0  0  0  0  0  0  0  0  0  0
  140.4520   79.5190  223.8630 C   0  0  0  0  0  0  0  0  0  0  0  0
  140.4790   80.8050  223.0760 C   0  0  0  0  0  0  0  0  0  0  0  0
  141.1300   80.6420  221.7360 C   0  0  0  0  0  0  0  0  0  0  0  0
  140.2780   71.5250  223.7760 C   0  0  0  0  0  0  0  0  0  0  0  0
  139.6720   70.2930  223.5340 C   0  0  0  0  0  0  0  0  0  0  0  0
  139.5240   69.3550  224.5360 C   0  0  0  0  0  0  0  0  0  0  0  0
  140.0090   69.7070  225.7820 C   0  0  0  0  0  0  0  0  0  0  0  0
  139.8900   68.8010  226.8370 C   0  0  0  0  0  0  0  0  0  0  0  0
  140.3550   69.1020  228.0980 C   0  0  0  0  0  0  0  0  0  0  0  0
  140.2120   68.1880  229.0860 F   0  0  0  0  0  0  0  0  0  0  0  0
  140.9500   70.3350  228.2930 C   0  0  0  0  0  0  0  0  0  0  0  0
  141.0860   71.2540  227.2800 C   0  0  0  0  0  0  0  0  0  0  0  0
  140.6130   70.9330  226.0260 C   0  0  0  0  0  0  0  0  0  0  0  0
  140.7410   71.8360  225.0080 N   0  0  0  0  0  0  0  0  0  0  0  0
  138.4880   73.4620  222.9390 H   0  0  0  0  0  0  0  0  0  0  0  0
  140.4654   73.8495  220.6269 H   0  0  0  0  0  0  0  0  0  0  0  0
  138.7251   74.1771  220.4777 H   0  0  0  0  0  0  0  0  0  0  0  0
  136.8404   76.3208  220.8555 H   0  0  0  0  0  0  0  0  0  0  0  0
  137.4087   75.3744  222.2510 H   0  0  0  0  0  0  0  0  0  0  0  0
  136.0484   77.2914  223.0935 H   0  0  0  0  0  0  0  0  0  0  0  0
  137.7191   77.6044  223.5455 H   0  0  0  0  0  0  0  0  0  0  0  0
  136.4151   78.5076  220.9087 H   0  0  0  0  0  0  0  0  0  0  0  0
  136.6075   79.5592  222.3443 H   0  0  0  0  0  0  0  0  0  0  0  0
  138.4345   79.8766  220.6927 H   0  0  0  0  0  0  0  0  0  0  0  0
  139.0282   79.2227  222.2891 H   0  0  0  0  0  0  0  0  0  0  0  0
  138.6624   77.8643  219.6807 H   0  0  0  0  0  0  0  0  0  0  0  0
  140.9451   77.1136  219.9955 H   0  0  0  0  0  0  0  0  0  0  0  0
  140.6507   78.9716  219.8910 H   0  0  0  0  0  0  0  0  0  0  0  0
  141.8450   77.4420  222.0190 H   0  0  0  0  0  0  0  0  0  0  0  0
  142.8815   79.6048  220.9135 H   0  0  0  0  0  0  0  0  0  0  0  0
  143.6585   78.7225  223.0726 H   0  0  0  0  0  0  0  0  0  0  0  0
  143.2159   80.4551  223.3241 H   0  0  0  0  0  0  0  0  0  0  0  0
  141.8596   77.9556  224.2578 H   0  0  0  0  0  0  0  0  0  0  0  0
  142.1789   79.5286  225.1080 H   0  0  0  0  0  0  0  0  0  0  0  0
  139.9345   78.7463  223.2755 H   0  0  0  0  0  0  0  0  0  0  0  0
  139.9224   79.6941  224.8111 H   0  0  0  0  0  0  0  0  0  0  0  0
  139.4450   81.1494  222.9267 H   0  0  0  0  0  0  0  0  0  0  0  0
  141.0690   81.5359  223.6485 H   0  0  0  0  0  0  0  0  0  0  0  0
  140.3512   80.4423  220.9853 H   0  0  0  0  0  0  0  0  0  0  0  0
  141.6747   81.5703  221.5090 H   0  0  0  0  0  0  0  0  0  0  0  0
  139.3039   70.0635  222.5231 H   0  0  0  0  0  0  0  0  0  0  0  0
  139.0465   68.3811  224.3532 H   0  0  0  0  0  0  0  0  0  0  0  0
  139.4145   67.8254  226.6575 H   0  0  0  0  0  0  0  0  0  0  0  0
  141.3278   70.5893  229.2943 H   0  0  0  0  0  0  0  0  0  0  0  0
  141.5633   72.2273  227.4667 H   0  0  0  0  0  0  0  0  0  0  0  0
  1  2  2  0
  2  3  1  0
  3  4  1  0
  4  5  1  0
  5  6  2  0
  5  7  1  0
  7  8  1  0
  8  9  1  0
  9 10  1  0
 10 11  1  0
 11 12  1  0
 12 13  1  0
 13 14  1  0
 14 15  1  0
 15 16  1  0
 16 17  1  0
 17 18  1  0
 18 19  1  0
 19 20  1  0
  2 21  1  0
 21 22  2  0
 22 23  1  0
 23 24  2  0
 24 25  1  0
 25 26  2  0
 26 27  1  0
 26 28  1  0
 28 29  2  0
 29 30  1  0
 30 31  2  0
 12  7  1  0
 20 15  1  0
 31 21  1  0
 30 24  1  0
  3 32  1  0
  4 33  1  0
  4 34  1  0
  8 35  1  0
  8 36  1  0
  9 37  1  0
  9 38  1  0
 10 39  1  0
 10 40  1  0
 11 41  1  0
 11 42  1  0
 12 43  1  6
 13 44  1  0
 13 45  1  0
 14 46  1  0
 15 47  1  0
 16 48  1  0
 16 49  1  0
 17 50  1  0
 17 51  1  0
 18 52  1  0
 18 53  1  0
 19 54  1  0
 19 55  1  0
 20 56  1  0
 20 57  1  0
 22 58  1  0
 23 59  1  0
 25 60  1  0
 28 61  1  0
 29 62  1  0
M  END
>  <smiles>  (47) 
O=C(NCC(=O)N1CCCC[C@H]1CNC1CCCCC1)c1ccc2cc(F)ccc2n1

>  <score_type>  (47) 
oracle

>  <origin>  (47) 
autodockgpu

>  <m_score__min__energy>  (47) 
-9.5700000000000003

>  <m_primary>  (47) 
energy

>  <rmsd>  (47) 
3.0886698958081773

>  <m_score__min__rmsd>  (47) 
3.0886698958081773

>  <meeko>  (47) 
{"free_energy": -8.9, "intermolecular_energy": -10.99, "internal_energy": -2.44, "cluster_size": 45, "cluster_id": 1, "rank_in_cluster": 16}

>  <energy>  (47) 
-7.87

>  <cluster_rmsd>  (47) 
0.0

>  <cluster>  (47) 
3

$$$$

     RDKit          3D

 62 65  0  0  0  0  0  0  0  0999 V2000
  140.4480   71.0460  221.7170 O   0  0  0  0  0  0  0  0  0  0  0  0
  140.1940   71.6750  222.7860 C   0  0  0  0  0  0  0  0  0  0  0  0
  139.8140   73.0540  222.5970 N   0  0  0  0  0  0  0  0  0  0  0  0
  139.7810   73.5040  221.2190 C   0  0  0  0  0  0  0  0  0  0  0  0
  140.3560   74.9080  221.2010 C   0  0  0  0  0  0  0  0  0  0  0  0
  140.6740   75.3440  222.3290 O   0  0  0  0  0  0  0  0  0  0  0  0
  140.4780   75.5720  219.9650 N   0  0  0  0  0  0  0  0  0  0  0  0
  140.1710   74.7780  218.7710 C   0  0  0  0  0  0  0  0  0  0  0  0
  139.0290   75.4970  218.0320 C   0  0  0  0  0  0  0  0  0  0  0  0
  139.6440   76.7860  217.5660 C   0  0  0  0  0  0  0  0  0  0  0  0
  139.9720   77.6310  218.7800 C   0  0  0  0  0  0  0  0  0  0  0  0
  140.8750   76.9410  219.7500 C   0  0  1  0  0  0  0  0  0  0  0  0
  141.0220   77.6260  221.0650 C   0  0  0  0  0  0  0  0  0  0  0  0
  141.8240   78.7670  221.1870 N   0  0  0  0  0  0  0  0  0  0  0  0
  141.3060   80.0530  221.3670 C   0  0  0  0  0  0  0  0  0  0  0  0
  142.2570   80.8320  222.2950 C   0  0  0  0  0  0  0  0  0  0  0  0
  142.5850   80.0270  223.5170 C   0  0  0  0  0  0  0  0  0  0  0  0
  141.4400   79.1270  223.9330 C   0  0  0  0  0  0  0  0  0  0  0  0
  140.1160   79.7530  223.5720 C   0  0  0  0  0  0  0  0  0  0  0  0
  139.9500   79.9280  222.0930 C   0  0  0  0  0  0  0  0  0  0  0  0
  140.2740   71.0690  224.1050 C   0  0  0  0  0  0  0  0  0  0  0  0
  140.7530   71.8870  225.1280 C   0  0  0  0  0  0  0  0  0  0  0  0
  140.8780   71.4230  226.4220 C   0  0  0  0  0  0  0  0  0  0  0  0
  140.5010   70.1110  226.6420 C   0  0  0  0  0  0  0  0  0  0  0  0
  140.6040   69.5820  227.9300 C   0  0  0  0  0  0  0  0  0  0  0  0
  140.2430   68.2820  228.2030 C   0  0  0  0  0  0  0  0  0  0  0  0
  140.3640   67.8190  229.4690 F   0  0  0  0  0  0  0  0  0  0  0  0
  139.7710   67.5060  227.1600 C   0  0  0  0  0  0  0  0  0  0  0  0
  139.6570   67.9900  225.8780 C   0  0  0  0  0  0  0  0  0  0  0  0
  140.0230   69.2940  225.6260 C   0  0  0  0  0  0  0  0  0  0  0  0
  139.9140   69.7890  224.3570 N   0  0  0  0  0  0  0  0  0  0  0  0
  139.5860   73.6580  223.4160 H   0  0  0  0  0  0  0  0  0  0  0  0
  140.3887   72.8381  220.5888 H   0  0  0  0  0  0  0  0  0  0  0  0
  138.7539   73.4937  220.8255 H   0  0  0  0  0  0  0  0  0  0  0  0
  141.0575   74.7124  218.1231 H   0  0  0  0  0  0  0  0  0  0  0  0
  139.8766   73.7545  219.0461 H   0  0  0  0  0  0  0  0  0  0  0  0
  138.6810   74.8994  217.1766 H   0  0  0  0  0  0  0  0  0  0  0  0
  138.1490   75.6578  218.6721 H   0  0  0  0  0  0  0  0  0  0  0  0
  140.5643   76.5749  217.0016 H   0  0  0  0  0  0  0  0  0  0  0  0
  138.9410   77.3234  216.9125 H   0  0  0  0  0  0  0  0  0  0  0  0
  140.4636   78.5547  218.4407 H   0  0  0  0  0  0  0  0  0  0  0  0
  139.0255   77.8349  219.3021 H   0  0  0  0  0  0  0  0  0  0  0  0
  141.8624   76.9766  219.2665 H   0  0  0  0  0  0  0  0  0  0  0  0
  140.0101   77.9168  221.3835 H   0  0  0  0  0  0  0  0  0  0  0  0
  141.5575   76.8817  221.6727 H   0  0  0  0  0  0  0  0  0  0  0  0
  142.7710   78.7100  220.7500 H   0  0  0  0  0  0  0  0  0  0  0  0
  141.1939   80.5612  220.3979 H   0  0  0  0  0  0  0  0  0  0  0  0
  143.1864   81.0580  221.7517 H   0  0  0  0  0  0  0  0  0  0  0  0
  141.7610   81.7626  222.6080 H   0  0  0  0  0  0  0  0  0  0  0  0
  143.4664   79.4040  223.3048 H   0  0  0  0  0  0  0  0  0  0  0  0
  142.7801   80.7286  224.3415 H   0  0  0  0  0  0  0  0  0  0  0  0
  141.5350   78.1595  223.4183 H   0  0  0  0  0  0  0  0  0  0  0  0
  141.4794   78.9831  225.0228 H   0  0  0  0  0  0  0  0  0  0  0  0
  139.3070   79.1072  223.9441 H   0  0  0  0  0  0  0  0  0  0  0  0
  140.0805   80.7509  224.0334 H   0  0  0  0  0  0  0  0  0  0  0  0
  139.4115   79.0571  221.6911 H   0  0  0  0  0  0  0  0  0  0  0  0
  139.3880   80.8582  221.9231 H   0  0  0  0  0  0  0  0  0  0  0  0
  141.0374   72.9246  224.8987 H   0  0  0  0  0  0  0  0  0  0  0  0
  141.2567   72.0618  227.2335 H   0  0  0  0  0  0  0  0  0  0  0  0
  140.9818   70.2178  228.7442 H   0  0  0  0  0  0  0  0  0  0  0  0
  139.4766   66.4657  227.3630 H   0  0  0  0  0  0  0  0  0  0  0  0
  139.2804   67.3476  225.0684 H   0  0  0  0  0  0  0  0  0  0  0  0
  1  2  2  0
  2  3  1  0
  3  4  1  0
  4  5  1  0
  5  6  2  0
  5  7  1  0
  7  8  1  0
  8  9  1  0
  9 10  1  0
 10 11  1  0
 11 12  1  0
 12 13  1  0
 13 14  1  0
 14 15  1  0
 15 16  1  0
 16 17  1  0
 17 18  1  0
 18 19  1  0
 19 20  1  0
  2 21  1  0
 21 22  2  0
 22 23  1  0
 23 24  2  0
 24 25  1  0
 25 26  2  0
 26 27  1  0
 26 28  1  0
 28 29  2  0
 29 30  1  0
 30 31  2  0
 12  7  1  0
 20 15  1  0
 31 21  1  0
 30 24  1  0
  3 32  1  0
  4 33  1  0
  4 34  1  0
  8 35  1  0
  8 36  1  0
  9 37  1  0
  9 38  1  0
 10 39  1  0
 10 40  1  0
 11 41  1  0
 11 42  1  0
 12 43  1  6
 13 44  1  0
 13 45  1  0
 14 46  1  0
 15 47  1  0
 16 48  1  0
 16 49  1  0
 17 50  1  0
 17 51  1  0
 18 52  1  0
 18 53  1  0
 19 54  1  0
 19 55  1  0
 20 56  1  0
 20 57  1  0
 22 58  1  0
 23 59  1  0
 25 60  1  0
 28 61  1  0
 29 62  1  0
M  END
>  <smiles>  (48) 
O=C(NCC(=O)N1CCCC[C@H]1CNC1CCCCC1)c1ccc2cc(F)ccc2n1

>  <score_type>  (48) 
oracle

>  <origin>  (48) 
autodockgpu

>  <m_score__min__energy>  (48) 
-9.5700000000000003

>  <m_primary>  (48) 
energy

>  <rmsd>  (48) 
2.8746852821086417

>  <m_score__min__rmsd>  (48) 
2.8746852821086417

>  <meeko>  (48) 
{"free_energy": -8.42, "intermolecular_energy": -10.51, "internal_energy": -1.75, "cluster_size": 45, "cluster_id": 1, "rank_in_cluster": 31}

>  <energy>  (48) 
-7.58

>  <cluster_rmsd>  (48) 
0.0

>  <cluster>  (48) 
4

$$$$

     RDKit          3D

 62 65  0  0  0  0  0  0  0  0999 V2000
  141.2200   72.3220  221.7320 O   0  0  0  0  0  0  0  0  0  0  0  0
  140.3070   72.4130  222.6030 C   0  0  0  0  0  0  0  0  0  0  0  0
  139.3400   73.4550  222.3560 N   0  0  0  0  0  0  0  0  0  0  0  0
  139.5610   74.2330  221.1530 C   0  0  0  0  0  0  0  0  0  0  0  0
  140.1470   75.5620  221.5890 C   0  0  0  0  0  0  0  0  0  0  0  0
  139.4770   76.1530  222.4630 O   0  0  0  0  0  0  0  0  0  0  0  0
  141.3480   75.9970  220.9960 N   0  0  0  0  0  0  0  0  0  0  0  0
  142.3690   74.9690  220.7690 C   0  0  0  0  0  0  0  0  0  0  0  0
  142.6710   74.9560  219.2610 C   0  0  0  0  0  0  0  0  0  0  0  0
  143.3140   76.2890  219.0020 C   0  0  0  0  0  0  0  0  0  0  0  0
  142.2820   77.3750  219.2270 C   0  0  0  0  0  0  0  0  0  0  0  0
  141.6810   77.3410  220.5940 C   0  0  1  0  0  0  0  0  0  0  0  0
  140.4930   78.2220  220.7780 C   0  0  0  0  0  0  0  0  0  0  0  0
  140.6530   79.5800  221.0790 N   0  0  0  0  0  0  0  0  0  0  0  0
  140.1170   80.1800  222.2220 C   0  0  0  0  0  0  0  0  0  0  0  0
  141.0450   81.3340  222.6430 C   0  0  0  0  0  0  0  0  0  0  0  0
  142.4730   80.8780  222.6900 C   0  0  0  0  0  0  0  0  0  0  0  0
  142.5940   79.4200  223.0840 C   0  0  0  0  0  0  0  0  0  0  0  0
  141.4720   79.0270  224.0120 C   0  0  0  0  0  0  0  0  0  0  0  0
  140.1260   79.1390  223.3610 C   0  0  0  0  0  0  0  0  0  0  0  0
  140.2270   71.5440  223.7670 C   0  0  0  0  0  0  0  0  0  0  0  0
  139.6250   70.3030  223.5650 C   0  0  0  0  0  0  0  0  0  0  0  0
  139.4880   69.3940  224.5940 C   0  0  0  0  0  0  0  0  0  0  0  0
  139.9800   69.7830  225.8260 C   0  0  0  0  0  0  0  0  0  0  0  0
  139.8710   68.9070  226.9080 C   0  0  0  0  0  0  0  0  0  0  0  0
  140.3430   69.2470  228.1560 C   0  0  0  0  0  0  0  0  0  0  0  0
  140.2120   68.3610  229.1710 F   0  0  0  0  0  0  0  0  0  0  0  0
  140.9340   70.4880  228.3120 C   0  0  0  0  0  0  0  0  0  0  0  0
  141.0590   71.3770  227.2720 C   0  0  0  0  0  0  0  0  0  0  0  0
  140.5800   71.0180  226.0310 C   0  0  0  0  0  0  0  0  0  0  0  0
  140.6970   71.8930  224.9870 N   0  0  0  0  0  0  0  0  0  0  0  0
  138.5490   73.6120  223.0180 H   0  0  0  0  0  0  0  0  0  0  0  0
  140.2638   73.7097  220.4879 H   0  0  0  0  0  0  0  0  0  0  0  0
  138.6210   74.3795  220.6008 H   0  0  0  0  0  0  0  0  0  0  0  0
  143.2809   75.2117  221.3343 H   0  0  0  0  0  0  0  0  0  0  0  0
  142.0139   73.9838  221.1054 H   0  0  0  0  0  0  0  0  0  0  0  0
  143.3586   74.1355  219.0080 H   0  0  0  0  0  0  0  0  0  0  0  0
  141.7686   74.7982  218.6521 H   0  0  0  0  0  0  0  0  0  0  0  0
  144.1595   76.4327  219.6908 H   0  0  0  0  0  0  0  0  0  0  0  0
  143.6859   76.3323  217.9677 H   0  0  0  0  0  0  0  0  0  0  0  0
  142.7655   78.3523  219.0818 H   0  0  0  0  0  0  0  0  0  0  0  0
  141.4674   77.2062  218.5073 H   0  0  0  0  0  0  0  0  0  0  0  0
  142.4726   77.7437  221.2430 H   0  0  0  0  0  0  0  0  0  0  0  0
  139.9167   78.1728  219.8423 H   0  0  0  0  0  0  0  0  0  0  0  0
  140.0274   77.8206  221.6902 H   0  0  0  0  0  0  0  0  0  0  0  0
  140.8260   80.2120  220.2660 H   0  0  0  0  0  0  0  0  0  0  0  0
  139.0982   80.5438  222.0229 H   0  0  0  0  0  0  0  0  0  0  0  0
  140.9521   82.1549  221.9167 H   0  0  0  0  0  0  0  0  0  0  0  0
  140.7504   81.6757  223.6462 H   0  0  0  0  0  0  0  0  0  0  0  0
  142.9218   81.0148  221.6951 H   0  0  0  0  0  0  0  0  0  0  0  0
  142.9950   81.4782  223.4498 H   0  0  0  0  0  0  0  0  0  0  0  0
  142.5503   78.7960  222.1792 H   0  0  0  0  0  0  0  0  0  0  0  0
  143.5525   79.2708  223.6027 H   0  0  0  0  0  0  0  0  0  0  0  0
  141.6250   77.9851  224.3299 H   0  0  0  0  0  0  0  0  0  0  0  0
  141.4885   79.7165  224.8689 H   0  0  0  0  0  0  0  0  0  0  0  0
  139.8494   78.1581  222.9472 H   0  0  0  0  0  0  0  0  0  0  0  0
  139.4062   79.4670  224.1254 H   0  0  0  0  0  0  0  0  0  0  0  0
  139.2511   70.0428  222.5637 H   0  0  0  0  0  0  0  0  0  0  0  0
  139.0133   68.4134  224.4423 H   0  0  0  0  0  0  0  0  0  0  0  0
  139.3982   67.9248  226.7602 H   0  0  0  0  0  0  0  0  0  0  0  0
  141.3171   70.7729  229.3030 H   0  0  0  0  0  0  0  0  0  0  0  0
  141.5329   72.3575  227.4273 H   0  0  0  0  0  0  0  0  0  0  0  0
  1  2  2  0
  2  3  1  0
  3  4  1  0
  4  5  1  0
  5  6  2  0
  5  7  1  0
  7  8  1  0
  8  9  1  0
  9 10  1  0
 10 11  1  0
 11 12  1  0
 12 13  1  0
 13 14  1  0
 14 15  1  0
 15 16  1  0
 16 17  1  0
 17 18  1  0
 18 19  1  0
 19 20  1  0
  2 21  1  0
 21 22  2  0
 22 23  1  0
 23 24  2  0
 24 25  1  0
 25 26  2  0
 26 27  1  0
 26 28  1  0
 28 29  2  0
 29 30  1  0
 30 31  2  0
 12  7  1  0
 20 15  1  0
 31 21  1  0
 30 24  1  0
  3 32  1  0
  4 33  1  0
  4 34  1  0
  8 35  1  0
  8 36  1  0
  9 37  1  0
  9 38  1  0
 10 39  1  0
 10 40  1  0
 11 41  1  0
 11 42  1  0
 12 43  1  1
 13 44  1  0
 13 45  1  0
 14 46  1  0
 15 47  1  0
 16 48  1  0
 16 49  1  0
 17 50  1  0
 17 51  1  0
 18 52  1  0
 18 53  1  0
 19 54  1  0
 19 55  1  0
 20 56  1  0
 20 57  1  0
 22 58  1  0
 23 59  1  0
 25 60  1  0
 28 61  1  0
 29 62  1  0
M  END
>  <smiles>  (49) 
O=C(NCC(=O)N1CCCC[C@H]1CNC1CCCCC1)c1ccc2cc(F)ccc2n1

>  <score_type>  (49) 
oracle

>  <origin>  (49) 
autodockgpu

>  <m_score__min__energy>  (49) 
-9.5700000000000003

>  <m_primary>  (49) 
energy

>  <rmsd>  (49) 
2.461204541917689

>  <m_score__min__rmsd>  (49) 
2.461204541917689

>  <meeko>  (49) 
{"free_energy": -9.13, "intermolecular_energy": -11.21, "internal_energy": -1.94, "cluster_size": 45, "cluster_id": 1, "rank_in_cluster": 11}

>  <energy>  (49) 
-7.55

>  <cluster_rmsd>  (49) 
0.78

>  <cluster>  (49) 
4

$$$$

     RDKit          3D

 62 65  0  0  0  0  0  0  0  0999 V2000
  139.8200   71.5110  221.1810 O   0  0  0  0  0  0  0  0  0  0  0  0
  139.7630   72.0000  222.3460 C   0  0  0  0  0  0  0  0  0  0  0  0
  139.6220   73.4350  222.3900 N   0  0  0  0  0  0  0  0  0  0  0  0
  139.5670   74.0920  221.0990 C   0  0  0  0  0  0  0  0  0  0  0  0
  139.8180   75.5680  221.3450 C   0  0  0  0  0  0  0  0  0  0  0  0
  140.5310   75.8050  222.3450 O   0  0  0  0  0  0  0  0  0  0  0  0
  139.2510   76.5060  220.4610 N   0  0  0  0  0  0  0  0  0  0  0  0
  137.8170   76.3580  220.1920 C   0  0  0  0  0  0  0  0  0  0  0  0
  137.1400   77.6740  220.6090 C   0  0  0  0  0  0  0  0  0  0  0  0
  137.6740   78.6880  219.6370 C   0  0  0  0  0  0  0  0  0  0  0  0
  139.1570   78.8650  219.8910 C   0  0  0  0  0  0  0  0  0  0  0  0
  139.9270   77.5890  219.7920 C   0  0  1  0  0  0  0  0  0  0  0  0
  141.3350   77.6680  220.2770 C   0  0  0  0  0  0  0  0  0  0  0  0
  141.6240   78.1980  221.5400 N   0  0  0  0  0  0  0  0  0  0  0  0
  142.1570   79.4750  221.7320 C   0  0  0  0  0  0  0  0  0  0  0  0
  142.7050   79.5600  223.1680 C   0  0  0  0  0  0  0  0  0  0  0  0
  141.6900   79.0640  224.1550 C   0  0  0  0  0  0  0  0  0  0  0  0
  140.2710   79.3410  223.7020 C   0  0  0  0  0  0  0  0  0  0  0  0
  140.2140   80.6050  222.8810 C   0  0  0  0  0  0  0  0  0  0  0  0
  141.0080   80.4990  221.6140 C   0  0  0  0  0  0  0  0  0  0  0  0
  139.8330   71.1930  223.5540 C   0  0  0  0  0  0  0  0  0  0  0  0
  139.2900   69.9110  223.4680 C   0  0  0  0  0  0  0  0  0  0  0  0
  139.2930   69.0540  224.5490 C   0  0  0  0  0  0  0  0  0  0  0  0
  139.8640   69.5360  225.7120 C   0  0  0  0  0  0  0  0  0  0  0  0
  139.8990   68.7160  226.8410 C   0  0  0  0  0  0  0  0  0  0  0  0
  140.4550   69.1470  228.0250 C   0  0  0  0  0  0  0  0  0  0  0  0
  140.4620   68.3130  229.0900 F   0  0  0  0  0  0  0  0  0  0  0  0
  140.9840   70.4250  228.0660 C   0  0  0  0  0  0  0  0  0  0  0  0
  140.9680   71.2620  226.9760 C   0  0  0  0  0  0  0  0  0  0  0  0
  140.4070   70.8110  225.8010 C   0  0  0  0  0  0  0  0  0  0  0  0
  140.3840   71.6320  224.7090 N   0  0  0  0  0  0  0  0  0  0  0  0
  139.5670   73.9350  223.3050 H   0  0  0  0  0  0  0  0  0  0  0  0
  140.3407   73.6826  220.4329 H   0  0  0  0  0  0  0  0  0  0  0  0
  138.5908   73.9334  220.6176 H   0  0  0  0  0  0  0  0  0  0  0  0
  137.6514   76.1716  219.1206 H   0  0  0  0  0  0  0  0  0  0  0  0
  137.3994   75.5085  220.7523 H   0  0  0  0  0  0  0  0  0  0  0  0
  136.0461   77.5931  220.5266 H   0  0  0  0  0  0  0  0  0  0  0  0
  137.3494   77.9423  221.6550 H   0  0  0  0  0  0  0  0  0  0  0  0
  137.5136   78.3351  218.6075 H   0  0  0  0  0  0  0  0  0  0  0  0
  137.1524   79.6474  219.7695 H   0  0  0  0  0  0  0  0  0  0  0  0
  139.5566   79.5729  219.1500 H   0  0  0  0  0  0  0  0  0  0  0  0
  139.2705   79.2364  220.9202 H   0  0  0  0  0  0  0  0  0  0  0  0
  139.9780   77.3921  218.7110 H   0  0  0  0  0  0  0  0  0  0  0  0
  141.7289   76.6410  220.2688 H   0  0  0  0  0  0  0  0  0  0  0  0
  141.7911   78.3985  219.5926 H   0  0  0  0  0  0  0  0  0  0  0  0
  141.8130   77.5020  222.2960 H   0  0  0  0  0  0  0  0  0  0  0  0
  142.9475   79.6757  220.9938 H   0  0  0  0  0  0  0  0  0  0  0  0
  143.6134   78.9444  223.2445 H   0  0  0  0  0  0  0  0  0  0  0  0
  142.9349   80.6112  223.3963 H   0  0  0  0  0  0  0  0  0  0  0  0
  141.8171   77.9784  224.2791 H   0  0  0  0  0  0  0  0  0  0  0  0
  141.8524   79.5962  225.1039 H   0  0  0  0  0  0  0  0  0  0  0  0
  139.9147   78.4975  223.0925 H   0  0  0  0  0  0  0  0  0  0  0  0
  139.6328   79.4649  224.5894 H   0  0  0  0  0  0  0  0  0  0  0  0
  139.1647   80.8125  222.6242 H   0  0  0  0  0  0  0  0  0  0  0  0
  140.6493   81.4162  223.4830 H   0  0  0  0  0  0  0  0  0  0  0  0
  140.3370   80.1868  220.8001 H   0  0  0  0  0  0  0  0  0  0  0  0
  141.4524   81.4843  221.4096 H   0  0  0  0  0  0  0  0  0  0  0  0
  138.8497   69.5760  222.5173 H   0  0  0  0  0  0  0  0  0  0  0  0
  138.8646   68.0427  224.4888 H   0  0  0  0  0  0  0  0  0  0  0  0
  139.4732   67.7034  226.7838 H   0  0  0  0  0  0  0  0  0  0  0  0
  141.4331   70.7836  229.0039 H   0  0  0  0  0  0  0  0  0  0  0  0
  141.3953   72.2736  227.0404 H   0  0  0  0  0  0  0  0  0  0  0  0
  1  2  2  0
  2  3  1  0
  3  4  1  0
  4  5  1  0
  5  6  2  0
  5  7  1  0
  7  8  1  0
  8  9  1  0
  9 10  1  0
 10 11  1  0
 11 12  1  0
 12 13  1  0
 13 14  1  0
 14 15  1  0
 15 16  1  0
 16 17  1  0
 17 18  1  0
 18 19  1  0
 19 20  1  0
  2 21  1  0
 21 22  2  0
 22 23  1  0
 23 24  2  0
 24 25  1  0
 25 26  2  0
 26 27  1  0
 26 28  1  0
 28 29  2  0
 29 30  1  0
 30 31  2  0
 12  7  1  0
 20 15  1  0
 31 21  1  0
 30 24  1  0
  3 32  1  0
  4 33  1  0
  4 34  1  0
  8 35  1  0
  8 36  1  0
  9 37  1  0
  9 38  1  0
 10 39  1  0
 10 40  1  0
 11 41  1  0
 11 42  1  0
 12 43  1  6
 13 44  1  0
 13 45  1  0
 14 46  1  0
 15 47  1  0
 16 48  1  0
 16 49  1  0
 17 50  1  0
 17 51  1  0
 18 52  1  0
 18 53  1  0
 19 54  1  0
 19 55  1  0
 20 56  1  0
 20 57  1  0
 22 58  1  0
 23 59  1  0
 25 60  1  0
 28 61  1  0
 29 62  1  0
M  END
>  <smiles>  (50) 
O=C(NCC(=O)N1CCCC[C@H]1CNC1CCCCC1)c1ccc2cc(F)ccc2n1

>  <score_type>  (50) 
oracle

>  <origin>  (50) 
autodockgpu

>  <m_score__min__energy>  (50) 
-9.5700000000000003

>  <m_primary>  (50) 
energy

>  <rmsd>  (50) 
2.5714896192048955

>  <m_score__min__rmsd>  (50) 
2.5714896192048955

>  <meeko>  (50) 
{"free_energy": -8.18, "intermolecular_energy": -10.26, "internal_energy": -2.88, "cluster_size": 45, "cluster_id": 1, "rank_in_cluster": 41}

>  <energy>  (50) 
-7.42

>  <cluster_rmsd>  (50) 
0.0

>  <cluster>  (50) 
5

$$$$
