
     RDKit          3D

 50 53  0  0  0  0  0  0  0  0999 V2000
  141.3170   72.4800  221.8120 O   0  0  0  0  0  0  0  0  0  0  0  0
  140.3350   72.5070  222.5910 C   0  0  0  0  0  0  0  0  0  0  0  0
  139.3290   73.4650  222.3550 N   0  0  0  0  0  0  0  0  0  0  0  0
  139.4480   74.3600  221.2600 C   0  0  0  0  0  0  0  0  0  0  0  0
  140.3360   75.5150  221.5210 C   0  0  0  0  0  0  0  0  0  0  0  0
  141.5910   75.3390  221.6470 O   0  0  0  0  0  0  0  0  0  0  0  0
  139.7860   76.8230  221.6330 N   0  0  0  0  0  0  0  0  0  0  0  0
  138.8700   77.4420  220.6950 C   0  0  0  0  0  0  0  0  0  0  0  0
  138.2920   78.6560  221.3340 C   0  0  0  0  0  0  0  0  0  0  0  0
  138.8150   78.6040  222.7230 C   0  0  0  0  0  0  0  0  0  0  0  0
  140.0400   77.7730  222.7030 C   0  0  2  0  0  0  0  0  0  0  0  0
  141.3470   78.4810  222.5960 C   0  0  2  0  0  0  0  0  0  0  0  0
  141.8390   79.0960  223.8540 C   0  0  0  0  0  0  0  0  0  0  0  0
  142.7660   80.1840  223.3430 C   0  0  0  0  0  0  0  0  0  0  0  0
  141.9380   80.7500  222.2650 N   0  0  0  0  0  0  0  0  0  0  0  0
  141.4670   79.5390  221.5710 C   0  0  0  0  0  0  0  0  0  0  0  0
  140.2420   71.5710  223.7100 C   0  0  0  0  0  0  0  0  0  0  0  0
  139.6630   70.3260  223.5010 C   0  0  0  0  0  0  0  0  0  0  0  0
  139.5420   69.3920  224.5140 C   0  0  0  0  0  0  0  0  0  0  0  0
  140.0290   69.7420  225.7720 C   0  0  0  0  0  0  0  0  0  0  0  0
  139.9180   68.8220  226.7980 C   0  0  0  0  0  0  0  0  0  0  0  0
  140.3990   69.1500  228.0700 C   0  0  0  0  0  0  0  0  0  0  0  0
  140.2740   68.2280  229.0480 F   0  0  0  0  0  0  0  0  0  0  0  0
  140.9750   70.3940  228.2700 C   0  0  0  0  0  0  0  0  0  0  0  0
  141.0820   71.3140  227.2320 C   0  0  0  0  0  0  0  0  0  0  0  0
  140.6100   70.9960  225.9730 C   0  0  0  0  0  0  0  0  0  0  0  0
  140.7050   71.8800  224.9470 N   0  0  0  0  0  0  0  0  0  0  0  0
  138.5050   73.4720  223.0260 H   0  0  0  0  0  0  0  0  0  0  0  0
  139.8483   73.8032  220.3999 H   0  0  0  0  0  0  0  0  0  0  0  0
  138.4437   74.7668  221.0705 H   0  0  0  0  0  0  0  0  0  0  0  0
  139.4106   77.7255  219.7800 H   0  0  0  0  0  0  0  0  0  0  0  0
  138.0685   76.7373  220.4286 H   0  0  0  0  0  0  0  0  0  0  0  0
  138.6304   79.5684  220.8211 H   0  0  0  0  0  0  0  0  0  0  0  0
  137.1930   78.6781  221.2923 H   0  0  0  0  0  0  0  0  0  0  0  0
  139.0547   79.6189  223.0729 H   0  0  0  0  0  0  0  0  0  0  0  0
  138.0656   78.1755  223.4048 H   0  0  0  0  0  0  0  0  0  0  0  0
  140.1947   77.3004  223.6842 H   0  0  0  0  0  0  0  0  0  0  0  0
  141.9593   77.6171  222.2981 H   0  0  0  0  0  0  0  0  0  0  0  0
  141.0107   79.5214  224.4397 H   0  0  0  0  0  0  0  0  0  0  0  0
  142.3305   78.3811  224.5302 H   0  0  0  0  0  0  0  0  0  0  0  0
  142.9863   80.9296  224.1212 H   0  0  0  0  0  0  0  0  0  0  0  0
  143.7583   79.8316  223.0248 H   0  0  0  0  0  0  0  0  0  0  0  0
  141.1010   81.2110  222.7100 H   0  0  0  0  0  0  0  0  0  0  0  0
  140.4891   79.7263  221.1034 H   0  0  0  0  0  0  0  0  0  0  0  0
  142.1664   79.2417  220.7758 H   0  0  0  0  0  0  0  0  0  0  0  0
  139.2886   70.0747  222.4977 H   0  0  0  0  0  0  0  0  0  0  0  0
  139.0791   68.4106  224.3336 H   0  0  0  0  0  0  0  0  0  0  0  0
  139.4555   67.8407  226.6157 H   0  0  0  0  0  0  0  0  0  0  0  0
  141.3547   70.6591  229.2678 H   0  0  0  0  0  0  0  0  0  0  0  0
  141.5430   72.2960  227.4138 H   0  0  0  0  0  0  0  0  0  0  0  0
  1  2  2  0
  2  3  1  0
  3  4  1  0
  4  5  1  0
  5  6  2  0
  5  7  1  0
  7  8  1  0
  8  9  1  0
  9 10  1  0
 10 11  1  0
 11 12  1  0
 12 13  1  0
 13 14  1  0
 14 15  1  0
 15 16  1  0
  2 17  1  0
 17 18  2  0
 18 19  1  0
 19 20  2  0
 20 21  1  0
 21 22  2  0
 22 23  1  0
 22 24  1  0
 24 25  2  0
 25 26  1  0
 26 27  2  0
 11  7  1  0
 16 12  1  0
 27 17  1  0
 26 20  1  0
  3 28  1  0
  4 29  1  0
  4 30  1  0
  8 31  1  0
  8 32  1  0
  9 33  1  0
  9 34  1  0
 10 35  1  0
 10 36  1  0
 11 37  1  1
 12 38  1  6
 13 39  1  0
 13 40  1  0
 14 41  1  0
 14 42  1  0
 15 43  1  0
 16 44  1  0
 16 45  1  0
 18 46  1  0
 19 47  1  0
 21 48  1  0
 24 49  1  0
 25 50  1  0
M  END
>  <smiles>  (1) 
O=C(NCC(=O)N1CCCC1C1CCNC1)c1ccc2cc(F)ccc2n1

>  <score_type>  (1) 
oracle

>  <origin>  (1) 
autodockgpu

>  <m_score__min__energy>  (1) 
-8.9199999999999999

>  <m_primary>  (1) 
energy

>  <rmsd>  (1) 
2.6384419463003836

>  <m_score__min__rmsd>  (1) 
2.6384419463003836

>  <meeko>  (1) 
{"free_energy": -8.2, "intermolecular_energy": -9.69, "internal_energy": -1.06, "cluster_size": 15, "cluster_id": 2, "rank_in_cluster": 7}

>  <energy>  (1) 
-8.92

>  <cluster_rmsd>  (1) 
0.0

>  <cluster>  (1) 
1

$$$$

     RDKit          3D

 50 53  0  0  0  0  0  0  0  0999 V2000
  141.2560   72.1510  221.5700 O   0  0  0  0  0  0  0  0  0  0  0  0
  140.3790   72.3790  222.4370 C   0  0  0  0  0  0  0  0  0  0  0  0
  139.5330   73.4880  222.2460 N   0  0  0  0  0  0  0  0  0  0  0  0
  139.6880   74.3070  221.0970 C   0  0  0  0  0  0  0  0  0  0  0  0
  141.0080   74.9740  221.0080 C   0  0  0  0  0  0  0  0  0  0  0  0
  141.4940   75.5630  222.0260 O   0  0  0  0  0  0  0  0  0  0  0  0
  141.7310   74.9540  219.7820 N   0  0  0  0  0  0  0  0  0  0  0  0
  141.1660   74.7410  218.4650 C   0  0  0  0  0  0  0  0  0  0  0  0
  142.1850   75.1160  217.4480 C   0  0  0  0  0  0  0  0  0  0  0  0
  143.2930   75.6870  218.2570 C   0  0  0  0  0  0  0  0  0  0  0  0
  143.1640   75.1450  219.6280 C   0  0  2  0  0  0  0  0  0  0  0  0
  143.9810   73.9470  219.9710 C   0  0  2  0  0  0  0  0  0  0  0  0
  145.1500   74.2070  220.8470 C   0  0  0  0  0  0  0  0  0  0  0  0
  146.0640   73.0390  220.5260 C   0  0  0  0  0  0  0  0  0  0  0  0
  145.9590   73.0190  219.0570 N   0  0  0  0  0  0  0  0  0  0  0  0
  144.5050   73.1360  218.8520 C   0  0  0  0  0  0  0  0  0  0  0  0
  140.2440   71.5150  223.6080 C   0  0  0  0  0  0  0  0  0  0  0  0
  139.6220   70.2820  223.4690 C   0  0  0  0  0  0  0  0  0  0  0  0
  139.4590   69.4150  224.5350 C   0  0  0  0  0  0  0  0  0  0  0  0
  139.9490   69.8220  225.7740 C   0  0  0  0  0  0  0  0  0  0  0  0
  139.7980   68.9700  226.8520 C   0  0  0  0  0  0  0  0  0  0  0  0
  140.2810   69.3560  228.1060 C   0  0  0  0  0  0  0  0  0  0  0  0
  140.1150   68.5000  229.1360 F   0  0  0  0  0  0  0  0  0  0  0  0
  140.9010   70.5880  228.2380 C   0  0  0  0  0  0  0  0  0  0  0  0
  141.0490   71.4400  227.1470 C   0  0  0  0  0  0  0  0  0  0  0  0
  140.5740   71.0650  225.9050 C   0  0  0  0  0  0  0  0  0  0  0  0
  140.7090   71.8810  224.8290 N   0  0  0  0  0  0  0  0  0  0  0  0
  138.7950   73.6640  222.9910 H   0  0  0  0  0  0  0  0  0  0  0  0
  139.5567   73.6787  220.2037 H   0  0  0  0  0  0  0  0  0  0  0  0
  138.9324   75.1032  221.1685 H   0  0  0  0  0  0  0  0  0  0  0  0
  140.8940   73.6820  218.3448 H   0  0  0  0  0  0  0  0  0  0  0  0
  140.2629   75.3561  218.3383 H   0  0  0  0  0  0  0  0  0  0  0  0
  142.5234   74.2325  216.8869 H   0  0  0  0  0  0  0  0  0  0  0  0
  141.7989   75.8194  216.6955 H   0  0  0  0  0  0  0  0  0  0  0  0
  144.2622   75.3947  217.8267 H   0  0  0  0  0  0  0  0  0  0  0  0
  143.2408   76.7857  218.2669 H   0  0  0  0  0  0  0  0  0  0  0  0
  143.5960   75.8471  220.3563 H   0  0  0  0  0  0  0  0  0  0  0  0
  143.1976   73.3793  220.4944 H   0  0  0  0  0  0  0  0  0  0  0  0
  145.6278   75.1662  220.5987 H   0  0  0  0  0  0  0  0  0  0  0  0
  144.8917   74.2827  221.9136 H   0  0  0  0  0  0  0  0  0  0  0  0
  147.0959   73.2265  220.8578 H   0  0  0  0  0  0  0  0  0  0  0  0
  145.7942   72.0939  221.0199 H   0  0  0  0  0  0  0  0  0  0  0  0
  146.4060   73.9000  218.6900 H   0  0  0  0  0  0  0  0  0  0  0  0
  144.2964   73.6334  217.8933 H   0  0  0  0  0  0  0  0  0  0  0  0
  144.0287   72.1448  218.8254 H   0  0  0  0  0  0  0  0  0  0  0  0
  139.2463   69.9843  222.4789 H   0  0  0  0  0  0  0  0  0  0  0  0
  138.9617   68.4419  224.4090 H   0  0  0  0  0  0  0  0  0  0  0  0
  139.3020   67.9965  226.7243 H   0  0  0  0  0  0  0  0  0  0  0  0
  141.2829   70.8983  229.2218 H   0  0  0  0  0  0  0  0  0  0  0  0
  141.5450   72.4136  227.2740 H   0  0  0  0  0  0  0  0  0  0  0  0
  1  2  2  0
  2  3  1  0
  3  4  1  0
  4  5  1  0
  5  6  2  0
  5  7  1  0
  7  8  1  0
  8  9  1  0
  9 10  1  0
 10 11  1  0
 11 12  1  0
 12 13  1  0
 13 14  1  0
 14 15  1  0
 15 16  1  0
  2 17  1  0
 17 18  2  0
 18 19  1  0
 19 20  2  0
 20 21  1  0
 21 22  2  0
 22 23  1  0
 22 24  1  0
 24 25  2  0
 25 26  1  0
 26 27  2  0
 11  7  1  0
 16 12  1  0
 27 17  1  0
 26 20  1  0
  3 28  1  0
  4 29  1  0
  4 30  1  0
  8 31  1  0
  8 32  1  0
  9 33  1  0
  9 34  1  0
 10 35  1  0
 10 36  1  0
 11 37  1  1
 12 38  1  1
 13 39  1  0
 13 40  1  0
 14 41  1  0
 14 42  1  0
 15 43  1  0
 16 44  1  0
 16 45  1  0
 18 46  1  0
 19 47  1  0
 21 48  1  0
 24 49  1  0
 25 50  1  0
M  END
>  <smiles>  (2) 
O=C(NCC(=O)N1CCCC1C1CCNC1)c1ccc2cc(F)ccc2n1

>  <score_type>  (2) 
oracle

>  <origin>  (2) 
autodockgpu

>  <m_score__min__energy>  (2) 
-8.9199999999999999

>  <m_primary>  (2) 
energy

>  <rmsd>  (2) 
1.9292050933871907

>  <m_score__min__rmsd>  (2) 
1.9292050933871907

>  <meeko>  (2) 
{"free_energy": -8.8, "intermolecular_energy": -10.29, "internal_energy": -1.31, "cluster_size": 32, "cluster_id": 1, "rank_in_cluster": 8}

>  <energy>  (2) 
-8.9

>  <cluster_rmsd>  (2) 
0.08

>  <cluster>  (2) 
1

$$$$

     RDKit          3D

 50 53  0  0  0  0  0  0  0  0999 V2000
  140.5670   73.5690  222.3230 O   0  0  0  0  0  0  0  0  0  0  0  0
  140.1260   72.3980  222.2490 C   0  0  0  0  0  0  0  0  0  0  0  0
  139.6620   71.9440  220.9990 N   0  0  0  0  0  0  0  0  0  0  0  0
  139.7030   72.8080  219.8730 C   0  0  0  0  0  0  0  0  0  0  0  0
  140.9480   72.6990  219.0780 C   0  0  0  0  0  0  0  0  0  0  0  0
  141.1730   71.6550  218.3840 O   0  0  0  0  0  0  0  0  0  0  0  0
  141.8930   73.7630  219.0910 N   0  0  0  0  0  0  0  0  0  0  0  0
  142.1190   74.7130  218.0190 C   0  0  0  0  0  0  0  0  0  0  0  0
  142.9390   75.8360  218.5500 C   0  0  0  0  0  0  0  0  0  0  0  0
  143.0370   75.5420  220.0030 C   0  0  0  0  0  0  0  0  0  0  0  0
  142.8020   74.0910  220.1770 C   0  0  2  0  0  0  0  0  0  0  0  0
  144.0000   73.2080  220.2610 C   0  0  2  0  0  0  0  0  0  0  0  0
  145.1520   73.7730  221.0060 C   0  0  0  0  0  0  0  0  0  0  0  0
  146.3240   73.0010  220.4270 C   0  0  0  0  0  0  0  0  0  0  0  0
  145.9950   73.0590  218.9930 N   0  0  0  0  0  0  0  0  0  0  0  0
  144.5650   72.7040  218.9920 C   0  0  0  0  0  0  0  0  0  0  0  0
  140.0980   71.5330  223.4270 C   0  0  0  0  0  0  0  0  0  0  0  0
  139.5440   70.2640  223.3200 C   0  0  0  0  0  0  0  0  0  0  0  0
  139.4850   69.3940  224.3940 C   0  0  0  0  0  0  0  0  0  0  0  0
  140.0090   69.8350  225.6070 C   0  0  0  0  0  0  0  0  0  0  0  0
  139.9590   68.9800  226.6930 C   0  0  0  0  0  0  0  0  0  0  0  0
  140.4780   69.4000  227.9220 C   0  0  0  0  0  0  0  0  0  0  0  0
  140.4130   68.5400  228.9600 F   0  0  0  0  0  0  0  0  0  0  0  0
  141.0300   70.6670  228.0210 C   0  0  0  0  0  0  0  0  0  0  0  0
  141.0740   71.5220  226.9230 C   0  0  0  0  0  0  0  0  0  0  0  0
  140.5640   71.1130  225.7060 C   0  0  0  0  0  0  0  0  0  0  0  0
  140.5990   71.9310  224.6230 N   0  0  0  0  0  0  0  0  0  0  0  0
  139.2920   70.9480  220.9550 H   0  0  0  0  0  0  0  0  0  0  0  0
  138.8522   72.5656  219.2192 H   0  0  0  0  0  0  0  0  0  0  0  0
  139.6594   73.8373  220.2585 H   0  0  0  0  0  0  0  0  0  0  0  0
  142.6538   74.2208  217.1933 H   0  0  0  0  0  0  0  0  0  0  0  0
  141.1578   75.0927  217.6423 H   0  0  0  0  0  0  0  0  0  0  0  0
  143.9354   75.8491  218.0841 H   0  0  0  0  0  0  0  0  0  0  0  0
  142.4977   76.8221  218.3427 H   0  0  0  0  0  0  0  0  0  0  0  0
  144.0378   75.8081  220.3739 H   0  0  0  0  0  0  0  0  0  0  0  0
  142.2964   76.1263  220.5687 H   0  0  0  0  0  0  0  0  0  0  0  0
  142.3856   73.8906  221.1752 H   0  0  0  0  0  0  0  0  0  0  0  0
  143.5319   72.3747  220.8055 H   0  0  0  0  0  0  0  0  0  0  0  0
  145.2555   74.8523  220.8202 H   0  0  0  0  0  0  0  0  0  0  0  0
  145.0590   73.6777  222.0979 H   0  0  0  0  0  0  0  0  0  0  0  0
  147.2831   73.4936  220.6447 H   0  0  0  0  0  0  0  0  0  0  0  0
  146.4500   71.9851  220.8296 H   0  0  0  0  0  0  0  0  0  0  0  0
  146.0750   74.0640  218.6840 H   0  0  0  0  0  0  0  0  0  0  0  0
  144.0580   73.1762  218.1376 H   0  0  0  0  0  0  0  0  0  0  0  0
  144.4281   71.6162  218.9030 H   0  0  0  0  0  0  0  0  0  0  0  0
  139.1390   69.9402  222.3499 H   0  0  0  0  0  0  0  0  0  0  0  0
  139.0413   68.3924  224.2939 H   0  0  0  0  0  0  0  0  0  0  0  0
  139.5151   67.9787  226.5911 H   0  0  0  0  0  0  0  0  0  0  0  0
  141.4408   71.0034  228.9843 H   0  0  0  0  0  0  0  0  0  0  0  0
  141.5154   72.5244  227.0247 H   0  0  0  0  0  0  0  0  0  0  0  0
  1  2  2  0
  2  3  1  0
  3  4  1  0
  4  5  1  0
  5  6  2  0
  5  7  1  0
  7  8  1  0
  8  9  1  0
  9 10  1  0
 10 11  1  0
 11 12  1  0
 12 13  1  0
 13 14  1  0
 14 15  1  0
 15 16  1  0
  2 17  1  0
 17 18  2  0
 18 19  1  0
 19 20  2  0
 20 21  1  0
 21 22  2  0
 22 23  1  0
 22 24  1  0
 24 25  2  0
 25 26  1  0
 26 27  2  0
 11  7  1  0
 16 12  1  0
 27 17  1  0
 26 20  1  0
  3 28  1  0
  4 29  1  0
  4 30  1  0
  8 31  1  0
  8 32  1  0
  9 33  1  0
  9 34  1  0
 10 35  1  0
 10 36  1  0
 11 37  1  1
 12 38  1  1
 13 39  1  0
 13 40  1  0
 14 41  1  0
 14 42  1  0
 15 43  1  0
 16 44  1  0
 16 45  1  0
 18 46  1  0
 19 47  1  0
 21 48  1  0
 24 49  1  0
 25 50  1  0
M  END
>  <smiles>  (3) 
O=C(NCC(=O)N1CCCC1C1CCNC1)c1ccc2cc(F)ccc2n1

>  <score_type>  (3) 
oracle

>  <origin>  (3) 
autodockgpu

>  <m_score__min__energy>  (3) 
-8.9199999999999999

>  <m_primary>  (3) 
energy

>  <rmsd>  (3) 
2.5312230446133013

>  <m_score__min__rmsd>  (3) 
2.5312230446133013

>  <meeko>  (3) 
{"free_energy": -8.23, "intermolecular_energy": -9.73, "internal_energy": -1.39, "cluster_size": 32, "cluster_id": 1, "rank_in_cluster": 24}

>  <energy>  (3) 
-8.89

>  <cluster_rmsd>  (3) 
0.05

>  <cluster>  (3) 
1

$$$$

     RDKit          3D

 50 53  0  0  0  0  0  0  0  0999 V2000
  141.4780   72.1220  221.5940 O   0  0  0  0  0  0  0  0  0  0  0  0
  140.5150   72.3280  222.3690 C   0  0  0  0  0  0  0  0  0  0  0  0
  139.6270   73.3760  222.0560 N   0  0  0  0  0  0  0  0  0  0  0  0
  139.8390   74.1590  220.8920 C   0  0  0  0  0  0  0  0  0  0  0  0
  141.0190   75.0500  220.9740 C   0  0  0  0  0  0  0  0  0  0  0  0
  141.2840   75.6580  222.0610 O   0  0  0  0  0  0  0  0  0  0  0  0
  141.8550   75.2270  219.8360 N   0  0  0  0  0  0  0  0  0  0  0  0
  141.4080   75.3310  218.4600 C   0  0  0  0  0  0  0  0  0  0  0  0
  142.5410   75.8280  217.6330 C   0  0  0  0  0  0  0  0  0  0  0  0
  143.5950   76.1360  218.6330 C   0  0  0  0  0  0  0  0  0  0  0  0
  143.3040   75.3370  219.8440 C   0  0  2  0  0  0  0  0  0  0  0  0
  144.0150   74.0350  219.9930 C   0  0  2  0  0  0  0  0  0  0  0  0
  145.2300   74.0710  220.8440 C   0  0  0  0  0  0  0  0  0  0  0  0
  146.0200   72.8800  220.3360 C   0  0  0  0  0  0  0  0  0  0  0  0
  145.8680   73.0640  218.8830 N   0  0  0  0  0  0  0  0  0  0  0  0
  144.4260   73.3370  218.7570 C   0  0  0  0  0  0  0  0  0  0  0  0
  140.3230   71.5030  223.5590 C   0  0  0  0  0  0  0  0  0  0  0  0
  139.6610   70.2880  223.4390 C   0  0  0  0  0  0  0  0  0  0  0  0
  139.4450   69.4570  224.5240 C   0  0  0  0  0  0  0  0  0  0  0  0
  139.9210   69.8810  225.7630 C   0  0  0  0  0  0  0  0  0  0  0  0
  139.7160   69.0650  226.8600 C   0  0  0  0  0  0  0  0  0  0  0  0
  140.1840   69.4690  228.1140 C   0  0  0  0  0  0  0  0  0  0  0  0
  139.9650   68.6470  229.1620 F   0  0  0  0  0  0  0  0  0  0  0  0
  140.8440   70.6820  228.2260 C   0  0  0  0  0  0  0  0  0  0  0  0
  141.0460   71.4980  227.1170 C   0  0  0  0  0  0  0  0  0  0  0  0
  140.5860   71.1040  225.8750 C   0  0  0  0  0  0  0  0  0  0  0  0
  140.7740   71.8860  224.7800 N   0  0  0  0  0  0  0  0  0  0  0  0
  138.8150   73.5340  222.7240 H   0  0  0  0  0  0  0  0  0  0  0  0
  139.9770   73.4795  220.0381 H   0  0  0  0  0  0  0  0  0  0  0  0
  138.9574   74.8069  220.7785 H   0  0  0  0  0  0  0  0  0  0  0  0
  141.0893   74.3426  218.0975 H   0  0  0  0  0  0  0  0  0  0  0  0
  140.5574   76.0251  218.3909 H   0  0  0  0  0  0  0  0  0  0  0  0
  142.8818   75.0548  216.9287 H   0  0  0  0  0  0  0  0  0  0  0  0
  142.2704   76.6974  217.0159 H   0  0  0  0  0  0  0  0  0  0  0  0
  144.5833   75.8656  218.2328 H   0  0  0  0  0  0  0  0  0  0  0  0
  143.6035   77.2102  218.8696 H   0  0  0  0  0  0  0  0  0  0  0  0
  143.7029   75.8412  220.7365 H   0  0  0  0  0  0  0  0  0  0  0  0
  143.1980   73.4747  220.4711 H   0  0  0  0  0  0  0  0  0  0  0  0
  145.7878   75.0083  220.7016 H   0  0  0  0  0  0  0  0  0  0  0  0
  145.0129   74.0267  221.9215 H   0  0  0  0  0  0  0  0  0  0  0  0
  147.0747   72.9297  220.6444 H   0  0  0  0  0  0  0  0  0  0  0  0
  145.6785   71.9054  220.7149 H   0  0  0  0  0  0  0  0  0  0  0  0
  146.3840   73.9420  218.6140 H   0  0  0  0  0  0  0  0  0  0  0  0
  144.2362   73.9745  217.8809 H   0  0  0  0  0  0  0  0  0  0  0  0
  143.8577   72.4049  218.6220 H   0  0  0  0  0  0  0  0  0  0  0  0
  139.2965   69.9762  222.4491 H   0  0  0  0  0  0  0  0  0  0  0  0
  138.9176   68.4981  224.4127 H   0  0  0  0  0  0  0  0  0  0  0  0
  139.1891   68.1060  226.7472 H   0  0  0  0  0  0  0  0  0  0  0  0
  141.2151   71.0060  229.2095 H   0  0  0  0  0  0  0  0  0  0  0  0
  141.5723   72.4574  227.2292 H   0  0  0  0  0  0  0  0  0  0  0  0
  1  2  2  0
  2  3  1  0
  3  4  1  0
  4  5  1  0
  5  6  2  0
  5  7  1  0
  7  8  1  0
  8  9  1  0
  9 10  1  0
 10 11  1  0
 11 12  1  0
 12 13  1  0
 13 14  1  0
 14 15  1  0
 15 16  1  0
  2 17  1  0
 17 18  2  0
 18 19  1  0
 19 20  2  0
 20 21  1  0
 21 22  2  0
 22 23  1  0
 22 24  1  0
 24 25  2  0
 25 26  1  0
 26 27  2  0
 11  7  1  0
 16 12  1  0
 27 17  1  0
 26 20  1  0
  3 28  1  0
  4 29  1  0
  4 30  1  0
  8 31  1  0
  8 32  1  0
  9 33  1  0
  9 34  1  0
 10 35  1  0
 10 36  1  0
 11 37  1  1
 12 38  1  1
 13 39  1  0
 13 40  1  0
 14 41  1  0
 14 42  1  0
 15 43  1  0
 16 44  1  0
 16 45  1  0
 18 46  1  0
 19 47  1  0
 21 48  1  0
 24 49  1  0
 25 50  1  0
M  END
>  <smiles>  (4) 
O=C(NCC(=O)N1CCCC1C1CCNC1)c1ccc2cc(F)ccc2n1

>  <score_type>  (4) 
oracle

>  <origin>  (4) 
autodockgpu

>  <m_score__min__energy>  (4) 
-8.9199999999999999

>  <m_primary>  (4) 
energy

>  <rmsd>  (4) 
2.0042678555137208

>  <m_score__min__rmsd>  (4) 
2.0042678555137208

>  <meeko>  (4) 
{"free_energy": -8.87, "intermolecular_energy": -10.36, "internal_energy": -1.32, "cluster_size": 32, "cluster_id": 1, "rank_in_cluster": 5}

>  <energy>  (4) 
-8.88

>  <cluster_rmsd>  (4) 
0.08

>  <cluster>  (4) 
1

$$$$

     RDKit          3D

 50 53  0  0  0  0  0  0  0  0999 V2000
  141.0390   72.1300  221.2600 O   0  0  0  0  0  0  0  0  0  0  0  0
  140.4200   72.4940  222.2880 C   0  0  0  0  0  0  0  0  0  0  0  0
  139.8990   73.8020  222.3190 N   0  0  0  0  0  0  0  0  0  0  0  0
  140.0830   74.6630  221.2050 C   0  0  0  0  0  0  0  0  0  0  0  0
  140.3070   76.0800  221.5720 C   0  0  0  0  0  0  0  0  0  0  0  0
  139.8340   76.5390  222.6620 O   0  0  0  0  0  0  0  0  0  0  0  0
  141.0510   76.9290  220.7050 N   0  0  0  0  0  0  0  0  0  0  0  0
  142.2940   76.5870  220.0420 C   0  0  0  0  0  0  0  0  0  0  0  0
  142.5630   77.6070  218.9920 C   0  0  0  0  0  0  0  0  0  0  0  0
  141.3410   78.4510  219.0020 C   0  0  0  0  0  0  0  0  0  0  0  0
  140.7010   78.2880  220.3270 C   0  0  2  0  0  0  0  0  0  0  0  0
  141.0080   79.3100  221.3660 C   0  0  2  0  0  0  0  0  0  0  0  0
  142.2070   79.0310  222.1960 C   0  0  0  0  0  0  0  0  0  0  0  0
  141.9220   79.8250  223.4570 C   0  0  0  0  0  0  0  0  0  0  0  0
  140.5090   79.4740  223.6760 N   0  0  0  0  0  0  0  0  0  0  0  0
  139.9380   79.6470  222.3290 C   0  0  0  0  0  0  0  0  0  0  0  0
  140.2470   71.5820  223.4180 C   0  0  0  0  0  0  0  0  0  0  0  0
  139.6130   70.3650  223.2110 C   0  0  0  0  0  0  0  0  0  0  0  0
  139.4160   69.4550  224.2350 C   0  0  0  0  0  0  0  0  0  0  0  0
  139.8820   69.8020  225.5010 C   0  0  0  0  0  0  0  0  0  0  0  0
  139.6940   68.9060  226.5380 C   0  0  0  0  0  0  0  0  0  0  0  0
  140.1520   69.2320  227.8180 C   0  0  0  0  0  0  0  0  0  0  0  0
  139.9530   68.3340  228.8060 F   0  0  0  0  0  0  0  0  0  0  0  0
  140.7850   70.4490  228.0170 C   0  0  0  0  0  0  0  0  0  0  0  0
  140.9680   71.3450  226.9670 C   0  0  0  0  0  0  0  0  0  0  0  0
  140.5180   71.0290  225.7000 C   0  0  0  0  0  0  0  0  0  0  0  0
  140.6880   71.8890  224.6630 N   0  0  0  0  0  0  0  0  0  0  0  0
  139.3770   74.0910  223.1980 H   0  0  0  0  0  0  0  0  0  0  0  0
  140.9556   74.3107  220.6355 H   0  0  0  0  0  0  0  0  0  0  0  0
  139.1534   74.6285  220.6180 H   0  0  0  0  0  0  0  0  0  0  0  0
  143.1157   76.5812  220.7733 H   0  0  0  0  0  0  0  0  0  0  0  0
  142.2174   75.5882  219.5876 H   0  0  0  0  0  0  0  0  0  0  0  0
  143.4534   78.2025  219.2422 H   0  0  0  0  0  0  0  0  0  0  0  0
  142.7665   77.1621  218.0068 H   0  0  0  0  0  0  0  0  0  0  0  0
  141.6109   79.5053  218.8420 H   0  0  0  0  0  0  0  0  0  0  0  0
  140.6533   78.1481  218.1987 H   0  0  0  0  0  0  0  0  0  0  0  0
  139.6171   78.4591  220.2497 H   0  0  0  0  0  0  0  0  0  0  0  0
  141.1693   80.1623  220.6896 H   0  0  0  0  0  0  0  0  0  0  0  0
  142.2987   77.9568  222.4143 H   0  0  0  0  0  0  0  0  0  0  0  0
  143.1534   79.3063  221.7077 H   0  0  0  0  0  0  0  0  0  0  0  0
  142.5565   79.4999  224.2947 H   0  0  0  0  0  0  0  0  0  0  0  0
  142.1210   80.9038  223.3763 H   0  0  0  0  0  0  0  0  0  0  0  0
  140.4650   78.4480  223.9130 H   0  0  0  0  0  0  0  0  0  0  0  0
  139.0792   78.9734  222.1922 H   0  0  0  0  0  0  0  0  0  0  0  0
  139.5824   80.6772  222.1799 H   0  0  0  0  0  0  0  0  0  0  0  0
  139.2557   70.1157  222.2010 H   0  0  0  0  0  0  0  0  0  0  0  0
  138.9107   68.4944  224.0560 H   0  0  0  0  0  0  0  0  0  0  0  0
  139.1888   67.9458  226.3571 H   0  0  0  0  0  0  0  0  0  0  0  0
  141.1489   70.7114  229.0214 H   0  0  0  0  0  0  0  0  0  0  0  0
  141.4718   72.3062  227.1469 H   0  0  0  0  0  0  0  0  0  0  0  0
  1  2  2  0
  2  3  1  0
  3  4  1  0
  4  5  1  0
  5  6  2  0
  5  7  1  0
  7  8  1  0
  8  9  1  0
  9 10  1  0
 10 11  1  0
 11 12  1  0
 12 13  1  0
 13 14  1  0
 14 15  1  0
 15 16  1  0
  2 17  1  0
 17 18  2  0
 18 19  1  0
 19 20  2  0
 20 21  1  0
 21 22  2  0
 22 23  1  0
 22 24  1  0
 24 25  2  0
 25 26  1  0
 26 27  2  0
 11  7  1  0
 16 12  1  0
 27 17  1  0
 26 20  1  0
  3 28  1  0
  4 29  1  0
  4 30  1  0
  8 31  1  0
  8 32  1  0
  9 33  1  0
  9 34  1  0
 10 35  1  0
 10 36  1  0
 11 37  1  6
 12 38  1  6
 13 39  1  0
 13 40  1  0
 14 41  1  0
 14 42  1  0
 15 43  1  0
 16 44  1  0
 16 45  1  0
 18 46  1  0
 19 47  1  0
 21 48  1  0
 24 49  1  0
 25 50  1  0
M  END
>  <smiles>  (5) 
O=C(NCC(=O)N1CCCC1C1CCNC1)c1ccc2cc(F)ccc2n1

>  <score_type>  (5) 
oracle

>  <origin>  (5) 
autodockgpu

>  <m_score__min__energy>  (5) 
-8.9199999999999999

>  <m_primary>  (5) 
energy

>  <rmsd>  (5) 
2.143087499714398

>  <m_score__min__rmsd>  (5) 
2.143087499714398

>  <meeko>  (5) 
{"free_energy": -7.74, "intermolecular_energy": -9.23, "internal_energy": -1.8, "cluster_size": 15, "cluster_id": 2, "rank_in_cluster": 11}

>  <energy>  (5) 
-8.87

>  <cluster_rmsd>  (5) 
0.12

>  <cluster>  (5) 
1

$$$$

     RDKit          3D

 50 53  0  0  0  0  0  0  0  0999 V2000
  141.2140   72.0180  221.4540 O   0  0  0  0  0  0  0  0  0  0  0  0
  140.4860   72.3830  222.4070 C   0  0  0  0  0  0  0  0  0  0  0  0
  139.8570   73.6390  222.3150 N   0  0  0  0  0  0  0  0  0  0  0  0
  140.0580   74.4490  221.1660 C   0  0  0  0  0  0  0  0  0  0  0  0
  140.2040   75.8920  221.4660 C   0  0  0  0  0  0  0  0  0  0  0  0
  139.5520   76.4120  222.4280 O   0  0  0  0  0  0  0  0  0  0  0  0
  141.0730   76.6960  220.6770 N   0  0  0  0  0  0  0  0  0  0  0  0
  142.0930   76.2080  219.7700 C   0  0  0  0  0  0  0  0  0  0  0  0
  142.5430   77.3390  218.9140 C   0  0  0  0  0  0  0  0  0  0  0  0
  141.6240   78.4460  219.2850 C   0  0  0  0  0  0  0  0  0  0  0  0
  141.0970   78.1490  220.6360 C   0  0  2  0  0  0  0  0  0  0  0  0
  141.7870   78.7830  221.7950 C   0  0  2  0  0  0  0  0  0  0  0  0
  141.0650   78.6920  223.0890 C   0  0  0  0  0  0  0  0  0  0  0  0
  141.6370   79.8640  223.8640 C   0  0  0  0  0  0  0  0  0  0  0  0
  141.6050   80.9070  222.8250 N   0  0  0  0  0  0  0  0  0  0  0  0
  142.1750   80.2020  221.6650 C   0  0  0  0  0  0  0  0  0  0  0  0
  140.2980   71.5250  223.5750 C   0  0  0  0  0  0  0  0  0  0  0  0
  139.6230   70.3210  223.4270 C   0  0  0  0  0  0  0  0  0  0  0  0
  139.4090   69.4620  224.4900 C   0  0  0  0  0  0  0  0  0  0  0  0
  139.9030   69.8450  225.7350 C   0  0  0  0  0  0  0  0  0  0  0  0
  139.7000   69.0000  226.8110 C   0  0  0  0  0  0  0  0  0  0  0  0
  140.1850   69.3630  228.0710 C   0  0  0  0  0  0  0  0  0  0  0  0
  139.9700   68.5140  229.0980 F   0  0  0  0  0  0  0  0  0  0  0  0
  140.8590   70.5660  228.2110 C   0  0  0  0  0  0  0  0  0  0  0  0
  141.0580   71.4110  227.1230 C   0  0  0  0  0  0  0  0  0  0  0  0
  140.5810   71.0580  225.8760 C   0  0  0  0  0  0  0  0  0  0  0  0
  140.7650   71.8680  224.8020 N   0  0  0  0  0  0  0  0  0  0  0  0
  139.2430   73.9310  223.1320 H   0  0  0  0  0  0  0  0  0  0  0  0
  140.9712   74.1071  220.6569 H   0  0  0  0  0  0  0  0  0  0  0  0
  139.1599   74.3427  220.5398 H   0  0  0  0  0  0  0  0  0  0  0  0
  142.9447   75.8163  220.3454 H   0  0  0  0  0  0  0  0  0  0  0  0
  141.6860   75.4000  219.1442 H   0  0  0  0  0  0  0  0  0  0  0  0
  143.5875   77.6057  219.1329 H   0  0  0  0  0  0  0  0  0  0  0  0
  142.5130   77.1005  217.8406 H   0  0  0  0  0  0  0  0  0  0  0  0
  142.1703   79.4007  219.2959 H   0  0  0  0  0  0  0  0  0  0  0  0
  140.8032   78.5301  218.5575 H   0  0  0  0  0  0  0  0  0  0  0  0
  140.1069   78.6098  220.7678 H   0  0  0  0  0  0  0  0  0  0  0  0
  142.6921   78.1579  221.7871 H   0  0  0  0  0  0  0  0  0  0  0  0
  139.9795   78.8001  222.9476 H   0  0  0  0  0  0  0  0  0  0  0  0
  141.1931   77.7247  223.5968 H   0  0  0  0  0  0  0  0  0  0  0  0
  141.0067   80.1286  224.7258 H   0  0  0  0  0  0  0  0  0  0  0  0
  142.6283   79.6842  224.3057 H   0  0  0  0  0  0  0  0  0  0  0  0
  140.5950   81.1160  222.6090 H   0  0  0  0  0  0  0  0  0  0  0  0
  141.7713   80.6209  220.7314 H   0  0  0  0  0  0  0  0  0  0  0  0
  143.2692   80.3108  221.6357 H   0  0  0  0  0  0  0  0  0  0  0  0
  139.2461   70.0410  222.4323 H   0  0  0  0  0  0  0  0  0  0  0  0
  138.8693   68.5127  224.3573 H   0  0  0  0  0  0  0  0  0  0  0  0
  139.1615   68.0503  226.6765 H   0  0  0  0  0  0  0  0  0  0  0  0
  141.2434   70.8581  229.1994 H   0  0  0  0  0  0  0  0  0  0  0  0
  141.5959   72.3612  227.2566 H   0  0  0  0  0  0  0  0  0  0  0  0
  1  2  2  0
  2  3  1  0
  3  4  1  0
  4  5  1  0
  5  6  2  0
  5  7  1  0
  7  8  1  0
  8  9  1  0
  9 10  1  0
 10 11  1  0
 11 12  1  0
 12 13  1  0
 13 14  1  0
 14 15  1  0
 15 16  1  0
  2 17  1  0
 17 18  2  0
 18 19  1  0
 19 20  2  0
 20 21  1  0
 21 22  2  0
 22 23  1  0
 22 24  1  0
 24 25  2  0
 25 26  1  0
 26 27  2  0
 11  7  1  0
 16 12  1  0
 27 17  1  0
 26 20  1  0
  3 28  1  0
  4 29  1  0
  4 30  1  0
  8 31  1  0
  8 32  1  0
  9 33  1  0
  9 34  1  0
 10 35  1  0
 10 36  1  0
 11 37  1  6
 12 38  1  1
 13 39  1  0
 13 40  1  0
 14 41  1  0
 14 42  1  0
 15 43  1  0
 16 44  1  0
 16 45  1  0
 18 46  1  0
 19 47  1  0
 21 48  1  0
 24 49  1  0
 25 50  1  0
M  END
>  <smiles>  (6) 
O=C(NCC(=O)N1CCCC1C1CCNC1)c1ccc2cc(F)ccc2n1

>  <score_type>  (6) 
oracle

>  <origin>  (6) 
autodockgpu

>  <m_score__min__energy>  (6) 
-8.9199999999999999

>  <m_primary>  (6) 
energy

>  <rmsd>  (6) 
2.0485057484787514

>  <m_score__min__rmsd>  (6) 
2.0485057484787514

>  <meeko>  (6) 
{"free_energy": -8.22, "intermolecular_energy": -9.72, "internal_energy": -1.19, "cluster_size": 15, "cluster_id": 2, "rank_in_cluster": 6}

>  <energy>  (6) 
-8.86

>  <cluster_rmsd>  (6) 
0.17

>  <cluster>  (6) 
1

$$$$

     RDKit          3D

 50 53  0  0  0  0  0  0  0  0999 V2000
  141.1640   72.0540  221.4180 O   0  0  0  0  0  0  0  0  0  0  0  0
  140.4830   72.4360  222.3990 C   0  0  0  0  0  0  0  0  0  0  0  0
  139.9050   73.7190  222.3420 N   0  0  0  0  0  0  0  0  0  0  0  0
  140.1030   74.5350  221.1980 C   0  0  0  0  0  0  0  0  0  0  0  0
  139.8860   75.9790  221.4450 C   0  0  0  0  0  0  0  0  0  0  0  0
  138.9890   76.3580  222.2660 O   0  0  0  0  0  0  0  0  0  0  0  0
  140.6810   76.9430  220.7630 N   0  0  0  0  0  0  0  0  0  0  0  0
  141.9060   76.6740  220.0370 C   0  0  0  0  0  0  0  0  0  0  0  0
  142.2380   77.8690  219.2140 C   0  0  0  0  0  0  0  0  0  0  0  0
  141.0650   78.7600  219.4010 C   0  0  0  0  0  0  0  0  0  0  0  0
  140.4100   78.3680  220.6690 C   0  0  2  0  0  0  0  0  0  0  0  0
  140.7670   79.1410  221.8930 C   0  0  2  0  0  0  0  0  0  0  0  0
  141.7280   80.2520  221.6820 C   0  0  0  0  0  0  0  0  0  0  0  0
  142.3380   80.4220  223.0600 C   0  0  0  0  0  0  0  0  0  0  0  0
  142.5740   79.0140  223.4180 N   0  0  0  0  0  0  0  0  0  0  0  0
  141.2960   78.3840  223.0470 C   0  0  0  0  0  0  0  0  0  0  0  0
  140.2960   71.5710  223.5620 C   0  0  0  0  0  0  0  0  0  0  0  0
  139.6290   70.3640  223.4050 C   0  0  0  0  0  0  0  0  0  0  0  0
  139.4170   69.4970  224.4630 C   0  0  0  0  0  0  0  0  0  0  0  0
  139.9030   69.8780  225.7110 C   0  0  0  0  0  0  0  0  0  0  0  0
  139.7020   69.0250  226.7820 C   0  0  0  0  0  0  0  0  0  0  0  0
  140.1800   69.3850  228.0460 C   0  0  0  0  0  0  0  0  0  0  0  0
  139.9660   68.5290  229.0670 F   0  0  0  0  0  0  0  0  0  0  0  0
  140.8450   70.5910  228.1950 C   0  0  0  0  0  0  0  0  0  0  0  0
  141.0430   71.4440  227.1120 C   0  0  0  0  0  0  0  0  0  0  0  0
  140.5730   71.0940  225.8610 C   0  0  0  0  0  0  0  0  0  0  0  0
  140.7560   71.9110  224.7920 N   0  0  0  0  0  0  0  0  0  0  0  0
  139.3300   74.0250  223.1830 H   0  0  0  0  0  0  0  0  0  0  0  0
  141.1363   74.3952  220.8477 H   0  0  0  0  0  0  0  0  0  0  0  0
  139.3576   74.2237  220.4513 H   0  0  0  0  0  0  0  0  0  0  0  0
  142.7220   76.4738  220.7470 H   0  0  0  0  0  0  0  0  0  0  0  0
  141.7756   75.7943  219.3896 H   0  0  0  0  0  0  0  0  0  0  0  0
  143.1585   78.3509  219.5751 H   0  0  0  0  0  0  0  0  0  0  0  0
  142.4227   77.6223  218.1581 H   0  0  0  0  0  0  0  0  0  0  0  0
  141.3939   79.8082  219.4560 H   0  0  0  0  0  0  0  0  0  0  0  0
  140.3661   78.6648  218.5569 H   0  0  0  0  0  0  0  0  0  0  0  0
  139.3378   78.6113  220.6334 H   0  0  0  0  0  0  0  0  0  0  0  0
  139.7595   79.5118  222.1328 H   0  0  0  0  0  0  0  0  0  0  0  0
  142.4926   79.9809  220.9391 H   0  0  0  0  0  0  0  0  0  0  0  0
  141.2611   81.1686  221.2922 H   0  0  0  0  0  0  0  0  0  0  0  0
  143.2761   80.9951  223.0220 H   0  0  0  0  0  0  0  0  0  0  0  0
  141.7149   80.9806  223.7739 H   0  0  0  0  0  0  0  0  0  0  0  0
  143.3170   78.6370  222.7720 H   0  0  0  0  0  0  0  0  0  0  0  0
  141.4589   77.3326  222.7678 H   0  0  0  0  0  0  0  0  0  0  0  0
  140.5881   78.4010  223.8887 H   0  0  0  0  0  0  0  0  0  0  0  0
  139.2568   70.0874  222.4075 H   0  0  0  0  0  0  0  0  0  0  0  0
  138.8854   68.5442  224.3233 H   0  0  0  0  0  0  0  0  0  0  0  0
  139.1709   68.0722  226.6403 H   0  0  0  0  0  0  0  0  0  0  0  0
  141.2235   70.8802  229.1865 H   0  0  0  0  0  0  0  0  0  0  0  0
  141.5740   72.3970  227.2528 H   0  0  0  0  0  0  0  0  0  0  0  0
  1  2  2  0
  2  3  1  0
  3  4  1  0
  4  5  1  0
  5  6  2  0
  5  7  1  0
  7  8  1  0
  8  9  1  0
  9 10  1  0
 10 11  1  0
 11 12  1  0
 12 13  1  0
 13 14  1  0
 14 15  1  0
 15 16  1  0
  2 17  1  0
 17 18  2  0
 18 19  1  0
 19 20  2  0
 20 21  1  0
 21 22  2  0
 22 23  1  0
 22 24  1  0
 24 25  2  0
 25 26  1  0
 26 27  2  0
 11  7  1  0
 16 12  1  0
 27 17  1  0
 26 20  1  0
  3 28  1  0
  4 29  1  0
  4 30  1  0
  8 31  1  0
  8 32  1  0
  9 33  1  0
  9 34  1  0
 10 35  1  0
 10 36  1  0
 11 37  1  6
 12 38  1  1
 13 39  1  0
 13 40  1  0
 14 41  1  0
 14 42  1  0
 15 43  1  0
 16 44  1  0
 16 45  1  0
 18 46  1  0
 19 47  1  0
 21 48  1  0
 24 49  1  0
 25 50  1  0
M  END
>  <smiles>  (7) 
O=C(NCC(=O)N1CCCC1C1CCNC1)c1ccc2cc(F)ccc2n1

>  <score_type>  (7) 
oracle

>  <origin>  (7) 
autodockgpu

>  <m_score__min__energy>  (7) 
-8.9199999999999999

>  <m_primary>  (7) 
energy

>  <rmsd>  (7) 
2.1644007893785018

>  <m_score__min__rmsd>  (7) 
2.1644007893785018

>  <meeko>  (7) 
{"free_energy": -8.38, "intermolecular_energy": -9.87, "internal_energy": -1.34, "cluster_size": 15, "cluster_id": 2, "rank_in_cluster": 5}

>  <energy>  (7) 
-8.84

>  <cluster_rmsd>  (7) 
0.26

>  <cluster>  (7) 
1

$$$$

     RDKit          3D

 50 53  0  0  0  0  0  0  0  0999 V2000
  141.4150   72.2960  221.6870 O   0  0  0  0  0  0  0  0  0  0  0  0
  140.4150   72.4170  222.4340 C   0  0  0  0  0  0  0  0  0  0  0  0
  139.4670   73.4080  222.1150 N   0  0  0  0  0  0  0  0  0  0  0  0
  139.6610   74.2330  220.9760 C   0  0  0  0  0  0  0  0  0  0  0  0
  140.7550   75.2190  221.1280 C   0  0  0  0  0  0  0  0  0  0  0  0
  141.1130   75.6000  222.2890 O   0  0  0  0  0  0  0  0  0  0  0  0
  141.4060   75.7410  219.9750 N   0  0  0  0  0  0  0  0  0  0  0  0
  140.7530   76.1890  218.7610 C   0  0  0  0  0  0  0  0  0  0  0  0
  141.7410   76.9500  217.9480 C   0  0  0  0  0  0  0  0  0  0  0  0
  142.9320   77.0310  218.8310 C   0  0  0  0  0  0  0  0  0  0  0  0
  142.8380   75.9190  219.8040 C   0  0  2  0  0  0  0  0  0  0  0  0
  143.5770   74.6650  219.4850 C   0  0  2  0  0  0  0  0  0  0  0  0
  142.7260   73.4860  219.1910 C   0  0  0  0  0  0  0  0  0  0  0  0
  143.6530   72.3270  219.5090 C   0  0  0  0  0  0  0  0  0  0  0  0
  144.2280   72.7930  220.7820 N   0  0  0  0  0  0  0  0  0  0  0  0
  144.5730   74.1910  220.4690 C   0  0  0  0  0  0  0  0  0  0  0  0
  140.2430   71.5510  223.5990 C   0  0  0  0  0  0  0  0  0  0  0  0
  139.5740   70.3430  223.4490 C   0  0  0  0  0  0  0  0  0  0  0  0
  139.3750   69.4760  224.5080 C   0  0  0  0  0  0  0  0  0  0  0  0
  139.8770   69.8550  225.7510 C   0  0  0  0  0  0  0  0  0  0  0  0
  139.6900   69.0020  226.8230 C   0  0  0  0  0  0  0  0  0  0  0  0
  140.1830   69.3600  228.0810 C   0  0  0  0  0  0  0  0  0  0  0  0
  139.9820   68.5030  229.1050 F   0  0  0  0  0  0  0  0  0  0  0  0
  140.8500   70.5660  228.2230 C   0  0  0  0  0  0  0  0  0  0  0  0
  141.0340   71.4190  227.1390 C   0  0  0  0  0  0  0  0  0  0  0  0
  140.5490   71.0710  225.8930 C   0  0  0  0  0  0  0  0  0  0  0  0
  140.7180   71.8890  224.8230 N   0  0  0  0  0  0  0  0  0  0  0  0
  138.6260   73.4940  222.7590 H   0  0  0  0  0  0  0  0  0  0  0  0
  139.8938   73.5873  220.1164 H   0  0  0  0  0  0  0  0  0  0  0  0
  138.7325   74.8058  220.8351 H   0  0  0  0  0  0  0  0  0  0  0  0
  140.3934   75.3200  218.1905 H   0  0  0  0  0  0  0  0  0  0  0  0
  139.8943   76.8303  219.0089 H   0  0  0  0  0  0  0  0  0  0  0  0
  141.9783   76.4150  217.0166 H   0  0  0  0  0  0  0  0  0  0  0  0
  141.3697   77.9385  217.6397 H   0  0  0  0  0  0  0  0  0  0  0  0
  143.8504   76.9314  218.2337 H   0  0  0  0  0  0  0  0  0  0  0  0
  142.9653   78.0000  219.3505 H   0  0  0  0  0  0  0  0  0  0  0  0
  143.3637   76.1818  220.7338 H   0  0  0  0  0  0  0  0  0  0  0  0
  144.0988   75.0261  218.5864 H   0  0  0  0  0  0  0  0  0  0  0  0
  141.8334   73.4694  219.8336 H   0  0  0  0  0  0  0  0  0  0  0  0
  142.3389   73.4693  218.1615 H   0  0  0  0  0  0  0  0  0  0  0  0
  143.0991   71.3848  219.6331 H   0  0  0  0  0  0  0  0  0  0  0  0
  144.3912   72.0991  218.7260 H   0  0  0  0  0  0  0  0  0  0  0  0
  143.4560   72.8060  221.4990 H   0  0  0  0  0  0  0  0  0  0  0  0
  144.5277   74.8056  221.3801 H   0  0  0  0  0  0  0  0  0  0  0  0
  145.5937   74.2655  220.0657 H   0  0  0  0  0  0  0  0  0  0  0  0
  139.1901   70.0670  222.4558 H   0  0  0  0  0  0  0  0  0  0  0  0
  138.8409   68.5238  224.3739 H   0  0  0  0  0  0  0  0  0  0  0  0
  139.1575   68.0492  226.6869 H   0  0  0  0  0  0  0  0  0  0  0  0
  141.2410   70.8543  229.2099 H   0  0  0  0  0  0  0  0  0  0  0  0
  141.5665   72.3720  227.2744 H   0  0  0  0  0  0  0  0  0  0  0  0
  1  2  2  0
  2  3  1  0
  3  4  1  0
  4  5  1  0
  5  6  2  0
  5  7  1  0
  7  8  1  0
  8  9  1  0
  9 10  1  0
 10 11  1  0
 11 12  1  0
 12 13  1  0
 13 14  1  0
 14 15  1  0
 15 16  1  0
  2 17  1  0
 17 18  2  0
 18 19  1  0
 19 20  2  0
 20 21  1  0
 21 22  2  0
 22 23  1  0
 22 24  1  0
 24 25  2  0
 25 26  1  0
 26 27  2  0
 11  7  1  0
 16 12  1  0
 27 17  1  0
 26 20  1  0
  3 28  1  0
  4 29  1  0
  4 30  1  0
  8 31  1  0
  8 32  1  0
  9 33  1  0
  9 34  1  0
 10 35  1  0
 10 36  1  0
 11 37  1  1
 12 38  1  6
 13 39  1  0
 13 40  1  0
 14 41  1  0
 14 42  1  0
 15 43  1  0
 16 44  1  0
 16 45  1  0
 18 46  1  0
 19 47  1  0
 21 48  1  0
 24 49  1  0
 25 50  1  0
M  END
>  <smiles>  (8) 
O=C(NCC(=O)N1CCCC1C1CCNC1)c1ccc2cc(F)ccc2n1

>  <score_type>  (8) 
oracle

>  <origin>  (8) 
autodockgpu

>  <m_score__min__energy>  (8) 
-8.9199999999999999

>  <m_primary>  (8) 
energy

>  <rmsd>  (8) 
1.7386761806322595

>  <m_score__min__rmsd>  (8) 
1.7386761806322595

>  <meeko>  (8) 
{"free_energy": -7.33, "intermolecular_energy": -8.82, "internal_energy": -2.13, "cluster_size": 32, "cluster_id": 1, "rank_in_cluster": 29}

>  <energy>  (8) 
-8.8

>  <cluster_rmsd>  (8) 
0.21

>  <cluster>  (8) 
1

$$$$

     RDKit          3D

 50 53  0  0  0  0  0  0  0  0999 V2000
  138.4980   71.5480  222.1060 O   0  0  0  0  0  0  0  0  0  0  0  0
  139.6140   71.3370  222.6390 C   0  0  0  0  0  0  0  0  0  0  0  0
  140.7530   71.9040  222.0350 N   0  0  0  0  0  0  0  0  0  0  0  0
  140.6150   72.6870  220.8580 C   0  0  0  0  0  0  0  0  0  0  0  0
  140.9640   74.1140  221.0420 C   0  0  0  0  0  0  0  0  0  0  0  0
  140.4100   74.7920  221.9660 O   0  0  0  0  0  0  0  0  0  0  0  0
  141.9190   74.7270  220.1830 N   0  0  0  0  0  0  0  0  0  0  0  0
  141.6480   75.2870  218.8730 C   0  0  0  0  0  0  0  0  0  0  0  0
  142.8210   76.1050  218.4590 C   0  0  0  0  0  0  0  0  0  0  0  0
  143.6960   76.0940  219.6590 C   0  0  0  0  0  0  0  0  0  0  0  0
  143.3350   74.9040  220.4600 C   0  0  2  0  0  0  0  0  0  0  0  0
  144.1540   73.6740  220.2670 C   0  0  2  0  0  0  0  0  0  0  0  0
  145.3970   73.6070  221.0760 C   0  0  0  0  0  0  0  0  0  0  0  0
  146.2580   72.6510  220.2720 C   0  0  0  0  0  0  0  0  0  0  0  0
  146.0320   73.1730  218.9140 N   0  0  0  0  0  0  0  0  0  0  0  0
  144.5690   73.3400  218.8890 C   0  0  0  0  0  0  0  0  0  0  0  0
  139.7230   70.5280  223.8510 C   0  0  0  0  0  0  0  0  0  0  0  0
  139.1680   69.2550  223.8640 C   0  0  0  0  0  0  0  0  0  0  0  0
  139.2340   68.4360  224.9770 C   0  0  0  0  0  0  0  0  0  0  0  0
  139.8870   68.9330  226.1030 C   0  0  0  0  0  0  0  0  0  0  0  0
  139.9640   68.1300  227.2260 C   0  0  0  0  0  0  0  0  0  0  0  0
  140.6130   68.6060  228.3690 C   0  0  0  0  0  0  0  0  0  0  0  0
  140.6690   67.7950  229.4460 F   0  0  0  0  0  0  0  0  0  0  0  0
  141.1640   69.8770  228.3480 C   0  0  0  0  0  0  0  0  0  0  0  0
  141.0820   70.6800  227.2130 C   0  0  0  0  0  0  0  0  0  0  0  0
  140.4420   70.2150  226.0810 C   0  0  0  0  0  0  0  0  0  0  0  0
  140.3510   70.9820  224.9640 N   0  0  0  0  0  0  0  0  0  0  0  0
  141.6890   71.7150  222.5010 H   0  0  0  0  0  0  0  0  0  0  0  0
  141.2732   72.2667  220.0833 H   0  0  0  0  0  0  0  0  0  0  0  0
  139.5528   72.6523  220.5743 H   0  0  0  0  0  0  0  0  0  0  0  0
  141.4869   74.4754  218.1482 H   0  0  0  0  0  0  0  0  0  0  0  0
  140.7447   75.9136  218.9097 H   0  0  0  0  0  0  0  0  0  0  0  0
  143.3314   75.6513  217.5967 H   0  0  0  0  0  0  0  0  0  0  0  0
  142.5429   77.1211  218.1423 H   0  0  0  0  0  0  0  0  0  0  0  0
  144.7513   76.0358  219.3541 H   0  0  0  0  0  0  0  0  0  0  0  0
  143.5595   77.0135  220.2471 H   0  0  0  0  0  0  0  0  0  0  0  0
  143.5576   75.0799  221.5228 H   0  0  0  0  0  0  0  0  0  0  0  0
  143.4049   72.9439  220.6073 H   0  0  0  0  0  0  0  0  0  0  0  0
  145.8715   74.5959  221.1591 H   0  0  0  0  0  0  0  0  0  0  0  0
  145.2293   73.2811  222.1131 H   0  0  0  0  0  0  0  0  0  0  0  0
  147.3172   72.7152  220.5618 H   0  0  0  0  0  0  0  0  0  0  0  0
  146.0113   71.5871  220.4036 H   0  0  0  0  0  0  0  0  0  0  0  0
  146.4640   74.1330  218.8610 H   0  0  0  0  0  0  0  0  0  0  0  0
  144.2924   74.1537  218.2025 H   0  0  0  0  0  0  0  0  0  0  0  0
  144.0729   72.4228  218.5387 H   0  0  0  0  0  0  0  0  0  0  0  0
  138.6599   68.8863  222.9608 H   0  0  0  0  0  0  0  0  0  0  0  0
  138.7878   67.4305  224.9732 H   0  0  0  0  0  0  0  0  0  0  0  0
  139.5181   67.1245  227.2200 H   0  0  0  0  0  0  0  0  0  0  0  0
  141.6755   70.2588  229.2439 H   0  0  0  0  0  0  0  0  0  0  0  0
  141.5275   71.6857  227.2182 H   0  0  0  0  0  0  0  0  0  0  0  0
  1  2  2  0
  2  3  1  0
  3  4  1  0
  4  5  1  0
  5  6  2  0
  5  7  1  0
  7  8  1  0
  8  9  1  0
  9 10  1  0
 10 11  1  0
 11 12  1  0
 12 13  1  0
 13 14  1  0
 14 15  1  0
 15 16  1  0
  2 17  1  0
 17 18  2  0
 18 19  1  0
 19 20  2  0
 20 21  1  0
 21 22  2  0
 22 23  1  0
 22 24  1  0
 24 25  2  0
 25 26  1  0
 26 27  2  0
 11  7  1  0
 16 12  1  0
 27 17  1  0
 26 20  1  0
  3 28  1  0
  4 29  1  0
  4 30  1  0
  8 31  1  0
  8 32  1  0
  9 33  1  0
  9 34  1  0
 10 35  1  0
 10 36  1  0
 11 37  1  1
 12 38  1  1
 13 39  1  0
 13 40  1  0
 14 41  1  0
 14 42  1  0
 15 43  1  0
 16 44  1  0
 16 45  1  0
 18 46  1  0
 19 47  1  0
 21 48  1  0
 24 49  1  0
 25 50  1  0
M  END
>  <smiles>  (9) 
O=C(NCC(=O)N1CCCC1C1CCNC1)c1ccc2cc(F)ccc2n1

>  <score_type>  (9) 
oracle

>  <origin>  (9) 
autodockgpu

>  <m_score__min__energy>  (9) 
-8.9199999999999999

>  <m_primary>  (9) 
energy

>  <rmsd>  (9) 
2.2536002108512925

>  <m_score__min__rmsd>  (9) 
2.2536002108512925

>  <meeko>  (9) 
{"free_energy": -8.7, "intermolecular_energy": -10.19, "internal_energy": -1.13, "cluster_size": 32, "cluster_id": 1, "rank_in_cluster": 13}

>  <energy>  (9) 
-8.8

>  <cluster_rmsd>  (9) 
0.29

>  <cluster>  (9) 
1

$$$$

     RDKit          3D

 50 53  0  0  0  0  0  0  0  0999 V2000
  141.3130   72.0850  221.5520 O   0  0  0  0  0  0  0  0  0  0  0  0
  140.3980   72.3160  222.3790 C   0  0  0  0  0  0  0  0  0  0  0  0
  139.5470   73.4110  222.1350 N   0  0  0  0  0  0  0  0  0  0  0  0
  139.7410   74.2140  220.9810 C   0  0  0  0  0  0  0  0  0  0  0  0
  140.9900   75.0100  221.0040 C   0  0  0  0  0  0  0  0  0  0  0  0
  141.3680   75.5710  222.0830 O   0  0  0  0  0  0  0  0  0  0  0  0
  141.7660   75.1470  219.8190 N   0  0  0  0  0  0  0  0  0  0  0  0
  141.2520   75.1650  218.4640 C   0  0  0  0  0  0  0  0  0  0  0  0
  142.3300   75.6460  217.5580 C   0  0  0  0  0  0  0  0  0  0  0  0
  143.4210   76.0350  218.4870 C   0  0  0  0  0  0  0  0  0  0  0  0
  143.2100   75.2950  219.7520 C   0  0  2  0  0  0  0  0  0  0  0  0
  143.9640   74.0220  219.9340 C   0  0  2  0  0  0  0  0  0  0  0  0
  145.0990   74.0900  220.8880 C   0  0  0  0  0  0  0  0  0  0  0  0
  145.9830   72.9470  220.4240 C   0  0  0  0  0  0  0  0  0  0  0  0
  145.9480   73.1610  218.9680 N   0  0  0  0  0  0  0  0  0  0  0  0
  144.5110   73.3740  218.7240 C   0  0  0  0  0  0  0  0  0  0  0  0
  140.2250   71.4690  223.5570 C   0  0  0  0  0  0  0  0  0  0  0  0
  139.5600   70.2570  223.4250 C   0  0  0  0  0  0  0  0  0  0  0  0
  139.3600   69.4070  224.4980 C   0  0  0  0  0  0  0  0  0  0  0  0
  139.8560   69.8080  225.7370 C   0  0  0  0  0  0  0  0  0  0  0  0
  139.6670   68.9720  226.8220 C   0  0  0  0  0  0  0  0  0  0  0  0
  140.1560   69.3530  228.0760 C   0  0  0  0  0  0  0  0  0  0  0  0
  139.9530   68.5130  229.1120 F   0  0  0  0  0  0  0  0  0  0  0  0
  140.8190   70.5640  228.2000 C   0  0  0  0  0  0  0  0  0  0  0  0
  141.0040   71.3990  227.1020 C   0  0  0  0  0  0  0  0  0  0  0  0
  140.5240   71.0290  225.8610 C   0  0  0  0  0  0  0  0  0  0  0  0
  140.6950   71.8290  224.7770 N   0  0  0  0  0  0  0  0  0  0  0  0
  138.7780   73.5900  222.8460 H   0  0  0  0  0  0  0  0  0  0  0  0
  139.7673   73.5544  220.1011 H   0  0  0  0  0  0  0  0  0  0  0  0
  138.9073   74.9308  220.9482 H   0  0  0  0  0  0  0  0  0  0  0  0
  140.9449   74.1505  218.1699 H   0  0  0  0  0  0  0  0  0  0  0  0
  140.3795   75.8319  218.4000 H   0  0  0  0  0  0  0  0  0  0  0  0
  142.6590   74.8451  216.8796 H   0  0  0  0  0  0  0  0  0  0  0  0
  142.0055   76.4737  216.9102 H   0  0  0  0  0  0  0  0  0  0  0  0
  144.3965   75.7688  218.0539 H   0  0  0  0  0  0  0  0  0  0  0  0
  143.4107   77.1204  218.6655 H   0  0  0  0  0  0  0  0  0  0  0  0
  143.6353   75.8565  220.5969 H   0  0  0  0  0  0  0  0  0  0  0  0
  143.1354   73.4145  220.3269 H   0  0  0  0  0  0  0  0  0  0  0  0
  145.6236   75.0541  220.8144 H   0  0  0  0  0  0  0  0  0  0  0  0
  144.7932   74.0096  221.9416 H   0  0  0  0  0  0  0  0  0  0  0  0
  147.0041   73.0342  220.8236 H   0  0  0  0  0  0  0  0  0  0  0  0
  145.6544   71.9493  220.7505 H   0  0  0  0  0  0  0  0  0  0  0  0
  146.4450   74.0680  218.7640 H   0  0  0  0  0  0  0  0  0  0  0  0
  144.3679   74.0244  217.8485 H   0  0  0  0  0  0  0  0  0  0  0  0
  143.9997   72.4215  218.5210 H   0  0  0  0  0  0  0  0  0  0  0  0
  139.1800   69.9634  222.4353 H   0  0  0  0  0  0  0  0  0  0  0  0
  138.8296   68.4509  224.3777 H   0  0  0  0  0  0  0  0  0  0  0  0
  139.1369   68.0159  226.7002 H   0  0  0  0  0  0  0  0  0  0  0  0
  141.2056   70.8704  229.1832 H   0  0  0  0  0  0  0  0  0  0  0  0
  141.5336   72.3555  227.2229 H   0  0  0  0  0  0  0  0  0  0  0  0
  1  2  2  0
  2  3  1  0
  3  4  1  0
  4  5  1  0
  5  6  2  0
  5  7  1  0
  7  8  1  0
  8  9  1  0
  9 10  1  0
 10 11  1  0
 11 12  1  0
 12 13  1  0
 13 14  1  0
 14 15  1  0
 15 16  1  0
  2 17  1  0
 17 18  2  0
 18 19  1  0
 19 20  2  0
 20 21  1  0
 21 22  2  0
 22 23  1  0
 22 24  1  0
 24 25  2  0
 25 26  1  0
 26 27  2  0
 11  7  1  0
 16 12  1  0
 27 17  1  0
 26 20  1  0
  3 28  1  0
  4 29  1  0
  4 30  1  0
  8 31  1  0
  8 32  1  0
  9 33  1  0
  9 34  1  0
 10 35  1  0
 10 36  1  0
 11 37  1  1
 12 38  1  1
 13 39  1  0
 13 40  1  0
 14 41  1  0
 14 42  1  0
 15 43  1  0
 16 44  1  0
 16 45  1  0
 18 46  1  0
 19 47  1  0
 21 48  1  0
 24 49  1  0
 25 50  1  0
M  END
>  <smiles>  (10) 
O=C(NCC(=O)N1CCCC1C1CCNC1)c1ccc2cc(F)ccc2n1

>  <score_type>  (10) 
oracle

>  <origin>  (10) 
autodockgpu

>  <m_score__min__energy>  (10) 
-8.9199999999999999

>  <m_primary>  (10) 
energy

>  <rmsd>  (10) 
1.9179267441722103

>  <m_score__min__rmsd>  (10) 
1.9179267441722103

>  <meeko>  (10) 
{"free_energy": -8.89, "intermolecular_energy": -10.38, "internal_energy": -1.31, "cluster_size": 32, "cluster_id": 1, "rank_in_cluster": 3}

>  <energy>  (10) 
-8.8

>  <cluster_rmsd>  (10) 
0.47

>  <cluster>  (10) 
1

$$$$

     RDKit          3D

 50 53  0  0  0  0  0  0  0  0999 V2000
  140.7930   71.2200  221.3290 O   0  0  0  0  0  0  0  0  0  0  0  0
  140.3230   71.7690  222.3530 C   0  0  0  0  0  0  0  0  0  0  0  0
  139.9480   73.1230  222.2650 N   0  0  0  0  0  0  0  0  0  0  0  0
  140.1070   73.8230  221.0400 C   0  0  0  0  0  0  0  0  0  0  0  0
  141.0940   74.9270  221.1030 C   0  0  0  0  0  0  0  0  0  0  0  0
  141.1880   75.6390  222.1540 O   0  0  0  0  0  0  0  0  0  0  0  0
  141.9350   75.1900  219.9850 N   0  0  0  0  0  0  0  0  0  0  0  0
  141.4960   75.3740  218.6160 C   0  0  0  0  0  0  0  0  0  0  0  0
  142.6260   75.9420  217.8320 C   0  0  0  0  0  0  0  0  0  0  0  0
  143.6680   76.2030  218.8580 C   0  0  0  0  0  0  0  0  0  0  0  0
  143.3820   75.3230  220.0130 C   0  0  2  0  0  0  0  0  0  0  0  0
  144.1140   74.0270  220.0850 C   0  0  2  0  0  0  0  0  0  0  0  0
  145.3520   74.0440  220.9030 C   0  0  0  0  0  0  0  0  0  0  0  0
  146.1430   72.8870  220.3210 C   0  0  0  0  0  0  0  0  0  0  0  0
  145.9480   73.1340  218.8820 N   0  0  0  0  0  0  0  0  0  0  0  0
  144.5000   73.3900  218.8080 C   0  0  0  0  0  0  0  0  0  0  0  0
  140.1700   71.0200  223.5990 C   0  0  0  0  0  0  0  0  0  0  0  0
  139.5590   69.7740  223.5670 C   0  0  0  0  0  0  0  0  0  0  0  0
  139.3810   69.0120  224.7080 C   0  0  0  0  0  0  0  0  0  0  0  0
  139.8440   69.5400  225.9120 C   0  0  0  0  0  0  0  0  0  0  0  0
  139.6770   68.7940  227.0640 C   0  0  0  0  0  0  0  0  0  0  0  0
  140.1320   69.3020  228.2840 C   0  0  0  0  0  0  0  0  0  0  0  0
  139.9520   68.5470  229.3880 F   0  0  0  0  0  0  0  0  0  0  0  0
  140.7410   70.5460  228.3080 C   0  0  0  0  0  0  0  0  0  0  0  0
  140.9050   71.2910  227.1440 C   0  0  0  0  0  0  0  0  0  0  0  0
  140.4580   70.7940  225.9350 C   0  0  0  0  0  0  0  0  0  0  0  0
  140.6090   71.5050  224.7880 N   0  0  0  0  0  0  0  0  0  0  0  0
  139.5510   73.5710  223.1440 H   0  0  0  0  0  0  0  0  0  0  0  0
  140.4364   73.1073  220.2723 H   0  0  0  0  0  0  0  0  0  0  0  0
  139.1338   74.2778  220.8034 H   0  0  0  0  0  0  0  0  0  0  0  0
  141.1972   74.4055  218.1885 H   0  0  0  0  0  0  0  0  0  0  0  0
  140.6338   76.0563  218.5844 H   0  0  0  0  0  0  0  0  0  0  0  0
  142.9850   75.2215  217.0824 H   0  0  0  0  0  0  0  0  0  0  0  0
  142.3446   76.8447  217.2700 H   0  0  0  0  0  0  0  0  0  0  0  0
  144.6635   75.9753  218.4492 H   0  0  0  0  0  0  0  0  0  0  0  0
  143.6569   77.2599  219.1628 H   0  0  0  0  0  0  0  0  0  0  0  0
  143.7657   75.7750  220.9395 H   0  0  0  0  0  0  0  0  0  0  0  0
  143.3185   73.4342  220.5602 H   0  0  0  0  0  0  0  0  0  0  0  0
  145.8931   74.9946  220.7863 H   0  0  0  0  0  0  0  0  0  0  0  0
  145.1664   73.9503  221.9832 H   0  0  0  0  0  0  0  0  0  0  0  0
  147.2052   72.9374  220.6025 H   0  0  0  0  0  0  0  0  0  0  0  0
  145.8249   71.8918  220.6651 H   0  0  0  0  0  0  0  0  0  0  0  0
  146.4450   74.0300  218.6390 H   0  0  0  0  0  0  0  0  0  0  0  0
  144.2767   74.0623  217.9665 H   0  0  0  0  0  0  0  0  0  0  0  0
  143.9414   72.4561  218.6476 H   0  0  0  0  0  0  0  0  0  0  0  0
  139.2048   69.3796  222.6031 H   0  0  0  0  0  0  0  0  0  0  0  0
  138.8928   68.0272  224.6665 H   0  0  0  0  0  0  0  0  0  0  0  0
  139.1900   67.8086  227.0207 H   0  0  0  0  0  0  0  0  0  0  0  0
  141.1015   70.9524  229.2645 H   0  0  0  0  0  0  0  0  0  0  0  0
  141.3912   72.2768  227.1867 H   0  0  0  0  0  0  0  0  0  0  0  0
  1  2  2  0
  2  3  1  0
  3  4  1  0
  4  5  1  0
  5  6  2  0
  5  7  1  0
  7  8  1  0
  8  9  1  0
  9 10  1  0
 10 11  1  0
 11 12  1  0
 12 13  1  0
 13 14  1  0
 14 15  1  0
 15 16  1  0
  2 17  1  0
 17 18  2  0
 18 19  1  0
 19 20  2  0
 20 21  1  0
 21 22  2  0
 22 23  1  0
 22 24  1  0
 24 25  2  0
 25 26  1  0
 26 27  2  0
 11  7  1  0
 16 12  1  0
 27 17  1  0
 26 20  1  0
  3 28  1  0
  4 29  1  0
  4 30  1  0
  8 31  1  0
  8 32  1  0
  9 33  1  0
  9 34  1  0
 10 35  1  0
 10 36  1  0
 11 37  1  1
 12 38  1  1
 13 39  1  0
 13 40  1  0
 14 41  1  0
 14 42  1  0
 15 43  1  0
 16 44  1  0
 16 45  1  0
 18 46  1  0
 19 47  1  0
 21 48  1  0
 24 49  1  0
 25 50  1  0
M  END
>  <smiles>  (11) 
O=C(NCC(=O)N1CCCC1C1CCNC1)c1ccc2cc(F)ccc2n1

>  <score_type>  (11) 
oracle

>  <origin>  (11) 
autodockgpu

>  <m_score__min__energy>  (11) 
-8.9199999999999999

>  <m_primary>  (11) 
energy

>  <rmsd>  (11) 
1.9871343650513302

>  <m_score__min__rmsd>  (11) 
1.9871343650513302

>  <meeko>  (11) 
{"free_energy": -8.77, "intermolecular_energy": -10.26, "internal_energy": -1.31, "cluster_size": 32, "cluster_id": 1, "rank_in_cluster": 11}

>  <energy>  (11) 
-8.77

>  <cluster_rmsd>  (11) 
0.4

>  <cluster>  (11) 
1

$$$$

     RDKit          3D

 50 53  0  0  0  0  0  0  0  0999 V2000
  141.1660   71.6890  221.5170 O   0  0  0  0  0  0  0  0  0  0  0  0
  140.4150   72.0800  222.4420 C   0  0  0  0  0  0  0  0  0  0  0  0
  139.7500   73.3100  222.2800 N   0  0  0  0  0  0  0  0  0  0  0  0
  139.9420   74.0680  221.0940 C   0  0  0  0  0  0  0  0  0  0  0  0
  141.0570   75.0390  221.1760 C   0  0  0  0  0  0  0  0  0  0  0  0
  141.2780   75.6670  222.2620 O   0  0  0  0  0  0  0  0  0  0  0  0
  141.8800   75.2720  220.0390 N   0  0  0  0  0  0  0  0  0  0  0  0
  141.4150   75.5020  218.6850 C   0  0  0  0  0  0  0  0  0  0  0  0
  142.5540   76.0170  217.8770 C   0  0  0  0  0  0  0  0  0  0  0  0
  143.6370   76.2010  218.8760 C   0  0  0  0  0  0  0  0  0  0  0  0
  143.3330   75.3200  220.0260 C   0  0  2  0  0  0  0  0  0  0  0  0
  143.9900   73.9830  220.0580 C   0  0  2  0  0  0  0  0  0  0  0  0
  145.2110   73.8970  220.8980 C   0  0  0  0  0  0  0  0  0  0  0  0
  145.9480   72.7220  220.2830 C   0  0  0  0  0  0  0  0  0  0  0  0
  145.7950   73.0350  218.8530 N   0  0  0  0  0  0  0  0  0  0  0  0
  144.3650   73.3760  218.7640 C   0  0  0  0  0  0  0  0  0  0  0  0
  140.2370   71.2760  223.6490 C   0  0  0  0  0  0  0  0  0  0  0  0
  139.5810   70.0560  223.5580 C   0  0  0  0  0  0  0  0  0  0  0  0
  139.3780   69.2450  224.6600 C   0  0  0  0  0  0  0  0  0  0  0  0
  139.8620   69.6950  225.8860 C   0  0  0  0  0  0  0  0  0  0  0  0
  139.6700   68.8990  227.0010 C   0  0  0  0  0  0  0  0  0  0  0  0
  140.1460   69.3290  228.2430 C   0  0  0  0  0  0  0  0  0  0  0  0
  139.9400   68.5270  229.3090 F   0  0  0  0  0  0  0  0  0  0  0  0
  140.8010   70.5470  228.3270 C   0  0  0  0  0  0  0  0  0  0  0  0
  140.9890   71.3430  227.2000 C   0  0  0  0  0  0  0  0  0  0  0  0
  140.5220   70.9230  225.9700 C   0  0  0  0  0  0  0  0  0  0  0  0
  140.6960   71.6840  224.8590 N   0  0  0  0  0  0  0  0  0  0  0  0
  139.1170   73.6240  223.0740 H   0  0  0  0  0  0  0  0  0  0  0  0
  140.1491   73.3719  220.2678 H   0  0  0  0  0  0  0  0  0  0  0  0
  139.0225   74.6505  220.9352 H   0  0  0  0  0  0  0  0  0  0  0  0
  141.0496   74.5588  218.2527 H   0  0  0  0  0  0  0  0  0  0  0  0
  140.5929   76.2328  218.6873 H   0  0  0  0  0  0  0  0  0  0  0  0
  142.8497   75.2893  217.1069 H   0  0  0  0  0  0  0  0  0  0  0  0
  142.3097   76.9434  217.3365 H   0  0  0  0  0  0  0  0  0  0  0  0
  144.6059   75.9233  218.4355 H   0  0  0  0  0  0  0  0  0  0  0  0
  143.6953   77.2517  219.1965 H   0  0  0  0  0  0  0  0  0  0  0  0
  143.7688   75.7336  220.9474 H   0  0  0  0  0  0  0  0  0  0  0  0
  143.1530   73.4184  220.4945 H   0  0  0  0  0  0  0  0  0  0  0  0
  145.8063   74.8195  220.8303 H   0  0  0  0  0  0  0  0  0  0  0  0
  144.9988   73.7702  221.9699 H   0  0  0  0  0  0  0  0  0  0  0  0
  147.0057   72.7022  220.5844 H   0  0  0  0  0  0  0  0  0  0  0  0
  145.5687   71.7335  220.5811 H   0  0  0  0  0  0  0  0  0  0  0  0
  146.3460   73.9120  218.6540 H   0  0  0  0  0  0  0  0  0  0  0  0
  144.1966   74.0925  217.9466 H   0  0  0  0  0  0  0  0  0  0  0  0
  143.7581   72.4824  218.5564 H   0  0  0  0  0  0  0  0  0  0  0  0
  139.2104   69.7232  222.5772 H   0  0  0  0  0  0  0  0  0  0  0  0
  138.8544   68.2817  224.5715 H   0  0  0  0  0  0  0  0  0  0  0  0
  139.1470   67.9355  226.9110 H   0  0  0  0  0  0  0  0  0  0  0  0
  141.1791   70.8912  229.3009 H   0  0  0  0  0  0  0  0  0  0  0  0
  141.5101   72.3076  227.2895 H   0  0  0  0  0  0  0  0  0  0  0  0
  1  2  2  0
  2  3  1  0
  3  4  1  0
  4  5  1  0
  5  6  2  0
  5  7  1  0
  7  8  1  0
  8  9  1  0
  9 10  1  0
 10 11  1  0
 11 12  1  0
 12 13  1  0
 13 14  1  0
 14 15  1  0
 15 16  1  0
  2 17  1  0
 17 18  2  0
 18 19  1  0
 19 20  2  0
 20 21  1  0
 21 22  2  0
 22 23  1  0
 22 24  1  0
 24 25  2  0
 25 26  1  0
 26 27  2  0
 11  7  1  0
 16 12  1  0
 27 17  1  0
 26 20  1  0
  3 28  1  0
  4 29  1  0
  4 30  1  0
  8 31  1  0
  8 32  1  0
  9 33  1  0
  9 34  1  0
 10 35  1  0
 10 36  1  0
 11 37  1  1
 12 38  1  1
 13 39  1  0
 13 40  1  0
 14 41  1  0
 14 42  1  0
 15 43  1  0
 16 44  1  0
 16 45  1  0
 18 46  1  0
 19 47  1  0
 21 48  1  0
 24 49  1  0
 25 50  1  0
M  END
>  <smiles>  (12) 
O=C(NCC(=O)N1CCCC1C1CCNC1)c1ccc2cc(F)ccc2n1

>  <score_type>  (12) 
oracle

>  <origin>  (12) 
autodockgpu

>  <m_score__min__energy>  (12) 
-8.9199999999999999

>  <m_primary>  (12) 
energy

>  <rmsd>  (12) 
1.9921976659442244

>  <m_score__min__rmsd>  (12) 
1.9921976659442244

>  <meeko>  (12) 
{"free_energy": -8.84, "intermolecular_energy": -10.33, "internal_energy": -1.3, "cluster_size": 32, "cluster_id": 1, "rank_in_cluster": 7}

>  <energy>  (12) 
-8.74

>  <cluster_rmsd>  (12) 
0.29

>  <cluster>  (12) 
1

$$$$

     RDKit          3D

 50 53  0  0  0  0  0  0  0  0999 V2000
  138.4540   71.4870  222.0420 O   0  0  0  0  0  0  0  0  0  0  0  0
  139.5580   71.3480  222.6200 C   0  0  0  0  0  0  0  0  0  0  0  0
  140.6810   71.9910  222.0650 N   0  0  0  0  0  0  0  0  0  0  0  0
  140.5400   72.7670  220.8840 C   0  0  0  0  0  0  0  0  0  0  0  0
  140.8690   74.2000  221.0640 C   0  0  0  0  0  0  0  0  0  0  0  0
  140.2930   74.8770  221.9760 O   0  0  0  0  0  0  0  0  0  0  0  0
  141.8280   74.8200  220.2150 N   0  0  0  0  0  0  0  0  0  0  0  0
  141.5470   75.4850  218.9580 C   0  0  0  0  0  0  0  0  0  0  0  0
  142.7500   76.2650  218.5590 C   0  0  0  0  0  0  0  0  0  0  0  0
  143.6620   76.1220  219.7220 C   0  0  0  0  0  0  0  0  0  0  0  0
  143.2600   74.8980  220.4520 C   0  0  2  0  0  0  0  0  0  0  0  0
  144.0010   73.6420  220.1440 C   0  0  2  0  0  0  0  0  0  0  0  0
  145.1660   73.3620  221.0200 C   0  0  0  0  0  0  0  0  0  0  0  0
  146.0180   72.4570  220.1510 C   0  0  0  0  0  0  0  0  0  0  0  0
  145.9420   73.1770  218.8680 N   0  0  0  0  0  0  0  0  0  0  0  0
  144.5010   73.4660  218.7640 C   0  0  0  0  0  0  0  0  0  0  0  0
  139.6690   70.5440  223.8350 C   0  0  0  0  0  0  0  0  0  0  0  0
  139.1230   69.2680  223.8520 C   0  0  0  0  0  0  0  0  0  0  0  0
  139.1920   68.4520  224.9680 C   0  0  0  0  0  0  0  0  0  0  0  0
  139.8390   68.9580  226.0930 C   0  0  0  0  0  0  0  0  0  0  0  0
  139.9190   68.1580  227.2190 C   0  0  0  0  0  0  0  0  0  0  0  0
  140.5630   68.6430  228.3610 C   0  0  0  0  0  0  0  0  0  0  0  0
  140.6230   67.8360  229.4420 F   0  0  0  0  0  0  0  0  0  0  0  0
  141.1070   69.9180  228.3370 C   0  0  0  0  0  0  0  0  0  0  0  0
  141.0210   70.7160  227.2000 C   0  0  0  0  0  0  0  0  0  0  0  0
  140.3860   70.2430  226.0680 C   0  0  0  0  0  0  0  0  0  0  0  0
  140.2920   71.0050  224.9480 N   0  0  0  0  0  0  0  0  0  0  0  0
  141.6070   71.8630  222.5700 H   0  0  0  0  0  0  0  0  0  0  0  0
  141.2085   72.3522  220.1152 H   0  0  0  0  0  0  0  0  0  0  0  0
  139.4801   72.7170  220.5940 H   0  0  0  0  0  0  0  0  0  0  0  0
  141.3166   74.7367  218.1854 H   0  0  0  0  0  0  0  0  0  0  0  0
  140.6824   76.1557  219.0707 H   0  0  0  0  0  0  0  0  0  0  0  0
  143.2053   75.8464  217.6494 H   0  0  0  0  0  0  0  0  0  0  0  0
  142.5196   77.3145  218.3237 H   0  0  0  0  0  0  0  0  0  0  0  0
  144.7017   76.0286  219.3752 H   0  0  0  0  0  0  0  0  0  0  0  0
  143.5977   77.0036  220.3768 H   0  0  0  0  0  0  0  0  0  0  0  0
  143.5269   74.9840  221.5156 H   0  0  0  0  0  0  0  0  0  0  0  0
  143.1761   72.9370  220.3241 H   0  0  0  0  0  0  0  0  0  0  0  0
  145.7024   74.2875  221.2764 H   0  0  0  0  0  0  0  0  0  0  0  0
  144.8914   72.9122  221.9856 H   0  0  0  0  0  0  0  0  0  0  0  0
  147.0519   72.3928  220.5211 H   0  0  0  0  0  0  0  0  0  0  0  0
  145.6850   71.4094  220.1117 H   0  0  0  0  0  0  0  0  0  0  0  0
  146.4450   74.0950  218.9830 H   0  0  0  0  0  0  0  0  0  0  0  0
  144.3401   74.3858  218.1825 H   0  0  0  0  0  0  0  0  0  0  0  0
  143.9702   72.6495  218.2526 H   0  0  0  0  0  0  0  0  0  0  0  0
  138.6190   68.8929  222.9491 H   0  0  0  0  0  0  0  0  0  0  0  0
  138.7530   67.4434  224.9665 H   0  0  0  0  0  0  0  0  0  0  0  0
  139.4798   67.1495  227.2156 H   0  0  0  0  0  0  0  0  0  0  0  0
  141.6154   70.3056  229.2322 H   0  0  0  0  0  0  0  0  0  0  0  0
  141.4593   71.7249  227.2027 H   0  0  0  0  0  0  0  0  0  0  0  0
  1  2  2  0
  2  3  1  0
  3  4  1  0
  4  5  1  0
  5  6  2  0
  5  7  1  0
  7  8  1  0
  8  9  1  0
  9 10  1  0
 10 11  1  0
 11 12  1  0
 12 13  1  0
 13 14  1  0
 14 15  1  0
 15 16  1  0
  2 17  1  0
 17 18  2  0
 18 19  1  0
 19 20  2  0
 20 21  1  0
 21 22  2  0
 22 23  1  0
 22 24  1  0
 24 25  2  0
 25 26  1  0
 26 27  2  0
 11  7  1  0
 16 12  1  0
 27 17  1  0
 26 20  1  0
  3 28  1  0
  4 29  1  0
  4 30  1  0
  8 31  1  0
  8 32  1  0
  9 33  1  0
  9 34  1  0
 10 35  1  0
 10 36  1  0
 11 37  1  1
 12 38  1  1
 13 39  1  0
 13 40  1  0
 14 41  1  0
 14 42  1  0
 15 43  1  0
 16 44  1  0
 16 45  1  0
 18 46  1  0
 19 47  1  0
 21 48  1  0
 24 49  1  0
 25 50  1  0
M  END
>  <smiles>  (13) 
O=C(NCC(=O)N1CCCC1C1CCNC1)c1ccc2cc(F)ccc2n1

>  <score_type>  (13) 
oracle

>  <origin>  (13) 
autodockgpu

>  <m_score__min__energy>  (13) 
-8.9199999999999999

>  <m_primary>  (13) 
energy

>  <rmsd>  (13) 
2.2117144180051516

>  <m_score__min__rmsd>  (13) 
2.2117144180051516

>  <meeko>  (13) 
{"free_energy": -8.65, "intermolecular_energy": -10.15, "internal_energy": -1.16, "cluster_size": 32, "cluster_id": 1, "rank_in_cluster": 14}

>  <energy>  (13) 
-8.7

>  <cluster_rmsd>  (13) 
1.21

>  <cluster>  (13) 
1

$$$$

     RDKit          3D

 50 53  0  0  0  0  0  0  0  0999 V2000
  139.5870   73.4900  222.6010 O   0  0  0  0  0  0  0  0  0  0  0  0
  140.2950   72.4550  222.6210 C   0  0  0  0  0  0  0  0  0  0  0  0
  141.1540   72.2200  221.5300 N   0  0  0  0  0  0  0  0  0  0  0  0
  141.1990   73.1440  220.4530 C   0  0  0  0  0  0  0  0  0  0  0  0
  142.4620   73.9110  220.3710 C   0  0  0  0  0  0  0  0  0  0  0  0
  143.5150   73.4680  220.9340 O   0  0  0  0  0  0  0  0  0  0  0  0
  142.4990   75.1450  219.6630 N   0  0  0  0  0  0  0  0  0  0  0  0
  143.6920   75.8950  219.3220 C   0  0  0  0  0  0  0  0  0  0  0  0
  143.3260   76.9320  218.3190 C   0  0  0  0  0  0  0  0  0  0  0  0
  141.9050   76.6310  218.0070 C   0  0  0  0  0  0  0  0  0  0  0  0
  141.3500   75.8760  219.1520 C   0  0  2  0  0  0  0  0  0  0  0  0
  140.6080   76.6490  220.1870 C   0  0  2  0  0  0  0  0  0  0  0  0
  141.4530   77.2930  221.2240 C   0  0  0  0  0  0  0  0  0  0  0  0
  140.4860   77.4460  222.3840 C   0  0  0  0  0  0  0  0  0  0  0  0
  139.8420   76.1220  222.3650 N   0  0  0  0  0  0  0  0  0  0  0  0
  139.5450   75.9440  220.9340 C   0  0  0  0  0  0  0  0  0  0  0  0
  140.2270   71.5240  223.7460 C   0  0  0  0  0  0  0  0  0  0  0  0
  139.6800   70.2640  223.5470 C   0  0  0  0  0  0  0  0  0  0  0  0
  139.5850   69.3340  224.5670 C   0  0  0  0  0  0  0  0  0  0  0  0
  140.0640   69.7050  225.8220 C   0  0  0  0  0  0  0  0  0  0  0  0
  139.9780   68.7900  226.8550 C   0  0  0  0  0  0  0  0  0  0  0  0
  140.4520   69.1380  228.1230 C   0  0  0  0  0  0  0  0  0  0  0  0
  140.3520   68.2200  229.1070 F   0  0  0  0  0  0  0  0  0  0  0  0
  140.9980   70.3980  228.3140 C   0  0  0  0  0  0  0  0  0  0  0  0
  141.0800   71.3130  227.2680 C   0  0  0  0  0  0  0  0  0  0  0  0
  140.6140   70.9750  226.0130 C   0  0  0  0  0  0  0  0  0  0  0  0
  140.6850   71.8530  224.9800 N   0  0  0  0  0  0  0  0  0  0  0  0
  141.7470   71.3380  221.5660 H   0  0  0  0  0  0  0  0  0  0  0  0
  141.0711   72.5866  219.5133 H   0  0  0  0  0  0  0  0  0  0  0  0
  140.3940   73.8735  220.6254 H   0  0  0  0  0  0  0  0  0  0  0  0
  144.0976   76.3773  220.2236 H   0  0  0  0  0  0  0  0  0  0  0  0
  144.4556   75.2210  218.9065 H   0  0  0  0  0  0  0  0  0  0  0  0
  143.4296   77.9419  218.7426 H   0  0  0  0  0  0  0  0  0  0  0  0
  143.9722   76.9124  217.4290 H   0  0  0  0  0  0  0  0  0  0  0  0
  141.3445   77.5671  217.8670 H   0  0  0  0  0  0  0  0  0  0  0  0
  141.8273   76.0433  217.0804 H   0  0  0  0  0  0  0  0  0  0  0  0
  140.5278   75.2268  218.8165 H   0  0  0  0  0  0  0  0  0  0  0  0
  140.1491   77.3899  219.5159 H   0  0  0  0  0  0  0  0  0  0  0  0
  142.3045   76.6525  221.4976 H   0  0  0  0  0  0  0  0  0  0  0  0
  141.9016   78.2429  220.8977 H   0  0  0  0  0  0  0  0  0  0  0  0
  141.0131   77.6288  223.3320 H   0  0  0  0  0  0  0  0  0  0  0  0
  139.7936   78.2964  222.2976 H   0  0  0  0  0  0  0  0  0  0  0  0
  140.5690   75.4070  222.6330 H   0  0  0  0  0  0  0  0  0  0  0  0
  139.5469   74.8745  220.6769 H   0  0  0  0  0  0  0  0  0  0  0  0
  138.5525   76.3468  220.6835 H   0  0  0  0  0  0  0  0  0  0  0  0
  139.3101   69.9962  222.5463 H   0  0  0  0  0  0  0  0  0  0  0  0
  139.1480   68.3395  224.3939 H   0  0  0  0  0  0  0  0  0  0  0  0
  139.5401   67.7962  226.6803 H   0  0  0  0  0  0  0  0  0  0  0  0
  141.3728   70.6795  229.3091 H   0  0  0  0  0  0  0  0  0  0  0  0
  141.5170   72.3074  227.4417 H   0  0  0  0  0  0  0  0  0  0  0  0
  1  2  2  0
  2  3  1  0
  3  4  1  0
  4  5  1  0
  5  6  2  0
  5  7  1  0
  7  8  1  0
  8  9  1  0
  9 10  1  0
 10 11  1  0
 11 12  1  0
 12 13  1  0
 13 14  1  0
 14 15  1  0
 15 16  1  0
  2 17  1  0
 17 18  2  0
 18 19  1  0
 19 20  2  0
 20 21  1  0
 21 22  2  0
 22 23  1  0
 22 24  1  0
 24 25  2  0
 25 26  1  0
 26 27  2  0
 11  7  1  0
 16 12  1  0
 27 17  1  0
 26 20  1  0
  3 28  1  0
  4 29  1  0
  4 30  1  0
  8 31  1  0
  8 32  1  0
  9 33  1  0
  9 34  1  0
 10 35  1  0
 10 36  1  0
 11 37  1  6
 12 38  1  6
 13 39  1  0
 13 40  1  0
 14 41  1  0
 14 42  1  0
 15 43  1  0
 16 44  1  0
 16 45  1  0
 18 46  1  0
 19 47  1  0
 21 48  1  0
 24 49  1  0
 25 50  1  0
M  END
>  <smiles>  (14) 
O=C(NCC(=O)N1CCCC1C1CCNC1)c1ccc2cc(F)ccc2n1

>  <score_type>  (14) 
oracle

>  <origin>  (14) 
autodockgpu

>  <m_score__min__energy>  (14) 
-8.9199999999999999

>  <m_primary>  (14) 
energy

>  <rmsd>  (14) 
2.534035115966093

>  <m_score__min__rmsd>  (14) 
2.534035115966093

>  <meeko>  (14) 
{"free_energy": -6.97, "intermolecular_energy": -8.46, "internal_energy": -1.99, "cluster_size": 32, "cluster_id": 1, "rank_in_cluster": 31}

>  <energy>  (14) 
-8.65

>  <cluster_rmsd>  (14) 
1.2

>  <cluster>  (14) 
1

$$$$

     RDKit          3D

 50 53  0  0  0  0  0  0  0  0999 V2000
  140.8010   71.5420  221.2830 O   0  0  0  0  0  0  0  0  0  0  0  0
  140.2970   72.0250  222.3250 C   0  0  0  0  0  0  0  0  0  0  0  0
  139.8330   73.3540  222.2800 N   0  0  0  0  0  0  0  0  0  0  0  0
  139.9450   74.1030  221.0790 C   0  0  0  0  0  0  0  0  0  0  0  0
  141.0990   75.0310  221.0550 C   0  0  0  0  0  0  0  0  0  0  0  0
  141.3690   75.7400  222.0780 O   0  0  0  0  0  0  0  0  0  0  0  0
  141.9060   75.1300  219.8860 N   0  0  0  0  0  0  0  0  0  0  0  0
  141.4320   75.0560  218.5180 C   0  0  0  0  0  0  0  0  0  0  0  0
  142.5210   75.5240  217.6170 C   0  0  0  0  0  0  0  0  0  0  0  0
  143.5700   76.0000  218.5550 C   0  0  0  0  0  0  0  0  0  0  0  0
  143.3460   75.3230  219.8510 C   0  0  2  0  0  0  0  0  0  0  0  0
  144.1350   74.0890  220.1260 C   0  0  2  0  0  0  0  0  0  0  0  0
  145.4210   74.3040  220.8360 C   0  0  0  0  0  0  0  0  0  0  0  0
  146.2220   73.0780  220.4380 C   0  0  0  0  0  0  0  0  0  0  0  0
  145.9260   73.0260  218.9970 N   0  0  0  0  0  0  0  0  0  0  0  0
  144.4660   73.2210  218.9760 C   0  0  0  0  0  0  0  0  0  0  0  0
  140.1950   71.2280  223.5450 C   0  0  0  0  0  0  0  0  0  0  0  0
  139.5830   69.9830  223.4880 C   0  0  0  0  0  0  0  0  0  0  0  0
  139.4520   69.1750  224.6050 C   0  0  0  0  0  0  0  0  0  0  0  0
  139.9630   69.6560  225.8080 C   0  0  0  0  0  0  0  0  0  0  0  0
  139.8430   68.8650  226.9360 C   0  0  0  0  0  0  0  0  0  0  0  0
  140.3470   69.3250  228.1560 C   0  0  0  0  0  0  0  0  0  0  0  0
  140.2120   68.5270  229.2350 F   0  0  0  0  0  0  0  0  0  0  0  0
  140.9570   70.5690  228.2040 C   0  0  0  0  0  0  0  0  0  0  0  0
  141.0730   71.3590  227.0650 C   0  0  0  0  0  0  0  0  0  0  0  0
  140.5780   70.9100  225.8570 C   0  0  0  0  0  0  0  0  0  0  0  0
  140.6810   71.6660  224.7330 N   0  0  0  0  0  0  0  0  0  0  0  0
  139.4080   73.7460  223.1720 H   0  0  0  0  0  0  0  0  0  0  0  0
  140.0495   73.3989  220.2404 H   0  0  0  0  0  0  0  0  0  0  0  0
  139.0377   74.7202  221.0023 H   0  0  0  0  0  0  0  0  0  0  0  0
  141.1674   74.0170  218.2723 H   0  0  0  0  0  0  0  0  0  0  0  0
  140.5402   75.6876  218.3925 H   0  0  0  0  0  0  0  0  0  0  0  0
  142.8966   74.6992  216.9935 H   0  0  0  0  0  0  0  0  0  0  0  0
  142.1897   76.3034  216.9151 H   0  0  0  0  0  0  0  0  0  0  0  0
  144.5665   75.7451  218.1651 H   0  0  0  0  0  0  0  0  0  0  0  0
  143.5177   77.0923  218.6737 H   0  0  0  0  0  0  0  0  0  0  0  0
  143.7285   75.9438  220.6746 H   0  0  0  0  0  0  0  0  0  0  0  0
  143.3966   73.5810  220.7637 H   0  0  0  0  0  0  0  0  0  0  0  0
  145.9129   75.2278  220.4974 H   0  0  0  0  0  0  0  0  0  0  0  0
  145.3082   74.4211  221.9239 H   0  0  0  0  0  0  0  0  0  0  0  0
  147.2968   73.2149  220.6279 H   0  0  0  0  0  0  0  0  0  0  0  0
  145.9688   72.1627  220.9931 H   0  0  0  0  0  0  0  0  0  0  0  0
  146.3680   73.8700  218.5470 H   0  0  0  0  0  0  0  0  0  0  0  0
  144.1620   73.7051  218.0362 H   0  0  0  0  0  0  0  0  0  0  0  0
  143.9380   72.2583  219.0429 H   0  0  0  0  0  0  0  0  0  0  0  0
  139.1895   69.6270  222.5245 H   0  0  0  0  0  0  0  0  0  0  0  0
  138.9633   68.1914  224.5445 H   0  0  0  0  0  0  0  0  0  0  0  0
  139.3547   67.8813  226.8737 H   0  0  0  0  0  0  0  0  0  0  0  0
  141.3565   70.9380  229.1601 H   0  0  0  0  0  0  0  0  0  0  0  0
  141.5601   72.3433  227.1269 H   0  0  0  0  0  0  0  0  0  0  0  0
  1  2  2  0
  2  3  1  0
  3  4  1  0
  4  5  1  0
  5  6  2  0
  5  7  1  0
  7  8  1  0
  8  9  1  0
  9 10  1  0
 10 11  1  0
 11 12  1  0
 12 13  1  0
 13 14  1  0
 14 15  1  0
 15 16  1  0
  2 17  1  0
 17 18  2  0
 18 19  1  0
 19 20  2  0
 20 21  1  0
 21 22  2  0
 22 23  1  0
 22 24  1  0
 24 25  2  0
 25 26  1  0
 26 27  2  0
 11  7  1  0
 16 12  1  0
 27 17  1  0
 26 20  1  0
  3 28  1  0
  4 29  1  0
  4 30  1  0
  8 31  1  0
  8 32  1  0
  9 33  1  0
  9 34  1  0
 10 35  1  0
 10 36  1  0
 11 37  1  1
 12 38  1  1
 13 39  1  0
 13 40  1  0
 14 41  1  0
 14 42  1  0
 15 43  1  0
 16 44  1  0
 16 45  1  0
 18 46  1  0
 19 47  1  0
 21 48  1  0
 24 49  1  0
 25 50  1  0
M  END
>  <smiles>  (15) 
O=C(NCC(=O)N1CCCC1C1CCNC1)c1ccc2cc(F)ccc2n1

>  <score_type>  (15) 
oracle

>  <origin>  (15) 
autodockgpu

>  <m_score__min__energy>  (15) 
-8.9199999999999999

>  <m_primary>  (15) 
energy

>  <rmsd>  (15) 
1.9531479382005668

>  <m_score__min__rmsd>  (15) 
1.9531479382005668

>  <meeko>  (15) 
{"free_energy": -8.74, "intermolecular_energy": -10.23, "internal_energy": -1.3, "cluster_size": 32, "cluster_id": 1, "rank_in_cluster": 12}

>  <energy>  (15) 
-8.57

>  <cluster_rmsd>  (15) 
1.26

>  <cluster>  (15) 
1

$$$$

     RDKit          3D

 50 53  0  0  0  0  0  0  0  0999 V2000
  140.3100   73.5640  222.3640 O   0  0  0  0  0  0  0  0  0  0  0  0
  140.0310   72.3440  222.2690 C   0  0  0  0  0  0  0  0  0  0  0  0
  139.7240   71.8340  220.9930 N   0  0  0  0  0  0  0  0  0  0  0  0
  139.7360   72.6940  219.8650 C   0  0  0  0  0  0  0  0  0  0  0  0
  140.9800   72.6180  219.0630 C   0  0  0  0  0  0  0  0  0  0  0  0
  141.2070   71.5990  218.3350 O   0  0  0  0  0  0  0  0  0  0  0  0
  141.9210   73.6840  219.1100 N   0  0  0  0  0  0  0  0  0  0  0  0
  142.1620   74.6510  218.0570 C   0  0  0  0  0  0  0  0  0  0  0  0
  142.9680   75.7690  218.6190 C   0  0  0  0  0  0  0  0  0  0  0  0
  143.0410   75.4520  220.0690 C   0  0  0  0  0  0  0  0  0  0  0  0
  142.8080   73.9980  220.2170 C   0  0  2  0  0  0  0  0  0  0  0  0
  144.0080   73.1180  220.3080 C   0  0  2  0  0  0  0  0  0  0  0  0
  145.1450   73.6760  221.0820 C   0  0  0  0  0  0  0  0  0  0  0  0
  146.3290   72.9170  220.5130 C   0  0  0  0  0  0  0  0  0  0  0  0
  146.0250   72.9950  219.0740 N   0  0  0  0  0  0  0  0  0  0  0  0
  144.5970   72.6350  219.0420 C   0  0  0  0  0  0  0  0  0  0  0  0
  140.0290   71.4840  223.4500 C   0  0  0  0  0  0  0  0  0  0  0  0
  139.4860   70.2100  223.3560 C   0  0  0  0  0  0  0  0  0  0  0  0
  139.4500   69.3430  224.4340 C   0  0  0  0  0  0  0  0  0  0  0  0
  139.9880   69.7940  225.6380 C   0  0  0  0  0  0  0  0  0  0  0  0
  139.9620   68.9430  226.7280 C   0  0  0  0  0  0  0  0  0  0  0  0
  140.4950   69.3720  227.9470 C   0  0  0  0  0  0  0  0  0  0  0  0
  140.4530   68.5160  228.9890 F   0  0  0  0  0  0  0  0  0  0  0  0
  141.0360   70.6450  228.0340 C   0  0  0  0  0  0  0  0  0  0  0  0
  141.0570   71.4950  226.9320 C   0  0  0  0  0  0  0  0  0  0  0  0
  140.5330   71.0770  225.7240 C   0  0  0  0  0  0  0  0  0  0  0  0
  140.5440   71.8910  224.6380 N   0  0  0  0  0  0  0  0  0  0  0  0
  139.4920   70.7980  220.9330 H   0  0  0  0  0  0  0  0  0  0  0  0
  138.8891   72.4257  219.2163 H   0  0  0  0  0  0  0  0  0  0  0  0
  139.6663   73.7228  220.2481 H   0  0  0  0  0  0  0  0  0  0  0  0
  142.7132   74.1734  217.2335 H   0  0  0  0  0  0  0  0  0  0  0  0
  141.2060   75.0328  217.6695 H   0  0  0  0  0  0  0  0  0  0  0  0
  143.9724   75.7930  218.1711 H   0  0  0  0  0  0  0  0  0  0  0  0
  142.5272   76.7567  218.4189 H   0  0  0  0  0  0  0  0  0  0  0  0
  144.0341   75.7154  220.4618 H   0  0  0  0  0  0  0  0  0  0  0  0
  142.2879   76.0249  220.6300 H   0  0  0  0  0  0  0  0  0  0  0  0
  142.3743   73.7810  221.2043 H   0  0  0  0  0  0  0  0  0  0  0  0
  143.5334   72.2746  220.8310 H   0  0  0  0  0  0  0  0  0  0  0  0
  145.2479   74.7582  220.9140 H   0  0  0  0  0  0  0  0  0  0  0  0
  145.0330   73.5644  222.1706 H   0  0  0  0  0  0  0  0  0  0  0  0
  147.2824   73.4095  220.7548 H   0  0  0  0  0  0  0  0  0  0  0  0
  146.4515   71.8957  220.9029 H   0  0  0  0  0  0  0  0  0  0  0  0
  146.1080   74.0040  218.7820 H   0  0  0  0  0  0  0  0  0  0  0  0
  144.1035   73.1181  218.1858 H   0  0  0  0  0  0  0  0  0  0  0  0
  144.4656   71.5482  218.9342 H   0  0  0  0  0  0  0  0  0  0  0  0
  139.0706   69.8786  222.3929 H   0  0  0  0  0  0  0  0  0  0  0  0
  139.0138   68.3372  224.3441 H   0  0  0  0  0  0  0  0  0  0  0  0
  139.5257   67.9374  226.6364 H   0  0  0  0  0  0  0  0  0  0  0  0
  141.4560   70.9896  228.9905 H   0  0  0  0  0  0  0  0  0  0  0  0
  141.4916   72.5014  227.0231 H   0  0  0  0  0  0  0  0  0  0  0  0
  1  2  2  0
  2  3  1  0
  3  4  1  0
  4  5  1  0
  5  6  2  0
  5  7  1  0
  7  8  1  0
  8  9  1  0
  9 10  1  0
 10 11  1  0
 11 12  1  0
 12 13  1  0
 13 14  1  0
 14 15  1  0
 15 16  1  0
  2 17  1  0
 17 18  2  0
 18 19  1  0
 19 20  2  0
 20 21  1  0
 21 22  2  0
 22 23  1  0
 22 24  1  0
 24 25  2  0
 25 26  1  0
 26 27  2  0
 11  7  1  0
 16 12  1  0
 27 17  1  0
 26 20  1  0
  3 28  1  0
  4 29  1  0
  4 30  1  0
  8 31  1  0
  8 32  1  0
  9 33  1  0
  9 34  1  0
 10 35  1  0
 10 36  1  0
 11 37  1  1
 12 38  1  1
 13 39  1  0
 13 40  1  0
 14 41  1  0
 14 42  1  0
 15 43  1  0
 16 44  1  0
 16 45  1  0
 18 46  1  0
 19 47  1  0
 21 48  1  0
 24 49  1  0
 25 50  1  0
M  END
>  <smiles>  (16) 
O=C(NCC(=O)N1CCCC1C1CCNC1)c1ccc2cc(F)ccc2n1

>  <score_type>  (16) 
oracle

>  <origin>  (16) 
autodockgpu

>  <m_score__min__energy>  (16) 
-8.9199999999999999

>  <m_primary>  (16) 
energy

>  <rmsd>  (16) 
2.56747431178616

>  <m_score__min__rmsd>  (16) 
2.56747431178616

>  <meeko>  (16) 
{"free_energy": -8.25, "intermolecular_energy": -9.74, "internal_energy": -1.37, "cluster_size": 32, "cluster_id": 1, "rank_in_cluster": 21}

>  <energy>  (16) 
-8.54

>  <cluster_rmsd>  (16) 
1.06

>  <cluster>  (16) 
1

$$$$

     RDKit          3D

 50 53  0  0  0  0  0  0  0  0999 V2000
  140.3250   72.9110  222.5840 O   0  0  0  0  0  0  0  0  0  0  0  0
  140.2470   71.6710  222.7550 C   0  0  0  0  0  0  0  0  0  0  0  0
  140.0770   70.8570  221.6190 N   0  0  0  0  0  0  0  0  0  0  0  0
  139.9990   71.4460  220.3300 C   0  0  0  0  0  0  0  0  0  0  0  0
  141.3130   71.6210  219.6690 C   0  0  0  0  0  0  0  0  0  0  0  0
  141.9000   70.6210  219.1420 O   0  0  0  0  0  0  0  0  0  0  0  0
  141.9200   72.9070  219.6240 N   0  0  0  0  0  0  0  0  0  0  0  0
  141.7430   73.8950  218.5770 C   0  0  0  0  0  0  0  0  0  0  0  0
  142.2750   75.1970  219.0630 C   0  0  0  0  0  0  0  0  0  0  0  0
  142.6240   74.9250  220.4810 C   0  0  0  0  0  0  0  0  0  0  0  0
  142.8240   73.4650  220.6160 C   0  0  2  0  0  0  0  0  0  0  0  0
  144.2220   72.9540  220.5260 C   0  0  2  0  0  0  0  0  0  0  0  0
  145.2730   73.9040  220.9650 C   0  0  0  0  0  0  0  0  0  0  0  0
  146.4980   73.3990  220.2260 C   0  0  0  0  0  0  0  0  0  0  0  0
  145.9220   73.1660  218.8910 N   0  0  0  0  0  0  0  0  0  0  0  0
  144.6790   72.4460  219.2150 C   0  0  0  0  0  0  0  0  0  0  0  0
  140.3320   71.0950  224.0950 C   0  0  0  0  0  0  0  0  0  0  0  0
  140.7830   71.8850  225.1430 C   0  0  0  0  0  0  0  0  0  0  0  0
  140.8890   71.4040  226.4360 C   0  0  0  0  0  0  0  0  0  0  0  0
  140.5200   70.0800  226.6600 C   0  0  0  0  0  0  0  0  0  0  0  0
  140.6170   69.5800  227.9450 C   0  0  0  0  0  0  0  0  0  0  0  0
  140.2540   68.2530  228.1960 C   0  0  0  0  0  0  0  0  0  0  0  0
  140.3620   67.7980  229.4620 F   0  0  0  0  0  0  0  0  0  0  0  0
  139.8030   67.4700  227.1450 C   0  0  0  0  0  0  0  0  0  0  0  0
  139.7090   67.9810  225.8540 C   0  0  0  0  0  0  0  0  0  0  0  0
  140.0660   69.2910  225.6000 C   0  0  0  0  0  0  0  0  0  0  0  0
  139.9810   69.8090  224.3480 N   0  0  0  0  0  0  0  0  0  0  0  0
  140.0140   69.8080  221.7840 H   0  0  0  0  0  0  0  0  0  0  0  0
  139.3738   70.8032  219.6929 H   0  0  0  0  0  0  0  0  0  0  0  0
  139.5727   72.4512  220.4638 H   0  0  0  0  0  0  0  0  0  0  0  0
  142.2912   73.5831  217.6758 H   0  0  0  0  0  0  0  0  0  0  0  0
  140.6763   73.9929  218.3270 H   0  0  0  0  0  0  0  0  0  0  0  0
  143.1651   75.4960  218.4900 H   0  0  0  0  0  0  0  0  0  0  0  0
  141.5552   76.0212  218.9508 H   0  0  0  0  0  0  0  0  0  0  0  0
  143.5484   75.4574  220.7493 H   0  0  0  0  0  0  0  0  0  0  0  0
  141.8230   75.2706  221.1510 H   0  0  0  0  0  0  0  0  0  0  0  0
  142.6016   73.1444  221.6444 H   0  0  0  0  0  0  0  0  0  0  0  0
  144.1163   72.1112  221.2250 H   0  0  0  0  0  0  0  0  0  0  0  0
  145.0266   74.9345  220.6693 H   0  0  0  0  0  0  0  0  0  0  0  0
  145.4029   73.9420  222.0566 H   0  0  0  0  0  0  0  0  0  0  0  0
  147.2969   74.1546  220.1984 H   0  0  0  0  0  0  0  0  0  0  0  0
  146.9797   72.5202  220.6795 H   0  0  0  0  0  0  0  0  0  0  0  0
  145.6550   74.1020  218.4880 H   0  0  0  0  0  0  0  0  0  0  0  0
  143.9167   72.6412  218.4463 H   0  0  0  0  0  0  0  0  0  0  0  0
  144.8489   71.3598  219.2494 H   0  0  0  0  0  0  0  0  0  0  0  0
  141.0656   72.9283  224.9390 H   0  0  0  0  0  0  0  0  0  0  0  0
  141.2507   72.0427  227.2553 H   0  0  0  0  0  0  0  0  0  0  0  0
  140.9768   70.2207  228.7636 H   0  0  0  0  0  0  0  0  0  0  0  0
  139.5141   66.4257  227.3348 H   0  0  0  0  0  0  0  0  0  0  0  0
  139.3499   67.3408  225.0347 H   0  0  0  0  0  0  0  0  0  0  0  0
  1  2  2  0
  2  3  1  0
  3  4  1  0
  4  5  1  0
  5  6  2  0
  5  7  1  0
  7  8  1  0
  8  9  1  0
  9 10  1  0
 10 11  1  0
 11 12  1  0
 12 13  1  0
 13 14  1  0
 14 15  1  0
 15 16  1  0
  2 17  1  0
 17 18  2  0
 18 19  1  0
 19 20  2  0
 20 21  1  0
 21 22  2  0
 22 23  1  0
 22 24  1  0
 24 25  2  0
 25 26  1  0
 26 27  2  0
 11  7  1  0
 16 12  1  0
 27 17  1  0
 26 20  1  0
  3 28  1  0
  4 29  1  0
  4 30  1  0
  8 31  1  0
  8 32  1  0
  9 33  1  0
  9 34  1  0
 10 35  1  0
 10 36  1  0
 11 37  1  1
 12 38  1  1
 13 39  1  0
 13 40  1  0
 14 41  1  0
 14 42  1  0
 15 43  1  0
 16 44  1  0
 16 45  1  0
 18 46  1  0
 19 47  1  0
 21 48  1  0
 24 49  1  0
 25 50  1  0
M  END
>  <smiles>  (17) 
O=C(NCC(=O)N1CCCC1C1CCNC1)c1ccc2cc(F)ccc2n1

>  <score_type>  (17) 
oracle

>  <origin>  (17) 
autodockgpu

>  <m_score__min__energy>  (17) 
-8.9199999999999999

>  <m_primary>  (17) 
energy

>  <rmsd>  (17) 
3.530031533617348

>  <m_score__min__rmsd>  (17) 
3.530031533617348

>  <meeko>  (17) 
{"free_energy": -7.86, "intermolecular_energy": -9.35, "internal_energy": -1.65, "cluster_size": 32, "cluster_id": 1, "rank_in_cluster": 27}

>  <energy>  (17) 
-8.5

>  <cluster_rmsd>  (17) 
0.41

>  <cluster>  (17) 
1

$$$$

     RDKit          3D

 50 53  0  0  0  0  0  0  0  0999 V2000
  140.3560   73.0330  222.7170 O   0  0  0  0  0  0  0  0  0  0  0  0
  140.3360   71.7870  222.8530 C   0  0  0  0  0  0  0  0  0  0  0  0
  140.2360   70.9960  221.6920 N   0  0  0  0  0  0  0  0  0  0  0  0
  140.1610   71.6170  220.4170 C   0  0  0  0  0  0  0  0  0  0  0  0
  141.2750   71.2600  219.5090 C   0  0  0  0  0  0  0  0  0  0  0  0
  141.5520   70.0370  219.2890 O   0  0  0  0  0  0  0  0  0  0  0  0
  142.0350   72.2870  218.8820 N   0  0  0  0  0  0  0  0  0  0  0  0
  142.1980   72.4730  217.4530 C   0  0  0  0  0  0  0  0  0  0  0  0
  142.7820   73.8210  217.2170 C   0  0  0  0  0  0  0  0  0  0  0  0
  142.8030   74.4360  218.5700 C   0  0  0  0  0  0  0  0  0  0  0  0
  142.7860   73.3330  219.5570 C   0  0  2  0  0  0  0  0  0  0  0  0
  144.0970   72.8870  220.1080 C   0  0  2  0  0  0  0  0  0  0  0  0
  144.8710   73.9310  220.8250 C   0  0  0  0  0  0  0  0  0  0  0  0
  146.2930   73.4130  220.7180 C   0  0  0  0  0  0  0  0  0  0  0  0
  146.3200   73.0110  219.3020 N   0  0  0  0  0  0  0  0  0  0  0  0
  145.0560   72.2670  219.1700 C   0  0  0  0  0  0  0  0  0  0  0  0
  140.4170   71.1790  224.1790 C   0  0  0  0  0  0  0  0  0  0  0  0
  140.9500   71.9150  225.2280 C   0  0  0  0  0  0  0  0  0  0  0  0
  141.0570   71.4010  226.5090 C   0  0  0  0  0  0  0  0  0  0  0  0
  140.6020   70.1010  226.7180 C   0  0  0  0  0  0  0  0  0  0  0  0
  140.7000   69.5690  227.9910 C   0  0  0  0  0  0  0  0  0  0  0  0
  140.2510   68.2660  228.2270 C   0  0  0  0  0  0  0  0  0  0  0  0
  140.3610   67.7790  229.4810 F   0  0  0  0  0  0  0  0  0  0  0  0
  139.7190   67.5370  227.1750 C   0  0  0  0  0  0  0  0  0  0  0  0
  139.6260   68.0800  225.8970 C   0  0  0  0  0  0  0  0  0  0  0  0
  140.0670   69.3670  225.6580 C   0  0  0  0  0  0  0  0  0  0  0  0
  139.9840   69.9150  224.4180 N   0  0  0  0  0  0  0  0  0  0  0  0
  140.2210   69.9420  221.8270 H   0  0  0  0  0  0  0  0  0  0  0  0
  139.2161   71.3167  219.9406 H   0  0  0  0  0  0  0  0  0  0  0  0
  140.2225   72.7021  220.5864 H   0  0  0  0  0  0  0  0  0  0  0  0
  142.8718   71.7012  217.0526 H   0  0  0  0  0  0  0  0  0  0  0  0
  141.2242   72.3900  216.9482 H   0  0  0  0  0  0  0  0  0  0  0  0
  143.7993   73.7416  216.8061 H   0  0  0  0  0  0  0  0  0  0  0  0
  142.2091   74.4128  216.4879 H   0  0  0  0  0  0  0  0  0  0  0  0
  143.7147   75.0387  218.6951 H   0  0  0  0  0  0  0  0  0  0  0  0
  141.9347   75.0966  218.7103 H   0  0  0  0  0  0  0  0  0  0  0  0
  142.3238   73.6705  220.4964 H   0  0  0  0  0  0  0  0  0  0  0  0
  143.7137   72.1184  220.7953 H   0  0  0  0  0  0  0  0  0  0  0  0
  144.7664   74.9105  220.3356 H   0  0  0  0  0  0  0  0  0  0  0  0
  144.5382   74.0911  221.8612 H   0  0  0  0  0  0  0  0  0  0  0  0
  147.0304   74.2008  220.9317 H   0  0  0  0  0  0  0  0  0  0  0  0
  146.5465   72.6128  221.4290 H   0  0  0  0  0  0  0  0  0  0  0  0
  146.2410   73.8840  218.7170 H   0  0  0  0  0  0  0  0  0  0  0  0
  144.6791   72.3403  218.1392 H   0  0  0  0  0  0  0  0  0  0  0  0
  145.1994   71.2006  219.3988 H   0  0  0  0  0  0  0  0  0  0  0  0
  141.2988   72.9403  225.0353 H   0  0  0  0  0  0  0  0  0  0  0  0
  141.4845   71.9958  227.3296 H   0  0  0  0  0  0  0  0  0  0  0  0
  141.1273   70.1656  228.8104 H   0  0  0  0  0  0  0  0  0  0  0  0
  139.3640   66.5112  227.3534 H   0  0  0  0  0  0  0  0  0  0  0  0
  139.2009   67.4836  225.0763 H   0  0  0  0  0  0  0  0  0  0  0  0
  1  2  2  0
  2  3  1  0
  3  4  1  0
  4  5  1  0
  5  6  2  0
  5  7  1  0
  7  8  1  0
  8  9  1  0
  9 10  1  0
 10 11  1  0
 11 12  1  0
 12 13  1  0
 13 14  1  0
 14 15  1  0
 15 16  1  0
  2 17  1  0
 17 18  2  0
 18 19  1  0
 19 20  2  0
 20 21  1  0
 21 22  2  0
 22 23  1  0
 22 24  1  0
 24 25  2  0
 25 26  1  0
 26 27  2  0
 11  7  1  0
 16 12  1  0
 27 17  1  0
 26 20  1  0
  3 28  1  0
  4 29  1  0
  4 30  1  0
  8 31  1  0
  8 32  1  0
  9 33  1  0
  9 34  1  0
 10 35  1  0
 10 36  1  0
 11 37  1  1
 12 38  1  1
 13 39  1  0
 13 40  1  0
 14 41  1  0
 14 42  1  0
 15 43  1  0
 16 44  1  0
 16 45  1  0
 18 46  1  0
 19 47  1  0
 21 48  1  0
 24 49  1  0
 25 50  1  0
M  END
>  <smiles>  (18) 
O=C(NCC(=O)N1CCCC1C1CCNC1)c1ccc2cc(F)ccc2n1

>  <score_type>  (18) 
oracle

>  <origin>  (18) 
autodockgpu

>  <m_score__min__energy>  (18) 
-8.9199999999999999

>  <m_primary>  (18) 
energy

>  <rmsd>  (18) 
3.6762458272119494

>  <m_score__min__rmsd>  (18) 
3.6762458272119494

>  <meeko>  (18) 
{"free_energy": -7.72, "intermolecular_energy": -9.21, "internal_energy": -1.5, "cluster_size": 32, "cluster_id": 1, "rank_in_cluster": 28}

>  <energy>  (18) 
-8.44

>  <cluster_rmsd>  (18) 
1.36

>  <cluster>  (18) 
1

$$$$

     RDKit          3D

 50 53  0  0  0  0  0  0  0  0999 V2000
  139.5040   70.7130  221.3210 O   0  0  0  0  0  0  0  0  0  0  0  0
  139.9320   71.2470  222.3720 C   0  0  0  0  0  0  0  0  0  0  0  0
  140.4310   72.5620  222.2900 N   0  0  0  0  0  0  0  0  0  0  0  0
  140.4370   73.2400  221.0420 C   0  0  0  0  0  0  0  0  0  0  0  0
  140.9870   74.6130  221.1080 C   0  0  0  0  0  0  0  0  0  0  0  0
  140.6880   75.3740  222.0830 O   0  0  0  0  0  0  0  0  0  0  0  0
  141.8510   75.0810  220.0780 N   0  0  0  0  0  0  0  0  0  0  0  0
  141.4360   75.5680  218.7770 C   0  0  0  0  0  0  0  0  0  0  0  0
  142.5930   76.2520  218.1390 C   0  0  0  0  0  0  0  0  0  0  0  0
  143.6300   76.2530  219.2030 C   0  0  0  0  0  0  0  0  0  0  0  0
  143.3010   75.1560  220.1420 C   0  0  2  0  0  0  0  0  0  0  0  0
  143.9910   73.8510  219.9380 C   0  0  2  0  0  0  0  0  0  0  0  0
  145.0860   73.5570  220.8960 C   0  0  0  0  0  0  0  0  0  0  0  0
  145.9380   72.5680  220.1240 C   0  0  0  0  0  0  0  0  0  0  0  0
  145.9750   73.2260  218.8070 N   0  0  0  0  0  0  0  0  0  0  0  0
  144.5600   73.5810  218.6020 C   0  0  0  0  0  0  0  0  0  0  0  0
  139.9110   70.5230  223.6410 C   0  0  0  0  0  0  0  0  0  0  0  0
  139.2730   69.2910  223.7050 C   0  0  0  0  0  0  0  0  0  0  0  0
  139.2150   68.5520  224.8730 C   0  0  0  0  0  0  0  0  0  0  0  0
  139.8280   69.0880  226.0030 C   0  0  0  0  0  0  0  0  0  0  0  0
  139.7820   68.3650  227.1810 C   0  0  0  0  0  0  0  0  0  0  0  0
  140.3890   68.8820  228.3290 C   0  0  0  0  0  0  0  0  0  0  0  0
  140.3240   68.1490  229.4600 F   0  0  0  0  0  0  0  0  0  0  0  0
  141.0250   70.1110  228.2580 C   0  0  0  0  0  0  0  0  0  0  0  0
  141.0660   70.8330  227.0680 C   0  0  0  0  0  0  0  0  0  0  0  0
  140.4680   70.3280  225.9300 C   0  0  0  0  0  0  0  0  0  0  0  0
  140.4980   71.0160  224.7600 N   0  0  0  0  0  0  0  0  0  0  0  0
  140.7890   72.9980  223.1910 H   0  0  0  0  0  0  0  0  0  0  0  0
  141.0446   72.6571  220.3341 H   0  0  0  0  0  0  0  0  0  0  0  0
  139.3882   73.3311  220.7230 H   0  0  0  0  0  0  0  0  0  0  0  0
  141.1123   74.7238  218.1505 H   0  0  0  0  0  0  0  0  0  0  0  0
  140.5964   76.2702  218.8871 H   0  0  0  0  0  0  0  0  0  0  0  0
  142.9385   75.6965  217.2547 H   0  0  0  0  0  0  0  0  0  0  0  0
  142.3472   77.2628  217.7815 H   0  0  0  0  0  0  0  0  0  0  0  0
  144.6229   76.0844  218.7607 H   0  0  0  0  0  0  0  0  0  0  0  0
  143.6489   77.2203  219.7265 H   0  0  0  0  0  0  0  0  0  0  0  0
  143.6862   75.3860  221.1464 H   0  0  0  0  0  0  0  0  0  0  0  0
  143.1204   73.1982  220.0993 H   0  0  0  0  0  0  0  0  0  0  0  0
  145.6550   74.4660  221.1411 H   0  0  0  0  0  0  0  0  0  0  0  0
  144.7317   73.1706  221.8630 H   0  0  0  0  0  0  0  0  0  0  0  0
  146.9437   72.4706  220.5589 H   0  0  0  0  0  0  0  0  0  0  0  0
  145.5529   71.5377  220.1137 H   0  0  0  0  0  0  0  0  0  0  0  0
  146.5190   74.1220  218.9090 H   0  0  0  0  0  0  0  0  0  0  0  0
  144.4821   74.4771  217.9689 H   0  0  0  0  0  0  0  0  0  0  0  0
  144.0174   72.7673  218.0985 H   0  0  0  0  0  0  0  0  0  0  0  0
  138.7984   68.8898  222.7974 H   0  0  0  0  0  0  0  0  0  0  0  0
  138.7043   67.5784  224.9080 H   0  0  0  0  0  0  0  0  0  0  0  0
  139.2719   67.3910  227.2143 H   0  0  0  0  0  0  0  0  0  0  0  0
  141.5058   70.5235  229.1573 H   0  0  0  0  0  0  0  0  0  0  0  0
  141.5755   71.8073  227.0342 H   0  0  0  0  0  0  0  0  0  0  0  0
  1  2  2  0
  2  3  1  0
  3  4  1  0
  4  5  1  0
  5  6  2  0
  5  7  1  0
  7  8  1  0
  8  9  1  0
  9 10  1  0
 10 11  1  0
 11 12  1  0
 12 13  1  0
 13 14  1  0
 14 15  1  0
 15 16  1  0
  2 17  1  0
 17 18  2  0
 18 19  1  0
 19 20  2  0
 20 21  1  0
 21 22  2  0
 22 23  1  0
 22 24  1  0
 24 25  2  0
 25 26  1  0
 26 27  2  0
 11  7  1  0
 16 12  1  0
 27 17  1  0
 26 20  1  0
  3 28  1  0
  4 29  1  0
  4 30  1  0
  8 31  1  0
  8 32  1  0
  9 33  1  0
  9 34  1  0
 10 35  1  0
 10 36  1  0
 11 37  1  1
 12 38  1  1
 13 39  1  0
 13 40  1  0
 14 41  1  0
 14 42  1  0
 15 43  1  0
 16 44  1  0
 16 45  1  0
 18 46  1  0
 19 47  1  0
 21 48  1  0
 24 49  1  0
 25 50  1  0
M  END
>  <smiles>  (19) 
O=C(NCC(=O)N1CCCC1C1CCNC1)c1ccc2cc(F)ccc2n1

>  <score_type>  (19) 
oracle

>  <origin>  (19) 
autodockgpu

>  <m_score__min__energy>  (19) 
-8.9199999999999999

>  <m_primary>  (19) 
energy

>  <rmsd>  (19) 
2.0278052223809895

>  <m_score__min__rmsd>  (19) 
2.0278052223809895

>  <meeko>  (19) 
{"free_energy": -8.36, "intermolecular_energy": -9.85, "internal_energy": -1.47, "cluster_size": 32, "cluster_id": 1, "rank_in_cluster": 19}

>  <energy>  (19) 
-8.36

>  <cluster_rmsd>  (19) 
0.89

>  <cluster>  (19) 
1

$$$$

     RDKit          3D

 50 53  0  0  0  0  0  0  0  0999 V2000
  141.2040   72.0050  221.4300 O   0  0  0  0  0  0  0  0  0  0  0  0
  140.3960   72.3100  222.3390 C   0  0  0  0  0  0  0  0  0  0  0  0
  139.6330   73.4830  222.1800 N   0  0  0  0  0  0  0  0  0  0  0  0
  139.7930   74.2780  221.0150 C   0  0  0  0  0  0  0  0  0  0  0  0
  141.0410   75.0770  220.9990 C   0  0  0  0  0  0  0  0  0  0  0  0
  141.4260   75.6780  222.0540 O   0  0  0  0  0  0  0  0  0  0  0  0
  141.8070   75.1730  219.8040 N   0  0  0  0  0  0  0  0  0  0  0  0
  141.2810   75.1520  218.4530 C   0  0  0  0  0  0  0  0  0  0  0  0
  142.3540   75.5980  217.5230 C   0  0  0  0  0  0  0  0  0  0  0  0
  143.4560   76.0080  218.4310 C   0  0  0  0  0  0  0  0  0  0  0  0
  143.2520   75.3090  219.7190 C   0  0  2  0  0  0  0  0  0  0  0  0
  144.0000   74.0380  219.9350 C   0  0  2  0  0  0  0  0  0  0  0  0
  145.1830   74.1420  220.8250 C   0  0  0  0  0  0  0  0  0  0  0  0
  146.0290   72.9630  220.3820 C   0  0  0  0  0  0  0  0  0  0  0  0
  145.9210   73.0960  218.9200 N   0  0  0  0  0  0  0  0  0  0  0  0
  144.4760   73.3150  218.7370 C   0  0  0  0  0  0  0  0  0  0  0  0
  140.2530   71.4690  223.5260 C   0  0  0  0  0  0  0  0  0  0  0  0
  139.6420   70.2280  223.4050 C   0  0  0  0  0  0  0  0  0  0  0  0
  139.4730   69.3820  224.4860 C   0  0  0  0  0  0  0  0  0  0  0  0
  139.9460   69.8180  225.7220 C   0  0  0  0  0  0  0  0  0  0  0  0
  139.7880   68.9860  226.8160 C   0  0  0  0  0  0  0  0  0  0  0  0
  140.2530   69.4010  228.0670 C   0  0  0  0  0  0  0  0  0  0  0  0
  140.0820   68.5640  229.1120 F   0  0  0  0  0  0  0  0  0  0  0  0
  140.8630   70.6400  228.1810 C   0  0  0  0  0  0  0  0  0  0  0  0
  141.0170   71.4710  227.0750 C   0  0  0  0  0  0  0  0  0  0  0  0
  140.5600   71.0670  225.8360 C   0  0  0  0  0  0  0  0  0  0  0  0
  140.7010   71.8630  224.7450 N   0  0  0  0  0  0  0  0  0  0  0  0
  138.9530   73.7240  222.9600 H   0  0  0  0  0  0  0  0  0  0  0  0
  139.7970   73.6122  220.1394 H   0  0  0  0  0  0  0  0  0  0  0  0
  138.9567   74.9924  220.9991 H   0  0  0  0  0  0  0  0  0  0  0  0
  140.9653   74.1308  218.1933 H   0  0  0  0  0  0  0  0  0  0  0  0
  140.4120   75.8220  218.3758 H   0  0  0  0  0  0  0  0  0  0  0  0
  142.6719   74.7746  216.8666 H   0  0  0  0  0  0  0  0  0  0  0  0
  142.0292   76.4075  216.8528 H   0  0  0  0  0  0  0  0  0  0  0  0
  144.4259   75.7224  217.9978 H   0  0  0  0  0  0  0  0  0  0  0  0
  143.4537   77.0983  218.5765 H   0  0  0  0  0  0  0  0  0  0  0  0
  143.6889   75.8936  220.5420 H   0  0  0  0  0  0  0  0  0  0  0  0
  143.1858   73.4661  220.4042 H   0  0  0  0  0  0  0  0  0  0  0  0
  145.7142   75.0929  220.6713 H   0  0  0  0  0  0  0  0  0  0  0  0
  144.9304   74.1240  221.8955 H   0  0  0  0  0  0  0  0  0  0  0  0
  147.0703   73.0582  220.7235 H   0  0  0  0  0  0  0  0  0  0  0  0
  145.7069   71.9897  220.7807 H   0  0  0  0  0  0  0  0  0  0  0  0
  146.4180   73.9830  218.6400 H   0  0  0  0  0  0  0  0  0  0  0  0
  144.2953   73.9171  217.8343 H   0  0  0  0  0  0  0  0  0  0  0  0
  143.9439   72.3601  218.6142 H   0  0  0  0  0  0  0  0  0  0  0  0
  139.2805   69.9072  222.4169 H   0  0  0  0  0  0  0  0  0  0  0  0
  138.9842   68.4029  224.3743 H   0  0  0  0  0  0  0  0  0  0  0  0
  139.3007   68.0064  226.7022 H   0  0  0  0  0  0  0  0  0  0  0  0
  141.2319   70.9726  229.1625 H   0  0  0  0  0  0  0  0  0  0  0  0
  141.5035   72.4511  227.1880 H   0  0  0  0  0  0  0  0  0  0  0  0
  1  2  2  0
  2  3  1  0
  3  4  1  0
  4  5  1  0
  5  6  2  0
  5  7  1  0
  7  8  1  0
  8  9  1  0
  9 10  1  0
 10 11  1  0
 11 12  1  0
 12 13  1  0
 13 14  1  0
 14 15  1  0
 15 16  1  0
  2 17  1  0
 17 18  2  0
 18 19  1  0
 19 20  2  0
 20 21  1  0
 21 22  2  0
 22 23  1  0
 22 24  1  0
 24 25  2  0
 25 26  1  0
 26 27  2  0
 11  7  1  0
 16 12  1  0
 27 17  1  0
 26 20  1  0
  3 28  1  0
  4 29  1  0
  4 30  1  0
  8 31  1  0
  8 32  1  0
  9 33  1  0
  9 34  1  0
 10 35  1  0
 10 36  1  0
 11 37  1  1
 12 38  1  1
 13 39  1  0
 13 40  1  0
 14 41  1  0
 14 42  1  0
 15 43  1  0
 16 44  1  0
 16 45  1  0
 18 46  1  0
 19 47  1  0
 21 48  1  0
 24 49  1  0
 25 50  1  0
M  END
>  <smiles>  (20) 
O=C(NCC(=O)N1CCCC1C1CCNC1)c1ccc2cc(F)ccc2n1

>  <score_type>  (20) 
oracle

>  <origin>  (20) 
autodockgpu

>  <m_score__min__energy>  (20) 
-8.9199999999999999

>  <m_primary>  (20) 
energy

>  <rmsd>  (20) 
1.9339824418724587

>  <m_score__min__rmsd>  (20) 
1.9339824418724587

>  <meeko>  (20) 
{"free_energy": -8.88, "intermolecular_energy": -10.38, "internal_energy": -1.33, "cluster_size": 32, "cluster_id": 1, "rank_in_cluster": 4}

>  <energy>  (20) 
-8.3

>  <cluster_rmsd>  (20) 
1.25

>  <cluster>  (20) 
1

$$$$

     RDKit          3D

 50 53  0  0  0  0  0  0  0  0999 V2000
  140.2170   72.7080  220.8640 O   0  0  0  0  0  0  0  0  0  0  0  0
  139.8920   72.9870  222.0430 C   0  0  0  0  0  0  0  0  0  0  0  0
  139.5130   74.3130  222.3270 N   0  0  0  0  0  0  0  0  0  0  0  0
  139.5070   75.2850  221.2920 C   0  0  0  0  0  0  0  0  0  0  0  0
  140.1780   76.5540  221.6570 C   0  0  0  0  0  0  0  0  0  0  0  0
  141.4450   76.5950  221.7750 O   0  0  0  0  0  0  0  0  0  0  0  0
  139.4040   77.7290  221.8750 N   0  0  0  0  0  0  0  0  0  0  0  0
  138.4870   78.3300  220.9270 C   0  0  0  0  0  0  0  0  0  0  0  0
  137.6530   79.3300  221.6480 C   0  0  0  0  0  0  0  0  0  0  0  0
  138.0480   79.1550  223.0690 C   0  0  0  0  0  0  0  0  0  0  0  0
  139.3930   78.5370  223.0830 C   0  0  2  0  0  0  0  0  0  0  0  0
  140.5640   79.4490  223.2210 C   0  0  2  0  0  0  0  0  0  0  0  0
  141.0520   80.0490  221.9540 C   0  0  0  0  0  0  0  0  0  0  0  0
  142.4960   80.3770  222.2850 C   0  0  0  0  0  0  0  0  0  0  0  0
  142.8980   79.1370  222.9690 N   0  0  0  0  0  0  0  0  0  0  0  0
  141.7690   78.9140  223.8880 C   0  0  0  0  0  0  0  0  0  0  0  0
  139.9070   71.9630  223.0850 C   0  0  0  0  0  0  0  0  0  0  0  0
  139.4660   70.6830  222.7800 C   0  0  0  0  0  0  0  0  0  0  0  0
  139.4520   69.6650  223.7180 C   0  0  0  0  0  0  0  0  0  0  0  0
  139.9040   69.9690  225.0000 C   0  0  0  0  0  0  0  0  0  0  0  0
  139.8990   68.9660  225.9530 C   0  0  0  0  0  0  0  0  0  0  0  0
  140.3460   69.2460  227.2470 C   0  0  0  0  0  0  0  0  0  0  0  0
  140.3270   68.2440  228.1510 F   0  0  0  0  0  0  0  0  0  0  0  0
  140.7850   70.5260  227.5450 C   0  0  0  0  0  0  0  0  0  0  0  0
  140.7860   71.5300  226.5810 C   0  0  0  0  0  0  0  0  0  0  0  0
  140.3460   71.2600  225.3000 C   0  0  0  0  0  0  0  0  0  0  0  0
  140.3390   72.2250  224.3440 N   0  0  0  0  0  0  0  0  0  0  0  0
  139.2390   74.5310  223.3310 H   0  0  0  0  0  0  0  0  0  0  0  0
  140.0200   74.8614  220.4160 H   0  0  0  0  0  0  0  0  0  0  0  0
  138.4537   75.5278  221.0879 H   0  0  0  0  0  0  0  0  0  0  0  0
  139.0539   78.8274  220.1263 H   0  0  0  0  0  0  0  0  0  0  0  0
  137.8460   77.5563  220.4793 H   0  0  0  0  0  0  0  0  0  0  0  0
  137.8754   80.3500  221.3013 H   0  0  0  0  0  0  0  0  0  0  0  0
  136.5750   79.1858  221.4832 H   0  0  0  0  0  0  0  0  0  0  0  0
  138.0781   80.1319  223.5737 H   0  0  0  0  0  0  0  0  0  0  0  0
  137.3231   78.5184  223.5975 H   0  0  0  0  0  0  0  0  0  0  0  0
  139.5353   77.9538  224.0047 H   0  0  0  0  0  0  0  0  0  0  0  0
  140.0917   80.1991  223.8723 H   0  0  0  0  0  0  0  0  0  0  0  0
  140.9872   79.3314  221.1228 H   0  0  0  0  0  0  0  0  0  0  0  0
  140.4669   80.9209  221.6261 H   0  0  0  0  0  0  0  0  0  0  0  0
  143.0918   80.5524  221.3771 H   0  0  0  0  0  0  0  0  0  0  0  0
  142.6357   81.2944  222.8757 H   0  0  0  0  0  0  0  0  0  0  0  0
  142.8910   78.3600  222.2580 H   0  0  0  0  0  0  0  0  0  0  0  0
  141.6472   77.8385  224.0844 H   0  0  0  0  0  0  0  0  0  0  0  0
  141.9408   79.4134  224.8529 H   0  0  0  0  0  0  0  0  0  0  0  0
  139.1160   70.4703  221.7591 H   0  0  0  0  0  0  0  0  0  0  0  0
  139.0979   68.6558  223.4611 H   0  0  0  0  0  0  0  0  0  0  0  0
  139.5462   67.9568  225.6943 H   0  0  0  0  0  0  0  0  0  0  0  0
  141.1390   70.7527  228.5615 H   0  0  0  0  0  0  0  0  0  0  0  0
  141.1376   72.5397  226.8397 H   0  0  0  0  0  0  0  0  0  0  0  0
  1  2  2  0
  2  3  1  0
  3  4  1  0
  4  5  1  0
  5  6  2  0
  5  7  1  0
  7  8  1  0
  8  9  1  0
  9 10  1  0
 10 11  1  0
 11 12  1  0
 12 13  1  0
 13 14  1  0
 14 15  1  0
 15 16  1  0
  2 17  1  0
 17 18  2  0
 18 19  1  0
 19 20  2  0
 20 21  1  0
 21 22  2  0
 22 23  1  0
 22 24  1  0
 24 25  2  0
 25 26  1  0
 26 27  2  0
 11  7  1  0
 16 12  1  0
 27 17  1  0
 26 20  1  0
  3 28  1  0
  4 29  1  0
  4 30  1  0
  8 31  1  0
  8 32  1  0
  9 33  1  0
  9 34  1  0
 10 35  1  0
 10 36  1  0
 11 37  1  1
 12 38  1  1
 13 39  1  0
 13 40  1  0
 14 41  1  0
 14 42  1  0
 15 43  1  0
 16 44  1  0
 16 45  1  0
 18 46  1  0
 19 47  1  0
 21 48  1  0
 24 49  1  0
 25 50  1  0
M  END
>  <smiles>  (21) 
O=C(NCC(=O)N1CCCC1C1CCNC1)c1ccc2cc(F)ccc2n1

>  <score_type>  (21) 
oracle

>  <origin>  (21) 
autodockgpu

>  <m_score__min__energy>  (21) 
-8.9199999999999999

>  <m_primary>  (21) 
energy

>  <rmsd>  (21) 
3.1516115028516265

>  <m_score__min__rmsd>  (21) 
3.1516115028516265

>  <meeko>  (21) 
{"free_energy": -7.62, "intermolecular_energy": -9.11, "internal_energy": -1.71, "cluster_size": 15, "cluster_id": 2, "rank_in_cluster": 14}

>  <energy>  (21) 
-8.25

>  <cluster_rmsd>  (21) 
1.32

>  <cluster>  (21) 
1

$$$$

     RDKit          3D

 50 53  0  0  0  0  0  0  0  0999 V2000
  140.2980   72.9830  222.6020 O   0  0  0  0  0  0  0  0  0  0  0  0
  140.2850   71.7380  222.7520 C   0  0  0  0  0  0  0  0  0  0  0  0
  140.1630   70.9340  221.6030 N   0  0  0  0  0  0  0  0  0  0  0  0
  140.0590   71.5400  220.3230 C   0  0  0  0  0  0  0  0  0  0  0  0
  141.3520   71.6670  219.6110 C   0  0  0  0  0  0  0  0  0  0  0  0
  141.9040   70.6370  219.1060 O   0  0  0  0  0  0  0  0  0  0  0  0
  141.9760   72.9400  219.4940 N   0  0  0  0  0  0  0  0  0  0  0  0
  141.8600   73.8430  218.3650 C   0  0  0  0  0  0  0  0  0  0  0  0
  142.3860   75.1740  218.7710 C   0  0  0  0  0  0  0  0  0  0  0  0
  142.6650   75.0140  220.2210 C   0  0  0  0  0  0  0  0  0  0  0  0
  142.8400   73.5670  220.4800 C   0  0  2  0  0  0  0  0  0  0  0  0
  144.2330   73.0380  220.4970 C   0  0  2  0  0  0  0  0  0  0  0  0
  145.2800   74.0230  220.8660 C   0  0  0  0  0  0  0  0  0  0  0  0
  146.5240   73.4300  220.2320 C   0  0  0  0  0  0  0  0  0  0  0  0
  145.9920   73.0540  218.9110 N   0  0  0  0  0  0  0  0  0  0  0  0
  144.7300   72.3840  219.2680 C   0  0  0  0  0  0  0  0  0  0  0  0
  140.3960   71.1440  224.0830 C   0  0  0  0  0  0  0  0  0  0  0  0
  140.9560   71.8910  225.1110 C   0  0  0  0  0  0  0  0  0  0  0  0
  141.0920   71.3910  226.3940 C   0  0  0  0  0  0  0  0  0  0  0  0
  140.6390   70.0950  226.6300 C   0  0  0  0  0  0  0  0  0  0  0  0
  140.7650   69.5770  227.9060 C   0  0  0  0  0  0  0  0  0  0  0  0
  140.3180   68.2790  228.1680 C   0  0  0  0  0  0  0  0  0  0  0  0
  140.4570   67.8060  229.4240 F   0  0  0  0  0  0  0  0  0  0  0  0
  139.7590   67.5400  227.1370 C   0  0  0  0  0  0  0  0  0  0  0  0
  139.6370   68.0680  225.8560 C   0  0  0  0  0  0  0  0  0  0  0  0
  140.0760   69.3510  225.5910 C   0  0  0  0  0  0  0  0  0  0  0  0
  139.9650   69.8850  224.3470 N   0  0  0  0  0  0  0  0  0  0  0  0
  140.1550   69.8810  221.7500 H   0  0  0  0  0  0  0  0  0  0  0  0
  139.3823   70.9310  219.7056 H   0  0  0  0  0  0  0  0  0  0  0  0
  139.6816   72.5608  220.4832 H   0  0  0  0  0  0  0  0  0  0  0  0
  142.4448   73.4553  217.5178 H   0  0  0  0  0  0  0  0  0  0  0  0
  140.8073   73.9307  218.0583 H   0  0  0  0  0  0  0  0  0  0  0  0
  143.3058   75.4175  218.2190 H   0  0  0  0  0  0  0  0  0  0  0  0
  141.6829   75.9932  218.5597 H   0  0  0  0  0  0  0  0  0  0  0  0
  143.5825   75.5579  220.4898 H   0  0  0  0  0  0  0  0  0  0  0  0
  141.8386   75.4196  220.8231 H   0  0  0  0  0  0  0  0  0  0  0  0
  142.5660   73.3313  221.5189 H   0  0  0  0  0  0  0  0  0  0  0  0
  144.0921   72.2785  221.2801 H   0  0  0  0  0  0  0  0  0  0  0  0
  145.0562   75.0163  220.4497 H   0  0  0  0  0  0  0  0  0  0  0  0
  145.3722   74.1804  221.9508 H   0  0  0  0  0  0  0  0  0  0  0  0
  147.3319   74.1719  220.1493 H   0  0  0  0  0  0  0  0  0  0  0  0
  146.9798   72.6037  220.7972 H   0  0  0  0  0  0  0  0  0  0  0  0
  145.7500   73.9410  218.3970 H   0  0  0  0  0  0  0  0  0  0  0  0
  143.9974   72.4981  218.4554 H   0  0  0  0  0  0  0  0  0  0  0  0
  144.8863   71.3071  219.4291 H   0  0  0  0  0  0  0  0  0  0  0  0
  141.3026   72.9131  224.8985 H   0  0  0  0  0  0  0  0  0  0  0  0
  141.5408   71.9940  227.1971 H   0  0  0  0  0  0  0  0  0  0  0  0
  141.2133   70.1816  228.7082 H   0  0  0  0  0  0  0  0  0  0  0  0
  139.4055   66.5174  227.3355 H   0  0  0  0  0  0  0  0  0  0  0  0
  139.1904   67.4634  225.0529 H   0  0  0  0  0  0  0  0  0  0  0  0
  1  2  2  0
  2  3  1  0
  3  4  1  0
  4  5  1  0
  5  6  2  0
  5  7  1  0
  7  8  1  0
  8  9  1  0
  9 10  1  0
 10 11  1  0
 11 12  1  0
 12 13  1  0
 13 14  1  0
 14 15  1  0
 15 16  1  0
  2 17  1  0
 17 18  2  0
 18 19  1  0
 19 20  2  0
 20 21  1  0
 21 22  2  0
 22 23  1  0
 22 24  1  0
 24 25  2  0
 25 26  1  0
 26 27  2  0
 11  7  1  0
 16 12  1  0
 27 17  1  0
 26 20  1  0
  3 28  1  0
  4 29  1  0
  4 30  1  0
  8 31  1  0
  8 32  1  0
  9 33  1  0
  9 34  1  0
 10 35  1  0
 10 36  1  0
 11 37  1  1
 12 38  1  1
 13 39  1  0
 13 40  1  0
 14 41  1  0
 14 42  1  0
 15 43  1  0
 16 44  1  0
 16 45  1  0
 18 46  1  0
 19 47  1  0
 21 48  1  0
 24 49  1  0
 25 50  1  0
M  END
>  <smiles>  (22) 
O=C(NCC(=O)N1CCCC1C1CCNC1)c1ccc2cc(F)ccc2n1

>  <score_type>  (22) 
oracle

>  <origin>  (22) 
autodockgpu

>  <m_score__min__energy>  (22) 
-8.9199999999999999

>  <m_primary>  (22) 
energy

>  <rmsd>  (22) 
3.5132531272393237

>  <m_score__min__rmsd>  (22) 
3.5132531272393237

>  <meeko>  (22) 
{"free_energy": -7.91, "intermolecular_energy": -9.41, "internal_energy": -1.6, "cluster_size": 32, "cluster_id": 1, "rank_in_cluster": 25}

>  <energy>  (22) 
-8.25

>  <cluster_rmsd>  (22) 
1.32

>  <cluster>  (22) 
1

$$$$

     RDKit          3D

 50 53  0  0  0  0  0  0  0  0999 V2000
  141.2860   72.2440  221.4200 O   0  0  0  0  0  0  0  0  0  0  0  0
  140.5030   72.5220  222.3590 C   0  0  0  0  0  0  0  0  0  0  0  0
  139.8170   73.7510  222.3070 N   0  0  0  0  0  0  0  0  0  0  0  0
  140.0240   74.6300  221.2120 C   0  0  0  0  0  0  0  0  0  0  0  0
  140.2880   76.0320  221.6090 C   0  0  0  0  0  0  0  0  0  0  0  0
  139.8510   76.4730  222.7210 O   0  0  0  0  0  0  0  0  0  0  0  0
  141.0310   76.8870  220.7460 N   0  0  0  0  0  0  0  0  0  0  0  0
  142.2770   76.5520  220.0860 C   0  0  0  0  0  0  0  0  0  0  0  0
  142.5450   77.5760  219.0400 C   0  0  0  0  0  0  0  0  0  0  0  0
  141.3190   78.4150  219.0490 C   0  0  0  0  0  0  0  0  0  0  0  0
  140.6770   78.2450  220.3710 C   0  0  2  0  0  0  0  0  0  0  0  0
  140.9760   79.2660  221.4150 C   0  0  2  0  0  0  0  0  0  0  0  0
  142.1860   79.0000  222.2320 C   0  0  0  0  0  0  0  0  0  0  0  0
  141.9000   79.7820  223.5010 C   0  0  0  0  0  0  0  0  0  0  0  0
  140.4940   79.4080  223.7290 N   0  0  0  0  0  0  0  0  0  0  0  0
  139.9100   79.5800  222.3880 C   0  0  0  0  0  0  0  0  0  0  0  0
  140.3100   71.5940  223.4710 C   0  0  0  0  0  0  0  0  0  0  0  0
  139.6440   70.3970  223.2450 C   0  0  0  0  0  0  0  0  0  0  0  0
  139.4260   69.4730  224.2520 C   0  0  0  0  0  0  0  0  0  0  0  0
  139.9070   69.7830  225.5220 C   0  0  0  0  0  0  0  0  0  0  0  0
  139.7010   68.8730  226.5420 C   0  0  0  0  0  0  0  0  0  0  0  0
  140.1730   69.1610  227.8260 C   0  0  0  0  0  0  0  0  0  0  0  0
  139.9540   68.2500  228.7980 F   0  0  0  0  0  0  0  0  0  0  0  0
  140.8390   70.3570  228.0450 C   0  0  0  0  0  0  0  0  0  0  0  0
  141.0410   71.2680  227.0120 C   0  0  0  0  0  0  0  0  0  0  0  0
  140.5770   70.9890  225.7420 C   0  0  0  0  0  0  0  0  0  0  0  0
  140.7650   71.8640  224.7200 N   0  0  0  0  0  0  0  0  0  0  0  0
  139.1570   73.9680  223.1110 H   0  0  0  0  0  0  0  0  0  0  0  0
  140.8859   74.2657  220.6337 H   0  0  0  0  0  0  0  0  0  0  0  0
  139.0932   74.6342  220.6258 H   0  0  0  0  0  0  0  0  0  0  0  0
  143.0965   76.5473  220.8198 H   0  0  0  0  0  0  0  0  0  0  0  0
  142.2058   75.5542  219.6284 H   0  0  0  0  0  0  0  0  0  0  0  0
  143.4321   78.1744  219.2946 H   0  0  0  0  0  0  0  0  0  0  0  0
  142.7535   77.1350  218.0541 H   0  0  0  0  0  0  0  0  0  0  0  0
  141.5848   79.4709  218.8930 H   0  0  0  0  0  0  0  0  0  0  0  0
  140.6347   78.1120  218.2428 H   0  0  0  0  0  0  0  0  0  0  0  0
  139.5927   78.4117  220.2908 H   0  0  0  0  0  0  0  0  0  0  0  0
  141.1171   80.1258  220.7436 H   0  0  0  0  0  0  0  0  0  0  0  0
  142.2959   77.9259  222.4425 H   0  0  0  0  0  0  0  0  0  0  0  0
  143.1238   79.2926  221.7371 H   0  0  0  0  0  0  0  0  0  0  0  0
  142.5463   79.4611  224.3312 H   0  0  0  0  0  0  0  0  0  0  0  0
  142.0823   80.8642  223.4260 H   0  0  0  0  0  0  0  0  0  0  0  0
  140.4680   78.3800  223.9610 H   0  0  0  0  0  0  0  0  0  0  0  0
  139.0608   78.8939  222.2539 H   0  0  0  0  0  0  0  0  0  0  0  0
  139.5375   80.6055  222.2482 H   0  0  0  0  0  0  0  0  0  0  0  0
  139.2774   70.1756  222.2318 H   0  0  0  0  0  0  0  0  0  0  0  0
  138.8936   68.5304  224.0571 H   0  0  0  0  0  0  0  0  0  0  0  0
  139.1700   67.9300  226.3450 H   0  0  0  0  0  0  0  0  0  0  0  0
  141.2143   70.5901  229.0524 H   0  0  0  0  0  0  0  0  0  0  0  0
  141.5712   72.2117  227.2079 H   0  0  0  0  0  0  0  0  0  0  0  0
  1  2  2  0
  2  3  1  0
  3  4  1  0
  4  5  1  0
  5  6  2  0
  5  7  1  0
  7  8  1  0
  8  9  1  0
  9 10  1  0
 10 11  1  0
 11 12  1  0
 12 13  1  0
 13 14  1  0
 14 15  1  0
 15 16  1  0
  2 17  1  0
 17 18  2  0
 18 19  1  0
 19 20  2  0
 20 21  1  0
 21 22  2  0
 22 23  1  0
 22 24  1  0
 24 25  2  0
 25 26  1  0
 26 27  2  0
 11  7  1  0
 16 12  1  0
 27 17  1  0
 26 20  1  0
  3 28  1  0
  4 29  1  0
  4 30  1  0
  8 31  1  0
  8 32  1  0
  9 33  1  0
  9 34  1  0
 10 35  1  0
 10 36  1  0
 11 37  1  6
 12 38  1  6
 13 39  1  0
 13 40  1  0
 14 41  1  0
 14 42  1  0
 15 43  1  0
 16 44  1  0
 16 45  1  0
 18 46  1  0
 19 47  1  0
 21 48  1  0
 24 49  1  0
 25 50  1  0
M  END
>  <smiles>  (23) 
O=C(NCC(=O)N1CCCC1C1CCNC1)c1ccc2cc(F)ccc2n1

>  <score_type>  (23) 
oracle

>  <origin>  (23) 
autodockgpu

>  <m_score__min__energy>  (23) 
-8.9199999999999999

>  <m_primary>  (23) 
energy

>  <rmsd>  (23) 
2.143354067871124

>  <m_score__min__rmsd>  (23) 
2.143354067871124

>  <meeko>  (23) 
{"free_energy": -7.8, "intermolecular_energy": -9.29, "internal_energy": -1.74, "cluster_size": 15, "cluster_id": 2, "rank_in_cluster": 9}

>  <energy>  (23) 
-8.24

>  <cluster_rmsd>  (23) 
1.29

>  <cluster>  (23) 
1

$$$$

     RDKit          3D

 50 53  0  0  0  0  0  0  0  0999 V2000
  140.6560   71.8050  221.2560 O   0  0  0  0  0  0  0  0  0  0  0  0
  140.1560   72.2350  222.3230 C   0  0  0  0  0  0  0  0  0  0  0  0
  139.6350   73.5440  222.3290 N   0  0  0  0  0  0  0  0  0  0  0  0
  139.6860   74.3310  221.1490 C   0  0  0  0  0  0  0  0  0  0  0  0
  140.9750   75.0340  220.9510 C   0  0  0  0  0  0  0  0  0  0  0  0
  141.4360   75.7890  221.8670 O   0  0  0  0  0  0  0  0  0  0  0  0
  141.6970   74.8650  219.7360 N   0  0  0  0  0  0  0  0  0  0  0  0
  141.1380   74.4370  218.4690 C   0  0  0  0  0  0  0  0  0  0  0  0
  142.1400   74.7000  217.4000 C   0  0  0  0  0  0  0  0  0  0  0  0
  143.2240   75.4280  218.1080 C   0  0  0  0  0  0  0  0  0  0  0  0
  143.1200   75.0890  219.5450 C   0  0  2  0  0  0  0  0  0  0  0  0
  143.9870   73.9880  220.0530 C   0  0  2  0  0  0  0  0  0  0  0  0
  145.1690   74.4230  220.8380 C   0  0  0  0  0  0  0  0  0  0  0  0
  146.1140   73.2460  220.6840 C   0  0  0  0  0  0  0  0  0  0  0  0
  145.9710   72.9820  219.2420 N   0  0  0  0  0  0  0  0  0  0  0  0
  144.5090   73.0200  219.0660 C   0  0  0  0  0  0  0  0  0  0  0  0
  140.1160   71.3990  223.5210 C   0  0  0  0  0  0  0  0  0  0  0  0
  139.5840   70.1200  223.4330 C   0  0  0  0  0  0  0  0  0  0  0  0
  139.5150   69.2750  224.5270 C   0  0  0  0  0  0  0  0  0  0  0  0
  140.0070   69.7530  225.7390 C   0  0  0  0  0  0  0  0  0  0  0  0
  139.9480   68.9240  226.8440 C   0  0  0  0  0  0  0  0  0  0  0  0
  140.4340   69.3800  228.0730 C   0  0  0  0  0  0  0  0  0  0  0  0
  140.3610   68.5440  229.1300 F   0  0  0  0  0  0  0  0  0  0  0  0
  140.9650   70.6580  228.1530 C   0  0  0  0  0  0  0  0  0  0  0  0
  141.0200   71.4860  227.0350 C   0  0  0  0  0  0  0  0  0  0  0  0
  140.5410   71.0410  225.8190 C   0  0  0  0  0  0  0  0  0  0  0  0
  140.5860   71.8330  224.7170 N   0  0  0  0  0  0  0  0  0  0  0  0
  139.2140   73.8900  223.2420 H   0  0  0  0  0  0  0  0  0  0  0  0
  139.5150   73.6716  220.2853 H   0  0  0  0  0  0  0  0  0  0  0  0
  138.9119   75.1061  221.2487 H   0  0  0  0  0  0  0  0  0  0  0  0
  140.9100   73.3616  218.5079 H   0  0  0  0  0  0  0  0  0  0  0  0
  140.2094   74.9885  218.2603 H   0  0  0  0  0  0  0  0  0  0  0  0
  142.5140   73.7582  216.9721 H   0  0  0  0  0  0  0  0  0  0  0  0
  141.7242   75.2689  216.5554 H   0  0  0  0  0  0  0  0  0  0  0  0
  144.2039   75.1153  217.7180 H   0  0  0  0  0  0  0  0  0  0  0  0
  143.1259   76.5132  217.9570 H   0  0  0  0  0  0  0  0  0  0  0  0
  143.5235   75.9071  220.1597 H   0  0  0  0  0  0  0  0  0  0  0  0
  143.2373   73.4909  220.6862 H   0  0  0  0  0  0  0  0  0  0  0  0
  145.6070   75.3421  220.4215 H   0  0  0  0  0  0  0  0  0  0  0  0
  144.9359   74.6652  221.8854 H   0  0  0  0  0  0  0  0  0  0  0  0
  147.1471   73.5161  220.9480 H   0  0  0  0  0  0  0  0  0  0  0  0
  145.8904   72.3873  221.3341 H   0  0  0  0  0  0  0  0  0  0  0  0
  146.3780   73.8030  218.7220 H   0  0  0  0  0  0  0  0  0  0  0  0
  144.2584   73.3464  218.0459 H   0  0  0  0  0  0  0  0  0  0  0  0
  144.0666   72.0242  219.2165 H   0  0  0  0  0  0  0  0  0  0  0  0
  139.2051   69.7666  222.4627 H   0  0  0  0  0  0  0  0  0  0  0  0
  139.0880   68.2648  224.4424 H   0  0  0  0  0  0  0  0  0  0  0  0
  139.5220   67.9136  226.7568 H   0  0  0  0  0  0  0  0  0  0  0  0
  141.3495   71.0242  229.1163 H   0  0  0  0  0  0  0  0  0  0  0  0
  141.4459   72.4966  227.1207 H   0  0  0  0  0  0  0  0  0  0  0  0
  1  2  2  0
  2  3  1  0
  3  4  1  0
  4  5  1  0
  5  6  2  0
  5  7  1  0
  7  8  1  0
  8  9  1  0
  9 10  1  0
 10 11  1  0
 11 12  1  0
 12 13  1  0
 13 14  1  0
 14 15  1  0
 15 16  1  0
  2 17  1  0
 17 18  2  0
 18 19  1  0
 19 20  2  0
 20 21  1  0
 21 22  2  0
 22 23  1  0
 22 24  1  0
 24 25  2  0
 25 26  1  0
 26 27  2  0
 11  7  1  0
 16 12  1  0
 27 17  1  0
 26 20  1  0
  3 28  1  0
  4 29  1  0
  4 30  1  0
  8 31  1  0
  8 32  1  0
  9 33  1  0
  9 34  1  0
 10 35  1  0
 10 36  1  0
 11 37  1  1
 12 38  1  1
 13 39  1  0
 13 40  1  0
 14 41  1  0
 14 42  1  0
 15 43  1  0
 16 44  1  0
 16 45  1  0
 18 46  1  0
 19 47  1  0
 21 48  1  0
 24 49  1  0
 25 50  1  0
M  END
>  <smiles>  (24) 
O=C(NCC(=O)N1CCCC1C1CCNC1)c1ccc2cc(F)ccc2n1

>  <score_type>  (24) 
oracle

>  <origin>  (24) 
autodockgpu

>  <m_score__min__energy>  (24) 
-8.9199999999999999

>  <m_primary>  (24) 
energy

>  <rmsd>  (24) 
1.9073938689056629

>  <m_score__min__rmsd>  (24) 
1.9073938689056629

>  <meeko>  (24) 
{"free_energy": -8.5, "intermolecular_energy": -9.99, "internal_energy": -1.36, "cluster_size": 32, "cluster_id": 1, "rank_in_cluster": 17}

>  <energy>  (24) 
-8.23

>  <cluster_rmsd>  (24) 
1.26

>  <cluster>  (24) 
1

$$$$

     RDKit          3D

 50 53  0  0  0  0  0  0  0  0999 V2000
  138.4250   71.8720  222.0640 O   0  0  0  0  0  0  0  0  0  0  0  0
  139.4240   71.9640  222.8150 C   0  0  0  0  0  0  0  0  0  0  0  0
  140.3610   72.9800  222.5480 N   0  0  0  0  0  0  0  0  0  0  0  0
  140.1570   73.8610  221.4540 C   0  0  0  0  0  0  0  0  0  0  0  0
  140.8400   73.4420  220.2090 C   0  0  0  0  0  0  0  0  0  0  0  0
  140.4920   72.3680  219.6210 O   0  0  0  0  0  0  0  0  0  0  0  0
  141.8870   74.2420  219.6700 N   0  0  0  0  0  0  0  0  0  0  0  0
  141.8630   74.9270  218.3930 C   0  0  0  0  0  0  0  0  0  0  0  0
  142.9920   75.8960  218.3560 C   0  0  0  0  0  0  0  0  0  0  0  0
  143.5590   75.8250  219.7270 C   0  0  0  0  0  0  0  0  0  0  0  0
  143.1680   74.5170  220.3010 C   0  0  2  0  0  0  0  0  0  0  0  0
  144.1520   73.4030  220.1990 C   0  0  2  0  0  0  0  0  0  0  0  0
  145.2310   73.4150  221.2190 C   0  0  0  0  0  0  0  0  0  0  0  0
  146.3310   72.6220  220.5390 C   0  0  0  0  0  0  0  0  0  0  0  0
  146.2870   73.2130  219.1910 N   0  0  0  0  0  0  0  0  0  0  0  0
  144.8420   73.2180  218.9050 C   0  0  0  0  0  0  0  0  0  0  0  0
  139.6050   71.0410  223.9350 C   0  0  0  0  0  0  0  0  0  0  0  0
  139.1660   69.7310  223.8070 C   0  0  0  0  0  0  0  0  0  0  0  0
  139.3050   68.8050  224.8270 C   0  0  0  0  0  0  0  0  0  0  0  0
  139.9120   69.2340  226.0050 C   0  0  0  0  0  0  0  0  0  0  0  0
  140.0610   68.3250  227.0350 C   0  0  0  0  0  0  0  0  0  0  0  0
  140.6670   68.7310  228.2280 C   0  0  0  0  0  0  0  0  0  0  0  0
  140.7960   67.8170  229.2130 F   0  0  0  0  0  0  0  0  0  0  0  0
  141.1040   70.0410  228.3480 C   0  0  0  0  0  0  0  0  0  0  0  0
  140.9490   70.9500  227.3060 C   0  0  0  0  0  0  0  0  0  0  0  0
  140.3520   70.5550  226.1250 C   0  0  0  0  0  0  0  0  0  0  0  0
  140.1920   71.4260  225.0960 N   0  0  0  0  0  0  0  0  0  0  0  0
  141.2020   73.0430  223.1960 H   0  0  0  0  0  0  0  0  0  0  0  0
  139.0770   73.9194  221.2534 H   0  0  0  0  0  0  0  0  0  0  0  0
  140.5869   74.8316  221.7421 H   0  0  0  0  0  0  0  0  0  0  0  0
  141.9739   74.1967  217.5780 H   0  0  0  0  0  0  0  0  0  0  0  0
  140.9072   75.4567  218.2672 H   0  0  0  0  0  0  0  0  0  0  0  0
  143.7398   75.5991  217.6060 H   0  0  0  0  0  0  0  0  0  0  0  0
  142.6744   76.9116  218.0771 H   0  0  0  0  0  0  0  0  0  0  0  0
  144.6553   75.9045  219.6850 H   0  0  0  0  0  0  0  0  0  0  0  0
  143.1795   76.6503  220.3474 H   0  0  0  0  0  0  0  0  0  0  0  0
  143.1143   74.5831  221.3977 H   0  0  0  0  0  0  0  0  0  0  0  0
  143.4493   72.5716  220.3573 H   0  0  0  0  0  0  0  0  0  0  0  0
  145.5587   74.4416  221.4396 H   0  0  0  0  0  0  0  0  0  0  0  0
  144.9235   72.9973  222.1890 H   0  0  0  0  0  0  0  0  0  0  0  0
  147.3062   72.7822  221.0219 H   0  0  0  0  0  0  0  0  0  0  0  0
  146.1967   71.5306  220.5677 H   0  0  0  0  0  0  0  0  0  0  0  0
  146.6020   74.2160  219.2690 H   0  0  0  0  0  0  0  0  0  0  0  0
  144.5939   74.0437  218.2219 H   0  0  0  0  0  0  0  0  0  0  0  0
  144.5316   72.2795  218.4224 H   0  0  0  0  0  0  0  0  0  0  0  0
  138.6923   69.4180  222.8649 H   0  0  0  0  0  0  0  0  0  0  0  0
  138.9497   67.7704  224.7115 H   0  0  0  0  0  0  0  0  0  0  0  0
  139.7058   67.2906  226.9174 H   0  0  0  0  0  0  0  0  0  0  0  0
  141.5817   70.3677  229.2835 H   0  0  0  0  0  0  0  0  0  0  0  0
  141.3026   71.9850  227.4231 H   0  0  0  0  0  0  0  0  0  0  0  0
  1  2  2  0
  2  3  1  0
  3  4  1  0
  4  5  1  0
  5  6  2  0
  5  7  1  0
  7  8  1  0
  8  9  1  0
  9 10  1  0
 10 11  1  0
 11 12  1  0
 12 13  1  0
 13 14  1  0
 14 15  1  0
 15 16  1  0
  2 17  1  0
 17 18  2  0
 18 19  1  0
 19 20  2  0
 20 21  1  0
 21 22  2  0
 22 23  1  0
 22 24  1  0
 24 25  2  0
 25 26  1  0
 26 27  2  0
 11  7  1  0
 16 12  1  0
 27 17  1  0
 26 20  1  0
  3 28  1  0
  4 29  1  0
  4 30  1  0
  8 31  1  0
  8 32  1  0
  9 33  1  0
  9 34  1  0
 10 35  1  0
 10 36  1  0
 11 37  1  1
 12 38  1  1
 13 39  1  0
 13 40  1  0
 14 41  1  0
 14 42  1  0
 15 43  1  0
 16 44  1  0
 16 45  1  0
 18 46  1  0
 19 47  1  0
 21 48  1  0
 24 49  1  0
 25 50  1  0
M  END
>  <smiles>  (25) 
O=C(NCC(=O)N1CCCC1C1CCNC1)c1ccc2cc(F)ccc2n1

>  <score_type>  (25) 
oracle

>  <origin>  (25) 
autodockgpu

>  <m_score__min__energy>  (25) 
-8.9199999999999999

>  <m_primary>  (25) 
energy

>  <rmsd>  (25) 
2.3182547570720304

>  <m_score__min__rmsd>  (25) 
2.3182547570720304

>  <meeko>  (25) 
{"free_energy": -7.91, "intermolecular_energy": -9.4, "internal_energy": -1.24, "cluster_size": 32, "cluster_id": 1, "rank_in_cluster": 26}

>  <energy>  (25) 
-7.91

>  <cluster_rmsd>  (25) 
1.66

>  <cluster>  (25) 
1

$$$$

     RDKit          3D

 50 53  0  0  0  0  0  0  0  0999 V2000
  140.8930   71.1310  221.3680 O   0  0  0  0  0  0  0  0  0  0  0  0
  140.3900   71.6900  222.3720 C   0  0  0  0  0  0  0  0  0  0  0  0
  139.9960   73.0370  222.2510 N   0  0  0  0  0  0  0  0  0  0  0  0
  140.1740   73.7180  221.0190 C   0  0  0  0  0  0  0  0  0  0  0  0
  141.0310   74.9220  221.1160 C   0  0  0  0  0  0  0  0  0  0  0  0
  140.9960   75.6480  222.1610 O   0  0  0  0  0  0  0  0  0  0  0  0
  141.8950   75.2670  220.0380 N   0  0  0  0  0  0  0  0  0  0  0  0
  141.4780   75.6290  218.6970 C   0  0  0  0  0  0  0  0  0  0  0  0
  142.6430   76.2220  217.9860 C   0  0  0  0  0  0  0  0  0  0  0  0
  143.6880   76.3090  219.0380 C   0  0  0  0  0  0  0  0  0  0  0  0
  143.3460   75.3190  220.0840 C   0  0  2  0  0  0  0  0  0  0  0  0
  144.0090   73.9860  220.0080 C   0  0  2  0  0  0  0  0  0  0  0  0
  145.1300   73.7810  220.9590 C   0  0  0  0  0  0  0  0  0  0  0  0
  145.9410   72.6950  220.2770 C   0  0  0  0  0  0  0  0  0  0  0  0
  145.9450   73.1990  218.8940 N   0  0  0  0  0  0  0  0  0  0  0  0
  144.5300   73.5570  218.6940 C   0  0  0  0  0  0  0  0  0  0  0  0
  140.2200   70.9600  223.6270 C   0  0  0  0  0  0  0  0  0  0  0  0
  139.5520   69.7430  223.6140 C   0  0  0  0  0  0  0  0  0  0  0  0
  139.3550   69.0000  224.7650 C   0  0  0  0  0  0  0  0  0  0  0  0
  139.8570   69.5170  225.9570 C   0  0  0  0  0  0  0  0  0  0  0  0
  139.6710   68.7890  227.1180 C   0  0  0  0  0  0  0  0  0  0  0  0
  140.1650   69.2870  228.3270 C   0  0  0  0  0  0  0  0  0  0  0  0
  139.9650   68.5510  229.4410 F   0  0  0  0  0  0  0  0  0  0  0  0
  140.8310   70.5020  228.3320 C   0  0  0  0  0  0  0  0  0  0  0  0
  141.0130   71.2290  227.1590 C   0  0  0  0  0  0  0  0  0  0  0  0
  140.5280   70.7420  225.9610 C   0  0  0  0  0  0  0  0  0  0  0  0
  140.6960   71.4350  224.8050 N   0  0  0  0  0  0  0  0  0  0  0  0
  139.5720   73.4930  223.1130 H   0  0  0  0  0  0  0  0  0  0  0  0
  140.6345   73.0222  220.3023 H   0  0  0  0  0  0  0  0  0  0  0  0
  139.1793   74.0598  220.6970 H   0  0  0  0  0  0  0  0  0  0  0  0
  141.1326   74.7328  218.1609 H   0  0  0  0  0  0  0  0  0  0  0  0
  140.6530   76.3552  218.7412 H   0  0  0  0  0  0  0  0  0  0  0  0
  142.9705   75.5735  217.1600 H   0  0  0  0  0  0  0  0  0  0  0  0
  142.4141   77.1964  217.5298 H   0  0  0  0  0  0  0  0  0  0  0  0
  144.6739   76.0772  218.6088 H   0  0  0  0  0  0  0  0  0  0  0  0
  143.7294   77.3233  219.4616 H   0  0  0  0  0  0  0  0  0  0  0  0
  143.7444   75.6411  221.0574 H   0  0  0  0  0  0  0  0  0  0  0  0
  143.1344   73.3719  220.2689 H   0  0  0  0  0  0  0  0  0  0  0  0
  145.7206   74.7008  221.0822 H   0  0  0  0  0  0  0  0  0  0  0  0
  144.8019   73.5127  221.9741 H   0  0  0  0  0  0  0  0  0  0  0  0
  146.9588   72.6280  220.6887 H   0  0  0  0  0  0  0  0  0  0  0  0
  145.5395   71.6777  220.3951 H   0  0  0  0  0  0  0  0  0  0  0  0
  146.5060   74.0910  218.8780 H   0  0  0  0  0  0  0  0  0  0  0  0
  144.4462   74.3781  217.9669 H   0  0  0  0  0  0  0  0  0  0  0  0
  143.9581   72.7029  218.3021 H   0  0  0  0  0  0  0  0  0  0  0  0
  139.1671   69.3570  222.6586 H   0  0  0  0  0  0  0  0  0  0  0  0
  138.8223   68.0379  224.7394 H   0  0  0  0  0  0  0  0  0  0  0  0
  139.1390   67.8266  227.0903 H   0  0  0  0  0  0  0  0  0  0  0  0
  141.2229   70.8992  229.2799 H   0  0  0  0  0  0  0  0  0  0  0  0
  141.5436   72.1922  227.1862 H   0  0  0  0  0  0  0  0  0  0  0  0
  1  2  2  0
  2  3  1  0
  3  4  1  0
  4  5  1  0
  5  6  2  0
  5  7  1  0
  7  8  1  0
  8  9  1  0
  9 10  1  0
 10 11  1  0
 11 12  1  0
 12 13  1  0
 13 14  1  0
 14 15  1  0
 15 16  1  0
  2 17  1  0
 17 18  2  0
 18 19  1  0
 19 20  2  0
 20 21  1  0
 21 22  2  0
 22 23  1  0
 22 24  1  0
 24 25  2  0
 25 26  1  0
 26 27  2  0
 11  7  1  0
 16 12  1  0
 27 17  1  0
 26 20  1  0
  3 28  1  0
  4 29  1  0
  4 30  1  0
  8 31  1  0
  8 32  1  0
  9 33  1  0
  9 34  1  0
 10 35  1  0
 10 36  1  0
 11 37  1  1
 12 38  1  1
 13 39  1  0
 13 40  1  0
 14 41  1  0
 14 42  1  0
 15 43  1  0
 16 44  1  0
 16 45  1  0
 18 46  1  0
 19 47  1  0
 21 48  1  0
 24 49  1  0
 25 50  1  0
M  END
>  <smiles>  (26) 
O=C(NCC(=O)N1CCCC1C1CCNC1)c1ccc2cc(F)ccc2n1

>  <score_type>  (26) 
oracle

>  <origin>  (26) 
autodockgpu

>  <m_score__min__energy>  (26) 
-8.9199999999999999

>  <m_primary>  (26) 
energy

>  <rmsd>  (26) 
2.0117168357683957

>  <m_score__min__rmsd>  (26) 
2.0117168357683957

>  <meeko>  (26) 
{"free_energy": -8.8, "intermolecular_energy": -10.29, "internal_energy": -1.33, "cluster_size": 32, "cluster_id": 1, "rank_in_cluster": 10}

>  <energy>  (26) 
-7.91

>  <cluster_rmsd>  (26) 
1.11

>  <cluster>  (26) 
1

$$$$

     RDKit          3D

 50 53  0  0  0  0  0  0  0  0999 V2000
  142.5280   78.6910  217.0380 O   0  0  0  0  0  0  0  0  0  0  0  0
  142.6880   78.1640  218.1650 C   0  0  0  0  0  0  0  0  0  0  0  0
  142.3810   78.9330  219.3040 N   0  0  0  0  0  0  0  0  0  0  0  0
  141.9070   80.2620  219.1540 C   0  0  0  0  0  0  0  0  0  0  0  0
  141.0920   80.7420  220.2940 C   0  0  0  0  0  0  0  0  0  0  0  0
  140.1560   81.5830  220.1000 O   0  0  0  0  0  0  0  0  0  0  0  0
  141.3570   80.2610  221.6080 N   0  0  0  0  0  0  0  0  0  0  0  0
  142.6250   80.3470  222.3040 C   0  0  0  0  0  0  0  0  0  0  0  0
  142.3960   80.0330  223.7410 C   0  0  0  0  0  0  0  0  0  0  0  0
  140.9190   79.9110  223.8410 C   0  0  0  0  0  0  0  0  0  0  0  0
  140.4080   79.6000  222.4870 C   0  0  2  0  0  0  0  0  0  0  0  0
  140.1660   78.1660  222.1600 C   0  0  2  0  0  0  0  0  0  0  0  0
  141.0420   77.1990  222.8650 C   0  0  0  0  0  0  0  0  0  0  0  0
  141.0090   75.9950  221.9420 C   0  0  0  0  0  0  0  0  0  0  0  0
  141.1770   76.6590  220.6380 N   0  0  0  0  0  0  0  0  0  0  0  0
  140.2190   77.7740  220.7360 C   0  0  0  0  0  0  0  0  0  0  0  0
  143.1770   76.7920  218.2860 C   0  0  0  0  0  0  0  0  0  0  0  0
  143.1850   75.9770  217.1620 C   0  0  0  0  0  0  0  0  0  0  0  0
  143.6340   74.6690  217.2050 C   0  0  0  0  0  0  0  0  0  0  0  0
  144.0870   74.1850  218.4300 C   0  0  0  0  0  0  0  0  0  0  0  0
  144.5400   72.8800  218.4940 C   0  0  0  0  0  0  0  0  0  0  0  0
  145.0000   72.3720  219.7130 C   0  0  0  0  0  0  0  0  0  0  0  0
  145.4350   71.0940  219.7380 F   0  0  0  0  0  0  0  0  0  0  0  0
  144.9890   73.1910  220.8300 C   0  0  0  0  0  0  0  0  0  0  0  0
  144.5310   74.5030  220.7570 C   0  0  0  0  0  0  0  0  0  0  0  0
  144.0760   75.0120  219.5560 C   0  0  0  0  0  0  0  0  0  0  0  0
  143.6250   76.2890  219.4640 N   0  0  0  0  0  0  0  0  0  0  0  0
  142.5220   78.4680  220.2500 H   0  0  0  0  0  0  0  0  0  0  0  0
  142.7750   80.9287  219.0441 H   0  0  0  0  0  0  0  0  0  0  0  0
  141.2533   80.2694  218.2693 H   0  0  0  0  0  0  0  0  0  0  0  0
  143.3341   79.6240  221.8744 H   0  0  0  0  0  0  0  0  0  0  0  0
  143.0442   81.3588  222.2009 H   0  0  0  0  0  0  0  0  0  0  0  0
  142.8878   79.0894  224.0200 H   0  0  0  0  0  0  0  0  0  0  0  0
  142.8084   80.7971  224.4164 H   0  0  0  0  0  0  0  0  0  0  0  0
  140.6549   79.1017  224.5376 H   0  0  0  0  0  0  0  0  0  0  0  0
  140.4767   80.8449  224.2181 H   0  0  0  0  0  0  0  0  0  0  0  0
  139.3767   79.9662  222.3757 H   0  0  0  0  0  0  0  0  0  0  0  0
  139.1263   78.1070  222.5142 H   0  0  0  0  0  0  0  0  0  0  0  0
  142.0641   77.5916  222.9703 H   0  0  0  0  0  0  0  0  0  0  0  0
  140.7131   76.9753  223.8906 H   0  0  0  0  0  0  0  0  0  0  0  0
  141.8332   75.2977  222.1529 H   0  0  0  0  0  0  0  0  0  0  0  0
  140.1063   75.3725  222.0290 H   0  0  0  0  0  0  0  0  0  0  0  0
  142.1470   77.0710  220.6090 H   0  0  0  0  0  0  0  0  0  0  0  0
  140.5594   78.6210  220.1222 H   0  0  0  0  0  0  0  0  0  0  0  0
  139.2254   77.4745  220.3713 H   0  0  0  0  0  0  0  0  0  0  0  0
  142.8227   76.3843  216.2066 H   0  0  0  0  0  0  0  0  0  0  0  0
  143.6333   74.0353  216.3058 H   0  0  0  0  0  0  0  0  0  0  0  0
  144.5385   72.2473  217.5942 H   0  0  0  0  0  0  0  0  0  0  0  0
  145.3488   72.7972  221.7920 H   0  0  0  0  0  0  0  0  0  0  0  0
  144.5313   75.1357  221.6568 H   0  0  0  0  0  0  0  0  0  0  0  0
  1  2  2  0
  2  3  1  0
  3  4  1  0
  4  5  1  0
  5  6  2  0
  5  7  1  0
  7  8  1  0
  8  9  1  0
  9 10  1  0
 10 11  1  0
 11 12  1  0
 12 13  1  0
 13 14  1  0
 14 15  1  0
 15 16  1  0
  2 17  1  0
 17 18  2  0
 18 19  1  0
 19 20  2  0
 20 21  1  0
 21 22  2  0
 22 23  1  0
 22 24  1  0
 24 25  2  0
 25 26  1  0
 26 27  2  0
 11  7  1  0
 16 12  1  0
 27 17  1  0
 26 20  1  0
  3 28  1  0
  4 29  1  0
  4 30  1  0
  8 31  1  0
  8 32  1  0
  9 33  1  0
  9 34  1  0
 10 35  1  0
 10 36  1  0
 11 37  1  1
 12 38  1  1
 13 39  1  0
 13 40  1  0
 14 41  1  0
 14 42  1  0
 15 43  1  0
 16 44  1  0
 16 45  1  0
 18 46  1  0
 19 47  1  0
 21 48  1  0
 24 49  1  0
 25 50  1  0
M  END
>  <smiles>  (27) 
O=C(NCC(=O)N1CCCC1C1CCNC1)c1ccc2cc(F)ccc2n1

>  <score_type>  (27) 
oracle

>  <origin>  (27) 
autodockgpu

>  <m_score__min__energy>  (27) 
-8.9199999999999999

>  <m_primary>  (27) 
energy

>  <rmsd>  (27) 
8.272205638531528

>  <m_score__min__rmsd>  (27) 
8.272205638531528

>  <meeko>  (27) 
{"free_energy": -5.8, "intermolecular_energy": -7.29, "internal_energy": -3.04, "cluster_size": 1, "cluster_id": 5, "rank_in_cluster": 1}

>  <energy>  (27) 
-7.86

>  <cluster_rmsd>  (27) 
1.67

>  <cluster>  (27) 
1

$$$$

     RDKit          3D

 50 53  0  0  0  0  0  0  0  0999 V2000
  138.2320   71.7680  222.2020 O   0  0  0  0  0  0  0  0  0  0  0  0
  139.3540   71.6600  222.7520 C   0  0  0  0  0  0  0  0  0  0  0  0
  140.4260   72.4000  222.2160 N   0  0  0  0  0  0  0  0  0  0  0  0
  140.2160   73.2350  221.0880 C   0  0  0  0  0  0  0  0  0  0  0  0
  140.9600   74.5140  221.1400 C   0  0  0  0  0  0  0  0  0  0  0  0
  140.8500   75.2750  222.1550 O   0  0  0  0  0  0  0  0  0  0  0  0
  141.7980   74.8930  220.0530 N   0  0  0  0  0  0  0  0  0  0  0  0
  141.3600   75.1670  218.6980 C   0  0  0  0  0  0  0  0  0  0  0  0
  142.4740   75.8330  217.9700 C   0  0  0  0  0  0  0  0  0  0  0  0
  143.5000   76.0500  219.0220 C   0  0  0  0  0  0  0  0  0  0  0  0
  143.2390   75.0730  220.1030 C   0  0  2  0  0  0  0  0  0  0  0  0
  144.0160   73.8020  220.0800 C   0  0  2  0  0  0  0  0  0  0  0  0
  145.1980   73.7650  220.9780 C   0  0  0  0  0  0  0  0  0  0  0  0
  146.0690   72.7080  220.3260 C   0  0  0  0  0  0  0  0  0  0  0  0
  145.9570   73.1090  218.9130 N   0  0  0  0  0  0  0  0  0  0  0  0
  144.5070   73.3260  218.7700 C   0  0  0  0  0  0  0  0  0  0  0  0
  139.5370   70.7930  223.9140 C   0  0  0  0  0  0  0  0  0  0  0  0
  139.0640   69.4890  223.8630 C   0  0  0  0  0  0  0  0  0  0  0  0
  139.2030   68.6140  224.9260 C   0  0  0  0  0  0  0  0  0  0  0  0
  139.8460   69.0880  226.0680 C   0  0  0  0  0  0  0  0  0  0  0  0
  139.9950   68.2290  227.1420 C   0  0  0  0  0  0  0  0  0  0  0  0
  140.6360   68.6820  228.2990 C   0  0  0  0  0  0  0  0  0  0  0  0
  140.7640   67.8170  229.3270 F   0  0  0  0  0  0  0  0  0  0  0  0
  141.1060   69.9850  228.3420 C   0  0  0  0  0  0  0  0  0  0  0  0
  140.9500   70.8420  227.2570 C   0  0  0  0  0  0  0  0  0  0  0  0
  140.3190   70.4010  226.1110 C   0  0  0  0  0  0  0  0  0  0  0  0
  140.1570   71.2230  225.0410 N   0  0  0  0  0  0  0  0  0  0  0  0
  141.3690   72.2960  222.6960 H   0  0  0  0  0  0  0  0  0  0  0  0
  140.5322   72.6870  220.1881 H   0  0  0  0  0  0  0  0  0  0  0  0
  139.1458   73.4891  221.0744 H   0  0  0  0  0  0  0  0  0  0  0  0
  141.0980   74.2247  218.1945 H   0  0  0  0  0  0  0  0  0  0  0  0
  140.4742   75.8190  218.7117 H   0  0  0  0  0  0  0  0  0  0  0  0
  142.8627   75.1856  217.1702 H   0  0  0  0  0  0  0  0  0  0  0  0
  142.1641   76.7662  217.4769 H   0  0  0  0  0  0  0  0  0  0  0  0
  144.5054   75.8901  218.6053 H   0  0  0  0  0  0  0  0  0  0  0  0
  143.4492   77.0789  219.4078 H   0  0  0  0  0  0  0  0  0  0  0  0
  143.6014   75.4639  221.0652 H   0  0  0  0  0  0  0  0  0  0  0  0
  143.2155   73.1343  220.4313 H   0  0  0  0  0  0  0  0  0  0  0  0
  145.7077   74.7394  221.0053 H   0  0  0  0  0  0  0  0  0  0  0  0
  144.9473   73.5430  222.0258 H   0  0  0  0  0  0  0  0  0  0  0  0
  147.1082   72.7604  220.6827 H   0  0  0  0  0  0  0  0  0  0  0  0
  145.7685   71.6707  220.5353 H   0  0  0  0  0  0  0  0  0  0  0  0
  146.4330   74.0430  218.8050 H   0  0  0  0  0  0  0  0  0  0  0  0
  144.3117   74.0817  217.9949 H   0  0  0  0  0  0  0  0  0  0  0  0
  143.9966   72.3989  218.4700 H   0  0  0  0  0  0  0  0  0  0  0  0
  138.5626   69.1400  222.9483 H   0  0  0  0  0  0  0  0  0  0  0  0
  138.8207   67.5840  224.8717 H   0  0  0  0  0  0  0  0  0  0  0  0
  139.6127   67.1991  227.0863 H   0  0  0  0  0  0  0  0  0  0  0  0
  141.6110   70.3479  229.2493 H   0  0  0  0  0  0  0  0  0  0  0  0
  141.3301   71.8728  227.3124 H   0  0  0  0  0  0  0  0  0  0  0  0
  1  2  2  0
  2  3  1  0
  3  4  1  0
  4  5  1  0
  5  6  2  0
  5  7  1  0
  7  8  1  0
  8  9  1  0
  9 10  1  0
 10 11  1  0
 11 12  1  0
 12 13  1  0
 13 14  1  0
 14 15  1  0
 15 16  1  0
  2 17  1  0
 17 18  2  0
 18 19  1  0
 19 20  2  0
 20 21  1  0
 21 22  2  0
 22 23  1  0
 22 24  1  0
 24 25  2  0
 25 26  1  0
 26 27  2  0
 11  7  1  0
 16 12  1  0
 27 17  1  0
 26 20  1  0
  3 28  1  0
  4 29  1  0
  4 30  1  0
  8 31  1  0
  8 32  1  0
  9 33  1  0
  9 34  1  0
 10 35  1  0
 10 36  1  0
 11 37  1  1
 12 38  1  1
 13 39  1  0
 13 40  1  0
 14 41  1  0
 14 42  1  0
 15 43  1  0
 16 44  1  0
 16 45  1  0
 18 46  1  0
 19 47  1  0
 21 48  1  0
 24 49  1  0
 25 50  1  0
M  END
>  <smiles>  (28) 
O=C(NCC(=O)N1CCCC1C1CCNC1)c1ccc2cc(F)ccc2n1

>  <score_type>  (28) 
oracle

>  <origin>  (28) 
autodockgpu

>  <m_score__min__energy>  (28) 
-8.9199999999999999

>  <m_primary>  (28) 
energy

>  <rmsd>  (28) 
2.0014119658773306

>  <m_score__min__rmsd>  (28) 
2.0014119658773306

>  <meeko>  (28) 
{"free_energy": -8.54, "intermolecular_energy": -10.03, "internal_energy": -1.14, "cluster_size": 32, "cluster_id": 1, "rank_in_cluster": 16}

>  <energy>  (28) 
-7.72

>  <cluster_rmsd>  (28) 
1.81

>  <cluster>  (28) 
1

$$$$

     RDKit          3D

 50 53  0  0  0  0  0  0  0  0999 V2000
  139.1030   71.5680  221.3950 O   0  0  0  0  0  0  0  0  0  0  0  0
  139.7890   71.8850  222.3960 C   0  0  0  0  0  0  0  0  0  0  0  0
  140.5180   73.0890  222.3430 N   0  0  0  0  0  0  0  0  0  0  0  0
  140.4620   73.9000  221.1800 C   0  0  0  0  0  0  0  0  0  0  0  0
  140.5320   75.3530  221.4570 C   0  0  0  0  0  0  0  0  0  0  0  0
  139.9640   75.8330  222.4900 O   0  0  0  0  0  0  0  0  0  0  0  0
  141.2340   76.2130  220.5660 N   0  0  0  0  0  0  0  0  0  0  0  0
  142.5830   76.0110  220.0770 C   0  0  0  0  0  0  0  0  0  0  0  0
  142.8160   76.9390  218.9380 C   0  0  0  0  0  0  0  0  0  0  0  0
  141.4860   77.5650  218.7190 C   0  0  0  0  0  0  0  0  0  0  0  0
  140.7280   77.4450  219.9850 C   0  0  2  0  0  0  0  0  0  0  0  0
  140.7500   78.6130  220.9100 C   0  0  2  0  0  0  0  0  0  0  0  0
  141.9040   78.6590  221.8430 C   0  0  0  0  0  0  0  0  0  0  0  0
  141.3710   79.5130  222.9780 C   0  0  0  0  0  0  0  0  0  0  0  0
  140.0330   78.9230  223.1460 N   0  0  0  0  0  0  0  0  0  0  0  0
  139.5580   78.8380  221.7540 C   0  0  0  0  0  0  0  0  0  0  0  0
  139.8250   71.0280  223.5790 C   0  0  0  0  0  0  0  0  0  0  0  0
  139.2300   69.7750  223.5240 C   0  0  0  0  0  0  0  0  0  0  0  0
  139.2270   68.9130  224.6060 C   0  0  0  0  0  0  0  0  0  0  0  0
  139.8510   69.3470  225.7740 C   0  0  0  0  0  0  0  0  0  0  0  0
  139.8590   68.5000  226.8670 C   0  0  0  0  0  0  0  0  0  0  0  0
  140.4780   68.9130  228.0510 C   0  0  0  0  0  0  0  0  0  0  0  0
  140.4670   68.0610  229.0980 F   0  0  0  0  0  0  0  0  0  0  0  0
  141.0700   70.1650  228.0990 C   0  0  0  0  0  0  0  0  0  0  0  0
  141.0570   71.0110  226.9940 C   0  0  0  0  0  0  0  0  0  0  0  0
  140.4470   70.6090  225.8220 C   0  0  0  0  0  0  0  0  0  0  0  0
  140.4230   71.4190  224.7320 N   0  0  0  0  0  0  0  0  0  0  0  0
  141.0920   73.3410  223.2020 H   0  0  0  0  0  0  0  0  0  0  0  0
  141.3068   73.6306  220.5290 H   0  0  0  0  0  0  0  0  0  0  0  0
  139.4870   73.7121  220.7067 H   0  0  0  0  0  0  0  0  0  0  0  0
  143.3043   76.2212  220.8804 H   0  0  0  0  0  0  0  0  0  0  0  0
  142.7124   74.9696  219.7472 H   0  0  0  0  0  0  0  0  0  0  0  0
  143.5691   77.6976  219.1973 H   0  0  0  0  0  0  0  0  0  0  0  0
  143.2006   76.4285  218.0427 H   0  0  0  0  0  0  0  0  0  0  0  0
  141.6084   78.6253  218.4528 H   0  0  0  0  0  0  0  0  0  0  0  0
  140.9518   77.0661  217.8970 H   0  0  0  0  0  0  0  0  0  0  0  0
  139.6474   77.4239  219.7806 H   0  0  0  0  0  0  0  0  0  0  0  0
  140.8081   79.4040  220.1478 H   0  0  0  0  0  0  0  0  0  0  0  0
  142.1719   77.6517  222.1947 H   0  0  0  0  0  0  0  0  0  0  0  0
  142.8224   79.0572  221.3870 H   0  0  0  0  0  0  0  0  0  0  0  0
  141.9798   79.4065  223.8879 H   0  0  0  0  0  0  0  0  0  0  0  0
  141.3753   80.5952  222.7808 H   0  0  0  0  0  0  0  0  0  0  0  0
  140.1570   77.9390  223.5030 H   0  0  0  0  0  0  0  0  0  0  0  0
  138.8530   78.0008  221.6448 H   0  0  0  0  0  0  0  0  0  0  0  0
  139.0330   79.7584  221.4588 H   0  0  0  0  0  0  0  0  0  0  0  0
  138.7449   69.4571  222.5893 H   0  0  0  0  0  0  0  0  0  0  0  0
  138.7505   67.9233  224.5467 H   0  0  0  0  0  0  0  0  0  0  0  0
  139.3828   67.5103  226.8057 H   0  0  0  0  0  0  0  0  0  0  0  0
  141.5590   70.4961  229.0271 H   0  0  0  0  0  0  0  0  0  0  0  0
  141.5331   72.0008  227.0542 H   0  0  0  0  0  0  0  0  0  0  0  0
  1  2  2  0
  2  3  1  0
  3  4  1  0
  4  5  1  0
  5  6  2  0
  5  7  1  0
  7  8  1  0
  8  9  1  0
  9 10  1  0
 10 11  1  0
 11 12  1  0
 12 13  1  0
 13 14  1  0
 14 15  1  0
 15 16  1  0
  2 17  1  0
 17 18  2  0
 18 19  1  0
 19 20  2  0
 20 21  1  0
 21 22  2  0
 22 23  1  0
 22 24  1  0
 24 25  2  0
 25 26  1  0
 26 27  2  0
 11  7  1  0
 16 12  1  0
 27 17  1  0
 26 20  1  0
  3 28  1  0
  4 29  1  0
  4 30  1  0
  8 31  1  0
  8 32  1  0
  9 33  1  0
  9 34  1  0
 10 35  1  0
 10 36  1  0
 11 37  1  6
 12 38  1  6
 13 39  1  0
 13 40  1  0
 14 41  1  0
 14 42  1  0
 15 43  1  0
 16 44  1  0
 16 45  1  0
 18 46  1  0
 19 47  1  0
 21 48  1  0
 24 49  1  0
 25 50  1  0
M  END
>  <smiles>  (29) 
O=C(NCC(=O)N1CCCC1C1CCNC1)c1ccc2cc(F)ccc2n1

>  <score_type>  (29) 
oracle

>  <origin>  (29) 
autodockgpu

>  <m_score__min__energy>  (29) 
-8.9199999999999999

>  <m_primary>  (29) 
energy

>  <rmsd>  (29) 
1.9913720454129575

>  <m_score__min__rmsd>  (29) 
1.9913720454129575

>  <meeko>  (29) 
{"free_energy": -6.89, "intermolecular_energy": -8.38, "internal_energy": -1.86, "cluster_size": 15, "cluster_id": 2, "rank_in_cluster": 15}

>  <energy>  (29) 
-7.33

>  <cluster_rmsd>  (29) 
1.13

>  <cluster>  (29) 
1

$$$$

     RDKit          3D

 50 53  0  0  0  0  0  0  0  0999 V2000
  141.1380   73.4830  220.5720 O   0  0  0  0  0  0  0  0  0  0  0  0
  140.5520   74.2870  221.3340 C   0  0  0  0  0  0  0  0  0  0  0  0
  139.4980   73.7960  222.1290 N   0  0  0  0  0  0  0  0  0  0  0  0
  139.1300   72.4270  222.0500 C   0  0  0  0  0  0  0  0  0  0  0  0
  139.9410   71.5370  222.9120 C   0  0  0  0  0  0  0  0  0  0  0  0
  141.2110   71.5420  222.8190 O   0  0  0  0  0  0  0  0  0  0  0  0
  139.2990   70.6730  223.8440 N   0  0  0  0  0  0  0  0  0  0  0  0
  137.8980   70.7160  224.2160 C   0  0  0  0  0  0  0  0  0  0  0  0
  137.5680   69.4640  224.9500 C   0  0  0  0  0  0  0  0  0  0  0  0
  138.8110   68.6580  224.8430 C   0  0  0  0  0  0  0  0  0  0  0  0
  139.9270   69.5960  224.5890 C   0  0  2  0  0  0  0  0  0  0  0  0
  140.7230   70.0480  225.7660 C   0  0  2  0  0  0  0  0  0  0  0  0
  140.1360   69.7240  227.0900 C   0  0  0  0  0  0  0  0  0  0  0  0
  140.7700   70.7680  227.9910 C   0  0  0  0  0  0  0  0  0  0  0  0
  140.6210   71.9670  227.1500 N   0  0  0  0  0  0  0  0  0  0  0  0
  141.0800   71.4810  225.8380 C   0  0  0  0  0  0  0  0  0  0  0  0
  140.9550   75.6900  221.3930 C   0  0  0  0  0  0  0  0  0  0  0  0
  141.7630   76.2030  220.3880 C   0  0  0  0  0  0  0  0  0  0  0  0
  142.1830   77.5220  220.3810 C   0  0  0  0  0  0  0  0  0  0  0  0
  141.7610   78.3350  221.4310 C   0  0  0  0  0  0  0  0  0  0  0  0
  142.1690   79.6560  221.4430 C   0  0  0  0  0  0  0  0  0  0  0  0
  141.7590   80.4920  222.4860 C   0  0  0  0  0  0  0  0  0  0  0  0
  142.1760   81.7760  222.4660 F   0  0  0  0  0  0  0  0  0  0  0  0
  140.9530   79.9740  223.4860 C   0  0  0  0  0  0  0  0  0  0  0  0
  140.5470   78.6420  223.4670 C   0  0  0  0  0  0  0  0  0  0  0  0
  140.9480   77.8110  222.4390 C   0  0  0  0  0  0  0  0  0  0  0  0
  140.5630   76.5090  222.4010 N   0  0  0  0  0  0  0  0  0  0  0  0
  139.0140   74.4930  222.7700 H   0  0  0  0  0  0  0  0  0  0  0  0
  138.0759   72.3338  222.3505 H   0  0  0  0  0  0  0  0  0  0  0  0
  139.3027   72.1094  221.0111 H   0  0  0  0  0  0  0  0  0  0  0  0
  137.7120   71.5859  224.8630 H   0  0  0  0  0  0  0  0  0  0  0  0
  137.2707   70.8033  223.3166 H   0  0  0  0  0  0  0  0  0  0  0  0
  137.3276   69.6773  226.0020 H   0  0  0  0  0  0  0  0  0  0  0  0
  136.6874   68.9478  224.5400 H   0  0  0  0  0  0  0  0  0  0  0  0
  138.9860   68.1108  225.7811 H   0  0  0  0  0  0  0  0  0  0  0  0
  138.7283   67.9235  224.0283 H   0  0  0  0  0  0  0  0  0  0  0  0
  140.7320   69.0894  224.0364 H   0  0  0  0  0  0  0  0  0  0  0  0
  141.6296   69.4579  225.5664 H   0  0  0  0  0  0  0  0  0  0  0  0
  139.0406   69.8235  227.0749 H   0  0  0  0  0  0  0  0  0  0  0  0
  140.3254   68.6900  227.4139 H   0  0  0  0  0  0  0  0  0  0  0  0
  140.2271   70.8682  228.9424 H   0  0  0  0  0  0  0  0  0  0  0  0
  141.8029   70.5458  228.2971 H   0  0  0  0  0  0  0  0  0  0  0  0
  139.5920   72.1790  227.0710 H   0  0  0  0  0  0  0  0  0  0  0  0
  140.5796   72.0372  225.0316 H   0  0  0  0  0  0  0  0  0  0  0  0
  142.1642   71.6246  225.7205 H   0  0  0  0  0  0  0  0  0  0  0  0
  142.0802   75.5395  219.5699 H   0  0  0  0  0  0  0  0  0  0  0  0
  142.8249   77.9131  219.5778 H   0  0  0  0  0  0  0  0  0  0  0  0
  142.8106   80.0458  220.6390 H   0  0  0  0  0  0  0  0  0  0  0  0
  140.6277   80.6262  224.3099 H   0  0  0  0  0  0  0  0  0  0  0  0
  139.9064   78.2513  224.2713 H   0  0  0  0  0  0  0  0  0  0  0  0
  1  2  2  0
  2  3  1  0
  3  4  1  0
  4  5  1  0
  5  6  2  0
  5  7  1  0
  7  8  1  0
  8  9  1  0
  9 10  1  0
 10 11  1  0
 11 12  1  0
 12 13  1  0
 13 14  1  0
 14 15  1  0
 15 16  1  0
  2 17  1  0
 17 18  2  0
 18 19  1  0
 19 20  2  0
 20 21  1  0
 21 22  2  0
 22 23  1  0
 22 24  1  0
 24 25  2  0
 25 26  1  0
 26 27  2  0
 11  7  1  0
 16 12  1  0
 27 17  1  0
 26 20  1  0
  3 28  1  0
  4 29  1  0
  4 30  1  0
  8 31  1  0
  8 32  1  0
  9 33  1  0
  9 34  1  0
 10 35  1  0
 10 36  1  0
 11 37  1  6
 12 38  1  1
 13 39  1  0
 13 40  1  0
 14 41  1  0
 14 42  1  0
 15 43  1  0
 16 44  1  0
 16 45  1  0
 18 46  1  0
 19 47  1  0
 21 48  1  0
 24 49  1  0
 25 50  1  0
M  END
>  <smiles>  (30) 
O=C(NCC(=O)N1CCCC1C1CCNC1)c1ccc2cc(F)ccc2n1

>  <score_type>  (30) 
oracle

>  <origin>  (30) 
autodockgpu

>  <m_score__min__energy>  (30) 
-8.9199999999999999

>  <m_primary>  (30) 
energy

>  <rmsd>  (30) 
8.689913431153098

>  <m_score__min__rmsd>  (30) 
8.689913431153098

>  <meeko>  (30) 
{"free_energy": -7.69, "intermolecular_energy": -9.18, "internal_energy": -1.31, "cluster_size": 1, "cluster_id": 3, "rank_in_cluster": 1}

>  <energy>  (30) 
-7.15

>  <cluster_rmsd>  (30) 
1.23

>  <cluster>  (30) 
1

$$$$

     RDKit          3D

 50 53  0  0  0  0  0  0  0  0999 V2000
  141.3010   72.2830  221.6460 O   0  0  0  0  0  0  0  0  0  0  0  0
  140.4170   72.4890  222.5110 C   0  0  0  0  0  0  0  0  0  0  0  0
  139.5740   73.6040  222.3440 N   0  0  0  0  0  0  0  0  0  0  0  0
  139.7410   74.4550  221.2210 C   0  0  0  0  0  0  0  0  0  0  0  0
  139.7740   75.8970  221.5580 C   0  0  0  0  0  0  0  0  0  0  0  0
  138.9940   76.3600  222.4510 O   0  0  0  0  0  0  0  0  0  0  0  0
  140.6770   76.7640  220.8820 N   0  0  0  0  0  0  0  0  0  0  0  0
  141.9410   76.3770  220.2850 C   0  0  0  0  0  0  0  0  0  0  0  0
  142.4090   77.4880  219.4130 C   0  0  0  0  0  0  0  0  0  0  0  0
  141.2790   78.4520  219.4360 C   0  0  0  0  0  0  0  0  0  0  0  0
  140.5000   78.1910  220.6670 C   0  0  2  0  0  0  0  0  0  0  0  0
  140.8000   79.0320  221.8600 C   0  0  2  0  0  0  0  0  0  0  0  0
  141.7460   80.1510  221.6240 C   0  0  0  0  0  0  0  0  0  0  0  0
  142.3050   80.4040  223.0110 C   0  0  0  0  0  0  0  0  0  0  0  0
  142.5560   79.0210  223.4490 N   0  0  0  0  0  0  0  0  0  0  0  0
  141.3040   78.3460  223.0680 C   0  0  0  0  0  0  0  0  0  0  0  0
  140.2690   71.5920  223.6560 C   0  0  0  0  0  0  0  0  0  0  0  0
  139.6360   70.3700  223.4790 C   0  0  0  0  0  0  0  0  0  0  0  0
  139.4620   69.4730  224.5190 C   0  0  0  0  0  0  0  0  0  0  0  0
  139.9510   69.8400  225.7710 C   0  0  0  0  0  0  0  0  0  0  0  0
  139.7880   68.9580  226.8240 C   0  0  0  0  0  0  0  0  0  0  0  0
  140.2700   69.3030  228.0900 C   0  0  0  0  0  0  0  0  0  0  0  0
  140.0930   68.4190  229.0940 F   0  0  0  0  0  0  0  0  0  0  0  0
  140.9010   70.5250  228.2590 C   0  0  0  0  0  0  0  0  0  0  0  0
  141.0610   71.4070  227.1940 C   0  0  0  0  0  0  0  0  0  0  0  0
  140.5870   71.0720  225.9410 C   0  0  0  0  0  0  0  0  0  0  0  0
  140.7340   71.9180  224.8890 N   0  0  0  0  0  0  0  0  0  0  0  0
  138.8300   73.7610  223.0870 H   0  0  0  0  0  0  0  0  0  0  0  0
  140.6882   74.1935  220.7265 H   0  0  0  0  0  0  0  0  0  0  0  0
  138.8672   74.2998  220.5711 H   0  0  0  0  0  0  0  0  0  0  0  0
  142.6824   76.1876  221.0752 H   0  0  0  0  0  0  0  0  0  0  0  0
  141.8133   75.4595  219.6918 H   0  0  0  0  0  0  0  0  0  0  0  0
  143.3237   77.9458  219.8176 H   0  0  0  0  0  0  0  0  0  0  0  0
  142.6645   77.1541  218.3965 H   0  0  0  0  0  0  0  0  0  0  0  0
  141.6639   79.4824  219.4460 H   0  0  0  0  0  0  0  0  0  0  0  0
  140.6473   78.3315  218.5436 H   0  0  0  0  0  0  0  0  0  0  0  0
  139.4508   78.4884  220.5229 H   0  0  0  0  0  0  0  0  0  0  0  0
  139.7780   79.3932  222.0470 H   0  0  0  0  0  0  0  0  0  0  0  0
  142.5408   79.8586  220.9220 H   0  0  0  0  0  0  0  0  0  0  0  0
  141.2750   81.0364  221.1721 H   0  0  0  0  0  0  0  0  0  0  0  0
  143.2325   80.9942  222.9747 H   0  0  0  0  0  0  0  0  0  0  0  0
  141.6470   80.9850  223.6740 H   0  0  0  0  0  0  0  0  0  0  0  0
  143.3270   78.6280  222.8490 H   0  0  0  0  0  0  0  0  0  0  0  0
  141.4971   77.2855  222.8486 H   0  0  0  0  0  0  0  0  0  0  0  0
  140.5673   78.3906  223.8837 H   0  0  0  0  0  0  0  0  0  0  0  0
  139.2602   70.1053  222.4797 H   0  0  0  0  0  0  0  0  0  0  0  0
  138.9574   68.5081  224.3630 H   0  0  0  0  0  0  0  0  0  0  0  0
  139.2834   67.9933  226.6665 H   0  0  0  0  0  0  0  0  0  0  0  0
  141.2823   70.8031  229.2526 H   0  0  0  0  0  0  0  0  0  0  0  0
  141.5655   72.3718  227.3507 H   0  0  0  0  0  0  0  0  0  0  0  0
  1  2  2  0
  2  3  1  0
  3  4  1  0
  4  5  1  0
  5  6  2  0
  5  7  1  0
  7  8  1  0
  8  9  1  0
  9 10  1  0
 10 11  1  0
 11 12  1  0
 12 13  1  0
 13 14  1  0
 14 15  1  0
 15 16  1  0
  2 17  1  0
 17 18  2  0
 18 19  1  0
 19 20  2  0
 20 21  1  0
 21 22  2  0
 22 23  1  0
 22 24  1  0
 24 25  2  0
 25 26  1  0
 26 27  2  0
 11  7  1  0
 16 12  1  0
 27 17  1  0
 26 20  1  0
  3 28  1  0
  4 29  1  0
  4 30  1  0
  8 31  1  0
  8 32  1  0
  9 33  1  0
  9 34  1  0
 10 35  1  0
 10 36  1  0
 11 37  1  6
 12 38  1  1
 13 39  1  0
 13 40  1  0
 14 41  1  0
 14 42  1  0
 15 43  1  0
 16 44  1  0
 16 45  1  0
 18 46  1  0
 19 47  1  0
 21 48  1  0
 24 49  1  0
 25 50  1  0
M  END
>  <smiles>  (31) 
O=C(NCC(=O)N1CCCC1C1CCNC1)c1ccc2cc(F)ccc2n1

>  <score_type>  (31) 
oracle

>  <origin>  (31) 
autodockgpu

>  <m_score__min__energy>  (31) 
-8.9199999999999999

>  <m_primary>  (31) 
energy

>  <rmsd>  (31) 
2.1018953096502186

>  <m_score__min__rmsd>  (31) 
2.1018953096502186

>  <meeko>  (31) 
{"free_energy": -8.55, "intermolecular_energy": -10.04, "internal_energy": -1.26, "cluster_size": 15, "cluster_id": 2, "rank_in_cluster": 2}

>  <energy>  (31) 
-6.97

>  <cluster_rmsd>  (31) 
1.81

>  <cluster>  (31) 
1

$$$$

     RDKit          3D

 50 53  0  0  0  0  0  0  0  0999 V2000
  135.9610   77.3480  223.1960 O   0  0  0  0  0  0  0  0  0  0  0  0
  136.2510   76.1530  223.4430 C   0  0  0  0  0  0  0  0  0  0  0  0
  137.4390   75.6330  222.8940 N   0  0  0  0  0  0  0  0  0  0  0  0
  138.2660   76.4580  222.0870 C   0  0  0  0  0  0  0  0  0  0  0  0
  139.6060   75.8870  221.8190 C   0  0  0  0  0  0  0  0  0  0  0  0
  139.9090   74.7350  222.2670 O   0  0  0  0  0  0  0  0  0  0  0  0
  140.5540   76.6290  221.0600 N   0  0  0  0  0  0  0  0  0  0  0  0
  141.7980   76.1170  220.5200 C   0  0  0  0  0  0  0  0  0  0  0  0
  142.3250   77.1010  219.5360 C   0  0  0  0  0  0  0  0  0  0  0  0
  141.2450   78.1170  219.4450 C   0  0  0  0  0  0  0  0  0  0  0  0
  140.4500   78.0310  220.6900 C   0  0  2  0  0  0  0  0  0  0  0  0
  140.7900   78.9800  221.7880 C   0  0  2  0  0  0  0  0  0  0  0  0
  141.7400   80.0600  221.4200 C   0  0  0  0  0  0  0  0  0  0  0  0
  142.3370   80.4400  222.7620 C   0  0  0  0  0  0  0  0  0  0  0  0
  142.5860   79.1030  223.3260 N   0  0  0  0  0  0  0  0  0  0  0  0
  141.3170   78.4100  223.0450 C   0  0  0  0  0  0  0  0  0  0  0  0
  135.3790   75.3300  224.2790 C   0  0  0  0  0  0  0  0  0  0  0  0
  135.4220   73.9490  224.1430 C   0  0  0  0  0  0  0  0  0  0  0  0
  134.6250   73.1100  224.9020 C   0  0  0  0  0  0  0  0  0  0  0  0
  133.7630   73.7020  225.8220 C   0  0  0  0  0  0  0  0  0  0  0  0
  132.9580   72.8810  226.5900 C   0  0  0  0  0  0  0  0  0  0  0  0
  132.0840   73.4510  227.5210 C   0  0  0  0  0  0  0  0  0  0  0  0
  131.3130   72.6200  228.2530 F   0  0  0  0  0  0  0  0  0  0  0  0
  132.0470   74.8300  227.6510 C   0  0  0  0  0  0  0  0  0  0  0  0
  132.8610   75.6490  226.8740 C   0  0  0  0  0  0  0  0  0  0  0  0
  133.7260   75.0920  225.9530 C   0  0  0  0  0  0  0  0  0  0  0  0
  134.5290   75.8740  225.1850 N   0  0  0  0  0  0  0  0  0  0  0  0
  137.6680   74.6190  223.1150 H   0  0  0  0  0  0  0  0  0  0  0  0
  137.7596   76.6194  221.1239 H   0  0  0  0  0  0  0  0  0  0  0  0
  138.4236   77.3935  222.6439 H   0  0  0  0  0  0  0  0  0  0  0  0
  142.5262   75.9783  221.3327 H   0  0  0  0  0  0  0  0  0  0  0  0
  141.6256   75.1478  220.0291 H   0  0  0  0  0  0  0  0  0  0  0  0
  143.2607   77.5537  219.8959 H   0  0  0  0  0  0  0  0  0  0  0  0
  142.5666   76.6459  218.5641 H   0  0  0  0  0  0  0  0  0  0  0  0
  141.6815   79.1218  219.3464 H   0  0  0  0  0  0  0  0  0  0  0  0
  140.6106   77.9315  218.5657 H   0  0  0  0  0  0  0  0  0  0  0  0
  139.4179   78.3635  220.5053 H   0  0  0  0  0  0  0  0  0  0  0  0
  139.7764   79.3692  221.9643 H   0  0  0  0  0  0  0  0  0  0  0  0
  142.5136   79.6915  220.7303 H   0  0  0  0  0  0  0  0  0  0  0  0
  141.2658   80.9026  220.8955 H   0  0  0  0  0  0  0  0  0  0  0  0
  143.2689   81.0128  222.6456 H   0  0  0  0  0  0  0  0  0  0  0  0
  141.7019   81.0905  223.3813 H   0  0  0  0  0  0  0  0  0  0  0  0
  143.3370   78.6430  222.7480 H   0  0  0  0  0  0  0  0  0  0  0  0
  141.4928   77.3306  222.9271 H   0  0  0  0  0  0  0  0  0  0  0  0
  140.6021   78.5445  223.8702 H   0  0  0  0  0  0  0  0  0  0  0  0
  136.1116   73.5076  223.4085 H   0  0  0  0  0  0  0  0  0  0  0  0
  134.6705   72.0174  224.7832 H   0  0  0  0  0  0  0  0  0  0  0  0
  133.0047   71.7886  226.4696 H   0  0  0  0  0  0  0  0  0  0  0  0
  131.3621   75.2856  228.3813 H   0  0  0  0  0  0  0  0  0  0  0  0
  132.8152   76.7415  226.9937 H   0  0  0  0  0  0  0  0  0  0  0  0
  1  2  2  0
  2  3  1  0
  3  4  1  0
  4  5  1  0
  5  6  2  0
  5  7  1  0
  7  8  1  0
  8  9  1  0
  9 10  1  0
 10 11  1  0
 11 12  1  0
 12 13  1  0
 13 14  1  0
 14 15  1  0
 15 16  1  0
  2 17  1  0
 17 18  2  0
 18 19  1  0
 19 20  2  0
 20 21  1  0
 21 22  2  0
 22 23  1  0
 22 24  1  0
 24 25  2  0
 25 26  1  0
 26 27  2  0
 11  7  1  0
 16 12  1  0
 27 17  1  0
 26 20  1  0
  3 28  1  0
  4 29  1  0
  4 30  1  0
  8 31  1  0
  8 32  1  0
  9 33  1  0
  9 34  1  0
 10 35  1  0
 10 36  1  0
 11 37  1  6
 12 38  1  1
 13 39  1  0
 13 40  1  0
 14 41  1  0
 14 42  1  0
 15 43  1  0
 16 44  1  0
 16 45  1  0
 18 46  1  0
 19 47  1  0
 21 48  1  0
 24 49  1  0
 25 50  1  0
M  END
>  <smiles>  (32) 
O=C(NCC(=O)N1CCCC1C1CCNC1)c1ccc2cc(F)ccc2n1

>  <score_type>  (32) 
oracle

>  <origin>  (32) 
autodockgpu

>  <m_score__min__energy>  (32) 
-8.9199999999999999

>  <m_primary>  (32) 
energy

>  <rmsd>  (32) 
5.952905785909531

>  <m_score__min__rmsd>  (32) 
5.952905785909531

>  <meeko>  (32) 
{"free_energy": -7.35, "intermolecular_energy": -8.84, "internal_energy": -1.43, "cluster_size": 1, "cluster_id": 4, "rank_in_cluster": 1}

>  <energy>  (32) 
-6.77

>  <cluster_rmsd>  (32) 
1.72

>  <cluster>  (32) 
1

$$$$

     RDKit          3D

 50 53  0  0  0  0  0  0  0  0999 V2000
  140.9840   71.3260  221.4260 O   0  0  0  0  0  0  0  0  0  0  0  0
  140.3930   71.8300  222.4110 C   0  0  0  0  0  0  0  0  0  0  0  0
  139.8990   73.1430  222.2860 N   0  0  0  0  0  0  0  0  0  0  0  0
  140.0780   73.8530  221.0700 C   0  0  0  0  0  0  0  0  0  0  0  0
  140.8620   75.1020  221.2130 C   0  0  0  0  0  0  0  0  0  0  0  0
  140.8540   75.7360  222.3170 O   0  0  0  0  0  0  0  0  0  0  0  0
  141.6230   75.5920  220.1150 N   0  0  0  0  0  0  0  0  0  0  0  0
  141.0850   76.1210  218.8770 C   0  0  0  0  0  0  0  0  0  0  0  0
  142.1810   76.8130  218.1460 C   0  0  0  0  0  0  0  0  0  0  0  0
  143.3200   76.7720  219.1000 C   0  0  0  0  0  0  0  0  0  0  0  0
  143.0730   75.6510  220.0340 C   0  0  2  0  0  0  0  0  0  0  0  0
  143.7220   74.3450  219.7250 C   0  0  2  0  0  0  0  0  0  0  0  0
  142.8420   73.3360  219.0840 C   0  0  0  0  0  0  0  0  0  0  0  0
  143.5270   72.0310  219.4460 C   0  0  0  0  0  0  0  0  0  0  0  0
  143.8210   72.2740  220.8680 N   0  0  0  0  0  0  0  0  0  0  0  0
  144.3860   73.6330  220.8370 C   0  0  0  0  0  0  0  0  0  0  0  0
  140.2230   71.0710  223.6490 C   0  0  0  0  0  0  0  0  0  0  0  0
  139.5490   69.8590  223.6100 C   0  0  0  0  0  0  0  0  0  0  0  0
  139.3520   69.0890  224.7440 C   0  0  0  0  0  0  0  0  0  0  0  0
  139.8620   69.5750  225.9460 C   0  0  0  0  0  0  0  0  0  0  0  0
  139.6760   68.8210  227.0900 C   0  0  0  0  0  0  0  0  0  0  0  0
  140.1780   69.2880  228.3090 C   0  0  0  0  0  0  0  0  0  0  0  0
  139.9780   68.5260  229.4050 F   0  0  0  0  0  0  0  0  0  0  0  0
  140.8510   70.4990  228.3400 C   0  0  0  0  0  0  0  0  0  0  0  0
  141.0320   71.2520  227.1830 C   0  0  0  0  0  0  0  0  0  0  0  0
  140.5390   70.7960  225.9760 C   0  0  0  0  0  0  0  0  0  0  0  0
  140.7060   71.5150  224.8360 N   0  0  0  0  0  0  0  0  0  0  0  0
  139.4000   73.5520  223.1310 H   0  0  0  0  0  0  0  0  0  0  0  0
  140.6003   73.1959  220.3591 H   0  0  0  0  0  0  0  0  0  0  0  0
  139.0765   74.1434  220.7199 H   0  0  0  0  0  0  0  0  0  0  0  0
  140.6899   75.2987  218.2624 H   0  0  0  0  0  0  0  0  0  0  0  0
  140.2689   76.8269  219.0908 H   0  0  0  0  0  0  0  0  0  0  0  0
  142.4290   76.2812  217.2156 H   0  0  0  0  0  0  0  0  0  0  0  0
  141.9133   77.8365  217.8448 H   0  0  0  0  0  0  0  0  0  0  0  0
  144.2613   76.6074  218.5552 H   0  0  0  0  0  0  0  0  0  0  0  0
  143.4038   77.7227  219.6469 H   0  0  0  0  0  0  0  0  0  0  0  0
  143.5610   75.8475  221.0001 H   0  0  0  0  0  0  0  0  0  0  0  0
  144.4858   74.7215  219.0287 H   0  0  0  0  0  0  0  0  0  0  0  0
  141.8226   73.3780  219.4952 H   0  0  0  0  0  0  0  0  0  0  0  0
  142.7201   73.4832  218.0007 H   0  0  0  0  0  0  0  0  0  0  0  0
  142.8576   71.1687  219.3104 H   0  0  0  0  0  0  0  0  0  0  0  0
  144.4044   71.7851  218.8298 H   0  0  0  0  0  0  0  0  0  0  0  0
  142.9030   72.3200  221.3840 H   0  0  0  0  0  0  0  0  0  0  0  0
  144.1875   74.1477  221.7887 H   0  0  0  0  0  0  0  0  0  0  0  0
  145.4762   73.6046  220.6931 H   0  0  0  0  0  0  0  0  0  0  0  0
  139.1584   69.4980  222.6471 H   0  0  0  0  0  0  0  0  0  0  0  0
  138.8137   68.1308  224.6976 H   0  0  0  0  0  0  0  0  0  0  0  0
  139.1381   67.8627  227.0418 H   0  0  0  0  0  0  0  0  0  0  0  0
  141.2491   70.8718  229.2953 H   0  0  0  0  0  0  0  0  0  0  0  0
  141.5683   72.2113  227.2302 H   0  0  0  0  0  0  0  0  0  0  0  0
  1  2  2  0
  2  3  1  0
  3  4  1  0
  4  5  1  0
  5  6  2  0
  5  7  1  0
  7  8  1  0
  8  9  1  0
  9 10  1  0
 10 11  1  0
 11 12  1  0
 12 13  1  0
 13 14  1  0
 14 15  1  0
 15 16  1  0
  2 17  1  0
 17 18  2  0
 18 19  1  0
 19 20  2  0
 20 21  1  0
 21 22  2  0
 22 23  1  0
 22 24  1  0
 24 25  2  0
 25 26  1  0
 26 27  2  0
 11  7  1  0
 16 12  1  0
 27 17  1  0
 26 20  1  0
  3 28  1  0
  4 29  1  0
  4 30  1  0
  8 31  1  0
  8 32  1  0
  9 33  1  0
  9 34  1  0
 10 35  1  0
 10 36  1  0
 11 37  1  1
 12 38  1  6
 13 39  1  0
 13 40  1  0
 14 41  1  0
 14 42  1  0
 15 43  1  0
 16 44  1  0
 16 45  1  0
 18 46  1  0
 19 47  1  0
 21 48  1  0
 24 49  1  0
 25 50  1  0
M  END
>  <smiles>  (33) 
O=C(NCC(=O)N1CCCC1C1CCNC1)c1ccc2cc(F)ccc2n1

>  <score_type>  (33) 
oracle

>  <origin>  (33) 
autodockgpu

>  <m_score__min__energy>  (33) 
-8.9199999999999999

>  <m_primary>  (33) 
energy

>  <rmsd>  (33) 
1.8650565817876963

>  <m_score__min__rmsd>  (33) 
1.8650565817876963

>  <meeko>  (33) 
{"free_energy": -7.15, "intermolecular_energy": -8.64, "internal_energy": -2.25, "cluster_size": 32, "cluster_id": 1, "rank_in_cluster": 30}

>  <energy>  (33) 
-8.57

>  <cluster_rmsd>  (33) 
0.0

>  <cluster>  (33) 
2

$$$$

     RDKit          3D

 50 53  0  0  0  0  0  0  0  0999 V2000
  141.1110   72.1390  221.3260 O   0  0  0  0  0  0  0  0  0  0  0  0
  140.4540   72.4880  222.3350 C   0  0  0  0  0  0  0  0  0  0  0  0
  139.8890   73.7780  222.3440 N   0  0  0  0  0  0  0  0  0  0  0  0
  140.0740   74.6390  221.2310 C   0  0  0  0  0  0  0  0  0  0  0  0
  140.3240   76.0520  221.5990 C   0  0  0  0  0  0  0  0  0  0  0  0
  139.8800   76.5120  222.7000 O   0  0  0  0  0  0  0  0  0  0  0  0
  141.0600   76.8950  220.7200 N   0  0  0  0  0  0  0  0  0  0  0  0
  142.3030   76.5530  220.0570 C   0  0  0  0  0  0  0  0  0  0  0  0
  142.5630   77.5620  218.9950 C   0  0  0  0  0  0  0  0  0  0  0  0
  141.3360   78.3990  218.9990 C   0  0  0  0  0  0  0  0  0  0  0  0
  140.7010   78.2470  220.3270 C   0  0  2  0  0  0  0  0  0  0  0  0
  141.0050   79.2840  221.3540 C   0  0  2  0  0  0  0  0  0  0  0  0
  142.2090   79.0210  222.1820 C   0  0  0  0  0  0  0  0  0  0  0  0
  141.9250   79.8270  223.4360 C   0  0  0  0  0  0  0  0  0  0  0  0
  140.5150   79.4690  223.6640 N   0  0  0  0  0  0  0  0  0  0  0  0
  139.9370   79.6240  222.3170 C   0  0  0  0  0  0  0  0  0  0  0  0
  140.2800   71.5770  223.4650 C   0  0  0  0  0  0  0  0  0  0  0  0
  139.6540   70.3550  223.2570 C   0  0  0  0  0  0  0  0  0  0  0  0
  139.4570   69.4450  224.2810 C   0  0  0  0  0  0  0  0  0  0  0  0
  139.9150   69.7970  225.5490 C   0  0  0  0  0  0  0  0  0  0  0  0
  139.7280   68.9010  226.5860 C   0  0  0  0  0  0  0  0  0  0  0  0
  140.1790   69.2310  227.8680 C   0  0  0  0  0  0  0  0  0  0  0  0
  139.9790   68.3330  228.8560 F   0  0  0  0  0  0  0  0  0  0  0  0
  140.8030   70.4520  228.0680 C   0  0  0  0  0  0  0  0  0  0  0  0
  140.9870   71.3470  227.0180 C   0  0  0  0  0  0  0  0  0  0  0  0
  140.5440   71.0280  225.7490 C   0  0  0  0  0  0  0  0  0  0  0  0
  140.7140   71.8870  224.7120 N   0  0  0  0  0  0  0  0  0  0  0  0
  139.3350   74.0540  223.2080 H   0  0  0  0  0  0  0  0  0  0  0  0
  140.9348   74.2749  220.6510 H   0  0  0  0  0  0  0  0  0  0  0  0
  139.1374   74.6206  220.6545 H   0  0  0  0  0  0  0  0  0  0  0  0
  143.1268   76.5603  220.7859 H   0  0  0  0  0  0  0  0  0  0  0  0
  142.2307   75.5487  219.6140 H   0  0  0  0  0  0  0  0  0  0  0  0
  143.4506   78.1655  219.2357 H   0  0  0  0  0  0  0  0  0  0  0  0
  142.7663   77.1070  218.0143 H   0  0  0  0  0  0  0  0  0  0  0  0
  141.5993   79.4530  218.8266 H   0  0  0  0  0  0  0  0  0  0  0  0
  140.6479   78.0833  218.2010 H   0  0  0  0  0  0  0  0  0  0  0  0
  139.6158   78.4100  220.2506 H   0  0  0  0  0  0  0  0  0  0  0  0
  141.1575   80.1306  220.6684 H   0  0  0  0  0  0  0  0  0  0  0  0
  142.3079   77.9498  222.4115 H   0  0  0  0  0  0  0  0  0  0  0  0
  143.1517   79.2967  221.6866 H   0  0  0  0  0  0  0  0  0  0  0  0
  142.5650   79.5147  224.2744 H   0  0  0  0  0  0  0  0  0  0  0  0
  142.1173   80.9061  223.3436 H   0  0  0  0  0  0  0  0  0  0  0  0
  140.4780   78.4460  223.9130 H   0  0  0  0  0  0  0  0  0  0  0  0
  139.0822   78.9433  222.1908 H   0  0  0  0  0  0  0  0  0  0  0  0
  139.5737   80.6501  222.1584 H   0  0  0  0  0  0  0  0  0  0  0  0
  139.3033   70.1021  222.2455 H   0  0  0  0  0  0  0  0  0  0  0  0
  138.9582   68.4813  224.1008 H   0  0  0  0  0  0  0  0  0  0  0  0
  139.2291   67.9377  226.4040 H   0  0  0  0  0  0  0  0  0  0  0  0
  141.1591   70.7186  229.0740 H   0  0  0  0  0  0  0  0  0  0  0  0
  141.4862   72.3103  227.1991 H   0  0  0  0  0  0  0  0  0  0  0  0
  1  2  2  0
  2  3  1  0
  3  4  1  0
  4  5  1  0
  5  6  2  0
  5  7  1  0
  7  8  1  0
  8  9  1  0
  9 10  1  0
 10 11  1  0
 11 12  1  0
 12 13  1  0
 13 14  1  0
 14 15  1  0
 15 16  1  0
  2 17  1  0
 17 18  2  0
 18 19  1  0
 19 20  2  0
 20 21  1  0
 21 22  2  0
 22 23  1  0
 22 24  1  0
 24 25  2  0
 25 26  1  0
 26 27  2  0
 11  7  1  0
 16 12  1  0
 27 17  1  0
 26 20  1  0
  3 28  1  0
  4 29  1  0
  4 30  1  0
  8 31  1  0
  8 32  1  0
  9 33  1  0
  9 34  1  0
 10 35  1  0
 10 36  1  0
 11 37  1  6
 12 38  1  6
 13 39  1  0
 13 40  1  0
 14 41  1  0
 14 42  1  0
 15 43  1  0
 16 44  1  0
 16 45  1  0
 18 46  1  0
 19 47  1  0
 21 48  1  0
 24 49  1  0
 25 50  1  0
M  END
>  <smiles>  (34) 
O=C(NCC(=O)N1CCCC1C1CCNC1)c1ccc2cc(F)ccc2n1

>  <score_type>  (34) 
oracle

>  <origin>  (34) 
autodockgpu

>  <m_score__min__energy>  (34) 
-8.9199999999999999

>  <m_primary>  (34) 
energy

>  <rmsd>  (34) 
2.1361989624148694

>  <m_score__min__rmsd>  (34) 
2.1361989624148694

>  <meeko>  (34) 
{"free_energy": -7.76, "intermolecular_energy": -9.25, "internal_energy": -1.79, "cluster_size": 15, "cluster_id": 2, "rank_in_cluster": 10}

>  <energy>  (34) 
-8.55

>  <cluster_rmsd>  (34) 
0.25

>  <cluster>  (34) 
2

$$$$

     RDKit          3D

 50 53  0  0  0  0  0  0  0  0999 V2000
  141.1930   72.4920  221.8250 O   0  0  0  0  0  0  0  0  0  0  0  0
  140.2040   72.4660  222.5960 C   0  0  0  0  0  0  0  0  0  0  0  0
  139.1460   73.3600  222.3450 N   0  0  0  0  0  0  0  0  0  0  0  0
  139.2210   74.2540  221.2450 C   0  0  0  0  0  0  0  0  0  0  0  0
  139.5600   75.6450  221.6230 C   0  0  0  0  0  0  0  0  0  0  0  0
  138.8890   76.2430  222.5250 O   0  0  0  0  0  0  0  0  0  0  0  0
  140.6370   76.3140  220.9760 N   0  0  0  0  0  0  0  0  0  0  0  0
  141.9250   75.7330  220.6500 C   0  0  0  0  0  0  0  0  0  0  0  0
  142.6280   76.6450  219.7070 C   0  0  0  0  0  0  0  0  0  0  0  0
  141.6140   77.6880  219.4080 C   0  0  0  0  0  0  0  0  0  0  0  0
  140.6440   77.6960  220.5260 C   0  0  2  0  0  0  0  0  0  0  0  0
  140.8580   78.6920  221.6130 C   0  0  2  0  0  0  0  0  0  0  0  0
  141.6850   79.8680  221.2410 C   0  0  0  0  0  0  0  0  0  0  0  0
  142.2160   80.3310  222.5840 C   0  0  0  0  0  0  0  0  0  0  0  0
  142.6060   79.0390  223.1720 N   0  0  0  0  0  0  0  0  0  0  0  0
  141.4290   78.2020  222.8850 C   0  0  0  0  0  0  0  0  0  0  0  0
  140.1570   71.5320  223.7200 C   0  0  0  0  0  0  0  0  0  0  0  0
  139.5980   70.2760  223.5300 C   0  0  0  0  0  0  0  0  0  0  0  0
  139.5210   69.3430  224.5490 C   0  0  0  0  0  0  0  0  0  0  0  0
  140.0310   69.7080  225.7930 C   0  0  0  0  0  0  0  0  0  0  0  0
  139.9640   68.7900  226.8250 C   0  0  0  0  0  0  0  0  0  0  0  0
  140.4680   69.1320  228.0830 C   0  0  0  0  0  0  0  0  0  0  0  0
  140.3860   68.2120  229.0670 F   0  0  0  0  0  0  0  0  0  0  0  0
  141.0250   70.3880  228.2650 C   0  0  0  0  0  0  0  0  0  0  0  0
  141.0880   71.3060  227.2210 C   0  0  0  0  0  0  0  0  0  0  0  0
  140.5920   70.9740  225.9760 C   0  0  0  0  0  0  0  0  0  0  0  0
  140.6440   71.8550  224.9440 N   0  0  0  0  0  0  0  0  0  0  0  0
  138.3170   73.3230  223.0090 H   0  0  0  0  0  0  0  0  0  0  0  0
  139.9918   73.8860  220.5518 H   0  0  0  0  0  0  0  0  0  0  0  0
  138.2206   74.2825  220.7885 H   0  0  0  0  0  0  0  0  0  0  0  0
  142.5217   75.6148  221.5665 H   0  0  0  0  0  0  0  0  0  0  0  0
  141.7870   74.7448  220.1870 H   0  0  0  0  0  0  0  0  0  0  0  0
  143.5185   77.0867  220.1782 H   0  0  0  0  0  0  0  0  0  0  0  0
  142.9903   76.1303  218.8049 H   0  0  0  0  0  0  0  0  0  0  0  0
  142.0996   78.6715  219.3246 H   0  0  0  0  0  0  0  0  0  0  0  0
  141.1069   77.4748  218.4554 H   0  0  0  0  0  0  0  0  0  0  0  0
  139.6637   78.0511  220.1755 H   0  0  0  0  0  0  0  0  0  0  0  0
  139.8045   78.9663  221.7704 H   0  0  0  0  0  0  0  0  0  0  0  0
  142.5050   79.5804  220.5666 H   0  0  0  0  0  0  0  0  0  0  0  0
  141.1258   80.6444  220.6982 H   0  0  0  0  0  0  0  0  0  0  0  0
  143.0790   81.0036  222.4705 H   0  0  0  0  0  0  0  0  0  0  0  0
  141.5027   80.9139  223.1851 H   0  0  0  0  0  0  0  0  0  0  0  0
  143.4130   78.6600  222.6100 H   0  0  0  0  0  0  0  0  0  0  0  0
  141.7287   77.1484  222.7848 H   0  0  0  0  0  0  0  0  0  0  0  0
  140.6918   78.2643  223.6991 H   0  0  0  0  0  0  0  0  0  0  0  0
  139.2034   70.0137  222.5373 H   0  0  0  0  0  0  0  0  0  0  0  0
  139.0744   68.3515  224.3832 H   0  0  0  0  0  0  0  0  0  0  0  0
  139.5177   67.7987  226.6572 H   0  0  0  0  0  0  0  0  0  0  0  0
  141.4243   70.6641  229.2521 H   0  0  0  0  0  0  0  0  0  0  0  0
  141.5337   72.2977  227.3879 H   0  0  0  0  0  0  0  0  0  0  0  0
  1  2  2  0
  2  3  1  0
  3  4  1  0
  4  5  1  0
  5  6  2  0
  5  7  1  0
  7  8  1  0
  8  9  1  0
  9 10  1  0
 10 11  1  0
 11 12  1  0
 12 13  1  0
 13 14  1  0
 14 15  1  0
 15 16  1  0
  2 17  1  0
 17 18  2  0
 18 19  1  0
 19 20  2  0
 20 21  1  0
 21 22  2  0
 22 23  1  0
 22 24  1  0
 24 25  2  0
 25 26  1  0
 26 27  2  0
 11  7  1  0
 16 12  1  0
 27 17  1  0
 26 20  1  0
  3 28  1  0
  4 29  1  0
  4 30  1  0
  8 31  1  0
  8 32  1  0
  9 33  1  0
  9 34  1  0
 10 35  1  0
 10 36  1  0
 11 37  1  6
 12 38  1  1
 13 39  1  0
 13 40  1  0
 14 41  1  0
 14 42  1  0
 15 43  1  0
 16 44  1  0
 16 45  1  0
 18 46  1  0
 19 47  1  0
 21 48  1  0
 24 49  1  0
 25 50  1  0
M  END
>  <smiles>  (35) 
O=C(NCC(=O)N1CCCC1C1CCNC1)c1ccc2cc(F)ccc2n1

>  <score_type>  (35) 
oracle

>  <origin>  (35) 
autodockgpu

>  <m_score__min__energy>  (35) 
-8.9199999999999999

>  <m_primary>  (35) 
energy

>  <rmsd>  (35) 
1.9774070824277248

>  <m_score__min__rmsd>  (35) 
1.9774070824277248

>  <meeko>  (35) 
{"free_energy": -8.51, "intermolecular_energy": -10.0, "internal_energy": -1.23, "cluster_size": 15, "cluster_id": 2, "rank_in_cluster": 3}

>  <energy>  (35) 
-8.51

>  <cluster_rmsd>  (35) 
0.21

>  <cluster>  (35) 
2

$$$$

     RDKit          3D

 50 53  0  0  0  0  0  0  0  0999 V2000
  138.8410   72.2090  222.7330 O   0  0  0  0  0  0  0  0  0  0  0  0
  139.9970   71.8250  223.0320 C   0  0  0  0  0  0  0  0  0  0  0  0
  141.0260   72.0330  222.0940 N   0  0  0  0  0  0  0  0  0  0  0  0
  140.7370   72.6600  220.8540 C   0  0  0  0  0  0  0  0  0  0  0  0
  140.9360   74.1280  220.8620 C   0  0  0  0  0  0  0  0  0  0  0  0
  140.2290   74.8630  221.6240 O   0  0  0  0  0  0  0  0  0  0  0  0
  141.9170   74.7160  220.0150 N   0  0  0  0  0  0  0  0  0  0  0  0
  141.6920   75.2200  218.6750 C   0  0  0  0  0  0  0  0  0  0  0  0
  142.8720   76.0320  218.2730 C   0  0  0  0  0  0  0  0  0  0  0  0
  143.7010   76.0790  219.5040 C   0  0  0  0  0  0  0  0  0  0  0  0
  143.3200   74.9170  220.3390 C   0  0  2  0  0  0  0  0  0  0  0  0
  144.1570   73.6890  220.2270 C   0  0  2  0  0  0  0  0  0  0  0  0
  145.4320   73.7200  220.9850 C   0  0  0  0  0  0  0  0  0  0  0  0
  146.2810   72.7090  220.2370 C   0  0  0  0  0  0  0  0  0  0  0  0
  145.9880   73.0970  218.8470 N   0  0  0  0  0  0  0  0  0  0  0  0
  144.5220   73.2340  218.8690 C   0  0  0  0  0  0  0  0  0  0  0  0
  140.2620   71.1840  224.3180 C   0  0  0  0  0  0  0  0  0  0  0  0
  140.8550   71.9240  225.3320 C   0  0  0  0  0  0  0  0  0  0  0  0
  141.1340   71.3800  226.5730 C   0  0  0  0  0  0  0  0  0  0  0  0
  140.7950   70.0440  226.7800 C   0  0  0  0  0  0  0  0  0  0  0  0
  141.0660   69.4820  228.0140 C   0  0  0  0  0  0  0  0  0  0  0  0
  140.7350   68.1430  228.2460 C   0  0  0  0  0  0  0  0  0  0  0  0
  141.0140   67.6270  229.4620 F   0  0  0  0  0  0  0  0  0  0  0  0
  140.1430   67.4110  227.2300 C   0  0  0  0  0  0  0  0  0  0  0  0
  139.8750   67.9850  225.9900 C   0  0  0  0  0  0  0  0  0  0  0  0
  140.1990   69.3070  225.7550 C   0  0  0  0  0  0  0  0  0  0  0  0
  139.9450   69.8860  224.5530 N   0  0  0  0  0  0  0  0  0  0  0  0
  141.9990   71.7010  222.3650 H   0  0  0  0  0  0  0  0  0  0  0  0
  141.3932   72.2259  220.0853 H   0  0  0  0  0  0  0  0  0  0  0  0
  139.6709   72.4838  220.6483 H   0  0  0  0  0  0  0  0  0  0  0  0
  141.5657   74.3783  217.9781 H   0  0  0  0  0  0  0  0  0  0  0  0
  140.7827   75.8386  218.6522 H   0  0  0  0  0  0  0  0  0  0  0  0
  143.4188   75.5490  217.4498 H   0  0  0  0  0  0  0  0  0  0  0  0
  142.5970   77.0315  217.9051 H   0  0  0  0  0  0  0  0  0  0  0  0
  144.7676   76.0198  219.2415 H   0  0  0  0  0  0  0  0  0  0  0  0
  143.5345   77.0200  220.0487 H   0  0  0  0  0  0  0  0  0  0  0  0
  143.5001   75.1359  221.4019 H   0  0  0  0  0  0  0  0  0  0  0  0
  143.4387   72.9809  220.6658 H   0  0  0  0  0  0  0  0  0  0  0  0
  145.8876   74.7208  220.9565 H   0  0  0  0  0  0  0  0  0  0  0  0
  145.3134   73.4889  222.0539 H   0  0  0  0  0  0  0  0  0  0  0  0
  147.3494   72.8200  220.4740 H   0  0  0  0  0  0  0  0  0  0  0  0
  146.0639   71.6577  220.4772 H   0  0  0  0  0  0  0  0  0  0  0  0
  146.3980   74.0540  218.6870 H   0  0  0  0  0  0  0  0  0  0  0  0
  144.1994   73.9742  218.1220 H   0  0  0  0  0  0  0  0  0  0  0  0
  144.0323   72.2792  218.6273 H   0  0  0  0  0  0  0  0  0  0  0  0
  141.1113   72.9768  225.1426 H   0  0  0  0  0  0  0  0  0  0  0  0
  141.6054   71.9790  227.3661 H   0  0  0  0  0  0  0  0  0  0  0  0
  141.5375   70.0825  228.8059 H   0  0  0  0  0  0  0  0  0  0  0  0
  139.8799   66.3575  227.4058 H   0  0  0  0  0  0  0  0  0  0  0  0
  139.4048   67.3851  225.1969 H   0  0  0  0  0  0  0  0  0  0  0  0
  1  2  2  0
  2  3  1  0
  3  4  1  0
  4  5  1  0
  5  6  2  0
  5  7  1  0
  7  8  1  0
  8  9  1  0
  9 10  1  0
 10 11  1  0
 11 12  1  0
 12 13  1  0
 13 14  1  0
 14 15  1  0
 15 16  1  0
  2 17  1  0
 17 18  2  0
 18 19  1  0
 19 20  2  0
 20 21  1  0
 21 22  2  0
 22 23  1  0
 22 24  1  0
 24 25  2  0
 25 26  1  0
 26 27  2  0
 11  7  1  0
 16 12  1  0
 27 17  1  0
 26 20  1  0
  3 28  1  0
  4 29  1  0
  4 30  1  0
  8 31  1  0
  8 32  1  0
  9 33  1  0
  9 34  1  0
 10 35  1  0
 10 36  1  0
 11 37  1  1
 12 38  1  1
 13 39  1  0
 13 40  1  0
 14 41  1  0
 14 42  1  0
 15 43  1  0
 16 44  1  0
 16 45  1  0
 18 46  1  0
 19 47  1  0
 21 48  1  0
 24 49  1  0
 25 50  1  0
M  END
>  <smiles>  (36) 
O=C(NCC(=O)N1CCCC1C1CCNC1)c1ccc2cc(F)ccc2n1

>  <score_type>  (36) 
oracle

>  <origin>  (36) 
autodockgpu

>  <m_score__min__energy>  (36) 
-8.9199999999999999

>  <m_primary>  (36) 
energy

>  <rmsd>  (36) 
3.2500530298998296

>  <m_score__min__rmsd>  (36) 
3.2500530298998296

>  <meeko>  (36) 
{"free_energy": -8.44, "intermolecular_energy": -9.94, "internal_energy": -1.1, "cluster_size": 32, "cluster_id": 1, "rank_in_cluster": 18}

>  <energy>  (36) 
-8.5

>  <cluster_rmsd>  (36) 
0.23

>  <cluster>  (36) 
2

$$$$

     RDKit          3D

 50 53  0  0  0  0  0  0  0  0999 V2000
  140.8450   72.2100  221.2000 O   0  0  0  0  0  0  0  0  0  0  0  0
  140.2440   72.5940  222.2310 C   0  0  0  0  0  0  0  0  0  0  0  0
  139.7140   73.8980  222.2400 N   0  0  0  0  0  0  0  0  0  0  0  0
  139.8690   74.7330  221.1030 C   0  0  0  0  0  0  0  0  0  0  0  0
  141.2280   75.3030  220.9560 C   0  0  0  0  0  0  0  0  0  0  0  0
  142.2330   74.6850  221.4340 O   0  0  0  0  0  0  0  0  0  0  0  0
  141.4090   76.5430  220.2810 N   0  0  0  0  0  0  0  0  0  0  0  0
  142.5330   76.8940  219.4360 C   0  0  0  0  0  0  0  0  0  0  0  0
  142.1840   78.1260  218.6770 C   0  0  0  0  0  0  0  0  0  0  0  0
  140.7600   78.3620  219.0270 C   0  0  0  0  0  0  0  0  0  0  0  0
  140.5020   77.6780  220.3150 C   0  0  2  0  0  0  0  0  0  0  0  0
  140.5940   78.4980  221.5560 C   0  0  2  0  0  0  0  0  0  0  0  0
  141.4070   79.7350  221.4400 C   0  0  0  0  0  0  0  0  0  0  0  0
  141.8130   79.9940  222.8790 C   0  0  0  0  0  0  0  0  0  0  0  0
  142.1990   78.6350  223.2920 N   0  0  0  0  0  0  0  0  0  0  0  0
  141.0780   77.8280  222.7810 C   0  0  0  0  0  0  0  0  0  0  0  0
  140.1000   71.7090  223.3860 C   0  0  0  0  0  0  0  0  0  0  0  0
  139.3740   70.5340  223.2490 C   0  0  0  0  0  0  0  0  0  0  0  0
  139.1980   69.6510  224.3000 C   0  0  0  0  0  0  0  0  0  0  0  0
  139.7830   69.9820  225.5210 C   0  0  0  0  0  0  0  0  0  0  0  0
  139.6190   69.1130  226.5840 C   0  0  0  0  0  0  0  0  0  0  0  0
  140.1960   69.4220  227.8190 C   0  0  0  0  0  0  0  0  0  0  0  0
  140.0150   68.5510  228.8350 F   0  0  0  0  0  0  0  0  0  0  0  0
  140.9190   70.5970  227.9480 C   0  0  0  0  0  0  0  0  0  0  0  0
  141.0790   71.4660  226.8730 C   0  0  0  0  0  0  0  0  0  0  0  0
  140.5120   71.1660  225.6500 C   0  0  0  0  0  0  0  0  0  0  0  0
  140.6560   72.0010  224.5880 N   0  0  0  0  0  0  0  0  0  0  0  0
  139.2070   74.2060  223.1230 H   0  0  0  0  0  0  0  0  0  0  0  0
  139.6436   74.1397  220.2046 H   0  0  0  0  0  0  0  0  0  0  0  0
  139.1804   75.5807  221.2340 H   0  0  0  0  0  0  0  0  0  0  0  0
  143.4213   77.0798  220.0577 H   0  0  0  0  0  0  0  0  0  0  0  0
  142.7538   76.0713  218.7400 H   0  0  0  0  0  0  0  0  0  0  0  0
  142.8113   78.9726  218.9929 H   0  0  0  0  0  0  0  0  0  0  0  0
  142.3455   78.0203  217.5941 H   0  0  0  0  0  0  0  0  0  0  0  0
  140.5718   79.4409  219.1298 H   0  0  0  0  0  0  0  0  0  0  0  0
  140.0968   77.9727  218.2405 H   0  0  0  0  0  0  0  0  0  0  0  0
  139.4421   77.3932  220.3894 H   0  0  0  0  0  0  0  0  0  0  0  0
  139.5226   78.7226  221.6639 H   0  0  0  0  0  0  0  0  0  0  0  0
  142.2876   79.5740  220.8008 H   0  0  0  0  0  0  0  0  0  0  0  0
  140.8668   80.5744  220.9778 H   0  0  0  0  0  0  0  0  0  0  0  0
  142.6586   80.6946  222.9435 H   0  0  0  0  0  0  0  0  0  0  0  0
  141.0342   80.4603  223.5003 H   0  0  0  0  0  0  0  0  0  0  0  0
  143.0610   78.3650  222.7490 H   0  0  0  0  0  0  0  0  0  0  0  0
  141.4208   76.8096  222.5456 H   0  0  0  0  0  0  0  0  0  0  0  0
  140.2763   77.7467  223.5298 H   0  0  0  0  0  0  0  0  0  0  0  0
  138.9240   70.2970  222.2736 H   0  0  0  0  0  0  0  0  0  0  0  0
  138.6189   68.7240  224.1765 H   0  0  0  0  0  0  0  0  0  0  0  0
  139.0394   68.1865  226.4588 H   0  0  0  0  0  0  0  0  0  0  0  0
  141.3746   70.8473  228.9174 H   0  0  0  0  0  0  0  0  0  0  0  0
  141.6578   72.3931  226.9975 H   0  0  0  0  0  0  0  0  0  0  0  0
  1  2  2  0
  2  3  1  0
  3  4  1  0
  4  5  1  0
  5  6  2  0
  5  7  1  0
  7  8  1  0
  8  9  1  0
  9 10  1  0
 10 11  1  0
 11 12  1  0
 12 13  1  0
 13 14  1  0
 14 15  1  0
 15 16  1  0
  2 17  1  0
 17 18  2  0
 18 19  1  0
 19 20  2  0
 20 21  1  0
 21 22  2  0
 22 23  1  0
 22 24  1  0
 24 25  2  0
 25 26  1  0
 26 27  2  0
 11  7  1  0
 16 12  1  0
 27 17  1  0
 26 20  1  0
  3 28  1  0
  4 29  1  0
  4 30  1  0
  8 31  1  0
  8 32  1  0
  9 33  1  0
  9 34  1  0
 10 35  1  0
 10 36  1  0
 11 37  1  6
 12 38  1  1
 13 39  1  0
 13 40  1  0
 14 41  1  0
 14 42  1  0
 15 43  1  0
 16 44  1  0
 16 45  1  0
 18 46  1  0
 19 47  1  0
 21 48  1  0
 24 49  1  0
 25 50  1  0
M  END
>  <smiles>  (37) 
O=C(NCC(=O)N1CCCC1C1CCNC1)c1ccc2cc(F)ccc2n1

>  <score_type>  (37) 
oracle

>  <origin>  (37) 
autodockgpu

>  <m_score__min__energy>  (37) 
-8.9199999999999999

>  <m_primary>  (37) 
energy

>  <rmsd>  (37) 
2.105393342997134

>  <m_score__min__rmsd>  (37) 
2.105393342997134

>  <meeko>  (37) 
{"free_energy": -7.88, "intermolecular_energy": -9.37, "internal_energy": -1.13, "cluster_size": 15, "cluster_id": 2, "rank_in_cluster": 8}

>  <energy>  (37) 
-8.38

>  <cluster_rmsd>  (37) 
0.42

>  <cluster>  (37) 
2

$$$$

     RDKit          3D

 50 53  0  0  0  0  0  0  0  0999 V2000
  141.4430   72.1260  221.5860 O   0  0  0  0  0  0  0  0  0  0  0  0
  140.4840   72.3350  222.3660 C   0  0  0  0  0  0  0  0  0  0  0  0
  139.6000   73.3870  222.0600 N   0  0  0  0  0  0  0  0  0  0  0  0
  139.8100   74.1720  220.8970 C   0  0  0  0  0  0  0  0  0  0  0  0
  141.0090   75.0400  220.9650 C   0  0  0  0  0  0  0  0  0  0  0  0
  141.3130   75.6220  222.0560 O   0  0  0  0  0  0  0  0  0  0  0  0
  141.8200   75.2210  219.8100 N   0  0  0  0  0  0  0  0  0  0  0  0
  141.3460   75.3060  218.4430 C   0  0  0  0  0  0  0  0  0  0  0  0
  142.4540   75.8160  217.5910 C   0  0  0  0  0  0  0  0  0  0  0  0
  143.5220   76.1490  218.5680 C   0  0  0  0  0  0  0  0  0  0  0  0
  143.2670   75.3550  219.7900 C   0  0  2  0  0  0  0  0  0  0  0  0
  144.0030   74.0670  219.9360 C   0  0  2  0  0  0  0  0  0  0  0  0
  145.1770   74.1070  220.8420 C   0  0  0  0  0  0  0  0  0  0  0  0
  146.0180   72.9490  220.3380 C   0  0  0  0  0  0  0  0  0  0  0  0
  145.9270   73.1710  218.8850 N   0  0  0  0  0  0  0  0  0  0  0  0
  144.4860   73.4140  218.7010 C   0  0  0  0  0  0  0  0  0  0  0  0
  140.2940   71.5070  223.5560 C   0  0  0  0  0  0  0  0  0  0  0  0
  139.6210   70.2990  223.4370 C   0  0  0  0  0  0  0  0  0  0  0  0
  139.4060   69.4660  224.5210 C   0  0  0  0  0  0  0  0  0  0  0  0
  139.8950   69.8830  225.7570 C   0  0  0  0  0  0  0  0  0  0  0  0
  139.6910   69.0650  226.8540 C   0  0  0  0  0  0  0  0  0  0  0  0
  140.1720   69.4610  228.1050 C   0  0  0  0  0  0  0  0  0  0  0  0
  139.9540   68.6390  229.1530 F   0  0  0  0  0  0  0  0  0  0  0  0
  140.8430   70.6690  228.2170 C   0  0  0  0  0  0  0  0  0  0  0  0
  141.0430   71.4860  227.1080 C   0  0  0  0  0  0  0  0  0  0  0  0
  140.5710   71.1000  225.8680 C   0  0  0  0  0  0  0  0  0  0  0  0
  140.7570   71.8830  224.7750 N   0  0  0  0  0  0  0  0  0  0  0  0
  138.7930   73.5480  222.7330 H   0  0  0  0  0  0  0  0  0  0  0  0
  139.9216   73.4944  220.0377 H   0  0  0  0  0  0  0  0  0  0  0  0
  138.9397   74.8378  220.8007 H   0  0  0  0  0  0  0  0  0  0  0  0
  141.0381   74.3092  218.0942 H   0  0  0  0  0  0  0  0  0  0  0  0
  140.4822   75.9845  218.3847 H   0  0  0  0  0  0  0  0  0  0  0  0
  142.7942   75.0437  216.8855 H   0  0  0  0  0  0  0  0  0  0  0  0
  142.1567   76.6764  216.9735 H   0  0  0  0  0  0  0  0  0  0  0  0
  144.5067   75.8914  218.1509 H   0  0  0  0  0  0  0  0  0  0  0  0
  143.5179   77.2251  218.7961 H   0  0  0  0  0  0  0  0  0  0  0  0
  143.6736   75.8727  220.6713 H   0  0  0  0  0  0  0  0  0  0  0  0
  143.1797   73.4746  220.3616 H   0  0  0  0  0  0  0  0  0  0  0  0
  145.7176   75.0606  220.7507 H   0  0  0  0  0  0  0  0  0  0  0  0
  144.9130   74.0273  221.9069 H   0  0  0  0  0  0  0  0  0  0  0  0
  147.0563   73.0141  220.6955 H   0  0  0  0  0  0  0  0  0  0  0  0
  145.6836   71.9564  220.6741 H   0  0  0  0  0  0  0  0  0  0  0  0
  146.4340   74.0690  218.6640 H   0  0  0  0  0  0  0  0  0  0  0  0
  144.3202   74.0717  217.8350 H   0  0  0  0  0  0  0  0  0  0  0  0
  143.9472   72.4732  218.5148 H   0  0  0  0  0  0  0  0  0  0  0  0
  139.2463   69.9938  222.4489 H   0  0  0  0  0  0  0  0  0  0  0  0
  138.8699   68.5118  224.4110 H   0  0  0  0  0  0  0  0  0  0  0  0
  139.1548   68.1111  226.7425 H   0  0  0  0  0  0  0  0  0  0  0  0
  141.2237   70.9871  229.1987 H   0  0  0  0  0  0  0  0  0  0  0  0
  141.5778   72.4408  227.2189 H   0  0  0  0  0  0  0  0  0  0  0  0
  1  2  2  0
  2  3  1  0
  3  4  1  0
  4  5  1  0
  5  6  2  0
  5  7  1  0
  7  8  1  0
  8  9  1  0
  9 10  1  0
 10 11  1  0
 11 12  1  0
 12 13  1  0
 13 14  1  0
 14 15  1  0
 15 16  1  0
  2 17  1  0
 17 18  2  0
 18 19  1  0
 19 20  2  0
 20 21  1  0
 21 22  2  0
 22 23  1  0
 22 24  1  0
 24 25  2  0
 25 26  1  0
 26 27  2  0
 11  7  1  0
 16 12  1  0
 27 17  1  0
 26 20  1  0
  3 28  1  0
  4 29  1  0
  4 30  1  0
  8 31  1  0
  8 32  1  0
  9 33  1  0
  9 34  1  0
 10 35  1  0
 10 36  1  0
 11 37  1  1
 12 38  1  1
 13 39  1  0
 13 40  1  0
 14 41  1  0
 14 42  1  0
 15 43  1  0
 16 44  1  0
 16 45  1  0
 18 46  1  0
 19 47  1  0
 21 48  1  0
 24 49  1  0
 25 50  1  0
M  END
>  <smiles>  (38) 
O=C(NCC(=O)N1CCCC1C1CCNC1)c1ccc2cc(F)ccc2n1

>  <score_type>  (38) 
oracle

>  <origin>  (38) 
autodockgpu

>  <m_score__min__energy>  (38) 
-8.9199999999999999

>  <m_primary>  (38) 
energy

>  <rmsd>  (38) 
1.9706556151584183

>  <m_score__min__rmsd>  (38) 
1.9706556151584183

>  <meeko>  (38) 
{"free_energy": -8.9, "intermolecular_energy": -10.39, "internal_energy": -1.31, "cluster_size": 32, "cluster_id": 1, "rank_in_cluster": 2}

>  <energy>  (38) 
-8.22

>  <cluster_rmsd>  (38) 
0.95

>  <cluster>  (38) 
2

$$$$

     RDKit          3D

 50 53  0  0  0  0  0  0  0  0999 V2000
  140.5120   73.4930  222.3300 O   0  0  0  0  0  0  0  0  0  0  0  0
  140.1150   72.3050  222.2720 C   0  0  0  0  0  0  0  0  0  0  0  0
  139.7260   71.7980  221.0170 N   0  0  0  0  0  0  0  0  0  0  0  0
  139.7910   72.6280  219.8680 C   0  0  0  0  0  0  0  0  0  0  0  0
  141.0940   72.5800  219.1650 C   0  0  0  0  0  0  0  0  0  0  0  0
  141.4620   71.5140  218.5750 O   0  0  0  0  0  0  0  0  0  0  0  0
  141.9350   73.7290  219.1510 N   0  0  0  0  0  0  0  0  0  0  0  0
  142.0900   74.6550  218.0470 C   0  0  0  0  0  0  0  0  0  0  0  0
  142.7910   75.8690  218.5460 C   0  0  0  0  0  0  0  0  0  0  0  0
  142.8890   75.6400  220.0100 C   0  0  0  0  0  0  0  0  0  0  0  0
  142.7880   74.1810  220.2370 C   0  0  2  0  0  0  0  0  0  0  0  0
  144.0620   73.4190  220.3730 C   0  0  2  0  0  0  0  0  0  0  0  0
  145.2250   74.2080  220.8480 C   0  0  0  0  0  0  0  0  0  0  0  0
  146.4010   73.4070  220.3200 C   0  0  0  0  0  0  0  0  0  0  0  0
  145.9340   73.1270  218.9520 N   0  0  0  0  0  0  0  0  0  0  0  0
  144.5480   72.6860  219.1840 C   0  0  0  0  0  0  0  0  0  0  0  0
  140.0610   71.4750  223.4740 C   0  0  0  0  0  0  0  0  0  0  0  0
  139.4520   70.2290  223.4080 C   0  0  0  0  0  0  0  0  0  0  0  0
  139.3650   69.3930  224.5070 C   0  0  0  0  0  0  0  0  0  0  0  0
  139.9180   69.8450  225.7030 C   0  0  0  0  0  0  0  0  0  0  0  0
  139.8430   69.0240  226.8130 C   0  0  0  0  0  0  0  0  0  0  0  0
  140.3900   69.4550  228.0250 C   0  0  0  0  0  0  0  0  0  0  0  0
  140.2970   68.6280  229.0880 F   0  0  0  0  0  0  0  0  0  0  0  0
  140.9960   70.7000  228.0840 C   0  0  0  0  0  0  0  0  0  0  0  0
  141.0670   71.5200  226.9620 C   0  0  0  0  0  0  0  0  0  0  0  0
  140.5290   71.1000  225.7610 C   0  0  0  0  0  0  0  0  0  0  0  0
  140.5890   71.8850  224.6550 N   0  0  0  0  0  0  0  0  0  0  0  0
  139.3930   70.7880  220.9880 H   0  0  0  0  0  0  0  0  0  0  0  0
  139.0067   72.3091  219.1657 H   0  0  0  0  0  0  0  0  0  0  0  0
  139.6531   73.6630  220.2140 H   0  0  0  0  0  0  0  0  0  0  0  0
  142.6835   74.1852  217.2488 H   0  0  0  0  0  0  0  0  0  0  0  0
  141.1044   74.9278  217.6418 H   0  0  0  0  0  0  0  0  0  0  0  0
  143.7903   75.9586  218.0949 H   0  0  0  0  0  0  0  0  0  0  0  0
  142.2633   76.8007  218.2939 H   0  0  0  0  0  0  0  0  0  0  0  0
  143.8534   76.0131  220.3853 H   0  0  0  0  0  0  0  0  0  0  0  0
  142.0863   76.1724  220.5412 H   0  0  0  0  0  0  0  0  0  0  0  0
  142.3737   73.9792  221.2358 H   0  0  0  0  0  0  0  0  0  0  0  0
  143.7221   72.6977  221.1307 H   0  0  0  0  0  0  0  0  0  0  0  0
  145.2149   75.2242  220.4271 H   0  0  0  0  0  0  0  0  0  0  0  0
  145.2440   74.3490  221.9388 H   0  0  0  0  0  0  0  0  0  0  0  0
  147.3290   73.9976  220.3206 H   0  0  0  0  0  0  0  0  0  0  0  0
  146.6543   72.5152  220.9121 H   0  0  0  0  0  0  0  0  0  0  0  0
  145.8960   74.0420  218.4300 H   0  0  0  0  0  0  0  0  0  0  0  0
  143.9233   72.9239  218.3105 H   0  0  0  0  0  0  0  0  0  0  0  0
  144.5002   71.5986  219.3428 H   0  0  0  0  0  0  0  0  0  0  0  0
  139.0247   69.8956  222.4508 H   0  0  0  0  0  0  0  0  0  0  0  0
  138.8778   68.4091  224.4389 H   0  0  0  0  0  0  0  0  0  0  0  0
  139.3569   68.0397  226.7429 H   0  0  0  0  0  0  0  0  0  0  0  0
  141.4284   71.0460  229.0344 H   0  0  0  0  0  0  0  0  0  0  0  0
  141.5525   72.5046  227.0316 H   0  0  0  0  0  0  0  0  0  0  0  0
  1  2  2  0
  2  3  1  0
  3  4  1  0
  4  5  1  0
  5  6  2  0
  5  7  1  0
  7  8  1  0
  8  9  1  0
  9 10  1  0
 10 11  1  0
 11 12  1  0
 12 13  1  0
 13 14  1  0
 14 15  1  0
 15 16  1  0
  2 17  1  0
 17 18  2  0
 18 19  1  0
 19 20  2  0
 20 21  1  0
 21 22  2  0
 22 23  1  0
 22 24  1  0
 24 25  2  0
 25 26  1  0
 26 27  2  0
 11  7  1  0
 16 12  1  0
 27 17  1  0
 26 20  1  0
  3 28  1  0
  4 29  1  0
  4 30  1  0
  8 31  1  0
  8 32  1  0
  9 33  1  0
  9 34  1  0
 10 35  1  0
 10 36  1  0
 11 37  1  1
 12 38  1  1
 13 39  1  0
 13 40  1  0
 14 41  1  0
 14 42  1  0
 15 43  1  0
 16 44  1  0
 16 45  1  0
 18 46  1  0
 19 47  1  0
 21 48  1  0
 24 49  1  0
 25 50  1  0
M  END
>  <smiles>  (39) 
O=C(NCC(=O)N1CCCC1C1CCNC1)c1ccc2cc(F)ccc2n1

>  <score_type>  (39) 
oracle

>  <origin>  (39) 
autodockgpu

>  <m_score__min__energy>  (39) 
-8.9199999999999999

>  <m_primary>  (39) 
energy

>  <rmsd>  (39) 
2.501914361586663

>  <m_score__min__rmsd>  (39) 
2.501914361586663

>  <meeko>  (39) 
{"free_energy": -8.24, "intermolecular_energy": -9.73, "internal_energy": -1.38, "cluster_size": 32, "cluster_id": 1, "rank_in_cluster": 23}

>  <energy>  (39) 
-8.2

>  <cluster_rmsd>  (39) 
1.29

>  <cluster>  (39) 
2

$$$$

     RDKit          3D

 50 53  0  0  0  0  0  0  0  0999 V2000
  141.3070   72.0600  221.5260 O   0  0  0  0  0  0  0  0  0  0  0  0
  140.4160   72.3180  222.3700 C   0  0  0  0  0  0  0  0  0  0  0  0
  139.5880   73.4330  222.1390 N   0  0  0  0  0  0  0  0  0  0  0  0
  139.7750   74.2240  220.9750 C   0  0  0  0  0  0  0  0  0  0  0  0
  141.0130   75.0370  220.9950 C   0  0  0  0  0  0  0  0  0  0  0  0
  141.3840   75.6080  222.0710 O   0  0  0  0  0  0  0  0  0  0  0  0
  141.7870   75.1790  219.8090 N   0  0  0  0  0  0  0  0  0  0  0  0
  141.2700   75.2100  218.4550 C   0  0  0  0  0  0  0  0  0  0  0  0
  142.3480   75.6930  217.5500 C   0  0  0  0  0  0  0  0  0  0  0  0
  143.4440   76.0680  218.4800 C   0  0  0  0  0  0  0  0  0  0  0  0
  143.2320   75.3190  219.7390 C   0  0  2  0  0  0  0  0  0  0  0  0
  143.9800   74.0410  219.9090 C   0  0  2  0  0  0  0  0  0  0  0  0
  145.1310   74.1010  220.8440 C   0  0  0  0  0  0  0  0  0  0  0  0
  145.9980   72.9510  220.3660 C   0  0  0  0  0  0  0  0  0  0  0  0
  145.9400   73.1640  218.9100 N   0  0  0  0  0  0  0  0  0  0  0  0
  144.5010   73.3880  218.6910 C   0  0  0  0  0  0  0  0  0  0  0  0
  140.2480   71.4820  223.5570 C   0  0  0  0  0  0  0  0  0  0  0  0
  139.6010   70.2600  223.4360 C   0  0  0  0  0  0  0  0  0  0  0  0
  139.4070   69.4190  224.5180 C   0  0  0  0  0  0  0  0  0  0  0  0
  139.8900   69.8420  225.7540 C   0  0  0  0  0  0  0  0  0  0  0  0
  139.7070   69.0160  226.8480 C   0  0  0  0  0  0  0  0  0  0  0  0
  140.1820   69.4180  228.1000 C   0  0  0  0  0  0  0  0  0  0  0  0
  139.9860   68.5870  229.1450 F   0  0  0  0  0  0  0  0  0  0  0  0
  140.8270   70.6390  228.2130 C   0  0  0  0  0  0  0  0  0  0  0  0
  141.0070   71.4650  227.1070 C   0  0  0  0  0  0  0  0  0  0  0  0
  140.5400   71.0730  225.8680 C   0  0  0  0  0  0  0  0  0  0  0  0
  140.7060   71.8630  224.7760 N   0  0  0  0  0  0  0  0  0  0  0  0
  138.8380   73.6340  222.8650 H   0  0  0  0  0  0  0  0  0  0  0  0
  139.8146   73.5540  220.1035 H   0  0  0  0  0  0  0  0  0  0  0  0
  138.9311   74.9280  220.9281 H   0  0  0  0  0  0  0  0  0  0  0  0
  140.9575   74.1993  218.1537 H   0  0  0  0  0  0  0  0  0  0  0  0
  140.4007   75.8816  218.3983 H   0  0  0  0  0  0  0  0  0  0  0  0
  142.6708   74.8962  216.8637 H   0  0  0  0  0  0  0  0  0  0  0  0
  142.0263   76.5280  216.9102 H   0  0  0  0  0  0  0  0  0  0  0  0
  144.4168   75.7998  218.0422 H   0  0  0  0  0  0  0  0  0  0  0  0
  143.4404   77.1519  218.6676 H   0  0  0  0  0  0  0  0  0  0  0  0
  143.6624   75.8710  220.5876 H   0  0  0  0  0  0  0  0  0  0  0  0
  143.1537   73.4399  220.3162 H   0  0  0  0  0  0  0  0  0  0  0  0
  145.6617   75.0609  220.7610 H   0  0  0  0  0  0  0  0  0  0  0  0
  144.8423   74.0238  221.9026 H   0  0  0  0  0  0  0  0  0  0  0  0
  147.0264   73.0307  220.7482 H   0  0  0  0  0  0  0  0  0  0  0  0
  145.6672   71.9562  220.6989 H   0  0  0  0  0  0  0  0  0  0  0  0
  146.4400   74.0670  218.6960 H   0  0  0  0  0  0  0  0  0  0  0  0
  144.3478   74.0388  217.8175 H   0  0  0  0  0  0  0  0  0  0  0  0
  143.9790   72.4392  218.4980 H   0  0  0  0  0  0  0  0  0  0  0  0
  139.2303   69.9498  222.4479 H   0  0  0  0  0  0  0  0  0  0  0  0
  138.8913   68.4538  224.4061 H   0  0  0  0  0  0  0  0  0  0  0  0
  139.1920   68.0507  226.7341 H   0  0  0  0  0  0  0  0  0  0  0  0
  141.2038   70.9617  229.1948 H   0  0  0  0  0  0  0  0  0  0  0  0
  141.5216   72.4306  227.2201 H   0  0  0  0  0  0  0  0  0  0  0  0
  1  2  2  0
  2  3  1  0
  3  4  1  0
  4  5  1  0
  5  6  2  0
  5  7  1  0
  7  8  1  0
  8  9  1  0
  9 10  1  0
 10 11  1  0
 11 12  1  0
 12 13  1  0
 13 14  1  0
 14 15  1  0
 15 16  1  0
  2 17  1  0
 17 18  2  0
 18 19  1  0
 19 20  2  0
 20 21  1  0
 21 22  2  0
 22 23  1  0
 22 24  1  0
 24 25  2  0
 25 26  1  0
 26 27  2  0
 11  7  1  0
 16 12  1  0
 27 17  1  0
 26 20  1  0
  3 28  1  0
  4 29  1  0
  4 30  1  0
  8 31  1  0
  8 32  1  0
  9 33  1  0
  9 34  1  0
 10 35  1  0
 10 36  1  0
 11 37  1  1
 12 38  1  1
 13 39  1  0
 13 40  1  0
 14 41  1  0
 14 42  1  0
 15 43  1  0
 16 44  1  0
 16 45  1  0
 18 46  1  0
 19 47  1  0
 21 48  1  0
 24 49  1  0
 25 50  1  0
M  END
>  <smiles>  (40) 
O=C(NCC(=O)N1CCCC1C1CCNC1)c1ccc2cc(F)ccc2n1

>  <score_type>  (40) 
oracle

>  <origin>  (40) 
autodockgpu

>  <m_score__min__energy>  (40) 
-8.9199999999999999

>  <m_primary>  (40) 
energy

>  <rmsd>  (40) 
1.930606452487483

>  <m_score__min__rmsd>  (40) 
1.930606452487483

>  <meeko>  (40) 
{"free_energy": -8.92, "intermolecular_energy": -10.41, "internal_energy": -1.31, "cluster_size": 32, "cluster_id": 1, "rank_in_cluster": 1}

>  <energy>  (40) 
-7.88

>  <cluster_rmsd>  (40) 
0.75

>  <cluster>  (40) 
2

$$$$

     RDKit          3D

 50 53  0  0  0  0  0  0  0  0999 V2000
  141.2270   72.2780  221.6530 O   0  0  0  0  0  0  0  0  0  0  0  0
  140.3240   72.4240  222.5100 C   0  0  0  0  0  0  0  0  0  0  0  0
  139.4040   73.4750  222.3280 N   0  0  0  0  0  0  0  0  0  0  0  0
  139.5180   74.3280  221.2000 C   0  0  0  0  0  0  0  0  0  0  0  0
  139.7320   75.7530  221.5430 C   0  0  0  0  0  0  0  0  0  0  0  0
  139.0070   76.3110  222.4290 O   0  0  0  0  0  0  0  0  0  0  0  0
  140.7470   76.4980  220.8800 N   0  0  0  0  0  0  0  0  0  0  0  0
  142.0370   75.9890  220.4580 C   0  0  0  0  0  0  0  0  0  0  0  0
  142.6540   76.9770  219.5320 C   0  0  0  0  0  0  0  0  0  0  0  0
  141.5870   77.9920  219.3420 C   0  0  0  0  0  0  0  0  0  0  0  0
  140.6770   77.9010  220.5060 C   0  0  2  0  0  0  0  0  0  0  0  0
  140.9090   78.8480  221.6330 C   0  0  2  0  0  0  0  0  0  0  0  0
  141.8000   79.9940  221.3250 C   0  0  0  0  0  0  0  0  0  0  0  0
  142.3170   80.3830  222.6970 C   0  0  0  0  0  0  0  0  0  0  0  0
  142.6310   79.0540  223.2470 N   0  0  0  0  0  0  0  0  0  0  0  0
  141.4230   78.2860  222.9000 C   0  0  0  0  0  0  0  0  0  0  0  0
  140.2330   71.5280  223.6610 C   0  0  0  0  0  0  0  0  0  0  0  0
  139.6540   70.2770  223.4970 C   0  0  0  0  0  0  0  0  0  0  0  0
  139.5350   69.3780  224.5420 C   0  0  0  0  0  0  0  0  0  0  0  0
  140.0230   69.7720  225.7860 C   0  0  0  0  0  0  0  0  0  0  0  0
  139.9140   68.8890  226.8440 C   0  0  0  0  0  0  0  0  0  0  0  0
  140.3960   69.2610  228.1030 C   0  0  0  0  0  0  0  0  0  0  0  0
  140.2730   68.3740  229.1120 F   0  0  0  0  0  0  0  0  0  0  0  0
  140.9730   70.5110  228.2590 C   0  0  0  0  0  0  0  0  0  0  0  0
  141.0780   71.3950  227.1880 C   0  0  0  0  0  0  0  0  0  0  0  0
  140.6040   71.0330  225.9420 C   0  0  0  0  0  0  0  0  0  0  0  0
  140.6980   71.8800  224.8850 N   0  0  0  0  0  0  0  0  0  0  0  0
  138.6450   73.5830  223.0650 H   0  0  0  0  0  0  0  0  0  0  0  0
  140.3691   73.9866  220.5925 H   0  0  0  0  0  0  0  0  0  0  0  0
  138.5621   74.2704  220.6588 H   0  0  0  0  0  0  0  0  0  0  0  0
  142.6852   75.8475  221.3354 H   0  0  0  0  0  0  0  0  0  0  0  0
  141.9126   75.0218  219.9491 H   0  0  0  0  0  0  0  0  0  0  0  0
  143.5506   77.4292  219.9810 H   0  0  0  0  0  0  0  0  0  0  0  0
  142.9875   76.5255  218.5860 H   0  0  0  0  0  0  0  0  0  0  0  0
  142.0298   78.9975  219.2887 H   0  0  0  0  0  0  0  0  0  0  0  0
  141.0394   77.8092  218.4057 H   0  0  0  0  0  0  0  0  0  0  0  0
  139.6662   78.2322  220.2254 H   0  0  0  0  0  0  0  0  0  0  0  0
  139.8661   79.1683  221.7735 H   0  0  0  0  0  0  0  0  0  0  0  0
  142.6229   79.6910  220.6609 H   0  0  0  0  0  0  0  0  0  0  0  0
  141.2930   80.8153  220.7974 H   0  0  0  0  0  0  0  0  0  0  0  0
  143.2131   81.0174  222.6293 H   0  0  0  0  0  0  0  0  0  0  0  0
  141.6160   80.9773  223.3015 H   0  0  0  0  0  0  0  0  0  0  0  0
  143.4330   78.6560  222.6920 H   0  0  0  0  0  0  0  0  0  0  0  0
  141.6747   77.2233  222.7684 H   0  0  0  0  0  0  0  0  0  0  0  0
  140.6685   78.3554  223.6974 H   0  0  0  0  0  0  0  0  0  0  0  0
  139.2775   69.9911  222.5038 H   0  0  0  0  0  0  0  0  0  0  0  0
  139.0730   68.3904  224.3962 H   0  0  0  0  0  0  0  0  0  0  0  0
  139.4519   67.9017  226.6968 H   0  0  0  0  0  0  0  0  0  0  0  0
  141.3549   70.8104  229.2462 H   0  0  0  0  0  0  0  0  0  0  0  0
  141.5390   72.3829  227.3345 H   0  0  0  0  0  0  0  0  0  0  0  0
  1  2  2  0
  2  3  1  0
  3  4  1  0
  4  5  1  0
  5  6  2  0
  5  7  1  0
  7  8  1  0
  8  9  1  0
  9 10  1  0
 10 11  1  0
 11 12  1  0
 12 13  1  0
 13 14  1  0
 14 15  1  0
 15 16  1  0
  2 17  1  0
 17 18  2  0
 18 19  1  0
 19 20  2  0
 20 21  1  0
 21 22  2  0
 22 23  1  0
 22 24  1  0
 24 25  2  0
 25 26  1  0
 26 27  2  0
 11  7  1  0
 16 12  1  0
 27 17  1  0
 26 20  1  0
  3 28  1  0
  4 29  1  0
  4 30  1  0
  8 31  1  0
  8 32  1  0
  9 33  1  0
  9 34  1  0
 10 35  1  0
 10 36  1  0
 11 37  1  6
 12 38  1  1
 13 39  1  0
 13 40  1  0
 14 41  1  0
 14 42  1  0
 15 43  1  0
 16 44  1  0
 16 45  1  0
 18 46  1  0
 19 47  1  0
 21 48  1  0
 24 49  1  0
 25 50  1  0
M  END
>  <smiles>  (41) 
O=C(NCC(=O)N1CCCC1C1CCNC1)c1ccc2cc(F)ccc2n1

>  <score_type>  (41) 
oracle

>  <origin>  (41) 
autodockgpu

>  <m_score__min__energy>  (41) 
-8.9199999999999999

>  <m_primary>  (41) 
energy

>  <rmsd>  (41) 
2.0225035673218428

>  <m_score__min__rmsd>  (41) 
2.0225035673218428

>  <meeko>  (41) 
{"free_energy": -8.57, "intermolecular_energy": -10.06, "internal_energy": -1.24, "cluster_size": 15, "cluster_id": 2, "rank_in_cluster": 1}

>  <energy>  (41) 
-7.8

>  <cluster_rmsd>  (41) 
0.94

>  <cluster>  (41) 
2

$$$$

     RDKit          3D

 50 53  0  0  0  0  0  0  0  0999 V2000
  141.2990   72.1260  221.5860 O   0  0  0  0  0  0  0  0  0  0  0  0
  140.4030   72.3550  222.4340 C   0  0  0  0  0  0  0  0  0  0  0  0
  139.5510   73.4540  222.2160 N   0  0  0  0  0  0  0  0  0  0  0  0
  139.7220   74.2650  221.0630 C   0  0  0  0  0  0  0  0  0  0  0  0
  141.0140   74.9870  221.0230 C   0  0  0  0  0  0  0  0  0  0  0  0
  141.4440   75.5840  222.0620 O   0  0  0  0  0  0  0  0  0  0  0  0
  141.7750   75.0140  219.8200 N   0  0  0  0  0  0  0  0  0  0  0  0
  141.2500   74.8500  218.4790 C   0  0  0  0  0  0  0  0  0  0  0  0
  142.3000   75.2630  217.5080 C   0  0  0  0  0  0  0  0  0  0  0  0
  143.3820   75.8030  218.3720 C   0  0  0  0  0  0  0  0  0  0  0  0
  143.2110   75.2100  219.7170 C   0  0  2  0  0  0  0  0  0  0  0  0
  144.0190   74.0000  220.0390 C   0  0  2  0  0  0  0  0  0  0  0  0
  145.2330   74.2480  220.8570 C   0  0  0  0  0  0  0  0  0  0  0  0
  146.1070   73.0570  220.5120 C   0  0  0  0  0  0  0  0  0  0  0  0
  145.9340   73.0190  219.0500 N   0  0  0  0  0  0  0  0  0  0  0  0
  144.4750   73.1640  218.9100 C   0  0  0  0  0  0  0  0  0  0  0  0
  140.2520   71.5000  223.6100 C   0  0  0  0  0  0  0  0  0  0  0  0
  139.6340   70.2650  223.4720 C   0  0  0  0  0  0  0  0  0  0  0  0
  139.4570   69.4060  224.5420 C   0  0  0  0  0  0  0  0  0  0  0  0
  139.9290   69.8240  225.7850 C   0  0  0  0  0  0  0  0  0  0  0  0
  139.7630   68.9800  226.8680 C   0  0  0  0  0  0  0  0  0  0  0  0
  140.2270   69.3770  228.1250 C   0  0  0  0  0  0  0  0  0  0  0  0
  140.0480   68.5290  229.1600 F   0  0  0  0  0  0  0  0  0  0  0  0
  140.8440   70.6110  228.2560 C   0  0  0  0  0  0  0  0  0  0  0  0
  141.0070   71.4550  227.1600 C   0  0  0  0  0  0  0  0  0  0  0  0
  140.5500   71.0680  225.9150 C   0  0  0  0  0  0  0  0  0  0  0  0
  140.7000   71.8760  224.8340 N   0  0  0  0  0  0  0  0  0  0  0  0
  138.7980   73.6310  222.9450 H   0  0  0  0  0  0  0  0  0  0  0  0
  139.6578   73.6206  220.1738 H   0  0  0  0  0  0  0  0  0  0  0  0
  138.9305   75.0285  221.0897 H   0  0  0  0  0  0  0  0  0  0  0  0
  140.9830   73.7962  218.3112 H   0  0  0  0  0  0  0  0  0  0  0  0
  140.3502   75.4690  218.3477 H   0  0  0  0  0  0  0  0  0  0  0  0
  142.6564   74.4012  216.9247 H   0  0  0  0  0  0  0  0  0  0  0  0
  141.9367   75.9941  216.7708 H   0  0  0  0  0  0  0  0  0  0  0  0
  144.3644   75.5268  217.9613 H   0  0  0  0  0  0  0  0  0  0  0  0
  143.3285   76.9006  218.4215 H   0  0  0  0  0  0  0  0  0  0  0  0
  143.6190   75.8841  220.4846 H   0  0  0  0  0  0  0  0  0  0  0  0
  143.2489   73.4556  220.6052 H   0  0  0  0  0  0  0  0  0  0  0  0
  145.7182   75.1934  220.5726 H   0  0  0  0  0  0  0  0  0  0  0  0
  145.0259   74.3442  221.9330 H   0  0  0  0  0  0  0  0  0  0  0  0
  147.1567   73.2273  220.7934 H   0  0  0  0  0  0  0  0  0  0  0  0
  145.8411   72.1247  221.0317 H   0  0  0  0  0  0  0  0  0  0  0  0
  146.3820   73.8850  218.6500 H   0  0  0  0  0  0  0  0  0  0  0  0
  144.2330   73.6529  217.9548 H   0  0  0  0  0  0  0  0  0  0  0  0
  143.9781   72.1827  218.9196 H   0  0  0  0  0  0  0  0  0  0  0  0
  139.2730   69.9590  222.4790 H   0  0  0  0  0  0  0  0  0  0  0  0
  138.9630   68.4312  224.4166 H   0  0  0  0  0  0  0  0  0  0  0  0
  139.2701   68.0048  226.7411 H   0  0  0  0  0  0  0  0  0  0  0  0
  141.2114   70.9295  229.2427 H   0  0  0  0  0  0  0  0  0  0  0  0
  141.4999   72.4303  227.2858 H   0  0  0  0  0  0  0  0  0  0  0  0
  1  2  2  0
  2  3  1  0
  3  4  1  0
  4  5  1  0
  5  6  2  0
  5  7  1  0
  7  8  1  0
  8  9  1  0
  9 10  1  0
 10 11  1  0
 11 12  1  0
 12 13  1  0
 13 14  1  0
 14 15  1  0
 15 16  1  0
  2 17  1  0
 17 18  2  0
 18 19  1  0
 19 20  2  0
 20 21  1  0
 21 22  2  0
 22 23  1  0
 22 24  1  0
 24 25  2  0
 25 26  1  0
 26 27  2  0
 11  7  1  0
 16 12  1  0
 27 17  1  0
 26 20  1  0
  3 28  1  0
  4 29  1  0
  4 30  1  0
  8 31  1  0
  8 32  1  0
  9 33  1  0
  9 34  1  0
 10 35  1  0
 10 36  1  0
 11 37  1  1
 12 38  1  1
 13 39  1  0
 13 40  1  0
 14 41  1  0
 14 42  1  0
 15 43  1  0
 16 44  1  0
 16 45  1  0
 18 46  1  0
 19 47  1  0
 21 48  1  0
 24 49  1  0
 25 50  1  0
M  END
>  <smiles>  (42) 
O=C(NCC(=O)N1CCCC1C1CCNC1)c1ccc2cc(F)ccc2n1

>  <score_type>  (42) 
oracle

>  <origin>  (42) 
autodockgpu

>  <m_score__min__energy>  (42) 
-8.9199999999999999

>  <m_primary>  (42) 
energy

>  <rmsd>  (42) 
1.9436661215668318

>  <m_score__min__rmsd>  (42) 
1.9436661215668318

>  <meeko>  (42) 
{"free_energy": -8.86, "intermolecular_energy": -10.35, "internal_energy": -1.31, "cluster_size": 32, "cluster_id": 1, "rank_in_cluster": 6}

>  <energy>  (42) 
-7.76

>  <cluster_rmsd>  (42) 
0.94

>  <cluster>  (42) 
2

$$$$

     RDKit          3D

 50 53  0  0  0  0  0  0  0  0999 V2000
  138.6950   71.7540  222.5650 O   0  0  0  0  0  0  0  0  0  0  0  0
  139.8540   71.8050  223.0410 C   0  0  0  0  0  0  0  0  0  0  0  0
  140.8430   72.4850  222.3040 N   0  0  0  0  0  0  0  0  0  0  0  0
  140.5110   73.0860  221.0620 C   0  0  0  0  0  0  0  0  0  0  0  0
  140.9460   74.4970  220.9410 C   0  0  0  0  0  0  0  0  0  0  0  0
  140.5100   75.3710  221.7580 O   0  0  0  0  0  0  0  0  0  0  0  0
  141.8530   74.8740  219.9110 N   0  0  0  0  0  0  0  0  0  0  0  0
  141.5100   75.1180  218.5240 C   0  0  0  0  0  0  0  0  0  0  0  0
  142.6600   75.7940  217.8660 C   0  0  0  0  0  0  0  0  0  0  0  0
  143.6040   76.0480  218.9850 C   0  0  0  0  0  0  0  0  0  0  0  0
  143.2830   75.0840  220.0610 C   0  0  2  0  0  0  0  0  0  0  0  0
  144.0840   73.8280  220.1170 C   0  0  2  0  0  0  0  0  0  0  0  0
  145.3470   73.9150  220.8910 C   0  0  0  0  0  0  0  0  0  0  0  0
  146.1760   72.7960  220.2900 C   0  0  0  0  0  0  0  0  0  0  0  0
  145.9190   73.0190  218.8570 N   0  0  0  0  0  0  0  0  0  0  0  0
  144.4580   73.2000  218.8320 C   0  0  0  0  0  0  0  0  0  0  0  0
  140.1630   71.1770  224.3240 C   0  0  0  0  0  0  0  0  0  0  0  0
  140.6850   71.9550  225.3490 C   0  0  0  0  0  0  0  0  0  0  0  0
  141.0000   71.4260  226.5880 C   0  0  0  0  0  0  0  0  0  0  0  0
  140.7730   70.0650  226.7810 C   0  0  0  0  0  0  0  0  0  0  0  0
  141.0810   69.5170  228.0130 C   0  0  0  0  0  0  0  0  0  0  0  0
  140.8630   68.1530  228.2310 C   0  0  0  0  0  0  0  0  0  0  0  0
  141.1760   67.6520  229.4450 F   0  0  0  0  0  0  0  0  0  0  0  0
  140.3420   67.3830  227.2040 C   0  0  0  0  0  0  0  0  0  0  0  0
  140.0350   67.9430  225.9680 C   0  0  0  0  0  0  0  0  0  0  0  0
  140.2480   69.2890  225.7450 C   0  0  0  0  0  0  0  0  0  0  0  0
  139.9550   69.8550  224.5460 N   0  0  0  0  0  0  0  0  0  0  0  0
  141.8190   72.5180  222.7250 H   0  0  0  0  0  0  0  0  0  0  0  0
  140.9888   72.5064  220.2584 H   0  0  0  0  0  0  0  0  0  0  0  0
  139.4134   73.0837  220.9902 H   0  0  0  0  0  0  0  0  0  0  0  0
  141.3026   74.1628  218.0194 H   0  0  0  0  0  0  0  0  0  0  0  0
  140.6140   75.7532  218.4632 H   0  0  0  0  0  0  0  0  0  0  0  0
  143.1170   75.1418  217.1072 H   0  0  0  0  0  0  0  0  0  0  0  0
  142.3689   76.7128  217.3359 H   0  0  0  0  0  0  0  0  0  0  0  0
  144.6395   75.9005  218.6444 H   0  0  0  0  0  0  0  0  0  0  0  0
  143.5076   77.0819  219.3478 H   0  0  0  0  0  0  0  0  0  0  0  0
  143.5668   75.4984  221.0397 H   0  0  0  0  0  0  0  0  0  0  0  0
  143.3369   73.2002  220.6246 H   0  0  0  0  0  0  0  0  0  0  0  0
  145.8340   74.8911  220.7493 H   0  0  0  0  0  0  0  0  0  0  0  0
  145.2036   73.8206  221.9775 H   0  0  0  0  0  0  0  0  0  0  0  0
  147.2432   72.9040  220.5338 H   0  0  0  0  0  0  0  0  0  0  0  0
  145.9219   71.7889  220.6522 H   0  0  0  0  0  0  0  0  0  0  0  0
  146.3600   73.9370  218.5900 H   0  0  0  0  0  0  0  0  0  0  0  0
  144.1714   73.8524  217.9940 H   0  0  0  0  0  0  0  0  0  0  0  0
  143.9430   72.2373  218.6982 H   0  0  0  0  0  0  0  0  0  0  0  0
  140.8536   73.0272  225.1700 H   0  0  0  0  0  0  0  0  0  0  0  0
  141.4136   72.0556  227.3896 H   0  0  0  0  0  0  0  0  0  0  0  0
  141.4936   70.1482  228.8139 H   0  0  0  0  0  0  0  0  0  0  0  0
  140.1679   66.3094  227.3687 H   0  0  0  0  0  0  0  0  0  0  0  0
  139.6219   67.3124  225.1670 H   0  0  0  0  0  0  0  0  0  0  0  0
  1  2  2  0
  2  3  1  0
  3  4  1  0
  4  5  1  0
  5  6  2  0
  5  7  1  0
  7  8  1  0
  8  9  1  0
  9 10  1  0
 10 11  1  0
 11 12  1  0
 12 13  1  0
 13 14  1  0
 14 15  1  0
 15 16  1  0
  2 17  1  0
 17 18  2  0
 18 19  1  0
 19 20  2  0
 20 21  1  0
 21 22  2  0
 22 23  1  0
 22 24  1  0
 24 25  2  0
 25 26  1  0
 26 27  2  0
 11  7  1  0
 16 12  1  0
 27 17  1  0
 26 20  1  0
  3 28  1  0
  4 29  1  0
  4 30  1  0
  8 31  1  0
  8 32  1  0
  9 33  1  0
  9 34  1  0
 10 35  1  0
 10 36  1  0
 11 37  1  1
 12 38  1  1
 13 39  1  0
 13 40  1  0
 14 41  1  0
 14 42  1  0
 15 43  1  0
 16 44  1  0
 16 45  1  0
 18 46  1  0
 19 47  1  0
 21 48  1  0
 24 49  1  0
 25 50  1  0
M  END
>  <smiles>  (43) 
O=C(NCC(=O)N1CCCC1C1CCNC1)c1ccc2cc(F)ccc2n1

>  <score_type>  (43) 
oracle

>  <origin>  (43) 
autodockgpu

>  <m_score__min__energy>  (43) 
-8.9199999999999999

>  <m_primary>  (43) 
energy

>  <rmsd>  (43) 
3.122224815954699

>  <m_score__min__rmsd>  (43) 
3.122224815954699

>  <meeko>  (43) 
{"free_energy": -8.3, "intermolecular_energy": -9.8, "internal_energy": -1.06, "cluster_size": 32, "cluster_id": 1, "rank_in_cluster": 20}

>  <energy>  (43) 
-7.74

>  <cluster_rmsd>  (43) 
0.96

>  <cluster>  (43) 
2

$$$$

     RDKit          3D

 50 53  0  0  0  0  0  0  0  0999 V2000
  140.5240   72.2400  221.0970 O   0  0  0  0  0  0  0  0  0  0  0  0
  140.0950   72.6150  222.2150 C   0  0  0  0  0  0  0  0  0  0  0  0
  139.6230   73.9360  222.3320 N   0  0  0  0  0  0  0  0  0  0  0  0
  139.6440   74.7980  221.2050 C   0  0  0  0  0  0  0  0  0  0  0  0
  140.1980   76.1430  221.4850 C   0  0  0  0  0  0  0  0  0  0  0  0
  141.4560   76.3030  221.5960 O   0  0  0  0  0  0  0  0  0  0  0  0
  139.3220   77.2550  221.6330 N   0  0  0  0  0  0  0  0  0  0  0  0
  138.3930   77.7430  220.6330 C   0  0  0  0  0  0  0  0  0  0  0  0
  137.4540   78.6940  221.2880 C   0  0  0  0  0  0  0  0  0  0  0  0
  137.8090   78.6020  222.7270 C   0  0  0  0  0  0  0  0  0  0  0  0
  139.1990   78.1010  222.8090 C   0  0  2  0  0  0  0  0  0  0  0  0
  140.2850   79.1110  222.9510 C   0  0  2  0  0  0  0  0  0  0  0  0
  140.7500   79.7250  221.6820 C   0  0  0  0  0  0  0  0  0  0  0  0
  142.1520   80.1830  222.0360 C   0  0  0  0  0  0  0  0  0  0  0  0
  142.6430   78.9960  222.7560 N   0  0  0  0  0  0  0  0  0  0  0  0
  141.5160   78.6960  223.6560 C   0  0  0  0  0  0  0  0  0  0  0  0
  140.0860   71.7020  223.3560 C   0  0  0  0  0  0  0  0  0  0  0  0
  139.5680   70.4240  223.1950 C   0  0  0  0  0  0  0  0  0  0  0  0
  139.5290   69.5100  224.2330 C   0  0  0  0  0  0  0  0  0  0  0  0
  140.0340   69.9160  225.4660 C   0  0  0  0  0  0  0  0  0  0  0  0
  140.0040   69.0170  226.5160 C   0  0  0  0  0  0  0  0  0  0  0  0
  140.5040   69.4010  227.7640 C   0  0  0  0  0  0  0  0  0  0  0  0
  140.4590   68.4980  228.7660 F   0  0  0  0  0  0  0  0  0  0  0  0
  141.0190   70.6780  227.9170 C   0  0  0  0  0  0  0  0  0  0  0  0
  141.0450   71.5770  226.8550 C   0  0  0  0  0  0  0  0  0  0  0  0
  140.5530   71.2040  225.6200 C   0  0  0  0  0  0  0  0  0  0  0  0
  140.5690   72.0660  224.5710 N   0  0  0  0  0  0  0  0  0  0  0  0
  139.2630   74.2350  223.2870 H   0  0  0  0  0  0  0  0  0  0  0  0
  140.2565   74.3280  220.4215 H   0  0  0  0  0  0  0  0  0  0  0  0
  138.5983   74.9428  220.8957 H   0  0  0  0  0  0  0  0  0  0  0  0
  138.9451   78.2579  219.8329 H   0  0  0  0  0  0  0  0  0  0  0  0
  137.8348   76.9030  220.1940 H   0  0  0  0  0  0  0  0  0  0  0  0
  137.6045   79.7164  220.9112 H   0  0  0  0  0  0  0  0  0  0  0  0
  136.3984   78.4544  221.0926 H   0  0  0  0  0  0  0  0  0  0  0  0
  137.7389   79.5947  223.1957 H   0  0  0  0  0  0  0  0  0  0  0  0
  137.1206   77.9252  223.2543 H   0  0  0  0  0  0  0  0  0  0  0  0
  139.3541   77.5652  223.7571 H   0  0  0  0  0  0  0  0  0  0  0  0
  139.7346   79.8302  223.5753 H   0  0  0  0  0  0  0  0  0  0  0  0
  140.7665   78.9877  220.8658 H   0  0  0  0  0  0  0  0  0  0  0  0
  140.1002   80.5366  221.3226 H   0  0  0  0  0  0  0  0  0  0  0  0
  142.7513   80.3906  221.1373 H   0  0  0  0  0  0  0  0  0  0  0  0
  142.1989   81.1209  222.6088 H   0  0  0  0  0  0  0  0  0  0  0  0
  142.7180   78.2060  222.0620 H   0  0  0  0  0  0  0  0  0  0  0  0
  141.4823   77.6185  223.8746 H   0  0  0  0  0  0  0  0  0  0  0  0
  141.6219   79.2287  224.6126 H   0  0  0  0  0  0  0  0  0  0  0  0
  139.1760   70.1286  222.2106 H   0  0  0  0  0  0  0  0  0  0  0  0
  139.1149   68.5010  224.0899 H   0  0  0  0  0  0  0  0  0  0  0  0
  139.5903   68.0082  226.3708 H   0  0  0  0  0  0  0  0  0  0  0  0
  141.4146   70.9870  228.8958 H   0  0  0  0  0  0  0  0  0  0  0  0
  141.4581   72.5862  226.9997 H   0  0  0  0  0  0  0  0  0  0  0  0
  1  2  2  0
  2  3  1  0
  3  4  1  0
  4  5  1  0
  5  6  2  0
  5  7  1  0
  7  8  1  0
  8  9  1  0
  9 10  1  0
 10 11  1  0
 11 12  1  0
 12 13  1  0
 13 14  1  0
 14 15  1  0
 15 16  1  0
  2 17  1  0
 17 18  2  0
 18 19  1  0
 19 20  2  0
 20 21  1  0
 21 22  2  0
 22 23  1  0
 22 24  1  0
 24 25  2  0
 25 26  1  0
 26 27  2  0
 11  7  1  0
 16 12  1  0
 27 17  1  0
 26 20  1  0
  3 28  1  0
  4 29  1  0
  4 30  1  0
  8 31  1  0
  8 32  1  0
  9 33  1  0
  9 34  1  0
 10 35  1  0
 10 36  1  0
 11 37  1  1
 12 38  1  1
 13 39  1  0
 13 40  1  0
 14 41  1  0
 14 42  1  0
 15 43  1  0
 16 44  1  0
 16 45  1  0
 18 46  1  0
 19 47  1  0
 21 48  1  0
 24 49  1  0
 25 50  1  0
M  END
>  <smiles>  (44) 
O=C(NCC(=O)N1CCCC1C1CCNC1)c1ccc2cc(F)ccc2n1

>  <score_type>  (44) 
oracle

>  <origin>  (44) 
autodockgpu

>  <m_score__min__energy>  (44) 
-8.9199999999999999

>  <m_primary>  (44) 
energy

>  <rmsd>  (44) 
2.8718389905726447

>  <m_score__min__rmsd>  (44) 
2.8718389905726447

>  <meeko>  (44) 
{"free_energy": -7.72, "intermolecular_energy": -9.21, "internal_energy": -1.67, "cluster_size": 15, "cluster_id": 2, "rank_in_cluster": 13}

>  <energy>  (44) 
-7.72

>  <cluster_rmsd>  (44) 
0.97

>  <cluster>  (44) 
2

$$$$

     RDKit          3D

 50 53  0  0  0  0  0  0  0  0999 V2000
  141.2440   72.6300  221.8700 O   0  0  0  0  0  0  0  0  0  0  0  0
  140.2300   72.5450  222.6030 C   0  0  0  0  0  0  0  0  0  0  0  0
  139.1440   73.4000  222.3320 N   0  0  0  0  0  0  0  0  0  0  0  0
  139.2210   74.3210  221.2550 C   0  0  0  0  0  0  0  0  0  0  0  0
  139.6350   75.6850  221.6580 C   0  0  0  0  0  0  0  0  0  0  0  0
  139.0580   76.2630  222.6350 O   0  0  0  0  0  0  0  0  0  0  0  0
  140.6780   76.3480  220.9530 N   0  0  0  0  0  0  0  0  0  0  0  0
  141.9620   75.7750  220.5980 C   0  0  0  0  0  0  0  0  0  0  0  0
  142.6160   76.6670  219.6020 C   0  0  0  0  0  0  0  0  0  0  0  0
  141.5770   77.6870  219.3090 C   0  0  0  0  0  0  0  0  0  0  0  0
  140.6470   77.7150  220.4610 C   0  0  2  0  0  0  0  0  0  0  0  0
  140.8860   78.7480  221.5080 C   0  0  2  0  0  0  0  0  0  0  0  0
  141.7490   79.8820  221.0940 C   0  0  0  0  0  0  0  0  0  0  0  0
  142.2870   80.3830  222.4220 C   0  0  0  0  0  0  0  0  0  0  0  0
  142.6360   79.1050  223.0630 N   0  0  0  0  0  0  0  0  0  0  0  0
  141.4360   78.2930  222.8020 C   0  0  0  0  0  0  0  0  0  0  0  0
  140.1820   71.5850  223.7040 C   0  0  0  0  0  0  0  0  0  0  0  0
  139.6280   70.3320  223.4820 C   0  0  0  0  0  0  0  0  0  0  0  0
  139.5500   69.3750  224.4790 C   0  0  0  0  0  0  0  0  0  0  0  0
  140.0550   69.7110  225.7330 C   0  0  0  0  0  0  0  0  0  0  0  0
  139.9870   68.7690  226.7420 C   0  0  0  0  0  0  0  0  0  0  0  0
  140.4860   69.0820  228.0100 C   0  0  0  0  0  0  0  0  0  0  0  0
  140.4030   68.1380  228.9710 F   0  0  0  0  0  0  0  0  0  0  0  0
  141.0390   70.3350  228.2240 C   0  0  0  0  0  0  0  0  0  0  0  0
  141.1020   71.2780  227.2020 C   0  0  0  0  0  0  0  0  0  0  0  0
  140.6110   70.9740  225.9480 C   0  0  0  0  0  0  0  0  0  0  0  0
  140.6640   71.8800  224.9370 N   0  0  0  0  0  0  0  0  0  0  0  0
  138.2940   73.3120  222.9640 H   0  0  0  0  0  0  0  0  0  0  0  0
  139.9501   73.9396  220.5250 H   0  0  0  0  0  0  0  0  0  0  0  0
  138.2076   74.4065  220.8359 H   0  0  0  0  0  0  0  0  0  0  0  0
  142.5934   75.6941  221.4951 H   0  0  0  0  0  0  0  0  0  0  0  0
  141.8225   74.7707  220.1714 H   0  0  0  0  0  0  0  0  0  0  0  0
  143.5168   77.1349  220.0260 H   0  0  0  0  0  0  0  0  0  0  0  0
  142.9517   76.1293  218.7030 H   0  0  0  0  0  0  0  0  0  0  0  0
  142.0450   78.6740  219.1795 H   0  0  0  0  0  0  0  0  0  0  0  0
  141.0396   77.4389  218.3818 H   0  0  0  0  0  0  0  0  0  0  0  0
  139.6486   78.0434  220.1364 H   0  0  0  0  0  0  0  0  0  0  0  0
  139.8405   79.0603  221.6477 H   0  0  0  0  0  0  0  0  0  0  0  0
  142.5635   79.5432  220.4369 H   0  0  0  0  0  0  0  0  0  0  0  0
  141.2164   80.6520  220.5166 H   0  0  0  0  0  0  0  0  0  0  0  0
  143.1698   81.0252  222.2873 H   0  0  0  0  0  0  0  0  0  0  0  0
  141.5880   81.0099  222.9951 H   0  0  0  0  0  0  0  0  0  0  0  0
  143.4340   78.6800  222.5220 H   0  0  0  0  0  0  0  0  0  0  0  0
  141.7044   77.2277  222.7459 H   0  0  0  0  0  0  0  0  0  0  0  0
  140.6969   78.4103  223.6082 H   0  0  0  0  0  0  0  0  0  0  0  0
  139.2384   70.0917  222.4817 H   0  0  0  0  0  0  0  0  0  0  0  0
  139.1061   68.3868  224.2883 H   0  0  0  0  0  0  0  0  0  0  0  0
  139.5438   67.7809  226.5490 H   0  0  0  0  0  0  0  0  0  0  0  0
  141.4348   70.5885  229.2185 H   0  0  0  0  0  0  0  0  0  0  0  0
  141.5437   72.2670  227.3938 H   0  0  0  0  0  0  0  0  0  0  0  0
  1  2  2  0
  2  3  1  0
  3  4  1  0
  4  5  1  0
  5  6  2  0
  5  7  1  0
  7  8  1  0
  8  9  1  0
  9 10  1  0
 10 11  1  0
 11 12  1  0
 12 13  1  0
 13 14  1  0
 14 15  1  0
 15 16  1  0
  2 17  1  0
 17 18  2  0
 18 19  1  0
 19 20  2  0
 20 21  1  0
 21 22  2  0
 22 23  1  0
 22 24  1  0
 24 25  2  0
 25 26  1  0
 26 27  2  0
 11  7  1  0
 16 12  1  0
 27 17  1  0
 26 20  1  0
  3 28  1  0
  4 29  1  0
  4 30  1  0
  8 31  1  0
  8 32  1  0
  9 33  1  0
  9 34  1  0
 10 35  1  0
 10 36  1  0
 11 37  1  6
 12 38  1  1
 13 39  1  0
 13 40  1  0
 14 41  1  0
 14 42  1  0
 15 43  1  0
 16 44  1  0
 16 45  1  0
 18 46  1  0
 19 47  1  0
 21 48  1  0
 24 49  1  0
 25 50  1  0
M  END
>  <smiles>  (45) 
O=C(NCC(=O)N1CCCC1C1CCNC1)c1ccc2cc(F)ccc2n1

>  <score_type>  (45) 
oracle

>  <origin>  (45) 
autodockgpu

>  <m_score__min__energy>  (45) 
-8.9199999999999999

>  <m_primary>  (45) 
energy

>  <rmsd>  (45) 
1.9772203540349638

>  <m_score__min__rmsd>  (45) 
1.9772203540349638

>  <meeko>  (45) 
{"free_energy": -8.5, "intermolecular_energy": -9.99, "internal_energy": -1.22, "cluster_size": 15, "cluster_id": 2, "rank_in_cluster": 4}

>  <energy>  (45) 
-7.72

>  <cluster_rmsd>  (45) 
1.34

>  <cluster>  (45) 
2

$$$$

     RDKit          3D

 50 53  0  0  0  0  0  0  0  0999 V2000
  140.3840   73.4590  222.3260 O   0  0  0  0  0  0  0  0  0  0  0  0
  140.0250   72.2590  222.2620 C   0  0  0  0  0  0  0  0  0  0  0  0
  139.6560   71.7460  221.0040 N   0  0  0  0  0  0  0  0  0  0  0  0
  139.6980   72.5820  219.8580 C   0  0  0  0  0  0  0  0  0  0  0  0
  140.9760   72.5160  219.1110 C   0  0  0  0  0  0  0  0  0  0  0  0
  141.2700   71.4720  218.4430 O   0  0  0  0  0  0  0  0  0  0  0  0
  141.8740   73.6190  219.1420 N   0  0  0  0  0  0  0  0  0  0  0  0
  142.0650   74.5900  218.0820 C   0  0  0  0  0  0  0  0  0  0  0  0
  142.8330   75.7410  218.6300 C   0  0  0  0  0  0  0  0  0  0  0  0
  142.9350   75.4340  220.0800 C   0  0  0  0  0  0  0  0  0  0  0  0
  142.7620   73.9730  220.2370 C   0  0  2  0  0  0  0  0  0  0  0  0
  143.9960   73.1410  220.3180 C   0  0  2  0  0  0  0  0  0  0  0  0
  145.1430   73.7760  221.0140 C   0  0  0  0  0  0  0  0  0  0  0  0
  146.3300   73.0330  220.4310 C   0  0  0  0  0  0  0  0  0  0  0  0
  145.9640   73.0300  219.0050 N   0  0  0  0  0  0  0  0  0  0  0  0
  144.5500   72.6190  219.0520 C   0  0  0  0  0  0  0  0  0  0  0  0
  139.9940   71.4230  223.4600 C   0  0  0  0  0  0  0  0  0  0  0  0
  139.3980   70.1710  223.3940 C   0  0  0  0  0  0  0  0  0  0  0  0
  139.3340   69.3280  224.4900 C   0  0  0  0  0  0  0  0  0  0  0  0
  139.8960   69.7800  225.6820 C   0  0  0  0  0  0  0  0  0  0  0  0
  139.8420   68.9530  226.7880 C   0  0  0  0  0  0  0  0  0  0  0  0
  140.3980   69.3840  227.9960 C   0  0  0  0  0  0  0  0  0  0  0  0
  140.3270   68.5500  229.0560 F   0  0  0  0  0  0  0  0  0  0  0  0
  140.9910   70.6340  228.0550 C   0  0  0  0  0  0  0  0  0  0  0  0
  141.0410   71.4610  226.9360 C   0  0  0  0  0  0  0  0  0  0  0  0
  140.4930   71.0410  225.7400 C   0  0  0  0  0  0  0  0  0  0  0  0
  140.5310   71.8320  224.6370 N   0  0  0  0  0  0  0  0  0  0  0  0
  139.3560   70.7260  220.9690 H   0  0  0  0  0  0  0  0  0  0  0  0
  138.8853   72.2814  219.1804 H   0  0  0  0  0  0  0  0  0  0  0  0
  139.5907   73.6170  220.2147 H   0  0  0  0  0  0  0  0  0  0  0  0
  142.6250   74.1305  217.2542 H   0  0  0  0  0  0  0  0  0  0  0  0
  141.0904   74.9324  217.7039 H   0  0  0  0  0  0  0  0  0  0  0  0
  143.8305   75.8022  218.1703 H   0  0  0  0  0  0  0  0  0  0  0  0
  142.3515   76.7098  218.4310 H   0  0  0  0  0  0  0  0  0  0  0  0
  143.9212   75.7387  220.4602 H   0  0  0  0  0  0  0  0  0  0  0  0
  142.1660   75.9790  220.6471 H   0  0  0  0  0  0  0  0  0  0  0  0
  142.3498   73.7438  221.2308 H   0  0  0  0  0  0  0  0  0  0  0  0
  143.5750   72.3082  220.9004 H   0  0  0  0  0  0  0  0  0  0  0  0
  145.1981   74.8516  220.7905 H   0  0  0  0  0  0  0  0  0  0  0  0
  145.0809   73.7135  222.1105 H   0  0  0  0  0  0  0  0  0  0  0  0
  147.2733   73.5704  220.6079 H   0  0  0  0  0  0  0  0  0  0  0  0
  146.5070   72.0370  220.8630 H   0  0  0  0  0  0  0  0  0  0  0  0
  145.9960   74.0260  218.6620 H   0  0  0  0  0  0  0  0  0  0  0  0
  144.0038   73.0427  218.1964 H   0  0  0  0  0  0  0  0  0  0  0  0
  144.4551   71.5243  219.0012 H   0  0  0  0  0  0  0  0  0  0  0  0
  138.9627   69.8382  222.4402 H   0  0  0  0  0  0  0  0  0  0  0  0
  138.8575   68.3388  224.4224 H   0  0  0  0  0  0  0  0  0  0  0  0
  139.3655   67.9640  226.7183 H   0  0  0  0  0  0  0  0  0  0  0  0
  141.4302   70.9796  229.0024 H   0  0  0  0  0  0  0  0  0  0  0  0
  141.5175   72.4500  227.0047 H   0  0  0  0  0  0  0  0  0  0  0  0
  1  2  2  0
  2  3  1  0
  3  4  1  0
  4  5  1  0
  5  6  2  0
  5  7  1  0
  7  8  1  0
  8  9  1  0
  9 10  1  0
 10 11  1  0
 11 12  1  0
 12 13  1  0
 13 14  1  0
 14 15  1  0
 15 16  1  0
  2 17  1  0
 17 18  2  0
 18 19  1  0
 19 20  2  0
 20 21  1  0
 21 22  2  0
 22 23  1  0
 22 24  1  0
 24 25  2  0
 25 26  1  0
 26 27  2  0
 11  7  1  0
 16 12  1  0
 27 17  1  0
 26 20  1  0
  3 28  1  0
  4 29  1  0
  4 30  1  0
  8 31  1  0
  8 32  1  0
  9 33  1  0
  9 34  1  0
 10 35  1  0
 10 36  1  0
 11 37  1  1
 12 38  1  1
 13 39  1  0
 13 40  1  0
 14 41  1  0
 14 42  1  0
 15 43  1  0
 16 44  1  0
 16 45  1  0
 18 46  1  0
 19 47  1  0
 21 48  1  0
 24 49  1  0
 25 50  1  0
M  END
>  <smiles>  (46) 
O=C(NCC(=O)N1CCCC1C1CCNC1)c1ccc2cc(F)ccc2n1

>  <score_type>  (46) 
oracle

>  <origin>  (46) 
autodockgpu

>  <m_score__min__energy>  (46) 
-8.9199999999999999

>  <m_primary>  (46) 
energy

>  <rmsd>  (46) 
2.5376912621434684

>  <m_score__min__rmsd>  (46) 
2.5376912621434684

>  <meeko>  (46) 
{"free_energy": -8.25, "intermolecular_energy": -9.74, "internal_energy": -1.38, "cluster_size": 32, "cluster_id": 1, "rank_in_cluster": 22}

>  <energy>  (46) 
-7.62

>  <cluster_rmsd>  (46) 
1.43

>  <cluster>  (46) 
2

$$$$

     RDKit          3D

 50 53  0  0  0  0  0  0  0  0999 V2000
  138.5580   72.0830  222.3550 O   0  0  0  0  0  0  0  0  0  0  0  0
  139.6530   71.5640  222.6800 C   0  0  0  0  0  0  0  0  0  0  0  0
  140.7760   71.8290  221.8720 N   0  0  0  0  0  0  0  0  0  0  0  0
  140.6450   72.6610  220.7300 C   0  0  0  0  0  0  0  0  0  0  0  0
  140.9420   74.0890  220.9890 C   0  0  0  0  0  0  0  0  0  0  0  0
  140.3770   74.6920  221.9580 O   0  0  0  0  0  0  0  0  0  0  0  0
  141.8600   74.7860  220.1540 N   0  0  0  0  0  0  0  0  0  0  0  0
  141.5180   75.5690  218.9840 C   0  0  0  0  0  0  0  0  0  0  0  0
  142.7040   76.3820  218.5980 C   0  0  0  0  0  0  0  0  0  0  0  0
  143.6740   76.1270  219.6930 C   0  0  0  0  0  0  0  0  0  0  0  0
  143.3030   74.8390  220.3220 C   0  0  2  0  0  0  0  0  0  0  0  0
  144.0190   73.6180  219.8570 C   0  0  2  0  0  0  0  0  0  0  0  0
  145.0890   73.1280  220.7620 C   0  0  0  0  0  0  0  0  0  0  0  0
  145.9800   72.3430  219.8180 C   0  0  0  0  0  0  0  0  0  0  0  0
  146.0460   73.2770  218.6810 N   0  0  0  0  0  0  0  0  0  0  0  0
  144.6340   73.6570  218.5140 C   0  0  0  0  0  0  0  0  0  0  0  0
  139.7540   70.7120  223.8630 C   0  0  0  0  0  0  0  0  0  0  0  0
  139.1880   69.4450  223.8330 C   0  0  0  0  0  0  0  0  0  0  0  0
  139.2470   68.5870  224.9170 C   0  0  0  0  0  0  0  0  0  0  0  0
  139.9040   69.0390  226.0590 C   0  0  0  0  0  0  0  0  0  0  0  0
  139.9740   68.1970  227.1540 C   0  0  0  0  0  0  0  0  0  0  0  0
  140.6280   68.6280  228.3120 C   0  0  0  0  0  0  0  0  0  0  0  0
  140.6760   67.7800  229.3610 F   0  0  0  0  0  0  0  0  0  0  0  0
  141.1910   69.8940  228.3340 C   0  0  0  0  0  0  0  0  0  0  0  0
  141.1150   70.7360  227.2290 C   0  0  0  0  0  0  0  0  0  0  0  0
  140.4710   70.3160  226.0810 C   0  0  0  0  0  0  0  0  0  0  0  0
  140.3870   71.1220  224.9920 N   0  0  0  0  0  0  0  0  0  0  0  0
  141.6950   71.3810  222.1640 H   0  0  0  0  0  0  0  0  0  0  0  0
  141.3376   72.2983  219.9562 H   0  0  0  0  0  0  0  0  0  0  0  0
  139.5925   72.6064  220.4149 H   0  0  0  0  0  0  0  0  0  0  0  0
  141.2420   74.8989  218.1565 H   0  0  0  0  0  0  0  0  0  0  0  0
  140.6653   76.2273  219.2065 H   0  0  0  0  0  0  0  0  0  0  0  0
  143.1086   76.0513  217.6301 H   0  0  0  0  0  0  0  0  0  0  0  0
  142.4687   77.4496  218.4757 H   0  0  0  0  0  0  0  0  0  0  0  0
  144.6939   76.0664  219.2853 H   0  0  0  0  0  0  0  0  0  0  0  0
  143.6488   76.9416  220.4318 H   0  0  0  0  0  0  0  0  0  0  0  0
  143.6255   74.8218  221.3735 H   0  0  0  0  0  0  0  0  0  0  0  0
  143.1542   72.9384  219.8401 H   0  0  0  0  0  0  0  0  0  0  0  0
  145.6356   73.9647  221.2216 H   0  0  0  0  0  0  0  0  0  0  0  0
  144.7118   72.5331  221.6069 H   0  0  0  0  0  0  0  0  0  0  0  0
  146.9736   72.1608  220.2533 H   0  0  0  0  0  0  0  0  0  0  0  0
  145.6120   71.3372  219.5670 H   0  0  0  0  0  0  0  0  0  0  0  0
  146.5730   74.1330  218.9980 H   0  0  0  0  0  0  0  0  0  0  0  0
  144.5620   74.6711  218.0940 H   0  0  0  0  0  0  0  0  0  0  0  0
  144.1198   72.9711  217.8247 H   0  0  0  0  0  0  0  0  0  0  0  0
  138.6761   69.1122  222.9180 H   0  0  0  0  0  0  0  0  0  0  0  0
  138.7923   67.5861  224.8783 H   0  0  0  0  0  0  0  0  0  0  0  0
  139.5188   67.1964  227.1141 H   0  0  0  0  0  0  0  0  0  0  0  0
  141.7074   70.2396  229.2417 H   0  0  0  0  0  0  0  0  0  0  0  0
  141.5683   71.7375  227.2694 H   0  0  0  0  0  0  0  0  0  0  0  0
  1  2  2  0
  2  3  1  0
  3  4  1  0
  4  5  1  0
  5  6  2  0
  5  7  1  0
  7  8  1  0
  8  9  1  0
  9 10  1  0
 10 11  1  0
 11 12  1  0
 12 13  1  0
 13 14  1  0
 14 15  1  0
 15 16  1  0
  2 17  1  0
 17 18  2  0
 18 19  1  0
 19 20  2  0
 20 21  1  0
 21 22  2  0
 22 23  1  0
 22 24  1  0
 24 25  2  0
 25 26  1  0
 26 27  2  0
 11  7  1  0
 16 12  1  0
 27 17  1  0
 26 20  1  0
  3 28  1  0
  4 29  1  0
  4 30  1  0
  8 31  1  0
  8 32  1  0
  9 33  1  0
  9 34  1  0
 10 35  1  0
 10 36  1  0
 11 37  1  1
 12 38  1  6
 13 39  1  0
 13 40  1  0
 14 41  1  0
 14 42  1  0
 15 43  1  0
 16 44  1  0
 16 45  1  0
 18 46  1  0
 19 47  1  0
 21 48  1  0
 24 49  1  0
 25 50  1  0
M  END
>  <smiles>  (47) 
O=C(NCC(=O)N1CCCC1C1CCNC1)c1ccc2cc(F)ccc2n1

>  <score_type>  (47) 
oracle

>  <origin>  (47) 
autodockgpu

>  <m_score__min__energy>  (47) 
-8.9199999999999999

>  <m_primary>  (47) 
energy

>  <rmsd>  (47) 
2.271205779453859

>  <m_score__min__rmsd>  (47) 
2.271205779453859

>  <meeko>  (47) 
{"free_energy": -8.57, "intermolecular_energy": -10.06, "internal_energy": -1.11, "cluster_size": 32, "cluster_id": 1, "rank_in_cluster": 15}

>  <energy>  (47) 
-6.89

>  <cluster_rmsd>  (47) 
1.24

>  <cluster>  (47) 
2

$$$$

     RDKit          3D

 50 53  0  0  0  0  0  0  0  0999 V2000
  141.3640   72.5900  221.9380 O   0  0  0  0  0  0  0  0  0  0  0  0
  140.3230   72.5320  222.6350 C   0  0  0  0  0  0  0  0  0  0  0  0
  139.2670   73.4090  222.3210 N   0  0  0  0  0  0  0  0  0  0  0  0
  139.4030   74.3220  221.2430 C   0  0  0  0  0  0  0  0  0  0  0  0
  139.8380   75.6770  221.6530 C   0  0  0  0  0  0  0  0  0  0  0  0
  139.3800   76.1980  222.7200 O   0  0  0  0  0  0  0  0  0  0  0  0
  140.7700   76.3950  220.8520 N   0  0  0  0  0  0  0  0  0  0  0  0
  142.0820   75.9280  220.4490 C   0  0  0  0  0  0  0  0  0  0  0  0
  142.5890   76.8210  219.3710 C   0  0  0  0  0  0  0  0  0  0  0  0
  141.4390   77.7190  219.0910 C   0  0  0  0  0  0  0  0  0  0  0  0
  140.5780   77.7230  220.2940 C   0  0  2  0  0  0  0  0  0  0  0  0
  140.7720   78.8320  221.2720 C   0  0  2  0  0  0  0  0  0  0  0  0
  141.8370   78.6070  222.2810 C   0  0  0  0  0  0  0  0  0  0  0  0
  141.4090   79.5190  223.4150 C   0  0  0  0  0  0  0  0  0  0  0  0
  139.9690   79.2160  223.4670 N   0  0  0  0  0  0  0  0  0  0  0  0
  139.5920   79.2750  222.0440 C   0  0  0  0  0  0  0  0  0  0  0  0
  140.2150   71.5800  223.7390 C   0  0  0  0  0  0  0  0  0  0  0  0
  139.6060   70.3520  223.5130 C   0  0  0  0  0  0  0  0  0  0  0  0
  139.4690   69.4040  224.5120 C   0  0  0  0  0  0  0  0  0  0  0  0
  139.9710   69.7220  225.7720 C   0  0  0  0  0  0  0  0  0  0  0  0
  139.8440   68.7880  226.7840 C   0  0  0  0  0  0  0  0  0  0  0  0
  140.3390   69.0840  228.0580 C   0  0  0  0  0  0  0  0  0  0  0  0
  140.1990   68.1490  229.0210 F   0  0  0  0  0  0  0  0  0  0  0  0
  140.9460   70.3110  228.2750 C   0  0  0  0  0  0  0  0  0  0  0  0
  141.0680   71.2450  227.2510 C   0  0  0  0  0  0  0  0  0  0  0  0
  140.5820   70.9590  225.9900 C   0  0  0  0  0  0  0  0  0  0  0  0
  140.6920   71.8570  224.9780 N   0  0  0  0  0  0  0  0  0  0  0  0
  138.3930   73.3450  222.9230 H   0  0  0  0  0  0  0  0  0  0  0  0
  140.1459   73.9183  220.5393 H   0  0  0  0  0  0  0  0  0  0  0  0
  138.4064   74.4309  220.7902 H   0  0  0  0  0  0  0  0  0  0  0  0
  142.7672   75.9581  221.3090 H   0  0  0  0  0  0  0  0  0  0  0  0
  142.0182   74.8927  220.0828 H   0  0  0  0  0  0  0  0  0  0  0  0
  143.4614   77.3959  219.7152 H   0  0  0  0  0  0  0  0  0  0  0  0
  142.9260   76.2684  218.4816 H   0  0  0  0  0  0  0  0  0  0  0  0
  141.7991   78.7374  218.8829 H   0  0  0  0  0  0  0  0  0  0  0  0
  140.8774   77.3686  218.2125 H   0  0  0  0  0  0  0  0  0  0  0  0
  139.5358   77.9365  220.0143 H   0  0  0  0  0  0  0  0  0  0  0  0
  141.0498   79.6163  220.5525 H   0  0  0  0  0  0  0  0  0  0  0  0
  141.8635   77.5558  222.6040 H   0  0  0  0  0  0  0  0  0  0  0  0
  142.8494   78.8174  221.9059 H   0  0  0  0  0  0  0  0  0  0  0  0
  141.9136   79.2606  224.3577 H   0  0  0  0  0  0  0  0  0  0  0  0
  141.6509   80.5819  223.2674 H   0  0  0  0  0  0  0  0  0  0  0  0
  139.8600   78.2170  223.7860 H   0  0  0  0  0  0  0  0  0  0  0  0
  138.7397   78.6072  221.8499 H   0  0  0  0  0  0  0  0  0  0  0  0
  139.2914   80.2934  221.7567 H   0  0  0  0  0  0  0  0  0  0  0  0
  139.2204   70.1259  222.5079 H   0  0  0  0  0  0  0  0  0  0  0  0
  138.9824   68.4366  224.3185 H   0  0  0  0  0  0  0  0  0  0  0  0
  139.3579   67.8208  226.5885 H   0  0  0  0  0  0  0  0  0  0  0  0
  141.3382   70.5506  229.2744 H   0  0  0  0  0  0  0  0  0  0  0  0
  141.5524   72.2131  227.4460 H   0  0  0  0  0  0  0  0  0  0  0  0
  1  2  2  0
  2  3  1  0
  3  4  1  0
  4  5  1  0
  5  6  2  0
  5  7  1  0
  7  8  1  0
  8  9  1  0
  9 10  1  0
 10 11  1  0
 11 12  1  0
 12 13  1  0
 13 14  1  0
 14 15  1  0
 15 16  1  0
  2 17  1  0
 17 18  2  0
 18 19  1  0
 19 20  2  0
 20 21  1  0
 21 22  2  0
 22 23  1  0
 22 24  1  0
 24 25  2  0
 25 26  1  0
 26 27  2  0
 11  7  1  0
 16 12  1  0
 27 17  1  0
 26 20  1  0
  3 28  1  0
  4 29  1  0
  4 30  1  0
  8 31  1  0
  8 32  1  0
  9 33  1  0
  9 34  1  0
 10 35  1  0
 10 36  1  0
 11 37  1  6
 12 38  1  6
 13 39  1  0
 13 40  1  0
 14 41  1  0
 14 42  1  0
 15 43  1  0
 16 44  1  0
 16 45  1  0
 18 46  1  0
 19 47  1  0
 21 48  1  0
 24 49  1  0
 25 50  1  0
M  END
>  <smiles>  (48) 
O=C(NCC(=O)N1CCCC1C1CCNC1)c1ccc2cc(F)ccc2n1

>  <score_type>  (48) 
oracle

>  <origin>  (48) 
autodockgpu

>  <m_score__min__energy>  (48) 
-8.9199999999999999

>  <m_primary>  (48) 
energy

>  <rmsd>  (48) 
1.9816799559456015

>  <m_score__min__rmsd>  (48) 
1.9816799559456015

>  <meeko>  (48) 
{"free_energy": -7.72, "intermolecular_energy": -9.21, "internal_energy": -1.71, "cluster_size": 15, "cluster_id": 2, "rank_in_cluster": 12}

>  <energy>  (48) 
-7.69

>  <cluster_rmsd>  (48) 
0.0

>  <cluster>  (48) 
3

$$$$

     RDKit          3D

 50 53  0  0  0  0  0  0  0  0999 V2000
  140.4280   72.9030  222.5980 O   0  0  0  0  0  0  0  0  0  0  0  0
  140.4250   71.6600  222.7640 C   0  0  0  0  0  0  0  0  0  0  0  0
  140.3980   70.8400  221.6190 N   0  0  0  0  0  0  0  0  0  0  0  0
  140.3750   71.4280  220.3280 C   0  0  0  0  0  0  0  0  0  0  0  0
  141.6780   71.9850  219.8970 C   0  0  0  0  0  0  0  0  0  0  0  0
  142.6530   71.2050  219.6480 O   0  0  0  0  0  0  0  0  0  0  0  0
  141.8390   73.3920  219.7610 N   0  0  0  0  0  0  0  0  0  0  0  0
  140.9930   74.2740  218.9810 C   0  0  0  0  0  0  0  0  0  0  0  0
  141.2990   75.6790  219.3620 C   0  0  0  0  0  0  0  0  0  0  0  0
  142.2500   75.5360  220.4940 C   0  0  0  0  0  0  0  0  0  0  0  0
  142.8770   74.2000  220.3780 C   0  0  2  0  0  0  0  0  0  0  0  0
  144.2000   74.1220  219.6970 C   0  0  2  0  0  0  0  0  0  0  0  0
  144.1450   73.9080  218.2290 C   0  0  0  0  0  0  0  0  0  0  0  0
  145.4980   73.2850  217.9390 C   0  0  0  0  0  0  0  0  0  0  0  0
  145.5800   72.3120  219.0410 N   0  0  0  0  0  0  0  0  0  0  0  0
  145.1680   73.1240  220.1990 C   0  0  0  0  0  0  0  0  0  0  0  0
  140.4510   71.0850  224.1070 C   0  0  0  0  0  0  0  0  0  0  0  0
  140.7460   71.9060  225.1870 C   0  0  0  0  0  0  0  0  0  0  0  0
  140.7870   71.4290  226.4850 C   0  0  0  0  0  0  0  0  0  0  0  0
  140.5190   70.0760  226.6800 C   0  0  0  0  0  0  0  0  0  0  0  0
  140.5550   69.5790  227.9700 C   0  0  0  0  0  0  0  0  0  0  0  0
  140.2900   68.2240  228.1920 C   0  0  0  0  0  0  0  0  0  0  0  0
  140.3340   67.7730  229.4630 F   0  0  0  0  0  0  0  0  0  0  0  0
  139.9960   67.4100  227.1090 C   0  0  0  0  0  0  0  0  0  0  0  0
  139.9620   67.9190  225.8140 C   0  0  0  0  0  0  0  0  0  0  0  0
  140.2230   69.2560  225.5880 C   0  0  0  0  0  0  0  0  0  0  0  0
  140.1950   69.7720  224.3330 N   0  0  0  0  0  0  0  0  0  0  0  0
  140.3970   69.7890  221.7800 H   0  0  0  0  0  0  0  0  0  0  0  0
  140.0706   70.6589  219.6029 H   0  0  0  0  0  0  0  0  0  0  0  0
  139.6683   72.2697  220.3740 H   0  0  0  0  0  0  0  0  0  0  0  0
  141.1929   74.1281  217.9092 H   0  0  0  0  0  0  0  0  0  0  0  0
  139.9337   74.0520  219.1776 H   0  0  0  0  0  0  0  0  0  0  0  0
  141.7638   76.2204  218.5248 H   0  0  0  0  0  0  0  0  0  0  0  0
  140.4003   76.2542  219.6294 H   0  0  0  0  0  0  0  0  0  0  0  0
  143.0205   76.3192  220.4392 H   0  0  0  0  0  0  0  0  0  0  0  0
  141.7271   75.6379  221.4564 H   0  0  0  0  0  0  0  0  0  0  0  0
  143.1856   73.8371  221.3695 H   0  0  0  0  0  0  0  0  0  0  0  0
  144.5556   75.1317  219.9501 H   0  0  0  0  0  0  0  0  0  0  0  0
  143.3263   73.2257  217.9568 H   0  0  0  0  0  0  0  0  0  0  0  0
  143.9537   74.8284  217.6578 H   0  0  0  0  0  0  0  0  0  0  0  0
  145.5163   72.7902  216.9567 H   0  0  0  0  0  0  0  0  0  0  0  0
  146.3335   73.9990  217.8915 H   0  0  0  0  0  0  0  0  0  0  0  0
  144.8380   71.5810  218.8820 H   0  0  0  0  0  0  0  0  0  0  0  0
  144.6943   72.4861  220.9597 H   0  0  0  0  0  0  0  0  0  0  0  0
  146.0348   73.6145  220.6660 H   0  0  0  0  0  0  0  0  0  0  0  0
  140.9540   72.9707  225.0047 H   0  0  0  0  0  0  0  0  0  0  0  0
  141.0221   72.0925  227.3303 H   0  0  0  0  0  0  0  0  0  0  0  0
  140.7901   70.2438  228.8142 H   0  0  0  0  0  0  0  0  0  0  0  0
  139.7859   66.3432  227.2760 H   0  0  0  0  0  0  0  0  0  0  0  0
  139.7268   67.2550  224.9691 H   0  0  0  0  0  0  0  0  0  0  0  0
  1  2  2  0
  2  3  1  0
  3  4  1  0
  4  5  1  0
  5  6  2  0
  5  7  1  0
  7  8  1  0
  8  9  1  0
  9 10  1  0
 10 11  1  0
 11 12  1  0
 12 13  1  0
 13 14  1  0
 14 15  1  0
 15 16  1  0
  2 17  1  0
 17 18  2  0
 18 19  1  0
 19 20  2  0
 20 21  1  0
 21 22  2  0
 22 23  1  0
 22 24  1  0
 24 25  2  0
 25 26  1  0
 26 27  2  0
 11  7  1  0
 16 12  1  0
 27 17  1  0
 26 20  1  0
  3 28  1  0
  4 29  1  0
  4 30  1  0
  8 31  1  0
  8 32  1  0
  9 33  1  0
  9 34  1  0
 10 35  1  0
 10 36  1  0
 11 37  1  1
 12 38  1  6
 13 39  1  0
 13 40  1  0
 14 41  1  0
 14 42  1  0
 15 43  1  0
 16 44  1  0
 16 45  1  0
 18 46  1  0
 19 47  1  0
 21 48  1  0
 24 49  1  0
 25 50  1  0
M  END
>  <smiles>  (49) 
O=C(NCC(=O)N1CCCC1C1CCNC1)c1ccc2cc(F)ccc2n1

>  <score_type>  (49) 
oracle

>  <origin>  (49) 
autodockgpu

>  <m_score__min__energy>  (49) 
-8.9199999999999999

>  <m_primary>  (49) 
energy

>  <rmsd>  (49) 
3.345415590597844

>  <m_score__min__rmsd>  (49) 
3.345415590597844

>  <meeko>  (49) 
{"free_energy": -6.77, "intermolecular_energy": -8.26, "internal_energy": -2.08, "cluster_size": 32, "cluster_id": 1, "rank_in_cluster": 32}

>  <energy>  (49) 
-7.35

>  <cluster_rmsd>  (49) 
0.0

>  <cluster>  (49) 
4

$$$$

     RDKit          3D

 50 53  0  0  0  0  0  0  0  0999 V2000
  141.5580   72.0090  221.7200 O   0  0  0  0  0  0  0  0  0  0  0  0
  140.5720   72.2050  222.4700 C   0  0  0  0  0  0  0  0  0  0  0  0
  139.6770   73.2370  222.1290 N   0  0  0  0  0  0  0  0  0  0  0  0
  139.9060   74.0170  220.9660 C   0  0  0  0  0  0  0  0  0  0  0  0
  140.9750   75.0300  221.1230 C   0  0  0  0  0  0  0  0  0  0  0  0
  141.1230   75.6340  222.2340 O   0  0  0  0  0  0  0  0  0  0  0  0
  141.8360   75.3280  220.0300 N   0  0  0  0  0  0  0  0  0  0  0  0
  141.4150   75.6840  218.6890 C   0  0  0  0  0  0  0  0  0  0  0  0
  142.5910   76.2260  217.9540 C   0  0  0  0  0  0  0  0  0  0  0  0
  143.6520   76.2930  218.9920 C   0  0  0  0  0  0  0  0  0  0  0  0
  143.2890   75.3310  220.0580 C   0  0  2  0  0  0  0  0  0  0  0  0
  143.9050   73.9760  219.9960 C   0  0  2  0  0  0  0  0  0  0  0  0
  145.0640   73.7640  220.8990 C   0  0  0  0  0  0  0  0  0  0  0  0
  145.8070   72.6310  220.2160 C   0  0  0  0  0  0  0  0  0  0  0  0
  145.7600   73.0910  218.8180 N   0  0  0  0  0  0  0  0  0  0  0  0
  144.3490   73.4880  218.6730 C   0  0  0  0  0  0  0  0  0  0  0  0
  140.3630   71.3830  223.6610 C   0  0  0  0  0  0  0  0  0  0  0  0
  139.6720   70.1850  223.5410 C   0  0  0  0  0  0  0  0  0  0  0  0
  139.4380   69.3580  224.6250 C   0  0  0  0  0  0  0  0  0  0  0  0
  139.9270   69.7700  225.8630 C   0  0  0  0  0  0  0  0  0  0  0  0
  139.7040   68.9570  226.9600 C   0  0  0  0  0  0  0  0  0  0  0  0
  140.1850   69.3490  228.2130 C   0  0  0  0  0  0  0  0  0  0  0  0
  139.9490   68.5320  229.2620 F   0  0  0  0  0  0  0  0  0  0  0  0
  140.8750   70.5450  228.3260 C   0  0  0  0  0  0  0  0  0  0  0  0
  141.0940   71.3570  227.2160 C   0  0  0  0  0  0  0  0  0  0  0  0
  140.6220   70.9760  225.9750 C   0  0  0  0  0  0  0  0  0  0  0  0
  140.8260   71.7540  224.8810 N   0  0  0  0  0  0  0  0  0  0  0  0
  138.8470   73.3870  222.7760 H   0  0  0  0  0  0  0  0  0  0  0  0
  140.1877   73.3407  220.1455 H   0  0  0  0  0  0  0  0  0  0  0  0
  138.9746   74.5652  220.7610 H   0  0  0  0  0  0  0  0  0  0  0  0
  141.0322   74.7923  218.1710 H   0  0  0  0  0  0  0  0  0  0  0  0
  140.6163   76.4391  218.7322 H   0  0  0  0  0  0  0  0  0  0  0  0
  142.8855   75.5541  217.1343 H   0  0  0  0  0  0  0  0  0  0  0  0
  142.3898   77.2006  217.4853 H   0  0  0  0  0  0  0  0  0  0  0  0
  144.6238   76.0207  218.5546 H   0  0  0  0  0  0  0  0  0  0  0  0
  143.7338   77.3116  219.3991 H   0  0  0  0  0  0  0  0  0  0  0  0
  143.7101   75.6544  221.0214 H   0  0  0  0  0  0  0  0  0  0  0  0
  143.0250   73.4004  220.3189 H   0  0  0  0  0  0  0  0  0  0  0  0
  145.6884   74.6673  220.9637 H   0  0  0  0  0  0  0  0  0  0  0  0
  144.7769   73.5385  221.9367 H   0  0  0  0  0  0  0  0  0  0  0  0
  146.8409   72.5437  220.5812 H   0  0  0  0  0  0  0  0  0  0  0  0
  145.3803   71.6316  220.3866 H   0  0  0  0  0  0  0  0  0  0  0  0
  146.3470   73.9630  218.7460 H   0  0  0  0  0  0  0  0  0  0  0  0
  144.2556   74.2876  217.9234 H   0  0  0  0  0  0  0  0  0  0  0  0
  143.7329   72.6408  218.3374 H   0  0  0  0  0  0  0  0  0  0  0  0
  139.2982   69.8834  222.5514 H   0  0  0  0  0  0  0  0  0  0  0  0
  138.8875   68.4122  224.5140 H   0  0  0  0  0  0  0  0  0  0  0  0
  139.1536   68.0113  226.8475 H   0  0  0  0  0  0  0  0  0  0  0  0
  141.2563   70.8585  229.3090 H   0  0  0  0  0  0  0  0  0  0  0  0
  141.6437   72.3032  227.3277 H   0  0  0  0  0  0  0  0  0  0  0  0
  1  2  2  0
  2  3  1  0
  3  4  1  0
  4  5  1  0
  5  6  2  0
  5  7  1  0
  7  8  1  0
  8  9  1  0
  9 10  1  0
 10 11  1  0
 11 12  1  0
 12 13  1  0
 13 14  1  0
 14 15  1  0
 15 16  1  0
  2 17  1  0
 17 18  2  0
 18 19  1  0
 19 20  2  0
 20 21  1  0
 21 22  2  0
 22 23  1  0
 22 24  1  0
 24 25  2  0
 25 26  1  0
 26 27  2  0
 11  7  1  0
 16 12  1  0
 27 17  1  0
 26 20  1  0
  3 28  1  0
  4 29  1  0
  4 30  1  0
  8 31  1  0
  8 32  1  0
  9 33  1  0
  9 34  1  0
 10 35  1  0
 10 36  1  0
 11 37  1  1
 12 38  1  1
 13 39  1  0
 13 40  1  0
 14 41  1  0
 14 42  1  0
 15 43  1  0
 16 44  1  0
 16 45  1  0
 18 46  1  0
 19 47  1  0
 21 48  1  0
 24 49  1  0
 25 50  1  0
M  END
>  <smiles>  (50) 
O=C(NCC(=O)N1CCCC1C1CCNC1)c1ccc2cc(F)ccc2n1

>  <score_type>  (50) 
oracle

>  <origin>  (50) 
autodockgpu

>  <m_score__min__energy>  (50) 
-8.9199999999999999

>  <m_primary>  (50) 
energy

>  <rmsd>  (50) 
2.029724427117668

>  <m_score__min__rmsd>  (50) 
2.029724427117668

>  <meeko>  (50) 
{"free_energy": -8.8, "intermolecular_energy": -10.29, "internal_energy": -1.33, "cluster_size": 32, "cluster_id": 1, "rank_in_cluster": 9}

>  <energy>  (50) 
-5.8

>  <cluster_rmsd>  (50) 
0.0

>  <cluster>  (50) 
5

$$$$

     RDKit          3D

 50 53  0  0  0  0  0  0  0  0999 V2000
  141.7320   81.1950  218.1760 O   0  0  0  0  0  0  0  0  0  0  0  0
  141.7850   80.2840  219.0450 C   0  0  0  0  0  0  0  0  0  0  0  0
  141.3780   80.6410  220.3960 N   0  0  0  0  0  0  0  0  0  0  0  0
  140.9680   81.9730  220.5820 C   0  0  0  0  0  0  0  0  0  0  0  0
  140.0030   82.3640  221.5940 C   0  0  0  0  0  0  0  0  0  0  0  0
  139.7900   83.6550  221.6160 O   0  0  0  0  0  0  0  0  0  0  0  0
  139.2600   81.6400  222.5440 N   0  0  0  0  0  0  0  0  0  0  0  0
  137.7970   81.7580  222.6450 C   0  0  0  0  0  0  0  0  0  0  0  0
  137.4220   80.6010  223.5610 C   0  0  0  0  0  0  0  0  0  0  0  0
  138.6290   79.6480  223.4550 C   0  0  0  0  0  0  0  0  0  0  0  0
  139.7090   80.7550  223.5380 C   0  0  1  0  0  0  0  0  0  0  0  0
  141.0300   80.2540  223.7730 C   0  0  2  0  0  0  0  0  0  0  0  0
  142.2460   81.0660  223.6610 C   0  0  0  0  0  0  0  0  0  0  0  0
  143.3320   80.2140  223.0450 C   0  0  0  0  0  0  0  0  0  0  0  0
  142.7050   79.0140  222.5870 N   0  0  0  0  0  0  0  0  0  0  0  0
  141.3520   78.9730  223.0190 C   0  0  0  0  0  0  0  0  0  0  0  0
  142.2240   78.9340  218.7520 C   0  0  0  0  0  0  0  0  0  0  0  0
  142.6680   78.6750  217.4740 C   0  0  0  0  0  0  0  0  0  0  0  0
  143.0850   77.3890  217.2000 C   0  0  0  0  0  0  0  0  0  0  0  0
  143.0600   76.3860  218.1750 C   0  0  0  0  0  0  0  0  0  0  0  0
  143.4730   75.1000  217.9150 C   0  0  0  0  0  0  0  0  0  0  0  0
  143.4100   74.1850  218.9410 C   0  0  0  0  0  0  0  0  0  0  0  0
  143.8070   72.8910  218.7420 F   0  0  0  0  0  0  0  0  0  0  0  0
  142.9520   74.5170  220.2020 C   0  0  0  0  0  0  0  0  0  0  0  0
  142.5350   75.8030  220.4730 C   0  0  0  0  0  0  0  0  0  0  0  0
  142.6030   76.7100  219.4370 C   0  0  0  0  0  0  0  0  0  0  0  0
  142.1950   77.9660  219.7070 N   0  0  0  0  0  0  0  0  0  0  0  0
  141.4300   79.8490  221.0540 H   0  0  0  0  0  0  0  0  0  0  0  0
  141.8824   82.5457  220.7962 H   0  0  0  0  0  0  0  0  0  0  0  0
  140.4084   82.1653  219.6547 H   0  0  0  0  0  0  0  0  0  0  0  0
  137.5079   82.7225  223.0879 H   0  0  0  0  0  0  0  0  0  0  0  0
  137.2908   81.7197  221.6691 H   0  0  0  0  0  0  0  0  0  0  0  0
  137.2853   80.9479  224.5959 H   0  0  0  0  0  0  0  0  0  0  0  0
  136.4733   80.1219  223.2775 H   0  0  0  0  0  0  0  0  0  0  0  0
  138.6840   78.9357  224.2914 H   0  0  0  0  0  0  0  0  0  0  0  0
  138.6641   78.9737  222.5866 H   0  0  0  0  0  0  0  0  0  0  0  0
  139.8488   81.3969  224.4203 H   0  0  0  0  0  0  0  0  0  0  0  0
  140.8557   80.1639  224.8554 H   0  0  0  0  0  0  0  0  0  0  0  0
  142.0518   81.9400  223.0219 H   0  0  0  0  0  0  0  0  0  0  0  0
  142.5591   81.4178  224.6551 H   0  0  0  0  0  0  0  0  0  0  0  0
  143.7966   80.7446  222.2008 H   0  0  0  0  0  0  0  0  0  0  0  0
  144.1225   79.9919  223.7769 H   0  0  0  0  0  0  0  0  0  0  0  0
  142.9000   78.7370  221.6190 H   0  0  0  0  0  0  0  0  0  0  0  0
  140.6893   78.8834  222.1456 H   0  0  0  0  0  0  0  0  0  0  0  0
  141.2006   78.1067  223.6797 H   0  0  0  0  0  0  0  0  0  0  0  0
  142.6891   79.4606  216.7044 H   0  0  0  0  0  0  0  0  0  0  0  0
  143.4462   77.1461  216.1898 H   0  0  0  0  0  0  0  0  0  0  0  0
  143.8417   74.8123  216.9193 H   0  0  0  0  0  0  0  0  0  0  0  0
  142.9200   73.7525  220.9923 H   0  0  0  0  0  0  0  0  0  0  0  0
  142.1658   76.0915  221.4682 H   0  0  0  0  0  0  0  0  0  0  0  0
  1  2  2  0
  2  3  1  0
  3  4  1  0
  4  5  1  0
  5  6  2  0
  5  7  1  0
  7  8  1  0
  8  9  1  0
  9 10  1  0
 10 11  1  0
 11 12  1  0
 12 13  1  0
 13 14  1  0
 14 15  1  0
 15 16  1  0
  2 17  1  0
 17 18  2  0
 18 19  1  0
 19 20  2  0
 20 21  1  0
 21 22  2  0
 22 23  1  0
 22 24  1  0
 24 25  2  0
 25 26  1  0
 26 27  2  0
 11  7  1  0
 16 12  1  0
 27 17  1  0
 26 20  1  0
  3 28  1  0
  4 29  1  0
  4 30  1  0
  8 31  1  0
  8 32  1  0
  9 33  1  0
  9 34  1  0
 10 35  1  0
 10 36  1  0
 11 37  1  1
 12 38  1  1
 13 39  1  0
 13 40  1  0
 14 41  1  0
 14 42  1  0
 15 43  1  0
 16 44  1  0
 16 45  1  0
 18 46  1  0
 19 47  1  0
 21 48  1  0
 24 49  1  0
 25 50  1  0
M  END
>  <smiles>  (51) 
O=C(NCC(=O)N1CCCC1C1CCNC1)c1ccc2cc(F)ccc2n1

>  <score_type>  (51) 
oracle

>  <origin>  (51) 
autodockgpu

>  <m_score__min__energy>  (51) 
-8.6099999999999994

>  <m_primary>  (51) 
energy

>  <rmsd>  (51) 
9.236509674119075

>  <m_score__min__rmsd>  (51) 
9.236509674119075

>  <meeko>  (51) 
{"free_energy": -5.9, "intermolecular_energy": -7.39, "internal_energy": -3.25, "cluster_size": 21, "cluster_id": 5, "rank_in_cluster": 16}

>  <energy>  (51) 
-8.61

>  <cluster_rmsd>  (51) 
0.0

>  <cluster>  (51) 
1

$$$$

     RDKit          3D

 50 53  0  0  0  0  0  0  0  0999 V2000
  138.5600   72.3860  222.5800 O   0  0  0  0  0  0  0  0  0  0  0  0
  139.5910   71.7000  222.8180 C   0  0  0  0  0  0  0  0  0  0  0  0
  140.7140   71.8660  221.9080 N   0  0  0  0  0  0  0  0  0  0  0  0
  140.5230   72.7800  220.8570 C   0  0  0  0  0  0  0  0  0  0  0  0
  140.8520   74.1890  220.9710 C   0  0  0  0  0  0  0  0  0  0  0  0
  140.3860   74.7290  222.0690 O   0  0  0  0  0  0  0  0  0  0  0  0
  141.5650   75.0800  220.1490 N   0  0  0  0  0  0  0  0  0  0  0  0
  141.0330   76.4020  219.7850 C   0  0  0  0  0  0  0  0  0  0  0  0
  142.2390   77.1010  219.1720 C   0  0  0  0  0  0  0  0  0  0  0  0
  143.4390   76.3070  219.7270 C   0  0  0  0  0  0  0  0  0  0  0  0
  142.8090   74.9070  219.5200 C   0  0  1  0  0  0  0  0  0  0  0  0
  143.7460   73.8310  219.6460 C   0  0  2  0  0  0  0  0  0  0  0  0
  144.5930   73.6170  220.8240 C   0  0  0  0  0  0  0  0  0  0  0  0
  145.9500   73.1480  220.3550 C   0  0  0  0  0  0  0  0  0  0  0  0
  145.9760   73.3140  218.9350 N   0  0  0  0  0  0  0  0  0  0  0  0
  144.6890   73.6850  218.4630 C   0  0  0  0  0  0  0  0  0  0  0  0
  139.6900   70.7810  223.9350 C   0  0  0  0  0  0  0  0  0  0  0  0
  139.1710   69.5160  223.7630 C   0  0  0  0  0  0  0  0  0  0  0  0
  139.2690   68.6450  224.8290 C   0  0  0  0  0  0  0  0  0  0  0  0
  139.8680   69.0250  226.0340 C   0  0  0  0  0  0  0  0  0  0  0  0
  139.9710   68.1660  227.1040 C   0  0  0  0  0  0  0  0  0  0  0  0
  140.5790   68.6340  228.2470 C   0  0  0  0  0  0  0  0  0  0  0  0
  140.7100   67.8260  229.3430 F   0  0  0  0  0  0  0  0  0  0  0  0
  141.0780   69.9190  228.3480 C   0  0  0  0  0  0  0  0  0  0  0  0
  140.9790   70.7870  227.2810 C   0  0  0  0  0  0  0  0  0  0  0  0
  140.3690   70.3070  226.1420 C   0  0  0  0  0  0  0  0  0  0  0  0
  140.2750   71.1600  225.1030 N   0  0  0  0  0  0  0  0  0  0  0  0
  141.5300   71.2900  222.1670 H   0  0  0  0  0  0  0  0  0  0  0  0
  141.1125   72.3976  220.0106 H   0  0  0  0  0  0  0  0  0  0  0  0
  139.4257   72.8129  220.7877 H   0  0  0  0  0  0  0  0  0  0  0  0
  140.2153   76.3115  219.0548 H   0  0  0  0  0  0  0  0  0  0  0  0
  140.6049   76.9467  220.6394 H   0  0  0  0  0  0  0  0  0  0  0  0
  142.2073   77.0482  218.0737 H   0  0  0  0  0  0  0  0  0  0  0  0
  142.2838   78.1719  219.4193 H   0  0  0  0  0  0  0  0  0  0  0  0
  144.3558   76.4529  219.1369 H   0  0  0  0  0  0  0  0  0  0  0  0
  143.7847   76.5591  220.7404 H   0  0  0  0  0  0  0  0  0  0  0  0
  142.5502   74.4998  218.5314 H   0  0  0  0  0  0  0  0  0  0  0  0
  142.9460   73.0818  219.7388 H   0  0  0  0  0  0  0  0  0  0  0  0
  144.6978   74.5588  221.3826 H   0  0  0  0  0  0  0  0  0  0  0  0
  144.1394   72.8632  221.4844 H   0  0  0  0  0  0  0  0  0  0  0  0
  146.7418   73.7525  220.8216 H   0  0  0  0  0  0  0  0  0  0  0  0
  146.1226   72.0978  220.6330 H   0  0  0  0  0  0  0  0  0  0  0  0
  146.7840   73.8140  218.5490 H   0  0  0  0  0  0  0  0  0  0  0  0
  144.7561   74.6424  217.9256 H   0  0  0  0  0  0  0  0  0  0  0  0
  144.3084   72.9111  217.7802 H   0  0  0  0  0  0  0  0  0  0  0  0
  138.6989   69.2135  222.8166 H   0  0  0  0  0  0  0  0  0  0  0  0
  138.8659   67.6265  224.7282 H   0  0  0  0  0  0  0  0  0  0  0  0
  139.5804   67.1392  227.0479 H   0  0  0  0  0  0  0  0  0  0  0  0
  141.5554   70.2502  229.2820 H   0  0  0  0  0  0  0  0  0  0  0  0
  141.3686   71.8142  227.3363 H   0  0  0  0  0  0  0  0  0  0  0  0
  1  2  2  0
  2  3  1  0
  3  4  1  0
  4  5  1  0
  5  6  2  0
  5  7  1  0
  7  8  1  0
  8  9  1  0
  9 10  1  0
 10 11  1  0
 11 12  1  0
 12 13  1  0
 13 14  1  0
 14 15  1  0
 15 16  1  0
  2 17  1  0
 17 18  2  0
 18 19  1  0
 19 20  2  0
 20 21  1  0
 21 22  2  0
 22 23  1  0
 22 24  1  0
 24 25  2  0
 25 26  1  0
 26 27  2  0
 11  7  1  0
 16 12  1  0
 27 17  1  0
 26 20  1  0
  3 28  1  0
  4 29  1  0
  4 30  1  0
  8 31  1  0
  8 32  1  0
  9 33  1  0
  9 34  1  0
 10 35  1  0
 10 36  1  0
 11 37  1  6
 12 38  1  6
 13 39  1  0
 13 40  1  0
 14 41  1  0
 14 42  1  0
 15 43  1  0
 16 44  1  0
 16 45  1  0
 18 46  1  0
 19 47  1  0
 21 48  1  0
 24 49  1  0
 25 50  1  0
M  END
>  <smiles>  (52) 
O=C(NCC(=O)N1CCCC1C1CCNC1)c1ccc2cc(F)ccc2n1

>  <score_type>  (52) 
oracle

>  <origin>  (52) 
autodockgpu

>  <m_score__min__energy>  (52) 
-8.6099999999999994

>  <m_primary>  (52) 
energy

>  <rmsd>  (52) 
2.2187833123362877

>  <m_score__min__rmsd>  (52) 
2.2187833123362877

>  <meeko>  (52) 
{"free_energy": -8.61, "intermolecular_energy": -10.1, "internal_energy": -1.09, "cluster_size": 22, "cluster_id": 1, "rank_in_cluster": 1}

>  <energy>  (52) 
-8.59

>  <cluster_rmsd>  (52) 
0.18

>  <cluster>  (52) 
1

$$$$

     RDKit          3D

 50 53  0  0  0  0  0  0  0  0999 V2000
  141.2480   72.1280  221.4700 O   0  0  0  0  0  0  0  0  0  0  0  0
  140.3720   72.3030  222.3600 C   0  0  0  0  0  0  0  0  0  0  0  0
  139.4840   73.4430  222.1920 N   0  0  0  0  0  0  0  0  0  0  0  0
  139.7020   74.2280  221.0460 C   0  0  0  0  0  0  0  0  0  0  0  0
  140.8940   75.0380  220.8650 C   0  0  0  0  0  0  0  0  0  0  0  0
  141.4710   75.3480  221.9980 O   0  0  0  0  0  0  0  0  0  0  0  0
  141.5450   75.5480  219.7270 N   0  0  0  0  0  0  0  0  0  0  0  0
  141.0440   76.7270  219.0040 C   0  0  0  0  0  0  0  0  0  0  0  0
  142.1990   77.0780  218.0770 C   0  0  0  0  0  0  0  0  0  0  0  0
  143.4150   76.3990  218.7390 C   0  0  0  0  0  0  0  0  0  0  0  0
  142.6900   75.0700  219.0680 C   0  0  1  0  0  0  0  0  0  0  0  0
  143.5750   74.0100  219.4480 C   0  0  2  0  0  0  0  0  0  0  0  0
  144.2580   73.9370  220.7430 C   0  0  0  0  0  0  0  0  0  0  0  0
  145.6530   73.4030  220.5170 C   0  0  0  0  0  0  0  0  0  0  0  0
  145.8660   73.3900  219.1040 N   0  0  0  0  0  0  0  0  0  0  0  0
  144.6600   73.7110  218.4240 C   0  0  0  0  0  0  0  0  0  0  0  0
  140.2260   71.4310  223.5090 C   0  0  0  0  0  0  0  0  0  0  0  0
  139.5920   70.2240  223.3130 C   0  0  0  0  0  0  0  0  0  0  0  0
  139.4570   69.3980  224.4100 C   0  0  0  0  0  0  0  0  0  0  0  0
  139.9400   69.7660  225.6700 C   0  0  0  0  0  0  0  0  0  0  0  0
  139.8120   68.9520  226.7710 C   0  0  0  0  0  0  0  0  0  0  0  0
  140.3210   69.4030  227.9680 C   0  0  0  0  0  0  0  0  0  0  0  0
  140.2220   68.6380  229.0960 F   0  0  0  0  0  0  0  0  0  0  0  0
  140.9470   70.6300  228.0900 C   0  0  0  0  0  0  0  0  0  0  0  0
  141.0810   71.4540  226.9920 C   0  0  0  0  0  0  0  0  0  0  0  0
  140.5670   70.9900  225.8000 C   0  0  0  0  0  0  0  0  0  0  0  0
  140.7010   71.7990  224.7300 N   0  0  0  0  0  0  0  0  0  0  0  0
  138.7830   73.5200  222.9440 H   0  0  0  0  0  0  0  0  0  0  0  0
  139.6720   73.5352  220.1921 H   0  0  0  0  0  0  0  0  0  0  0  0
  138.9229   74.9974  221.1508 H   0  0  0  0  0  0  0  0  0  0  0  0
  140.1373   76.4832  218.4308 H   0  0  0  0  0  0  0  0  0  0  0  0
  140.7569   77.5538  219.6703 H   0  0  0  0  0  0  0  0  0  0  0  0
  142.0274   76.6777  217.0669 H   0  0  0  0  0  0  0  0  0  0  0  0
  142.3314   78.1627  217.9511 H   0  0  0  0  0  0  0  0  0  0  0  0
  144.2578   76.2641  218.0451 H   0  0  0  0  0  0  0  0  0  0  0  0
  143.8973   76.9302  219.5728 H   0  0  0  0  0  0  0  0  0  0  0  0
  142.2902   74.3942  218.2976 H   0  0  0  0  0  0  0  0  0  0  0  0
  142.7515   73.2852  219.5286 H   0  0  0  0  0  0  0  0  0  0  0  0
  144.3123   74.9400  221.1914 H   0  0  0  0  0  0  0  0  0  0  0  0
  143.7054   73.2739  221.4249 H   0  0  0  0  0  0  0  0  0  0  0  0
  146.3919   74.0552  221.0054 H   0  0  0  0  0  0  0  0  0  0  0  0
  145.7634   72.3945  220.9422 H   0  0  0  0  0  0  0  0  0  0  0  0
  146.7290   73.8320  218.7680 H   0  0  0  0  0  0  0  0  0  0  0  0
  144.8197   74.5942  217.7881 H   0  0  0  0  0  0  0  0  0  0  0  0
  144.3522   72.8626  217.7952 H   0  0  0  0  0  0  0  0  0  0  0  0
  139.2096   69.9311  222.3241 H   0  0  0  0  0  0  0  0  0  0  0  0
  138.9569   68.4256  224.2906 H   0  0  0  0  0  0  0  0  0  0  0  0
  139.3186   67.9716  226.6976 H   0  0  0  0  0  0  0  0  0  0  0  0
  141.3396   70.9501  229.0664 H   0  0  0  0  0  0  0  0  0  0  0  0
  141.5744   72.4345  227.0641 H   0  0  0  0  0  0  0  0  0  0  0  0
  1  2  2  0
  2  3  1  0
  3  4  1  0
  4  5  1  0
  5  6  2  0
  5  7  1  0
  7  8  1  0
  8  9  1  0
  9 10  1  0
 10 11  1  0
 11 12  1  0
 12 13  1  0
 13 14  1  0
 14 15  1  0
 15 16  1  0
  2 17  1  0
 17 18  2  0
 18 19  1  0
 19 20  2  0
 20 21  1  0
 21 22  2  0
 22 23  1  0
 22 24  1  0
 24 25  2  0
 25 26  1  0
 26 27  2  0
 11  7  1  0
 16 12  1  0
 27 17  1  0
 26 20  1  0
  3 28  1  0
  4 29  1  0
  4 30  1  0
  8 31  1  0
  8 32  1  0
  9 33  1  0
  9 34  1  0
 10 35  1  0
 10 36  1  0
 11 37  1  6
 12 38  1  1
 13 39  1  0
 13 40  1  0
 14 41  1  0
 14 42  1  0
 15 43  1  0
 16 44  1  0
 16 45  1  0
 18 46  1  0
 19 47  1  0
 21 48  1  0
 24 49  1  0
 25 50  1  0
M  END
>  <smiles>  (53) 
O=C(NCC(=O)N1CCCC1C1CCNC1)c1ccc2cc(F)ccc2n1

>  <score_type>  (53) 
oracle

>  <origin>  (53) 
autodockgpu

>  <m_score__min__energy>  (53) 
-8.6099999999999994

>  <m_primary>  (53) 
energy

>  <rmsd>  (53) 
1.9859551879137065

>  <m_score__min__rmsd>  (53) 
1.9859551879137065

>  <meeko>  (53) 
{"free_energy": -8.45, "intermolecular_energy": -9.95, "internal_energy": -1.33, "cluster_size": 22, "cluster_id": 1, "rank_in_cluster": 10}

>  <energy>  (53) 
-8.57

>  <cluster_rmsd>  (53) 
1.19

>  <cluster>  (53) 
1

$$$$

     RDKit          3D

 50 53  0  0  0  0  0  0  0  0999 V2000
  139.4910   79.6190  219.9390 O   0  0  0  0  0  0  0  0  0  0  0  0
  140.6470   79.2400  220.2680 C   0  0  0  0  0  0  0  0  0  0  0  0
  141.6220   80.2810  220.5580 N   0  0  0  0  0  0  0  0  0  0  0  0
  141.1620   81.6040  220.4360 C   0  0  0  0  0  0  0  0  0  0  0  0
  140.1170   82.1530  221.2820 C   0  0  0  0  0  0  0  0  0  0  0  0
  139.8100   83.3860  220.9680 O   0  0  0  0  0  0  0  0  0  0  0  0
  139.3770   81.6300  222.3570 N   0  0  0  0  0  0  0  0  0  0  0  0
  137.9180   81.7930  222.4530 C   0  0  0  0  0  0  0  0  0  0  0  0
  137.5370   80.8310  223.5690 C   0  0  0  0  0  0  0  0  0  0  0  0
  138.7260   79.8500  223.6240 C   0  0  0  0  0  0  0  0  0  0  0  0
  139.8260   80.9320  223.4900 C   0  0  1  0  0  0  0  0  0  0  0  0
  141.1420   80.4560  223.7960 C   0  0  2  0  0  0  0  0  0  0  0  0
  142.3680   81.2230  223.5510 C   0  0  0  0  0  0  0  0  0  0  0  0
  143.4380   80.2690  223.0740 C   0  0  0  0  0  0  0  0  0  0  0  0
  142.7930   79.0200  222.8150 N   0  0  0  0  0  0  0  0  0  0  0  0
  141.4420   79.0680  223.2530 C   0  0  0  0  0  0  0  0  0  0  0  0
  141.0250   77.8430  220.3660 C   0  0  0  0  0  0  0  0  0  0  0  0
  140.0530   76.9490  220.7570 C   0  0  0  0  0  0  0  0  0  0  0  0
  140.4180   75.6220  220.8480 C   0  0  0  0  0  0  0  0  0  0  0  0
  141.7180   75.1970  220.5570 C   0  0  0  0  0  0  0  0  0  0  0  0
  142.0940   73.8760  220.6430 C   0  0  0  0  0  0  0  0  0  0  0  0
  143.3980   73.5580  220.3350 C   0  0  0  0  0  0  0  0  0  0  0  0
  143.8300   72.2620  220.4030 F   0  0  0  0  0  0  0  0  0  0  0  0
  144.3210   74.5110  219.9490 C   0  0  0  0  0  0  0  0  0  0  0  0
  143.9540   75.8370  219.8590 C   0  0  0  0  0  0  0  0  0  0  0  0
  142.6460   76.1430  220.1700 C   0  0  0  0  0  0  0  0  0  0  0  0
  142.2920   77.4410  220.0800 N   0  0  0  0  0  0  0  0  0  0  0  0
  142.5420   79.9050  220.8350 H   0  0  0  0  0  0  0  0  0  0  0  0
  142.0422   82.2471  220.5834 H   0  0  0  0  0  0  0  0  0  0  0  0
  140.6642   81.5775  219.4554 H   0  0  0  0  0  0  0  0  0  0  0  0
  137.6525   82.8277  222.7155 H   0  0  0  0  0  0  0  0  0  0  0  0
  137.3963   81.5867  221.5068 H   0  0  0  0  0  0  0  0  0  0  0  0
  137.4228   81.3636  224.5247 H   0  0  0  0  0  0  0  0  0  0  0  0
  136.5755   80.3276  223.3896 H   0  0  0  0  0  0  0  0  0  0  0  0
  138.7819   79.3013  224.5757 H   0  0  0  0  0  0  0  0  0  0  0  0
  138.7357   79.0279  222.8932 H   0  0  0  0  0  0  0  0  0  0  0  0
  139.9904   81.7210  224.2386 H   0  0  0  0  0  0  0  0  0  0  0  0
  140.9738   80.5408  224.8798 H   0  0  0  0  0  0  0  0  0  0  0  0
  142.1812   81.9869  222.7818 H   0  0  0  0  0  0  0  0  0  0  0  0
  142.6921   81.7242  224.4750 H   0  0  0  0  0  0  0  0  0  0  0  0
  143.9042   80.6522  222.1543 H   0  0  0  0  0  0  0  0  0  0  0  0
  144.2298   80.1549  223.8291 H   0  0  0  0  0  0  0  0  0  0  0  0
  142.9780   78.5910  221.9020 H   0  0  0  0  0  0  0  0  0  0  0  0
  140.7730   78.8512  222.4072 H   0  0  0  0  0  0  0  0  0  0  0  0
  141.2827   78.3195  224.0431 H   0  0  0  0  0  0  0  0  0  0  0  0
  139.0292   77.2792  220.9869 H   0  0  0  0  0  0  0  0  0  0  0  0
  139.6677   74.8795  221.1572 H   0  0  0  0  0  0  0  0  0  0  0  0
  141.3766   73.0998  220.9477 H   0  0  0  0  0  0  0  0  0  0  0  0
  145.3525   74.2107  219.7126 H   0  0  0  0  0  0  0  0  0  0  0  0
  144.6705   76.6137  219.5536 H   0  0  0  0  0  0  0  0  0  0  0  0
  1  2  2  0
  2  3  1  0
  3  4  1  0
  4  5  1  0
  5  6  2  0
  5  7  1  0
  7  8  1  0
  8  9  1  0
  9 10  1  0
 10 11  1  0
 11 12  1  0
 12 13  1  0
 13 14  1  0
 14 15  1  0
 15 16  1  0
  2 17  1  0
 17 18  2  0
 18 19  1  0
 19 20  2  0
 20 21  1  0
 21 22  2  0
 22 23  1  0
 22 24  1  0
 24 25  2  0
 25 26  1  0
 26 27  2  0
 11  7  1  0
 16 12  1  0
 27 17  1  0
 26 20  1  0
  3 28  1  0
  4 29  1  0
  4 30  1  0
  8 31  1  0
  8 32  1  0
  9 33  1  0
  9 34  1  0
 10 35  1  0
 10 36  1  0
 11 37  1  1
 12 38  1  1
 13 39  1  0
 13 40  1  0
 14 41  1  0
 14 42  1  0
 15 43  1  0
 16 44  1  0
 16 45  1  0
 18 46  1  0
 19 47  1  0
 21 48  1  0
 24 49  1  0
 25 50  1  0
M  END
>  <smiles>  (54) 
O=C(NCC(=O)N1CCCC1C1CCNC1)c1ccc2cc(F)ccc2n1

>  <score_type>  (54) 
oracle

>  <origin>  (54) 
autodockgpu

>  <m_score__min__energy>  (54) 
-8.6099999999999994

>  <m_primary>  (54) 
energy

>  <rmsd>  (54) 
8.196094155066397

>  <m_score__min__rmsd>  (54) 
8.196094155066397

>  <meeko>  (54) 
{"free_energy": -6.07, "intermolecular_energy": -7.56, "internal_energy": -3.31, "cluster_size": 21, "cluster_id": 5, "rank_in_cluster": 6}

>  <energy>  (54) 
-8.51

>  <cluster_rmsd>  (54) 
1.18

>  <cluster>  (54) 
1

$$$$

     RDKit          3D

 50 53  0  0  0  0  0  0  0  0999 V2000
  139.4880   79.5690  220.0670 O   0  0  0  0  0  0  0  0  0  0  0  0
  140.6540   79.1880  220.3540 C   0  0  0  0  0  0  0  0  0  0  0  0
  141.6460   80.2280  220.5860 N   0  0  0  0  0  0  0  0  0  0  0  0
  141.1890   81.5520  220.4620 C   0  0  0  0  0  0  0  0  0  0  0  0
  140.1260   82.0960  221.2880 C   0  0  0  0  0  0  0  0  0  0  0  0
  139.7680   83.3000  220.9200 O   0  0  0  0  0  0  0  0  0  0  0  0
  139.4140   81.5940  222.3910 N   0  0  0  0  0  0  0  0  0  0  0  0
  137.9570   81.7520  222.5170 C   0  0  0  0  0  0  0  0  0  0  0  0
  137.6070   80.8140  223.6630 C   0  0  0  0  0  0  0  0  0  0  0  0
  138.8020   79.8410  223.7130 C   0  0  0  0  0  0  0  0  0  0  0  0
  139.8930   80.9250  223.5300 C   0  0  1  0  0  0  0  0  0  0  0  0
  141.2180   80.4630  223.8160 C   0  0  2  0  0  0  0  0  0  0  0  0
  142.4340   81.2280  223.5230 C   0  0  0  0  0  0  0  0  0  0  0  0
  143.4970   80.2670  223.0450 C   0  0  0  0  0  0  0  0  0  0  0  0
  142.8510   79.0090  222.8330 N   0  0  0  0  0  0  0  0  0  0  0  0
  141.5120   79.0620  223.3020 C   0  0  0  0  0  0  0  0  0  0  0  0
  141.0280   77.7910  220.4600 C   0  0  0  0  0  0  0  0  0  0  0  0
  140.0720   76.9120  220.9170 C   0  0  0  0  0  0  0  0  0  0  0  0
  140.4320   75.5840  221.0150 C   0  0  0  0  0  0  0  0  0  0  0  0
  141.7130   75.1440  220.6650 C   0  0  0  0  0  0  0  0  0  0  0  0
  142.0850   73.8230  220.7580 C   0  0  0  0  0  0  0  0  0  0  0  0
  143.3690   73.4890  220.3890 C   0  0  0  0  0  0  0  0  0  0  0  0
  143.7960   72.1920  220.4600 F   0  0  0  0  0  0  0  0  0  0  0  0
  144.2770   74.4280  219.9370 C   0  0  0  0  0  0  0  0  0  0  0  0
  143.9140   75.7550  219.8410 C   0  0  0  0  0  0  0  0  0  0  0  0
  142.6260   76.0760  220.2130 C   0  0  0  0  0  0  0  0  0  0  0  0
  142.2760   77.3740  220.1170 N   0  0  0  0  0  0  0  0  0  0  0  0
  142.5740   79.8510  220.8310 H   0  0  0  0  0  0  0  0  0  0  0  0
  142.0658   82.1939  220.6326 H   0  0  0  0  0  0  0  0  0  0  0  0
  140.7129   81.5317  219.4706 H   0  0  0  0  0  0  0  0  0  0  0  0
  137.6920   82.7911  222.7620 H   0  0  0  0  0  0  0  0  0  0  0  0
  137.4148   81.5216  221.5881 H   0  0  0  0  0  0  0  0  0  0  0  0
  137.5116   81.3678  224.6086 H   0  0  0  0  0  0  0  0  0  0  0  0
  136.6445   80.3017  223.5173 H   0  0  0  0  0  0  0  0  0  0  0  0
  138.8823   79.3141  224.6753 H   0  0  0  0  0  0  0  0  0  0  0  0
  138.7997   79.0029  223.0006 H   0  0  0  0  0  0  0  0  0  0  0  0
  140.0702   81.7312  224.2571 H   0  0  0  0  0  0  0  0  0  0  0  0
  141.0747   80.5759  224.9008 H   0  0  0  0  0  0  0  0  0  0  0  0
  142.2257   81.9715  222.7395 H   0  0  0  0  0  0  0  0  0  0  0  0
  142.7774   81.7534  224.4264 H   0  0  0  0  0  0  0  0  0  0  0  0
  143.9396   80.6287  222.1051 H   0  0  0  0  0  0  0  0  0  0  0  0
  144.3072   80.1753  223.7833 H   0  0  0  0  0  0  0  0  0  0  0  0
  143.0180   78.5570  221.9270 H   0  0  0  0  0  0  0  0  0  0  0  0
  140.8238   78.8201  222.4787 H   0  0  0  0  0  0  0  0  0  0  0  0
  141.3757   78.3336  224.1149 H   0  0  0  0  0  0  0  0  0  0  0  0
  139.0635   77.2543  221.1924 H   0  0  0  0  0  0  0  0  0  0  0  0
  139.6939   74.8532  221.3772 H   0  0  0  0  0  0  0  0  0  0  0  0
  141.3798   73.0583  221.1155 H   0  0  0  0  0  0  0  0  0  0  0  0
  145.2927   74.1157  219.6528 H   0  0  0  0  0  0  0  0  0  0  0  0
  144.6186   76.5208  219.4846 H   0  0  0  0  0  0  0  0  0  0  0  0
  1  2  2  0
  2  3  1  0
  3  4  1  0
  4  5  1  0
  5  6  2  0
  5  7  1  0
  7  8  1  0
  8  9  1  0
  9 10  1  0
 10 11  1  0
 11 12  1  0
 12 13  1  0
 13 14  1  0
 14 15  1  0
 15 16  1  0
  2 17  1  0
 17 18  2  0
 18 19  1  0
 19 20  2  0
 20 21  1  0
 21 22  2  0
 22 23  1  0
 22 24  1  0
 24 25  2  0
 25 26  1  0
 26 27  2  0
 11  7  1  0
 16 12  1  0
 27 17  1  0
 26 20  1  0
  3 28  1  0
  4 29  1  0
  4 30  1  0
  8 31  1  0
  8 32  1  0
  9 33  1  0
  9 34  1  0
 10 35  1  0
 10 36  1  0
 11 37  1  1
 12 38  1  1
 13 39  1  0
 13 40  1  0
 14 41  1  0
 14 42  1  0
 15 43  1  0
 16 44  1  0
 16 45  1  0
 18 46  1  0
 19 47  1  0
 21 48  1  0
 24 49  1  0
 25 50  1  0
M  END
>  <smiles>  (55) 
O=C(NCC(=O)N1CCCC1C1CCNC1)c1ccc2cc(F)ccc2n1

>  <score_type>  (55) 
oracle

>  <origin>  (55) 
autodockgpu

>  <m_score__min__energy>  (55) 
-8.6099999999999994

>  <m_primary>  (55) 
energy

>  <rmsd>  (55) 
8.15465138426816

>  <m_score__min__rmsd>  (55) 
8.15465138426816

>  <meeko>  (55) 
{"free_energy": -6.13, "intermolecular_energy": -7.62, "internal_energy": -3.23, "cluster_size": 21, "cluster_id": 5, "rank_in_cluster": 3}

>  <energy>  (55) 
-8.51

>  <cluster_rmsd>  (55) 
0.32

>  <cluster>  (55) 
1

$$$$

     RDKit          3D

 50 53  0  0  0  0  0  0  0  0999 V2000
  139.4600   79.6870  219.9160 O   0  0  0  0  0  0  0  0  0  0  0  0
  140.6350   79.2920  220.1430 C   0  0  0  0  0  0  0  0  0  0  0  0
  141.6330   80.3180  220.4080 N   0  0  0  0  0  0  0  0  0  0  0  0
  141.1710   81.6460  220.3810 C   0  0  0  0  0  0  0  0  0  0  0  0
  140.2580   82.1810  221.3750 C   0  0  0  0  0  0  0  0  0  0  0  0
  140.1050   83.4770  221.2750 O   0  0  0  0  0  0  0  0  0  0  0  0
  139.5140   81.5910  222.4120 N   0  0  0  0  0  0  0  0  0  0  0  0
  138.0550   81.7510  222.5150 C   0  0  0  0  0  0  0  0  0  0  0  0
  137.6690   80.7190  223.5660 C   0  0  0  0  0  0  0  0  0  0  0  0
  138.8550   79.7340  223.5600 C   0  0  0  0  0  0  0  0  0  0  0  0
  139.9580   80.8200  223.4990 C   0  0  1  0  0  0  0  0  0  0  0  0
  141.2720   80.3210  223.7770 C   0  0  2  0  0  0  0  0  0  0  0  0
  142.4930   81.1270  223.6720 C   0  0  0  0  0  0  0  0  0  0  0  0
  143.5890   80.2570  223.1030 C   0  0  0  0  0  0  0  0  0  0  0  0
  142.9690   79.0470  222.6610 N   0  0  0  0  0  0  0  0  0  0  0  0
  141.6070   79.0210  223.0630 C   0  0  0  0  0  0  0  0  0  0  0  0
  141.0130   77.8930  220.1490 C   0  0  0  0  0  0  0  0  0  0  0  0
  139.9990   76.9620  220.2020 C   0  0  0  0  0  0  0  0  0  0  0  0
  140.3640   75.6310  220.2070 C   0  0  0  0  0  0  0  0  0  0  0  0
  141.7050   75.2390  220.1610 C   0  0  0  0  0  0  0  0  0  0  0  0
  142.0820   73.9160  220.1660 C   0  0  0  0  0  0  0  0  0  0  0  0
  143.4280   73.6310  220.1170 C   0  0  0  0  0  0  0  0  0  0  0  0
  143.8630   72.3350  220.1190 F   0  0  0  0  0  0  0  0  0  0  0  0
  144.3930   74.6200  220.0650 C   0  0  0  0  0  0  0  0  0  0  0  0
  144.0250   75.9480  220.0610 C   0  0  0  0  0  0  0  0  0  0  0  0
  142.6750   76.2210  220.1090 C   0  0  0  0  0  0  0  0  0  0  0  0
  142.3210   77.5220  220.1040 N   0  0  0  0  0  0  0  0  0  0  0  0
  142.5680   79.9290  220.6010 H   0  0  0  0  0  0  0  0  0  0  0  0
  142.0684   82.2810  220.4193 H   0  0  0  0  0  0  0  0  0  0  0  0
  140.5415   81.6442  219.4789 H   0  0  0  0  0  0  0  0  0  0  0  0
  137.7912   82.7671  222.8435 H   0  0  0  0  0  0  0  0  0  0  0  0
  137.5351   81.6078  221.5563 H   0  0  0  0  0  0  0  0  0  0  0  0
  137.5537   81.1888  224.5539 H   0  0  0  0  0  0  0  0  0  0  0  0
  136.7068   80.2306  223.3522 H   0  0  0  0  0  0  0  0  0  0  0  0
  138.9073   79.1246  224.4742 H   0  0  0  0  0  0  0  0  0  0  0  0
  138.8646   78.9610  222.7774 H   0  0  0  0  0  0  0  0  0  0  0  0
  140.1219   81.5590  224.2971 H   0  0  0  0  0  0  0  0  0  0  0  0
  141.0727   80.2581  224.8570 H   0  0  0  0  0  0  0  0  0  0  0  0
  142.3161   81.9849  223.0067 H   0  0  0  0  0  0  0  0  0  0  0  0
  142.7847   81.5035  224.6636 H   0  0  0  0  0  0  0  0  0  0  0  0
  144.0744   80.7648  222.2565 H   0  0  0  0  0  0  0  0  0  0  0  0
  144.3616   80.0513  223.8585 H   0  0  0  0  0  0  0  0  0  0  0  0
  143.1860   78.7450  221.7040 H   0  0  0  0  0  0  0  0  0  0  0  0
  140.9639   78.9113  222.1773 H   0  0  0  0  0  0  0  0  0  0  0  0
  141.4380   78.1721  223.7419 H   0  0  0  0  0  0  0  0  0  0  0  0
  138.9427   77.2667  220.2388 H   0  0  0  0  0  0  0  0  0  0  0  0
  139.5806   74.8599  220.2482 H   0  0  0  0  0  0  0  0  0  0  0  0
  141.3324   73.1120  220.2078 H   0  0  0  0  0  0  0  0  0  0  0  0
  145.4576   74.3459  220.0267 H   0  0  0  0  0  0  0  0  0  0  0  0
  144.7739   76.7527  220.0214 H   0  0  0  0  0  0  0  0  0  0  0  0
  1  2  2  0
  2  3  1  0
  3  4  1  0
  4  5  1  0
  5  6  2  0
  5  7  1  0
  7  8  1  0
  8  9  1  0
  9 10  1  0
 10 11  1  0
 11 12  1  0
 12 13  1  0
 13 14  1  0
 14 15  1  0
 15 16  1  0
  2 17  1  0
 17 18  2  0
 18 19  1  0
 19 20  2  0
 20 21  1  0
 21 22  2  0
 22 23  1  0
 22 24  1  0
 24 25  2  0
 25 26  1  0
 26 27  2  0
 11  7  1  0
 16 12  1  0
 27 17  1  0
 26 20  1  0
  3 28  1  0
  4 29  1  0
  4 30  1  0
  8 31  1  0
  8 32  1  0
  9 33  1  0
  9 34  1  0
 10 35  1  0
 10 36  1  0
 11 37  1  1
 12 38  1  1
 13 39  1  0
 13 40  1  0
 14 41  1  0
 14 42  1  0
 15 43  1  0
 16 44  1  0
 16 45  1  0
 18 46  1  0
 19 47  1  0
 21 48  1  0
 24 49  1  0
 25 50  1  0
M  END
>  <smiles>  (56) 
O=C(NCC(=O)N1CCCC1C1CCNC1)c1ccc2cc(F)ccc2n1

>  <score_type>  (56) 
oracle

>  <origin>  (56) 
autodockgpu

>  <m_score__min__energy>  (56) 
-8.6099999999999994

>  <m_primary>  (56) 
energy

>  <rmsd>  (56) 
8.254995016178551

>  <m_score__min__rmsd>  (56) 
8.254995016178551

>  <meeko>  (56) 
{"free_energy": -5.81, "intermolecular_energy": -7.3, "internal_energy": -3.46, "cluster_size": 21, "cluster_id": 5, "rank_in_cluster": 20}

>  <energy>  (56) 
-8.49

>  <cluster_rmsd>  (56) 
1.13

>  <cluster>  (56) 
1

$$$$

     RDKit          3D

 50 53  0  0  0  0  0  0  0  0999 V2000
  139.0420   71.0070  221.6500 O   0  0  0  0  0  0  0  0  0  0  0  0
  139.8710   71.1640  222.5860 C   0  0  0  0  0  0  0  0  0  0  0  0
  140.8780   72.1990  222.4050 N   0  0  0  0  0  0  0  0  0  0  0  0
  140.8130   72.9140  221.1960 C   0  0  0  0  0  0  0  0  0  0  0  0
  140.9390   74.3590  221.1310 C   0  0  0  0  0  0  0  0  0  0  0  0
  140.2410   74.9690  222.0570 O   0  0  0  0  0  0  0  0  0  0  0  0
  141.6530   75.2240  220.2840 N   0  0  0  0  0  0  0  0  0  0  0  0
  141.1620   76.5700  219.9480 C   0  0  0  0  0  0  0  0  0  0  0  0
  142.3690   77.2220  219.2880 C   0  0  0  0  0  0  0  0  0  0  0  0
  143.5570   76.3760  219.7890 C   0  0  0  0  0  0  0  0  0  0  0  0
  142.8610   75.0050  219.6020 C   0  0  1  0  0  0  0  0  0  0  0  0
  143.7570   73.8890  219.6850 C   0  0  2  0  0  0  0  0  0  0  0  0
  144.6040   73.6040  220.8480 C   0  0  0  0  0  0  0  0  0  0  0  0
  145.9380   73.1000  220.3510 C   0  0  0  0  0  0  0  0  0  0  0  0
  145.9610   73.3120  218.9380 N   0  0  0  0  0  0  0  0  0  0  0  0
  144.6850   73.7480  218.4890 C   0  0  0  0  0  0  0  0  0  0  0  0
  139.8550   70.3710  223.8000 C   0  0  0  0  0  0  0  0  0  0  0  0
  139.1990   69.1600  223.7570 C   0  0  0  0  0  0  0  0  0  0  0  0
  139.1870   68.4090  224.9150 C   0  0  0  0  0  0  0  0  0  0  0  0
  139.8120   68.8540  226.0840 C   0  0  0  0  0  0  0  0  0  0  0  0
  139.8070   68.1150  227.2450 C   0  0  0  0  0  0  0  0  0  0  0  0
  140.4500   68.6390  228.3430 C   0  0  0  0  0  0  0  0  0  0  0  0
  140.4780   67.9500  229.5240 F   0  0  0  0  0  0  0  0  0  0  0  0
  141.0890   69.8650  228.3120 C   0  0  0  0  0  0  0  0  0  0  0  0
  141.0990   70.6130  227.1550 C   0  0  0  0  0  0  0  0  0  0  0  0
  140.4520   70.0770  226.0610 C   0  0  0  0  0  0  0  0  0  0  0  0
  140.4650   70.8130  224.9320 N   0  0  0  0  0  0  0  0  0  0  0  0
  141.5150   72.2850  223.2120 H   0  0  0  0  0  0  0  0  0  0  0  0
  141.6141   72.5097  220.5598 H   0  0  0  0  0  0  0  0  0  0  0  0
  139.7616   72.7685  220.9071 H   0  0  0  0  0  0  0  0  0  0  0  0
  140.3115   76.5180  219.2524 H   0  0  0  0  0  0  0  0  0  0  0  0
  140.7933   77.1269  220.8221 H   0  0  0  0  0  0  0  0  0  0  0  0
  142.2893   77.1769  218.1918 H   0  0  0  0  0  0  0  0  0  0  0  0
  142.4684   78.2887  219.5375 H   0  0  0  0  0  0  0  0  0  0  0  0
  144.4538   76.4875  219.1619 H   0  0  0  0  0  0  0  0  0  0  0  0
  143.9548   76.6073  220.7881 H   0  0  0  0  0  0  0  0  0  0  0  0
  142.5450   74.6176  218.6222 H   0  0  0  0  0  0  0  0  0  0  0  0
  142.9303   73.1673  219.7608 H   0  0  0  0  0  0  0  0  0  0  0  0
  144.7490   74.5220  221.4364 H   0  0  0  0  0  0  0  0  0  0  0  0
  144.1272   72.8467  221.4876 H   0  0  0  0  0  0  0  0  0  0  0  0
  146.7558   73.6578  220.8306 H   0  0  0  0  0  0  0  0  0  0  0  0
  146.0713   72.0350  220.5918 H   0  0  0  0  0  0  0  0  0  0  0  0
  146.7850   73.7940  218.5610 H   0  0  0  0  0  0  0  0  0  0  0  0
  144.7848   74.7201  217.9839 H   0  0  0  0  0  0  0  0  0  0  0  0
  144.2701   73.0134  217.7832 H   0  0  0  0  0  0  0  0  0  0  0  0
  138.7061   68.8069  222.8392 H   0  0  0  0  0  0  0  0  0  0  0  0
  138.6731   67.4364  224.9183 H   0  0  0  0  0  0  0  0  0  0  0  0
  139.3053   67.1373  227.2937 H   0  0  0  0  0  0  0  0  0  0  0  0
  141.5911   70.2443  229.2142 H   0  0  0  0  0  0  0  0  0  0  0  0
  141.5993   71.5914  227.1060 H   0  0  0  0  0  0  0  0  0  0  0  0
  1  2  2  0
  2  3  1  0
  3  4  1  0
  4  5  1  0
  5  6  2  0
  5  7  1  0
  7  8  1  0
  8  9  1  0
  9 10  1  0
 10 11  1  0
 11 12  1  0
 12 13  1  0
 13 14  1  0
 14 15  1  0
 15 16  1  0
  2 17  1  0
 17 18  2  0
 18 19  1  0
 19 20  2  0
 20 21  1  0
 21 22  2  0
 22 23  1  0
 22 24  1  0
 24 25  2  0
 25 26  1  0
 26 27  2  0
 11  7  1  0
 16 12  1  0
 27 17  1  0
 26 20  1  0
  3 28  1  0
  4 29  1  0
  4 30  1  0
  8 31  1  0
  8 32  1  0
  9 33  1  0
  9 34  1  0
 10 35  1  0
 10 36  1  0
 11 37  1  6
 12 38  1  6
 13 39  1  0
 13 40  1  0
 14 41  1  0
 14 42  1  0
 15 43  1  0
 16 44  1  0
 16 45  1  0
 18 46  1  0
 19 47  1  0
 21 48  1  0
 24 49  1  0
 25 50  1  0
M  END
>  <smiles>  (57) 
O=C(NCC(=O)N1CCCC1C1CCNC1)c1ccc2cc(F)ccc2n1

>  <score_type>  (57) 
oracle

>  <origin>  (57) 
autodockgpu

>  <m_score__min__energy>  (57) 
-8.6099999999999994

>  <m_primary>  (57) 
energy

>  <rmsd>  (57) 
2.2677842760432414

>  <m_score__min__rmsd>  (57) 
2.2677842760432414

>  <meeko>  (57) 
{"free_energy": -8.26, "intermolecular_energy": -9.75, "internal_energy": -1.35, "cluster_size": 22, "cluster_id": 1, "rank_in_cluster": 18}

>  <energy>  (57) 
-8.48

>  <cluster_rmsd>  (57) 
1.15

>  <cluster>  (57) 
1

$$$$

     RDKit          3D

 50 53  0  0  0  0  0  0  0  0999 V2000
  141.1840   72.2530  221.4980 O   0  0  0  0  0  0  0  0  0  0  0  0
  140.3090   72.4080  222.3920 C   0  0  0  0  0  0  0  0  0  0  0  0
  139.4110   73.5430  222.2430 N   0  0  0  0  0  0  0  0  0  0  0  0
  139.6200   74.3460  221.1080 C   0  0  0  0  0  0  0  0  0  0  0  0
  140.8730   75.0350  220.8530 C   0  0  0  0  0  0  0  0  0  0  0  0
  141.5470   75.2780  221.9490 O   0  0  0  0  0  0  0  0  0  0  0  0
  141.4990   75.4870  219.6780 N   0  0  0  0  0  0  0  0  0  0  0  0
  140.9500   76.5900  218.8750 C   0  0  0  0  0  0  0  0  0  0  0  0
  142.0870   76.9180  217.9180 C   0  0  0  0  0  0  0  0  0  0  0  0
  143.3310   76.3360  218.6190 C   0  0  0  0  0  0  0  0  0  0  0  0
  142.6590   75.0070  219.0480 C   0  0  1  0  0  0  0  0  0  0  0  0
  143.5870   74.0120  219.4970 C   0  0  2  0  0  0  0  0  0  0  0  0
  144.3420   74.1030  220.7510 C   0  0  0  0  0  0  0  0  0  0  0  0
  145.7330   73.5660  220.5090 C   0  0  0  0  0  0  0  0  0  0  0  0
  145.8680   73.3900  219.0960 N   0  0  0  0  0  0  0  0  0  0  0  0
  144.6200   73.6110  218.4550 C   0  0  0  0  0  0  0  0  0  0  0  0
  140.1730   71.5190  223.5300 C   0  0  0  0  0  0  0  0  0  0  0  0
  139.5520   70.3080  223.3170 C   0  0  0  0  0  0  0  0  0  0  0  0
  139.4260   69.4650  224.4030 C   0  0  0  0  0  0  0  0  0  0  0  0
  139.9060   69.8210  225.6670 C   0  0  0  0  0  0  0  0  0  0  0  0
  139.7870   68.9910  226.7580 C   0  0  0  0  0  0  0  0  0  0  0  0
  140.2920   69.4320  227.9600 C   0  0  0  0  0  0  0  0  0  0  0  0
  140.2020   68.6500  229.0780 F   0  0  0  0  0  0  0  0  0  0  0  0
  140.9040   70.6630  228.0990 C   0  0  0  0  0  0  0  0  0  0  0  0
  141.0290   71.5030  227.0120 C   0  0  0  0  0  0  0  0  0  0  0  0
  140.5190   71.0500  225.8140 C   0  0  0  0  0  0  0  0  0  0  0  0
  140.6440   71.8750  224.7550 N   0  0  0  0  0  0  0  0  0  0  0  0
  138.7110   73.6040  222.9980 H   0  0  0  0  0  0  0  0  0  0  0  0
  139.4486   73.6944  220.2385 H   0  0  0  0  0  0  0  0  0  0  0  0
  138.9385   75.1874  221.3018 H   0  0  0  0  0  0  0  0  0  0  0  0
  140.0517   76.2703  218.3265 H   0  0  0  0  0  0  0  0  0  0  0  0
  140.6330   77.4510  219.4818 H   0  0  0  0  0  0  0  0  0  0  0  0
  141.9276   76.4399  216.9403 H   0  0  0  0  0  0  0  0  0  0  0  0
  142.1764   77.9952  217.7140 H   0  0  0  0  0  0  0  0  0  0  0  0
  144.1756   76.1837  217.9310 H   0  0  0  0  0  0  0  0  0  0  0  0
  143.7957   76.9443  219.4090 H   0  0  0  0  0  0  0  0  0  0  0  0
  142.2819   74.2619  218.3320 H   0  0  0  0  0  0  0  0  0  0  0  0
  142.7854   73.2887  219.7074 H   0  0  0  0  0  0  0  0  0  0  0  0
  144.3999   75.1527  221.0746 H   0  0  0  0  0  0  0  0  0  0  0  0
  143.8420   73.5179  221.5370 H   0  0  0  0  0  0  0  0  0  0  0  0
  146.4841   74.2815  220.8750 H   0  0  0  0  0  0  0  0  0  0  0  0
  145.8876   72.6160  221.0416 H   0  0  0  0  0  0  0  0  0  0  0  0
  146.7020   73.8020  218.6630 H   0  0  0  0  0  0  0  0  0  0  0  0
  144.7251   74.4157  217.7124 H   0  0  0  0  0  0  0  0  0  0  0  0
  144.2961   72.6897  217.9488 H   0  0  0  0  0  0  0  0  0  0  0  0
  139.1727   70.0248  222.3241 H   0  0  0  0  0  0  0  0  0  0  0  0
  138.9359   68.4892  224.2706 H   0  0  0  0  0  0  0  0  0  0  0  0
  139.3037   68.0066  226.6722 H   0  0  0  0  0  0  0  0  0  0  0  0
  141.2929   70.9742  229.0798 H   0  0  0  0  0  0  0  0  0  0  0  0
  141.5126   72.4873  227.0970 H   0  0  0  0  0  0  0  0  0  0  0  0
  1  2  2  0
  2  3  1  0
  3  4  1  0
  4  5  1  0
  5  6  2  0
  5  7  1  0
  7  8  1  0
  8  9  1  0
  9 10  1  0
 10 11  1  0
 11 12  1  0
 12 13  1  0
 13 14  1  0
 14 15  1  0
 15 16  1  0
  2 17  1  0
 17 18  2  0
 18 19  1  0
 19 20  2  0
 20 21  1  0
 21 22  2  0
 22 23  1  0
 22 24  1  0
 24 25  2  0
 25 26  1  0
 26 27  2  0
 11  7  1  0
 16 12  1  0
 27 17  1  0
 26 20  1  0
  3 28  1  0
  4 29  1  0
  4 30  1  0
  8 31  1  0
  8 32  1  0
  9 33  1  0
  9 34  1  0
 10 35  1  0
 10 36  1  0
 11 37  1  6
 12 38  1  1
 13 39  1  0
 13 40  1  0
 14 41  1  0
 14 42  1  0
 15 43  1  0
 16 44  1  0
 16 45  1  0
 18 46  1  0
 19 47  1  0
 21 48  1  0
 24 49  1  0
 25 50  1  0
M  END
>  <smiles>  (58) 
O=C(NCC(=O)N1CCCC1C1CCNC1)c1ccc2cc(F)ccc2n1

>  <score_type>  (58) 
oracle

>  <origin>  (58) 
autodockgpu

>  <m_score__min__energy>  (58) 
-8.6099999999999994

>  <m_primary>  (58) 
energy

>  <rmsd>  (58) 
1.9489852478743415

>  <m_score__min__rmsd>  (58) 
1.9489852478743415

>  <meeko>  (58) 
{"free_energy": -8.44, "intermolecular_energy": -9.93, "internal_energy": -1.3, "cluster_size": 22, "cluster_id": 1, "rank_in_cluster": 11}

>  <energy>  (58) 
-8.48

>  <cluster_rmsd>  (58) 
1.17

>  <cluster>  (58) 
1

$$$$

     RDKit          3D

 50 53  0  0  0  0  0  0  0  0999 V2000
  141.1700   71.9380  221.4650 O   0  0  0  0  0  0  0  0  0  0  0  0
  140.3710   72.1830  222.4070 C   0  0  0  0  0  0  0  0  0  0  0  0
  139.5830   73.4020  222.3010 N   0  0  0  0  0  0  0  0  0  0  0  0
  139.8040   74.1770  221.1480 C   0  0  0  0  0  0  0  0  0  0  0  0
  140.9260   75.0880  221.0170 C   0  0  0  0  0  0  0  0  0  0  0  0
  141.4070   75.4660  222.1750 O   0  0  0  0  0  0  0  0  0  0  0  0
  141.5930   75.6380  219.9080 N   0  0  0  0  0  0  0  0  0  0  0  0
  141.1070   76.8470  219.2250 C   0  0  0  0  0  0  0  0  0  0  0  0
  142.2740   77.2270  218.3260 C   0  0  0  0  0  0  0  0  0  0  0  0
  143.4790   76.5170  218.9750 C   0  0  0  0  0  0  0  0  0  0  0  0
  142.7430   75.1800  219.2450 C   0  0  1  0  0  0  0  0  0  0  0  0
  143.6190   74.1010  219.5930 C   0  0  2  0  0  0  0  0  0  0  0  0
  144.4000   74.0490  220.8330 C   0  0  0  0  0  0  0  0  0  0  0  0
  145.7530   73.4550  220.5190 C   0  0  0  0  0  0  0  0  0  0  0  0
  145.8530   73.3850  219.0940 N   0  0  0  0  0  0  0  0  0  0  0  0
  144.6080   73.7260  218.5000 C   0  0  0  0  0  0  0  0  0  0  0  0
  140.2140   71.3160  223.5590 C   0  0  0  0  0  0  0  0  0  0  0  0
  139.5850   70.1070  223.3610 C   0  0  0  0  0  0  0  0  0  0  0  0
  139.4400   69.2850  224.4600 C   0  0  0  0  0  0  0  0  0  0  0  0
  139.9090   69.6590  225.7230 C   0  0  0  0  0  0  0  0  0  0  0  0
  139.7710   68.8500  226.8270 C   0  0  0  0  0  0  0  0  0  0  0  0
  140.2660   69.3070  228.0260 C   0  0  0  0  0  0  0  0  0  0  0  0
  140.1580   68.5470  229.1570 F   0  0  0  0  0  0  0  0  0  0  0  0
  140.8890   70.5360  228.1500 C   0  0  0  0  0  0  0  0  0  0  0  0
  141.0320   71.3550  227.0500 C   0  0  0  0  0  0  0  0  0  0  0  0
  140.5320   70.8850  225.8550 C   0  0  0  0  0  0  0  0  0  0  0  0
  140.6750   71.6900  224.7830 N   0  0  0  0  0  0  0  0  0  0  0  0
  138.9390   73.5360  223.0950 H   0  0  0  0  0  0  0  0  0  0  0  0
  139.8920   73.4643  220.3147 H   0  0  0  0  0  0  0  0  0  0  0  0
  138.9540   74.8744  221.1824 H   0  0  0  0  0  0  0  0  0  0  0  0
  140.2059   76.6307  218.6324 H   0  0  0  0  0  0  0  0  0  0  0  0
  140.8166   77.6492  219.9194 H   0  0  0  0  0  0  0  0  0  0  0  0
  142.1123   76.8666  217.2994 H   0  0  0  0  0  0  0  0  0  0  0  0
  142.4130   78.3151  218.2437 H   0  0  0  0  0  0  0  0  0  0  0  0
  144.3289   76.4040  218.2859 H   0  0  0  0  0  0  0  0  0  0  0  0
  143.9547   77.0134  219.8336 H   0  0  0  0  0  0  0  0  0  0  0  0
  142.3478   74.5360  218.4456 H   0  0  0  0  0  0  0  0  0  0  0  0
  142.7805   73.4097  219.7631 H   0  0  0  0  0  0  0  0  0  0  0  0
  144.5246   75.0647  221.2365 H   0  0  0  0  0  0  0  0  0  0  0  0
  143.8807   73.4324  221.5815 H   0  0  0  0  0  0  0  0  0  0  0  0
  146.5508   74.0952  220.9236 H   0  0  0  0  0  0  0  0  0  0  0  0
  145.8611   72.4583  220.9717 H   0  0  0  0  0  0  0  0  0  0  0  0
  146.7010   73.7820  218.6760 H   0  0  0  0  0  0  0  0  0  0  0  0
  144.7462   74.5796  217.8201 H   0  0  0  0  0  0  0  0  0  0  0  0
  144.2222   72.8673  217.9310 H   0  0  0  0  0  0  0  0  0  0  0  0
  139.2140   69.8092  222.3692 H   0  0  0  0  0  0  0  0  0  0  0  0
  138.9430   68.3111  224.3393 H   0  0  0  0  0  0  0  0  0  0  0  0
  139.2801   67.8684  226.7531 H   0  0  0  0  0  0  0  0  0  0  0  0
  141.2714   70.8607  229.1289 H   0  0  0  0  0  0  0  0  0  0  0  0
  141.5220   72.3371  227.1229 H   0  0  0  0  0  0  0  0  0  0  0  0
  1  2  2  0
  2  3  1  0
  3  4  1  0
  4  5  1  0
  5  6  2  0
  5  7  1  0
  7  8  1  0
  8  9  1  0
  9 10  1  0
 10 11  1  0
 11 12  1  0
 12 13  1  0
 13 14  1  0
 14 15  1  0
 15 16  1  0
  2 17  1  0
 17 18  2  0
 18 19  1  0
 19 20  2  0
 20 21  1  0
 21 22  2  0
 22 23  1  0
 22 24  1  0
 24 25  2  0
 25 26  1  0
 26 27  2  0
 11  7  1  0
 16 12  1  0
 27 17  1  0
 26 20  1  0
  3 28  1  0
  4 29  1  0
  4 30  1  0
  8 31  1  0
  8 32  1  0
  9 33  1  0
  9 34  1  0
 10 35  1  0
 10 36  1  0
 11 37  1  6
 12 38  1  1
 13 39  1  0
 13 40  1  0
 14 41  1  0
 14 42  1  0
 15 43  1  0
 16 44  1  0
 16 45  1  0
 18 46  1  0
 19 47  1  0
 21 48  1  0
 24 49  1  0
 25 50  1  0
M  END
>  <smiles>  (59) 
O=C(NCC(=O)N1CCCC1C1CCNC1)c1ccc2cc(F)ccc2n1

>  <score_type>  (59) 
oracle

>  <origin>  (59) 
autodockgpu

>  <m_score__min__energy>  (59) 
-8.6099999999999994

>  <m_primary>  (59) 
energy

>  <rmsd>  (59) 
2.009771531209201

>  <m_score__min__rmsd>  (59) 
2.009771531209201

>  <meeko>  (59) 
{"free_energy": -8.48, "intermolecular_energy": -9.98, "internal_energy": -1.33, "cluster_size": 22, "cluster_id": 1, "rank_in_cluster": 7}

>  <energy>  (59) 
-8.47

>  <cluster_rmsd>  (59) 
1.09

>  <cluster>  (59) 
1

$$$$

     RDKit          3D

 50 53  0  0  0  0  0  0  0  0999 V2000
  139.4600   79.5610  219.8690 O   0  0  0  0  0  0  0  0  0  0  0  0
  140.6230   79.2080  220.2030 C   0  0  0  0  0  0  0  0  0  0  0  0
  141.5780   80.2710  220.4810 N   0  0  0  0  0  0  0  0  0  0  0  0
  141.0930   81.5830  220.3450 C   0  0  0  0  0  0  0  0  0  0  0  0
  140.1810   82.1870  221.3010 C   0  0  0  0  0  0  0  0  0  0  0  0
  140.0330   83.4740  221.1140 O   0  0  0  0  0  0  0  0  0  0  0  0
  139.4330   81.6700  222.3740 N   0  0  0  0  0  0  0  0  0  0  0  0
  137.9790   81.8700  222.4800 C   0  0  0  0  0  0  0  0  0  0  0  0
  137.5800   80.9050  223.5870 C   0  0  0  0  0  0  0  0  0  0  0  0
  138.7430   79.8930  223.6230 C   0  0  0  0  0  0  0  0  0  0  0  0
  139.8700   80.9480  223.4960 C   0  0  1  0  0  0  0  0  0  0  0  0
  141.1750   80.4340  223.7890 C   0  0  2  0  0  0  0  0  0  0  0  0
  142.4160   81.1910  223.5970 C   0  0  0  0  0  0  0  0  0  0  0  0
  143.4750   80.2460  223.0800 C   0  0  0  0  0  0  0  0  0  0  0  0
  142.8110   79.0230  222.7490 N   0  0  0  0  0  0  0  0  0  0  0  0
  141.4570   79.0710  223.1760 C   0  0  0  0  0  0  0  0  0  0  0  0
  141.0280   77.8200  220.3160 C   0  0  0  0  0  0  0  0  0  0  0  0
  140.0690   76.9100  220.7050 C   0  0  0  0  0  0  0  0  0  0  0  0
  140.4590   75.5910  220.8100 C   0  0  0  0  0  0  0  0  0  0  0  0
  141.7700   75.1890  220.5350 C   0  0  0  0  0  0  0  0  0  0  0  0
  142.1720   73.8780  220.6360 C   0  0  0  0  0  0  0  0  0  0  0  0
  143.4840   73.5820  220.3450 C   0  0  0  0  0  0  0  0  0  0  0  0
  143.9410   72.2960  220.4280 F   0  0  0  0  0  0  0  0  0  0  0  0
  144.3930   74.5510  219.9590 C   0  0  0  0  0  0  0  0  0  0  0  0
  144.0010   75.8680  219.8550 C   0  0  0  0  0  0  0  0  0  0  0  0
  142.6840   76.1510  220.1500 C   0  0  0  0  0  0  0  0  0  0  0  0
  142.3050   77.4410  220.0460 N   0  0  0  0  0  0  0  0  0  0  0  0
  142.5040   79.9150  220.7630 H   0  0  0  0  0  0  0  0  0  0  0  0
  141.9795   82.2337  220.3173 H   0  0  0  0  0  0  0  0  0  0  0  0
  140.4541   81.4930  219.4541 H   0  0  0  0  0  0  0  0  0  0  0  0
  137.7419   82.9081  222.7561 H   0  0  0  0  0  0  0  0  0  0  0  0
  137.4467   81.6889  221.5346 H   0  0  0  0  0  0  0  0  0  0  0  0
  137.4855   81.4290  224.5495 H   0  0  0  0  0  0  0  0  0  0  0  0
  136.6047   80.4289  223.4078 H   0  0  0  0  0  0  0  0  0  0  0  0
  138.7898   79.3311  224.5675 H   0  0  0  0  0  0  0  0  0  0  0  0
  138.7273   79.0801  222.8821 H   0  0  0  0  0  0  0  0  0  0  0  0
  140.0590   81.7237  224.2527 H   0  0  0  0  0  0  0  0  0  0  0  0
  140.9972   80.4651  224.8741 H   0  0  0  0  0  0  0  0  0  0  0  0
  142.2501   81.9979  222.8681 H   0  0  0  0  0  0  0  0  0  0  0  0
  142.7388   81.6361  224.5497 H   0  0  0  0  0  0  0  0  0  0  0  0
  143.9567   80.6693  222.1863 H   0  0  0  0  0  0  0  0  0  0  0  0
  144.2575   80.0787  223.8348 H   0  0  0  0  0  0  0  0  0  0  0  0
  142.9990   78.6400  221.8160 H   0  0  0  0  0  0  0  0  0  0  0  0
  140.7932   78.9108  222.3136 H   0  0  0  0  0  0  0  0  0  0  0  0
  141.2768   78.2846  223.9237 H   0  0  0  0  0  0  0  0  0  0  0  0
  139.0368   77.2220  220.9225 H   0  0  0  0  0  0  0  0  0  0  0  0
  139.7202   74.8364  221.1178 H   0  0  0  0  0  0  0  0  0  0  0  0
  141.4668   73.0904  220.9399 H   0  0  0  0  0  0  0  0  0  0  0  0
  145.4323   74.2691  219.7343 H   0  0  0  0  0  0  0  0  0  0  0  0
  144.7054   76.6563  219.5510 H   0  0  0  0  0  0  0  0  0  0  0  0
  1  2  2  0
  2  3  1  0
  3  4  1  0
  4  5  1  0
  5  6  2  0
  5  7  1  0
  7  8  1  0
  8  9  1  0
  9 10  1  0
 10 11  1  0
 11 12  1  0
 12 13  1  0
 13 14  1  0
 14 15  1  0
 15 16  1  0
  2 17  1  0
 17 18  2  0
 18 19  1  0
 19 20  2  0
 20 21  1  0
 21 22  2  0
 22 23  1  0
 22 24  1  0
 24 25  2  0
 25 26  1  0
 26 27  2  0
 11  7  1  0
 16 12  1  0
 27 17  1  0
 26 20  1  0
  3 28  1  0
  4 29  1  0
  4 30  1  0
  8 31  1  0
  8 32  1  0
  9 33  1  0
  9 34  1  0
 10 35  1  0
 10 36  1  0
 11 37  1  1
 12 38  1  1
 13 39  1  0
 13 40  1  0
 14 41  1  0
 14 42  1  0
 15 43  1  0
 16 44  1  0
 16 45  1  0
 18 46  1  0
 19 47  1  0
 21 48  1  0
 24 49  1  0
 25 50  1  0
M  END
>  <smiles>  (60) 
O=C(NCC(=O)N1CCCC1C1CCNC1)c1ccc2cc(F)ccc2n1

>  <score_type>  (60) 
oracle

>  <origin>  (60) 
autodockgpu

>  <m_score__min__energy>  (60) 
-8.6099999999999994

>  <m_primary>  (60) 
energy

>  <rmsd>  (60) 
8.207078561340348

>  <m_score__min__rmsd>  (60) 
8.207078561340348

>  <meeko>  (60) 
{"free_energy": -6.03, "intermolecular_energy": -7.52, "internal_energy": -3.36, "cluster_size": 21, "cluster_id": 5, "rank_in_cluster": 11}

>  <energy>  (60) 
-8.45

>  <cluster_rmsd>  (60) 
1.2

>  <cluster>  (60) 
1

$$$$

     RDKit          3D

 50 53  0  0  0  0  0  0  0  0999 V2000
  139.3140   70.9050  221.4030 O   0  0  0  0  0  0  0  0  0  0  0  0
  139.7070   71.3490  222.5160 C   0  0  0  0  0  0  0  0  0  0  0  0
  140.1320   72.7400  222.5540 N   0  0  0  0  0  0  0  0  0  0  0  0
  140.0550   73.4400  221.3370 C   0  0  0  0  0  0  0  0  0  0  0  0
  140.9080   74.5730  221.0270 C   0  0  0  0  0  0  0  0  0  0  0  0
  141.2280   75.2690  222.0890 O   0  0  0  0  0  0  0  0  0  0  0  0
  141.4530   75.0660  219.8290 N   0  0  0  0  0  0  0  0  0  0  0  0
  140.7890   76.1180  219.0430 C   0  0  0  0  0  0  0  0  0  0  0  0
  141.8610   76.5290  218.0440 C   0  0  0  0  0  0  0  0  0  0  0  0
  143.1720   76.0510  218.7000 C   0  0  0  0  0  0  0  0  0  0  0  0
  142.6240   74.6760  219.1570 C   0  0  1  0  0  0  0  0  0  0  0  0
  143.6430   73.7600  219.5750 C   0  0  2  0  0  0  0  0  0  0  0  0
  144.4300   73.9140  220.8030 C   0  0  0  0  0  0  0  0  0  0  0  0
  145.8510   73.4900  220.5140 C   0  0  0  0  0  0  0  0  0  0  0  0
  145.9520   73.3230  219.0980 N   0  0  0  0  0  0  0  0  0  0  0  0
  144.6700   73.4400  218.4990 C   0  0  0  0  0  0  0  0  0  0  0  0
  139.7480   70.5430  223.7200 C   0  0  0  0  0  0  0  0  0  0  0  0
  139.1850   69.2870  223.6630 C   0  0  0  0  0  0  0  0  0  0  0  0
  139.2280   68.5240  224.8110 C   0  0  0  0  0  0  0  0  0  0  0  0
  139.8160   69.0010  225.9870 C   0  0  0  0  0  0  0  0  0  0  0  0
  139.8650   68.2510  227.1390 C   0  0  0  0  0  0  0  0  0  0  0  0
  140.4650   68.8090  228.2450 C   0  0  0  0  0  0  0  0  0  0  0  0
  140.5440   68.1110  229.4180 F   0  0  0  0  0  0  0  0  0  0  0  0
  141.0110   70.0790  228.2290 C   0  0  0  0  0  0  0  0  0  0  0  0
  140.9670   70.8390  227.0800 C   0  0  0  0  0  0  0  0  0  0  0  0
  140.3630   70.2690  225.9800 C   0  0  0  0  0  0  0  0  0  0  0  0
  140.3230   71.0170  224.8580 N   0  0  0  0  0  0  0  0  0  0  0  0
  140.4260   73.0450  223.4950 H   0  0  0  0  0  0  0  0  0  0  0  0
  140.2371   72.6969  220.5466 H   0  0  0  0  0  0  0  0  0  0  0  0
  139.0685   73.9198  221.4183 H   0  0  0  0  0  0  0  0  0  0  0  0
  139.8995   75.7251  218.5288 H   0  0  0  0  0  0  0  0  0  0  0  0
  140.4270   76.9548  219.6583 H   0  0  0  0  0  0  0  0  0  0  0  0
  141.7042   76.0342  217.0742 H   0  0  0  0  0  0  0  0  0  0  0  0
  141.8575   77.6088  217.8341 H   0  0  0  0  0  0  0  0  0  0  0  0
  144.0002   75.9621  217.9815 H   0  0  0  0  0  0  0  0  0  0  0  0
  143.6156   76.6985  219.4706 H   0  0  0  0  0  0  0  0  0  0  0  0
  142.2819   73.9003  218.4561 H   0  0  0  0  0  0  0  0  0  0  0  0
  142.9088   72.9761  219.8124 H   0  0  0  0  0  0  0  0  0  0  0  0
  144.4142   74.9657  221.1251 H   0  0  0  0  0  0  0  0  0  0  0  0
  144.0053   73.2923  221.6049 H   0  0  0  0  0  0  0  0  0  0  0  0
  146.5540   74.2642  220.8552 H   0  0  0  0  0  0  0  0  0  0  0  0
  146.0993   72.5566  221.0403 H   0  0  0  0  0  0  0  0  0  0  0  0
  146.7350   73.7990  218.6370 H   0  0  0  0  0  0  0  0  0  0  0  0
  144.6849   74.2479  217.7526 H   0  0  0  0  0  0  0  0  0  0  0  0
  144.4051   72.4937  218.0046 H   0  0  0  0  0  0  0  0  0  0  0  0
  138.7206   68.9085  222.7404 H   0  0  0  0  0  0  0  0  0  0  0  0
  138.7890   67.5154  224.8016 H   0  0  0  0  0  0  0  0  0  0  0  0
  139.4384   67.2378  227.1752 H   0  0  0  0  0  0  0  0  0  0  0  0
  141.4822   70.4844  229.1365 H   0  0  0  0  0  0  0  0  0  0  0  0
  141.3936   71.8522  227.0427 H   0  0  0  0  0  0  0  0  0  0  0  0
  1  2  2  0
  2  3  1  0
  3  4  1  0
  4  5  1  0
  5  6  2  0
  5  7  1  0
  7  8  1  0
  8  9  1  0
  9 10  1  0
 10 11  1  0
 11 12  1  0
 12 13  1  0
 13 14  1  0
 14 15  1  0
 15 16  1  0
  2 17  1  0
 17 18  2  0
 18 19  1  0
 19 20  2  0
 20 21  1  0
 21 22  2  0
 22 23  1  0
 22 24  1  0
 24 25  2  0
 25 26  1  0
 26 27  2  0
 11  7  1  0
 16 12  1  0
 27 17  1  0
 26 20  1  0
  3 28  1  0
  4 29  1  0
  4 30  1  0
  8 31  1  0
  8 32  1  0
  9 33  1  0
  9 34  1  0
 10 35  1  0
 10 36  1  0
 11 37  1  6
 12 38  1  1
 13 39  1  0
 13 40  1  0
 14 41  1  0
 14 42  1  0
 15 43  1  0
 16 44  1  0
 16 45  1  0
 18 46  1  0
 19 47  1  0
 21 48  1  0
 24 49  1  0
 25 50  1  0
M  END
>  <smiles>  (61) 
O=C(NCC(=O)N1CCCC1C1CCNC1)c1ccc2cc(F)ccc2n1

>  <score_type>  (61) 
oracle

>  <origin>  (61) 
autodockgpu

>  <m_score__min__energy>  (61) 
-8.6099999999999994

>  <m_primary>  (61) 
energy

>  <rmsd>  (61) 
1.8438269337411752

>  <m_score__min__rmsd>  (61) 
1.8438269337411752

>  <meeko>  (61) 
{"free_energy": -7.91, "intermolecular_energy": -9.4, "internal_energy": -1.5, "cluster_size": 22, "cluster_id": 1, "rank_in_cluster": 21}

>  <energy>  (61) 
-8.44

>  <cluster_rmsd>  (61) 
1.23

>  <cluster>  (61) 
1

$$$$

     RDKit          3D

 50 53  0  0  0  0  0  0  0  0999 V2000
  138.9760   71.0330  221.6450 O   0  0  0  0  0  0  0  0  0  0  0  0
  139.7780   71.2180  222.6000 C   0  0  0  0  0  0  0  0  0  0  0  0
  140.7240   72.3150  222.4600 N   0  0  0  0  0  0  0  0  0  0  0  0
  140.6360   73.0530  221.2660 C   0  0  0  0  0  0  0  0  0  0  0  0
  141.0090   74.4530  221.1790 C   0  0  0  0  0  0  0  0  0  0  0  0
  140.6770   75.1310  222.2490 O   0  0  0  0  0  0  0  0  0  0  0  0
  141.6490   75.2170  220.1870 N   0  0  0  0  0  0  0  0  0  0  0  0
  141.0800   76.4770  219.6840 C   0  0  0  0  0  0  0  0  0  0  0  0
  142.2280   77.0790  218.8870 C   0  0  0  0  0  0  0  0  0  0  0  0
  143.4740   76.3690  219.4540 C   0  0  0  0  0  0  0  0  0  0  0  0
  142.8420   74.9550  219.4940 C   0  0  1  0  0  0  0  0  0  0  0  0
  143.7950   73.9050  219.6990 C   0  0  2  0  0  0  0  0  0  0  0  0
  144.7090   73.8400  220.8440 C   0  0  0  0  0  0  0  0  0  0  0  0
  146.0420   73.3210  220.3590 C   0  0  0  0  0  0  0  0  0  0  0  0
  145.9870   73.3110  218.9300 N   0  0  0  0  0  0  0  0  0  0  0  0
  144.6720   73.6180  218.4900 C   0  0  0  0  0  0  0  0  0  0  0  0
  139.7890   70.3980  223.7960 C   0  0  0  0  0  0  0  0  0  0  0  0
  139.1700   69.1690  223.7280 C   0  0  0  0  0  0  0  0  0  0  0  0
  139.1830   68.3920  224.8680 C   0  0  0  0  0  0  0  0  0  0  0  0
  139.7970   68.8300  226.0460 C   0  0  0  0  0  0  0  0  0  0  0  0
  139.8170   68.0660  227.1900 C   0  0  0  0  0  0  0  0  0  0  0  0
  140.4470   68.5850  228.2990 C   0  0  0  0  0  0  0  0  0  0  0  0
  140.4990   67.8710  229.4640 F   0  0  0  0  0  0  0  0  0  0  0  0
  141.0480   69.8290  228.2940 C   0  0  0  0  0  0  0  0  0  0  0  0
  141.0330   70.6030  227.1530 C   0  0  0  0  0  0  0  0  0  0  0  0
  140.4000   70.0730  226.0490 C   0  0  0  0  0  0  0  0  0  0  0  0
  140.3880   70.8330  224.9360 N   0  0  0  0  0  0  0  0  0  0  0  0
  141.3400   72.4220  223.2800 H   0  0  0  0  0  0  0  0  0  0  0  0
  141.2651   72.5245  220.5346 H   0  0  0  0  0  0  0  0  0  0  0  0
  139.5476   73.1026  221.1145 H   0  0  0  0  0  0  0  0  0  0  0  0
  140.2086   76.2876  219.0400 H   0  0  0  0  0  0  0  0  0  0  0  0
  140.7159   77.1375  220.4847 H   0  0  0  0  0  0  0  0  0  0  0  0
  142.1121   76.8711  217.8130 H   0  0  0  0  0  0  0  0  0  0  0  0
  142.2823   78.1741  218.9759 H   0  0  0  0  0  0  0  0  0  0  0  0
  144.3418   76.4289  218.7807 H   0  0  0  0  0  0  0  0  0  0  0  0
  143.8940   76.7603  220.3923 H   0  0  0  0  0  0  0  0  0  0  0  0
  142.5125   74.4151  218.5940 H   0  0  0  0  0  0  0  0  0  0  0  0
  143.0093   73.1706  219.9300 H   0  0  0  0  0  0  0  0  0  0  0  0
  144.8357   74.8436  221.2760 H   0  0  0  0  0  0  0  0  0  0  0  0
  144.3010   73.1718  221.6167 H   0  0  0  0  0  0  0  0  0  0  0  0
  146.8526   73.9807  220.7020 H   0  0  0  0  0  0  0  0  0  0  0  0
  146.2401   72.3133  220.7532 H   0  0  0  0  0  0  0  0  0  0  0  0
  146.7680   73.7620  218.4400 H   0  0  0  0  0  0  0  0  0  0  0  0
  144.6996   74.5028  217.8370 H   0  0  0  0  0  0  0  0  0  0  0  0
  144.2612   72.7655  217.9292 H   0  0  0  0  0  0  0  0  0  0  0  0
  138.6857   68.8218  222.8034 H   0  0  0  0  0  0  0  0  0  0  0  0
  138.6989   67.4044  224.8501 H   0  0  0  0  0  0  0  0  0  0  0  0
  139.3450   67.0728  227.2179 H   0  0  0  0  0  0  0  0  0  0  0  0
  141.5403   70.2034  229.2037 H   0  0  0  0  0  0  0  0  0  0  0  0
  141.5040   71.5967  227.1250 H   0  0  0  0  0  0  0  0  0  0  0  0
  1  2  2  0
  2  3  1  0
  3  4  1  0
  4  5  1  0
  5  6  2  0
  5  7  1  0
  7  8  1  0
  8  9  1  0
  9 10  1  0
 10 11  1  0
 11 12  1  0
 12 13  1  0
 13 14  1  0
 14 15  1  0
 15 16  1  0
  2 17  1  0
 17 18  2  0
 18 19  1  0
 19 20  2  0
 20 21  1  0
 21 22  2  0
 22 23  1  0
 22 24  1  0
 24 25  2  0
 25 26  1  0
 26 27  2  0
 11  7  1  0
 16 12  1  0
 27 17  1  0
 26 20  1  0
  3 28  1  0
  4 29  1  0
  4 30  1  0
  8 31  1  0
  8 32  1  0
  9 33  1  0
  9 34  1  0
 10 35  1  0
 10 36  1  0
 11 37  1  6
 12 38  1  1
 13 39  1  0
 13 40  1  0
 14 41  1  0
 14 42  1  0
 15 43  1  0
 16 44  1  0
 16 45  1  0
 18 46  1  0
 19 47  1  0
 21 48  1  0
 24 49  1  0
 25 50  1  0
M  END
>  <smiles>  (62) 
O=C(NCC(=O)N1CCCC1C1CCNC1)c1ccc2cc(F)ccc2n1

>  <score_type>  (62) 
oracle

>  <origin>  (62) 
autodockgpu

>  <m_score__min__energy>  (62) 
-8.6099999999999994

>  <m_primary>  (62) 
energy

>  <rmsd>  (62) 
2.1413054164027843

>  <m_score__min__rmsd>  (62) 
2.1413054164027843

>  <meeko>  (62) 
{"free_energy": -8.32, "intermolecular_energy": -9.81, "internal_energy": -1.39, "cluster_size": 22, "cluster_id": 1, "rank_in_cluster": 16}

>  <energy>  (62) 
-8.44

>  <cluster_rmsd>  (62) 
1.22

>  <cluster>  (62) 
1

$$$$

     RDKit          3D

 50 53  0  0  0  0  0  0  0  0999 V2000
  141.4420   72.7100  221.9240 O   0  0  0  0  0  0  0  0  0  0  0  0
  140.3980   72.6220  222.6250 C   0  0  0  0  0  0  0  0  0  0  0  0
  139.3380   73.5790  222.3480 N   0  0  0  0  0  0  0  0  0  0  0  0
  139.5980   74.5040  221.3210 C   0  0  0  0  0  0  0  0  0  0  0  0
  140.4110   75.6900  221.5200 C   0  0  0  0  0  0  0  0  0  0  0  0
  140.2130   76.2480  222.6870 O   0  0  0  0  0  0  0  0  0  0  0  0
  141.3590   76.3500  220.7180 N   0  0  0  0  0  0  0  0  0  0  0  0
  142.0700   75.6670  219.6260 C   0  0  0  0  0  0  0  0  0  0  0  0
  142.7280   76.8140  218.8730 C   0  0  0  0  0  0  0  0  0  0  0  0
  141.9010   78.0460  219.2940 C   0  0  0  0  0  0  0  0  0  0  0  0
  141.8220   77.6740  220.7960 C   0  0  1  0  0  0  0  0  0  0  0  0
  141.3650   78.7450  221.6310 C   0  0  2  0  0  0  0  0  0  0  0  0
  141.7850   78.9350  223.0230 C   0  0  0  0  0  0  0  0  0  0  0  0
  140.5910   79.4070  223.8190 C   0  0  0  0  0  0  0  0  0  0  0  0
  139.4470   79.2660  222.9730 N   0  0  0  0  0  0  0  0  0  0  0  0
  139.8530   78.9080  221.6590 C   0  0  0  0  0  0  0  0  0  0  0  0
  140.2250   71.6270  223.6660 C   0  0  0  0  0  0  0  0  0  0  0  0
  139.5560   70.4690  223.3320 C   0  0  0  0  0  0  0  0  0  0  0  0
  139.3950   69.5260  224.3250 C   0  0  0  0  0  0  0  0  0  0  0  0
  139.8870   69.7310  225.6180 C   0  0  0  0  0  0  0  0  0  0  0  0
  139.7330   68.7980  226.6180 C   0  0  0  0  0  0  0  0  0  0  0  0
  140.2530   69.0920  227.8580 C   0  0  0  0  0  0  0  0  0  0  0  0
  140.1300   68.2040  228.8900 F   0  0  0  0  0  0  0  0  0  0  0  0
  140.9130   70.2780  228.1210 C   0  0  0  0  0  0  0  0  0  0  0  0
  141.0730   71.2190  227.1260 C   0  0  0  0  0  0  0  0  0  0  0  0
  140.5480   70.9130  225.8890 C   0  0  0  0  0  0  0  0  0  0  0  0
  140.7070   71.8360  224.9200 N   0  0  0  0  0  0  0  0  0  0  0  0
  138.5070   73.4430  222.9450 H   0  0  0  0  0  0  0  0  0  0  0  0
  140.0827   73.9347  220.5142 H   0  0  0  0  0  0  0  0  0  0  0  0
  138.6020   74.9414  221.1576 H   0  0  0  0  0  0  0  0  0  0  0  0
  142.8237   74.9697  220.0207 H   0  0  0  0  0  0  0  0  0  0  0  0
  141.4081   75.0574  218.9934 H   0  0  0  0  0  0  0  0  0  0  0  0
  143.7807   76.9270  219.1714 H   0  0  0  0  0  0  0  0  0  0  0  0
  142.7401   76.6592  217.7840 H   0  0  0  0  0  0  0  0  0  0  0  0
  142.4294   78.9944  219.1173 H   0  0  0  0  0  0  0  0  0  0  0  0
  140.9512   78.2197  218.7670 H   0  0  0  0  0  0  0  0  0  0  0  0
  142.7046   77.6075  221.4491 H   0  0  0  0  0  0  0  0  0  0  0  0
  141.9363   79.4956  221.0652 H   0  0  0  0  0  0  0  0  0  0  0  0
  142.1530   77.9832  223.4336 H   0  0  0  0  0  0  0  0  0  0  0  0
  142.5938   79.6786  223.0765 H   0  0  0  0  0  0  0  0  0  0  0  0
  140.4715   78.7915  224.7228 H   0  0  0  0  0  0  0  0  0  0  0  0
  140.7185   80.4518  224.1387 H   0  0  0  0  0  0  0  0  0  0  0  0
  138.6430   78.7700  223.3710 H   0  0  0  0  0  0  0  0  0  0  0  0
  139.3751   77.9598  221.3715 H   0  0  0  0  0  0  0  0  0  0  0  0
  139.5524   79.6948  220.9515 H   0  0  0  0  0  0  0  0  0  0  0  0
  139.1671   70.3042  222.3163 H   0  0  0  0  0  0  0  0  0  0  0  0
  138.8665   68.5892  224.0945 H   0  0  0  0  0  0  0  0  0  0  0  0
  139.2110   67.8477  226.4322 H   0  0  0  0  0  0  0  0  0  0  0  0
  141.3119   70.4716  229.1277 H   0  0  0  0  0  0  0  0  0  0  0  0
  141.5952   72.1694  227.3108 H   0  0  0  0  0  0  0  0  0  0  0  0
  1  2  2  0
  2  3  1  0
  3  4  1  0
  4  5  1  0
  5  6  2  0
  5  7  1  0
  7  8  1  0
  8  9  1  0
  9 10  1  0
 10 11  1  0
 11 12  1  0
 12 13  1  0
 13 14  1  0
 14 15  1  0
 15 16  1  0
  2 17  1  0
 17 18  2  0
 18 19  1  0
 19 20  2  0
 20 21  1  0
 21 22  2  0
 22 23  1  0
 22 24  1  0
 24 25  2  0
 25 26  1  0
 26 27  2  0
 11  7  1  0
 16 12  1  0
 27 17  1  0
 26 20  1  0
  3 28  1  0
  4 29  1  0
  4 30  1  0
  8 31  1  0
  8 32  1  0
  9 33  1  0
  9 34  1  0
 10 35  1  0
 10 36  1  0
 11 37  1  1
 12 38  1  6
 13 39  1  0
 13 40  1  0
 14 41  1  0
 14 42  1  0
 15 43  1  0
 16 44  1  0
 16 45  1  0
 18 46  1  0
 19 47  1  0
 21 48  1  0
 24 49  1  0
 25 50  1  0
M  END
>  <smiles>  (63) 
O=C(NCC(=O)N1CCCC1C1CCNC1)c1ccc2cc(F)ccc2n1

>  <score_type>  (63) 
oracle

>  <origin>  (63) 
autodockgpu

>  <m_score__min__energy>  (63) 
-8.6099999999999994

>  <m_primary>  (63) 
energy

>  <rmsd>  (63) 
1.9052623412394707

>  <m_score__min__rmsd>  (63) 
1.9052623412394707

>  <meeko>  (63) 
{"free_energy": -7.99, "intermolecular_energy": -9.48, "internal_energy": -1.16, "cluster_size": 5, "cluster_id": 2, "rank_in_cluster": 4}

>  <energy>  (63) 
-8.43

>  <cluster_rmsd>  (63) 
0.99

>  <cluster>  (63) 
1

$$$$

     RDKit          3D

 50 53  0  0  0  0  0  0  0  0999 V2000
  139.2420   70.8650  221.4600 O   0  0  0  0  0  0  0  0  0  0  0  0
  139.9040   71.1550  222.4920 C   0  0  0  0  0  0  0  0  0  0  0  0
  140.7550   72.3330  222.4170 N   0  0  0  0  0  0  0  0  0  0  0  0
  140.7440   73.0210  221.1900 C   0  0  0  0  0  0  0  0  0  0  0  0
  140.9230   74.4590  221.0950 C   0  0  0  0  0  0  0  0  0  0  0  0
  140.2800   75.1110  222.0300 O   0  0  0  0  0  0  0  0  0  0  0  0
  141.6420   75.2810  220.2090 N   0  0  0  0  0  0  0  0  0  0  0  0
  141.1620   76.6140  219.8170 C   0  0  0  0  0  0  0  0  0  0  0  0
  142.3720   77.2270  219.1270 C   0  0  0  0  0  0  0  0  0  0  0  0
  143.5550   76.3950  219.6620 C   0  0  0  0  0  0  0  0  0  0  0  0
  142.8480   75.0220  219.5360 C   0  0  1  0  0  0  0  0  0  0  0  0
  143.7340   73.9040  219.6650 C   0  0  2  0  0  0  0  0  0  0  0  0
  144.5850   73.6650  220.8350 C   0  0  0  0  0  0  0  0  0  0  0  0
  145.9130   73.1280  220.3560 C   0  0  0  0  0  0  0  0  0  0  0  0
  145.9290   73.2750  218.9340 N   0  0  0  0  0  0  0  0  0  0  0  0
  144.6550   73.7000  218.4720 C   0  0  0  0  0  0  0  0  0  0  0  0
  139.8460   70.3780  223.7150 C   0  0  0  0  0  0  0  0  0  0  0  0
  139.1610   69.1830  223.6750 C   0  0  0  0  0  0  0  0  0  0  0  0
  139.1100   68.4470  224.8410 C   0  0  0  0  0  0  0  0  0  0  0  0
  139.7240   68.8900  226.0160 C   0  0  0  0  0  0  0  0  0  0  0  0
  139.6810   68.1660  227.1850 C   0  0  0  0  0  0  0  0  0  0  0  0
  140.3170   68.6870  228.2880 C   0  0  0  0  0  0  0  0  0  0  0  0
  140.3080   68.0130  229.4780 F   0  0  0  0  0  0  0  0  0  0  0  0
  140.9880   69.8960  228.2540 C   0  0  0  0  0  0  0  0  0  0  0  0
  141.0370   70.6300  227.0880 C   0  0  0  0  0  0  0  0  0  0  0  0
  140.3960   70.0970  225.9900 C   0  0  0  0  0  0  0  0  0  0  0  0
  140.4480   70.8180  224.8520 N   0  0  0  0  0  0  0  0  0  0  0  0
  141.2570   72.5230  223.2970 H   0  0  0  0  0  0  0  0  0  0  0  0
  141.5449   72.5737  220.5830 H   0  0  0  0  0  0  0  0  0  0  0  0
  139.6953   72.9056  220.8788 H   0  0  0  0  0  0  0  0  0  0  0  0
  140.3092   76.5393  219.1262 H   0  0  0  0  0  0  0  0  0  0  0  0
  140.8005   77.2109  220.6673 H   0  0  0  0  0  0  0  0  0  0  0  0
  142.2894   77.1346  218.0340 H   0  0  0  0  0  0  0  0  0  0  0  0
  142.4800   78.3028  219.3296 H   0  0  0  0  0  0  0  0  0  0  0  0
  144.4512   76.4725  219.0289 H   0  0  0  0  0  0  0  0  0  0  0  0
  143.9570   76.6666  220.6493 H   0  0  0  0  0  0  0  0  0  0  0  0
  142.5279   74.5936  218.5748 H   0  0  0  0  0  0  0  0  0  0  0  0
  142.9011   73.1943  219.7774 H   0  0  0  0  0  0  0  0  0  0  0  0
  144.7402   74.6076  221.3804 H   0  0  0  0  0  0  0  0  0  0  0  0
  144.1054   72.9408  221.5100 H   0  0  0  0  0  0  0  0  0  0  0  0
  146.7375   73.7010  220.8053 H   0  0  0  0  0  0  0  0  0  0  0  0
  146.0404   72.0744  220.6455 H   0  0  0  0  0  0  0  0  0  0  0  0
  146.7550   73.7320  218.5310 H   0  0  0  0  0  0  0  0  0  0  0  0
  144.7600   74.6468  217.9219 H   0  0  0  0  0  0  0  0  0  0  0  0
  144.2305   72.9368  217.8032 H   0  0  0  0  0  0  0  0  0  0  0  0
  138.6756   68.8308  222.7529 H   0  0  0  0  0  0  0  0  0  0  0  0
  138.5725   67.4873  224.8460 H   0  0  0  0  0  0  0  0  0  0  0  0
  139.1549   67.2013  227.2361 H   0  0  0  0  0  0  0  0  0  0  0  0
  141.4842   70.2732  229.1604 H   0  0  0  0  0  0  0  0  0  0  0  0
  141.5625   71.5950  227.0362 H   0  0  0  0  0  0  0  0  0  0  0  0
  1  2  2  0
  2  3  1  0
  3  4  1  0
  4  5  1  0
  5  6  2  0
  5  7  1  0
  7  8  1  0
  8  9  1  0
  9 10  1  0
 10 11  1  0
 11 12  1  0
 12 13  1  0
 13 14  1  0
 14 15  1  0
 15 16  1  0
  2 17  1  0
 17 18  2  0
 18 19  1  0
 19 20  2  0
 20 21  1  0
 21 22  2  0
 22 23  1  0
 22 24  1  0
 24 25  2  0
 25 26  1  0
 26 27  2  0
 11  7  1  0
 16 12  1  0
 27 17  1  0
 26 20  1  0
  3 28  1  0
  4 29  1  0
  4 30  1  0
  8 31  1  0
  8 32  1  0
  9 33  1  0
  9 34  1  0
 10 35  1  0
 10 36  1  0
 11 37  1  6
 12 38  1  6
 13 39  1  0
 13 40  1  0
 14 41  1  0
 14 42  1  0
 15 43  1  0
 16 44  1  0
 16 45  1  0
 18 46  1  0
 19 47  1  0
 21 48  1  0
 24 49  1  0
 25 50  1  0
M  END
>  <smiles>  (64) 
O=C(NCC(=O)N1CCCC1C1CCNC1)c1ccc2cc(F)ccc2n1

>  <score_type>  (64) 
oracle

>  <origin>  (64) 
autodockgpu

>  <m_score__min__energy>  (64) 
-8.6099999999999994

>  <m_primary>  (64) 
energy

>  <rmsd>  (64) 
2.2140008830713844

>  <m_score__min__rmsd>  (64) 
2.2140008830713844

>  <meeko>  (64) 
{"free_energy": -8.27, "intermolecular_energy": -9.76, "internal_energy": -1.41, "cluster_size": 22, "cluster_id": 1, "rank_in_cluster": 17}

>  <energy>  (64) 
-8.36

>  <cluster_rmsd>  (64) 
0.91

>  <cluster>  (64) 
1

$$$$

     RDKit          3D

 50 53  0  0  0  0  0  0  0  0999 V2000
  139.4860   79.5240  219.8390 O   0  0  0  0  0  0  0  0  0  0  0  0
  140.6490   79.1850  220.1870 C   0  0  0  0  0  0  0  0  0  0  0  0
  141.5900   80.2580  220.4710 N   0  0  0  0  0  0  0  0  0  0  0  0
  141.0930   81.5650  220.3240 C   0  0  0  0  0  0  0  0  0  0  0  0
  140.2110   82.1830  221.2980 C   0  0  0  0  0  0  0  0  0  0  0  0
  140.0980   83.4760  221.1270 O   0  0  0  0  0  0  0  0  0  0  0  0
  139.4620   81.6760  222.3740 N   0  0  0  0  0  0  0  0  0  0  0  0
  138.0100   81.8870  222.4830 C   0  0  0  0  0  0  0  0  0  0  0  0
  137.6060   80.9290  223.5950 C   0  0  0  0  0  0  0  0  0  0  0  0
  138.7620   79.9090  223.6330 C   0  0  0  0  0  0  0  0  0  0  0  0
  139.8970   80.9550  223.4990 C   0  0  1  0  0  0  0  0  0  0  0  0
  141.1980   80.4330  223.7910 C   0  0  2  0  0  0  0  0  0  0  0  0
  142.4430   81.1860  223.6050 C   0  0  0  0  0  0  0  0  0  0  0  0
  143.4980   80.2380  223.0840 C   0  0  0  0  0  0  0  0  0  0  0  0
  142.8290   79.0210  222.7460 N   0  0  0  0  0  0  0  0  0  0  0  0
  141.4750   79.0720  223.1710 C   0  0  0  0  0  0  0  0  0  0  0  0
  141.0660   77.8010  220.3100 C   0  0  0  0  0  0  0  0  0  0  0  0
  140.1210   76.8880  220.7220 C   0  0  0  0  0  0  0  0  0  0  0  0
  140.5230   75.5730  220.8370 C   0  0  0  0  0  0  0  0  0  0  0  0
  141.8330   75.1790  220.5480 C   0  0  0  0  0  0  0  0  0  0  0  0
  142.2470   73.8720  220.6580 C   0  0  0  0  0  0  0  0  0  0  0  0
  143.5580   73.5840  220.3510 C   0  0  0  0  0  0  0  0  0  0  0  0
  144.0260   72.3020  220.4420 F   0  0  0  0  0  0  0  0  0  0  0  0
  144.4530   74.5550  219.9420 C   0  0  0  0  0  0  0  0  0  0  0  0
  144.0480   75.8680  219.8290 C   0  0  0  0  0  0  0  0  0  0  0  0
  142.7330   76.1430  220.1390 C   0  0  0  0  0  0  0  0  0  0  0  0
  142.3430   77.4290  220.0260 N   0  0  0  0  0  0  0  0  0  0  0  0
  142.5170   79.9130  220.7630 H   0  0  0  0  0  0  0  0  0  0  0  0
  141.9741   82.2196  220.2526 H   0  0  0  0  0  0  0  0  0  0  0  0
  140.4253   81.4538  219.4570 H   0  0  0  0  0  0  0  0  0  0  0  0
  137.7813   82.9278  222.7557 H   0  0  0  0  0  0  0  0  0  0  0  0
  137.4741   81.7060  221.5396 H   0  0  0  0  0  0  0  0  0  0  0  0
  137.5169   81.4575  224.5556 H   0  0  0  0  0  0  0  0  0  0  0  0
  136.6270   80.4591  223.4195 H   0  0  0  0  0  0  0  0  0  0  0  0
  138.8067   79.3510  224.5799 H   0  0  0  0  0  0  0  0  0  0  0  0
  138.7388   79.0932  222.8955 H   0  0  0  0  0  0  0  0  0  0  0  0
  140.0942   81.7323  224.2520 H   0  0  0  0  0  0  0  0  0  0  0  0
  141.0183   80.4578  224.8759 H   0  0  0  0  0  0  0  0  0  0  0  0
  142.2819   81.9977  222.8803 H   0  0  0  0  0  0  0  0  0  0  0  0
  142.7666   81.6249  224.5603 H   0  0  0  0  0  0  0  0  0  0  0  0
  143.9829   80.6636  222.1931 H   0  0  0  0  0  0  0  0  0  0  0  0
  144.2786   80.0628  223.8389 H   0  0  0  0  0  0  0  0  0  0  0  0
  143.0170   78.6410  221.8110 H   0  0  0  0  0  0  0  0  0  0  0  0
  140.8118   78.9192  222.3068 H   0  0  0  0  0  0  0  0  0  0  0  0
  141.2902   78.2822  223.9140 H   0  0  0  0  0  0  0  0  0  0  0  0
  139.0893   77.1941  220.9498 H   0  0  0  0  0  0  0  0  0  0  0  0
  139.7949   74.8161  221.1641 H   0  0  0  0  0  0  0  0  0  0  0  0
  141.5530   73.0820  220.9809 H   0  0  0  0  0  0  0  0  0  0  0  0
  145.4914   74.2792  219.7060 H   0  0  0  0  0  0  0  0  0  0  0  0
  144.7413   76.6589  219.5067 H   0  0  0  0  0  0  0  0  0  0  0  0
  1  2  2  0
  2  3  1  0
  3  4  1  0
  4  5  1  0
  5  6  2  0
  5  7  1  0
  7  8  1  0
  8  9  1  0
  9 10  1  0
 10 11  1  0
 11 12  1  0
 12 13  1  0
 13 14  1  0
 14 15  1  0
 15 16  1  0
  2 17  1  0
 17 18  2  0
 18 19  1  0
 19 20  2  0
 20 21  1  0
 21 22  2  0
 22 23  1  0
 22 24  1  0
 24 25  2  0
 25 26  1  0
 26 27  2  0
 11  7  1  0
 16 12  1  0
 27 17  1  0
 26 20  1  0
  3 28  1  0
  4 29  1  0
  4 30  1  0
  8 31  1  0
  8 32  1  0
  9 33  1  0
  9 34  1  0
 10 35  1  0
 10 36  1  0
 11 37  1  1
 12 38  1  1
 13 39  1  0
 13 40  1  0
 14 41  1  0
 14 42  1  0
 15 43  1  0
 16 44  1  0
 16 45  1  0
 18 46  1  0
 19 47  1  0
 21 48  1  0
 24 49  1  0
 25 50  1  0
M  END
>  <smiles>  (65) 
O=C(NCC(=O)N1CCCC1C1CCNC1)c1ccc2cc(F)ccc2n1

>  <score_type>  (65) 
oracle

>  <origin>  (65) 
autodockgpu

>  <m_score__min__energy>  (65) 
-8.6099999999999994

>  <m_primary>  (65) 
energy

>  <rmsd>  (65) 
8.21045454480561

>  <m_score__min__rmsd>  (65) 
8.21045454480561

>  <meeko>  (65) 
{"free_energy": -6.05, "intermolecular_energy": -7.54, "internal_energy": -3.34, "cluster_size": 21, "cluster_id": 5, "rank_in_cluster": 7}

>  <energy>  (65) 
-8.32

>  <cluster_rmsd>  (65) 
0.53

>  <cluster>  (65) 
1

$$$$

     RDKit          3D

 50 53  0  0  0  0  0  0  0  0999 V2000
  140.4830   71.5120  221.1040 O   0  0  0  0  0  0  0  0  0  0  0  0
  140.1680   71.9480  222.2440 C   0  0  0  0  0  0  0  0  0  0  0  0
  139.8640   73.3680  222.3430 N   0  0  0  0  0  0  0  0  0  0  0  0
  139.9560   74.1010  221.1460 C   0  0  0  0  0  0  0  0  0  0  0  0
  140.8670   75.2190  220.9780 C   0  0  0  0  0  0  0  0  0  0  0  0
  141.0830   75.8650  222.0950 O   0  0  0  0  0  0  0  0  0  0  0  0
  141.5550   75.7390  219.8680 N   0  0  0  0  0  0  0  0  0  0  0  0
  141.1240   76.9700  219.1880 C   0  0  0  0  0  0  0  0  0  0  0  0
  142.3050   77.2960  218.2860 C   0  0  0  0  0  0  0  0  0  0  0  0
  143.4770   76.5280  218.9300 C   0  0  0  0  0  0  0  0  0  0  0  0
  142.6800   75.2270  219.1990 C   0  0  1  0  0  0  0  0  0  0  0  0
  143.5050   74.1080  219.5430 C   0  0  2  0  0  0  0  0  0  0  0  0
  144.1900   73.9600  220.8310 C   0  0  0  0  0  0  0  0  0  0  0  0
  145.5500   73.3530  220.5800 C   0  0  0  0  0  0  0  0  0  0  0  0
  145.7540   73.3670  219.1650 N   0  0  0  0  0  0  0  0  0  0  0  0
  144.5640   73.7750  218.5040 C   0  0  0  0  0  0  0  0  0  0  0  0
  140.1000   71.1070  223.4230 C   0  0  0  0  0  0  0  0  0  0  0  0
  139.5570   69.8490  223.2740 C   0  0  0  0  0  0  0  0  0  0  0  0
  139.4950   69.0530  224.3990 C   0  0  0  0  0  0  0  0  0  0  0  0
  139.9630   69.4970  225.6390 C   0  0  0  0  0  0  0  0  0  0  0  0
  139.9080   68.7130  226.7680 C   0  0  0  0  0  0  0  0  0  0  0  0
  140.3940   69.2410  227.9420 C   0  0  0  0  0  0  0  0  0  0  0  0
  140.3650   68.5090  229.0970 F   0  0  0  0  0  0  0  0  0  0  0  0
  140.9270   70.5140  228.0170 C   0  0  0  0  0  0  0  0  0  0  0  0
  140.9870   71.3090  226.8920 C   0  0  0  0  0  0  0  0  0  0  0  0
  140.4970   70.7690  225.7210 C   0  0  0  0  0  0  0  0  0  0  0  0
  140.5580   71.5490  224.6240 N   0  0  0  0  0  0  0  0  0  0  0  0
  139.5990   73.6570  223.2970 H   0  0  0  0  0  0  0  0  0  0  0  0
  140.2188   73.3740  220.3634 H   0  0  0  0  0  0  0  0  0  0  0  0
  138.9781   74.6040  221.1169 H   0  0  0  0  0  0  0  0  0  0  0  0
  140.2121   76.7968  218.5978 H   0  0  0  0  0  0  0  0  0  0  0  0
  140.8733   77.7840  219.8841 H   0  0  0  0  0  0  0  0  0  0  0  0
  142.1232   76.9459  217.2592 H   0  0  0  0  0  0  0  0  0  0  0  0
  142.4953   78.3764  218.2053 H   0  0  0  0  0  0  0  0  0  0  0  0
  144.3187   76.3767  218.2381 H   0  0  0  0  0  0  0  0  0  0  0  0
  143.9778   76.9993  219.7885 H   0  0  0  0  0  0  0  0  0  0  0  0
  142.2526   74.6040  218.3995 H   0  0  0  0  0  0  0  0  0  0  0  0
  142.6414   73.4299  219.6093 H   0  0  0  0  0  0  0  0  0  0  0  0
  144.3048   74.9454  221.3062 H   0  0  0  0  0  0  0  0  0  0  0  0
  143.6038   73.3116  221.4988 H   0  0  0  0  0  0  0  0  0  0  0  0
  146.3283   73.9476  221.0807 H   0  0  0  0  0  0  0  0  0  0  0  0
  145.6041   72.3283  220.9764 H   0  0  0  0  0  0  0  0  0  0  0  0
  146.6390   73.7670  218.8350 H   0  0  0  0  0  0  0  0  0  0  0  0
  144.7702   74.6644  217.8905 H   0  0  0  0  0  0  0  0  0  0  0  0
  144.2037   72.9625  217.8558 H   0  0  0  0  0  0  0  0  0  0  0  0
  139.1889   69.4949  222.2998 H   0  0  0  0  0  0  0  0  0  0  0  0
  139.0663   68.0432  224.3182 H   0  0  0  0  0  0  0  0  0  0  0  0
  139.4889   67.6965  226.7334 H   0  0  0  0  0  0  0  0  0  0  0  0
  141.3047   70.8943  228.9776 H   0  0  0  0  0  0  0  0  0  0  0  0
  141.4057   72.3256  226.9266 H   0  0  0  0  0  0  0  0  0  0  0  0
  1  2  2  0
  2  3  1  0
  3  4  1  0
  4  5  1  0
  5  6  2  0
  5  7  1  0
  7  8  1  0
  8  9  1  0
  9 10  1  0
 10 11  1  0
 11 12  1  0
 12 13  1  0
 13 14  1  0
 14 15  1  0
 15 16  1  0
  2 17  1  0
 17 18  2  0
 18 19  1  0
 19 20  2  0
 20 21  1  0
 21 22  2  0
 22 23  1  0
 22 24  1  0
 24 25  2  0
 25 26  1  0
 26 27  2  0
 11  7  1  0
 16 12  1  0
 27 17  1  0
 26 20  1  0
  3 28  1  0
  4 29  1  0
  4 30  1  0
  8 31  1  0
  8 32  1  0
  9 33  1  0
  9 34  1  0
 10 35  1  0
 10 36  1  0
 11 37  1  6
 12 38  1  1
 13 39  1  0
 13 40  1  0
 14 41  1  0
 14 42  1  0
 15 43  1  0
 16 44  1  0
 16 45  1  0
 18 46  1  0
 19 47  1  0
 21 48  1  0
 24 49  1  0
 25 50  1  0
M  END
>  <smiles>  (66) 
O=C(NCC(=O)N1CCCC1C1CCNC1)c1ccc2cc(F)ccc2n1

>  <score_type>  (66) 
oracle

>  <origin>  (66) 
autodockgpu

>  <m_score__min__energy>  (66) 
-8.6099999999999994

>  <m_primary>  (66) 
energy

>  <rmsd>  (66) 
1.9788666431246935

>  <m_score__min__rmsd>  (66) 
1.9788666431246935

>  <meeko>  (66) 
{"free_energy": -8.2, "intermolecular_energy": -9.69, "internal_energy": -1.42, "cluster_size": 22, "cluster_id": 1, "rank_in_cluster": 19}

>  <energy>  (66) 
-8.32

>  <cluster_rmsd>  (66) 
0.53

>  <cluster>  (66) 
1

$$$$

     RDKit          3D

 50 53  0  0  0  0  0  0  0  0999 V2000
  141.1220   72.1360  221.4520 O   0  0  0  0  0  0  0  0  0  0  0  0
  140.2990   72.3400  222.3840 C   0  0  0  0  0  0  0  0  0  0  0  0
  139.4620   73.5240  222.2750 N   0  0  0  0  0  0  0  0  0  0  0  0
  139.6660   74.3170  221.1320 C   0  0  0  0  0  0  0  0  0  0  0  0
  140.9120   75.0150  220.8720 C   0  0  0  0  0  0  0  0  0  0  0  0
  141.5940   75.2540  221.9630 O   0  0  0  0  0  0  0  0  0  0  0  0
  141.5270   75.4780  219.6950 N   0  0  0  0  0  0  0  0  0  0  0  0
  140.9700   76.5900  218.9090 C   0  0  0  0  0  0  0  0  0  0  0  0
  142.0970   76.9270  217.9430 C   0  0  0  0  0  0  0  0  0  0  0  0
  143.3480   76.3360  218.6250 C   0  0  0  0  0  0  0  0  0  0  0  0
  142.6800   75.0040  219.0470 C   0  0  1  0  0  0  0  0  0  0  0  0
  143.6110   74.0040  219.4760 C   0  0  2  0  0  0  0  0  0  0  0  0
  144.3830   74.0830  220.7210 C   0  0  0  0  0  0  0  0  0  0  0  0
  145.7690   73.5450  220.4560 C   0  0  0  0  0  0  0  0  0  0  0  0
  145.8850   73.3800  219.0400 N   0  0  0  0  0  0  0  0  0  0  0  0
  144.6290   73.6080  218.4170 C   0  0  0  0  0  0  0  0  0  0  0  0
  140.1640   71.4570  223.5270 C   0  0  0  0  0  0  0  0  0  0  0  0
  139.5510   70.2410  223.3200 C   0  0  0  0  0  0  0  0  0  0  0  0
  139.4250   69.4050  224.4100 C   0  0  0  0  0  0  0  0  0  0  0  0
  139.8980   69.7720  225.6740 C   0  0  0  0  0  0  0  0  0  0  0  0
  139.7790   68.9480  226.7700 C   0  0  0  0  0  0  0  0  0  0  0  0
  140.2760   69.3990  227.9710 C   0  0  0  0  0  0  0  0  0  0  0  0
  140.1860   68.6240  229.0940 F   0  0  0  0  0  0  0  0  0  0  0  0
  140.8810   70.6350  228.1040 C   0  0  0  0  0  0  0  0  0  0  0  0
  141.0050   71.4690  227.0130 C   0  0  0  0  0  0  0  0  0  0  0  0
  140.5030   71.0050  225.8160 C   0  0  0  0  0  0  0  0  0  0  0  0
  140.6270   71.8240  224.7520 N   0  0  0  0  0  0  0  0  0  0  0  0
  138.8010   73.6240  223.0610 H   0  0  0  0  0  0  0  0  0  0  0  0
  139.5027   73.6546  220.2691 H   0  0  0  0  0  0  0  0  0  0  0  0
  138.9763   75.1540  221.3159 H   0  0  0  0  0  0  0  0  0  0  0  0
  140.0656   76.2766  218.3670 H   0  0  0  0  0  0  0  0  0  0  0  0
  140.6603   77.4450  219.5279 H   0  0  0  0  0  0  0  0  0  0  0  0
  141.9265   76.4593  216.9621 H   0  0  0  0  0  0  0  0  0  0  0  0
  142.1854   78.0062  217.7491 H   0  0  0  0  0  0  0  0  0  0  0  0
  144.1852   76.1902  217.9265 H   0  0  0  0  0  0  0  0  0  0  0  0
  143.8214   76.9355  219.4165 H   0  0  0  0  0  0  0  0  0  0  0  0
  142.2951   74.2674  218.3264 H   0  0  0  0  0  0  0  0  0  0  0  0
  142.8101   73.2815  219.6919 H   0  0  0  0  0  0  0  0  0  0  0  0
  144.4477   75.1299  221.0524 H   0  0  0  0  0  0  0  0  0  0  0  0
  143.8921   73.4927  221.5088 H   0  0  0  0  0  0  0  0  0  0  0  0
  146.5266   74.2558  220.8176 H   0  0  0  0  0  0  0  0  0  0  0  0
  145.9282   72.5903  220.9788 H   0  0  0  0  0  0  0  0  0  0  0  0
  146.7140   73.7930  218.5990 H   0  0  0  0  0  0  0  0  0  0  0  0
  144.7259   74.4176  217.6786 H   0  0  0  0  0  0  0  0  0  0  0  0
  144.2963   72.6910  217.9086 H   0  0  0  0  0  0  0  0  0  0  0  0
  139.1777   69.9489  222.3274 H   0  0  0  0  0  0  0  0  0  0  0  0
  138.9407   68.4257  224.2819 H   0  0  0  0  0  0  0  0  0  0  0  0
  139.3017   67.9603  226.6883 H   0  0  0  0  0  0  0  0  0  0  0  0
  141.2650   70.9543  229.0841 H   0  0  0  0  0  0  0  0  0  0  0  0
  141.4816   72.4571  227.0939 H   0  0  0  0  0  0  0  0  0  0  0  0
  1  2  2  0
  2  3  1  0
  3  4  1  0
  4  5  1  0
  5  6  2  0
  5  7  1  0
  7  8  1  0
  8  9  1  0
  9 10  1  0
 10 11  1  0
 11 12  1  0
 12 13  1  0
 13 14  1  0
 14 15  1  0
 15 16  1  0
  2 17  1  0
 17 18  2  0
 18 19  1  0
 19 20  2  0
 20 21  1  0
 21 22  2  0
 22 23  1  0
 22 24  1  0
 24 25  2  0
 25 26  1  0
 26 27  2  0
 11  7  1  0
 16 12  1  0
 27 17  1  0
 26 20  1  0
  3 28  1  0
  4 29  1  0
  4 30  1  0
  8 31  1  0
  8 32  1  0
  9 33  1  0
  9 34  1  0
 10 35  1  0
 10 36  1  0
 11 37  1  6
 12 38  1  1
 13 39  1  0
 13 40  1  0
 14 41  1  0
 14 42  1  0
 15 43  1  0
 16 44  1  0
 16 45  1  0
 18 46  1  0
 19 47  1  0
 21 48  1  0
 24 49  1  0
 25 50  1  0
M  END
>  <smiles>  (67) 
O=C(NCC(=O)N1CCCC1C1CCNC1)c1ccc2cc(F)ccc2n1

>  <score_type>  (67) 
oracle

>  <origin>  (67) 
autodockgpu

>  <m_score__min__energy>  (67) 
-8.6099999999999994

>  <m_primary>  (67) 
energy

>  <rmsd>  (67) 
1.9475939731643988

>  <m_score__min__rmsd>  (67) 
1.9475939731643988

>  <meeko>  (67) 
{"free_energy": -8.44, "intermolecular_energy": -9.93, "internal_energy": -1.32, "cluster_size": 22, "cluster_id": 1, "rank_in_cluster": 12}

>  <energy>  (67) 
-8.27

>  <cluster_rmsd>  (67) 
0.58

>  <cluster>  (67) 
1

$$$$

     RDKit          3D

 50 53  0  0  0  0  0  0  0  0999 V2000
  140.4490   71.0620  221.3180 O   0  0  0  0  0  0  0  0  0  0  0  0
  140.2400   71.5730  222.4510 C   0  0  0  0  0  0  0  0  0  0  0  0
  140.1380   73.0230  222.5100 N   0  0  0  0  0  0  0  0  0  0  0  0
  140.2850   73.6990  221.2860 C   0  0  0  0  0  0  0  0  0  0  0  0
  141.0180   74.9460  221.1610 C   0  0  0  0  0  0  0  0  0  0  0  0
  141.0760   75.6130  222.2860 O   0  0  0  0  0  0  0  0  0  0  0  0
  141.6710   75.5730  220.0840 N   0  0  0  0  0  0  0  0  0  0  0  0
  141.1860   76.8350  219.5050 C   0  0  0  0  0  0  0  0  0  0  0  0
  142.3410   77.2720  218.6160 C   0  0  0  0  0  0  0  0  0  0  0  0
  143.5490   76.5010  219.1860 C   0  0  0  0  0  0  0  0  0  0  0  0
  142.8030   75.1550  219.3660 C   0  0  1  0  0  0  0  0  0  0  0  0
  143.6730   74.0440  219.6140 C   0  0  2  0  0  0  0  0  0  0  0  0
  144.4650   73.8820  220.8370 C   0  0  0  0  0  0  0  0  0  0  0  0
  145.8100   73.3050  220.4600 C   0  0  0  0  0  0  0  0  0  0  0  0
  145.8950   73.3540  219.0340 N   0  0  0  0  0  0  0  0  0  0  0  0
  144.6480   73.7540  218.4830 C   0  0  0  0  0  0  0  0  0  0  0  0
  140.1010   70.7850  223.6610 C   0  0  0  0  0  0  0  0  0  0  0  0
  139.4280   69.5870  223.5640 C   0  0  0  0  0  0  0  0  0  0  0  0
  139.3000   68.8410  224.7180 C   0  0  0  0  0  0  0  0  0  0  0  0
  139.8280   69.2790  225.9360 C   0  0  0  0  0  0  0  0  0  0  0  0
  139.7060   68.5450  227.0940 C   0  0  0  0  0  0  0  0  0  0  0  0
  140.2600   69.0610  228.2430 C   0  0  0  0  0  0  0  0  0  0  0  0
  140.1710   68.3770  229.4240 F   0  0  0  0  0  0  0  0  0  0  0  0
  140.9230   70.2740  228.2660 C   0  0  0  0  0  0  0  0  0  0  0  0
  141.0500   71.0170  227.1120 C   0  0  0  0  0  0  0  0  0  0  0  0
  140.4910   70.4890  225.9670 C   0  0  0  0  0  0  0  0  0  0  0  0
  140.6180   71.2200  224.8410 N   0  0  0  0  0  0  0  0  0  0  0  0
  139.9520   73.3750  223.4620 H   0  0  0  0  0  0  0  0  0  0  0  0
  140.7739   72.9888  220.6029 H   0  0  0  0  0  0  0  0  0  0  0  0
  139.2537   74.0256  221.0864 H   0  0  0  0  0  0  0  0  0  0  0  0
  140.2722   76.6733  218.9144 H   0  0  0  0  0  0  0  0  0  0  0  0
  140.9167   77.5841  220.2641 H   0  0  0  0  0  0  0  0  0  0  0  0
  142.1568   76.9941  217.5678 H   0  0  0  0  0  0  0  0  0  0  0  0
  142.4912   78.3617  218.6151 H   0  0  0  0  0  0  0  0  0  0  0  0
  144.3851   76.4328  218.4745 H   0  0  0  0  0  0  0  0  0  0  0  0
  144.0453   76.9247  220.0715 H   0  0  0  0  0  0  0  0  0  0  0  0
  142.3860   74.5780  218.5274 H   0  0  0  0  0  0  0  0  0  0  0  0
  142.8302   73.3475  219.7350 H   0  0  0  0  0  0  0  0  0  0  0  0
  144.6027   74.8592  221.3228 H   0  0  0  0  0  0  0  0  0  0  0  0
  143.9474   73.2094  221.5368 H   0  0  0  0  0  0  0  0  0  0  0  0
  146.6175   73.9024  220.9083 H   0  0  0  0  0  0  0  0  0  0  0  0
  145.9137   72.2730  220.8265 H   0  0  0  0  0  0  0  0  0  0  0  0
  146.7430   73.7770  218.6420 H   0  0  0  0  0  0  0  0  0  0  0  0
  144.7876   74.6605  217.8758 H   0  0  0  0  0  0  0  0  0  0  0  0
  144.2491   72.9496  217.8475 H   0  0  0  0  0  0  0  0  0  0  0  0
  139.0104   69.2397  222.6074 H   0  0  0  0  0  0  0  0  0  0  0  0
  138.7695   67.8782  224.6784 H   0  0  0  0  0  0  0  0  0  0  0  0
  139.1827   67.5775  227.1007 H   0  0  0  0  0  0  0  0  0  0  0  0
  141.3505   70.6473  229.2083 H   0  0  0  0  0  0  0  0  0  0  0  0
  141.5724   71.9850  227.1046 H   0  0  0  0  0  0  0  0  0  0  0  0
  1  2  2  0
  2  3  1  0
  3  4  1  0
  4  5  1  0
  5  6  2  0
  5  7  1  0
  7  8  1  0
  8  9  1  0
  9 10  1  0
 10 11  1  0
 11 12  1  0
 12 13  1  0
 13 14  1  0
 14 15  1  0
 15 16  1  0
  2 17  1  0
 17 18  2  0
 18 19  1  0
 19 20  2  0
 20 21  1  0
 21 22  2  0
 22 23  1  0
 22 24  1  0
 24 25  2  0
 25 26  1  0
 26 27  2  0
 11  7  1  0
 16 12  1  0
 27 17  1  0
 26 20  1  0
  3 28  1  0
  4 29  1  0
  4 30  1  0
  8 31  1  0
  8 32  1  0
  9 33  1  0
  9 34  1  0
 10 35  1  0
 10 36  1  0
 11 37  1  6
 12 38  1  1
 13 39  1  0
 13 40  1  0
 14 41  1  0
 14 42  1  0
 15 43  1  0
 16 44  1  0
 16 45  1  0
 18 46  1  0
 19 47  1  0
 21 48  1  0
 24 49  1  0
 25 50  1  0
M  END
>  <smiles>  (68) 
O=C(NCC(=O)N1CCCC1C1CCNC1)c1ccc2cc(F)ccc2n1

>  <score_type>  (68) 
oracle

>  <origin>  (68) 
autodockgpu

>  <m_score__min__energy>  (68) 
-8.6099999999999994

>  <m_primary>  (68) 
energy

>  <rmsd>  (68) 
2.065206733032524

>  <m_score__min__rmsd>  (68) 
2.065206733032524

>  <meeko>  (68) 
{"free_energy": -8.36, "intermolecular_energy": -9.85, "internal_energy": -1.39, "cluster_size": 22, "cluster_id": 1, "rank_in_cluster": 14}

>  <energy>  (68) 
-8.26

>  <cluster_rmsd>  (68) 
0.51

>  <cluster>  (68) 
1

$$$$

     RDKit          3D

 50 53  0  0  0  0  0  0  0  0999 V2000
  141.0570   71.9730  221.2580 O   0  0  0  0  0  0  0  0  0  0  0  0
  140.4240   72.3580  222.2780 C   0  0  0  0  0  0  0  0  0  0  0  0
  139.9000   73.7150  222.2510 N   0  0  0  0  0  0  0  0  0  0  0  0
  140.1610   74.4520  221.0820 C   0  0  0  0  0  0  0  0  0  0  0  0
  141.4160   75.1440  220.8520 C   0  0  0  0  0  0  0  0  0  0  0  0
  142.4590   74.4140  221.1610 O   0  0  0  0  0  0  0  0  0  0  0  0
  141.7330   76.4260  220.3700 N   0  0  0  0  0  0  0  0  0  0  0  0
  142.2860   76.6390  219.0230 C   0  0  0  0  0  0  0  0  0  0  0  0
  142.1730   78.1460  218.8400 C   0  0  0  0  0  0  0  0  0  0  0  0
  141.0990   78.5570  219.8660 C   0  0  0  0  0  0  0  0  0  0  0  0
  141.6350   77.6690  221.0170 C   0  0  1  0  0  0  0  0  0  0  0  0
  141.0700   77.9810  222.2960 C   0  0  2  0  0  0  0  0  0  0  0  0
  139.6620   78.3330  222.5050 C   0  0  0  0  0  0  0  0  0  0  0  0
  139.5940   79.4200  223.5520 C   0  0  0  0  0  0  0  0  0  0  0  0
  140.9350   79.8640  223.7740 N   0  0  0  0  0  0  0  0  0  0  0  0
  141.8480   79.0260  223.0800 C   0  0  0  0  0  0  0  0  0  0  0  0
  140.2070   71.5180  223.4400 C   0  0  0  0  0  0  0  0  0  0  0  0
  139.4970   70.3520  223.2560 C   0  0  0  0  0  0  0  0  0  0  0  0
  139.2940   69.5560  224.3640 C   0  0  0  0  0  0  0  0  0  0  0  0
  139.7860   69.9140  225.6230 C   0  0  0  0  0  0  0  0  0  0  0  0
  139.5900   69.1300  226.7370 C   0  0  0  0  0  0  0  0  0  0  0  0
  140.1140   69.5680  227.9320 C   0  0  0  0  0  0  0  0  0  0  0  0
  139.9520   68.8310  229.0720 F   0  0  0  0  0  0  0  0  0  0  0  0
  140.8180   70.7520  228.0420 C   0  0  0  0  0  0  0  0  0  0  0  0
  141.0190   71.5460  226.9320 C   0  0  0  0  0  0  0  0  0  0  0  0
  140.4900   71.0960  225.7410 C   0  0  0  0  0  0  0  0  0  0  0  0
  140.6900   71.8750  224.6600 N   0  0  0  0  0  0  0  0  0  0  0  0
  139.3810   73.9630  223.1070 H   0  0  0  0  0  0  0  0  0  0  0  0
  140.0452   73.7467  220.2459 H   0  0  0  0  0  0  0  0  0  0  0  0
  139.4601   75.2930  221.1887 H   0  0  0  0  0  0  0  0  0  0  0  0
  143.3349   76.3120  218.9701 H   0  0  0  0  0  0  0  0  0  0  0  0
  141.7607   76.0674  218.2437 H   0  0  0  0  0  0  0  0  0  0  0  0
  143.1316   78.6406  219.0556 H   0  0  0  0  0  0  0  0  0  0  0  0
  141.9122   78.4329  217.8106 H   0  0  0  0  0  0  0  0  0  0  0  0
  141.1285   79.6299  220.1068 H   0  0  0  0  0  0  0  0  0  0  0  0
  140.0467   78.4236  219.5748 H   0  0  0  0  0  0  0  0  0  0  0  0
  142.6251   77.8077  221.4758 H   0  0  0  0  0  0  0  0  0  0  0  0
  141.1496   76.9394  222.6404 H   0  0  0  0  0  0  0  0  0  0  0  0
  139.2259   78.6965  221.5629 H   0  0  0  0  0  0  0  0  0  0  0  0
  139.0966   77.4503  222.8385 H   0  0  0  0  0  0  0  0  0  0  0  0
  138.9736   80.2541  223.1923 H   0  0  0  0  0  0  0  0  0  0  0  0
  139.1434   79.0443  224.4825 H   0  0  0  0  0  0  0  0  0  0  0  0
  141.0940   80.8770  223.7300 H   0  0  0  0  0  0  0  0  0  0  0  0
  142.4506   79.6322  222.3877 H   0  0  0  0  0  0  0  0  0  0  0  0
  142.5137   78.5280  223.8003 H   0  0  0  0  0  0  0  0  0  0  0  0
  139.1083   70.0677  222.2670 H   0  0  0  0  0  0  0  0  0  0  0  0
  138.7316   68.6170  224.2546 H   0  0  0  0  0  0  0  0  0  0  0  0
  139.0325   68.1838  226.6744 H   0  0  0  0  0  0  0  0  0  0  0  0
  141.2195   71.0624  229.0180 H   0  0  0  0  0  0  0  0  0  0  0  0
  141.5749   72.4931  226.9942 H   0  0  0  0  0  0  0  0  0  0  0  0
  1  2  2  0
  2  3  1  0
  3  4  1  0
  4  5  1  0
  5  6  2  0
  5  7  1  0
  7  8  1  0
  8  9  1  0
  9 10  1  0
 10 11  1  0
 11 12  1  0
 12 13  1  0
 13 14  1  0
 14 15  1  0
 15 16  1  0
  2 17  1  0
 17 18  2  0
 18 19  1  0
 19 20  2  0
 20 21  1  0
 21 22  2  0
 22 23  1  0
 22 24  1  0
 24 25  2  0
 25 26  1  0
 26 27  2  0
 11  7  1  0
 16 12  1  0
 27 17  1  0
 26 20  1  0
  3 28  1  0
  4 29  1  0
  4 30  1  0
  8 31  1  0
  8 32  1  0
  9 33  1  0
  9 34  1  0
 10 35  1  0
 10 36  1  0
 11 37  1  1
 12 38  1  1
 13 39  1  0
 13 40  1  0
 14 41  1  0
 14 42  1  0
 15 43  1  0
 16 44  1  0
 16 45  1  0
 18 46  1  0
 19 47  1  0
 21 48  1  0
 24 49  1  0
 25 50  1  0
M  END
>  <smiles>  (69) 
O=C(NCC(=O)N1CCCC1C1CCNC1)c1ccc2cc(F)ccc2n1

>  <score_type>  (69) 
oracle

>  <origin>  (69) 
autodockgpu

>  <m_score__min__energy>  (69) 
-8.6099999999999994

>  <m_primary>  (69) 
energy

>  <rmsd>  (69) 
2.084571798104772

>  <m_score__min__rmsd>  (69) 
2.084571798104772

>  <meeko>  (69) 
{"free_energy": -7.8, "intermolecular_energy": -9.29, "internal_energy": -1.12, "cluster_size": 5, "cluster_id": 2, "rank_in_cluster": 5}

>  <energy>  (69) 
-8.2

>  <cluster_rmsd>  (69) 
1.08

>  <cluster>  (69) 
1

$$$$

     RDKit          3D

 50 53  0  0  0  0  0  0  0  0999 V2000
  141.3900   72.5410  221.6480 O   0  0  0  0  0  0  0  0  0  0  0  0
  140.4530   72.6300  222.4860 C   0  0  0  0  0  0  0  0  0  0  0  0
  139.5650   73.7750  222.3600 N   0  0  0  0  0  0  0  0  0  0  0  0
  139.8530   74.6620  221.3070 C   0  0  0  0  0  0  0  0  0  0  0  0
  140.2800   76.0320  221.5290 C   0  0  0  0  0  0  0  0  0  0  0  0
  139.7640   76.5520  222.6140 O   0  0  0  0  0  0  0  0  0  0  0  0
  141.1290   76.9000  220.8200 N   0  0  0  0  0  0  0  0  0  0  0  0
  141.5580   76.6200  219.4410 C   0  0  0  0  0  0  0  0  0  0  0  0
  142.1810   77.9370  219.0010 C   0  0  0  0  0  0  0  0  0  0  0  0
  141.5730   78.9690  219.9710 C   0  0  0  0  0  0  0  0  0  0  0  0
  141.7300   78.0980  221.2430 C   0  0  1  0  0  0  0  0  0  0  0  0
  141.5410   78.8230  222.4640 C   0  0  2  0  0  0  0  0  0  0  0  0
  140.3310   79.5860  222.7840 C   0  0  0  0  0  0  0  0  0  0  0  0
  140.7420   80.8500  223.5030 C   0  0  0  0  0  0  0  0  0  0  0  0
  142.1640   80.9440  223.3930 N   0  0  0  0  0  0  0  0  0  0  0  0
  142.6890   79.7570  222.8150 C   0  0  0  0  0  0  0  0  0  0  0  0
  140.2390   71.6570  223.5400 C   0  0  0  0  0  0  0  0  0  0  0  0
  139.5700   70.4990  223.2080 C   0  0  0  0  0  0  0  0  0  0  0  0
  139.3690   69.5760  224.2140 C   0  0  0  0  0  0  0  0  0  0  0  0
  139.8230   69.8020  225.5170 C   0  0  0  0  0  0  0  0  0  0  0  0
  139.6290   68.8910  226.5290 C   0  0  0  0  0  0  0  0  0  0  0  0
  140.1130   69.2050  227.7790 C   0  0  0  0  0  0  0  0  0  0  0  0
  139.9500   68.3390  228.8240 F   0  0  0  0  0  0  0  0  0  0  0  0
  140.7760   70.3900  228.0400 C   0  0  0  0  0  0  0  0  0  0  0  0
  140.9750   71.3100  227.0330 C   0  0  0  0  0  0  0  0  0  0  0  0
  140.4860   70.9840  225.7850 C   0  0  0  0  0  0  0  0  0  0  0  0
  140.6840   71.8870  224.8040 N   0  0  0  0  0  0  0  0  0  0  0  0
  138.8130   73.7800  223.0650 H   0  0  0  0  0  0  0  0  0  0  0  0
  140.6509   74.1862  220.7179 H   0  0  0  0  0  0  0  0  0  0  0  0
  138.8585   74.8081  220.8603 H   0  0  0  0  0  0  0  0  0  0  0  0
  142.2965   75.8052  219.4146 H   0  0  0  0  0  0  0  0  0  0  0  0
  140.7347   76.2914  218.7896 H   0  0  0  0  0  0  0  0  0  0  0  0
  143.2762   77.9049  219.0980 H   0  0  0  0  0  0  0  0  0  0  0  0
  141.9798   78.1729  217.9456 H   0  0  0  0  0  0  0  0  0  0  0  0
  142.1537   79.9020  220.0192 H   0  0  0  0  0  0  0  0  0  0  0  0
  140.5660   79.3462  219.7395 H   0  0  0  0  0  0  0  0  0  0  0  0
  142.7050   77.7797  221.6406 H   0  0  0  0  0  0  0  0  0  0  0  0
  141.4511   77.9003  223.0560 H   0  0  0  0  0  0  0  0  0  0  0  0
  139.7972   79.8424  221.8570 H   0  0  0  0  0  0  0  0  0  0  0  0
  139.6638   78.9876  223.4218 H   0  0  0  0  0  0  0  0  0  0  0  0
  140.2673   81.7242  223.0335 H   0  0  0  0  0  0  0  0  0  0  0  0
  140.4286   80.8242  224.5571 H   0  0  0  0  0  0  0  0  0  0  0  0
  142.5380   81.8390  223.0580 H   0  0  0  0  0  0  0  0  0  0  0  0
  143.2507   80.0087  221.9033 H   0  0  0  0  0  0  0  0  0  0  0  0
  143.3622   79.2631  223.5311 H   0  0  0  0  0  0  0  0  0  0  0  0
  139.2112   70.3179  222.1840 H   0  0  0  0  0  0  0  0  0  0  0  0
  138.8388   68.6398  223.9853 H   0  0  0  0  0  0  0  0  0  0  0  0
  139.1040   67.9420  226.3455 H   0  0  0  0  0  0  0  0  0  0  0  0
  141.1459   70.5992  229.0546 H   0  0  0  0  0  0  0  0  0  0  0  0
  141.4992   72.2596  227.2160 H   0  0  0  0  0  0  0  0  0  0  0  0
  1  2  2  0
  2  3  1  0
  3  4  1  0
  4  5  1  0
  5  6  2  0
  5  7  1  0
  7  8  1  0
  8  9  1  0
  9 10  1  0
 10 11  1  0
 11 12  1  0
 12 13  1  0
 13 14  1  0
 14 15  1  0
 15 16  1  0
  2 17  1  0
 17 18  2  0
 18 19  1  0
 19 20  2  0
 20 21  1  0
 21 22  2  0
 22 23  1  0
 22 24  1  0
 24 25  2  0
 25 26  1  0
 26 27  2  0
 11  7  1  0
 16 12  1  0
 27 17  1  0
 26 20  1  0
  3 28  1  0
  4 29  1  0
  4 30  1  0
  8 31  1  0
  8 32  1  0
  9 33  1  0
  9 34  1  0
 10 35  1  0
 10 36  1  0
 11 37  1  1
 12 38  1  1
 13 39  1  0
 13 40  1  0
 14 41  1  0
 14 42  1  0
 15 43  1  0
 16 44  1  0
 16 45  1  0
 18 46  1  0
 19 47  1  0
 21 48  1  0
 24 49  1  0
 25 50  1  0
M  END
>  <smiles>  (70) 
O=C(NCC(=O)N1CCCC1C1CCNC1)c1ccc2cc(F)ccc2n1

>  <score_type>  (70) 
oracle

>  <origin>  (70) 
autodockgpu

>  <m_score__min__energy>  (70) 
-8.6099999999999994

>  <m_primary>  (70) 
energy

>  <rmsd>  (70) 
2.0501269101806994

>  <m_score__min__rmsd>  (70) 
2.0501269101806994

>  <meeko>  (70) 
{"free_energy": -8.25, "intermolecular_energy": -9.74, "internal_energy": -1.07, "cluster_size": 5, "cluster_id": 2, "rank_in_cluster": 3}

>  <energy>  (70) 
-8.01

>  <cluster_rmsd>  (70) 
1.32

>  <cluster>  (70) 
1

$$$$

     RDKit          3D

 50 53  0  0  0  0  0  0  0  0999 V2000
  138.8000   71.2140  221.6820 O   0  0  0  0  0  0  0  0  0  0  0  0
  139.5330   71.4940  222.6680 C   0  0  0  0  0  0  0  0  0  0  0  0
  140.2880   72.7350  222.5930 N   0  0  0  0  0  0  0  0  0  0  0  0
  140.1140   73.4900  221.4200 C   0  0  0  0  0  0  0  0  0  0  0  0
  141.0190   74.5570  221.0300 C   0  0  0  0  0  0  0  0  0  0  0  0
  141.4250   75.2720  222.0490 O   0  0  0  0  0  0  0  0  0  0  0  0
  141.5420   74.9700  219.7920 N   0  0  0  0  0  0  0  0  0  0  0  0
  140.8430   75.9390  218.9340 C   0  0  0  0  0  0  0  0  0  0  0  0
  141.8950   76.3000  217.8950 C   0  0  0  0  0  0  0  0  0  0  0  0
  143.2240   75.9100  218.5740 C   0  0  0  0  0  0  0  0  0  0  0  0
  142.7180   74.5600  219.1420 C   0  0  1  0  0  0  0  0  0  0  0  0
  143.7650   73.7080  219.6190 C   0  0  2  0  0  0  0  0  0  0  0  0
  144.5360   73.9630  220.8400 C   0  0  0  0  0  0  0  0  0  0  0  0
  145.9740   73.5730  220.5850 C   0  0  0  0  0  0  0  0  0  0  0  0
  146.0920   73.3250  219.1820 N   0  0  0  0  0  0  0  0  0  0  0  0
  144.8100   73.3610  218.5700 C   0  0  0  0  0  0  0  0  0  0  0  0
  139.6440   70.6450  223.8390 C   0  0  0  0  0  0  0  0  0  0  0  0
  139.1370   69.3680  223.7460 C   0  0  0  0  0  0  0  0  0  0  0  0
  139.2460   68.5640  224.8630 C   0  0  0  0  0  0  0  0  0  0  0  0
  139.8450   69.0230  226.0400 C   0  0  0  0  0  0  0  0  0  0  0  0
  139.9600   68.2320  227.1600 C   0  0  0  0  0  0  0  0  0  0  0  0
  140.5660   68.7740  228.2710 C   0  0  0  0  0  0  0  0  0  0  0  0
  140.7080   68.0360  229.4130 F   0  0  0  0  0  0  0  0  0  0  0  0
  141.0530   70.0680  228.2910 C   0  0  0  0  0  0  0  0  0  0  0  0
  140.9430   70.8680  227.1740 C   0  0  0  0  0  0  0  0  0  0  0  0
  140.3340   70.3140  226.0680 C   0  0  0  0  0  0  0  0  0  0  0  0
  140.2290   71.1010  224.9790 N   0  0  0  0  0  0  0  0  0  0  0  0
  140.8550   72.9120  223.4360 H   0  0  0  0  0  0  0  0  0  0  0  0
  140.1195   72.7681  220.5901 H   0  0  0  0  0  0  0  0  0  0  0  0
  139.1958   74.0503  221.6503 H   0  0  0  0  0  0  0  0  0  0  0  0
  139.9606   75.4834  218.4610 H   0  0  0  0  0  0  0  0  0  0  0  0
  140.4630   76.8111  219.4864 H   0  0  0  0  0  0  0  0  0  0  0  0
  141.7445   75.7270  216.9682 H   0  0  0  0  0  0  0  0  0  0  0  0
  141.8598   77.3595  217.6013 H   0  0  0  0  0  0  0  0  0  0  0  0
  144.0490   75.7879  217.8568 H   0  0  0  0  0  0  0  0  0  0  0  0
  143.6549   76.6275  219.2878 H   0  0  0  0  0  0  0  0  0  0  0  0
  142.3922   73.7219  218.5084 H   0  0  0  0  0  0  0  0  0  0  0  0
  143.0575   72.9135  219.8986 H   0  0  0  0  0  0  0  0  0  0  0  0
  144.4807   75.0308  221.0984 H   0  0  0  0  0  0  0  0  0  0  0  0
  144.1270   73.3757  221.6754 H   0  0  0  0  0  0  0  0  0  0  0  0
  146.6467   74.3907  220.8829 H   0  0  0  0  0  0  0  0  0  0  0  0
  146.2507   72.6822  221.1680 H   0  0  0  0  0  0  0  0  0  0  0  0
  146.8610   73.8000  218.6970 H   0  0  0  0  0  0  0  0  0  0  0  0
  144.8022   74.1230  217.7767 H   0  0  0  0  0  0  0  0  0  0  0  0
  144.5818   72.3782  218.1318 H   0  0  0  0  0  0  0  0  0  0  0  0
  138.6653   69.0041  222.8213 H   0  0  0  0  0  0  0  0  0  0  0  0
  138.8521   67.5376  224.8261 H   0  0  0  0  0  0  0  0  0  0  0  0
  139.5800   67.1998  227.1674 H   0  0  0  0  0  0  0  0  0  0  0  0
  141.5298   70.4603  229.2014 H   0  0  0  0  0  0  0  0  0  0  0  0
  141.3233   71.9001  227.1653 H   0  0  0  0  0  0  0  0  0  0  0  0
  1  2  2  0
  2  3  1  0
  3  4  1  0
  4  5  1  0
  5  6  2  0
  5  7  1  0
  7  8  1  0
  8  9  1  0
  9 10  1  0
 10 11  1  0
 11 12  1  0
 12 13  1  0
 13 14  1  0
 14 15  1  0
 15 16  1  0
  2 17  1  0
 17 18  2  0
 18 19  1  0
 19 20  2  0
 20 21  1  0
 21 22  2  0
 22 23  1  0
 22 24  1  0
 24 25  2  0
 25 26  1  0
 26 27  2  0
 11  7  1  0
 16 12  1  0
 27 17  1  0
 26 20  1  0
  3 28  1  0
  4 29  1  0
  4 30  1  0
  8 31  1  0
  8 32  1  0
  9 33  1  0
  9 34  1  0
 10 35  1  0
 10 36  1  0
 11 37  1  6
 12 38  1  1
 13 39  1  0
 13 40  1  0
 14 41  1  0
 14 42  1  0
 15 43  1  0
 16 44  1  0
 16 45  1  0
 18 46  1  0
 19 47  1  0
 21 48  1  0
 24 49  1  0
 25 50  1  0
M  END
>  <smiles>  (71) 
O=C(NCC(=O)N1CCCC1C1CCNC1)c1ccc2cc(F)ccc2n1

>  <score_type>  (71) 
oracle

>  <origin>  (71) 
autodockgpu

>  <m_score__min__energy>  (71) 
-8.6099999999999994

>  <m_primary>  (71) 
energy

>  <rmsd>  (71) 
1.896205049160795

>  <m_score__min__rmsd>  (71) 
1.896205049160795

>  <meeko>  (71) 
{"free_energy": -7.81, "intermolecular_energy": -9.3, "internal_energy": -1.46, "cluster_size": 22, "cluster_id": 1, "rank_in_cluster": 22}

>  <energy>  (71) 
-7.91

>  <cluster_rmsd>  (71) 
0.81

>  <cluster>  (71) 
1

$$$$

     RDKit          3D

 50 53  0  0  0  0  0  0  0  0999 V2000
  141.5400   81.5360  218.2530 O   0  0  0  0  0  0  0  0  0  0  0  0
  141.6840   80.5640  219.0420 C   0  0  0  0  0  0  0  0  0  0  0  0
  141.3200   80.7880  220.4330 N   0  0  0  0  0  0  0  0  0  0  0  0
  140.8450   82.0750  220.7440 C   0  0  0  0  0  0  0  0  0  0  0  0
  139.8530   82.3180  221.7760 C   0  0  0  0  0  0  0  0  0  0  0  0
  139.5350   83.5830  221.8830 O   0  0  0  0  0  0  0  0  0  0  0  0
  139.1730   81.4740  222.6730 N   0  0  0  0  0  0  0  0  0  0  0  0
  137.7080   81.4920  222.8030 C   0  0  0  0  0  0  0  0  0  0  0  0
  137.4210   80.2440  223.6260 C   0  0  0  0  0  0  0  0  0  0  0  0
  138.6820   79.3790  223.4250 C   0  0  0  0  0  0  0  0  0  0  0  0
  139.6940   80.5420  223.5850 C   0  0  1  0  0  0  0  0  0  0  0  0
  141.0480   80.1060  223.7600 C   0  0  2  0  0  0  0  0  0  0  0  0
  142.2120   80.9920  223.6630 C   0  0  0  0  0  0  0  0  0  0  0  0
  143.3270   80.2390  222.9750 C   0  0  0  0  0  0  0  0  0  0  0  0
  142.7560   79.0300  222.4680 N   0  0  0  0  0  0  0  0  0  0  0  0
  141.4210   78.8880  222.9300 C   0  0  0  0  0  0  0  0  0  0  0  0
  142.1840   79.2700  218.6210 C   0  0  0  0  0  0  0  0  0  0  0  0
  142.5370   79.1260  217.2970 C   0  0  0  0  0  0  0  0  0  0  0  0
  143.0130   77.8920  216.9030 C   0  0  0  0  0  0  0  0  0  0  0  0
  143.1340   76.8300  217.8040 C   0  0  0  0  0  0  0  0  0  0  0  0
  143.6070   75.5950  217.4240 C   0  0  0  0  0  0  0  0  0  0  0  0
  143.6890   74.6140  218.3850 C   0  0  0  0  0  0  0  0  0  0  0  0
  144.1510   73.3670  218.0660 F   0  0  0  0  0  0  0  0  0  0  0  0
  143.3160   74.8310  219.6990 C   0  0  0  0  0  0  0  0  0  0  0  0
  142.8400   76.0650  220.0900 C   0  0  0  0  0  0  0  0  0  0  0  0
  142.7630   77.0390  219.1180 C   0  0  0  0  0  0  0  0  0  0  0  0
  142.2980   78.2430  219.5060 N   0  0  0  0  0  0  0  0  0  0  0  0
  141.4470   79.9510  221.0220 H   0  0  0  0  0  0  0  0  0  0  0  0
  141.7290   82.6655  221.0266 H   0  0  0  0  0  0  0  0  0  0  0  0
  140.2857   82.3323  219.8324 H   0  0  0  0  0  0  0  0  0  0  0  0
  137.3688   82.3977  223.3271 H   0  0  0  0  0  0  0  0  0  0  0  0
  137.1873   81.5011  221.8341 H   0  0  0  0  0  0  0  0  0  0  0  0
  137.2833   80.4968  224.6877 H   0  0  0  0  0  0  0  0  0  0  0  0
  136.4977   79.7317  223.3177 H   0  0  0  0  0  0  0  0  0  0  0  0
  138.7959   78.6055  224.1988 H   0  0  0  0  0  0  0  0  0  0  0  0
  138.7421   78.7811  222.5036 H   0  0  0  0  0  0  0  0  0  0  0  0
  139.8108   81.1182  224.5147 H   0  0  0  0  0  0  0  0  0  0  0  0
  140.9089   79.9480  224.8397 H   0  0  0  0  0  0  0  0  0  0  0  0
  141.9509   81.8861  223.0778 H   0  0  0  0  0  0  0  0  0  0  0  0
  142.5319   81.3079  224.6669 H   0  0  0  0  0  0  0  0  0  0  0  0
  143.7369   80.8397  222.1497 H   0  0  0  0  0  0  0  0  0  0  0  0
  144.1493   80.0251  223.6737 H   0  0  0  0  0  0  0  0  0  0  0  0
  142.9410   78.8170  221.4820 H   0  0  0  0  0  0  0  0  0  0  0  0
  140.7405   78.8064  222.0696 H   0  0  0  0  0  0  0  0  0  0  0  0
  141.3373   77.9807  223.5462 H   0  0  0  0  0  0  0  0  0  0  0  0
  142.4434   79.9589  216.5846 H   0  0  0  0  0  0  0  0  0  0  0  0
  143.3046   77.7402  215.8533 H   0  0  0  0  0  0  0  0  0  0  0  0
  143.9099   75.3984  216.3850 H   0  0  0  0  0  0  0  0  0  0  0  0
  143.3992   74.0171  220.4343 H   0  0  0  0  0  0  0  0  0  0  0  0
  142.5362   76.2625  221.1286 H   0  0  0  0  0  0  0  0  0  0  0  0
  1  2  2  0
  2  3  1  0
  3  4  1  0
  4  5  1  0
  5  6  2  0
  5  7  1  0
  7  8  1  0
  8  9  1  0
  9 10  1  0
 10 11  1  0
 11 12  1  0
 12 13  1  0
 13 14  1  0
 14 15  1  0
 15 16  1  0
  2 17  1  0
 17 18  2  0
 18 19  1  0
 19 20  2  0
 20 21  1  0
 21 22  2  0
 22 23  1  0
 22 24  1  0
 24 25  2  0
 25 26  1  0
 26 27  2  0
 11  7  1  0
 16 12  1  0
 27 17  1  0
 26 20  1  0
  3 28  1  0
  4 29  1  0
  4 30  1  0
  8 31  1  0
  8 32  1  0
  9 33  1  0
  9 34  1  0
 10 35  1  0
 10 36  1  0
 11 37  1  1
 12 38  1  1
 13 39  1  0
 13 40  1  0
 14 41  1  0
 14 42  1  0
 15 43  1  0
 16 44  1  0
 16 45  1  0
 18 46  1  0
 19 47  1  0
 21 48  1  0
 24 49  1  0
 25 50  1  0
M  END
>  <smiles>  (72) 
O=C(NCC(=O)N1CCCC1C1CCNC1)c1ccc2cc(F)ccc2n1

>  <score_type>  (72) 
oracle

>  <origin>  (72) 
autodockgpu

>  <m_score__min__energy>  (72) 
-8.6099999999999994

>  <m_primary>  (72) 
energy

>  <rmsd>  (72) 
9.51087613784541

>  <m_score__min__rmsd>  (72) 
9.51087613784541

>  <meeko>  (72) 
{"free_energy": -5.89, "intermolecular_energy": -7.38, "internal_energy": -3.27, "cluster_size": 21, "cluster_id": 5, "rank_in_cluster": 17}

>  <energy>  (72) 
-7.81

>  <cluster_rmsd>  (72) 
0.77

>  <cluster>  (72) 
1

$$$$

     RDKit          3D

 50 53  0  0  0  0  0  0  0  0999 V2000
  139.4900   79.5510  219.8960 O   0  0  0  0  0  0  0  0  0  0  0  0
  140.6510   79.1930  220.2340 C   0  0  0  0  0  0  0  0  0  0  0  0
  141.6090   80.2510  220.5150 N   0  0  0  0  0  0  0  0  0  0  0  0
  141.1300   81.5660  220.3780 C   0  0  0  0  0  0  0  0  0  0  0  0
  140.1700   82.1510  221.2960 C   0  0  0  0  0  0  0  0  0  0  0  0
  139.9580   83.4220  221.0620 O   0  0  0  0  0  0  0  0  0  0  0  0
  139.4290   81.6320  222.3730 N   0  0  0  0  0  0  0  0  0  0  0  0
  137.9730   81.8110  222.4770 C   0  0  0  0  0  0  0  0  0  0  0  0
  137.5880   80.8490  223.5920 C   0  0  0  0  0  0  0  0  0  0  0  0
  138.7650   79.8540  223.6360 C   0  0  0  0  0  0  0  0  0  0  0  0
  139.8770   80.9250  223.5010 C   0  0  1  0  0  0  0  0  0  0  0  0
  141.1890   80.4320  223.7980 C   0  0  2  0  0  0  0  0  0  0  0  0
  142.4200   81.1970  223.5770 C   0  0  0  0  0  0  0  0  0  0  0  0
  143.4860   80.2500  223.0770 C   0  0  0  0  0  0  0  0  0  0  0  0
  142.8340   79.0130  222.7820 N   0  0  0  0  0  0  0  0  0  0  0  0
  141.4820   79.0570  223.2180 C   0  0  0  0  0  0  0  0  0  0  0  0
  141.0490   77.8030  220.3470 C   0  0  0  0  0  0  0  0  0  0  0  0
  140.0860   76.8980  220.7380 C   0  0  0  0  0  0  0  0  0  0  0  0
  140.4700   75.5770  220.8440 C   0  0  0  0  0  0  0  0  0  0  0  0
  141.7780   75.1690  220.5680 C   0  0  0  0  0  0  0  0  0  0  0  0
  142.1740   73.8550  220.6700 C   0  0  0  0  0  0  0  0  0  0  0  0
  143.4840   73.5530  220.3760 C   0  0  0  0  0  0  0  0  0  0  0  0
  143.9350   72.2650  220.4590 F   0  0  0  0  0  0  0  0  0  0  0  0
  144.3970   74.5170  219.9880 C   0  0  0  0  0  0  0  0  0  0  0  0
  144.0110   75.8360  219.8840 C   0  0  0  0  0  0  0  0  0  0  0  0
  142.6960   76.1250  220.1800 C   0  0  0  0  0  0  0  0  0  0  0  0
  142.3240   77.4170  220.0760 N   0  0  0  0  0  0  0  0  0  0  0  0
  142.5330   79.8910  220.7990 H   0  0  0  0  0  0  0  0  0  0  0  0
  142.0159   82.2173  220.4082 H   0  0  0  0  0  0  0  0  0  0  0  0
  140.5385   81.4927  219.4535 H   0  0  0  0  0  0  0  0  0  0  0  0
  137.7203   82.8476  222.7445 H   0  0  0  0  0  0  0  0  0  0  0  0
  137.4438   81.6142  221.5330 H   0  0  0  0  0  0  0  0  0  0  0  0
  137.4862   81.3793  224.5503 H   0  0  0  0  0  0  0  0  0  0  0  0
  136.6196   80.3576  223.4167 H   0  0  0  0  0  0  0  0  0  0  0  0
  138.8196   79.3001  224.5848 H   0  0  0  0  0  0  0  0  0  0  0  0
  138.7613   79.0351  222.9016 H   0  0  0  0  0  0  0  0  0  0  0  0
  140.0550   81.7095  224.2513 H   0  0  0  0  0  0  0  0  0  0  0  0
  141.0180   80.4881  224.8832 H   0  0  0  0  0  0  0  0  0  0  0  0
  142.2400   81.9826  222.8284 H   0  0  0  0  0  0  0  0  0  0  0  0
  142.7446   81.6705  224.5153 H   0  0  0  0  0  0  0  0  0  0  0  0
  143.9573   80.6555  222.1696 H   0  0  0  0  0  0  0  0  0  0  0  0
  144.2749   80.1104  223.8307 H   0  0  0  0  0  0  0  0  0  0  0  0
  143.0200   78.6080  221.8580 H   0  0  0  0  0  0  0  0  0  0  0  0
  140.8138   78.8673  222.3650 H   0  0  0  0  0  0  0  0  0  0  0  0
  141.3161   78.2881  223.9870 H   0  0  0  0  0  0  0  0  0  0  0  0
  139.0556   77.2152  220.9562 H   0  0  0  0  0  0  0  0  0  0  0  0
  139.7281   74.8261  221.1535 H   0  0  0  0  0  0  0  0  0  0  0  0
  141.4659   73.0711  220.9768 H   0  0  0  0  0  0  0  0  0  0  0  0
  145.4345   74.2299  219.7617 H   0  0  0  0  0  0  0  0  0  0  0  0
  144.7188   76.6210  219.5792 H   0  0  0  0  0  0  0  0  0  0  0  0
  1  2  2  0
  2  3  1  0
  3  4  1  0
  4  5  1  0
  5  6  2  0
  5  7  1  0
  7  8  1  0
  8  9  1  0
  9 10  1  0
 10 11  1  0
 11 12  1  0
 12 13  1  0
 13 14  1  0
 14 15  1  0
 15 16  1  0
  2 17  1  0
 17 18  2  0
 18 19  1  0
 19 20  2  0
 20 21  1  0
 21 22  2  0
 22 23  1  0
 22 24  1  0
 24 25  2  0
 25 26  1  0
 26 27  2  0
 11  7  1  0
 16 12  1  0
 27 17  1  0
 26 20  1  0
  3 28  1  0
  4 29  1  0
  4 30  1  0
  8 31  1  0
  8 32  1  0
  9 33  1  0
  9 34  1  0
 10 35  1  0
 10 36  1  0
 11 37  1  1
 12 38  1  1
 13 39  1  0
 13 40  1  0
 14 41  1  0
 14 42  1  0
 15 43  1  0
 16 44  1  0
 16 45  1  0
 18 46  1  0
 19 47  1  0
 21 48  1  0
 24 49  1  0
 25 50  1  0
M  END
>  <smiles>  (73) 
O=C(NCC(=O)N1CCCC1C1CCNC1)c1ccc2cc(F)ccc2n1

>  <score_type>  (73) 
oracle

>  <origin>  (73) 
autodockgpu

>  <m_score__min__energy>  (73) 
-8.6099999999999994

>  <m_primary>  (73) 
energy

>  <rmsd>  (73) 
8.181613334777921

>  <m_score__min__rmsd>  (73) 
8.181613334777921

>  <meeko>  (73) 
{"free_energy": -6.05, "intermolecular_energy": -7.54, "internal_energy": -3.36, "cluster_size": 21, "cluster_id": 5, "rank_in_cluster": 8}

>  <energy>  (73) 
-8.33

>  <cluster_rmsd>  (73) 
0.0

>  <cluster>  (73) 
2

$$$$

     RDKit          3D

 50 53  0  0  0  0  0  0  0  0999 V2000
  138.5360   71.6160  222.0930 O   0  0  0  0  0  0  0  0  0  0  0  0
  139.5930   71.4420  222.7570 C   0  0  0  0  0  0  0  0  0  0  0  0
  140.7750   72.1650  222.3120 N   0  0  0  0  0  0  0  0  0  0  0  0
  140.6040   72.9830  221.1810 C   0  0  0  0  0  0  0  0  0  0  0  0
  140.9520   74.3930  221.1720 C   0  0  0  0  0  0  0  0  0  0  0  0
  140.5490   75.0190  222.2490 O   0  0  0  0  0  0  0  0  0  0  0  0
  141.6290   75.2100  220.2490 N   0  0  0  0  0  0  0  0  0  0  0  0
  141.1000   76.5160  219.8280 C   0  0  0  0  0  0  0  0  0  0  0  0
  142.2770   77.1440  219.0970 C   0  0  0  0  0  0  0  0  0  0  0  0
  143.4950   76.3650  219.6320 C   0  0  0  0  0  0  0  0  0  0  0  0
  142.8290   74.9680  219.5600 C   0  0  1  0  0  0  0  0  0  0  0  0
  143.7520   73.8820  219.7040 C   0  0  2  0  0  0  0  0  0  0  0  0
  144.6320   73.7040  220.8630 C   0  0  0  0  0  0  0  0  0  0  0  0
  145.9660   73.1930  220.3730 C   0  0  0  0  0  0  0  0  0  0  0  0
  145.9510   73.2970  218.9480 N   0  0  0  0  0  0  0  0  0  0  0  0
  144.6550   73.6700  218.4990 C   0  0  0  0  0  0  0  0  0  0  0  0
  139.6670   70.5720  223.9150 C   0  0  0  0  0  0  0  0  0  0  0  0
  139.0880   69.3270  223.8110 C   0  0  0  0  0  0  0  0  0  0  0  0
  139.1620   68.5030  224.9150 C   0  0  0  0  0  0  0  0  0  0  0  0
  139.7970   68.9100  226.0930 C   0  0  0  0  0  0  0  0  0  0  0  0
  139.8770   68.0990  227.2010 C   0  0  0  0  0  0  0  0  0  0  0  0
  140.5240   68.5900  228.3120 C   0  0  0  0  0  0  0  0  0  0  0  0
  140.6350   67.8300  229.4430 F   0  0  0  0  0  0  0  0  0  0  0  0
  141.0840   69.8540  228.3450 C   0  0  0  0  0  0  0  0  0  0  0  0
  141.0080   70.6750  227.2400 C   0  0  0  0  0  0  0  0  0  0  0  0
  140.3580   70.1710  226.1330 C   0  0  0  0  0  0  0  0  0  0  0  0
  140.2880   70.9780  225.0550 N   0  0  0  0  0  0  0  0  0  0  0  0
  141.6000   71.9910  222.9060 H   0  0  0  0  0  0  0  0  0  0  0  0
  141.1944   72.5186  220.3774 H   0  0  0  0  0  0  0  0  0  0  0  0
  139.5078   73.0233  221.0986 H   0  0  0  0  0  0  0  0  0  0  0  0
  140.2370   76.3950  219.1567 H   0  0  0  0  0  0  0  0  0  0  0  0
  140.7360   77.1266  220.6674 H   0  0  0  0  0  0  0  0  0  0  0  0
  142.1766   77.0166  218.0090 H   0  0  0  0  0  0  0  0  0  0  0  0
  142.3556   78.2280  219.2663 H   0  0  0  0  0  0  0  0  0  0  0  0
  144.3761   76.4511  218.9791 H   0  0  0  0  0  0  0  0  0  0  0  0
  143.9070   76.6779  220.6028 H   0  0  0  0  0  0  0  0  0  0  0  0
  142.5041   74.5014  218.6183 H   0  0  0  0  0  0  0  0  0  0  0  0
  142.9439   73.1510  219.8545 H   0  0  0  0  0  0  0  0  0  0  0  0
  144.7688   74.6667  221.3772 H   0  0  0  0  0  0  0  0  0  0  0  0
  144.1879   72.9866  221.5688 H   0  0  0  0  0  0  0  0  0  0  0  0
  146.7811   73.8038  220.7885 H   0  0  0  0  0  0  0  0  0  0  0  0
  146.1305   72.1528  220.6906 H   0  0  0  0  0  0  0  0  0  0  0  0
  146.7540   73.7670  218.5150 H   0  0  0  0  0  0  0  0  0  0  0  0
  144.7204   74.6025  217.9193 H   0  0  0  0  0  0  0  0  0  0  0  0
  144.2410   72.8750  217.8614 H   0  0  0  0  0  0  0  0  0  0  0  0
  138.5875   69.0031  222.8866 H   0  0  0  0  0  0  0  0  0  0  0  0
  138.7105   67.5011  224.8677 H   0  0  0  0  0  0  0  0  0  0  0  0
  139.4380   67.0904  227.1992 H   0  0  0  0  0  0  0  0  0  0  0  0
  141.5915   70.2054  229.2555 H   0  0  0  0  0  0  0  0  0  0  0  0
  141.4452   71.6844  227.2413 H   0  0  0  0  0  0  0  0  0  0  0  0
  1  2  2  0
  2  3  1  0
  3  4  1  0
  4  5  1  0
  5  6  2  0
  5  7  1  0
  7  8  1  0
  8  9  1  0
  9 10  1  0
 10 11  1  0
 11 12  1  0
 12 13  1  0
 13 14  1  0
 14 15  1  0
 15 16  1  0
  2 17  1  0
 17 18  2  0
 18 19  1  0
 19 20  2  0
 20 21  1  0
 21 22  2  0
 22 23  1  0
 22 24  1  0
 24 25  2  0
 25 26  1  0
 26 27  2  0
 11  7  1  0
 16 12  1  0
 27 17  1  0
 26 20  1  0
  3 28  1  0
  4 29  1  0
  4 30  1  0
  8 31  1  0
  8 32  1  0
  9 33  1  0
  9 34  1  0
 10 35  1  0
 10 36  1  0
 11 37  1  6
 12 38  1  1
 13 39  1  0
 13 40  1  0
 14 41  1  0
 14 42  1  0
 15 43  1  0
 16 44  1  0
 16 45  1  0
 18 46  1  0
 19 47  1  0
 21 48  1  0
 24 49  1  0
 25 50  1  0
M  END
>  <smiles>  (74) 
O=C(NCC(=O)N1CCCC1C1CCNC1)c1ccc2cc(F)ccc2n1

>  <score_type>  (74) 
oracle

>  <origin>  (74) 
autodockgpu

>  <m_score__min__energy>  (74) 
-8.6099999999999994

>  <m_primary>  (74) 
energy

>  <rmsd>  (74) 
2.1969084927435567

>  <m_score__min__rmsd>  (74) 
2.1969084927435567

>  <meeko>  (74) 
{"free_energy": -8.51, "intermolecular_energy": -10.0, "internal_energy": -1.2, "cluster_size": 22, "cluster_id": 1, "rank_in_cluster": 5}

>  <energy>  (74) 
-8.26

>  <cluster_rmsd>  (74) 
0.19

>  <cluster>  (74) 
2

$$$$

     RDKit          3D

 50 53  0  0  0  0  0  0  0  0999 V2000
  139.5160   79.5610  219.9510 O   0  0  0  0  0  0  0  0  0  0  0  0
  140.6720   79.2000  220.3000 C   0  0  0  0  0  0  0  0  0  0  0  0
  141.6340   80.2550  220.5780 N   0  0  0  0  0  0  0  0  0  0  0  0
  141.1630   81.5720  220.4260 C   0  0  0  0  0  0  0  0  0  0  0  0
  140.1170   82.1330  221.2610 C   0  0  0  0  0  0  0  0  0  0  0  0
  139.8070   83.3600  220.9250 O   0  0  0  0  0  0  0  0  0  0  0  0
  139.3770   81.6270  222.3440 N   0  0  0  0  0  0  0  0  0  0  0  0
  137.9180   81.7890  222.4370 C   0  0  0  0  0  0  0  0  0  0  0  0
  137.5380   80.8460  223.5690 C   0  0  0  0  0  0  0  0  0  0  0  0
  138.7290   79.8690  223.6420 C   0  0  0  0  0  0  0  0  0  0  0  0
  139.8270   80.9510  223.4900 C   0  0  1  0  0  0  0  0  0  0  0  0
  141.1440   80.4820  223.8050 C   0  0  2  0  0  0  0  0  0  0  0  0
  142.3690   81.2410  223.5350 C   0  0  0  0  0  0  0  0  0  0  0  0
  143.4370   80.2740  223.0820 C   0  0  0  0  0  0  0  0  0  0  0  0
  142.7910   79.0190  222.8590 N   0  0  0  0  0  0  0  0  0  0  0  0
  141.4420   79.0790  223.3000 C   0  0  0  0  0  0  0  0  0  0  0  0
  141.0620   77.8090  220.4290 C   0  0  0  0  0  0  0  0  0  0  0  0
  140.1300   76.9350  220.9440 C   0  0  0  0  0  0  0  0  0  0  0  0
  140.5050   75.6130  221.0640 C   0  0  0  0  0  0  0  0  0  0  0  0
  141.7760   75.1740  220.6810 C   0  0  0  0  0  0  0  0  0  0  0  0
  142.1630   73.8580  220.7960 C   0  0  0  0  0  0  0  0  0  0  0  0
  143.4360   73.5250  220.3920 C   0  0  0  0  0  0  0  0  0  0  0  0
  143.8760   72.2330  220.4830 F   0  0  0  0  0  0  0  0  0  0  0  0
  144.3200   74.4580  219.8830 C   0  0  0  0  0  0  0  0  0  0  0  0
  143.9420   75.7790  219.7650 C   0  0  0  0  0  0  0  0  0  0  0  0
  142.6650   76.1000  220.1720 C   0  0  0  0  0  0  0  0  0  0  0  0
  142.3010   77.3930  220.0540 N   0  0  0  0  0  0  0  0  0  0  0  0
  142.5540   79.8930  220.8720 H   0  0  0  0  0  0  0  0  0  0  0  0
  142.0386   82.2251  220.5553 H   0  0  0  0  0  0  0  0  0  0  0  0
  140.6623   81.5180  219.4480 H   0  0  0  0  0  0  0  0  0  0  0  0
  137.6507   82.8276  222.6816 H   0  0  0  0  0  0  0  0  0  0  0  0
  137.3970   81.5653  221.4944 H   0  0  0  0  0  0  0  0  0  0  0  0
  137.4217   81.3949  224.5151 H   0  0  0  0  0  0  0  0  0  0  0  0
  136.5778   80.3375  223.3977 H   0  0  0  0  0  0  0  0  0  0  0  0
  138.7853   79.3371  224.6032 H   0  0  0  0  0  0  0  0  0  0  0  0
  138.7411   79.0344  222.9255 H   0  0  0  0  0  0  0  0  0  0  0  0
  139.9895   81.7538  224.2242 H   0  0  0  0  0  0  0  0  0  0  0  0
  140.9787   80.5962  224.8865 H   0  0  0  0  0  0  0  0  0  0  0  0
  142.1802   81.9830  222.7453 H   0  0  0  0  0  0  0  0  0  0  0  0
  142.6960   81.7678  224.4436 H   0  0  0  0  0  0  0  0  0  0  0  0
  143.9011   80.6315  222.1510 H   0  0  0  0  0  0  0  0  0  0  0  0
  144.2305   80.1803  223.8380 H   0  0  0  0  0  0  0  0  0  0  0  0
  142.9730   78.5650  221.9570 H   0  0  0  0  0  0  0  0  0  0  0  0
  140.7701   78.8386  222.4629 H   0  0  0  0  0  0  0  0  0  0  0  0
  141.2853   78.3528  224.1112 H   0  0  0  0  0  0  0  0  0  0  0  0
  139.1292   77.2768  221.2467 H   0  0  0  0  0  0  0  0  0  0  0  0
  139.7865   74.8863  221.4710 H   0  0  0  0  0  0  0  0  0  0  0  0
  141.4773   73.0974  221.1976 H   0  0  0  0  0  0  0  0  0  0  0  0
  145.3277   74.1459  219.5712 H   0  0  0  0  0  0  0  0  0  0  0  0
  144.6275   76.5406  219.3649 H   0  0  0  0  0  0  0  0  0  0  0  0
  1  2  2  0
  2  3  1  0
  3  4  1  0
  4  5  1  0
  5  6  2  0
  5  7  1  0
  7  8  1  0
  8  9  1  0
  9 10  1  0
 10 11  1  0
 11 12  1  0
 12 13  1  0
 13 14  1  0
 14 15  1  0
 15 16  1  0
  2 17  1  0
 17 18  2  0
 18 19  1  0
 19 20  2  0
 20 21  1  0
 21 22  2  0
 22 23  1  0
 22 24  1  0
 24 25  2  0
 25 26  1  0
 26 27  2  0
 11  7  1  0
 16 12  1  0
 27 17  1  0
 26 20  1  0
  3 28  1  0
  4 29  1  0
  4 30  1  0
  8 31  1  0
  8 32  1  0
  9 33  1  0
  9 34  1  0
 10 35  1  0
 10 36  1  0
 11 37  1  1
 12 38  1  1
 13 39  1  0
 13 40  1  0
 14 41  1  0
 14 42  1  0
 15 43  1  0
 16 44  1  0
 16 45  1  0
 18 46  1  0
 19 47  1  0
 21 48  1  0
 24 49  1  0
 25 50  1  0
M  END
>  <smiles>  (75) 
O=C(NCC(=O)N1CCCC1C1CCNC1)c1ccc2cc(F)ccc2n1

>  <score_type>  (75) 
oracle

>  <origin>  (75) 
autodockgpu

>  <m_score__min__energy>  (75) 
-8.6099999999999994

>  <m_primary>  (75) 
energy

>  <rmsd>  (75) 
8.175349626817901

>  <m_score__min__rmsd>  (75) 
8.175349626817901

>  <meeko>  (75) 
{"free_energy": -6.18, "intermolecular_energy": -7.67, "internal_energy": -3.19, "cluster_size": 21, "cluster_id": 5, "rank_in_cluster": 1}

>  <energy>  (75) 
-8.25

>  <cluster_rmsd>  (75) 
0.66

>  <cluster>  (75) 
2

$$$$

     RDKit          3D

 50 53  0  0  0  0  0  0  0  0999 V2000
  141.3230   72.5150  221.5860 O   0  0  0  0  0  0  0  0  0  0  0  0
  140.4150   72.6110  222.4540 C   0  0  0  0  0  0  0  0  0  0  0  0
  139.5200   73.7530  222.3460 N   0  0  0  0  0  0  0  0  0  0  0  0
  139.7700   74.6300  221.2760 C   0  0  0  0  0  0  0  0  0  0  0  0
  140.2930   75.9710  221.4650 C   0  0  0  0  0  0  0  0  0  0  0  0
  139.7710   76.5740  222.5030 O   0  0  0  0  0  0  0  0  0  0  0  0
  141.2380   76.7420  220.7640 N   0  0  0  0  0  0  0  0  0  0  0  0
  141.9120   76.2430  219.5560 C   0  0  0  0  0  0  0  0  0  0  0  0
  142.5780   77.4900  218.9940 C   0  0  0  0  0  0  0  0  0  0  0  0
  141.7860   78.6460  219.6370 C   0  0  0  0  0  0  0  0  0  0  0  0
  141.7300   78.0260  221.0550 C   0  0  1  0  0  0  0  0  0  0  0  0
  141.3120   78.9460  222.0700 C   0  0  2  0  0  0  0  0  0  0  0  0
  141.0180   80.3610  221.8210 C   0  0  0  0  0  0  0  0  0  0  0  0
  141.5290   81.1670  222.9920 C   0  0  0  0  0  0  0  0  0  0  0  0
  142.3150   80.2790  223.7920 N   0  0  0  0  0  0  0  0  0  0  0  0
  142.1950   78.9490  223.3080 C   0  0  0  0  0  0  0  0  0  0  0  0
  140.2370   71.6480  223.5250 C   0  0  0  0  0  0  0  0  0  0  0  0
  139.5760   70.4780  223.2220 C   0  0  0  0  0  0  0  0  0  0  0  0
  139.4110   69.5660  224.2440 C   0  0  0  0  0  0  0  0  0  0  0  0
  139.8920   69.8130  225.5330 C   0  0  0  0  0  0  0  0  0  0  0  0
  139.7340   68.9120  226.5600 C   0  0  0  0  0  0  0  0  0  0  0  0
  140.2430   69.2470  227.7940 C   0  0  0  0  0  0  0  0  0  0  0  0
  140.1160   68.3920  228.8530 F   0  0  0  0  0  0  0  0  0  0  0  0
  140.8980   70.4430  228.0250 C   0  0  0  0  0  0  0  0  0  0  0  0
  141.0610   71.3530  227.0020 C   0  0  0  0  0  0  0  0  0  0  0  0
  140.5470   71.0060  225.7710 C   0  0  0  0  0  0  0  0  0  0  0  0
  140.7100   71.8990  224.7750 N   0  0  0  0  0  0  0  0  0  0  0  0
  138.7910   73.7640  223.0760 H   0  0  0  0  0  0  0  0  0  0  0  0
  140.4867   74.1136  220.6205 H   0  0  0  0  0  0  0  0  0  0  0  0
  138.7516   74.8370  220.9153 H   0  0  0  0  0  0  0  0  0  0  0  0
  142.6589   75.4759  219.8086 H   0  0  0  0  0  0  0  0  0  0  0  0
  141.2250   75.7613  218.8447 H   0  0  0  0  0  0  0  0  0  0  0  0
  143.6386   77.5325  219.2825 H   0  0  0  0  0  0  0  0  0  0  0  0
  142.5647   77.5227  217.8946 H   0  0  0  0  0  0  0  0  0  0  0  0
  142.3304   79.6015  219.6111 H   0  0  0  0  0  0  0  0  0  0  0  0
  140.8295   78.9229  219.1697 H   0  0  0  0  0  0  0  0  0  0  0  0
  142.6244   77.8353  221.6663 H   0  0  0  0  0  0  0  0  0  0  0  0
  140.3251   78.4695  222.1645 H   0  0  0  0  0  0  0  0  0  0  0  0
  141.5192   80.6878  220.8980 H   0  0  0  0  0  0  0  0  0  0  0  0
  139.9339   80.5073  221.7056 H   0  0  0  0  0  0  0  0  0  0  0  0
  142.1478   82.0035  222.6350 H   0  0  0  0  0  0  0  0  0  0  0  0
  140.6968   81.5907  223.5733 H   0  0  0  0  0  0  0  0  0  0  0  0
  143.2530   80.6060  224.0480 H   0  0  0  0  0  0  0  0  0  0  0  0
  143.1911   78.5598  223.0505 H   0  0  0  0  0  0  0  0  0  0  0  0
  141.7459   78.3120  224.0842 H   0  0  0  0  0  0  0  0  0  0  0  0
  139.1961   70.2794  222.2089 H   0  0  0  0  0  0  0  0  0  0  0  0
  138.8876   68.6204  224.0393 H   0  0  0  0  0  0  0  0  0  0  0  0
  139.2173   67.9542  226.4002 H   0  0  0  0  0  0  0  0  0  0  0  0
  141.2900   70.6689  229.0276 H   0  0  0  0  0  0  0  0  0  0  0  0
  141.5772   72.3113  227.1609 H   0  0  0  0  0  0  0  0  0  0  0  0
  1  2  2  0
  2  3  1  0
  3  4  1  0
  4  5  1  0
  5  6  2  0
  5  7  1  0
  7  8  1  0
  8  9  1  0
  9 10  1  0
 10 11  1  0
 11 12  1  0
 12 13  1  0
 13 14  1  0
 14 15  1  0
 15 16  1  0
  2 17  1  0
 17 18  2  0
 18 19  1  0
 19 20  2  0
 20 21  1  0
 21 22  2  0
 22 23  1  0
 22 24  1  0
 24 25  2  0
 25 26  1  0
 26 27  2  0
 11  7  1  0
 16 12  1  0
 27 17  1  0
 26 20  1  0
  3 28  1  0
  4 29  1  0
  4 30  1  0
  8 31  1  0
  8 32  1  0
  9 33  1  0
  9 34  1  0
 10 35  1  0
 10 36  1  0
 11 37  1  1
 12 38  1  1
 13 39  1  0
 13 40  1  0
 14 41  1  0
 14 42  1  0
 15 43  1  0
 16 44  1  0
 16 45  1  0
 18 46  1  0
 19 47  1  0
 21 48  1  0
 24 49  1  0
 25 50  1  0
M  END
>  <smiles>  (76) 
O=C(NCC(=O)N1CCCC1C1CCNC1)c1ccc2cc(F)ccc2n1

>  <score_type>  (76) 
oracle

>  <origin>  (76) 
autodockgpu

>  <m_score__min__energy>  (76) 
-8.6099999999999994

>  <m_primary>  (76) 
energy

>  <rmsd>  (76) 
2.012152718532643

>  <m_score__min__rmsd>  (76) 
2.012152718532643

>  <meeko>  (76) 
{"free_energy": -8.26, "intermolecular_energy": -9.75, "internal_energy": -1.05, "cluster_size": 5, "cluster_id": 2, "rank_in_cluster": 2}

>  <energy>  (76) 
-7.99

>  <cluster_rmsd>  (76) 
1.17

>  <cluster>  (76) 
2

$$$$

     RDKit          3D

 50 53  0  0  0  0  0  0  0  0999 V2000
  141.3230   71.6230  221.6140 O   0  0  0  0  0  0  0  0  0  0  0  0
  140.5010   71.9400  222.5150 C   0  0  0  0  0  0  0  0  0  0  0  0
  139.7680   73.1830  222.3280 N   0  0  0  0  0  0  0  0  0  0  0  0
  140.0620   73.8980  221.1540 C   0  0  0  0  0  0  0  0  0  0  0  0
  140.8840   75.0950  221.1470 C   0  0  0  0  0  0  0  0  0  0  0  0
  140.9600   75.6610  222.3250 O   0  0  0  0  0  0  0  0  0  0  0  0
  141.6060   75.7590  220.1410 N   0  0  0  0  0  0  0  0  0  0  0  0
  141.2190   77.0910  219.6500 C   0  0  0  0  0  0  0  0  0  0  0  0
  142.4250   77.5190  218.8270 C   0  0  0  0  0  0  0  0  0  0  0  0
  143.5650   76.6300  219.3640 C   0  0  0  0  0  0  0  0  0  0  0  0
  142.7320   75.3250  219.4200 C   0  0  1  0  0  0  0  0  0  0  0  0
  143.5220   74.1450  219.6010 C   0  0  2  0  0  0  0  0  0  0  0  0
  144.2480   73.8270  220.8350 C   0  0  0  0  0  0  0  0  0  0  0  0
  145.5710   73.2020  220.4610 C   0  0  0  0  0  0  0  0  0  0  0  0
  145.7230   73.3690  219.0500 N   0  0  0  0  0  0  0  0  0  0  0  0
  144.5280   73.8930  218.4880 C   0  0  0  0  0  0  0  0  0  0  0  0
  140.2680   71.1300  223.6950 C   0  0  0  0  0  0  0  0  0  0  0  0
  139.5580   69.9610  223.5310 C   0  0  0  0  0  0  0  0  0  0  0  0
  139.3400   69.1930  224.6570 C   0  0  0  0  0  0  0  0  0  0  0  0
  139.8170   69.5810  225.9130 C   0  0  0  0  0  0  0  0  0  0  0  0
  139.6060   68.8260  227.0430 C   0  0  0  0  0  0  0  0  0  0  0  0
  140.1160   69.2930  228.2330 C   0  0  0  0  0  0  0  0  0  0  0  0
  139.9380   68.5850  229.3900 F   0  0  0  0  0  0  0  0  0  0  0  0
  140.8210   70.4790  228.3220 C   0  0  0  0  0  0  0  0  0  0  0  0
  141.0370   71.2440  227.1960 C   0  0  0  0  0  0  0  0  0  0  0  0
  140.5220   70.7650  226.0100 C   0  0  0  0  0  0  0  0  0  0  0  0
  140.7360   71.5170  224.9120 N   0  0  0  0  0  0  0  0  0  0  0  0
  139.1020   73.3760  223.0920 H   0  0  0  0  0  0  0  0  0  0  0  0
  140.5582   73.1845  220.4797 H   0  0  0  0  0  0  0  0  0  0  0  0
  139.0750   74.3047  220.8885 H   0  0  0  0  0  0  0  0  0  0  0  0
  140.3149   77.0345  219.0259 H   0  0  0  0  0  0  0  0  0  0  0  0
  140.9750   77.7959  220.4585 H   0  0  0  0  0  0  0  0  0  0  0  0
  142.2548   77.3349  217.7559 H   0  0  0  0  0  0  0  0  0  0  0  0
  142.6432   78.5935  218.9156 H   0  0  0  0  0  0  0  0  0  0  0  0
  144.4157   76.5628  218.6698 H   0  0  0  0  0  0  0  0  0  0  0  0
  144.0605   76.9517  220.2919 H   0  0  0  0  0  0  0  0  0  0  0  0
  142.3055   74.8420  218.5285 H   0  0  0  0  0  0  0  0  0  0  0  0
  142.6342   73.4960  219.6255 H   0  0  0  0  0  0  0  0  0  0  0  0
  144.4216   74.7474  221.4118 H   0  0  0  0  0  0  0  0  0  0  0  0
  143.6607   73.1297  221.4505 H   0  0  0  0  0  0  0  0  0  0  0  0
  146.3916   73.7062  220.9925 H   0  0  0  0  0  0  0  0  0  0  0  0
  145.5965   72.1375  220.7372 H   0  0  0  0  0  0  0  0  0  0  0  0
  146.6110   73.7710  218.7300 H   0  0  0  0  0  0  0  0  0  0  0  0
  144.7483   74.8380  217.9700 H   0  0  0  0  0  0  0  0  0  0  0  0
  144.1110   73.1734  217.7681 H   0  0  0  0  0  0  0  0  0  0  0  0
  139.1808   69.6527  222.5447 H   0  0  0  0  0  0  0  0  0  0  0  0
  138.7771   68.2525  224.5641 H   0  0  0  0  0  0  0  0  0  0  0  0
  139.0476   67.8794  226.9972 H   0  0  0  0  0  0  0  0  0  0  0  0
  141.2109   70.8132  229.2948 H   0  0  0  0  0  0  0  0  0  0  0  0
  141.5938   72.1916  227.2414 H   0  0  0  0  0  0  0  0  0  0  0  0
  1  2  2  0
  2  3  1  0
  3  4  1  0
  4  5  1  0
  5  6  2  0
  5  7  1  0
  7  8  1  0
  8  9  1  0
  9 10  1  0
 10 11  1  0
 11 12  1  0
 12 13  1  0
 13 14  1  0
 14 15  1  0
 15 16  1  0
  2 17  1  0
 17 18  2  0
 18 19  1  0
 19 20  2  0
 20 21  1  0
 21 22  2  0
 22 23  1  0
 22 24  1  0
 24 25  2  0
 25 26  1  0
 26 27  2  0
 11  7  1  0
 16 12  1  0
 27 17  1  0
 26 20  1  0
  3 28  1  0
  4 29  1  0
  4 30  1  0
  8 31  1  0
  8 32  1  0
  9 33  1  0
  9 34  1  0
 10 35  1  0
 10 36  1  0
 11 37  1  6
 12 38  1  6
 13 39  1  0
 13 40  1  0
 14 41  1  0
 14 42  1  0
 15 43  1  0
 16 44  1  0
 16 45  1  0
 18 46  1  0
 19 47  1  0
 21 48  1  0
 24 49  1  0
 25 50  1  0
M  END
>  <smiles>  (77) 
O=C(NCC(=O)N1CCCC1C1CCNC1)c1ccc2cc(F)ccc2n1

>  <score_type>  (77) 
oracle

>  <origin>  (77) 
autodockgpu

>  <m_score__min__energy>  (77) 
-8.6099999999999994

>  <m_primary>  (77) 
energy

>  <rmsd>  (77) 
2.1342285912865164

>  <m_score__min__rmsd>  (77) 
2.1342285912865164

>  <meeko>  (77) 
{"free_energy": -8.47, "intermolecular_energy": -9.96, "internal_energy": -1.31, "cluster_size": 22, "cluster_id": 1, "rank_in_cluster": 9}

>  <energy>  (77) 
-7.8

>  <cluster_rmsd>  (77) 
0.99

>  <cluster>  (77) 
2

$$$$

     RDKit          3D

 50 53  0  0  0  0  0  0  0  0999 V2000
  139.4870   79.4830  219.7960 O   0  0  0  0  0  0  0  0  0  0  0  0
  140.6490   79.1530  220.1560 C   0  0  0  0  0  0  0  0  0  0  0  0
  141.5820   80.2350  220.4320 N   0  0  0  0  0  0  0  0  0  0  0  0
  141.0790   81.5370  220.2650 C   0  0  0  0  0  0  0  0  0  0  0  0
  140.2550   82.1950  221.2630 C   0  0  0  0  0  0  0  0  0  0  0  0
  140.2180   83.4950  221.1100 O   0  0  0  0  0  0  0  0  0  0  0  0
  139.4950   81.7200  222.3470 N   0  0  0  0  0  0  0  0  0  0  0  0
  138.0500   81.9690  222.4560 C   0  0  0  0  0  0  0  0  0  0  0  0
  137.6240   81.0350  223.5800 C   0  0  0  0  0  0  0  0  0  0  0  0
  138.7530   79.9870  223.6270 C   0  0  0  0  0  0  0  0  0  0  0  0
  139.9140   81.0020  223.4790 C   0  0  1  0  0  0  0  0  0  0  0  0
  141.2020   80.4500  223.7740 C   0  0  2  0  0  0  0  0  0  0  0  0
  142.4640   81.1790  223.6060 C   0  0  0  0  0  0  0  0  0  0  0  0
  143.5030   80.2160  223.0830 C   0  0  0  0  0  0  0  0  0  0  0  0
  142.8120   79.0160  222.7250 N   0  0  0  0  0  0  0  0  0  0  0  0
  141.4560   79.0910  223.1410 C   0  0  0  0  0  0  0  0  0  0  0  0
  141.0720   77.7740  220.3010 C   0  0  0  0  0  0  0  0  0  0  0  0
  140.1390   76.8690  220.7570 C   0  0  0  0  0  0  0  0  0  0  0  0
  140.5470   75.5580  220.8920 C   0  0  0  0  0  0  0  0  0  0  0  0
  141.8500   75.1590  220.5800 C   0  0  0  0  0  0  0  0  0  0  0  0
  142.2700   73.8550  220.7100 C   0  0  0  0  0  0  0  0  0  0  0  0
  143.5730   73.5630  220.3770 C   0  0  0  0  0  0  0  0  0  0  0  0
  144.0460   72.2840  220.4860 F   0  0  0  0  0  0  0  0  0  0  0  0
  144.4550   74.5250  219.9240 C   0  0  0  0  0  0  0  0  0  0  0  0
  144.0450   75.8350  219.7910 C   0  0  0  0  0  0  0  0  0  0  0  0
  142.7380   76.1150  220.1270 C   0  0  0  0  0  0  0  0  0  0  0  0
  142.3420   77.3970  219.9940 N   0  0  0  0  0  0  0  0  0  0  0  0
  142.5090   79.8990  220.7360 H   0  0  0  0  0  0  0  0  0  0  0  0
  141.9555   82.1853  220.1187 H   0  0  0  0  0  0  0  0  0  0  0  0
  140.3621   81.3949  219.4429 H   0  0  0  0  0  0  0  0  0  0  0  0
  137.8485   83.0185  222.7166 H   0  0  0  0  0  0  0  0  0  0  0  0
  137.5078   81.7904  221.5157 H   0  0  0  0  0  0  0  0  0  0  0  0
  137.5509   81.5768  224.5345 H   0  0  0  0  0  0  0  0  0  0  0  0
  136.6327   80.5885  223.4125 H   0  0  0  0  0  0  0  0  0  0  0  0
  138.7856   79.4386  224.5800 H   0  0  0  0  0  0  0  0  0  0  0  0
  138.7073   79.1639  222.8987 H   0  0  0  0  0  0  0  0  0  0  0  0
  140.1327   81.7825  224.2227 H   0  0  0  0  0  0  0  0  0  0  0  0
  141.0140   80.4667  224.8577 H   0  0  0  0  0  0  0  0  0  0  0  0
  142.3255   82.0018  222.8892 H   0  0  0  0  0  0  0  0  0  0  0  0
  142.7889   81.6003  224.5688 H   0  0  0  0  0  0  0  0  0  0  0  0
  144.0040   80.6418  222.2011 H   0  0  0  0  0  0  0  0  0  0  0  0
  144.2733   80.0160  223.8424 H   0  0  0  0  0  0  0  0  0  0  0  0
  142.9990   78.6440  221.7870 H   0  0  0  0  0  0  0  0  0  0  0  0
  140.7963   78.9615  222.2704 H   0  0  0  0  0  0  0  0  0  0  0  0
  141.2498   78.2973  223.8742 H   0  0  0  0  0  0  0  0  0  0  0  0
  139.1125   77.1784  221.0030 H   0  0  0  0  0  0  0  0  0  0  0  0
  139.8288   74.8077  221.2543 H   0  0  0  0  0  0  0  0  0  0  0  0
  141.5863   73.0714  221.0685 H   0  0  0  0  0  0  0  0  0  0  0  0
  145.4877   74.2452  219.6685 H   0  0  0  0  0  0  0  0  0  0  0  0
  144.7287   76.6192  219.4337 H   0  0  0  0  0  0  0  0  0  0  0  0
  1  2  2  0
  2  3  1  0
  3  4  1  0
  4  5  1  0
  5  6  2  0
  5  7  1  0
  7  8  1  0
  8  9  1  0
  9 10  1  0
 10 11  1  0
 11 12  1  0
 12 13  1  0
 13 14  1  0
 14 15  1  0
 15 16  1  0
  2 17  1  0
 17 18  2  0
 18 19  1  0
 19 20  2  0
 20 21  1  0
 21 22  2  0
 22 23  1  0
 22 24  1  0
 24 25  2  0
 25 26  1  0
 26 27  2  0
 11  7  1  0
 16 12  1  0
 27 17  1  0
 26 20  1  0
  3 28  1  0
  4 29  1  0
  4 30  1  0
  8 31  1  0
  8 32  1  0
  9 33  1  0
  9 34  1  0
 10 35  1  0
 10 36  1  0
 11 37  1  1
 12 38  1  1
 13 39  1  0
 13 40  1  0
 14 41  1  0
 14 42  1  0
 15 43  1  0
 16 44  1  0
 16 45  1  0
 18 46  1  0
 19 47  1  0
 21 48  1  0
 24 49  1  0
 25 50  1  0
M  END
>  <smiles>  (78) 
O=C(NCC(=O)N1CCCC1C1CCNC1)c1ccc2cc(F)ccc2n1

>  <score_type>  (78) 
oracle

>  <origin>  (78) 
autodockgpu

>  <m_score__min__energy>  (78) 
-8.6099999999999994

>  <m_primary>  (78) 
energy

>  <rmsd>  (78) 
8.207910003844304

>  <m_score__min__rmsd>  (78) 
8.207910003844304

>  <meeko>  (78) 
{"free_energy": -6.09, "intermolecular_energy": -7.58, "internal_energy": -3.28, "cluster_size": 21, "cluster_id": 5, "rank_in_cluster": 4}

>  <energy>  (78) 
-7.89

>  <cluster_rmsd>  (78) 
0.0

>  <cluster>  (78) 
3

$$$$

     RDKit          3D

 50 53  0  0  0  0  0  0  0  0999 V2000
  141.4340   72.2960  221.8880 O   0  0  0  0  0  0  0  0  0  0  0  0
  140.4120   72.3360  222.6250 C   0  0  0  0  0  0  0  0  0  0  0  0
  139.4040   73.3330  222.2970 N   0  0  0  0  0  0  0  0  0  0  0  0
  139.6850   74.1470  221.1850 C   0  0  0  0  0  0  0  0  0  0  0  0
  140.7520   75.1320  221.1820 C   0  0  0  0  0  0  0  0  0  0  0  0
  140.9050   75.7140  222.3440 O   0  0  0  0  0  0  0  0  0  0  0  0
  141.6430   75.5790  220.1910 N   0  0  0  0  0  0  0  0  0  0  0  0
  141.3300   76.7180  219.3140 C   0  0  0  0  0  0  0  0  0  0  0  0
  142.6650   77.0160  218.6470 C   0  0  0  0  0  0  0  0  0  0  0  0
  143.6960   76.3710  219.5950 C   0  0  0  0  0  0  0  0  0  0  0  0
  142.8980   75.0640  219.8260 C   0  0  1  0  0  0  0  0  0  0  0  0
  143.6650   74.0240  220.4460 C   0  0  2  0  0  0  0  0  0  0  0  0
  145.0750   74.1600  220.8220 C   0  0  0  0  0  0  0  0  0  0  0  0
  145.7730   72.8510  220.5340 C   0  0  0  0  0  0  0  0  0  0  0  0
  144.8550   72.0500  219.7860 N   0  0  0  0  0  0  0  0  0  0  0  0
  143.5850   72.6830  219.7320 C   0  0  0  0  0  0  0  0  0  0  0  0
  140.2150   71.4480  223.7550 C   0  0  0  0  0  0  0  0  0  0  0  0
  139.5150   70.2830  223.5300 C   0  0  0  0  0  0  0  0  0  0  0  0
  139.3310   69.4410  224.6070 C   0  0  0  0  0  0  0  0  0  0  0  0
  139.8310   69.7520  225.8750 C   0  0  0  0  0  0  0  0  0  0  0  0
  139.6540   68.9220  226.9580 C   0  0  0  0  0  0  0  0  0  0  0  0
  140.1850   69.3160  228.1650 C   0  0  0  0  0  0  0  0  0  0  0  0
  140.0410   68.5320  229.2760 F   0  0  0  0  0  0  0  0  0  0  0  0
  140.8780   70.5030  228.3160 C   0  0  0  0  0  0  0  0  0  0  0  0
  141.0610   71.3430  227.2380 C   0  0  0  0  0  0  0  0  0  0  0  0
  140.5250   70.9360  226.0340 C   0  0  0  0  0  0  0  0  0  0  0  0
  140.7060   71.7600  224.9840 N   0  0  0  0  0  0  0  0  0  0  0  0
  138.5890   73.3030  222.9280 H   0  0  0  0  0  0  0  0  0  0  0  0
  139.9018   73.4611  220.3529 H   0  0  0  0  0  0  0  0  0  0  0  0
  138.7911   74.7869  221.1458 H   0  0  0  0  0  0  0  0  0  0  0  0
  140.5683   76.4451  218.5688 H   0  0  0  0  0  0  0  0  0  0  0  0
  140.9151   77.5805  219.8563 H   0  0  0  0  0  0  0  0  0  0  0  0
  142.7140   76.5622  217.6462 H   0  0  0  0  0  0  0  0  0  0  0  0
  142.8370   78.0920  218.4969 H   0  0  0  0  0  0  0  0  0  0  0  0
  144.6685   76.1965  219.1115 H   0  0  0  0  0  0  0  0  0  0  0  0
  143.9909   76.9457  220.4854 H   0  0  0  0  0  0  0  0  0  0  0  0
  142.6661   74.3479  219.0238 H   0  0  0  0  0  0  0  0  0  0  0  0
  143.1150   74.1166  221.3941 H   0  0  0  0  0  0  0  0  0  0  0  0
  145.5400   74.9661  220.2354 H   0  0  0  0  0  0  0  0  0  0  0  0
  145.1594   74.4066  221.8907 H   0  0  0  0  0  0  0  0  0  0  0  0
  146.6857   73.0296  219.9466 H   0  0  0  0  0  0  0  0  0  0  0  0
  146.0680   72.3472  221.4663 H   0  0  0  0  0  0  0  0  0  0  0  0
  145.2130   71.6340  218.9190 H   0  0  0  0  0  0  0  0  0  0  0  0
  143.2970   72.8415  218.6823 H   0  0  0  0  0  0  0  0  0  0  0  0
  142.8334   72.0469  220.2224 H   0  0  0  0  0  0  0  0  0  0  0  0
  139.1197   70.0348  222.5340 H   0  0  0  0  0  0  0  0  0  0  0  0
  138.7770   68.5014  224.4646 H   0  0  0  0  0  0  0  0  0  0  0  0
  139.1054   67.9734  226.8621 H   0  0  0  0  0  0  0  0  0  0  0  0
  141.2850   70.7783  229.3002 H   0  0  0  0  0  0  0  0  0  0  0  0
  141.6083   72.2924  227.3336 H   0  0  0  0  0  0  0  0  0  0  0  0
  1  2  2  0
  2  3  1  0
  3  4  1  0
  4  5  1  0
  5  6  2  0
  5  7  1  0
  7  8  1  0
  8  9  1  0
  9 10  1  0
 10 11  1  0
 11 12  1  0
 12 13  1  0
 13 14  1  0
 14 15  1  0
 15 16  1  0
  2 17  1  0
 17 18  2  0
 18 19  1  0
 19 20  2  0
 20 21  1  0
 21 22  2  0
 22 23  1  0
 22 24  1  0
 24 25  2  0
 25 26  1  0
 26 27  2  0
 11  7  1  0
 16 12  1  0
 27 17  1  0
 26 20  1  0
  3 28  1  0
  4 29  1  0
  4 30  1  0
  8 31  1  0
  8 32  1  0
  9 33  1  0
  9 34  1  0
 10 35  1  0
 10 36  1  0
 11 37  1  6
 12 38  1  1
 13 39  1  0
 13 40  1  0
 14 41  1  0
 14 42  1  0
 15 43  1  0
 16 44  1  0
 16 45  1  0
 18 46  1  0
 19 47  1  0
 21 48  1  0
 24 49  1  0
 25 50  1  0
M  END
>  <smiles>  (79) 
O=C(NCC(=O)N1CCCC1C1CCNC1)c1ccc2cc(F)ccc2n1

>  <score_type>  (79) 
oracle

>  <origin>  (79) 
autodockgpu

>  <m_score__min__energy>  (79) 
-8.6099999999999994

>  <m_primary>  (79) 
energy

>  <rmsd>  (79) 
2.1400649242269165

>  <m_score__min__rmsd>  (79) 
2.1400649242269165

>  <meeko>  (79) 
{"free_energy": -8.01, "intermolecular_energy": -9.5, "internal_energy": -1.34, "cluster_size": 22, "cluster_id": 1, "rank_in_cluster": 20}

>  <energy>  (79) 
-6.98

>  <cluster_rmsd>  (79) 
0.0

>  <cluster>  (79) 
4

$$$$

     RDKit          3D

 50 53  0  0  0  0  0  0  0  0999 V2000
  141.6580   81.1070  218.0320 O   0  0  0  0  0  0  0  0  0  0  0  0
  141.7320   80.2280  218.9330 C   0  0  0  0  0  0  0  0  0  0  0  0
  141.2850   80.6120  220.2630 N   0  0  0  0  0  0  0  0  0  0  0  0
  140.8150   81.9300  220.3960 C   0  0  0  0  0  0  0  0  0  0  0  0
  139.9850   82.3600  221.5070 C   0  0  0  0  0  0  0  0  0  0  0  0
  139.9230   83.6640  221.6160 O   0  0  0  0  0  0  0  0  0  0  0  0
  139.2420   81.6640  222.4770 N   0  0  0  0  0  0  0  0  0  0  0  0
  137.7840   81.8160  222.6010 C   0  0  0  0  0  0  0  0  0  0  0  0
  137.3990   80.6780  223.5370 C   0  0  0  0  0  0  0  0  0  0  0  0
  138.5830   79.6970  223.4220 C   0  0  0  0  0  0  0  0  0  0  0  0
  139.6890   80.7810  223.4740 C   0  0  1  0  0  0  0  0  0  0  0  0
  141.0020   80.2530  223.6930 C   0  0  2  0  0  0  0  0  0  0  0  0
  142.2310   81.0480  223.6000 C   0  0  0  0  0  0  0  0  0  0  0  0
  143.3010   80.1960  222.9590 C   0  0  0  0  0  0  0  0  0  0  0  0
  142.6550   79.0180  222.4710 N   0  0  0  0  0  0  0  0  0  0  0  0
  141.3020   78.9880  222.9040 C   0  0  0  0  0  0  0  0  0  0  0  0
  142.2330   78.8880  218.6930 C   0  0  0  0  0  0  0  0  0  0  0  0
  142.7980   78.6330  217.4620 C   0  0  0  0  0  0  0  0  0  0  0  0
  143.2730   77.3570  217.2400 C   0  0  0  0  0  0  0  0  0  0  0  0
  143.1880   76.3620  218.2180 C   0  0  0  0  0  0  0  0  0  0  0  0
  143.6580   75.0860  218.0090 C   0  0  0  0  0  0  0  0  0  0  0  0
  143.5290   74.1770  219.0340 C   0  0  0  0  0  0  0  0  0  0  0  0
  143.9780   72.8940  218.8850 F   0  0  0  0  0  0  0  0  0  0  0  0
  142.9500   74.5050  220.2460 C   0  0  0  0  0  0  0  0  0  0  0  0
  142.4750   75.7810  220.4660 C   0  0  0  0  0  0  0  0  0  0  0  0
  142.6110   76.6820  219.4310 C   0  0  0  0  0  0  0  0  0  0  0  0
  142.1460   77.9280  219.6510 N   0  0  0  0  0  0  0  0  0  0  0  0
  141.3570   79.8440  220.9480 H   0  0  0  0  0  0  0  0  0  0  0  0
  141.7088   82.5709  220.4182 H   0  0  0  0  0  0  0  0  0  0  0  0
  140.1126   82.0020  219.5525 H   0  0  0  0  0  0  0  0  0  0  0  0
  137.5240   82.7918  223.0372 H   0  0  0  0  0  0  0  0  0  0  0  0
  137.2605   81.7779  221.6343 H   0  0  0  0  0  0  0  0  0  0  0  0
  137.2877   81.0397  224.5699 H   0  0  0  0  0  0  0  0  0  0  0  0
  136.4352   80.2170  223.2752 H   0  0  0  0  0  0  0  0  0  0  0  0
  138.6364   78.9932  224.2657 H   0  0  0  0  0  0  0  0  0  0  0  0
  138.5884   79.0123  222.5611 H   0  0  0  0  0  0  0  0  0  0  0  0
  139.8589   81.4302  224.3456 H   0  0  0  0  0  0  0  0  0  0  0  0
  140.8281   80.1370  224.7730 H   0  0  0  0  0  0  0  0  0  0  0  0
  142.0498   81.9420  222.9853 H   0  0  0  0  0  0  0  0  0  0  0  0
  142.5518   81.3677  224.6025 H   0  0  0  0  0  0  0  0  0  0  0  0
  143.7717   80.7415  222.1278 H   0  0  0  0  0  0  0  0  0  0  0  0
  144.0893   79.9422  223.6830 H   0  0  0  0  0  0  0  0  0  0  0  0
  142.8450   78.7650  221.4950 H   0  0  0  0  0  0  0  0  0  0  0  0
  140.6369   78.9332  222.0296 H   0  0  0  0  0  0  0  0  0  0  0  0
  141.1371   78.1068  223.5414 H   0  0  0  0  0  0  0  0  0  0  0  0
  142.8672   79.4133  216.6898 H   0  0  0  0  0  0  0  0  0  0  0  0
  143.7302   77.1165  216.2688 H   0  0  0  0  0  0  0  0  0  0  0  0
  144.1221   74.8015  217.0531 H   0  0  0  0  0  0  0  0  0  0  0  0
  142.8679   73.7456  221.0375 H   0  0  0  0  0  0  0  0  0  0  0  0
  142.0100   76.0663  221.4212 H   0  0  0  0  0  0  0  0  0  0  0  0
  1  2  2  0
  2  3  1  0
  3  4  1  0
  4  5  1  0
  5  6  2  0
  5  7  1  0
  7  8  1  0
  8  9  1  0
  9 10  1  0
 10 11  1  0
 11 12  1  0
 12 13  1  0
 13 14  1  0
 14 15  1  0
 15 16  1  0
  2 17  1  0
 17 18  2  0
 18 19  1  0
 19 20  2  0
 20 21  1  0
 21 22  2  0
 22 23  1  0
 22 24  1  0
 24 25  2  0
 25 26  1  0
 26 27  2  0
 11  7  1  0
 16 12  1  0
 27 17  1  0
 26 20  1  0
  3 28  1  0
  4 29  1  0
  4 30  1  0
  8 31  1  0
  8 32  1  0
  9 33  1  0
  9 34  1  0
 10 35  1  0
 10 36  1  0
 11 37  1  1
 12 38  1  1
 13 39  1  0
 13 40  1  0
 14 41  1  0
 14 42  1  0
 15 43  1  0
 16 44  1  0
 16 45  1  0
 18 46  1  0
 19 47  1  0
 21 48  1  0
 24 49  1  0
 25 50  1  0
M  END
>  <smiles>  (80) 
O=C(NCC(=O)N1CCCC1C1CCNC1)c1ccc2cc(F)ccc2n1

>  <score_type>  (80) 
oracle

>  <origin>  (80) 
autodockgpu

>  <m_score__min__energy>  (80) 
-8.6099999999999994

>  <m_primary>  (80) 
energy

>  <rmsd>  (80) 
9.22033852682136

>  <m_score__min__rmsd>  (80) 
9.22033852682136

>  <meeko>  (80) 
{"free_energy": -5.84, "intermolecular_energy": -7.33, "internal_energy": -3.27, "cluster_size": 21, "cluster_id": 5, "rank_in_cluster": 19}

>  <energy>  (80) 
-6.18

>  <cluster_rmsd>  (80) 
0.0

>  <cluster>  (80) 
5

$$$$

     RDKit          3D

 50 53  0  0  0  0  0  0  0  0999 V2000
  142.1720   80.0150  218.4490 O   0  0  0  0  0  0  0  0  0  0  0  0
  141.8770   79.3080  219.4500 C   0  0  0  0  0  0  0  0  0  0  0  0
  141.2230   79.9830  220.5610 N   0  0  0  0  0  0  0  0  0  0  0  0
  140.9910   81.3590  220.3930 C   0  0  0  0  0  0  0  0  0  0  0  0
  140.0170   82.0940  221.1800 C   0  0  0  0  0  0  0  0  0  0  0  0
  139.8640   83.3280  220.7700 O   0  0  0  0  0  0  0  0  0  0  0  0
  139.2150   81.7490  222.2820 N   0  0  0  0  0  0  0  0  0  0  0  0
  137.7900   82.1060  222.3520 C   0  0  0  0  0  0  0  0  0  0  0  0
  137.2860   81.2830  223.5290 C   0  0  0  0  0  0  0  0  0  0  0  0
  138.3370   80.1630  223.6640 C   0  0  0  0  0  0  0  0  0  0  0  0
  139.5690   81.0810  223.4660 C   0  0  1  0  0  0  0  0  0  0  0  0
  140.8120   80.4600  223.8170 C   0  0  2  0  0  0  0  0  0  0  0  0
  142.1260   80.9890  223.4400 C   0  0  0  0  0  0  0  0  0  0  0  0
  143.0250   79.8260  223.0930 C   0  0  0  0  0  0  0  0  0  0  0  0
  142.1930   78.6640  223.0330 N   0  0  0  0  0  0  0  0  0  0  0  0
  140.8830   78.9790  223.4820 C   0  0  0  0  0  0  0  0  0  0  0  0
  142.1580   77.8870  219.5270 C   0  0  0  0  0  0  0  0  0  0  0  0
  143.0620   77.3700  218.6250 C   0  0  0  0  0  0  0  0  0  0  0  0
  143.3270   76.0190  218.7030 C   0  0  0  0  0  0  0  0  0  0  0  0
  142.7060   75.2030  219.6550 C   0  0  0  0  0  0  0  0  0  0  0  0
  142.9610   73.8540  219.7430 C   0  0  0  0  0  0  0  0  0  0  0  0
  142.3000   73.1370  220.7140 C   0  0  0  0  0  0  0  0  0  0  0  0
  142.5130   71.7930  220.8500 F   0  0  0  0  0  0  0  0  0  0  0  0
  141.4040   73.7250  221.5870 C   0  0  0  0  0  0  0  0  0  0  0  0
  141.1410   75.0760  221.5070 C   0  0  0  0  0  0  0  0  0  0  0  0
  141.8090   75.7830  220.5300 C   0  0  0  0  0  0  0  0  0  0  0  0
  141.5490   77.1040  220.4560 N   0  0  0  0  0  0  0  0  0  0  0  0
  140.9950   79.3460  221.3400 H   0  0  0  0  0  0  0  0  0  0  0  0
  141.9580   81.8538  220.5666 H   0  0  0  0  0  0  0  0  0  0  0  0
  140.5351   81.3870  219.3923 H   0  0  0  0  0  0  0  0  0  0  0  0
  137.6612   83.1824  222.5387 H   0  0  0  0  0  0  0  0  0  0  0  0
  137.2466   81.9024  221.4175 H   0  0  0  0  0  0  0  0  0  0  0  0
  137.2413   81.8922  224.4438 H   0  0  0  0  0  0  0  0  0  0  0  0
  136.2673   80.8973  223.3761 H   0  0  0  0  0  0  0  0  0  0  0  0
  138.3202   79.6800  224.6521 H   0  0  0  0  0  0  0  0  0  0  0  0
  138.2403   79.2974  222.9922 H   0  0  0  0  0  0  0  0  0  0  0  0
  139.8344   81.8927  224.1593 H   0  0  0  0  0  0  0  0  0  0  0  0
  140.7006   80.7247  224.8789 H   0  0  0  0  0  0  0  0  0  0  0  0
  142.0236   81.6525  222.5687 H   0  0  0  0  0  0  0  0  0  0  0  0
  142.5558   81.5641  224.2734 H   0  0  0  0  0  0  0  0  0  0  0  0
  143.5070   79.9973  222.1192 H   0  0  0  0  0  0  0  0  0  0  0  0
  143.8199   79.7039  223.8435 H   0  0  0  0  0  0  0  0  0  0  0  0
  142.2780   78.0850  222.1910 H   0  0  0  0  0  0  0  0  0  0  0  0
  140.1565   78.7458  222.6896 H   0  0  0  0  0  0  0  0  0  0  0  0
  140.6467   78.3858  224.3777 H   0  0  0  0  0  0  0  0  0  0  0  0
  143.5516   78.0079  217.8744 H   0  0  0  0  0  0  0  0  0  0  0  0
  144.0444   75.5717  217.9993 H   0  0  0  0  0  0  0  0  0  0  0  0
  143.6702   73.3644  219.0594 H   0  0  0  0  0  0  0  0  0  0  0  0
  140.8989   73.1126  222.3485 H   0  0  0  0  0  0  0  0  0  0  0  0
  140.4320   75.5664  222.1902 H   0  0  0  0  0  0  0  0  0  0  0  0
  1  2  2  0
  2  3  1  0
  3  4  1  0
  4  5  1  0
  5  6  2  0
  5  7  1  0
  7  8  1  0
  8  9  1  0
  9 10  1  0
 10 11  1  0
 11 12  1  0
 12 13  1  0
 13 14  1  0
 14 15  1  0
 15 16  1  0
  2 17  1  0
 17 18  2  0
 18 19  1  0
 19 20  2  0
 20 21  1  0
 21 22  2  0
 22 23  1  0
 22 24  1  0
 24 25  2  0
 25 26  1  0
 26 27  2  0
 11  7  1  0
 16 12  1  0
 27 17  1  0
 26 20  1  0
  3 28  1  0
  4 29  1  0
  4 30  1  0
  8 31  1  0
  8 32  1  0
  9 33  1  0
  9 34  1  0
 10 35  1  0
 10 36  1  0
 11 37  1  1
 12 38  1  1
 13 39  1  0
 13 40  1  0
 14 41  1  0
 14 42  1  0
 15 43  1  0
 16 44  1  0
 16 45  1  0
 18 46  1  0
 19 47  1  0
 21 48  1  0
 24 49  1  0
 25 50  1  0
M  END
>  <smiles>  (81) 
O=C(NCC(=O)N1CCCC1C1CCNC1)c1ccc2cc(F)ccc2n1

>  <score_type>  (81) 
oracle

>  <origin>  (81) 
autodockgpu

>  <m_score__min__energy>  (81) 
-8.6099999999999994

>  <m_primary>  (81) 
energy

>  <rmsd>  (81) 
8.317453281016666

>  <m_score__min__rmsd>  (81) 
8.317453281016666

>  <meeko>  (81) 
{"free_energy": -5.74, "intermolecular_energy": -7.23, "internal_energy": -3.2, "cluster_size": 21, "cluster_id": 5, "rank_in_cluster": 21}

>  <energy>  (81) 
-6.15

>  <cluster_rmsd>  (81) 
0.11

>  <cluster>  (81) 
5

$$$$

     RDKit          3D

 50 53  0  0  0  0  0  0  0  0999 V2000
  139.4260   79.4890  219.8610 O   0  0  0  0  0  0  0  0  0  0  0  0
  140.6020   79.1580  220.1710 C   0  0  0  0  0  0  0  0  0  0  0  0
  141.5450   80.2390  220.4170 N   0  0  0  0  0  0  0  0  0  0  0  0
  141.0350   81.5420  220.2790 C   0  0  0  0  0  0  0  0  0  0  0  0
  140.2110   82.1750  221.2930 C   0  0  0  0  0  0  0  0  0  0  0  0
  140.1620   83.4770  221.1630 O   0  0  0  0  0  0  0  0  0  0  0  0
  139.4640   81.6740  222.3740 N   0  0  0  0  0  0  0  0  0  0  0  0
  138.0140   81.8940  222.4890 C   0  0  0  0  0  0  0  0  0  0  0  0
  137.6100   80.9400  223.6050 C   0  0  0  0  0  0  0  0  0  0  0  0
  138.7600   79.9130  223.6390 C   0  0  0  0  0  0  0  0  0  0  0  0
  139.9000   80.9520  223.4980 C   0  0  1  0  0  0  0  0  0  0  0  0
  141.2000   80.4230  223.7850 C   0  0  2  0  0  0  0  0  0  0  0  0
  142.4450   81.1800  223.6280 C   0  0  0  0  0  0  0  0  0  0  0  0
  143.5050   80.2470  223.0890 C   0  0  0  0  0  0  0  0  0  0  0  0
  142.8380   79.0390  222.7130 N   0  0  0  0  0  0  0  0  0  0  0  0
  141.4810   79.0790  223.1300 C   0  0  0  0  0  0  0  0  0  0  0  0
  141.0320   77.7780  220.2890 C   0  0  0  0  0  0  0  0  0  0  0  0
  140.0800   76.8450  220.6370 C   0  0  0  0  0  0  0  0  0  0  0  0
  140.4940   75.5340  220.7460 C   0  0  0  0  0  0  0  0  0  0  0  0
  141.8220   75.1620  220.5170 C   0  0  0  0  0  0  0  0  0  0  0  0
  142.2480   73.8580  220.6230 C   0  0  0  0  0  0  0  0  0  0  0  0
  143.5760   73.5940  220.3760 C   0  0  0  0  0  0  0  0  0  0  0  0
  144.0570   72.3170  220.4670 F   0  0  0  0  0  0  0  0  0  0  0  0
  144.4770   74.5840  220.0310 C   0  0  0  0  0  0  0  0  0  0  0  0
  144.0600   75.8940  219.9220 C   0  0  0  0  0  0  0  0  0  0  0  0
  142.7280   76.1460  220.1710 C   0  0  0  0  0  0  0  0  0  0  0  0
  142.3260   77.4280  220.0630 N   0  0  0  0  0  0  0  0  0  0  0  0
  142.4830   79.9020  220.6800 H   0  0  0  0  0  0  0  0  0  0  0  0
  141.9079   82.1975  220.1437 H   0  0  0  0  0  0  0  0  0  0  0  0
  140.3161   81.4135  219.4564 H   0  0  0  0  0  0  0  0  0  0  0  0
  137.7927   82.9367  222.7608 H   0  0  0  0  0  0  0  0  0  0  0  0
  137.4725   81.7148  221.5484 H   0  0  0  0  0  0  0  0  0  0  0  0
  137.5290   81.4707  224.5651 H   0  0  0  0  0  0  0  0  0  0  0  0
  136.6274   80.4756  223.4352 H   0  0  0  0  0  0  0  0  0  0  0  0
  138.8059   79.3561  224.5865 H   0  0  0  0  0  0  0  0  0  0  0  0
  138.7284   79.0961  222.9030 H   0  0  0  0  0  0  0  0  0  0  0  0
  140.1050   81.7292  224.2489 H   0  0  0  0  0  0  0  0  0  0  0  0
  141.0138   80.4195  224.8691 H   0  0  0  0  0  0  0  0  0  0  0  0
  142.2885   82.0109  222.9243 H   0  0  0  0  0  0  0  0  0  0  0  0
  142.7616   81.5926  224.5973 H   0  0  0  0  0  0  0  0  0  0  0  0
  143.9962   80.6969  222.2136 H   0  0  0  0  0  0  0  0  0  0  0  0
  144.2806   80.0516  223.8442 H   0  0  0  0  0  0  0  0  0  0  0  0
  143.0330   78.6860  221.7690 H   0  0  0  0  0  0  0  0  0  0  0  0
  140.8237   78.9501  222.2574 H   0  0  0  0  0  0  0  0  0  0  0  0
  141.2909   78.2693  223.8500 H   0  0  0  0  0  0  0  0  0  0  0  0
  139.0344   77.1334  220.8201 H   0  0  0  0  0  0  0  0  0  0  0  0
  139.7606   74.7613  221.0201 H   0  0  0  0  0  0  0  0  0  0  0  0
  141.5501   73.0529  220.8962 H   0  0  0  0  0  0  0  0  0  0  0  0
  145.5297   74.3261  219.8429 H   0  0  0  0  0  0  0  0  0  0  0  0
  144.7575   76.6997  219.6492 H   0  0  0  0  0  0  0  0  0  0  0  0
  1  2  2  0
  2  3  1  0
  3  4  1  0
  4  5  1  0
  5  6  2  0
  5  7  1  0
  7  8  1  0
  8  9  1  0
  9 10  1  0
 10 11  1  0
 11 12  1  0
 12 13  1  0
 13 14  1  0
 14 15  1  0
 15 16  1  0
  2 17  1  0
 17 18  2  0
 18 19  1  0
 19 20  2  0
 20 21  1  0
 21 22  2  0
 22 23  1  0
 22 24  1  0
 24 25  2  0
 25 26  1  0
 26 27  2  0
 11  7  1  0
 16 12  1  0
 27 17  1  0
 26 20  1  0
  3 28  1  0
  4 29  1  0
  4 30  1  0
  8 31  1  0
  8 32  1  0
  9 33  1  0
  9 34  1  0
 10 35  1  0
 10 36  1  0
 11 37  1  1
 12 38  1  1
 13 39  1  0
 13 40  1  0
 14 41  1  0
 14 42  1  0
 15 43  1  0
 16 44  1  0
 16 45  1  0
 18 46  1  0
 19 47  1  0
 21 48  1  0
 24 49  1  0
 25 50  1  0
M  END
>  <smiles>  (82) 
O=C(NCC(=O)N1CCCC1C1CCNC1)c1ccc2cc(F)ccc2n1

>  <score_type>  (82) 
oracle

>  <origin>  (82) 
autodockgpu

>  <m_score__min__energy>  (82) 
-8.6099999999999994

>  <m_primary>  (82) 
energy

>  <rmsd>  (82) 
8.194217456450229

>  <m_score__min__rmsd>  (82) 
8.194217456450229

>  <meeko>  (82) 
{"free_energy": -5.95, "intermolecular_energy": -7.44, "internal_energy": -3.38, "cluster_size": 21, "cluster_id": 5, "rank_in_cluster": 15}

>  <energy>  (82) 
-6.13

>  <cluster_rmsd>  (82) 
0.08

>  <cluster>  (82) 
5

$$$$

     RDKit          3D

 50 53  0  0  0  0  0  0  0  0999 V2000
  139.4850   79.1650  219.5840 O   0  0  0  0  0  0  0  0  0  0  0  0
  140.6160   78.8690  220.0560 C   0  0  0  0  0  0  0  0  0  0  0  0
  141.4940   79.9760  220.4040 N   0  0  0  0  0  0  0  0  0  0  0  0
  140.9780   81.2640  220.1730 C   0  0  0  0  0  0  0  0  0  0  0  0
  140.3000   82.0340  221.2000 C   0  0  0  0  0  0  0  0  0  0  0  0
  140.4790   83.3240  221.0650 O   0  0  0  0  0  0  0  0  0  0  0  0
  139.4960   81.6750  222.2970 N   0  0  0  0  0  0  0  0  0  0  0  0
  138.0830   82.0730  222.3930 C   0  0  0  0  0  0  0  0  0  0  0  0
  137.5650   81.2250  223.5460 C   0  0  0  0  0  0  0  0  0  0  0  0
  138.5830   80.0700  223.6330 C   0  0  0  0  0  0  0  0  0  0  0  0
  139.8400   80.9570  223.4540 C   0  0  1  0  0  0  0  0  0  0  0  0
  141.0660   80.2880  223.7720 C   0  0  2  0  0  0  0  0  0  0  0  0
  142.3950   80.8770  223.5790 C   0  0  0  0  0  0  0  0  0  0  0  0
  143.3300   79.7950  223.0940 C   0  0  0  0  0  0  0  0  0  0  0  0
  142.5190   78.6600  222.7800 N   0  0  0  0  0  0  0  0  0  0  0  0
  141.1790   78.8870  223.1900 C   0  0  0  0  0  0  0  0  0  0  0  0
  141.0560   77.5020  220.2580 C   0  0  0  0  0  0  0  0  0  0  0  0
  140.1260   76.5990  220.7260 C   0  0  0  0  0  0  0  0  0  0  0  0
  140.5500   75.3000  220.9150 C   0  0  0  0  0  0  0  0  0  0  0  0
  141.8650   74.9100  220.6460 C   0  0  0  0  0  0  0  0  0  0  0  0
  142.3010   73.6180  220.8300 C   0  0  0  0  0  0  0  0  0  0  0  0
  143.6150   73.3340  220.5360 C   0  0  0  0  0  0  0  0  0  0  0  0
  144.1040   72.0680  220.7000 F   0  0  0  0  0  0  0  0  0  0  0  0
  144.4930   74.2940  220.0680 C   0  0  0  0  0  0  0  0  0  0  0  0
  144.0670   75.5920  219.8800 C   0  0  0  0  0  0  0  0  0  0  0  0
  142.7490   75.8640  220.1780 C   0  0  0  0  0  0  0  0  0  0  0  0
  142.3380   77.1340  219.9920 N   0  0  0  0  0  0  0  0  0  0  0  0
  142.3950   79.6660  220.7980 H   0  0  0  0  0  0  0  0  0  0  0  0
  141.8292   81.8783  219.8442 H   0  0  0  0  0  0  0  0  0  0  0  0
  140.1556   81.0525  219.4737 H   0  0  0  0  0  0  0  0  0  0  0  0
  137.9890   83.1456  222.6180 H   0  0  0  0  0  0  0  0  0  0  0  0
  137.5252   81.9192  221.4575 H   0  0  0  0  0  0  0  0  0  0  0  0
  137.5465   81.8034  224.4815 H   0  0  0  0  0  0  0  0  0  0  0  0
  136.5340   80.8750  223.3895 H   0  0  0  0  0  0  0  0  0  0  0  0
  138.5603   79.5544  224.6044 H   0  0  0  0  0  0  0  0  0  0  0  0
  138.4543   79.2309  222.9335 H   0  0  0  0  0  0  0  0  0  0  0  0
  140.1359   81.7367  224.1713 H   0  0  0  0  0  0  0  0  0  0  0  0
  140.8828   80.3648  224.8539 H   0  0  0  0  0  0  0  0  0  0  0  0
  142.3395   81.6824  222.8318 H   0  0  0  0  0  0  0  0  0  0  0  0
  142.7631   81.2979  224.5263 H   0  0  0  0  0  0  0  0  0  0  0  0
  143.8699   80.1345  222.1978 H   0  0  0  0  0  0  0  0  0  0  0  0
  144.0781   79.5461  223.8611 H   0  0  0  0  0  0  0  0  0  0  0  0
  142.6660   78.2360  221.8570 H   0  0  0  0  0  0  0  0  0  0  0  0
  140.5079   78.7931  222.3235 H   0  0  0  0  0  0  0  0  0  0  0  0
  140.8942   78.1458  223.9513 H   0  0  0  0  0  0  0  0  0  0  0  0
  139.0901   76.9011  220.9397 H   0  0  0  0  0  0  0  0  0  0  0  0
  139.8347   74.5517  221.2870 H   0  0  0  0  0  0  0  0  0  0  0  0
  141.6208   72.8369  221.2004 H   0  0  0  0  0  0  0  0  0  0  0  0
  145.5351   74.0214  219.8448 H   0  0  0  0  0  0  0  0  0  0  0  0
  144.7469   76.3734  219.5097 H   0  0  0  0  0  0  0  0  0  0  0  0
  1  2  2  0
  2  3  1  0
  3  4  1  0
  4  5  1  0
  5  6  2  0
  5  7  1  0
  7  8  1  0
  8  9  1  0
  9 10  1  0
 10 11  1  0
 11 12  1  0
 12 13  1  0
 13 14  1  0
 14 15  1  0
 15 16  1  0
  2 17  1  0
 17 18  2  0
 18 19  1  0
 19 20  2  0
 20 21  1  0
 21 22  2  0
 22 23  1  0
 22 24  1  0
 24 25  2  0
 25 26  1  0
 26 27  2  0
 11  7  1  0
 16 12  1  0
 27 17  1  0
 26 20  1  0
  3 28  1  0
  4 29  1  0
  4 30  1  0
  8 31  1  0
  8 32  1  0
  9 33  1  0
  9 34  1  0
 10 35  1  0
 10 36  1  0
 11 37  1  1
 12 38  1  1
 13 39  1  0
 13 40  1  0
 14 41  1  0
 14 42  1  0
 15 43  1  0
 16 44  1  0
 16 45  1  0
 18 46  1  0
 19 47  1  0
 21 48  1  0
 24 49  1  0
 25 50  1  0
M  END
>  <smiles>  (83) 
O=C(NCC(=O)N1CCCC1C1CCNC1)c1ccc2cc(F)ccc2n1

>  <score_type>  (83) 
oracle

>  <origin>  (83) 
autodockgpu

>  <m_score__min__energy>  (83) 
-8.6099999999999994

>  <m_primary>  (83) 
energy

>  <rmsd>  (83) 
8.056107774729888

>  <m_score__min__rmsd>  (83) 
8.056107774729888

>  <meeko>  (83) 
{"free_energy": -5.85, "intermolecular_energy": -7.35, "internal_energy": -3.32, "cluster_size": 21, "cluster_id": 5, "rank_in_cluster": 18}

>  <energy>  (83) 
-6.09

>  <cluster_rmsd>  (83) 
0.17

>  <cluster>  (83) 
5

$$$$

     RDKit          3D

 50 53  0  0  0  0  0  0  0  0999 V2000
  141.3970   72.0610  221.5600 O   0  0  0  0  0  0  0  0  0  0  0  0
  140.4480   72.2330  222.3710 C   0  0  0  0  0  0  0  0  0  0  0  0
  139.5420   73.3390  222.0980 N   0  0  0  0  0  0  0  0  0  0  0  0
  139.8300   74.0990  220.9500 C   0  0  0  0  0  0  0  0  0  0  0  0
  140.8930   75.0870  220.9080 C   0  0  0  0  0  0  0  0  0  0  0  0
  141.2420   75.5030  222.0990 O   0  0  0  0  0  0  0  0  0  0  0  0
  141.6140   75.6780  219.8560 N   0  0  0  0  0  0  0  0  0  0  0  0
  141.1960   76.9470  219.2400 C   0  0  0  0  0  0  0  0  0  0  0  0
  142.4040   77.3350  218.3990 C   0  0  0  0  0  0  0  0  0  0  0  0
  143.5600   76.5350  219.0330 C   0  0  0  0  0  0  0  0  0  0  0  0
  142.7640   75.2150  219.1950 C   0  0  1  0  0  0  0  0  0  0  0  0
  143.5850   74.0810  219.4960 C   0  0  2  0  0  0  0  0  0  0  0  0
  144.2830   73.8910  220.7720 C   0  0  0  0  0  0  0  0  0  0  0  0
  145.6360   73.2830  220.4880 C   0  0  0  0  0  0  0  0  0  0  0  0
  145.8250   73.3380  219.0710 N   0  0  0  0  0  0  0  0  0  0  0  0
  144.6310   73.7730  218.4360 C   0  0  0  0  0  0  0  0  0  0  0  0
  140.2350   71.3900  223.5320 C   0  0  0  0  0  0  0  0  0  0  0  0
  139.5600   70.2040  223.3390 C   0  0  0  0  0  0  0  0  0  0  0  0
  139.3610   69.4050  224.4460 C   0  0  0  0  0  0  0  0  0  0  0  0
  139.8220   69.7780  225.7120 C   0  0  0  0  0  0  0  0  0  0  0  0
  139.6300   68.9910  226.8240 C   0  0  0  0  0  0  0  0  0  0  0  0
  140.1220   69.4460  228.0260 C   0  0  0  0  0  0  0  0  0  0  0  0
  139.9610   68.7070  229.1650 F   0  0  0  0  0  0  0  0  0  0  0  0
  140.7910   70.6500  228.1450 C   0  0  0  0  0  0  0  0  0  0  0  0
  140.9890   71.4460  227.0370 C   0  0  0  0  0  0  0  0  0  0  0  0
  140.4920   70.9800  225.8390 C   0  0  0  0  0  0  0  0  0  0  0  0
  140.6880   71.7620  224.7590 N   0  0  0  0  0  0  0  0  0  0  0  0
  138.7800   73.4150  222.7890 H   0  0  0  0  0  0  0  0  0  0  0  0
  140.0569   73.3741  220.1543 H   0  0  0  0  0  0  0  0  0  0  0  0
  138.9341   74.7325  220.8719 H   0  0  0  0  0  0  0  0  0  0  0  0
  140.3050   76.8061  218.6105 H   0  0  0  0  0  0  0  0  0  0  0  0
  140.9167   77.7146  219.9767 H   0  0  0  0  0  0  0  0  0  0  0  0
  142.2586   77.0481  217.3471 H   0  0  0  0  0  0  0  0  0  0  0  0
  142.5887   78.4194  218.3913 H   0  0  0  0  0  0  0  0  0  0  0  0
  144.4250   76.4313  218.3614 H   0  0  0  0  0  0  0  0  0  0  0  0
  144.0289   76.9552  219.9350 H   0  0  0  0  0  0  0  0  0  0  0  0
  142.3680   74.6404  218.3447 H   0  0  0  0  0  0  0  0  0  0  0  0
  142.7183   73.4059  219.5508 H   0  0  0  0  0  0  0  0  0  0  0  0
  144.4096   74.8613  221.2745 H   0  0  0  0  0  0  0  0  0  0  0  0
  143.6998   73.2272  221.4272 H   0  0  0  0  0  0  0  0  0  0  0  0
  146.4237   73.8573  220.9976 H   0  0  0  0  0  0  0  0  0  0  0  0
  145.6873   72.2466  220.8530 H   0  0  0  0  0  0  0  0  0  0  0  0
  146.7090   73.7420  218.7440 H   0  0  0  0  0  0  0  0  0  0  0  0
  144.8364   74.6793  217.8474 H   0  0  0  0  0  0  0  0  0  0  0  0
  144.2586   72.9826  217.7677 H   0  0  0  0  0  0  0  0  0  0  0  0
  139.1954   69.9071  222.3446 H   0  0  0  0  0  0  0  0  0  0  0  0
  138.8263   68.4508  224.3296 H   0  0  0  0  0  0  0  0  0  0  0  0
  139.1005   68.0293  226.7546 H   0  0  0  0  0  0  0  0  0  0  0  0
  141.1665   70.9738  229.1269 H   0  0  0  0  0  0  0  0  0  0  0  0
  141.5186   72.4076  227.1058 H   0  0  0  0  0  0  0  0  0  0  0  0
  1  2  2  0
  2  3  1  0
  3  4  1  0
  4  5  1  0
  5  6  2  0
  5  7  1  0
  7  8  1  0
  8  9  1  0
  9 10  1  0
 10 11  1  0
 11 12  1  0
 12 13  1  0
 13 14  1  0
 14 15  1  0
 15 16  1  0
  2 17  1  0
 17 18  2  0
 18 19  1  0
 19 20  2  0
 20 21  1  0
 21 22  2  0
 22 23  1  0
 22 24  1  0
 24 25  2  0
 25 26  1  0
 26 27  2  0
 11  7  1  0
 16 12  1  0
 27 17  1  0
 26 20  1  0
  3 28  1  0
  4 29  1  0
  4 30  1  0
  8 31  1  0
  8 32  1  0
  9 33  1  0
  9 34  1  0
 10 35  1  0
 10 36  1  0
 11 37  1  6
 12 38  1  1
 13 39  1  0
 13 40  1  0
 14 41  1  0
 14 42  1  0
 15 43  1  0
 16 44  1  0
 16 45  1  0
 18 46  1  0
 19 47  1  0
 21 48  1  0
 24 49  1  0
 25 50  1  0
M  END
>  <smiles>  (84) 
O=C(NCC(=O)N1CCCC1C1CCNC1)c1ccc2cc(F)ccc2n1

>  <score_type>  (84) 
oracle

>  <origin>  (84) 
autodockgpu

>  <m_score__min__energy>  (84) 
-8.6099999999999994

>  <m_primary>  (84) 
energy

>  <rmsd>  (84) 
2.08008935714582

>  <m_score__min__rmsd>  (84) 
2.08008935714582

>  <meeko>  (84) 
{"free_energy": -8.48, "intermolecular_energy": -9.97, "internal_energy": -1.33, "cluster_size": 22, "cluster_id": 1, "rank_in_cluster": 8}

>  <energy>  (84) 
-6.08

>  <cluster_rmsd>  (84) 
0.13

>  <cluster>  (84) 
5

$$$$

     RDKit          3D

 50 53  0  0  0  0  0  0  0  0999 V2000
  139.4590   79.4840  219.8320 O   0  0  0  0  0  0  0  0  0  0  0  0
  140.6270   79.1510  220.1710 C   0  0  0  0  0  0  0  0  0  0  0  0
  141.5680   80.2290  220.4330 N   0  0  0  0  0  0  0  0  0  0  0  0
  141.0660   81.5340  220.2780 C   0  0  0  0  0  0  0  0  0  0  0  0
  140.2320   82.1770  221.2770 C   0  0  0  0  0  0  0  0  0  0  0  0
  140.1740   83.4760  221.1250 O   0  0  0  0  0  0  0  0  0  0  0  0
  139.4810   81.6900  222.3610 N   0  0  0  0  0  0  0  0  0  0  0  0
  138.0330   81.9230  222.4770 C   0  0  0  0  0  0  0  0  0  0  0  0
  137.6210   80.9800  223.5980 C   0  0  0  0  0  0  0  0  0  0  0  0
  138.7610   79.9420  223.6370 C   0  0  0  0  0  0  0  0  0  0  0  0
  139.9110   80.9700  223.4890 C   0  0  1  0  0  0  0  0  0  0  0  0
  141.2060   80.4300  223.7770 C   0  0  2  0  0  0  0  0  0  0  0  0
  142.4600   81.1710  223.6050 C   0  0  0  0  0  0  0  0  0  0  0  0
  143.5060   80.2190  223.0740 C   0  0  0  0  0  0  0  0  0  0  0  0
  142.8250   79.0140  222.7170 N   0  0  0  0  0  0  0  0  0  0  0  0
  141.4700   79.0750  223.1400 C   0  0  0  0  0  0  0  0  0  0  0  0
  141.0490   77.7700  220.3030 C   0  0  0  0  0  0  0  0  0  0  0  0
  140.1040   76.8540  220.7110 C   0  0  0  0  0  0  0  0  0  0  0  0
  140.5100   75.5420  220.8340 C   0  0  0  0  0  0  0  0  0  0  0  0
  141.8250   75.1520  220.5600 C   0  0  0  0  0  0  0  0  0  0  0  0
  142.2430   73.8470  220.6790 C   0  0  0  0  0  0  0  0  0  0  0  0
  143.5580   73.5630  220.3850 C   0  0  0  0  0  0  0  0  0  0  0  0
  144.0310   72.2840  220.4860 F   0  0  0  0  0  0  0  0  0  0  0  0
  144.4520   74.5370  219.9810 C   0  0  0  0  0  0  0  0  0  0  0  0
  144.0430   75.8480  219.8580 C   0  0  0  0  0  0  0  0  0  0  0  0
  142.7250   76.1190  220.1550 C   0  0  0  0  0  0  0  0  0  0  0  0
  142.3300   77.4020  220.0330 N   0  0  0  0  0  0  0  0  0  0  0  0
  142.4990   79.8900  220.7190 H   0  0  0  0  0  0  0  0  0  0  0  0
  141.9436   82.1846  220.1494 H   0  0  0  0  0  0  0  0  0  0  0  0
  140.3580   81.4037  219.4463 H   0  0  0  0  0  0  0  0  0  0  0  0
  137.8213   82.9691  222.7431 H   0  0  0  0  0  0  0  0  0  0  0  0
  137.4892   81.7425  221.5380 H   0  0  0  0  0  0  0  0  0  0  0  0
  137.5460   81.5170  224.5551 H   0  0  0  0  0  0  0  0  0  0  0  0
  136.6338   80.5242  223.4316 H   0  0  0  0  0  0  0  0  0  0  0  0
  138.8025   79.3902  224.5876 H   0  0  0  0  0  0  0  0  0  0  0  0
  138.7210   79.1211  222.9059 H   0  0  0  0  0  0  0  0  0  0  0  0
  140.1234   81.7494  224.2356 H   0  0  0  0  0  0  0  0  0  0  0  0
  141.0228   80.4433  224.8616 H   0  0  0  0  0  0  0  0  0  0  0  0
  142.3103   81.9945  222.8912 H   0  0  0  0  0  0  0  0  0  0  0  0
  142.7856   81.5925  224.5675 H   0  0  0  0  0  0  0  0  0  0  0  0
  143.9982   80.6517  222.1906 H   0  0  0  0  0  0  0  0  0  0  0  0
  144.2822   80.0247  223.8288 H   0  0  0  0  0  0  0  0  0  0  0  0
  143.0110   78.6460  221.7780 H   0  0  0  0  0  0  0  0  0  0  0  0
  140.8073   78.9409  222.2724 H   0  0  0  0  0  0  0  0  0  0  0  0
  141.2752   78.2779  223.8725 H   0  0  0  0  0  0  0  0  0  0  0  0
  139.0693   77.1566  220.9294 H   0  0  0  0  0  0  0  0  0  0  0  0
  139.7815   74.7831  221.1556 H   0  0  0  0  0  0  0  0  0  0  0  0
  141.5491   73.0556  220.9988 H   0  0  0  0  0  0  0  0  0  0  0  0
  145.4940   74.2650  219.7567 H   0  0  0  0  0  0  0  0  0  0  0  0
  144.7360   76.6400  219.5379 H   0  0  0  0  0  0  0  0  0  0  0  0
  1  2  2  0
  2  3  1  0
  3  4  1  0
  4  5  1  0
  5  6  2  0
  5  7  1  0
  7  8  1  0
  8  9  1  0
  9 10  1  0
 10 11  1  0
 11 12  1  0
 12 13  1  0
 13 14  1  0
 14 15  1  0
 15 16  1  0
  2 17  1  0
 17 18  2  0
 18 19  1  0
 19 20  2  0
 20 21  1  0
 21 22  2  0
 22 23  1  0
 22 24  1  0
 24 25  2  0
 25 26  1  0
 26 27  2  0
 11  7  1  0
 16 12  1  0
 27 17  1  0
 26 20  1  0
  3 28  1  0
  4 29  1  0
  4 30  1  0
  8 31  1  0
  8 32  1  0
  9 33  1  0
  9 34  1  0
 10 35  1  0
 10 36  1  0
 11 37  1  1
 12 38  1  1
 13 39  1  0
 13 40  1  0
 14 41  1  0
 14 42  1  0
 15 43  1  0
 16 44  1  0
 16 45  1  0
 18 46  1  0
 19 47  1  0
 21 48  1  0
 24 49  1  0
 25 50  1  0
M  END
>  <smiles>  (85) 
O=C(NCC(=O)N1CCCC1C1CCNC1)c1ccc2cc(F)ccc2n1

>  <score_type>  (85) 
oracle

>  <origin>  (85) 
autodockgpu

>  <m_score__min__energy>  (85) 
-8.6099999999999994

>  <m_primary>  (85) 
energy

>  <rmsd>  (85) 
8.192475456476322

>  <m_score__min__rmsd>  (85) 
8.192475456476322

>  <meeko>  (85) 
{"free_energy": -6.03, "intermolecular_energy": -7.52, "internal_energy": -3.34, "cluster_size": 21, "cluster_id": 5, "rank_in_cluster": 10}

>  <energy>  (85) 
-6.07

>  <cluster_rmsd>  (85) 
0.09

>  <cluster>  (85) 
5

$$$$

     RDKit          3D

 50 53  0  0  0  0  0  0  0  0999 V2000
  141.3200   72.1890  221.5460 O   0  0  0  0  0  0  0  0  0  0  0  0
  140.3950   72.3170  222.3930 C   0  0  0  0  0  0  0  0  0  0  0  0
  139.4560   73.4080  222.1790 N   0  0  0  0  0  0  0  0  0  0  0  0
  139.6870   74.2040  221.0430 C   0  0  0  0  0  0  0  0  0  0  0  0
  140.8820   75.0110  220.8790 C   0  0  0  0  0  0  0  0  0  0  0  0
  141.4490   75.3100  222.0210 O   0  0  0  0  0  0  0  0  0  0  0  0
  141.5450   75.5300  219.7530 N   0  0  0  0  0  0  0  0  0  0  0  0
  141.0360   76.6960  219.0150 C   0  0  0  0  0  0  0  0  0  0  0  0
  142.2020   77.0650  218.1090 C   0  0  0  0  0  0  0  0  0  0  0  0
  143.4170   76.4120  218.7970 C   0  0  0  0  0  0  0  0  0  0  0  0
  142.7110   75.0710  219.1180 C   0  0  1  0  0  0  0  0  0  0  0  0
  143.6090   74.0290  219.5190 C   0  0  2  0  0  0  0  0  0  0  0  0
  144.3680   74.0400  220.7730 C   0  0  0  0  0  0  0  0  0  0  0  0
  145.7420   73.4730  220.5030 C   0  0  0  0  0  0  0  0  0  0  0  0
  145.8700   73.3580  219.0840 N   0  0  0  0  0  0  0  0  0  0  0  0
  144.6280   73.6440  218.4570 C   0  0  0  0  0  0  0  0  0  0  0  0
  140.2410   71.4400  223.5370 C   0  0  0  0  0  0  0  0  0  0  0  0
  139.6190   70.2280  223.3270 C   0  0  0  0  0  0  0  0  0  0  0  0
  139.4760   69.3960  224.4190 C   0  0  0  0  0  0  0  0  0  0  0  0
  139.9390   69.7630  225.6860 C   0  0  0  0  0  0  0  0  0  0  0  0
  139.8030   68.9440  226.7830 C   0  0  0  0  0  0  0  0  0  0  0  0
  140.2920   69.3940  227.9870 C   0  0  0  0  0  0  0  0  0  0  0  0
  140.1850   68.6240  229.1120 F   0  0  0  0  0  0  0  0  0  0  0  0
  140.9060   70.6260  228.1230 C   0  0  0  0  0  0  0  0  0  0  0  0
  141.0480   71.4550  227.0310 C   0  0  0  0  0  0  0  0  0  0  0  0
  140.5540   70.9920  225.8300 C   0  0  0  0  0  0  0  0  0  0  0  0
  140.6950   71.8060  224.7650 N   0  0  0  0  0  0  0  0  0  0  0  0
  138.7160   73.4480  222.8970 H   0  0  0  0  0  0  0  0  0  0  0  0
  139.6614   73.5199  220.1820 H   0  0  0  0  0  0  0  0  0  0  0  0
  138.9104   74.9756  221.1504 H   0  0  0  0  0  0  0  0  0  0  0  0
  140.1455   76.4325  218.4254 H   0  0  0  0  0  0  0  0  0  0  0  0
  140.7203   77.5200  219.6717 H   0  0  0  0  0  0  0  0  0  0  0  0
  142.0576   76.6575  217.0975 H   0  0  0  0  0  0  0  0  0  0  0  0
  142.3164   78.1515  217.9810 H   0  0  0  0  0  0  0  0  0  0  0  0
  144.2754   76.2902  218.1200 H   0  0  0  0  0  0  0  0  0  0  0  0
  143.8730   76.9557  219.6375 H   0  0  0  0  0  0  0  0  0  0  0  0
  142.3383   74.3844  218.3436 H   0  0  0  0  0  0  0  0  0  0  0  0
  142.7857   73.3220  219.6988 H   0  0  0  0  0  0  0  0  0  0  0  0
  144.4580   75.0717  221.1439 H   0  0  0  0  0  0  0  0  0  0  0  0
  143.8518   73.4349  221.5329 H   0  0  0  0  0  0  0  0  0  0  0  0
  146.5148   74.1480  220.8994 H   0  0  0  0  0  0  0  0  0  0  0  0
  145.8684   72.4954  220.9911 H   0  0  0  0  0  0  0  0  0  0  0  0
  146.7150   73.7630  218.6670 H   0  0  0  0  0  0  0  0  0  0  0  0
  144.7558   74.4773  217.7504 H   0  0  0  0  0  0  0  0  0  0  0  0
  144.2760   72.7560  217.9115 H   0  0  0  0  0  0  0  0  0  0  0  0
  139.2523   69.9363  222.3318 H   0  0  0  0  0  0  0  0  0  0  0  0
  138.9856   68.4200  224.2891 H   0  0  0  0  0  0  0  0  0  0  0  0
  139.3183   67.9601  226.6997 H   0  0  0  0  0  0  0  0  0  0  0  0
  141.2823   70.9453  229.1061 H   0  0  0  0  0  0  0  0  0  0  0  0
  141.5324   72.4391  227.1138 H   0  0  0  0  0  0  0  0  0  0  0  0
  1  2  2  0
  2  3  1  0
  3  4  1  0
  4  5  1  0
  5  6  2  0
  5  7  1  0
  7  8  1  0
  8  9  1  0
  9 10  1  0
 10 11  1  0
 11 12  1  0
 12 13  1  0
 13 14  1  0
 14 15  1  0
 15 16  1  0
  2 17  1  0
 17 18  2  0
 18 19  1  0
 19 20  2  0
 20 21  1  0
 21 22  2  0
 22 23  1  0
 22 24  1  0
 24 25  2  0
 25 26  1  0
 26 27  2  0
 11  7  1  0
 16 12  1  0
 27 17  1  0
 26 20  1  0
  3 28  1  0
  4 29  1  0
  4 30  1  0
  8 31  1  0
  8 32  1  0
  9 33  1  0
  9 34  1  0
 10 35  1  0
 10 36  1  0
 11 37  1  6
 12 38  1  1
 13 39  1  0
 13 40  1  0
 14 41  1  0
 14 42  1  0
 15 43  1  0
 16 44  1  0
 16 45  1  0
 18 46  1  0
 19 47  1  0
 21 48  1  0
 24 49  1  0
 25 50  1  0
M  END
>  <smiles>  (86) 
O=C(NCC(=O)N1CCCC1C1CCNC1)c1ccc2cc(F)ccc2n1

>  <score_type>  (86) 
oracle

>  <origin>  (86) 
autodockgpu

>  <m_score__min__energy>  (86) 
-8.6099999999999994

>  <m_primary>  (86) 
energy

>  <rmsd>  (86) 
1.985476418423252

>  <m_score__min__rmsd>  (86) 
1.985476418423252

>  <meeko>  (86) 
{"free_energy": -8.51, "intermolecular_energy": -10.0, "internal_energy": -1.31, "cluster_size": 22, "cluster_id": 1, "rank_in_cluster": 4}

>  <energy>  (86) 
-6.05

>  <cluster_rmsd>  (86) 
0.15

>  <cluster>  (86) 
5

$$$$

     RDKit          3D

 50 53  0  0  0  0  0  0  0  0999 V2000
  140.8130   81.5090  218.5300 O   0  0  0  0  0  0  0  0  0  0  0  0
  141.4340   80.6850  219.2540 C   0  0  0  0  0  0  0  0  0  0  0  0
  141.6130   81.0450  220.6530 N   0  0  0  0  0  0  0  0  0  0  0  0
  141.0680   82.2810  221.0440 C   0  0  0  0  0  0  0  0  0  0  0  0
  139.8880   82.3900  221.8820 C   0  0  0  0  0  0  0  0  0  0  0  0
  139.4060   83.6070  221.9180 O   0  0  0  0  0  0  0  0  0  0  0  0
  139.1670   81.4610  222.6520 N   0  0  0  0  0  0  0  0  0  0  0  0
  137.6970   81.4360  222.6720 C   0  0  0  0  0  0  0  0  0  0  0  0
  137.3840   80.1180  223.3650 C   0  0  0  0  0  0  0  0  0  0  0  0
  138.6800   79.3000  223.1910 C   0  0  0  0  0  0  0  0  0  0  0  0
  139.6450   80.4660  223.5210 C   0  0  1  0  0  0  0  0  0  0  0  0
  140.9930   80.0460  223.7620 C   0  0  2  0  0  0  0  0  0  0  0  0
  142.1450   80.9530  223.7630 C   0  0  0  0  0  0  0  0  0  0  0  0
  143.3120   80.2400  223.1190 C   0  0  0  0  0  0  0  0  0  0  0  0
  142.7940   79.0410  222.5390 N   0  0  0  0  0  0  0  0  0  0  0  0
  141.4360   78.8620  222.9160 C   0  0  0  0  0  0  0  0  0  0  0  0
  141.9590   79.4290  218.7550 C   0  0  0  0  0  0  0  0  0  0  0  0
  142.2040   79.3380  217.4020 C   0  0  0  0  0  0  0  0  0  0  0  0
  142.7040   78.1410  216.9320 C   0  0  0  0  0  0  0  0  0  0  0  0
  142.9530   77.0630  217.7870 C   0  0  0  0  0  0  0  0  0  0  0  0
  143.4510   75.8650  217.3310 C   0  0  0  0  0  0  0  0  0  0  0  0
  143.6630   74.8640  218.2520 C   0  0  0  0  0  0  0  0  0  0  0  0
  144.1570   73.6510  217.8580 F   0  0  0  0  0  0  0  0  0  0  0  0
  143.3940   75.0280  219.5980 C   0  0  0  0  0  0  0  0  0  0  0  0
  142.8930   76.2250  220.0660 C   0  0  0  0  0  0  0  0  0  0  0  0
  142.6860   77.2190  219.1330 C   0  0  0  0  0  0  0  0  0  0  0  0
  142.1980   78.3870  219.5950 N   0  0  0  0  0  0  0  0  0  0  0  0
  142.1140   80.3230  221.1930 H   0  0  0  0  0  0  0  0  0  0  0  0
  141.8701   82.8117  221.5778 H   0  0  0  0  0  0  0  0  0  0  0  0
  140.6970   82.6735  220.0857 H   0  0  0  0  0  0  0  0  0  0  0  0
  137.2953   82.2869  223.2417 H   0  0  0  0  0  0  0  0  0  0  0  0
  137.2494   81.5149  221.6703 H   0  0  0  0  0  0  0  0  0  0  0  0
  137.1604   80.2777  224.4301 H   0  0  0  0  0  0  0  0  0  0  0  0
  136.5008   79.6138  222.9457 H   0  0  0  0  0  0  0  0  0  0  0  0
  138.7575   78.4676  223.9059 H   0  0  0  0  0  0  0  0  0  0  0  0
  138.8244   78.7823  222.2312 H   0  0  0  0  0  0  0  0  0  0  0  0
  139.6776   80.9648  224.5009 H   0  0  0  0  0  0  0  0  0  0  0  0
  140.7934   79.8498  224.8258 H   0  0  0  0  0  0  0  0  0  0  0  0
  141.9034   81.8616  223.1919 H   0  0  0  0  0  0  0  0  0  0  0  0
  142.3993   81.2410  224.7937 H   0  0  0  0  0  0  0  0  0  0  0  0
  143.7604   80.8744  222.3402 H   0  0  0  0  0  0  0  0  0  0  0  0
  144.0940   80.0147  223.8590 H   0  0  0  0  0  0  0  0  0  0  0  0
  143.0390   78.8640  221.5590 H   0  0  0  0  0  0  0  0  0  0  0  0
  140.8089   78.7986  222.0145 H   0  0  0  0  0  0  0  0  0  0  0  0
  141.3322   77.9332  223.4961 H   0  0  0  0  0  0  0  0  0  0  0  0
  142.0093   80.1834  216.7257 H   0  0  0  0  0  0  0  0  0  0  0  0
  142.9120   78.0320  215.8574 H   0  0  0  0  0  0  0  0  0  0  0  0
  143.6728   75.7115  216.2646 H   0  0  0  0  0  0  0  0  0  0  0  0
  143.5802   74.2007  220.2986 H   0  0  0  0  0  0  0  0  0  0  0  0
  142.6694   76.3791  221.1319 H   0  0  0  0  0  0  0  0  0  0  0  0
  1  2  2  0
  2  3  1  0
  3  4  1  0
  4  5  1  0
  5  6  2  0
  5  7  1  0
  7  8  1  0
  8  9  1  0
  9 10  1  0
 10 11  1  0
 11 12  1  0
 12 13  1  0
 13 14  1  0
 14 15  1  0
 15 16  1  0
  2 17  1  0
 17 18  2  0
 18 19  1  0
 19 20  2  0
 20 21  1  0
 21 22  2  0
 22 23  1  0
 22 24  1  0
 24 25  2  0
 25 26  1  0
 26 27  2  0
 11  7  1  0
 16 12  1  0
 27 17  1  0
 26 20  1  0
  3 28  1  0
  4 29  1  0
  4 30  1  0
  8 31  1  0
  8 32  1  0
  9 33  1  0
  9 34  1  0
 10 35  1  0
 10 36  1  0
 11 37  1  1
 12 38  1  1
 13 39  1  0
 13 40  1  0
 14 41  1  0
 14 42  1  0
 15 43  1  0
 16 44  1  0
 16 45  1  0
 18 46  1  0
 19 47  1  0
 21 48  1  0
 24 49  1  0
 25 50  1  0
M  END
>  <smiles>  (87) 
O=C(NCC(=O)N1CCCC1C1CCNC1)c1ccc2cc(F)ccc2n1

>  <score_type>  (87) 
oracle

>  <origin>  (87) 
autodockgpu

>  <m_score__min__energy>  (87) 
-8.6099999999999994

>  <m_primary>  (87) 
energy

>  <rmsd>  (87) 
9.57781436210895

>  <m_score__min__rmsd>  (87) 
9.57781436210895

>  <meeko>  (87) 
{"free_energy": -5.96, "intermolecular_energy": -7.46, "internal_energy": -3.22, "cluster_size": 21, "cluster_id": 5, "rank_in_cluster": 13}

>  <energy>  (87) 
-6.05

>  <cluster_rmsd>  (87) 
0.1

>  <cluster>  (87) 
5

$$$$

     RDKit          3D

 50 53  0  0  0  0  0  0  0  0999 V2000
  139.0250   70.9390  221.6000 O   0  0  0  0  0  0  0  0  0  0  0  0
  139.8140   71.1290  222.5650 C   0  0  0  0  0  0  0  0  0  0  0  0
  140.7690   72.2180  222.4280 N   0  0  0  0  0  0  0  0  0  0  0  0
  140.7060   72.9430  221.2250 C   0  0  0  0  0  0  0  0  0  0  0  0
  140.9420   74.3740  221.1560 C   0  0  0  0  0  0  0  0  0  0  0  0
  140.4330   75.0190  222.1760 O   0  0  0  0  0  0  0  0  0  0  0  0
  141.6010   75.1960  220.2250 N   0  0  0  0  0  0  0  0  0  0  0  0
  141.0390   76.4810  219.7830 C   0  0  0  0  0  0  0  0  0  0  0  0
  142.2040   77.1310  219.0490 C   0  0  0  0  0  0  0  0  0  0  0  0
  143.4390   76.3920  219.6020 C   0  0  0  0  0  0  0  0  0  0  0  0
  142.8110   74.9770  219.5450 C   0  0  1  0  0  0  0  0  0  0  0  0
  143.7620   73.9180  219.7100 C   0  0  2  0  0  0  0  0  0  0  0  0
  144.7080   73.8340  220.8270 C   0  0  0  0  0  0  0  0  0  0  0  0
  146.0240   73.3120  220.2980 C   0  0  0  0  0  0  0  0  0  0  0  0
  145.9280   73.3200  218.8720 N   0  0  0  0  0  0  0  0  0  0  0  0
  144.6020   73.6400  218.4730 C   0  0  0  0  0  0  0  0  0  0  0  0
  139.8000   70.3220  223.7700 C   0  0  0  0  0  0  0  0  0  0  0  0
  139.1540   69.1070  223.7120 C   0  0  0  0  0  0  0  0  0  0  0  0
  139.1450   68.3430  224.8600 C   0  0  0  0  0  0  0  0  0  0  0  0
  139.7620   68.7790  226.0370 C   0  0  0  0  0  0  0  0  0  0  0  0
  139.7600   68.0280  227.1890 C   0  0  0  0  0  0  0  0  0  0  0  0
  140.3950   68.5440  228.2950 C   0  0  0  0  0  0  0  0  0  0  0  0
  140.4250   67.8430  229.4680 F   0  0  0  0  0  0  0  0  0  0  0  0
  141.0240   69.7750  228.2800 C   0  0  0  0  0  0  0  0  0  0  0  0
  141.0320   70.5370  227.1310 C   0  0  0  0  0  0  0  0  0  0  0  0
  140.3930   70.0080  226.0290 C   0  0  0  0  0  0  0  0  0  0  0  0
  140.4040   70.7560  224.9080 N   0  0  0  0  0  0  0  0  0  0  0  0
  141.3740   72.3290  223.2560 H   0  0  0  0  0  0  0  0  0  0  0  0
  141.4432   72.4805  220.5523 H   0  0  0  0  0  0  0  0  0  0  0  0
  139.6342   72.8826  220.9850 H   0  0  0  0  0  0  0  0  0  0  0  0
  140.1835   76.3272  219.1089 H   0  0  0  0  0  0  0  0  0  0  0  0
  140.6535   77.0931  220.6117 H   0  0  0  0  0  0  0  0  0  0  0  0
  142.1135   76.9859  217.9624 H   0  0  0  0  0  0  0  0  0  0  0  0
  142.2526   78.2191  219.2032 H   0  0  0  0  0  0  0  0  0  0  0  0
  144.3217   76.4928  218.9534 H   0  0  0  0  0  0  0  0  0  0  0  0
  143.8363   76.7288  220.5709 H   0  0  0  0  0  0  0  0  0  0  0  0
  142.5044   74.4902  218.6074 H   0  0  0  0  0  0  0  0  0  0  0  0
  142.9785   73.1857  219.9546 H   0  0  0  0  0  0  0  0  0  0  0  0
  144.8536   74.8318  221.2666 H   0  0  0  0  0  0  0  0  0  0  0  0
  144.3179   73.1593  221.6033 H   0  0  0  0  0  0  0  0  0  0  0  0
  146.8486   73.9622  220.6257 H   0  0  0  0  0  0  0  0  0  0  0  0
  146.2266   72.2984  220.6744 H   0  0  0  0  0  0  0  0  0  0  0  0
  146.6960   73.7720  218.3650 H   0  0  0  0  0  0  0  0  0  0  0  0
  144.6164   74.5321  217.8297 H   0  0  0  0  0  0  0  0  0  0  0  0
  144.1700   72.7967  217.9143 H   0  0  0  0  0  0  0  0  0  0  0  0
  138.6659   68.7607  222.7891 H   0  0  0  0  0  0  0  0  0  0  0  0
  138.6398   67.3659  224.8498 H   0  0  0  0  0  0  0  0  0  0  0  0
  139.2662   67.0457  227.2250 H   0  0  0  0  0  0  0  0  0  0  0  0
  141.5200   70.1480  229.1882 H   0  0  0  0  0  0  0  0  0  0  0  0
  141.5245   71.5199  227.0948 H   0  0  0  0  0  0  0  0  0  0  0  0
  1  2  2  0
  2  3  1  0
  3  4  1  0
  4  5  1  0
  5  6  2  0
  5  7  1  0
  7  8  1  0
  8  9  1  0
  9 10  1  0
 10 11  1  0
 11 12  1  0
 12 13  1  0
 13 14  1  0
 14 15  1  0
 15 16  1  0
  2 17  1  0
 17 18  2  0
 18 19  1  0
 19 20  2  0
 20 21  1  0
 21 22  2  0
 22 23  1  0
 22 24  1  0
 24 25  2  0
 25 26  1  0
 26 27  2  0
 11  7  1  0
 16 12  1  0
 27 17  1  0
 26 20  1  0
  3 28  1  0
  4 29  1  0
  4 30  1  0
  8 31  1  0
  8 32  1  0
  9 33  1  0
  9 34  1  0
 10 35  1  0
 10 36  1  0
 11 37  1  6
 12 38  1  1
 13 39  1  0
 13 40  1  0
 14 41  1  0
 14 42  1  0
 15 43  1  0
 16 44  1  0
 16 45  1  0
 18 46  1  0
 19 47  1  0
 21 48  1  0
 24 49  1  0
 25 50  1  0
M  END
>  <smiles>  (88) 
O=C(NCC(=O)N1CCCC1C1CCNC1)c1ccc2cc(F)ccc2n1

>  <score_type>  (88) 
oracle

>  <origin>  (88) 
autodockgpu

>  <m_score__min__energy>  (88) 
-8.6099999999999994

>  <m_primary>  (88) 
energy

>  <rmsd>  (88) 
2.1688424727960833

>  <m_score__min__rmsd>  (88) 
2.1688424727960833

>  <meeko>  (88) 
{"free_energy": -8.32, "intermolecular_energy": -9.81, "internal_energy": -1.37, "cluster_size": 22, "cluster_id": 1, "rank_in_cluster": 15}

>  <energy>  (88) 
-6.04

>  <cluster_rmsd>  (88) 
0.17

>  <cluster>  (88) 
5

$$$$

     RDKit          3D

 50 53  0  0  0  0  0  0  0  0999 V2000
  141.1300   71.8300  221.4060 O   0  0  0  0  0  0  0  0  0  0  0  0
  140.3560   72.0990  222.3640 C   0  0  0  0  0  0  0  0  0  0  0  0
  139.5920   73.3340  222.2650 N   0  0  0  0  0  0  0  0  0  0  0  0
  139.8040   74.0950  221.1020 C   0  0  0  0  0  0  0  0  0  0  0  0
  140.9300   74.9990  220.9480 C   0  0  0  0  0  0  0  0  0  0  0  0
  141.4320   75.3790  222.0950 O   0  0  0  0  0  0  0  0  0  0  0  0
  141.5820   75.5390  219.8250 N   0  0  0  0  0  0  0  0  0  0  0  0
  141.0650   76.7200  219.1160 C   0  0  0  0  0  0  0  0  0  0  0  0
  142.2220   77.1070  218.2060 C   0  0  0  0  0  0  0  0  0  0  0  0
  143.4440   76.4410  218.8680 C   0  0  0  0  0  0  0  0  0  0  0  0
  142.7420   75.0930  219.1700 C   0  0  1  0  0  0  0  0  0  0  0  0
  143.6440   74.0440  219.5410 C   0  0  2  0  0  0  0  0  0  0  0  0
  144.4290   74.0390  220.7800 C   0  0  0  0  0  0  0  0  0  0  0  0
  145.7950   73.4700  220.4750 C   0  0  0  0  0  0  0  0  0  0  0  0
  145.8920   73.3690  219.0520 N   0  0  0  0  0  0  0  0  0  0  0  0
  144.6380   73.6660  218.4540 C   0  0  0  0  0  0  0  0  0  0  0  0
  140.2080   71.2440  223.5260 C   0  0  0  0  0  0  0  0  0  0  0  0
  139.5670   70.0380  223.3470 C   0  0  0  0  0  0  0  0  0  0  0  0
  139.4290   69.2280  224.4550 C   0  0  0  0  0  0  0  0  0  0  0  0
  139.9160   69.6110  225.7090 C   0  0  0  0  0  0  0  0  0  0  0  0
  139.7850   68.8120  226.8220 C   0  0  0  0  0  0  0  0  0  0  0  0
  140.2990   69.2780  228.0110 C   0  0  0  0  0  0  0  0  0  0  0  0
  140.1980   68.5290  229.1510 F   0  0  0  0  0  0  0  0  0  0  0  0
  140.9310   70.5030  228.1160 C   0  0  0  0  0  0  0  0  0  0  0  0
  141.0670   71.3110  227.0070 C   0  0  0  0  0  0  0  0  0  0  0  0
  140.5490   70.8330  225.8220 C   0  0  0  0  0  0  0  0  0  0  0  0
  140.6860   71.6260  224.7400 N   0  0  0  0  0  0  0  0  0  0  0  0
  138.9690   73.4870  223.0730 H   0  0  0  0  0  0  0  0  0  0  0  0
  139.8786   73.3729  220.2755 H   0  0  0  0  0  0  0  0  0  0  0  0
  138.9584   74.7975  221.1388 H   0  0  0  0  0  0  0  0  0  0  0  0
  140.1685   76.4684  218.5303 H   0  0  0  0  0  0  0  0  0  0  0  0
  140.7557   77.5305  219.7923 H   0  0  0  0  0  0  0  0  0  0  0  0
  142.0673   76.7197  217.1881 H   0  0  0  0  0  0  0  0  0  0  0  0
  142.3351   78.1959  218.0989 H   0  0  0  0  0  0  0  0  0  0  0  0
  144.2952   76.3331  218.1797 H   0  0  0  0  0  0  0  0  0  0  0  0
  143.9084   76.9682  219.7144 H   0  0  0  0  0  0  0  0  0  0  0  0
  142.3623   74.4208  218.3865 H   0  0  0  0  0  0  0  0  0  0  0  0
  142.8222   73.3379  219.7308 H   0  0  0  0  0  0  0  0  0  0  0  0
  144.5305   75.0663  221.1599 H   0  0  0  0  0  0  0  0  0  0  0  0
  143.9264   73.4279  221.5442 H   0  0  0  0  0  0  0  0  0  0  0  0
  146.5786   74.1383  220.8615 H   0  0  0  0  0  0  0  0  0  0  0  0
  145.9284   72.4871  220.9505 H   0  0  0  0  0  0  0  0  0  0  0  0
  146.7300   73.7760  218.6220 H   0  0  0  0  0  0  0  0  0  0  0  0
  144.7541   74.5058  217.7531 H   0  0  0  0  0  0  0  0  0  0  0  0
  144.2710   72.7850  217.9070 H   0  0  0  0  0  0  0  0  0  0  0  0
  139.1817   69.7339  222.3626 H   0  0  0  0  0  0  0  0  0  0  0  0
  138.9234   68.2568  224.3497 H   0  0  0  0  0  0  0  0  0  0  0  0
  139.2861   67.8334  226.7634 H   0  0  0  0  0  0  0  0  0  0  0  0
  141.3267   70.8342  229.0874 H   0  0  0  0  0  0  0  0  0  0  0  0
  141.5650   72.2901  227.0649 H   0  0  0  0  0  0  0  0  0  0  0  0
  1  2  2  0
  2  3  1  0
  3  4  1  0
  4  5  1  0
  5  6  2  0
  5  7  1  0
  7  8  1  0
  8  9  1  0
  9 10  1  0
 10 11  1  0
 11 12  1  0
 12 13  1  0
 13 14  1  0
 14 15  1  0
 15 16  1  0
  2 17  1  0
 17 18  2  0
 18 19  1  0
 19 20  2  0
 20 21  1  0
 21 22  2  0
 22 23  1  0
 22 24  1  0
 24 25  2  0
 25 26  1  0
 26 27  2  0
 11  7  1  0
 16 12  1  0
 27 17  1  0
 26 20  1  0
  3 28  1  0
  4 29  1  0
  4 30  1  0
  8 31  1  0
  8 32  1  0
  9 33  1  0
  9 34  1  0
 10 35  1  0
 10 36  1  0
 11 37  1  6
 12 38  1  1
 13 39  1  0
 13 40  1  0
 14 41  1  0
 14 42  1  0
 15 43  1  0
 16 44  1  0
 16 45  1  0
 18 46  1  0
 19 47  1  0
 21 48  1  0
 24 49  1  0
 25 50  1  0
M  END
>  <smiles>  (89) 
O=C(NCC(=O)N1CCCC1C1CCNC1)c1ccc2cc(F)ccc2n1

>  <score_type>  (89) 
oracle

>  <origin>  (89) 
autodockgpu

>  <m_score__min__energy>  (89) 
-8.6099999999999994

>  <m_primary>  (89) 
energy

>  <rmsd>  (89) 
1.9719272213244432

>  <m_score__min__rmsd>  (89) 
1.9719272213244432

>  <meeko>  (89) 
{"free_energy": -8.49, "intermolecular_energy": -9.98, "internal_energy": -1.32, "cluster_size": 22, "cluster_id": 1, "rank_in_cluster": 6}

>  <energy>  (89) 
-6.03

>  <cluster_rmsd>  (89) 
0.17

>  <cluster>  (89) 
5

$$$$

     RDKit          3D

 50 53  0  0  0  0  0  0  0  0999 V2000
  140.7390   76.9730  218.8570 O   0  0  0  0  0  0  0  0  0  0  0  0
  141.9940   76.8680  218.8970 C   0  0  0  0  0  0  0  0  0  0  0  0
  142.7550   78.1070  218.9590 N   0  0  0  0  0  0  0  0  0  0  0  0
  141.9990   79.2920  218.9690 C   0  0  0  0  0  0  0  0  0  0  0  0
  141.5110   79.9030  220.1920 C   0  0  0  0  0  0  0  0  0  0  0  0
  140.8260   80.9970  219.9720 O   0  0  0  0  0  0  0  0  0  0  0  0
  141.6260   79.5580  221.5500 N   0  0  0  0  0  0  0  0  0  0  0  0
  142.4580   80.3320  222.4850 C   0  0  0  0  0  0  0  0  0  0  0  0
  142.0370   79.7940  223.8460 C   0  0  0  0  0  0  0  0  0  0  0  0
  140.6560   79.1640  223.5750 C   0  0  0  0  0  0  0  0  0  0  0  0
  141.0560   78.4780  222.2450 C   0  0  1  0  0  0  0  0  0  0  0  0
  140.1050   77.5100  221.7880 C   0  0  2  0  0  0  0  0  0  0  0  0
  138.6870   77.5140  222.1640 C   0  0  0  0  0  0  0  0  0  0  0  0
  138.2440   76.0840  222.3630 C   0  0  0  0  0  0  0  0  0  0  0  0
  139.4250   75.2780  222.3420 N   0  0  0  0  0  0  0  0  0  0  0  0
  140.5480   76.0670  221.9750 C   0  0  0  0  0  0  0  0  0  0  0  0
  142.6830   75.5920  218.8830 C   0  0  0  0  0  0  0  0  0  0  0  0
  142.1900   74.6140  218.0470 C   0  0  0  0  0  0  0  0  0  0  0  0
  142.8500   73.4030  218.0370 C   0  0  0  0  0  0  0  0  0  0  0  0
  143.9710   73.1710  218.8400 C   0  0  0  0  0  0  0  0  0  0  0  0
  144.6380   71.9680  218.8390 C   0  0  0  0  0  0  0  0  0  0  0  0
  145.7310   71.8380  219.6650 C   0  0  0  0  0  0  0  0  0  0  0  0
  146.4330   70.6660  219.7070 F   0  0  0  0  0  0  0  0  0  0  0  0
  146.1700   72.8660  220.4790 C   0  0  0  0  0  0  0  0  0  0  0  0
  145.5090   74.0760  220.4870 C   0  0  0  0  0  0  0  0  0  0  0  0
  144.4150   74.1930  219.6560 C   0  0  0  0  0  0  0  0  0  0  0  0
  143.7730   75.3780  219.6670 N   0  0  0  0  0  0  0  0  0  0  0  0
  143.7740   77.9510  219.0040 H   0  0  0  0  0  0  0  0  0  0  0  0
  142.6209   80.0536  218.4758 H   0  0  0  0  0  0  0  0  0  0  0  0
  141.0622   78.9620  218.4963 H   0  0  0  0  0  0  0  0  0  0  0  0
  143.5280   80.1529  222.3031 H   0  0  0  0  0  0  0  0  0  0  0  0
  142.3215   81.4192  222.3880 H   0  0  0  0  0  0  0  0  0  0  0  0
  142.7497   79.0379  224.2071 H   0  0  0  0  0  0  0  0  0  0  0  0
  142.0069   80.5723  224.6228 H   0  0  0  0  0  0  0  0  0  0  0  0
  140.3561   78.4451  224.3516 H   0  0  0  0  0  0  0  0  0  0  0  0
  139.7891   79.8407  223.5522 H   0  0  0  0  0  0  0  0  0  0  0  0
  141.8185   77.6879  222.1789 H   0  0  0  0  0  0  0  0  0  0  0  0
  140.1214   77.9065  220.7621 H   0  0  0  0  0  0  0  0  0  0  0  0
  138.5517   78.0785  223.0984 H   0  0  0  0  0  0  0  0  0  0  0  0
  138.0872   77.9896  221.3740 H   0  0  0  0  0  0  0  0  0  0  0  0
  137.7305   75.9779  223.3300 H   0  0  0  0  0  0  0  0  0  0  0  0
  137.5419   75.7753  221.5745 H   0  0  0  0  0  0  0  0  0  0  0  0
  139.5420   74.6200  223.1200 H   0  0  0  0  0  0  0  0  0  0  0  0
  141.3089   76.0154  222.7677 H   0  0  0  0  0  0  0  0  0  0  0  0
  140.9760   75.6868  221.0357 H   0  0  0  0  0  0  0  0  0  0  0  0
  141.3077   74.7915  217.4145 H   0  0  0  0  0  0  0  0  0  0  0  0
  142.4853   72.5992  217.3806 H   0  0  0  0  0  0  0  0  0  0  0  0
  144.3083   71.1366  218.1986 H   0  0  0  0  0  0  0  0  0  0  0  0
  147.0498   72.7179  221.1225 H   0  0  0  0  0  0  0  0  0  0  0  0
  145.8388   74.9084  221.1260 H   0  0  0  0  0  0  0  0  0  0  0  0
  1  2  2  0
  2  3  1  0
  3  4  1  0
  4  5  1  0
  5  6  2  0
  5  7  1  0
  7  8  1  0
  8  9  1  0
  9 10  1  0
 10 11  1  0
 11 12  1  0
 12 13  1  0
 13 14  1  0
 14 15  1  0
 15 16  1  0
  2 17  1  0
 17 18  2  0
 18 19  1  0
 19 20  2  0
 20 21  1  0
 21 22  2  0
 22 23  1  0
 22 24  1  0
 24 25  2  0
 25 26  1  0
 26 27  2  0
 11  7  1  0
 16 12  1  0
 27 17  1  0
 26 20  1  0
  3 28  1  0
  4 29  1  0
  4 30  1  0
  8 31  1  0
  8 32  1  0
  9 33  1  0
  9 34  1  0
 10 35  1  0
 10 36  1  0
 11 37  1  1
 12 38  1  6
 13 39  1  0
 13 40  1  0
 14 41  1  0
 14 42  1  0
 15 43  1  0
 16 44  1  0
 16 45  1  0
 18 46  1  0
 19 47  1  0
 21 48  1  0
 24 49  1  0
 25 50  1  0
M  END
>  <smiles>  (90) 
O=C(NCC(=O)N1CCCC1C1CCNC1)c1ccc2cc(F)ccc2n1

>  <score_type>  (90) 
oracle

>  <origin>  (90) 
autodockgpu

>  <m_score__min__energy>  (90) 
-8.6099999999999994

>  <m_primary>  (90) 
energy

>  <rmsd>  (90) 
7.724351633596656

>  <m_score__min__rmsd>  (90) 
7.724351633596656

>  <meeko>  (90) 
{"free_energy": -6.98, "intermolecular_energy": -8.47, "internal_energy": -1.85, "cluster_size": 1, "cluster_id": 4, "rank_in_cluster": 1}

>  <energy>  (90) 
-6.03

>  <cluster_rmsd>  (90) 
0.13

>  <cluster>  (90) 
5

$$$$

     RDKit          3D

 50 53  0  0  0  0  0  0  0  0999 V2000
  139.4350   79.4340  219.8420 O   0  0  0  0  0  0  0  0  0  0  0  0
  140.6050   79.1090  220.1800 C   0  0  0  0  0  0  0  0  0  0  0  0
  141.5410   80.1940  220.4320 N   0  0  0  0  0  0  0  0  0  0  0  0
  141.0330   81.4940  220.2680 C   0  0  0  0  0  0  0  0  0  0  0  0
  140.2250   82.1550  221.2770 C   0  0  0  0  0  0  0  0  0  0  0  0
  140.1960   83.4550  221.1280 O   0  0  0  0  0  0  0  0  0  0  0  0
  139.4770   81.6830  222.3700 N   0  0  0  0  0  0  0  0  0  0  0  0
  138.0310   81.9250  222.4890 C   0  0  0  0  0  0  0  0  0  0  0  0
  137.6180   80.9950  223.6210 C   0  0  0  0  0  0  0  0  0  0  0  0
  138.7540   79.9530  223.6660 C   0  0  0  0  0  0  0  0  0  0  0  0
  139.9080   80.9730  223.5030 C   0  0  1  0  0  0  0  0  0  0  0  0
  141.2010   80.4290  223.7910 C   0  0  2  0  0  0  0  0  0  0  0  0
  142.4560   81.1700  223.6270 C   0  0  0  0  0  0  0  0  0  0  0  0
  143.5030   80.2200  223.0940 C   0  0  0  0  0  0  0  0  0  0  0  0
  142.8210   79.0180  222.7270 N   0  0  0  0  0  0  0  0  0  0  0  0
  141.4650   79.0770  223.1460 C   0  0  0  0  0  0  0  0  0  0  0  0
  141.0340   77.7310  220.3240 C   0  0  0  0  0  0  0  0  0  0  0  0
  140.0950   76.8140  220.7430 C   0  0  0  0  0  0  0  0  0  0  0  0
  140.5080   75.5050  220.8770 C   0  0  0  0  0  0  0  0  0  0  0  0
  141.8240   75.1190  220.6000 C   0  0  0  0  0  0  0  0  0  0  0  0
  142.2490   73.8170  220.7300 C   0  0  0  0  0  0  0  0  0  0  0  0
  143.5630   73.5370  220.4340 C   0  0  0  0  0  0  0  0  0  0  0  0
  144.0430   72.2620  220.5440 F   0  0  0  0  0  0  0  0  0  0  0  0
  144.4520   74.5110  220.0170 C   0  0  0  0  0  0  0  0  0  0  0  0
  144.0360   75.8190  219.8850 C   0  0  0  0  0  0  0  0  0  0  0  0
  142.7170   76.0860  220.1840 C   0  0  0  0  0  0  0  0  0  0  0  0
  142.3160   77.3660  220.0520 N   0  0  0  0  0  0  0  0  0  0  0  0
  142.4750   79.8610  220.7190 H   0  0  0  0  0  0  0  0  0  0  0  0
  141.9057   82.1432  220.1040 H   0  0  0  0  0  0  0  0  0  0  0  0
  140.3024   81.3470  219.4590 H   0  0  0  0  0  0  0  0  0  0  0  0
  137.8260   82.9748  222.7456 H   0  0  0  0  0  0  0  0  0  0  0  0
  137.4827   81.7383  221.5538 H   0  0  0  0  0  0  0  0  0  0  0  0
  137.5484   81.5417  224.5730 H   0  0  0  0  0  0  0  0  0  0  0  0
  136.6281   80.5420  223.4628 H   0  0  0  0  0  0  0  0  0  0  0  0
  138.7968   79.4107  224.6221 H   0  0  0  0  0  0  0  0  0  0  0  0
  138.7073   79.1252  222.9431 H   0  0  0  0  0  0  0  0  0  0  0  0
  140.1277   81.7590  224.2405 H   0  0  0  0  0  0  0  0  0  0  0  0
  141.0151   80.4345  224.8752 H   0  0  0  0  0  0  0  0  0  0  0  0
  142.3091   81.9975  222.9173 H   0  0  0  0  0  0  0  0  0  0  0  0
  142.7789   81.5860  224.5927 H   0  0  0  0  0  0  0  0  0  0  0  0
  143.9991   80.6575  222.2151 H   0  0  0  0  0  0  0  0  0  0  0  0
  144.2764   80.0201  223.8502 H   0  0  0  0  0  0  0  0  0  0  0  0
  143.0100   78.6550  221.7860 H   0  0  0  0  0  0  0  0  0  0  0  0
  140.8047   78.9491  222.2755 H   0  0  0  0  0  0  0  0  0  0  0  0
  141.2667   78.2751  223.8724 H   0  0  0  0  0  0  0  0  0  0  0  0
  139.0593   77.1134  220.9615 H   0  0  0  0  0  0  0  0  0  0  0  0
  139.7850   74.7457  221.2098 H   0  0  0  0  0  0  0  0  0  0  0  0
  141.5603   73.0253  221.0600 H   0  0  0  0  0  0  0  0  0  0  0  0
  145.4940   74.2414  219.7900 H   0  0  0  0  0  0  0  0  0  0  0  0
  144.7241   76.6119  219.5566 H   0  0  0  0  0  0  0  0  0  0  0  0
  1  2  2  0
  2  3  1  0
  3  4  1  0
  4  5  1  0
  5  6  2  0
  5  7  1  0
  7  8  1  0
  8  9  1  0
  9 10  1  0
 10 11  1  0
 11 12  1  0
 12 13  1  0
 13 14  1  0
 14 15  1  0
 15 16  1  0
  2 17  1  0
 17 18  2  0
 18 19  1  0
 19 20  2  0
 20 21  1  0
 21 22  2  0
 22 23  1  0
 22 24  1  0
 24 25  2  0
 25 26  1  0
 26 27  2  0
 11  7  1  0
 16 12  1  0
 27 17  1  0
 26 20  1  0
  3 28  1  0
  4 29  1  0
  4 30  1  0
  8 31  1  0
  8 32  1  0
  9 33  1  0
  9 34  1  0
 10 35  1  0
 10 36  1  0
 11 37  1  1
 12 38  1  1
 13 39  1  0
 13 40  1  0
 14 41  1  0
 14 42  1  0
 15 43  1  0
 16 44  1  0
 16 45  1  0
 18 46  1  0
 19 47  1  0
 21 48  1  0
 24 49  1  0
 25 50  1  0
M  END
>  <smiles>  (91) 
O=C(NCC(=O)N1CCCC1C1CCNC1)c1ccc2cc(F)ccc2n1

>  <score_type>  (91) 
oracle

>  <origin>  (91) 
autodockgpu

>  <m_score__min__energy>  (91) 
-8.6099999999999994

>  <m_primary>  (91) 
energy

>  <rmsd>  (91) 
8.16508675394616

>  <m_score__min__rmsd>  (91) 
8.16508675394616

>  <meeko>  (91) 
{"free_energy": -6.04, "intermolecular_energy": -7.53, "internal_energy": -3.31, "cluster_size": 21, "cluster_id": 5, "rank_in_cluster": 9}

>  <energy>  (91) 
-5.98

>  <cluster_rmsd>  (91) 
1.63

>  <cluster>  (91) 
5

$$$$

     RDKit          3D

 50 53  0  0  0  0  0  0  0  0999 V2000
  140.7780   71.1570  221.3620 O   0  0  0  0  0  0  0  0  0  0  0  0
  140.3450   71.6580  222.4340 C   0  0  0  0  0  0  0  0  0  0  0  0
  140.0340   73.0790  222.4170 N   0  0  0  0  0  0  0  0  0  0  0  0
  140.2540   73.7410  221.1960 C   0  0  0  0  0  0  0  0  0  0  0  0
  140.9870   74.9920  221.1010 C   0  0  0  0  0  0  0  0  0  0  0  0
  141.0080   75.6510  222.2310 O   0  0  0  0  0  0  0  0  0  0  0  0
  141.6710   75.6270  220.0490 N   0  0  0  0  0  0  0  0  0  0  0  0
  141.2030   76.8930  219.4660 C   0  0  0  0  0  0  0  0  0  0  0  0
  142.3840   77.3370  218.6140 C   0  0  0  0  0  0  0  0  0  0  0  0
  143.5750   76.5620  219.2140 C   0  0  0  0  0  0  0  0  0  0  0  0
  142.8250   75.2140  219.3610 C   0  0  1  0  0  0  0  0  0  0  0  0
  143.6870   74.1020  219.6270 C   0  0  2  0  0  0  0  0  0  0  0  0
  144.5030   73.9690  220.8380 C   0  0  0  0  0  0  0  0  0  0  0  0
  145.8330   73.3650  220.4520 C   0  0  0  0  0  0  0  0  0  0  0  0
  145.8880   73.3670  219.0230 N   0  0  0  0  0  0  0  0  0  0  0  0
  144.6340   73.7640  218.4860 C   0  0  0  0  0  0  0  0  0  0  0  0
  140.1510   70.8870  223.6460 C   0  0  0  0  0  0  0  0  0  0  0  0
  139.4880   69.6840  223.5340 C   0  0  0  0  0  0  0  0  0  0  0  0
  139.3070   68.9540  224.6900 C   0  0  0  0  0  0  0  0  0  0  0  0
  139.7730   69.4110  225.9270 C   0  0  0  0  0  0  0  0  0  0  0  0
  139.5990   68.6920  227.0870 C   0  0  0  0  0  0  0  0  0  0  0  0
  140.0950   69.2270  228.2550 C   0  0  0  0  0  0  0  0  0  0  0  0
  139.9520   68.5590  229.4390 F   0  0  0  0  0  0  0  0  0  0  0  0
  140.7520   70.4430  228.2920 C   0  0  0  0  0  0  0  0  0  0  0  0
  140.9310   71.1700  227.1350 C   0  0  0  0  0  0  0  0  0  0  0  0
  140.4300   70.6250  225.9720 C   0  0  0  0  0  0  0  0  0  0  0  0
  140.6090   71.3400  224.8440 N   0  0  0  0  0  0  0  0  0  0  0  0
  139.6710   73.4230  223.3190 H   0  0  0  0  0  0  0  0  0  0  0  0
  140.7888   73.0255  220.5540 H   0  0  0  0  0  0  0  0  0  0  0  0
  139.2355   74.0587  220.9282 H   0  0  0  0  0  0  0  0  0  0  0  0
  140.3068   76.7358  218.8478 H   0  0  0  0  0  0  0  0  0  0  0  0
  140.9115   77.6363  220.2227 H   0  0  0  0  0  0  0  0  0  0  0  0
  142.2309   77.0666  217.5588 H   0  0  0  0  0  0  0  0  0  0  0  0
  142.5336   78.4267  218.6251 H   0  0  0  0  0  0  0  0  0  0  0  0
  144.4321   76.4999  218.5274 H   0  0  0  0  0  0  0  0  0  0  0  0
  144.0441   76.9790  220.1173 H   0  0  0  0  0  0  0  0  0  0  0  0
  142.4344   74.6434  218.5055 H   0  0  0  0  0  0  0  0  0  0  0  0
  142.8387   73.4206  219.7889 H   0  0  0  0  0  0  0  0  0  0  0  0
  144.6617   74.9593  221.2898 H   0  0  0  0  0  0  0  0  0  0  0  0
  143.9928   73.3246  221.5690 H   0  0  0  0  0  0  0  0  0  0  0  0
  146.6563   73.9673  220.8636 H   0  0  0  0  0  0  0  0  0  0  0  0
  145.9335   72.3443  220.8496 H   0  0  0  0  0  0  0  0  0  0  0  0
  146.7320   73.7680  218.6000 H   0  0  0  0  0  0  0  0  0  0  0  0
  144.7708   74.6487  217.8468 H   0  0  0  0  0  0  0  0  0  0  0  0
  144.2124   72.9443  217.8857 H   0  0  0  0  0  0  0  0  0  0  0  0
  139.1187   69.3213  222.5634 H   0  0  0  0  0  0  0  0  0  0  0  0
  138.7831   67.9882  224.6379 H   0  0  0  0  0  0  0  0  0  0  0  0
  139.0808   67.7217  227.0817 H   0  0  0  0  0  0  0  0  0  0  0  0
  141.1330   70.8314  229.2480 H   0  0  0  0  0  0  0  0  0  0  0  0
  141.4496   72.1401  227.1392 H   0  0  0  0  0  0  0  0  0  0  0  0
  1  2  2  0
  2  3  1  0
  3  4  1  0
  4  5  1  0
  5  6  2  0
  5  7  1  0
  7  8  1  0
  8  9  1  0
  9 10  1  0
 10 11  1  0
 11 12  1  0
 12 13  1  0
 13 14  1  0
 14 15  1  0
 15 16  1  0
  2 17  1  0
 17 18  2  0
 18 19  1  0
 19 20  2  0
 20 21  1  0
 21 22  2  0
 22 23  1  0
 22 24  1  0
 24 25  2  0
 25 26  1  0
 26 27  2  0
 11  7  1  0
 16 12  1  0
 27 17  1  0
 26 20  1  0
  3 28  1  0
  4 29  1  0
  4 30  1  0
  8 31  1  0
  8 32  1  0
  9 33  1  0
  9 34  1  0
 10 35  1  0
 10 36  1  0
 11 37  1  6
 12 38  1  1
 13 39  1  0
 13 40  1  0
 14 41  1  0
 14 42  1  0
 15 43  1  0
 16 44  1  0
 16 45  1  0
 18 46  1  0
 19 47  1  0
 21 48  1  0
 24 49  1  0
 25 50  1  0
M  END
>  <smiles>  (92) 
O=C(NCC(=O)N1CCCC1C1CCNC1)c1ccc2cc(F)ccc2n1

>  <score_type>  (92) 
oracle

>  <origin>  (92) 
autodockgpu

>  <m_score__min__energy>  (92) 
-8.6099999999999994

>  <m_primary>  (92) 
energy

>  <rmsd>  (92) 
2.081938448409004

>  <m_score__min__rmsd>  (92) 
2.081938448409004

>  <meeko>  (92) 
{"free_energy": -8.43, "intermolecular_energy": -9.92, "internal_energy": -1.34, "cluster_size": 22, "cluster_id": 1, "rank_in_cluster": 13}

>  <energy>  (92) 
-5.96

>  <cluster_rmsd>  (92) 
1.65

>  <cluster>  (92) 
5

$$$$

     RDKit          3D

 50 53  0  0  0  0  0  0  0  0999 V2000
  138.5180   71.9240  222.3260 O   0  0  0  0  0  0  0  0  0  0  0  0
  139.6100   71.5050  222.7940 C   0  0  0  0  0  0  0  0  0  0  0  0
  140.8240   71.9440  222.1230 N   0  0  0  0  0  0  0  0  0  0  0  0
  140.6420   72.7940  221.0170 C   0  0  0  0  0  0  0  0  0  0  0  0
  140.9060   74.2210  221.0710 C   0  0  0  0  0  0  0  0  0  0  0  0
  140.4020   74.7880  222.1370 O   0  0  0  0  0  0  0  0  0  0  0  0
  141.5900   75.1040  220.2160 N   0  0  0  0  0  0  0  0  0  0  0  0
  141.0410   76.4190  219.8530 C   0  0  0  0  0  0  0  0  0  0  0  0
  142.2250   77.1150  219.1950 C   0  0  0  0  0  0  0  0  0  0  0  0
  143.4450   76.3340  219.7240 C   0  0  0  0  0  0  0  0  0  0  0  0
  142.8150   74.9290  219.5520 C   0  0  1  0  0  0  0  0  0  0  0  0
  143.7600   73.8580  219.6640 C   0  0  2  0  0  0  0  0  0  0  0  0
  144.6230   73.6460  220.8310 C   0  0  0  0  0  0  0  0  0  0  0  0
  145.9780   73.1870  220.3430 C   0  0  0  0  0  0  0  0  0  0  0  0
  145.9850   73.3580  218.9240 N   0  0  0  0  0  0  0  0  0  0  0  0
  144.6900   73.7220  218.4680 C   0  0  0  0  0  0  0  0  0  0  0  0
  139.6940   70.6270  223.9450 C   0  0  0  0  0  0  0  0  0  0  0  0
  139.1170   69.3810  223.8360 C   0  0  0  0  0  0  0  0  0  0  0  0
  139.2000   68.5500  224.9340 C   0  0  0  0  0  0  0  0  0  0  0  0
  139.8410   68.9500  226.1100 C   0  0  0  0  0  0  0  0  0  0  0  0
  139.9310   68.1310  227.2120 C   0  0  0  0  0  0  0  0  0  0  0  0
  140.5830   68.6160  228.3230 C   0  0  0  0  0  0  0  0  0  0  0  0
  140.7030   67.8470  229.4470 F   0  0  0  0  0  0  0  0  0  0  0  0
  141.1400   69.8800  228.3600 C   0  0  0  0  0  0  0  0  0  0  0  0
  141.0550   70.7100  227.2620 C   0  0  0  0  0  0  0  0  0  0  0  0
  140.4000   70.2120  226.1560 C   0  0  0  0  0  0  0  0  0  0  0  0
  140.3200   71.0260  225.0850 N   0  0  0  0  0  0  0  0  0  0  0  0
  141.6820   71.5790  222.5640 H   0  0  0  0  0  0  0  0  0  0  0  0
  141.2848   72.3957  220.2181 H   0  0  0  0  0  0  0  0  0  0  0  0
  139.5486   72.7741  220.8984 H   0  0  0  0  0  0  0  0  0  0  0  0
  140.2018   76.3164  219.1493 H   0  0  0  0  0  0  0  0  0  0  0  0
  140.6365   76.9723  220.7134 H   0  0  0  0  0  0  0  0  0  0  0  0
  142.1607   77.0475  218.0990 H   0  0  0  0  0  0  0  0  0  0  0  0
  142.2720   78.1892  219.4270 H   0  0  0  0  0  0  0  0  0  0  0  0
  144.3433   76.4768  219.1054 H   0  0  0  0  0  0  0  0  0  0  0  0
  143.8197   76.6000  220.7234 H   0  0  0  0  0  0  0  0  0  0  0  0
  142.5291   74.5104  218.5758 H   0  0  0  0  0  0  0  0  0  0  0  0
  142.9662   73.1032  219.7652 H   0  0  0  0  0  0  0  0  0  0  0  0
  144.7286   74.5868  221.3911 H   0  0  0  0  0  0  0  0  0  0  0  0
  144.1827   72.8874  221.4948 H   0  0  0  0  0  0  0  0  0  0  0  0
  146.7717   73.7950  220.8017 H   0  0  0  0  0  0  0  0  0  0  0  0
  146.1609   72.1370  220.6151 H   0  0  0  0  0  0  0  0  0  0  0  0
  146.7850   73.8640  218.5290 H   0  0  0  0  0  0  0  0  0  0  0  0
  144.7443   74.6815  217.9329 H   0  0  0  0  0  0  0  0  0  0  0  0
  144.3063   72.9481  217.7869 H   0  0  0  0  0  0  0  0  0  0  0  0
  138.6115   69.0621  222.9126 H   0  0  0  0  0  0  0  0  0  0  0  0
  138.7504   67.5474  224.8828 H   0  0  0  0  0  0  0  0  0  0  0  0
  139.4957   67.1208  227.2053 H   0  0  0  0  0  0  0  0  0  0  0  0
  141.6535   70.2257  229.2693 H   0  0  0  0  0  0  0  0  0  0  0  0
  141.4890   71.7208  227.2684 H   0  0  0  0  0  0  0  0  0  0  0  0
  1  2  2  0
  2  3  1  0
  3  4  1  0
  4  5  1  0
  5  6  2  0
  5  7  1  0
  7  8  1  0
  8  9  1  0
  9 10  1  0
 10 11  1  0
 11 12  1  0
 12 13  1  0
 13 14  1  0
 14 15  1  0
 15 16  1  0
  2 17  1  0
 17 18  2  0
 18 19  1  0
 19 20  2  0
 20 21  1  0
 21 22  2  0
 22 23  1  0
 22 24  1  0
 24 25  2  0
 25 26  1  0
 26 27  2  0
 11  7  1  0
 16 12  1  0
 27 17  1  0
 26 20  1  0
  3 28  1  0
  4 29  1  0
  4 30  1  0
  8 31  1  0
  8 32  1  0
  9 33  1  0
  9 34  1  0
 10 35  1  0
 10 36  1  0
 11 37  1  6
 12 38  1  6
 13 39  1  0
 13 40  1  0
 14 41  1  0
 14 42  1  0
 15 43  1  0
 16 44  1  0
 16 45  1  0
 18 46  1  0
 19 47  1  0
 21 48  1  0
 24 49  1  0
 25 50  1  0
M  END
>  <smiles>  (93) 
O=C(NCC(=O)N1CCCC1C1CCNC1)c1ccc2cc(F)ccc2n1

>  <score_type>  (93) 
oracle

>  <origin>  (93) 
autodockgpu

>  <m_score__min__energy>  (93) 
-8.6099999999999994

>  <m_primary>  (93) 
energy

>  <rmsd>  (93) 
2.2265103540588713

>  <m_score__min__rmsd>  (93) 
2.2265103540588713

>  <meeko>  (93) 
{"free_energy": -8.59, "intermolecular_energy": -10.08, "internal_energy": -1.14, "cluster_size": 22, "cluster_id": 1, "rank_in_cluster": 2}

>  <energy>  (93) 
-5.96

>  <cluster_rmsd>  (93) 
1.03

>  <cluster>  (93) 
5

$$$$

     RDKit          3D

 50 53  0  0  0  0  0  0  0  0999 V2000
  141.1800   73.5190  220.6110 O   0  0  0  0  0  0  0  0  0  0  0  0
  140.6500   74.3720  221.3720 C   0  0  0  0  0  0  0  0  0  0  0  0
  139.5990   73.8970  222.2600 N   0  0  0  0  0  0  0  0  0  0  0  0
  139.2900   72.5280  222.1690 C   0  0  0  0  0  0  0  0  0  0  0  0
  139.6830   71.5650  223.1820 C   0  0  0  0  0  0  0  0  0  0  0  0
  140.9710   71.5750  223.4160 O   0  0  0  0  0  0  0  0  0  0  0  0
  138.9640   70.6340  223.9530 N   0  0  0  0  0  0  0  0  0  0  0  0
  137.7250   70.0080  223.4670 C   0  0  0  0  0  0  0  0  0  0  0  0
  137.4900   68.8870  224.4690 C   0  0  0  0  0  0  0  0  0  0  0  0
  138.8810   68.6640  225.0970 C   0  0  0  0  0  0  0  0  0  0  0  0
  139.2240   70.1670  225.2520 C   0  0  1  0  0  0  0  0  0  0  0  0
  140.3560   70.4150  226.0940 C   0  0  2  0  0  0  0  0  0  0  0  0
  140.5010   69.8790  227.4510 C   0  0  0  0  0  0  0  0  0  0  0  0
  141.1430   70.9390  228.3150 C   0  0  0  0  0  0  0  0  0  0  0  0
  141.1530   72.1460  227.5490 N   0  0  0  0  0  0  0  0  0  0  0  0
  140.7270   71.8840  226.2190 C   0  0  0  0  0  0  0  0  0  0  0  0
  141.0410   75.7680  221.3920 C   0  0  0  0  0  0  0  0  0  0  0  0
  141.8250   76.2210  220.3540 C   0  0  0  0  0  0  0  0  0  0  0  0
  142.1940   77.5500  220.3770 C   0  0  0  0  0  0  0  0  0  0  0  0
  141.7930   78.4050  221.4080 C   0  0  0  0  0  0  0  0  0  0  0  0
  142.1540   79.7320  221.4430 C   0  0  0  0  0  0  0  0  0  0  0  0
  141.7080   80.4920  222.5010 C   0  0  0  0  0  0  0  0  0  0  0  0
  142.0350   81.8170  222.5890 F   0  0  0  0  0  0  0  0  0  0  0  0
  140.9220   79.9680  223.5100 C   0  0  0  0  0  0  0  0  0  0  0  0
  140.5550   78.6390  223.4850 C   0  0  0  0  0  0  0  0  0  0  0  0
  141.0080   77.8890  222.4200 C   0  0  0  0  0  0  0  0  0  0  0  0
  140.6450   76.5900  222.4000 N   0  0  0  0  0  0  0  0  0  0  0  0
  139.2180   74.6400  222.8660 H   0  0  0  0  0  0  0  0  0  0  0  0
  138.1938   72.4674  222.1007 H   0  0  0  0  0  0  0  0  0  0  0  0
  139.9080   72.2166  221.3140 H   0  0  0  0  0  0  0  0  0  0  0  0
  136.8910   70.7252  223.4738 H   0  0  0  0  0  0  0  0  0  0  0  0
  137.7983   69.6522  222.4287 H   0  0  0  0  0  0  0  0  0  0  0  0
  136.7584   69.1898  225.2326 H   0  0  0  0  0  0  0  0  0  0  0  0
  137.0800   67.9779  224.0048 H   0  0  0  0  0  0  0  0  0  0  0  0
  138.8335   68.1363  226.0610 H   0  0  0  0  0  0  0  0  0  0  0  0
  139.5927   68.0395  224.5371 H   0  0  0  0  0  0  0  0  0  0  0  0
  138.6568   70.8534  225.8979 H   0  0  0  0  0  0  0  0  0  0  0  0
  141.0140   69.7861  225.4763 H   0  0  0  0  0  0  0  0  0  0  0  0
  139.5118   69.6187  227.8555 H   0  0  0  0  0  0  0  0  0  0  0  0
  141.1258   68.9738  227.4356 H   0  0  0  0  0  0  0  0  0  0  0  0
  140.5599   71.0804  229.2369 H   0  0  0  0  0  0  0  0  0  0  0  0
  142.1631   70.6472  228.6051 H   0  0  0  0  0  0  0  0  0  0  0  0
  140.7770   72.9820  228.0100 H   0  0  0  0  0  0  0  0  0  0  0  0
  139.8509   72.5062  225.9838 H   0  0  0  0  0  0  0  0  0  0  0  0
  141.5397   72.1213  225.5167 H   0  0  0  0  0  0  0  0  0  0  0  0
  142.1433   75.5515  219.5413 H   0  0  0  0  0  0  0  0  0  0  0  0
  142.8194   77.9470  219.5638 H   0  0  0  0  0  0  0  0  0  0  0  0
  142.7787   80.1716  220.6515 H   0  0  0  0  0  0  0  0  0  0  0  0
  140.5881   80.6134  224.3358 H   0  0  0  0  0  0  0  0  0  0  0  0
  139.9310   78.1983  224.2764 H   0  0  0  0  0  0  0  0  0  0  0  0
  1  2  2  0
  2  3  1  0
  3  4  1  0
  4  5  1  0
  5  6  2  0
  5  7  1  0
  7  8  1  0
  8  9  1  0
  9 10  1  0
 10 11  1  0
 11 12  1  0
 12 13  1  0
 13 14  1  0
 14 15  1  0
 15 16  1  0
  2 17  1  0
 17 18  2  0
 18 19  1  0
 19 20  2  0
 20 21  1  0
 21 22  2  0
 22 23  1  0
 22 24  1  0
 24 25  2  0
 25 26  1  0
 26 27  2  0
 11  7  1  0
 16 12  1  0
 27 17  1  0
 26 20  1  0
  3 28  1  0
  4 29  1  0
  4 30  1  0
  8 31  1  0
  8 32  1  0
  9 33  1  0
  9 34  1  0
 10 35  1  0
 10 36  1  0
 11 37  1  1
 12 38  1  6
 13 39  1  0
 13 40  1  0
 14 41  1  0
 14 42  1  0
 15 43  1  0
 16 44  1  0
 16 45  1  0
 18 46  1  0
 19 47  1  0
 21 48  1  0
 24 49  1  0
 25 50  1  0
M  END
>  <smiles>  (94) 
O=C(NCC(=O)N1CCCC1C1CCNC1)c1ccc2cc(F)ccc2n1

>  <score_type>  (94) 
oracle

>  <origin>  (94) 
autodockgpu

>  <m_score__min__energy>  (94) 
-8.6099999999999994

>  <m_primary>  (94) 
energy

>  <rmsd>  (94) 
8.718439538934152

>  <m_score__min__rmsd>  (94) 
8.718439538934152

>  <meeko>  (94) 
{"free_energy": -7.89, "intermolecular_energy": -9.38, "internal_energy": -1.25, "cluster_size": 1, "cluster_id": 3, "rank_in_cluster": 1}

>  <energy>  (94) 
-5.95

>  <cluster_rmsd>  (94) 
0.19

>  <cluster>  (94) 
5

$$$$

     RDKit          3D

 50 53  0  0  0  0  0  0  0  0999 V2000
  141.4510   81.5300  218.2980 O   0  0  0  0  0  0  0  0  0  0  0  0
  141.7050   80.5860  219.0950 C   0  0  0  0  0  0  0  0  0  0  0  0
  141.5040   80.8500  220.5110 N   0  0  0  0  0  0  0  0  0  0  0  0
  141.0440   82.1390  220.8370 C   0  0  0  0  0  0  0  0  0  0  0  0
  139.9150   82.3700  221.7200 C   0  0  0  0  0  0  0  0  0  0  0  0
  139.4830   83.6050  221.6740 O   0  0  0  0  0  0  0  0  0  0  0  0
  139.2010   81.5420  222.6040 N   0  0  0  0  0  0  0  0  0  0  0  0
  137.7330   81.5770  222.6930 C   0  0  0  0  0  0  0  0  0  0  0  0
  137.4080   80.3390  223.5170 C   0  0  0  0  0  0  0  0  0  0  0  0
  138.6640   79.4580  223.3570 C   0  0  0  0  0  0  0  0  0  0  0  0
  139.6850   80.6090  223.5360 C   0  0  1  0  0  0  0  0  0  0  0  0
  141.0280   80.1590  223.7510 C   0  0  2  0  0  0  0  0  0  0  0  0
  142.2070   81.0270  223.6630 C   0  0  0  0  0  0  0  0  0  0  0  0
  143.3260   80.2440  223.0170 C   0  0  0  0  0  0  0  0  0  0  0  0
  142.7510   79.0340  222.5200 N   0  0  0  0  0  0  0  0  0  0  0  0
  141.4030   78.9190  222.9540 C   0  0  0  0  0  0  0  0  0  0  0  0
  142.1780   79.2870  218.6580 C   0  0  0  0  0  0  0  0  0  0  0  0
  142.5050   79.1450  217.3270 C   0  0  0  0  0  0  0  0  0  0  0  0
  142.9550   77.9070  216.9170 C   0  0  0  0  0  0  0  0  0  0  0  0
  143.0740   76.8370  217.8100 C   0  0  0  0  0  0  0  0  0  0  0  0
  143.5200   75.5980  217.4140 C   0  0  0  0  0  0  0  0  0  0  0  0
  143.6030   74.6090  218.3680 C   0  0  0  0  0  0  0  0  0  0  0  0
  144.0400   73.3570  218.0340 F   0  0  0  0  0  0  0  0  0  0  0  0
  143.2560   74.8240  219.6890 C   0  0  0  0  0  0  0  0  0  0  0  0
  142.8070   76.0620  220.0960 C   0  0  0  0  0  0  0  0  0  0  0  0
  142.7290   77.0440  219.1310 C   0  0  0  0  0  0  0  0  0  0  0  0
  142.2900   78.2530  219.5350 N   0  0  0  0  0  0  0  0  0  0  0  0
  141.7150   80.0350  221.1060 H   0  0  0  0  0  0  0  0  0  0  0  0
  141.8984   82.6607  221.2928 H   0  0  0  0  0  0  0  0  0  0  0  0
  140.6459   82.4843  219.8714 H   0  0  0  0  0  0  0  0  0  0  0  0
  137.3897   82.4906  223.2005 H   0  0  0  0  0  0  0  0  0  0  0  0
  137.2400   81.5838  221.7097 H   0  0  0  0  0  0  0  0  0  0  0  0
  137.2441   80.6015  224.5726 H   0  0  0  0  0  0  0  0  0  0  0  0
  136.4873   79.8353  223.1874 H   0  0  0  0  0  0  0  0  0  0  0  0
  138.7474   78.6891  224.1392 H   0  0  0  0  0  0  0  0  0  0  0  0
  138.7420   78.8528  222.4418 H   0  0  0  0  0  0  0  0  0  0  0  0
  139.7829   81.1896  224.4651 H   0  0  0  0  0  0  0  0  0  0  0  0
  140.8620   80.0257  224.8302 H   0  0  0  0  0  0  0  0  0  0  0  0
  141.9724   81.9121  223.0535 H   0  0  0  0  0  0  0  0  0  0  0  0
  142.5082   81.3598  224.6673 H   0  0  0  0  0  0  0  0  0  0  0  0
  143.7644   80.8222  222.1903 H   0  0  0  0  0  0  0  0  0  0  0  0
  144.1274   80.0318  223.7401 H   0  0  0  0  0  0  0  0  0  0  0  0
  142.9550   78.7990  221.5430 H   0  0  0  0  0  0  0  0  0  0  0  0
  140.7412   78.8291  222.0799 H   0  0  0  0  0  0  0  0  0  0  0  0
  141.2926   78.0255  223.5860 H   0  0  0  0  0  0  0  0  0  0  0  0
  142.4112   79.9834  216.6211 H   0  0  0  0  0  0  0  0  0  0  0  0
  143.2270   77.7576  215.8617 H   0  0  0  0  0  0  0  0  0  0  0  0
  143.8014   75.4034  216.3686 H   0  0  0  0  0  0  0  0  0  0  0  0
  143.3385   74.0042  220.4177 H   0  0  0  0  0  0  0  0  0  0  0  0
  142.5243   76.2574  221.1409 H   0  0  0  0  0  0  0  0  0  0  0  0
  1  2  2  0
  2  3  1  0
  3  4  1  0
  4  5  1  0
  5  6  2  0
  5  7  1  0
  7  8  1  0
  8  9  1  0
  9 10  1  0
 10 11  1  0
 11 12  1  0
 12 13  1  0
 13 14  1  0
 14 15  1  0
 15 16  1  0
  2 17  1  0
 17 18  2  0
 18 19  1  0
 19 20  2  0
 20 21  1  0
 21 22  2  0
 22 23  1  0
 22 24  1  0
 24 25  2  0
 25 26  1  0
 26 27  2  0
 11  7  1  0
 16 12  1  0
 27 17  1  0
 26 20  1  0
  3 28  1  0
  4 29  1  0
  4 30  1  0
  8 31  1  0
  8 32  1  0
  9 33  1  0
  9 34  1  0
 10 35  1  0
 10 36  1  0
 11 37  1  1
 12 38  1  1
 13 39  1  0
 13 40  1  0
 14 41  1  0
 14 42  1  0
 15 43  1  0
 16 44  1  0
 16 45  1  0
 18 46  1  0
 19 47  1  0
 21 48  1  0
 24 49  1  0
 25 50  1  0
M  END
>  <smiles>  (95) 
O=C(NCC(=O)N1CCCC1C1CCNC1)c1ccc2cc(F)ccc2n1

>  <score_type>  (95) 
oracle

>  <origin>  (95) 
autodockgpu

>  <m_score__min__energy>  (95) 
-8.6099999999999994

>  <m_primary>  (95) 
energy

>  <rmsd>  (95) 
9.523273433297911

>  <m_score__min__rmsd>  (95) 
9.523273433297911

>  <meeko>  (95) 
{"free_energy": -5.98, "intermolecular_energy": -7.47, "internal_energy": -3.21, "cluster_size": 21, "cluster_id": 5, "rank_in_cluster": 12}

>  <energy>  (95) 
-5.9

>  <cluster_rmsd>  (95) 
1.45

>  <cluster>  (95) 
5

$$$$

     RDKit          3D

 50 53  0  0  0  0  0  0  0  0999 V2000
  139.5470   79.5490  219.8340 O   0  0  0  0  0  0  0  0  0  0  0  0
  140.7010   79.2010  220.2030 C   0  0  0  0  0  0  0  0  0  0  0  0
  141.6430   80.2680  220.5090 N   0  0  0  0  0  0  0  0  0  0  0  0
  141.1560   81.5790  220.3560 C   0  0  0  0  0  0  0  0  0  0  0  0
  140.2020   82.1740  221.2740 C   0  0  0  0  0  0  0  0  0  0  0  0
  140.0110   83.4490  221.0470 O   0  0  0  0  0  0  0  0  0  0  0  0
  139.4500   81.6610  222.3460 N   0  0  0  0  0  0  0  0  0  0  0  0
  137.9950   81.8510  222.4400 C   0  0  0  0  0  0  0  0  0  0  0  0
  137.5940   80.8910  223.5520 C   0  0  0  0  0  0  0  0  0  0  0  0
  138.7650   79.8890  223.6050 C   0  0  0  0  0  0  0  0  0  0  0  0
  139.8850   80.9510  223.4780 C   0  0  1  0  0  0  0  0  0  0  0  0
  141.1910   80.4490  223.7840 C   0  0  2  0  0  0  0  0  0  0  0  0
  142.4300   81.2040  223.5690 C   0  0  0  0  0  0  0  0  0  0  0  0
  143.4910   80.2470  223.0790 C   0  0  0  0  0  0  0  0  0  0  0  0
  142.8310   79.0140  222.7840 N   0  0  0  0  0  0  0  0  0  0  0  0
  141.4770   79.0700  223.2110 C   0  0  0  0  0  0  0  0  0  0  0  0
  141.1080   77.8150  220.3310 C   0  0  0  0  0  0  0  0  0  0  0  0
  140.1720   76.9210  220.8030 C   0  0  0  0  0  0  0  0  0  0  0  0
  140.5640   75.6030  220.9220 C   0  0  0  0  0  0  0  0  0  0  0  0
  141.8540   75.1880  220.5790 C   0  0  0  0  0  0  0  0  0  0  0  0
  142.2580   73.8780  220.6930 C   0  0  0  0  0  0  0  0  0  0  0  0
  143.5490   73.5680  220.3300 C   0  0  0  0  0  0  0  0  0  0  0  0
  144.0060   72.2830  220.4210 F   0  0  0  0  0  0  0  0  0  0  0  0
  144.4350   74.5210  219.8630 C   0  0  0  0  0  0  0  0  0  0  0  0
  144.0410   75.8370  219.7450 C   0  0  0  0  0  0  0  0  0  0  0  0
  142.7450   76.1340  220.1120 C   0  0  0  0  0  0  0  0  0  0  0  0
  142.3650   77.4220  219.9950 N   0  0  0  0  0  0  0  0  0  0  0  0
  142.5610   79.9170  220.8190 H   0  0  0  0  0  0  0  0  0  0  0  0
  142.0390   82.2349  220.3673 H   0  0  0  0  0  0  0  0  0  0  0  0
  140.5558   81.4882  219.4386 H   0  0  0  0  0  0  0  0  0  0  0  0
  137.7485   82.8894  222.7065 H   0  0  0  0  0  0  0  0  0  0  0  0
  137.4711   81.6586  221.4921 H   0  0  0  0  0  0  0  0  0  0  0  0
  137.4874   81.4216  224.5096 H   0  0  0  0  0  0  0  0  0  0  0  0
  136.6239   80.4058  223.3689 H   0  0  0  0  0  0  0  0  0  0  0  0
  138.8090   79.3352  224.5544 H   0  0  0  0  0  0  0  0  0  0  0  0
  138.7613   79.0703  222.8703 H   0  0  0  0  0  0  0  0  0  0  0  0
  140.0632   81.7339  224.2298 H   0  0  0  0  0  0  0  0  0  0  0  0
  141.0131   80.5103  224.8678 H   0  0  0  0  0  0  0  0  0  0  0  0
  142.2613   81.9888  222.8169 H   0  0  0  0  0  0  0  0  0  0  0  0
  142.7522   81.6779  224.5079 H   0  0  0  0  0  0  0  0  0  0  0  0
  143.9712   80.6456  222.1732 H   0  0  0  0  0  0  0  0  0  0  0  0
  144.2740   80.1036  223.8382 H   0  0  0  0  0  0  0  0  0  0  0  0
  143.0200   78.6040  221.8630 H   0  0  0  0  0  0  0  0  0  0  0  0
  140.8129   78.8824  222.3544 H   0  0  0  0  0  0  0  0  0  0  0  0
  141.3002   78.3053  223.9817 H   0  0  0  0  0  0  0  0  0  0  0  0
  139.1558   77.2438  221.0734 H   0  0  0  0  0  0  0  0  0  0  0  0
  139.8434   74.8608  221.2960 H   0  0  0  0  0  0  0  0  0  0  0  0
  141.5709   73.1026  221.0626 H   0  0  0  0  0  0  0  0  0  0  0  0
  145.4581   74.2283  219.5845 H   0  0  0  0  0  0  0  0  0  0  0  0
  144.7275   76.6131  219.3757 H   0  0  0  0  0  0  0  0  0  0  0  0
  1  2  2  0
  2  3  1  0
  3  4  1  0
  4  5  1  0
  5  6  2  0
  5  7  1  0
  7  8  1  0
  8  9  1  0
  9 10  1  0
 10 11  1  0
 11 12  1  0
 12 13  1  0
 13 14  1  0
 14 15  1  0
 15 16  1  0
  2 17  1  0
 17 18  2  0
 18 19  1  0
 19 20  2  0
 20 21  1  0
 21 22  2  0
 22 23  1  0
 22 24  1  0
 24 25  2  0
 25 26  1  0
 26 27  2  0
 11  7  1  0
 16 12  1  0
 27 17  1  0
 26 20  1  0
  3 28  1  0
  4 29  1  0
  4 30  1  0
  8 31  1  0
  8 32  1  0
  9 33  1  0
  9 34  1  0
 10 35  1  0
 10 36  1  0
 11 37  1  1
 12 38  1  1
 13 39  1  0
 13 40  1  0
 14 41  1  0
 14 42  1  0
 15 43  1  0
 16 44  1  0
 16 45  1  0
 18 46  1  0
 19 47  1  0
 21 48  1  0
 24 49  1  0
 25 50  1  0
M  END
>  <smiles>  (96) 
O=C(NCC(=O)N1CCCC1C1CCNC1)c1ccc2cc(F)ccc2n1

>  <score_type>  (96) 
oracle

>  <origin>  (96) 
autodockgpu

>  <m_score__min__energy>  (96) 
-8.6099999999999994

>  <m_primary>  (96) 
energy

>  <rmsd>  (96) 
8.214461612884941

>  <m_score__min__rmsd>  (96) 
8.214461612884941

>  <meeko>  (96) 
{"free_energy": -6.15, "intermolecular_energy": -7.64, "internal_energy": -3.26, "cluster_size": 21, "cluster_id": 5, "rank_in_cluster": 2}

>  <energy>  (96) 
-5.89

>  <cluster_rmsd>  (96) 
1.65

>  <cluster>  (96) 
5

$$$$

     RDKit          3D

 50 53  0  0  0  0  0  0  0  0999 V2000
  141.4010   72.1790  221.5400 O   0  0  0  0  0  0  0  0  0  0  0  0
  140.4380   72.3180  222.3410 C   0  0  0  0  0  0  0  0  0  0  0  0
  139.5040   73.3990  222.0630 N   0  0  0  0  0  0  0  0  0  0  0  0
  139.7820   74.1740  220.9230 C   0  0  0  0  0  0  0  0  0  0  0  0
  140.9450   75.0370  220.8240 C   0  0  0  0  0  0  0  0  0  0  0  0
  141.4380   75.3550  221.9950 O   0  0  0  0  0  0  0  0  0  0  0  0
  141.6400   75.5930  219.7360 N   0  0  0  0  0  0  0  0  0  0  0  0
  141.1570   76.7900  219.0300 C   0  0  0  0  0  0  0  0  0  0  0  0
  142.3480   77.1850  218.1690 C   0  0  0  0  0  0  0  0  0  0  0  0
  143.5420   76.4980  218.8630 C   0  0  0  0  0  0  0  0  0  0  0  0
  142.8200   75.1510  219.1140 C   0  0  1  0  0  0  0  0  0  0  0  0
  143.7020   74.0890  219.4990 C   0  0  2  0  0  0  0  0  0  0  0  0
  144.4750   74.0770  220.7450 C   0  0  0  0  0  0  0  0  0  0  0  0
  145.8340   73.4850  220.4560 C   0  0  0  0  0  0  0  0  0  0  0  0
  145.9430   73.3760  219.0340 N   0  0  0  0  0  0  0  0  0  0  0  0
  144.7000   73.6910  218.4230 C   0  0  0  0  0  0  0  0  0  0  0  0
  140.2360   71.4630  223.4940 C   0  0  0  0  0  0  0  0  0  0  0  0
  139.5650   70.2760  223.2930 C   0  0  0  0  0  0  0  0  0  0  0  0
  139.3760   69.4650  224.3940 C   0  0  0  0  0  0  0  0  0  0  0  0
  139.8450   69.8280  225.6610 C   0  0  0  0  0  0  0  0  0  0  0  0
  139.6640   69.0290  226.7660 C   0  0  0  0  0  0  0  0  0  0  0  0
  140.1620   69.4730  227.9690 C   0  0  0  0  0  0  0  0  0  0  0  0
  140.0120   68.7220  229.1020 F   0  0  0  0  0  0  0  0  0  0  0  0
  140.8280   70.6780  228.0950 C   0  0  0  0  0  0  0  0  0  0  0  0
  141.0140   71.4860  226.9940 C   0  0  0  0  0  0  0  0  0  0  0  0
  140.5110   71.0300  225.7950 C   0  0  0  0  0  0  0  0  0  0  0  0
  140.6960   71.8240  224.7210 N   0  0  0  0  0  0  0  0  0  0  0  0
  138.7320   73.4490  222.7460 H   0  0  0  0  0  0  0  0  0  0  0  0
  139.8565   73.4658  220.0846 H   0  0  0  0  0  0  0  0  0  0  0  0
  138.9623   74.9072  220.9471 H   0  0  0  0  0  0  0  0  0  0  0  0
  140.2805   76.5553  218.4082 H   0  0  0  0  0  0  0  0  0  0  0  0
  140.8293   77.5907  219.7094 H   0  0  0  0  0  0  0  0  0  0  0  0
  142.2275   76.8169  217.1394 H   0  0  0  0  0  0  0  0  0  0  0  0
  142.4719   78.2748  218.0854 H   0  0  0  0  0  0  0  0  0  0  0  0
  144.4170   76.3963  218.2041 H   0  0  0  0  0  0  0  0  0  0  0  0
  143.9794   77.0062  219.7350 H   0  0  0  0  0  0  0  0  0  0  0  0
  142.4634   74.4975  218.3042 H   0  0  0  0  0  0  0  0  0  0  0  0
  142.8674   73.3969  219.6849 H   0  0  0  0  0  0  0  0  0  0  0  0
  144.5895   75.1043  221.1213 H   0  0  0  0  0  0  0  0  0  0  0  0
  143.9554   73.4774  221.5069 H   0  0  0  0  0  0  0  0  0  0  0  0
  146.6245   74.1424  220.8472 H   0  0  0  0  0  0  0  0  0  0  0  0
  145.9470   72.5023  220.9371 H   0  0  0  0  0  0  0  0  0  0  0  0
  146.7920   73.7670  218.6100 H   0  0  0  0  0  0  0  0  0  0  0  0
  144.8364   74.5263  217.7203 H   0  0  0  0  0  0  0  0  0  0  0  0
  144.3240   72.8141  217.8756 H   0  0  0  0  0  0  0  0  0  0  0  0
  139.1959   69.9872  222.2978 H   0  0  0  0  0  0  0  0  0  0  0  0
  138.8437   68.5101  224.2721 H   0  0  0  0  0  0  0  0  0  0  0  0
  139.1379   68.0659  226.6901 H   0  0  0  0  0  0  0  0  0  0  0  0
  141.2107   70.9929  229.0771 H   0  0  0  0  0  0  0  0  0  0  0  0
  141.5393   72.4496  227.0690 H   0  0  0  0  0  0  0  0  0  0  0  0
  1  2  2  0
  2  3  1  0
  3  4  1  0
  4  5  1  0
  5  6  2  0
  5  7  1  0
  7  8  1  0
  8  9  1  0
  9 10  1  0
 10 11  1  0
 11 12  1  0
 12 13  1  0
 13 14  1  0
 14 15  1  0
 15 16  1  0
  2 17  1  0
 17 18  2  0
 18 19  1  0
 19 20  2  0
 20 21  1  0
 21 22  2  0
 22 23  1  0
 22 24  1  0
 24 25  2  0
 25 26  1  0
 26 27  2  0
 11  7  1  0
 16 12  1  0
 27 17  1  0
 26 20  1  0
  3 28  1  0
  4 29  1  0
  4 30  1  0
  8 31  1  0
  8 32  1  0
  9 33  1  0
  9 34  1  0
 10 35  1  0
 10 36  1  0
 11 37  1  6
 12 38  1  1
 13 39  1  0
 13 40  1  0
 14 41  1  0
 14 42  1  0
 15 43  1  0
 16 44  1  0
 16 45  1  0
 18 46  1  0
 19 47  1  0
 21 48  1  0
 24 49  1  0
 25 50  1  0
M  END
>  <smiles>  (97) 
O=C(NCC(=O)N1CCCC1C1CCNC1)c1ccc2cc(F)ccc2n1

>  <score_type>  (97) 
oracle

>  <origin>  (97) 
autodockgpu

>  <m_score__min__energy>  (97) 
-8.6099999999999994

>  <m_primary>  (97) 
energy

>  <rmsd>  (97) 
2.053194619098307

>  <m_score__min__rmsd>  (97) 
2.053194619098307

>  <meeko>  (97) 
{"free_energy": -8.57, "intermolecular_energy": -10.06, "internal_energy": -1.3, "cluster_size": 22, "cluster_id": 1, "rank_in_cluster": 3}

>  <energy>  (97) 
-5.85

>  <cluster_rmsd>  (97) 
0.36

>  <cluster>  (97) 
5

$$$$

     RDKit          3D

 50 53  0  0  0  0  0  0  0  0999 V2000
  140.2390   80.2540  218.5640 O   0  0  0  0  0  0  0  0  0  0  0  0
  141.2100   79.8950  219.2830 C   0  0  0  0  0  0  0  0  0  0  0  0
  141.6960   80.8590  220.2590 N   0  0  0  0  0  0  0  0  0  0  0  0
  141.0210   82.0920  220.2920 C   0  0  0  0  0  0  0  0  0  0  0  0
  140.1680   82.4920  221.3970 C   0  0  0  0  0  0  0  0  0  0  0  0
  140.1710   83.7860  221.5940 O   0  0  0  0  0  0  0  0  0  0  0  0
  139.3490   81.7740  222.2870 N   0  0  0  0  0  0  0  0  0  0  0  0
  137.8900   81.9600  222.3270 C   0  0  0  0  0  0  0  0  0  0  0  0
  137.4190   80.7940  223.1840 C   0  0  0  0  0  0  0  0  0  0  0  0
  138.5830   79.7860  223.0970 C   0  0  0  0  0  0  0  0  0  0  0  0
  139.7090   80.8360  223.2680 C   0  0  1  0  0  0  0  0  0  0  0  0
  140.9930   80.2620  223.5430 C   0  0  2  0  0  0  0  0  0  0  0  0
  142.2490   81.0190  223.5260 C   0  0  0  0  0  0  0  0  0  0  0  0
  143.3240   80.1450  222.9250 C   0  0  0  0  0  0  0  0  0  0  0  0
  142.6670   78.9970  222.3820 N   0  0  0  0  0  0  0  0  0  0  0  0
  141.2940   79.0020  222.7470 C   0  0  0  0  0  0  0  0  0  0  0  0
  141.8400   78.5940  219.1710 C   0  0  0  0  0  0  0  0  0  0  0  0
  142.7130   78.3990  218.1240 C   0  0  0  0  0  0  0  0  0  0  0  0
  143.3100   77.1590  218.0230 C   0  0  0  0  0  0  0  0  0  0  0  0
  143.0430   76.1400  218.9430 C   0  0  0  0  0  0  0  0  0  0  0  0
  143.6310   74.8990  218.8540 C   0  0  0  0  0  0  0  0  0  0  0  0
  143.3040   73.9630  219.8080 C   0  0  0  0  0  0  0  0  0  0  0  0
  143.8570   72.7130  219.7710 F   0  0  0  0  0  0  0  0  0  0  0  0
  142.4180   74.2300  220.8340 C   0  0  0  0  0  0  0  0  0  0  0  0
  141.8220   75.4700  220.9320 C   0  0  0  0  0  0  0  0  0  0  0  0
  142.1580   76.3990  219.9710 C   0  0  0  0  0  0  0  0  0  0  0  0
  141.5740   77.6100  220.0710 N   0  0  0  0  0  0  0  0  0  0  0  0
  142.4800   80.4990  220.8230 H   0  0  0  0  0  0  0  0  0  0  0  0
  141.7981   82.8664  220.2120 H   0  0  0  0  0  0  0  0  0  0  0  0
  140.2893   81.9668  219.4802 H   0  0  0  0  0  0  0  0  0  0  0  0
  137.6268   82.9225  222.7900 H   0  0  0  0  0  0  0  0  0  0  0  0
  137.4281   81.9784  221.3289 H   0  0  0  0  0  0  0  0  0  0  0  0
  137.2525   81.1128  224.2235 H   0  0  0  0  0  0  0  0  0  0  0  0
  136.4621   80.3722  222.8429 H   0  0  0  0  0  0  0  0  0  0  0  0
  138.5656   79.0438  223.9086 H   0  0  0  0  0  0  0  0  0  0  0  0
  138.6260   79.1403  222.2075 H   0  0  0  0  0  0  0  0  0  0  0  0
  139.8377   81.4409  224.1777 H   0  0  0  0  0  0  0  0  0  0  0  0
  140.7604   80.1328  224.6103 H   0  0  0  0  0  0  0  0  0  0  0  0
  142.1267   81.9281  222.9188 H   0  0  0  0  0  0  0  0  0  0  0  0
  142.5278   81.3117  224.5490 H   0  0  0  0  0  0  0  0  0  0  0  0
  143.8541   80.6895  222.1297 H   0  0  0  0  0  0  0  0  0  0  0  0
  144.0657   79.8536  223.6833 H   0  0  0  0  0  0  0  0  0  0  0  0
  142.8990   78.7540  221.4130 H   0  0  0  0  0  0  0  0  0  0  0  0
  140.6721   78.9825  221.8399 H   0  0  0  0  0  0  0  0  0  0  0  0
  141.0711   78.1158  223.3594 H   0  0  0  0  0  0  0  0  0  0  0  0
  142.9255   79.1982  217.3986 H   0  0  0  0  0  0  0  0  0  0  0  0
  144.0129   76.9673  217.1989 H   0  0  0  0  0  0  0  0  0  0  0  0
  144.3395   74.6630  218.0463 H   0  0  0  0  0  0  0  0  0  0  0  0
  142.1871   73.4509  221.5754 H   0  0  0  0  0  0  0  0  0  0  0  0
  141.1124   75.7062  221.7387 H   0  0  0  0  0  0  0  0  0  0  0  0
  1  2  2  0
  2  3  1  0
  3  4  1  0
  4  5  1  0
  5  6  2  0
  5  7  1  0
  7  8  1  0
  8  9  1  0
  9 10  1  0
 10 11  1  0
 11 12  1  0
 12 13  1  0
 13 14  1  0
 14 15  1  0
 15 16  1  0
  2 17  1  0
 17 18  2  0
 18 19  1  0
 19 20  2  0
 20 21  1  0
 21 22  2  0
 22 23  1  0
 22 24  1  0
 24 25  2  0
 25 26  1  0
 26 27  2  0
 11  7  1  0
 16 12  1  0
 27 17  1  0
 26 20  1  0
  3 28  1  0
  4 29  1  0
  4 30  1  0
  8 31  1  0
  8 32  1  0
  9 33  1  0
  9 34  1  0
 10 35  1  0
 10 36  1  0
 11 37  1  1
 12 38  1  1
 13 39  1  0
 13 40  1  0
 14 41  1  0
 14 42  1  0
 15 43  1  0
 16 44  1  0
 16 45  1  0
 18 46  1  0
 19 47  1  0
 21 48  1  0
 24 49  1  0
 25 50  1  0
M  END
>  <smiles>  (98) 
O=C(NCC(=O)N1CCCC1C1CCNC1)c1ccc2cc(F)ccc2n1

>  <score_type>  (98) 
oracle

>  <origin>  (98) 
autodockgpu

>  <m_score__min__energy>  (98) 
-8.6099999999999994

>  <m_primary>  (98) 
energy

>  <rmsd>  (98) 
8.882547093015909

>  <m_score__min__rmsd>  (98) 
8.882547093015909

>  <meeko>  (98) 
{"free_energy": -5.96, "intermolecular_energy": -7.45, "internal_energy": -3.17, "cluster_size": 21, "cluster_id": 5, "rank_in_cluster": 14}

>  <energy>  (98) 
-5.84

>  <cluster_rmsd>  (98) 
1.44

>  <cluster>  (98) 
5

$$$$

     RDKit          3D

 50 53  0  0  0  0  0  0  0  0999 V2000
  139.4800   79.5300  219.8540 O   0  0  0  0  0  0  0  0  0  0  0  0
  140.6410   79.1870  220.2030 C   0  0  0  0  0  0  0  0  0  0  0  0
  141.5850   80.2590  220.4860 N   0  0  0  0  0  0  0  0  0  0  0  0
  141.0910   81.5670  220.3370 C   0  0  0  0  0  0  0  0  0  0  0  0
  140.1990   82.1840  221.3030 C   0  0  0  0  0  0  0  0  0  0  0  0
  140.0780   83.4760  221.1250 O   0  0  0  0  0  0  0  0  0  0  0  0
  139.4480   81.6780  222.3780 N   0  0  0  0  0  0  0  0  0  0  0  0
  137.9960   81.8890  222.4840 C   0  0  0  0  0  0  0  0  0  0  0  0
  137.5890   80.9310  223.5950 C   0  0  0  0  0  0  0  0  0  0  0  0
  138.7450   79.9110  223.6350 C   0  0  0  0  0  0  0  0  0  0  0  0
  139.8800   80.9570  223.5040 C   0  0  1  0  0  0  0  0  0  0  0  0
  141.1810   80.4340  223.7980 C   0  0  2  0  0  0  0  0  0  0  0  0
  142.4260   81.1840  223.6120 C   0  0  0  0  0  0  0  0  0  0  0  0
  143.4810   80.2350  223.0950 C   0  0  0  0  0  0  0  0  0  0  0  0
  142.8120   79.0170  222.7580 N   0  0  0  0  0  0  0  0  0  0  0  0
  141.4570   79.0710  223.1820 C   0  0  0  0  0  0  0  0  0  0  0  0
  141.0550   77.8030  220.3280 C   0  0  0  0  0  0  0  0  0  0  0  0
  140.1130   76.8970  220.7620 C   0  0  0  0  0  0  0  0  0  0  0  0
  140.5120   75.5810  220.8790 C   0  0  0  0  0  0  0  0  0  0  0  0
  141.8160   75.1800  220.5710 C   0  0  0  0  0  0  0  0  0  0  0  0
  142.2260   73.8710  220.6830 C   0  0  0  0  0  0  0  0  0  0  0  0
  143.5300   73.5760  220.3550 C   0  0  0  0  0  0  0  0  0  0  0  0
  143.9950   72.2930  220.4470 F   0  0  0  0  0  0  0  0  0  0  0  0
  144.4220   74.5410  219.9240 C   0  0  0  0  0  0  0  0  0  0  0  0
  144.0210   75.8550  219.8090 C   0  0  0  0  0  0  0  0  0  0  0  0
  142.7130   76.1380  220.1400 C   0  0  0  0  0  0  0  0  0  0  0  0
  142.3260   77.4240  220.0250 N   0  0  0  0  0  0  0  0  0  0  0  0
  142.5100   79.9120  220.7800 H   0  0  0  0  0  0  0  0  0  0  0  0
  141.9736   82.2207  220.2768 H   0  0  0  0  0  0  0  0  0  0  0  0
  140.4324   81.4585  219.4627 H   0  0  0  0  0  0  0  0  0  0  0  0
  137.7669   82.9299  222.7563 H   0  0  0  0  0  0  0  0  0  0  0  0
  137.4623   81.7079  221.5393 H   0  0  0  0  0  0  0  0  0  0  0  0
  137.4979   81.4593  224.5555 H   0  0  0  0  0  0  0  0  0  0  0  0
  136.6102   80.4614  223.4175 H   0  0  0  0  0  0  0  0  0  0  0  0
  138.7877   79.3525  224.5817 H   0  0  0  0  0  0  0  0  0  0  0  0
  138.7234   79.0955  222.8970 H   0  0  0  0  0  0  0  0  0  0  0  0
  140.0747   81.7340  224.2580 H   0  0  0  0  0  0  0  0  0  0  0  0
  141.0000   80.4623  224.8826 H   0  0  0  0  0  0  0  0  0  0  0  0
  142.2667   81.9942  222.8852 H   0  0  0  0  0  0  0  0  0  0  0  0
  142.7486   81.6241  224.5671 H   0  0  0  0  0  0  0  0  0  0  0  0
  143.9676   80.6587  222.2041 H   0  0  0  0  0  0  0  0  0  0  0  0
  144.2601   80.0609  223.8517 H   0  0  0  0  0  0  0  0  0  0  0  0
  143.0000   78.6360  221.8240 H   0  0  0  0  0  0  0  0  0  0  0  0
  140.7944   78.9166  222.3177 H   0  0  0  0  0  0  0  0  0  0  0  0
  141.2707   78.2835  223.9271 H   0  0  0  0  0  0  0  0  0  0  0  0
  139.0865   77.2089  221.0050 H   0  0  0  0  0  0  0  0  0  0  0  0
  139.7866   74.8290  221.2229 H   0  0  0  0  0  0  0  0  0  0  0  0
  141.5344   73.0863  221.0234 H   0  0  0  0  0  0  0  0  0  0  0  0
  145.4550   74.2591  219.6721 H   0  0  0  0  0  0  0  0  0  0  0  0
  144.7120   76.6405  219.4692 H   0  0  0  0  0  0  0  0  0  0  0  0
  1  2  2  0
  2  3  1  0
  3  4  1  0
  4  5  1  0
  5  6  2  0
  5  7  1  0
  7  8  1  0
  8  9  1  0
  9 10  1  0
 10 11  1  0
 11 12  1  0
 12 13  1  0
 13 14  1  0
 14 15  1  0
 15 16  1  0
  2 17  1  0
 17 18  2  0
 18 19  1  0
 19 20  2  0
 20 21  1  0
 21 22  2  0
 22 23  1  0
 22 24  1  0
 24 25  2  0
 25 26  1  0
 26 27  2  0
 11  7  1  0
 16 12  1  0
 27 17  1  0
 26 20  1  0
  3 28  1  0
  4 29  1  0
  4 30  1  0
  8 31  1  0
  8 32  1  0
  9 33  1  0
  9 34  1  0
 10 35  1  0
 10 36  1  0
 11 37  1  1
 12 38  1  1
 13 39  1  0
 13 40  1  0
 14 41  1  0
 14 42  1  0
 15 43  1  0
 16 44  1  0
 16 45  1  0
 18 46  1  0
 19 47  1  0
 21 48  1  0
 24 49  1  0
 25 50  1  0
M  END
>  <smiles>  (99) 
O=C(NCC(=O)N1CCCC1C1CCNC1)c1ccc2cc(F)ccc2n1

>  <score_type>  (99) 
oracle

>  <origin>  (99) 
autodockgpu

>  <m_score__min__energy>  (99) 
-8.6099999999999994

>  <m_primary>  (99) 
energy

>  <rmsd>  (99) 
8.20792995166681

>  <m_score__min__rmsd>  (99) 
8.20792995166681

>  <meeko>  (99) 
{"free_energy": -6.08, "intermolecular_energy": -7.57, "internal_energy": -3.32, "cluster_size": 21, "cluster_id": 5, "rank_in_cluster": 5}

>  <energy>  (99) 
-5.81

>  <cluster_rmsd>  (99) 
0.35

>  <cluster>  (99) 
5

$$$$

     RDKit          3D

 50 53  0  0  0  0  0  0  0  0999 V2000
  141.3860   72.5410  221.6250 O   0  0  0  0  0  0  0  0  0  0  0  0
  140.4560   72.6380  222.4700 C   0  0  0  0  0  0  0  0  0  0  0  0
  139.5800   73.7940  222.3530 N   0  0  0  0  0  0  0  0  0  0  0  0
  139.8710   74.6810  221.3010 C   0  0  0  0  0  0  0  0  0  0  0  0
  140.4870   75.9780  221.5150 C   0  0  0  0  0  0  0  0  0  0  0  0
  140.1520   76.5130  222.6610 O   0  0  0  0  0  0  0  0  0  0  0  0
  141.3620   76.7640  220.7450 N   0  0  0  0  0  0  0  0  0  0  0  0
  142.0360   76.2380  219.5470 C   0  0  0  0  0  0  0  0  0  0  0  0
  142.6070   77.4900  218.8960 C   0  0  0  0  0  0  0  0  0  0  0  0
  141.7590   78.6300  219.4960 C   0  0  0  0  0  0  0  0  0  0  0  0
  141.7790   78.0900  220.9480 C   0  0  1  0  0  0  0  0  0  0  0  0
  141.3290   79.0410  221.9210 C   0  0  2  0  0  0  0  0  0  0  0  0
  141.3510   80.4930  221.7190 C   0  0  0  0  0  0  0  0  0  0  0  0
  141.7410   81.1490  223.0220 C   0  0  0  0  0  0  0  0  0  0  0  0
  142.1720   80.1040  223.8980 N   0  0  0  0  0  0  0  0  0  0  0  0
  141.9200   78.8370  223.3080 C   0  0  0  0  0  0  0  0  0  0  0  0
  140.2380   71.6650  223.5230 C   0  0  0  0  0  0  0  0  0  0  0  0
  139.5590   70.5130  223.1900 C   0  0  0  0  0  0  0  0  0  0  0  0
  139.3550   69.5900  224.1950 C   0  0  0  0  0  0  0  0  0  0  0  0
  139.8150   69.8100  225.4970 C   0  0  0  0  0  0  0  0  0  0  0  0
  139.6180   68.8980  226.5090 C   0  0  0  0  0  0  0  0  0  0  0  0
  140.1090   69.2050  227.7570 C   0  0  0  0  0  0  0  0  0  0  0  0
  139.9440   68.3380  228.8010 F   0  0  0  0  0  0  0  0  0  0  0  0
  140.7830   70.3840  228.0170 C   0  0  0  0  0  0  0  0  0  0  0  0
  140.9860   71.3050  227.0110 C   0  0  0  0  0  0  0  0  0  0  0  0
  140.4890   70.9850  225.7660 C   0  0  0  0  0  0  0  0  0  0  0  0
  140.6900   71.8880  224.7860 N   0  0  0  0  0  0  0  0  0  0  0  0
  138.8330   73.8060  223.0640 H   0  0  0  0  0  0  0  0  0  0  0  0
  140.5398   74.1353  220.6191 H   0  0  0  0  0  0  0  0  0  0  0  0
  138.8632   74.9659  220.9646 H   0  0  0  0  0  0  0  0  0  0  0  0
  142.8364   75.5348  219.8207 H   0  0  0  0  0  0  0  0  0  0  0  0
  141.3632   75.6739  218.8843 H   0  0  0  0  0  0  0  0  0  0  0  0
  143.6698   77.6152  219.1507 H   0  0  0  0  0  0  0  0  0  0  0  0
  142.5638   77.4580  217.7973 H   0  0  0  0  0  0  0  0  0  0  0  0
  142.2403   79.6145  219.4009 H   0  0  0  0  0  0  0  0  0  0  0  0
  140.7752   78.8195  219.0419 H   0  0  0  0  0  0  0  0  0  0  0  0
  142.6993   77.9893  221.5421 H   0  0  0  0  0  0  0  0  0  0  0  0
  140.2752   78.7581  221.7816 H   0  0  0  0  0  0  0  0  0  0  0  0
  142.0844   80.7488  220.9401 H   0  0  0  0  0  0  0  0  0  0  0  0
  140.3590   80.8456  221.4001 H   0  0  0  0  0  0  0  0  0  0  0  0
  142.5592   81.8651  222.8554 H   0  0  0  0  0  0  0  0  0  0  0  0
  140.8942   81.7023  223.4543 H   0  0  0  0  0  0  0  0  0  0  0  0
  143.0780   80.2400  224.3590 H   0  0  0  0  0  0  0  0  0  0  0  0
  142.8618   78.2744  223.2277 H   0  0  0  0  0  0  0  0  0  0  0  0
  141.2121   78.2722  223.9325 H   0  0  0  0  0  0  0  0  0  0  0  0
  139.1953   70.3369  222.1669 H   0  0  0  0  0  0  0  0  0  0  0  0
  138.8172   68.6581  223.9664 H   0  0  0  0  0  0  0  0  0  0  0  0
  139.0848   67.9535  226.3257 H   0  0  0  0  0  0  0  0  0  0  0  0
  141.1588   70.5881  229.0305 H   0  0  0  0  0  0  0  0  0  0  0  0
  141.5190   72.2498  227.1934 H   0  0  0  0  0  0  0  0  0  0  0  0
  1  2  2  0
  2  3  1  0
  3  4  1  0
  4  5  1  0
  5  6  2  0
  5  7  1  0
  7  8  1  0
  8  9  1  0
  9 10  1  0
 10 11  1  0
 11 12  1  0
 12 13  1  0
 13 14  1  0
 14 15  1  0
 15 16  1  0
  2 17  1  0
 17 18  2  0
 18 19  1  0
 19 20  2  0
 20 21  1  0
 21 22  2  0
 22 23  1  0
 22 24  1  0
 24 25  2  0
 25 26  1  0
 26 27  2  0
 11  7  1  0
 16 12  1  0
 27 17  1  0
 26 20  1  0
  3 28  1  0
  4 29  1  0
  4 30  1  0
  8 31  1  0
  8 32  1  0
  9 33  1  0
  9 34  1  0
 10 35  1  0
 10 36  1  0
 11 37  1  1
 12 38  1  1
 13 39  1  0
 13 40  1  0
 14 41  1  0
 14 42  1  0
 15 43  1  0
 16 44  1  0
 16 45  1  0
 18 46  1  0
 19 47  1  0
 21 48  1  0
 24 49  1  0
 25 50  1  0
M  END
>  <smiles>  (100) 
O=C(NCC(=O)N1CCCC1C1CCNC1)c1ccc2cc(F)ccc2n1

>  <score_type>  (100) 
oracle

>  <origin>  (100) 
autodockgpu

>  <m_score__min__energy>  (100) 
-8.6099999999999994

>  <m_primary>  (100) 
energy

>  <rmsd>  (100) 
2.041680337339905

>  <m_score__min__rmsd>  (100) 
2.041680337339905

>  <meeko>  (100) 
{"free_energy": -8.33, "intermolecular_energy": -9.82, "internal_energy": -1.04, "cluster_size": 5, "cluster_id": 2, "rank_in_cluster": 1}

>  <energy>  (100) 
-5.74

>  <cluster_rmsd>  (100) 
1.08

>  <cluster>  (100) 
5

$$$$

     RDKit          3D

 50 53  0  0  0  0  0  0  0  0999 V2000
  140.1020   71.7440  220.9250 O   0  0  0  0  0  0  0  0  0  0  0  0
  139.9100   72.2440  222.0640 C   0  0  0  0  0  0  0  0  0  0  0  0
  139.7040   73.6500  222.2130 N   0  0  0  0  0  0  0  0  0  0  0  0
  139.7110   74.5410  221.0520 C   0  0  0  0  0  0  0  0  0  0  0  0
  140.2200   75.8720  221.4910 C   0  0  0  0  0  0  0  0  0  0  0  0
  140.4080   76.0240  222.7150 O   0  0  0  0  0  0  0  0  0  0  0  0
  140.4460   76.8400  220.4920 N   0  0  0  0  0  0  0  0  0  0  0  0
  140.0830   76.7550  219.0540 C   0  0  0  0  0  0  0  0  0  0  0  0
  141.4250   77.1630  218.4520 C   0  0  0  0  0  0  0  0  0  0  0  0
  142.1740   77.9410  219.5470 C   0  0  0  0  0  0  0  0  0  0  0  0
  141.0900   78.1510  220.5540 C   0  0  2  0  0  0  0  0  0  0  0  0
  141.4840   78.6130  221.8970 C   0  0  1  0  0  0  0  0  0  0  0  0
  142.1670   79.9940  221.8580 C   0  0  0  0  0  0  0  0  0  0  0  0
  141.9360   80.4140  223.3090 C   0  0  0  0  0  0  0  0  0  0  0  0
  140.7510   79.7060  223.7610 N   0  0  0  0  0  0  0  0  0  0  0  0
  140.1850   79.0730  222.6040 C   0  0  0  0  0  0  0  0  0  0  0  0
  139.8880   71.4140  223.2850 C   0  0  0  0  0  0  0  0  0  0  0  0
  139.3880   70.1220  223.1680 C   0  0  0  0  0  0  0  0  0  0  0  0
  139.3760   69.3630  224.3190 C   0  0  0  0  0  0  0  0  0  0  0  0
  139.8300   69.8340  225.5300 C   0  0  0  0  0  0  0  0  0  0  0  0
  139.8330   69.1130  226.6920 C   0  0  0  0  0  0  0  0  0  0  0  0
  140.2950   69.6180  227.8910 C   0  0  0  0  0  0  0  0  0  0  0  0
  140.2830   68.8590  229.0360 F   0  0  0  0  0  0  0  0  0  0  0  0
  140.7880   70.9250  227.9550 C   0  0  0  0  0  0  0  0  0  0  0  0
  140.7810   71.6460  226.7790 C   0  0  0  0  0  0  0  0  0  0  0  0
  140.3190   71.1410  225.5820 C   0  0  0  0  0  0  0  0  0  0  0  0
  140.3330   71.8880  224.4610 N   0  0  0  0  0  0  0  0  0  0  0  0
  139.5450   74.0350  223.1920 H   0  0  0  0  0  0  0  0  0  0  0  0
  140.3676   74.1301  220.2709 H   0  0  0  0  0  0  0  0  0  0  0  0
  138.6953   74.6386  220.6411 H   0  0  0  0  0  0  0  0  0  0  0  0
  139.7908   75.7359  218.7607 H   0  0  0  0  0  0  0  0  0  0  0  0
  139.2188   77.3613  218.7448 H   0  0  0  0  0  0  0  0  0  0  0  0
  141.9979   76.2706  218.1599 H   0  0  0  0  0  0  0  0  0  0  0  0
  141.2870   77.7773  217.5500 H   0  0  0  0  0  0  0  0  0  0  0  0
  143.0024   77.3503  219.9650 H   0  0  0  0  0  0  0  0  0  0  0  0
  142.6467   78.8698  219.1951 H   0  0  0  0  0  0  0  0  0  0  0  0
  140.4376   79.0062  220.3237 H   0  0  0  0  0  0  0  0  0  0  0  0
  142.0909   77.8077  222.3365 H   0  0  0  0  0  0  0  0  0  0  0  0
  143.2373   79.9184  221.6156 H   0  0  0  0  0  0  0  0  0  0  0  0
  141.7850   80.6901  221.0968 H   0  0  0  0  0  0  0  0  0  0  0  0
  142.8027   80.1370  223.9271 H   0  0  0  0  0  0  0  0  0  0  0  0
  141.8036   81.5029  223.3911 H   0  0  0  0  0  0  0  0  0  0  0  0
  140.0560   80.4090  224.1190 H   0  0  0  0  0  0  0  0  0  0  0  0
  139.5431   78.2220  222.8756 H   0  0  0  0  0  0  0  0  0  0  0  0
  139.5256   79.7121  221.9984 H   0  0  0  0  0  0  0  0  0  0  0  0
  139.0218   69.7267  222.2090 H   0  0  0  0  0  0  0  0  0  0  0  0
  138.9864   68.3356  224.2672 H   0  0  0  0  0  0  0  0  0  0  0  0
  139.4493   68.0823  226.6704 H   0  0  0  0  0  0  0  0  0  0  0  0
  141.1623   71.3562  228.8952 H   0  0  0  0  0  0  0  0  0  0  0  0
  141.1638   72.6771  226.7971 H   0  0  0  0  0  0  0  0  0  0  0  0
  1  2  2  0
  2  3  1  0
  3  4  1  0
  4  5  1  0
  5  6  2  0
  5  7  1  0
  7  8  1  0
  8  9  1  0
  9 10  1  0
 10 11  1  0
 11 12  1  0
 12 13  1  0
 13 14  1  0
 14 15  1  0
 15 16  1  0
  2 17  1  0
 17 18  2  0
 18 19  1  0
 19 20  2  0
 20 21  1  0
 21 22  2  0
 22 23  1  0
 22 24  1  0
 24 25  2  0
 25 26  1  0
 26 27  2  0
 11  7  1  0
 16 12  1  0
 27 17  1  0
 26 20  1  0
  3 28  1  0
  4 29  1  0
  4 30  1  0
  8 31  1  0
  8 32  1  0
  9 33  1  0
  9 34  1  0
 10 35  1  0
 10 36  1  0
 11 37  1  6
 12 38  1  1
 13 39  1  0
 13 40  1  0
 14 41  1  0
 14 42  1  0
 15 43  1  0
 16 44  1  0
 16 45  1  0
 18 46  1  0
 19 47  1  0
 21 48  1  0
 24 49  1  0
 25 50  1  0
M  END
>  <smiles>  (101) 
O=C(NCC(=O)N1CCCC1C1CCNC1)c1ccc2cc(F)ccc2n1

>  <score_type>  (101) 
oracle

>  <origin>  (101) 
autodockgpu

>  <m_score__min__energy>  (101) 
-8.0399999999999991

>  <m_primary>  (101) 
energy

>  <rmsd>  (101) 
1.590531578537903

>  <m_score__min__rmsd>  (101) 
1.590531578537903

>  <meeko>  (101) 
{"free_energy": -7.58, "intermolecular_energy": -9.07, "internal_energy": -1.78, "cluster_size": 19, "cluster_id": 1, "rank_in_cluster": 11}

>  <energy>  (101) 
-8.04

>  <cluster_rmsd>  (101) 
0.0

>  <cluster>  (101) 
1

$$$$

     RDKit          3D

 50 53  0  0  0  0  0  0  0  0999 V2000
  140.6930   71.7220  220.9990 O   0  0  0  0  0  0  0  0  0  0  0  0
  140.2820   72.2330  222.0730 C   0  0  0  0  0  0  0  0  0  0  0  0
  139.9650   73.6250  222.1390 N   0  0  0  0  0  0  0  0  0  0  0  0
  140.1080   74.4880  220.9660 C   0  0  0  0  0  0  0  0  0  0  0  0
  140.9050   75.6830  221.3650 C   0  0  0  0  0  0  0  0  0  0  0  0
  140.5900   76.2340  222.4380 O   0  0  0  0  0  0  0  0  0  0  0  0
  141.9430   76.0860  220.4990 N   0  0  0  0  0  0  0  0  0  0  0  0
  142.0490   77.3660  219.7520 C   0  0  0  0  0  0  0  0  0  0  0  0
  142.3700   76.8010  218.3710 C   0  0  0  0  0  0  0  0  0  0  0  0
  142.9430   75.3920  218.6000 C   0  0  0  0  0  0  0  0  0  0  0  0
  143.1630   75.4000  220.0780 C   0  0  2  0  0  0  0  0  0  0  0  0
  143.4350   74.1090  220.7360 C   0  0  1  0  0  0  0  0  0  0  0  0
  143.2180   72.9170  219.7840 C   0  0  0  0  0  0  0  0  0  0  0  0
  144.0700   71.8750  220.5090 C   0  0  0  0  0  0  0  0  0  0  0  0
  145.0780   72.6120  221.2520 N   0  0  0  0  0  0  0  0  0  0  0  0
  144.9750   73.9820  220.8370 C   0  0  0  0  0  0  0  0  0  0  0  0
  140.1100   71.4310  223.3010 C   0  0  0  0  0  0  0  0  0  0  0  0
  139.4780   70.1990  223.1730 C   0  0  0  0  0  0  0  0  0  0  0  0
  139.3270   69.4650  224.3300 C   0  0  0  0  0  0  0  0  0  0  0  0
  139.7690   69.9040  225.5570 C   0  0  0  0  0  0  0  0  0  0  0  0
  139.6360   69.2060  226.7250 C   0  0  0  0  0  0  0  0  0  0  0  0
  140.0910   69.6780  227.9410 C   0  0  0  0  0  0  0  0  0  0  0  0
  139.9390   68.9440  229.0920 F   0  0  0  0  0  0  0  0  0  0  0  0
  140.7200   70.9250  228.0150 C   0  0  0  0  0  0  0  0  0  0  0  0
  140.8490   71.6230  226.8320 C   0  0  0  0  0  0  0  0  0  0  0  0
  140.3950   71.1510  225.6200 C   0  0  0  0  0  0  0  0  0  0  0  0
  140.5450   71.8730  224.4920 N   0  0  0  0  0  0  0  0  0  0  0  0
  139.6200   74.0190  223.0650 H   0  0  0  0  0  0  0  0  0  0  0  0
  140.6280   73.9438  220.1638 H   0  0  0  0  0  0  0  0  0  0  0  0
  139.1188   74.7957  220.5962 H   0  0  0  0  0  0  0  0  0  0  0  0
  141.1039   77.9289  219.7593 H   0  0  0  0  0  0  0  0  0  0  0  0
  142.7742   78.0910  220.1502 H   0  0  0  0  0  0  0  0  0  0  0  0
  141.4563   76.7455  217.7610 H   0  0  0  0  0  0  0  0  0  0  0  0
  143.0870   77.4406  217.8355 H   0  0  0  0  0  0  0  0  0  0  0  0
  142.2251   74.6127  218.3043 H   0  0  0  0  0  0  0  0  0  0  0  0
  143.8464   75.1728  218.0120 H   0  0  0  0  0  0  0  0  0  0  0  0
  144.1033   75.8854  220.3784 H   0  0  0  0  0  0  0  0  0  0  0  0
  142.8229   74.0907  221.6498 H   0  0  0  0  0  0  0  0  0  0  0  0
  142.1603   72.6197  219.7295 H   0  0  0  0  0  0  0  0  0  0  0  0
  143.4838   73.0969  218.7319 H   0  0  0  0  0  0  0  0  0  0  0  0
  143.4460   71.2856  221.1969 H   0  0  0  0  0  0  0  0  0  0  0  0
  144.5324   71.1743  219.7982 H   0  0  0  0  0  0  0  0  0  0  0  0
  146.0280   72.2580  220.9730 H   0  0  0  0  0  0  0  0  0  0  0  0
  145.3943   74.6695  221.5864 H   0  0  0  0  0  0  0  0  0  0  0  0
  145.5248   74.2334  219.9180 H   0  0  0  0  0  0  0  0  0  0  0  0
  139.1181   69.8301  222.2012 H   0  0  0  0  0  0  0  0  0  0  0  0
  138.8312   68.4849  224.2698 H   0  0  0  0  0  0  0  0  0  0  0  0
  139.1438   68.2227  226.6951 H   0  0  0  0  0  0  0  0  0  0  0  0
  141.0929   71.3287  228.9679 H   0  0  0  0  0  0  0  0  0  0  0  0
  141.3397   72.6072  226.8579 H   0  0  0  0  0  0  0  0  0  0  0  0
  1  2  2  0
  2  3  1  0
  3  4  1  0
  4  5  1  0
  5  6  2  0
  5  7  1  0
  7  8  1  0
  8  9  1  0
  9 10  1  0
 10 11  1  0
 11 12  1  0
 12 13  1  0
 13 14  1  0
 14 15  1  0
 15 16  1  0
  2 17  1  0
 17 18  2  0
 18 19  1  0
 19 20  2  0
 20 21  1  0
 21 22  2  0
 22 23  1  0
 22 24  1  0
 24 25  2  0
 25 26  1  0
 26 27  2  0
 11  7  1  0
 16 12  1  0
 27 17  1  0
 26 20  1  0
  3 28  1  0
  4 29  1  0
  4 30  1  0
  8 31  1  0
  8 32  1  0
  9 33  1  0
  9 34  1  0
 10 35  1  0
 10 36  1  0
 11 37  1  6
 12 38  1  1
 13 39  1  0
 13 40  1  0
 14 41  1  0
 14 42  1  0
 15 43  1  0
 16 44  1  0
 16 45  1  0
 18 46  1  0
 19 47  1  0
 21 48  1  0
 24 49  1  0
 25 50  1  0
M  END
>  <smiles>  (102) 
O=C(NCC(=O)N1CCCC1C1CCNC1)c1ccc2cc(F)ccc2n1

>  <score_type>  (102) 
oracle

>  <origin>  (102) 
autodockgpu

>  <m_score__min__energy>  (102) 
-8.0399999999999991

>  <m_primary>  (102) 
energy

>  <rmsd>  (102) 
2.2450274314585807

>  <m_score__min__rmsd>  (102) 
2.2450274314585807

>  <meeko>  (102) 
{"free_energy": -7.8, "intermolecular_energy": -9.3, "internal_energy": -1.87, "cluster_size": 15, "cluster_id": 2, "rank_in_cluster": 7}

>  <energy>  (102) 
-7.88

>  <cluster_rmsd>  (102) 
0.61

>  <cluster>  (102) 
1

$$$$

     RDKit          3D

 50 53  0  0  0  0  0  0  0  0999 V2000
  134.7050   68.4750  225.1770 O   0  0  0  0  0  0  0  0  0  0  0  0
  135.0760   69.6680  225.0290 C   0  0  0  0  0  0  0  0  0  0  0  0
  136.2190   69.9780  224.2290 N   0  0  0  0  0  0  0  0  0  0  0  0
  136.9850   68.9220  223.5660 C   0  0  0  0  0  0  0  0  0  0  0  0
  138.3520   68.8970  224.1610 C   0  0  0  0  0  0  0  0  0  0  0  0
  138.8500   67.7730  224.3730 O   0  0  0  0  0  0  0  0  0  0  0  0
  138.9630   70.1380  224.4300 N   0  0  0  0  0  0  0  0  0  0  0  0
  138.9870   71.3410  223.5580 C   0  0  0  0  0  0  0  0  0  0  0  0
  140.4830   71.6380  223.6180 C   0  0  0  0  0  0  0  0  0  0  0  0
  141.0110   70.9640  224.8950 C   0  0  0  0  0  0  0  0  0  0  0  0
  139.7350   70.5980  225.5830 C   0  0  2  0  0  0  0  0  0  0  0  0
  139.8150   69.6620  226.7200 C   0  0  1  0  0  0  0  0  0  0  0  0
  140.7500   68.4730  226.4260 C   0  0  0  0  0  0  0  0  0  0  0  0
  141.0540   68.0490  227.8630 C   0  0  0  0  0  0  0  0  0  0  0  0
  140.8910   69.2350  228.6860 N   0  0  0  0  0  0  0  0  0  0  0  0
  140.7110   70.3380  227.7860 C   0  0  0  0  0  0  0  0  0  0  0  0
  134.3580   70.7910  225.6640 C   0  0  0  0  0  0  0  0  0  0  0  0
  133.3240   70.4740  226.5380 C   0  0  0  0  0  0  0  0  0  0  0  0
  132.6660   71.5360  227.1210 C   0  0  0  0  0  0  0  0  0  0  0  0
  132.9950   72.8480  226.8680 C   0  0  0  0  0  0  0  0  0  0  0  0
  132.3660   73.9270  227.4250 C   0  0  0  0  0  0  0  0  0  0  0  0
  132.7220   75.2330  227.1490 C   0  0  0  0  0  0  0  0  0  0  0  0
  132.0650   76.2880  227.7320 F   0  0  0  0  0  0  0  0  0  0  0  0
  133.7700   75.4980  226.2610 C   0  0  0  0  0  0  0  0  0  0  0  0
  134.3980   74.4040  225.7030 C   0  0  0  0  0  0  0  0  0  0  0  0
  134.0420   73.1020  225.9800 C   0  0  0  0  0  0  0  0  0  0  0  0
  134.6890   72.0670  225.4070 N   0  0  0  0  0  0  0  0  0  0  0  0
  136.5010   70.9990  224.1280 H   0  0  0  0  0  0  0  0  0  0  0  0
  136.4929   67.9507  223.7219 H   0  0  0  0  0  0  0  0  0  0  0  0
  137.0438   69.1158  222.4848 H   0  0  0  0  0  0  0  0  0  0  0  0
  138.6500   71.1175  222.5350 H   0  0  0  0  0  0  0  0  0  0  0  0
  138.3250   72.1646  223.8639 H   0  0  0  0  0  0  0  0  0  0  0  0
  140.9884   71.2240  222.7330 H   0  0  0  0  0  0  0  0  0  0  0  0
  140.6732   72.7213  223.6322 H   0  0  0  0  0  0  0  0  0  0  0  0
  141.6120   70.0730  224.6609 H   0  0  0  0  0  0  0  0  0  0  0  0
  141.6802   71.5982  225.4951 H   0  0  0  0  0  0  0  0  0  0  0  0
  139.2871   71.4294  226.1470 H   0  0  0  0  0  0  0  0  0  0  0  0
  138.7795   69.3877  226.9699 H   0  0  0  0  0  0  0  0  0  0  0  0
  140.2418   67.6784  225.8600 H   0  0  0  0  0  0  0  0  0  0  0  0
  141.6278   68.7031  225.8042 H   0  0  0  0  0  0  0  0  0  0  0  0
  140.3531   67.2643  228.1841 H   0  0  0  0  0  0  0  0  0  0  0  0
  142.0717   67.6407  227.9506 H   0  0  0  0  0  0  0  0  0  0  0  0
  141.7790   69.3960  229.2240 H   0  0  0  0  0  0  0  0  0  0  0  0
  140.2024   71.1839  228.2716 H   0  0  0  0  0  0  0  0  0  0  0  0
  141.6409   70.7812  227.4001 H   0  0  0  0  0  0  0  0  0  0  0  0
  133.0459   69.4316  226.7527 H   0  0  0  0  0  0  0  0  0  0  0  0
  131.8421   71.3254  227.8188 H   0  0  0  0  0  0  0  0  0  0  0  0
  131.5376   73.7465  228.1258 H   0  0  0  0  0  0  0  0  0  0  0  0
  134.0775   76.5263  226.0201 H   0  0  0  0  0  0  0  0  0  0  0  0
  135.2259   74.5801  225.0005 H   0  0  0  0  0  0  0  0  0  0  0  0
  1  2  2  0
  2  3  1  0
  3  4  1  0
  4  5  1  0
  5  6  2  0
  5  7  1  0
  7  8  1  0
  8  9  1  0
  9 10  1  0
 10 11  1  0
 11 12  1  0
 12 13  1  0
 13 14  1  0
 14 15  1  0
 15 16  1  0
  2 17  1  0
 17 18  2  0
 18 19  1  0
 19 20  2  0
 20 21  1  0
 21 22  2  0
 22 23  1  0
 22 24  1  0
 24 25  2  0
 25 26  1  0
 26 27  2  0
 11  7  1  0
 16 12  1  0
 27 17  1  0
 26 20  1  0
  3 28  1  0
  4 29  1  0
  4 30  1  0
  8 31  1  0
  8 32  1  0
  9 33  1  0
  9 34  1  0
 10 35  1  0
 10 36  1  0
 11 37  1  1
 12 38  1  1
 13 39  1  0
 13 40  1  0
 14 41  1  0
 14 42  1  0
 15 43  1  0
 16 44  1  0
 16 45  1  0
 18 46  1  0
 19 47  1  0
 21 48  1  0
 24 49  1  0
 25 50  1  0
M  END
>  <smiles>  (103) 
O=C(NCC(=O)N1CCCC1C1CCNC1)c1ccc2cc(F)ccc2n1

>  <score_type>  (103) 
oracle

>  <origin>  (103) 
autodockgpu

>  <m_score__min__energy>  (103) 
-8.0399999999999991

>  <m_primary>  (103) 
energy

>  <rmsd>  (103) 
7.628047971151893

>  <m_score__min__rmsd>  (103) 
7.628047971151893

>  <meeko>  (103) 
{"free_energy": -7.57, "intermolecular_energy": -9.06, "internal_energy": -1.62, "cluster_size": 8, "cluster_id": 4, "rank_in_cluster": 4}

>  <energy>  (103) 
-7.85

>  <cluster_rmsd>  (103) 
1.33

>  <cluster>  (103) 
1

$$$$

     RDKit          3D

 50 53  0  0  0  0  0  0  0  0999 V2000
  141.1100   71.6870  221.1000 O   0  0  0  0  0  0  0  0  0  0  0  0
  140.5250   72.1940  222.0920 C   0  0  0  0  0  0  0  0  0  0  0  0
  140.0840   73.5520  222.0580 N   0  0  0  0  0  0  0  0  0  0  0  0
  140.3000   74.3860  220.8760 C   0  0  0  0  0  0  0  0  0  0  0  0
  140.9910   75.6340  221.3080 C   0  0  0  0  0  0  0  0  0  0  0  0
  140.5780   76.1700  222.3570 O   0  0  0  0  0  0  0  0  0  0  0  0
  142.0480   76.1010  220.5010 N   0  0  0  0  0  0  0  0  0  0  0  0
  142.1810   77.4410  219.8730 C   0  0  0  0  0  0  0  0  0  0  0  0
  142.5210   76.9970  218.4530 C   0  0  0  0  0  0  0  0  0  0  0  0
  143.0770   75.5670  218.5650 C   0  0  0  0  0  0  0  0  0  0  0  0
  143.2690   75.4410  220.0420 C   0  0  2  0  0  0  0  0  0  0  0  0
  143.5170   74.0940  220.5860 C   0  0  1  0  0  0  0  0  0  0  0  0
  143.4570   73.0080  219.4940 C   0  0  0  0  0  0  0  0  0  0  0  0
  144.2630   71.9170  220.2000 C   0  0  0  0  0  0  0  0  0  0  0  0
  145.1490   72.5950  221.1300 N   0  0  0  0  0  0  0  0  0  0  0  0
  145.0380   73.9990  220.8540 C   0  0  0  0  0  0  0  0  0  0  0  0
  140.2680   71.4190  223.3230 C   0  0  0  0  0  0  0  0  0  0  0  0
  139.5590   70.2310  223.1920 C   0  0  0  0  0  0  0  0  0  0  0  0
  139.3300   69.5220  224.3520 C   0  0  0  0  0  0  0  0  0  0  0  0
  139.7690   69.9450  225.5860 C   0  0  0  0  0  0  0  0  0  0  0  0
  139.5610   69.2720  226.7570 C   0  0  0  0  0  0  0  0  0  0  0  0
  140.0160   69.7260  227.9800 C   0  0  0  0  0  0  0  0  0  0  0  0
  139.7870   69.0170  229.1330 F   0  0  0  0  0  0  0  0  0  0  0  0
  140.7250   70.9300  228.0570 C   0  0  0  0  0  0  0  0  0  0  0  0
  140.9300   71.6030  226.8710 C   0  0  0  0  0  0  0  0  0  0  0  0
  140.4760   71.1480  225.6520 C   0  0  0  0  0  0  0  0  0  0  0  0
  140.7020   71.8450  224.5210 N   0  0  0  0  0  0  0  0  0  0  0  0
  139.5930   73.9440  222.9170 H   0  0  0  0  0  0  0  0  0  0  0  0
  140.9248   73.8468  220.1487 H   0  0  0  0  0  0  0  0  0  0  0  0
  139.3381   74.6287  220.4007 H   0  0  0  0  0  0  0  0  0  0  0  0
  141.2420   78.0124  219.9143 H   0  0  0  0  0  0  0  0  0  0  0  0
  142.9064   78.1190  220.3465 H   0  0  0  0  0  0  0  0  0  0  0  0
  141.6177   77.0056  217.8254 H   0  0  0  0  0  0  0  0  0  0  0  0
  143.2534   77.6738  217.9887 H   0  0  0  0  0  0  0  0  0  0  0  0
  142.3579   74.8249  218.1878 H   0  0  0  0  0  0  0  0  0  0  0  0
  143.9893   75.3914  217.9760 H   0  0  0  0  0  0  0  0  0  0  0  0
  144.2077   75.8874  220.4020 H   0  0  0  0  0  0  0  0  0  0  0  0
  142.8063   73.9584  221.4146 H   0  0  0  0  0  0  0  0  0  0  0  0
  142.4251   72.6891  219.2852 H   0  0  0  0  0  0  0  0  0  0  0  0
  143.8323   73.3094  218.5049 H   0  0  0  0  0  0  0  0  0  0  0  0
  143.5892   71.2382  220.7434 H   0  0  0  0  0  0  0  0  0  0  0  0
  144.8315   71.3124  219.4780 H   0  0  0  0  0  0  0  0  0  0  0  0
  146.1370   72.3000  220.9290 H   0  0  0  0  0  0  0  0  0  0  0  0
  145.3406   74.6109  221.7166 H   0  0  0  0  0  0  0  0  0  0  0  0
  145.6784   74.3653  220.0381 H   0  0  0  0  0  0  0  0  0  0  0  0
  139.1997   69.8754  222.2150 H   0  0  0  0  0  0  0  0  0  0  0  0
  138.7717   68.5763  224.2885 H   0  0  0  0  0  0  0  0  0  0  0  0
  139.0048   68.3236  226.7243 H   0  0  0  0  0  0  0  0  0  0  0  0
  141.0998   71.3198  229.0149 H   0  0  0  0  0  0  0  0  0  0  0  0
  141.4848   72.5524  226.8994 H   0  0  0  0  0  0  0  0  0  0  0  0
  1  2  2  0
  2  3  1  0
  3  4  1  0
  4  5  1  0
  5  6  2  0
  5  7  1  0
  7  8  1  0
  8  9  1  0
  9 10  1  0
 10 11  1  0
 11 12  1  0
 12 13  1  0
 13 14  1  0
 14 15  1  0
 15 16  1  0
  2 17  1  0
 17 18  2  0
 18 19  1  0
 19 20  2  0
 20 21  1  0
 21 22  2  0
 22 23  1  0
 22 24  1  0
 24 25  2  0
 25 26  1  0
 26 27  2  0
 11  7  1  0
 16 12  1  0
 27 17  1  0
 26 20  1  0
  3 28  1  0
  4 29  1  0
  4 30  1  0
  8 31  1  0
  8 32  1  0
  9 33  1  0
  9 34  1  0
 10 35  1  0
 10 36  1  0
 11 37  1  1
 12 38  1  1
 13 39  1  0
 13 40  1  0
 14 41  1  0
 14 42  1  0
 15 43  1  0
 16 44  1  0
 16 45  1  0
 18 46  1  0
 19 47  1  0
 21 48  1  0
 24 49  1  0
 25 50  1  0
M  END
>  <smiles>  (104) 
O=C(NCC(=O)N1CCCC1C1CCNC1)c1ccc2cc(F)ccc2n1

>  <score_type>  (104) 
oracle

>  <origin>  (104) 
autodockgpu

>  <m_score__min__energy>  (104) 
-8.0399999999999991

>  <m_primary>  (104) 
energy

>  <rmsd>  (104) 
2.337833887380401

>  <m_score__min__rmsd>  (104) 
2.337833887380401

>  <meeko>  (104) 
{"free_energy": -7.84, "intermolecular_energy": -9.33, "internal_energy": -1.79, "cluster_size": 15, "cluster_id": 2, "rank_in_cluster": 6}

>  <energy>  (104) 
-7.84

>  <cluster_rmsd>  (104) 
1.34

>  <cluster>  (104) 
1

$$$$

     RDKit          3D

 50 53  0  0  0  0  0  0  0  0999 V2000
  140.6890   73.3620  222.7080 O   0  0  0  0  0  0  0  0  0  0  0  0
  140.0750   72.2670  222.6220 C   0  0  0  0  0  0  0  0  0  0  0  0
  139.4030   71.9040  221.4150 N   0  0  0  0  0  0  0  0  0  0  0  0
  139.4090   72.7920  220.2520 C   0  0  0  0  0  0  0  0  0  0  0  0
  140.8250   73.0110  219.8420 C   0  0  0  0  0  0  0  0  0  0  0  0
  141.3570   72.1100  219.1610 O   0  0  0  0  0  0  0  0  0  0  0  0
  141.4400   74.2100  220.2540 N   0  0  0  0  0  0  0  0  0  0  0  0
  140.7890   75.3900  220.8800 C   0  0  0  0  0  0  0  0  0  0  0  0
  141.3780   76.4790  219.9870 C   0  0  0  0  0  0  0  0  0  0  0  0
  142.6590   75.8920  219.3710 C   0  0  0  0  0  0  0  0  0  0  0  0
  142.8330   74.6490  220.1830 C   0  0  2  0  0  0  0  0  0  0  0  0
  143.8000   73.6460  219.7010 C   0  0  1  0  0  0  0  0  0  0  0  0
  144.0450   73.7610  218.1840 C   0  0  0  0  0  0  0  0  0  0  0  0
  145.3990   73.0560  218.1080 C   0  0  0  0  0  0  0  0  0  0  0  0
  146.0220   73.2170  219.4100 N   0  0  0  0  0  0  0  0  0  0  0  0
  145.2000   74.1330  220.1480 C   0  0  0  0  0  0  0  0  0  0  0  0
  140.0220   71.3150  223.7500 C   0  0  0  0  0  0  0  0  0  0  0  0
  139.4040   70.0910  223.5220 C   0  0  0  0  0  0  0  0  0  0  0  0
  139.3650   69.2160  224.5860 C   0  0  0  0  0  0  0  0  0  0  0  0
  139.9020   69.5130  225.8190 C   0  0  0  0  0  0  0  0  0  0  0  0
  139.8820   68.6730  226.8970 C   0  0  0  0  0  0  0  0  0  0  0  0
  140.4300   69.0040  228.1210 C   0  0  0  0  0  0  0  0  0  0  0  0
  140.3900   68.1300  229.1790 F   0  0  0  0  0  0  0  0  0  0  0  0
  141.0410   70.2500  228.2990 C   0  0  0  0  0  0  0  0  0  0  0  0
  141.0560   71.0920  227.2050 C   0  0  0  0  0  0  0  0  0  0  0  0
  140.5090   70.7600  225.9850 C   0  0  0  0  0  0  0  0  0  0  0  0
  140.5490   71.6190  224.9480 N   0  0  0  0  0  0  0  0  0  0  0  0
  138.8960   70.9700  221.3820 H   0  0  0  0  0  0  0  0  0  0  0  0
  138.8495   72.3282  219.4262 H   0  0  0  0  0  0  0  0  0  0  0  0
  138.9330   73.7513  220.5034 H   0  0  0  0  0  0  0  0  0  0  0  0
  139.6923   75.3442  220.8081 H   0  0  0  0  0  0  0  0  0  0  0  0
  140.9633   75.5132  221.9591 H   0  0  0  0  0  0  0  0  0  0  0  0
  140.6641   76.7483  219.1947 H   0  0  0  0  0  0  0  0  0  0  0  0
  141.5947   77.3914  220.5620 H   0  0  0  0  0  0  0  0  0  0  0  0
  142.5230   75.6602  218.3043 H   0  0  0  0  0  0  0  0  0  0  0  0
  143.5235   76.5716  219.3977 H   0  0  0  0  0  0  0  0  0  0  0  0
  143.3208   74.8250  221.1531 H   0  0  0  0  0  0  0  0  0  0  0  0
  143.4274   72.6676  220.0384 H   0  0  0  0  0  0  0  0  0  0  0  0
  143.2736   73.2371  217.6005 H   0  0  0  0  0  0  0  0  0  0  0  0
  144.0192   74.7823  217.7761 H   0  0  0  0  0  0  0  0  0  0  0  0
  145.2593   71.9883  217.8831 H   0  0  0  0  0  0  0  0  0  0  0  0
  146.0258   73.4838  217.3117 H   0  0  0  0  0  0  0  0  0  0  0  0
  146.9660   73.6600  219.2800 H   0  0  0  0  0  0  0  0  0  0  0  0
  145.3427   74.0279  221.2336 H   0  0  0  0  0  0  0  0  0  0  0  0
  145.4048   75.1975  219.9612 H   0  0  0  0  0  0  0  0  0  0  0  0
  138.9693   69.8345  222.5446 H   0  0  0  0  0  0  0  0  0  0  0  0
  138.8837   68.2371  224.4442 H   0  0  0  0  0  0  0  0  0  0  0  0
  139.4073   67.6871  226.7846 H   0  0  0  0  0  0  0  0  0  0  0  0
  141.4864   70.5436  229.2610 H   0  0  0  0  0  0  0  0  0  0  0  0
  141.5292   72.0791  227.3131 H   0  0  0  0  0  0  0  0  0  0  0  0
  1  2  2  0
  2  3  1  0
  3  4  1  0
  4  5  1  0
  5  6  2  0
  5  7  1  0
  7  8  1  0
  8  9  1  0
  9 10  1  0
 10 11  1  0
 11 12  1  0
 12 13  1  0
 13 14  1  0
 14 15  1  0
 15 16  1  0
  2 17  1  0
 17 18  2  0
 18 19  1  0
 19 20  2  0
 20 21  1  0
 21 22  2  0
 22 23  1  0
 22 24  1  0
 24 25  2  0
 25 26  1  0
 26 27  2  0
 11  7  1  0
 16 12  1  0
 27 17  1  0
 26 20  1  0
  3 28  1  0
  4 29  1  0
  4 30  1  0
  8 31  1  0
  8 32  1  0
  9 33  1  0
  9 34  1  0
 10 35  1  0
 10 36  1  0
 11 37  1  1
 12 38  1  6
 13 39  1  0
 13 40  1  0
 14 41  1  0
 14 42  1  0
 15 43  1  0
 16 44  1  0
 16 45  1  0
 18 46  1  0
 19 47  1  0
 21 48  1  0
 24 49  1  0
 25 50  1  0
M  END
>  <smiles>  (105) 
O=C(NCC(=O)N1CCCC1C1CCNC1)c1ccc2cc(F)ccc2n1

>  <score_type>  (105) 
oracle

>  <origin>  (105) 
autodockgpu

>  <m_score__min__energy>  (105) 
-8.0399999999999991

>  <m_primary>  (105) 
energy

>  <rmsd>  (105) 
2.206001895665282

>  <m_score__min__rmsd>  (105) 
2.206001895665282

>  <meeko>  (105) 
{"free_energy": -7.39, "intermolecular_energy": -8.88, "internal_energy": -1.12, "cluster_size": 15, "cluster_id": 2, "rank_in_cluster": 13}

>  <energy>  (105) 
-7.84

>  <cluster_rmsd>  (105) 
1.33

>  <cluster>  (105) 
1

$$$$

     RDKit          3D

 50 53  0  0  0  0  0  0  0  0999 V2000
  140.7450   71.8930  221.0050 O   0  0  0  0  0  0  0  0  0  0  0  0
  140.2980   72.3670  222.0820 C   0  0  0  0  0  0  0  0  0  0  0  0
  139.9340   73.7460  222.1710 N   0  0  0  0  0  0  0  0  0  0  0  0
  140.0720   74.6390  221.0200 C   0  0  0  0  0  0  0  0  0  0  0  0
  141.0080   75.7370  221.3930 C   0  0  0  0  0  0  0  0  0  0  0  0
  140.8430   76.2570  222.5140 O   0  0  0  0  0  0  0  0  0  0  0  0
  141.9970   76.0910  220.4520 N   0  0  0  0  0  0  0  0  0  0  0  0
  142.0820   77.3460  219.6600 C   0  0  0  0  0  0  0  0  0  0  0  0
  142.3030   76.7320  218.2800 C   0  0  0  0  0  0  0  0  0  0  0  0
  142.8610   75.3190  218.5160 C   0  0  0  0  0  0  0  0  0  0  0  0
  143.1740   75.3660  219.9770 C   0  0  2  0  0  0  0  0  0  0  0  0
  143.4620   74.0890  220.6560 C   0  0  1  0  0  0  0  0  0  0  0  0
  143.2670   72.8790  219.7220 C   0  0  0  0  0  0  0  0  0  0  0  0
  144.1300   71.8620  220.4670 C   0  0  0  0  0  0  0  0  0  0  0  0
  145.1230   72.6240  221.2040 N   0  0  0  0  0  0  0  0  0  0  0  0
  145.0020   73.9860  220.7670 C   0  0  0  0  0  0  0  0  0  0  0  0
  140.1290   71.5330  223.2890 C   0  0  0  0  0  0  0  0  0  0  0  0
  139.4750   70.3160  223.1360 C   0  0  0  0  0  0  0  0  0  0  0  0
  139.3270   69.5520  224.2740 C   0  0  0  0  0  0  0  0  0  0  0  0
  139.7930   69.9500  225.5070 C   0  0  0  0  0  0  0  0  0  0  0  0
  139.6640   69.2210  226.6570 C   0  0  0  0  0  0  0  0  0  0  0  0
  140.1430   69.6510  227.8790 C   0  0  0  0  0  0  0  0  0  0  0  0
  139.9950   68.8870  229.0100 F   0  0  0  0  0  0  0  0  0  0  0  0
  140.7940   70.8850  227.9790 C   0  0  0  0  0  0  0  0  0  0  0  0
  140.9190   71.6140  226.8140 C   0  0  0  0  0  0  0  0  0  0  0  0
  140.4400   71.1840  225.5950 C   0  0  0  0  0  0  0  0  0  0  0  0
  140.5870   71.9350  224.4860 N   0  0  0  0  0  0  0  0  0  0  0  0
  139.5600   74.1090  223.0980 H   0  0  0  0  0  0  0  0  0  0  0  0
  140.4753   74.0812  220.1620 H   0  0  0  0  0  0  0  0  0  0  0  0
  139.0921   75.0532  220.7405 H   0  0  0  0  0  0  0  0  0  0  0  0
  141.1512   77.9302  219.7089 H   0  0  0  0  0  0  0  0  0  0  0  0
  142.8456   78.0662  219.9889 H   0  0  0  0  0  0  0  0  0  0  0  0
  141.3513   76.6781  217.7311 H   0  0  0  0  0  0  0  0  0  0  0  0
  142.9973   77.3392  217.6807 H   0  0  0  0  0  0  0  0  0  0  0  0
  142.1106   74.5471  218.2899 H   0  0  0  0  0  0  0  0  0  0  0  0
  143.7210   75.0630  217.8798 H   0  0  0  0  0  0  0  0  0  0  0  0
  144.1407   75.8396  220.2035 H   0  0  0  0  0  0  0  0  0  0  0  0
  142.8455   74.0760  221.5669 H   0  0  0  0  0  0  0  0  0  0  0  0
  142.2141   72.5654  219.6674 H   0  0  0  0  0  0  0  0  0  0  0  0
  143.5352   73.0461  218.6684 H   0  0  0  0  0  0  0  0  0  0  0  0
  143.5109   71.2739  221.1604 H   0  0  0  0  0  0  0  0  0  0  0  0
  144.6068   71.1581  219.7690 H   0  0  0  0  0  0  0  0  0  0  0  0
  146.0790   72.2800  220.9360 H   0  0  0  0  0  0  0  0  0  0  0  0
  145.4072   74.6911  221.5077 H   0  0  0  0  0  0  0  0  0  0  0  0
  145.5530   74.2309  219.8470 H   0  0  0  0  0  0  0  0  0  0  0  0
  139.0959   69.9805  222.1594 H   0  0  0  0  0  0  0  0  0  0  0  0
  138.8142   68.5822  224.1934 H   0  0  0  0  0  0  0  0  0  0  0  0
  139.1552   68.2471  226.6063 H   0  0  0  0  0  0  0  0  0  0  0  0
  141.1864   71.2555  228.9375 H   0  0  0  0  0  0  0  0  0  0  0  0
  141.4271   72.5885  226.8605 H   0  0  0  0  0  0  0  0  0  0  0  0
  1  2  2  0
  2  3  1  0
  3  4  1  0
  4  5  1  0
  5  6  2  0
  5  7  1  0
  7  8  1  0
  8  9  1  0
  9 10  1  0
 10 11  1  0
 11 12  1  0
 12 13  1  0
 13 14  1  0
 14 15  1  0
 15 16  1  0
  2 17  1  0
 17 18  2  0
 18 19  1  0
 19 20  2  0
 20 21  1  0
 21 22  2  0
 22 23  1  0
 22 24  1  0
 24 25  2  0
 25 26  1  0
 26 27  2  0
 11  7  1  0
 16 12  1  0
 27 17  1  0
 26 20  1  0
  3 28  1  0
  4 29  1  0
  4 30  1  0
  8 31  1  0
  8 32  1  0
  9 33  1  0
  9 34  1  0
 10 35  1  0
 10 36  1  0
 11 37  1  6
 12 38  1  1
 13 39  1  0
 13 40  1  0
 14 41  1  0
 14 42  1  0
 15 43  1  0
 16 44  1  0
 16 45  1  0
 18 46  1  0
 19 47  1  0
 21 48  1  0
 24 49  1  0
 25 50  1  0
M  END
>  <smiles>  (106) 
O=C(NCC(=O)N1CCCC1C1CCNC1)c1ccc2cc(F)ccc2n1

>  <score_type>  (106) 
oracle

>  <origin>  (106) 
autodockgpu

>  <m_score__min__energy>  (106) 
-8.0399999999999991

>  <m_primary>  (106) 
energy

>  <rmsd>  (106) 
2.2581287504109904

>  <m_score__min__rmsd>  (106) 
2.2581287504109904

>  <meeko>  (106) 
{"free_energy": -7.8, "intermolecular_energy": -9.29, "internal_energy": -1.81, "cluster_size": 15, "cluster_id": 2, "rank_in_cluster": 8}

>  <energy>  (106) 
-7.76

>  <cluster_rmsd>  (106) 
1.4

>  <cluster>  (106) 
1

$$$$

     RDKit          3D

 50 53  0  0  0  0  0  0  0  0999 V2000
  140.5240   71.5870  220.9510 O   0  0  0  0  0  0  0  0  0  0  0  0
  140.2100   72.1080  222.0520 C   0  0  0  0  0  0  0  0  0  0  0  0
  139.9530   73.5110  222.1430 N   0  0  0  0  0  0  0  0  0  0  0  0
  140.0470   74.3730  220.9660 C   0  0  0  0  0  0  0  0  0  0  0  0
  140.7590   75.6220  221.3610 C   0  0  0  0  0  0  0  0  0  0  0  0
  140.3310   76.2150  222.3720 O   0  0  0  0  0  0  0  0  0  0  0  0
  141.8500   76.0250  220.5640 N   0  0  0  0  0  0  0  0  0  0  0  0
  142.0700   77.3560  219.9410 C   0  0  0  0  0  0  0  0  0  0  0  0
  142.3960   76.8950  218.5230 C   0  0  0  0  0  0  0  0  0  0  0  0
  142.8610   75.4330  218.6360 C   0  0  0  0  0  0  0  0  0  0  0  0
  143.0320   75.2920  220.1140 C   0  0  2  0  0  0  0  0  0  0  0  0
  143.1910   73.9310  220.6570 C   0  0  1  0  0  0  0  0  0  0  0  0
  142.9760   72.8490  219.5810 C   0  0  0  0  0  0  0  0  0  0  0  0
  143.7230   71.6960  220.2510 C   0  0  0  0  0  0  0  0  0  0  0  0
  144.7150   72.2980  221.1240 N   0  0  0  0  0  0  0  0  0  0  0  0
  144.7120   73.7040  220.8400 C   0  0  0  0  0  0  0  0  0  0  0  0
  140.0930   71.3070  223.2880 C   0  0  0  0  0  0  0  0  0  0  0  0
  139.5660   70.0260  223.1680 C   0  0  0  0  0  0  0  0  0  0  0  0
  139.4650   69.2940  224.3320 C   0  0  0  0  0  0  0  0  0  0  0  0
  139.8580   69.7810  225.5580 C   0  0  0  0  0  0  0  0  0  0  0  0
  139.7730   69.0860  226.7330 C   0  0  0  0  0  0  0  0  0  0  0  0
  140.1760   69.6060  227.9470 C   0  0  0  0  0  0  0  0  0  0  0  0
  140.0750   68.8740  229.1040 F   0  0  0  0  0  0  0  0  0  0  0  0
  140.7000   70.9020  228.0120 C   0  0  0  0  0  0  0  0  0  0  0  0
  140.7820   71.5960  226.8230 C   0  0  0  0  0  0  0  0  0  0  0  0
  140.3790   71.0750  225.6120 C   0  0  0  0  0  0  0  0  0  0  0  0
  140.4790   71.7950  224.4770 N   0  0  0  0  0  0  0  0  0  0  0  0
  139.6900   73.9130  223.0920 H   0  0  0  0  0  0  0  0  0  0  0  0
  140.6084   73.8593  220.1717 H   0  0  0  0  0  0  0  0  0  0  0  0
  139.0420   74.6112  220.5874 H   0  0  0  0  0  0  0  0  0  0  0  0
  141.1670   77.9832  219.9750 H   0  0  0  0  0  0  0  0  0  0  0  0
  142.8305   77.9878  220.4232 H   0  0  0  0  0  0  0  0  0  0  0  0
  141.5012   76.9612  217.8866 H   0  0  0  0  0  0  0  0  0  0  0  0
  143.1737   77.5261  218.0681 H   0  0  0  0  0  0  0  0  0  0  0  0
  142.1005   74.7379  218.2507 H   0  0  0  0  0  0  0  0  0  0  0  0
  143.7657   75.2024  218.0544 H   0  0  0  0  0  0  0  0  0  0  0  0
  143.9935   75.6785  220.4829 H   0  0  0  0  0  0  0  0  0  0  0  0
  142.5187   73.8627  221.5249 H   0  0  0  0  0  0  0  0  0  0  0  0
  141.9103   72.6199  219.4333 H   0  0  0  0  0  0  0  0  0  0  0  0
  143.3196   73.1119  218.5696 H   0  0  0  0  0  0  0  0  0  0  0  0
  143.0246   71.0806  220.8372 H   0  0  0  0  0  0  0  0  0  0  0  0
  144.1959   71.0416  219.5040 H   0  0  0  0  0  0  0  0  0  0  0  0
  145.6610   71.9170  220.8710 H   0  0  0  0  0  0  0  0  0  0  0  0
  145.1157   74.2917  221.6776 H   0  0  0  0  0  0  0  0  0  0  0  0
  145.3345   74.0080  219.9856 H   0  0  0  0  0  0  0  0  0  0  0  0
  139.2470   69.6187  222.1972 H   0  0  0  0  0  0  0  0  0  0  0  0
  139.0521   68.2758  224.2786 H   0  0  0  0  0  0  0  0  0  0  0  0
  139.3644   68.0650  226.7097 H   0  0  0  0  0  0  0  0  0  0  0  0
  141.0298   71.3448  228.9634 H   0  0  0  0  0  0  0  0  0  0  0  0
  141.1898   72.6174  226.8419 H   0  0  0  0  0  0  0  0  0  0  0  0
  1  2  2  0
  2  3  1  0
  3  4  1  0
  4  5  1  0
  5  6  2  0
  5  7  1  0
  7  8  1  0
  8  9  1  0
  9 10  1  0
 10 11  1  0
 11 12  1  0
 12 13  1  0
 13 14  1  0
 14 15  1  0
 15 16  1  0
  2 17  1  0
 17 18  2  0
 18 19  1  0
 19 20  2  0
 20 21  1  0
 21 22  2  0
 22 23  1  0
 22 24  1  0
 24 25  2  0
 25 26  1  0
 26 27  2  0
 11  7  1  0
 16 12  1  0
 27 17  1  0
 26 20  1  0
  3 28  1  0
  4 29  1  0
  4 30  1  0
  8 31  1  0
  8 32  1  0
  9 33  1  0
  9 34  1  0
 10 35  1  0
 10 36  1  0
 11 37  1  1
 12 38  1  1
 13 39  1  0
 13 40  1  0
 14 41  1  0
 14 42  1  0
 15 43  1  0
 16 44  1  0
 16 45  1  0
 18 46  1  0
 19 47  1  0
 21 48  1  0
 24 49  1  0
 25 50  1  0
M  END
>  <smiles>  (107) 
O=C(NCC(=O)N1CCCC1C1CCNC1)c1ccc2cc(F)ccc2n1

>  <score_type>  (107) 
oracle

>  <origin>  (107) 
autodockgpu

>  <m_score__min__energy>  (107) 
-8.0399999999999991

>  <m_primary>  (107) 
energy

>  <rmsd>  (107) 
2.2128172489721285

>  <m_score__min__rmsd>  (107) 
2.2128172489721285

>  <meeko>  (107) 
{"free_energy": -7.73, "intermolecular_energy": -9.23, "internal_energy": -1.91, "cluster_size": 15, "cluster_id": 2, "rank_in_cluster": 11}

>  <energy>  (107) 
-7.75

>  <cluster_rmsd>  (107) 
1.38

>  <cluster>  (107) 
1

$$$$

     RDKit          3D

 50 53  0  0  0  0  0  0  0  0999 V2000
  140.6860   71.6420  221.0310 O   0  0  0  0  0  0  0  0  0  0  0  0
  140.2660   72.1480  222.1030 C   0  0  0  0  0  0  0  0  0  0  0  0
  139.9350   73.5370  222.1680 N   0  0  0  0  0  0  0  0  0  0  0  0
  140.0760   74.4020  220.9970 C   0  0  0  0  0  0  0  0  0  0  0  0
  140.8540   75.6070  221.4020 C   0  0  0  0  0  0  0  0  0  0  0  0
  140.5000   76.1770  222.4540 O   0  0  0  0  0  0  0  0  0  0  0  0
  141.9210   75.9990  220.5670 N   0  0  0  0  0  0  0  0  0  0  0  0
  142.1310   77.3260  219.9320 C   0  0  0  0  0  0  0  0  0  0  0  0
  142.4030   76.8580  218.5050 C   0  0  0  0  0  0  0  0  0  0  0  0
  142.8600   75.3930  218.6060 C   0  0  0  0  0  0  0  0  0  0  0  0
  143.0800   75.2540  220.0780 C   0  0  2  0  0  0  0  0  0  0  0  0
  143.2470   73.8930  220.6190 C   0  0  1  0  0  0  0  0  0  0  0  0
  143.0450   72.8120  219.5400 C   0  0  0  0  0  0  0  0  0  0  0  0
  143.7970   71.6630  220.2120 C   0  0  0  0  0  0  0  0  0  0  0  0
  144.7800   72.2710  221.0910 N   0  0  0  0  0  0  0  0  0  0  0  0
  144.7680   73.6780  220.8100 C   0  0  0  0  0  0  0  0  0  0  0  0
  140.0950   71.3430  223.3300 C   0  0  0  0  0  0  0  0  0  0  0  0
  139.4800   70.1040  223.1970 C   0  0  0  0  0  0  0  0  0  0  0  0
  139.3300   69.3670  224.3530 C   0  0  0  0  0  0  0  0  0  0  0  0
  139.7580   69.8120  225.5840 C   0  0  0  0  0  0  0  0  0  0  0  0
  139.6260   69.1120  226.7510 C   0  0  0  0  0  0  0  0  0  0  0  0
  140.0660   69.5890  227.9700 C   0  0  0  0  0  0  0  0  0  0  0  0
  139.9150   68.8530  229.1190 F   0  0  0  0  0  0  0  0  0  0  0  0
  140.6780   70.8450  228.0490 C   0  0  0  0  0  0  0  0  0  0  0  0
  140.8060   71.5440  226.8660 C   0  0  0  0  0  0  0  0  0  0  0  0
  140.3670   71.0670  225.6510 C   0  0  0  0  0  0  0  0  0  0  0  0
  140.5160   71.7910  224.5240 N   0  0  0  0  0  0  0  0  0  0  0  0
  139.5820   73.9270  223.0930 H   0  0  0  0  0  0  0  0  0  0  0  0
  140.6093   73.8649  220.1988 H   0  0  0  0  0  0  0  0  0  0  0  0
  139.0857   74.6970  220.6198 H   0  0  0  0  0  0  0  0  0  0  0  0
  141.2354   77.9615  219.9955 H   0  0  0  0  0  0  0  0  0  0  0  0
  142.9137   77.9522  220.3851 H   0  0  0  0  0  0  0  0  0  0  0  0
  141.4868   76.9295  217.9004 H   0  0  0  0  0  0  0  0  0  0  0  0
  143.1692   77.4814  218.0210 H   0  0  0  0  0  0  0  0  0  0  0  0
  142.0814   74.7030  218.2485 H   0  0  0  0  0  0  0  0  0  0  0  0
  143.7427   75.1539  217.9947 H   0  0  0  0  0  0  0  0  0  0  0  0
  144.0569   75.6330  220.4127 H   0  0  0  0  0  0  0  0  0  0  0  0
  142.5710   73.8172  221.4835 H   0  0  0  0  0  0  0  0  0  0  0  0
  141.9817   72.5756  219.3865 H   0  0  0  0  0  0  0  0  0  0  0  0
  143.3916   73.0792  218.5308 H   0  0  0  0  0  0  0  0  0  0  0  0
  143.1001   71.0416  220.7936 H   0  0  0  0  0  0  0  0  0  0  0  0
  144.2784   71.0131  219.4664 H   0  0  0  0  0  0  0  0  0  0  0  0
  145.7310   71.8970  220.8420 H   0  0  0  0  0  0  0  0  0  0  0  0
  145.1624   74.2669  221.6512 H   0  0  0  0  0  0  0  0  0  0  0  0
  145.3931   73.9890  219.9600 H   0  0  0  0  0  0  0  0  0  0  0  0
  139.1317   69.7312  222.2225 H   0  0  0  0  0  0  0  0  0  0  0  0
  138.8474   68.3806  224.2890 H   0  0  0  0  0  0  0  0  0  0  0  0
  139.1469   68.1224  226.7174 H   0  0  0  0  0  0  0  0  0  0  0  0
  141.0383   71.2539  229.0045 H   0  0  0  0  0  0  0  0  0  0  0  0
  141.2839   72.5344  226.8951 H   0  0  0  0  0  0  0  0  0  0  0  0
  1  2  2  0
  2  3  1  0
  3  4  1  0
  4  5  1  0
  5  6  2  0
  5  7  1  0
  7  8  1  0
  8  9  1  0
  9 10  1  0
 10 11  1  0
 11 12  1  0
 12 13  1  0
 13 14  1  0
 14 15  1  0
 15 16  1  0
  2 17  1  0
 17 18  2  0
 18 19  1  0
 19 20  2  0
 20 21  1  0
 21 22  2  0
 22 23  1  0
 22 24  1  0
 24 25  2  0
 25 26  1  0
 26 27  2  0
 11  7  1  0
 16 12  1  0
 27 17  1  0
 26 20  1  0
  3 28  1  0
  4 29  1  0
  4 30  1  0
  8 31  1  0
  8 32  1  0
  9 33  1  0
  9 34  1  0
 10 35  1  0
 10 36  1  0
 11 37  1  6
 12 38  1  1
 13 39  1  0
 13 40  1  0
 14 41  1  0
 14 42  1  0
 15 43  1  0
 16 44  1  0
 16 45  1  0
 18 46  1  0
 19 47  1  0
 21 48  1  0
 24 49  1  0
 25 50  1  0
M  END
>  <smiles>  (108) 
O=C(NCC(=O)N1CCCC1C1CCNC1)c1ccc2cc(F)ccc2n1

>  <score_type>  (108) 
oracle

>  <origin>  (108) 
autodockgpu

>  <m_score__min__energy>  (108) 
-8.0399999999999991

>  <m_primary>  (108) 
energy

>  <rmsd>  (108) 
2.2410413945686436

>  <m_score__min__rmsd>  (108) 
2.2410413945686436

>  <meeko>  (108) 
{"free_energy": -7.85, "intermolecular_energy": -9.34, "internal_energy": -1.85, "cluster_size": 15, "cluster_id": 2, "rank_in_cluster": 4}

>  <energy>  (108) 
-7.73

>  <cluster_rmsd>  (108) 
1.38

>  <cluster>  (108) 
1

$$$$

     RDKit          3D

 50 53  0  0  0  0  0  0  0  0999 V2000
  141.0010   71.5150  221.2160 O   0  0  0  0  0  0  0  0  0  0  0  0
  140.4250   71.9670  222.2390 C   0  0  0  0  0  0  0  0  0  0  0  0
  139.9290   73.3070  222.2600 N   0  0  0  0  0  0  0  0  0  0  0  0
  140.0770   74.1840  221.0980 C   0  0  0  0  0  0  0  0  0  0  0  0
  139.9530   75.5950  221.5640 C   0  0  0  0  0  0  0  0  0  0  0  0
  139.5280   75.7680  222.7240 O   0  0  0  0  0  0  0  0  0  0  0  0
  140.3270   76.6100  220.6590 N   0  0  0  0  0  0  0  0  0  0  0  0
  140.1000   76.6390  219.1910 C   0  0  0  0  0  0  0  0  0  0  0  0
  141.5140   77.0020  218.7460 C   0  0  0  0  0  0  0  0  0  0  0  0
  142.1960   77.6630  219.9570 C   0  0  0  0  0  0  0  0  0  0  0  0
  141.0320   77.8730  220.8710 C   0  0  2  0  0  0  0  0  0  0  0  0
  141.3190   78.2230  222.2740 C   0  0  1  0  0  0  0  0  0  0  0  0
  142.2920   79.4130  222.3860 C   0  0  0  0  0  0  0  0  0  0  0  0
  141.9520   79.8640  223.8070 C   0  0  0  0  0  0  0  0  0  0  0  0
  140.5860   79.4420  224.0580 N   0  0  0  0  0  0  0  0  0  0  0  0
  140.0680   78.9620  222.8090 C   0  0  0  0  0  0  0  0  0  0  0  0
  140.2360   71.1460  223.4530 C   0  0  0  0  0  0  0  0  0  0  0  0
  139.5650   69.9380  223.3050 C   0  0  0  0  0  0  0  0  0  0  0  0
  139.3980   69.1860  224.4490 C   0  0  0  0  0  0  0  0  0  0  0  0
  139.8620   69.5870  225.6810 C   0  0  0  0  0  0  0  0  0  0  0  0
  139.7160   68.8700  226.8360 C   0  0  0  0  0  0  0  0  0  0  0  0
  140.1930   69.3030  228.0580 C   0  0  0  0  0  0  0  0  0  0  0  0
  140.0270   68.5520  229.1950 F   0  0  0  0  0  0  0  0  0  0  0  0
  140.8620   70.5280  228.1520 C   0  0  0  0  0  0  0  0  0  0  0  0
  141.0050   71.2450  226.9810 C   0  0  0  0  0  0  0  0  0  0  0  0
  140.5280   70.8120  225.7640 C   0  0  0  0  0  0  0  0  0  0  0  0
  140.6930   71.5510  224.6490 N   0  0  0  0  0  0  0  0  0  0  0  0
  139.4480   73.6520  223.1440 H   0  0  0  0  0  0  0  0  0  0  0  0
  141.0636   74.0289  220.6370 H   0  0  0  0  0  0  0  0  0  0  0  0
  139.3019   73.9600  220.3503 H   0  0  0  0  0  0  0  0  0  0  0  0
  139.7823   75.6603  218.8021 H   0  0  0  0  0  0  0  0  0  0  0  0
  139.3040   77.3151  218.8457 H   0  0  0  0  0  0  0  0  0  0  0  0
  142.0630   76.0966  218.4479 H   0  0  0  0  0  0  0  0  0  0  0  0
  141.4972   77.6796  217.8796 H   0  0  0  0  0  0  0  0  0  0  0  0
  142.9474   76.9983  220.4083 H   0  0  0  0  0  0  0  0  0  0  0  0
  142.7503   78.5819  219.7154 H   0  0  0  0  0  0  0  0  0  0  0  0
  140.4520   78.7788  220.6405 H   0  0  0  0  0  0  0  0  0  0  0  0
  141.6586   77.2975  222.7619 H   0  0  0  0  0  0  0  0  0  0  0  0
  143.3418   79.0981  222.2929 H   0  0  0  0  0  0  0  0  0  0  0  0
  142.1904   80.1832  221.6072 H   0  0  0  0  0  0  0  0  0  0  0  0
  142.6343   79.3917  224.5290 H   0  0  0  0  0  0  0  0  0  0  0  0
  142.0576   80.9536  223.9143 H   0  0  0  0  0  0  0  0  0  0  0  0
  140.0210   80.2810  224.3440 H   0  0  0  0  0  0  0  0  0  0  0  0
  139.2190   78.2778  222.9537 H   0  0  0  0  0  0  0  0  0  0  0  0
  139.6648   79.7385  222.1424 H   0  0  0  0  0  0  0  0  0  0  0  0
  139.1877   69.6000  222.3286 H   0  0  0  0  0  0  0  0  0  0  0  0
  138.8708   68.2235  224.3734 H   0  0  0  0  0  0  0  0  0  0  0  0
  139.1941   67.9028  226.7900 H   0  0  0  0  0  0  0  0  0  0  0  0
  141.2540   70.9008  229.1098 H   0  0  0  0  0  0  0  0  0  0  0  0
  141.5271   72.2123  227.0223 H   0  0  0  0  0  0  0  0  0  0  0  0
  1  2  2  0
  2  3  1  0
  3  4  1  0
  4  5  1  0
  5  6  2  0
  5  7  1  0
  7  8  1  0
  8  9  1  0
  9 10  1  0
 10 11  1  0
 11 12  1  0
 12 13  1  0
 13 14  1  0
 14 15  1  0
 15 16  1  0
  2 17  1  0
 17 18  2  0
 18 19  1  0
 19 20  2  0
 20 21  1  0
 21 22  2  0
 22 23  1  0
 22 24  1  0
 24 25  2  0
 25 26  1  0
 26 27  2  0
 11  7  1  0
 16 12  1  0
 27 17  1  0
 26 20  1  0
  3 28  1  0
  4 29  1  0
  4 30  1  0
  8 31  1  0
  8 32  1  0
  9 33  1  0
  9 34  1  0
 10 35  1  0
 10 36  1  0
 11 37  1  6
 12 38  1  1
 13 39  1  0
 13 40  1  0
 14 41  1  0
 14 42  1  0
 15 43  1  0
 16 44  1  0
 16 45  1  0
 18 46  1  0
 19 47  1  0
 21 48  1  0
 24 49  1  0
 25 50  1  0
M  END
>  <smiles>  (109) 
O=C(NCC(=O)N1CCCC1C1CCNC1)c1ccc2cc(F)ccc2n1

>  <score_type>  (109) 
oracle

>  <origin>  (109) 
autodockgpu

>  <m_score__min__energy>  (109) 
-8.0399999999999991

>  <m_primary>  (109) 
energy

>  <rmsd>  (109) 
1.677367975965243

>  <m_score__min__rmsd>  (109) 
1.677367975965243

>  <meeko>  (109) 
{"free_energy": -7.84, "intermolecular_energy": -9.34, "internal_energy": -1.74, "cluster_size": 19, "cluster_id": 1, "rank_in_cluster": 4}

>  <energy>  (109) 
-7.72

>  <cluster_rmsd>  (109) 
1.41

>  <cluster>  (109) 
1

$$$$

     RDKit          3D

 50 53  0  0  0  0  0  0  0  0999 V2000
  141.0240   71.5940  221.2610 O   0  0  0  0  0  0  0  0  0  0  0  0
  140.4260   72.0480  222.2720 C   0  0  0  0  0  0  0  0  0  0  0  0
  139.9250   73.3860  222.2770 N   0  0  0  0  0  0  0  0  0  0  0  0
  140.0940   74.2600  221.1150 C   0  0  0  0  0  0  0  0  0  0  0  0
  139.9390   75.6710  221.5700 C   0  0  0  0  0  0  0  0  0  0  0  0
  139.4900   75.8440  222.7210 O   0  0  0  0  0  0  0  0  0  0  0  0
  140.3120   76.6870  220.6650 N   0  0  0  0  0  0  0  0  0  0  0  0
  140.0410   76.7390  219.2050 C   0  0  0  0  0  0  0  0  0  0  0  0
  141.4500   77.0710  218.7220 C   0  0  0  0  0  0  0  0  0  0  0  0
  142.1850   77.6990  219.9180 C   0  0  0  0  0  0  0  0  0  0  0  0
  141.0560   77.9280  220.8700 C   0  0  2  0  0  0  0  0  0  0  0  0
  141.3940   78.2540  222.2670 C   0  0  1  0  0  0  0  0  0  0  0  0
  142.3190   79.4820  222.3680 C   0  0  0  0  0  0  0  0  0  0  0  0
  142.0290   79.8800  223.8150 C   0  0  0  0  0  0  0  0  0  0  0  0
  140.6960   79.3910  224.1180 N   0  0  0  0  0  0  0  0  0  0  0  0
  140.1390   78.9210  222.8810 C   0  0  0  0  0  0  0  0  0  0  0  0
  140.2150   71.2310  223.4840 C   0  0  0  0  0  0  0  0  0  0  0  0
  139.5070   70.0440  223.3360 C   0  0  0  0  0  0  0  0  0  0  0  0
  139.3210   69.2950  224.4780 C   0  0  0  0  0  0  0  0  0  0  0  0
  139.7990   69.6800  225.7110 C   0  0  0  0  0  0  0  0  0  0  0  0
  139.6340   68.9660  226.8650 C   0  0  0  0  0  0  0  0  0  0  0  0
  140.1270   69.3820  228.0860 C   0  0  0  0  0  0  0  0  0  0  0  0
  139.9400   68.6340  229.2220 F   0  0  0  0  0  0  0  0  0  0  0  0
  140.8320   70.5870  228.1810 C   0  0  0  0  0  0  0  0  0  0  0  0
  140.9940   71.3010  227.0110 C   0  0  0  0  0  0  0  0  0  0  0  0
  140.5010   70.8840  225.7930 C   0  0  0  0  0  0  0  0  0  0  0  0
  140.6860   71.6200  224.6800 N   0  0  0  0  0  0  0  0  0  0  0  0
  139.4250   73.7330  223.1490 H   0  0  0  0  0  0  0  0  0  0  0  0
  141.0950   74.1156  220.6824 H   0  0  0  0  0  0  0  0  0  0  0  0
  139.3428   74.0226  220.3473 H   0  0  0  0  0  0  0  0  0  0  0  0
  139.6865   75.7734  218.8151 H   0  0  0  0  0  0  0  0  0  0  0  0
  139.2524   77.4388  218.8913 H   0  0  0  0  0  0  0  0  0  0  0  0
  141.9659   76.1554  218.3971 H   0  0  0  0  0  0  0  0  0  0  0  0
  141.4246   77.7596  217.8646 H   0  0  0  0  0  0  0  0  0  0  0  0
  142.9322   77.0097  220.3382 H   0  0  0  0  0  0  0  0  0  0  0  0
  142.7552   78.6063  219.6697 H   0  0  0  0  0  0  0  0  0  0  0  0
  140.4936   78.8516  220.6683 H   0  0  0  0  0  0  0  0  0  0  0  0
  141.7966   77.3320  222.7119 H   0  0  0  0  0  0  0  0  0  0  0  0
  143.3757   79.2162  222.2170 H   0  0  0  0  0  0  0  0  0  0  0  0
  142.1469   80.2674  221.6173 H   0  0  0  0  0  0  0  0  0  0  0  0
  142.7652   79.4198  224.4905 H   0  0  0  0  0  0  0  0  0  0  0  0
  142.0925   80.9701  223.9480 H   0  0  0  0  0  0  0  0  0  0  0  0
  140.1100   80.1960  224.4530 H   0  0  0  0  0  0  0  0  0  0  0  0
  139.3289   78.1954  223.0461 H   0  0  0  0  0  0  0  0  0  0  0  0
  139.6699   79.6956  222.2566 H   0  0  0  0  0  0  0  0  0  0  0  0
  139.1163   69.7199  222.3601 H   0  0  0  0  0  0  0  0  0  0  0  0
  138.7664   68.3481  224.4013 H   0  0  0  0  0  0  0  0  0  0  0  0
  139.0826   68.0153  226.8188 H   0  0  0  0  0  0  0  0  0  0  0  0
  141.2362   70.9466  229.1387 H   0  0  0  0  0  0  0  0  0  0  0  0
  141.5451   72.2521  227.0526 H   0  0  0  0  0  0  0  0  0  0  0  0
  1  2  2  0
  2  3  1  0
  3  4  1  0
  4  5  1  0
  5  6  2  0
  5  7  1  0
  7  8  1  0
  8  9  1  0
  9 10  1  0
 10 11  1  0
 11 12  1  0
 12 13  1  0
 13 14  1  0
 14 15  1  0
 15 16  1  0
  2 17  1  0
 17 18  2  0
 18 19  1  0
 19 20  2  0
 20 21  1  0
 21 22  2  0
 22 23  1  0
 22 24  1  0
 24 25  2  0
 25 26  1  0
 26 27  2  0
 11  7  1  0
 16 12  1  0
 27 17  1  0
 26 20  1  0
  3 28  1  0
  4 29  1  0
  4 30  1  0
  8 31  1  0
  8 32  1  0
  9 33  1  0
  9 34  1  0
 10 35  1  0
 10 36  1  0
 11 37  1  6
 12 38  1  1
 13 39  1  0
 13 40  1  0
 14 41  1  0
 14 42  1  0
 15 43  1  0
 16 44  1  0
 16 45  1  0
 18 46  1  0
 19 47  1  0
 21 48  1  0
 24 49  1  0
 25 50  1  0
M  END
>  <smiles>  (110) 
O=C(NCC(=O)N1CCCC1C1CCNC1)c1ccc2cc(F)ccc2n1

>  <score_type>  (110) 
oracle

>  <origin>  (110) 
autodockgpu

>  <m_score__min__energy>  (110) 
-8.0399999999999991

>  <m_primary>  (110) 
energy

>  <rmsd>  (110) 
1.7082470707187623

>  <m_score__min__rmsd>  (110) 
1.7082470707187623

>  <meeko>  (110) 
{"free_energy": -7.85, "intermolecular_energy": -9.35, "internal_energy": -1.73, "cluster_size": 19, "cluster_id": 1, "rank_in_cluster": 3}

>  <energy>  (110) 
-7.65

>  <cluster_rmsd>  (110) 
1.36

>  <cluster>  (110) 
1

$$$$

     RDKit          3D

 50 53  0  0  0  0  0  0  0  0999 V2000
  138.6620   75.3340  221.4670 O   0  0  0  0  0  0  0  0  0  0  0  0
  139.8400   75.7190  221.6860 C   0  0  0  0  0  0  0  0  0  0  0  0
  140.9470   74.8580  221.4090 N   0  0  0  0  0  0  0  0  0  0  0  0
  140.7410   73.5150  220.8680 C   0  0  0  0  0  0  0  0  0  0  0  0
  141.2810   73.4860  219.4790 C   0  0  0  0  0  0  0  0  0  0  0  0
  140.4590   73.2900  218.5620 O   0  0  0  0  0  0  0  0  0  0  0  0
  142.6690   73.6820  219.3200 N   0  0  0  0  0  0  0  0  0  0  0  0
  143.7530   72.6930  219.5500 C   0  0  0  0  0  0  0  0  0  0  0  0
  144.6680   73.5510  220.4190 C   0  0  0  0  0  0  0  0  0  0  0  0
  144.3030   75.0150  220.1220 C   0  0  0  0  0  0  0  0  0  0  0  0
  143.4310   74.8630  218.9180 C   0  0  2  0  0  0  0  0  0  0  0  0
  142.6360   76.0310  218.4970 C   0  0  1  0  0  0  0  0  0  0  0  0
  142.6970   77.1750  219.5280 C   0  0  0  0  0  0  0  0  0  0  0  0
  142.3040   78.3370  218.6160 C   0  0  0  0  0  0  0  0  0  0  0  0
  142.6880   77.9530  217.2690 N   0  0  0  0  0  0  0  0  0  0  0  0
  143.4490   76.7420  217.3880 C   0  0  0  0  0  0  0  0  0  0  0  0
  140.1330   77.0600  222.2300 C   0  0  0  0  0  0  0  0  0  0  0  0
  139.0560   77.8110  222.6870 C   0  0  0  0  0  0  0  0  0  0  0  0
  139.3490   79.0600  223.1920 C   0  0  0  0  0  0  0  0  0  0  0  0
  140.6310   79.5600  223.2510 C   0  0  0  0  0  0  0  0  0  0  0  0
  140.9610   80.7920  223.7430 C   0  0  0  0  0  0  0  0  0  0  0  0
  142.2580   81.2630  223.7870 C   0  0  0  0  0  0  0  0  0  0  0  0
  142.5480   82.5080  224.2910 F   0  0  0  0  0  0  0  0  0  0  0  0
  143.3070   80.4670  223.3140 C   0  0  0  0  0  0  0  0  0  0  0  0
  142.9650   79.2260  222.8190 C   0  0  0  0  0  0  0  0  0  0  0  0
  141.6690   78.7570  222.7750 C   0  0  0  0  0  0  0  0  0  0  0  0
  141.3880   77.5360  222.2810 N   0  0  0  0  0  0  0  0  0  0  0  0
  141.9270   75.2200  221.6060 H   0  0  0  0  0  0  0  0  0  0  0  0
  141.2707   72.7778  221.4892 H   0  0  0  0  0  0  0  0  0  0  0  0
  139.6695   73.2662  220.8650 H   0  0  0  0  0  0  0  0  0  0  0  0
  143.3928   71.8010  220.0835 H   0  0  0  0  0  0  0  0  0  0  0  0
  144.2139   72.2728  218.6439 H   0  0  0  0  0  0  0  0  0  0  0  0
  144.5025   73.3262  221.4830 H   0  0  0  0  0  0  0  0  0  0  0  0
  145.7274   73.3521  220.1995 H   0  0  0  0  0  0  0  0  0  0  0  0
  143.7558   75.4712  220.9601 H   0  0  0  0  0  0  0  0  0  0  0  0
  145.1713   75.6726  219.9683 H   0  0  0  0  0  0  0  0  0  0  0  0
  143.9944   74.7613  217.9787 H   0  0  0  0  0  0  0  0  0  0  0  0
  141.6251   75.6562  218.2790 H   0  0  0  0  0  0  0  0  0  0  0  0
  141.9770   77.0313  220.3471 H   0  0  0  0  0  0  0  0  0  0  0  0
  143.6566   77.2887  220.0535 H   0  0  0  0  0  0  0  0  0  0  0  0
  141.2188   78.5097  218.6670 H   0  0  0  0  0  0  0  0  0  0  0  0
  142.8032   79.2684  218.9214 H   0  0  0  0  0  0  0  0  0  0  0  0
  143.3180   78.6950  216.8730 H   0  0  0  0  0  0  0  0  0  0  0  0
  143.4527   76.1669  216.4503 H   0  0  0  0  0  0  0  0  0  0  0  0
  144.5171   76.8825  217.6103 H   0  0  0  0  0  0  0  0  0  0  0  0
  138.0252   77.4291  222.6478 H   0  0  0  0  0  0  0  0  0  0  0  0
  138.5231   79.6842  223.5639 H   0  0  0  0  0  0  0  0  0  0  0  0
  140.1554   81.4383  224.1215 H   0  0  0  0  0  0  0  0  0  0  0  0
  144.3509   80.8132  223.3358 H   0  0  0  0  0  0  0  0  0  0  0  0
  143.7677   78.5766  222.4396 H   0  0  0  0  0  0  0  0  0  0  0  0
  1  2  2  0
  2  3  1  0
  3  4  1  0
  4  5  1  0
  5  6  2  0
  5  7  1  0
  7  8  1  0
  8  9  1  0
  9 10  1  0
 10 11  1  0
 11 12  1  0
 12 13  1  0
 13 14  1  0
 14 15  1  0
 15 16  1  0
  2 17  1  0
 17 18  2  0
 18 19  1  0
 19 20  2  0
 20 21  1  0
 21 22  2  0
 22 23  1  0
 22 24  1  0
 24 25  2  0
 25 26  1  0
 26 27  2  0
 11  7  1  0
 16 12  1  0
 27 17  1  0
 26 20  1  0
  3 28  1  0
  4 29  1  0
  4 30  1  0
  8 31  1  0
  8 32  1  0
  9 33  1  0
  9 34  1  0
 10 35  1  0
 10 36  1  0
 11 37  1  6
 12 38  1  6
 13 39  1  0
 13 40  1  0
 14 41  1  0
 14 42  1  0
 15 43  1  0
 16 44  1  0
 16 45  1  0
 18 46  1  0
 19 47  1  0
 21 48  1  0
 24 49  1  0
 25 50  1  0
M  END
>  <smiles>  (111) 
O=C(NCC(=O)N1CCCC1C1CCNC1)c1ccc2cc(F)ccc2n1

>  <score_type>  (111) 
oracle

>  <origin>  (111) 
autodockgpu

>  <m_score__min__energy>  (111) 
-8.0399999999999991

>  <m_primary>  (111) 
energy

>  <rmsd>  (111) 
7.792754634491711

>  <m_score__min__rmsd>  (111) 
7.792754634491711

>  <meeko>  (111) 
{"free_energy": -6.32, "intermolecular_energy": -7.81, "internal_energy": -2.25, "cluster_size": 1, "cluster_id": 7, "rank_in_cluster": 1}

>  <energy>  (111) 
-7.58

>  <cluster_rmsd>  (111) 
1.37

>  <cluster>  (111) 
1

$$$$

     RDKit          3D

 50 53  0  0  0  0  0  0  0  0999 V2000
  141.5400   72.9030  220.1550 O   0  0  0  0  0  0  0  0  0  0  0  0
  141.1070   73.6180  221.0950 C   0  0  0  0  0  0  0  0  0  0  0  0
  140.4130   73.0270  222.1960 N   0  0  0  0  0  0  0  0  0  0  0  0
  140.1880   71.5830  222.2590 C   0  0  0  0  0  0  0  0  0  0  0  0
  139.7570   71.2400  223.6440 C   0  0  0  0  0  0  0  0  0  0  0  0
  140.2020   71.9560  224.5630 O   0  0  0  0  0  0  0  0  0  0  0  0
  138.8860   70.1420  223.7970 N   0  0  0  0  0  0  0  0  0  0  0  0
  137.7090   69.8000  222.9570 C   0  0  0  0  0  0  0  0  0  0  0  0
  136.6870   69.5820  224.0700 C   0  0  0  0  0  0  0  0  0  0  0  0
  137.4910   69.2770  225.3450 C   0  0  0  0  0  0  0  0  0  0  0  0
  138.8610   69.0670  224.7870 C   0  0  2  0  0  0  0  0  0  0  0  0
  139.9890   69.0390  225.7350 C   0  0  1  0  0  0  0  0  0  0  0  0
  139.6150   69.6520  227.0990 C   0  0  0  0  0  0  0  0  0  0  0  0
  140.6960   68.9960  227.9580 C   0  0  0  0  0  0  0  0  0  0  0  0
  141.0600   67.7580  227.2910 N   0  0  0  0  0  0  0  0  0  0  0  0
  140.1190   67.5750  226.2240 C   0  0  0  0  0  0  0  0  0  0  0  0
  141.2930   75.0830  221.1080 C   0  0  0  0  0  0  0  0  0  0  0  0
  142.0490   75.6380  220.0820 C   0  0  0  0  0  0  0  0  0  0  0  0
  142.2110   77.0070  220.1100 C   0  0  0  0  0  0  0  0  0  0  0  0
  141.6630   77.8040  221.0900 C   0  0  0  0  0  0  0  0  0  0  0  0
  141.8020   79.1620  221.1530 C   0  0  0  0  0  0  0  0  0  0  0  0
  141.2390   79.9330  222.1520 C   0  0  0  0  0  0  0  0  0  0  0  0
  141.4010   81.2960  222.1770 F   0  0  0  0  0  0  0  0  0  0  0  0
  140.4860   79.3240  223.1620 C   0  0  0  0  0  0  0  0  0  0  0  0
  140.3520   77.9530  223.0910 C   0  0  0  0  0  0  0  0  0  0  0  0
  140.9140   77.1860  222.0940 C   0  0  0  0  0  0  0  0  0  0  0  0
  140.7530   75.8480  222.0710 N   0  0  0  0  0  0  0  0  0  0  0  0
  140.0630   73.6660  222.9720 H   0  0  0  0  0  0  0  0  0  0  0  0
  139.4036   71.2966  221.5430 H   0  0  0  0  0  0  0  0  0  0  0  0
  141.1113   71.0426  222.0030 H   0  0  0  0  0  0  0  0  0  0  0  0
  137.4234   70.6259  222.2890 H   0  0  0  0  0  0  0  0  0  0  0  0
  137.8469   68.9560  222.2652 H   0  0  0  0  0  0  0  0  0  0  0  0
  136.0793   70.4880  224.2112 H   0  0  0  0  0  0  0  0  0  0  0  0
  136.0007   68.7580  223.8250 H   0  0  0  0  0  0  0  0  0  0  0  0
  137.4680   70.1234  226.0472 H   0  0  0  0  0  0  0  0  0  0  0  0
  137.1068   68.4255  225.9258 H   0  0  0  0  0  0  0  0  0  0  0  0
  139.0197   68.0550  224.3862 H   0  0  0  0  0  0  0  0  0  0  0  0
  140.8350   69.5228  225.2248 H   0  0  0  0  0  0  0  0  0  0  0  0
  139.6994   70.7488  227.0958 H   0  0  0  0  0  0  0  0  0  0  0  0
  138.5794   69.4803  227.4278 H   0  0  0  0  0  0  0  0  0  0  0  0
  141.5718   69.6569  228.0363 H   0  0  0  0  0  0  0  0  0  0  0  0
  140.3313   68.8052  228.9781 H   0  0  0  0  0  0  0  0  0  0  0  0
  140.9420   66.9640  227.9690 H   0  0  0  0  0  0  0  0  0  0  0  0
  140.5145   66.9146  225.4382 H   0  0  0  0  0  0  0  0  0  0  0  0
  139.1728   67.0952  226.5146 H   0  0  0  0  0  0  0  0  0  0  0  0
  142.4943   75.0181  219.2899 H   0  0  0  0  0  0  0  0  0  0  0  0
  142.8037   77.4831  219.3150 H   0  0  0  0  0  0  0  0  0  0  0  0
  142.3900   79.6653  220.3713 H   0  0  0  0  0  0  0  0  0  0  0  0
  140.0244   79.9088  223.9713 H   0  0  0  0  0  0  0  0  0  0  0  0
  139.7658   77.4455  223.8712 H   0  0  0  0  0  0  0  0  0  0  0  0
  1  2  2  0
  2  3  1  0
  3  4  1  0
  4  5  1  0
  5  6  2  0
  5  7  1  0
  7  8  1  0
  8  9  1  0
  9 10  1  0
 10 11  1  0
 11 12  1  0
 12 13  1  0
 13 14  1  0
 14 15  1  0
 15 16  1  0
  2 17  1  0
 17 18  2  0
 18 19  1  0
 19 20  2  0
 20 21  1  0
 21 22  2  0
 22 23  1  0
 22 24  1  0
 24 25  2  0
 25 26  1  0
 26 27  2  0
 11  7  1  0
 16 12  1  0
 27 17  1  0
 26 20  1  0
  3 28  1  0
  4 29  1  0
  4 30  1  0
  8 31  1  0
  8 32  1  0
  9 33  1  0
  9 34  1  0
 10 35  1  0
 10 36  1  0
 11 37  1  6
 12 38  1  6
 13 39  1  0
 13 40  1  0
 14 41  1  0
 14 42  1  0
 15 43  1  0
 16 44  1  0
 16 45  1  0
 18 46  1  0
 19 47  1  0
 21 48  1  0
 24 49  1  0
 25 50  1  0
M  END
>  <smiles>  (112) 
O=C(NCC(=O)N1CCCC1C1CCNC1)c1ccc2cc(F)ccc2n1

>  <score_type>  (112) 
oracle

>  <origin>  (112) 
autodockgpu

>  <m_score__min__energy>  (112) 
-8.0399999999999991

>  <m_primary>  (112) 
energy

>  <rmsd>  (112) 
8.583362823330038

>  <m_score__min__rmsd>  (112) 
8.583362823330038

>  <meeko>  (112) 
{"free_energy": -7.25, "intermolecular_energy": -8.75, "internal_energy": -1.83, "cluster_size": 2, "cluster_id": 5, "rank_in_cluster": 1}

>  <energy>  (112) 
-7.56

>  <cluster_rmsd>  (112) 
0.85

>  <cluster>  (112) 
1

$$$$

     RDKit          3D

 50 53  0  0  0  0  0  0  0  0999 V2000
  138.0760   71.1790  221.6760 O   0  0  0  0  0  0  0  0  0  0  0  0
  138.7910   71.5740  222.6330 C   0  0  0  0  0  0  0  0  0  0  0  0
  139.2980   72.9100  222.6560 N   0  0  0  0  0  0  0  0  0  0  0  0
  139.0020   73.8480  221.5730 C   0  0  0  0  0  0  0  0  0  0  0  0
  140.0580   74.9000  221.5680 C   0  0  0  0  0  0  0  0  0  0  0  0
  141.0380   74.7130  222.3170 O   0  0  0  0  0  0  0  0  0  0  0  0
  139.8620   76.0100  220.7210 N   0  0  0  0  0  0  0  0  0  0  0  0
  139.3800   76.0000  219.3160 C   0  0  0  0  0  0  0  0  0  0  0  0
  140.4560   76.8890  218.6970 C   0  0  0  0  0  0  0  0  0  0  0  0
  141.0510   77.7180  219.8470 C   0  0  0  0  0  0  0  0  0  0  0  0
  140.0760   77.4390  220.9460 C   0  0  2  0  0  0  0  0  0  0  0  0
  140.4610   77.8250  222.3160 C   0  0  1  0  0  0  0  0  0  0  0  0
  141.7590   78.6540  222.3410 C   0  0  0  0  0  0  0  0  0  0  0  0
  141.5810   79.3330  223.6980 C   0  0  0  0  0  0  0  0  0  0  0  0
  140.1510   79.3890  223.9470 N   0  0  0  0  0  0  0  0  0  0  0  0
  139.5070   78.9690  222.7360 C   0  0  0  0  0  0  0  0  0  0  0  0
  139.1350   70.6900  223.7640 C   0  0  0  0  0  0  0  0  0  0  0  0
  138.7960   69.3470  223.6490 C   0  0  0  0  0  0  0  0  0  0  0  0
  139.1270   68.5380  224.7150 C   0  0  0  0  0  0  0  0  0  0  0  0
  139.7580   69.0090  225.8440 C   0  0  0  0  0  0  0  0  0  0  0  0
  140.1000   68.2390  226.9210 C   0  0  0  0  0  0  0  0  0  0  0  0
  140.7330   68.7450  228.0390 C   0  0  0  0  0  0  0  0  0  0  0  0
  141.0610   67.9360  229.0990 F   0  0  0  0  0  0  0  0  0  0  0  0
  141.0520   70.1060  228.1050 C   0  0  0  0  0  0  0  0  0  0  0  0
  140.7030   70.8760  227.0150 C   0  0  0  0  0  0  0  0  0  0  0  0
  140.0710   70.3690  225.9000 C   0  0  0  0  0  0  0  0  0  0  0  0
  139.7500   71.1640  224.8600 N   0  0  0  0  0  0  0  0  0  0  0  0
  139.8980   73.2070  223.4820 H   0  0  0  0  0  0  0  0  0  0  0  0
  139.0008   73.3167  220.6098 H   0  0  0  0  0  0  0  0  0  0  0  0
  138.0121   74.3033  221.7239 H   0  0  0  0  0  0  0  0  0  0  0  0
  139.3813   74.9878  218.8853 H   0  0  0  0  0  0  0  0  0  0  0  0
  138.3425   76.3334  219.1661 H   0  0  0  0  0  0  0  0  0  0  0  0
  141.2372   76.2712  218.2300 H   0  0  0  0  0  0  0  0  0  0  0  0
  140.0349   77.5379  217.9149 H   0  0  0  0  0  0  0  0  0  0  0  0
  142.0625   77.3744  220.1095 H   0  0  0  0  0  0  0  0  0  0  0  0
  141.1739   78.7862  219.6150 H   0  0  0  0  0  0  0  0  0  0  0  0
  139.1713   78.0630  220.8984 H   0  0  0  0  0  0  0  0  0  0  0  0
  140.4929   76.8954  222.9032 H   0  0  0  0  0  0  0  0  0  0  0  0
  142.6558   78.0176  222.3124 H   0  0  0  0  0  0  0  0  0  0  0  0
  141.9042   79.3324  221.4874 H   0  0  0  0  0  0  0  0  0  0  0  0
  142.0809   78.7481  224.4841 H   0  0  0  0  0  0  0  0  0  0  0  0
  142.0248   80.3395  223.7003 H   0  0  0  0  0  0  0  0  0  0  0  0
  139.8800   80.3880  224.1300 H   0  0  0  0  0  0  0  0  0  0  0  0
  138.4860   78.6037  222.9207 H   0  0  0  0  0  0  0  0  0  0  0  0
  139.3677   79.7595  221.9838 H   0  0  0  0  0  0  0  0  0  0  0  0
  138.2909   68.9510  222.7556 H   0  0  0  0  0  0  0  0  0  0  0  0
  138.8757   67.4685  224.6610 H   0  0  0  0  0  0  0  0  0  0  0  0
  139.8595   67.1659  226.8956 H   0  0  0  0  0  0  0  0  0  0  0  0
  141.5555   70.5397  228.9816 H   0  0  0  0  0  0  0  0  0  0  0  0
  140.9413   71.9497  227.0368 H   0  0  0  0  0  0  0  0  0  0  0  0
  1  2  2  0
  2  3  1  0
  3  4  1  0
  4  5  1  0
  5  6  2  0
  5  7  1  0
  7  8  1  0
  8  9  1  0
  9 10  1  0
 10 11  1  0
 11 12  1  0
 12 13  1  0
 13 14  1  0
 14 15  1  0
 15 16  1  0
  2 17  1  0
 17 18  2  0
 18 19  1  0
 19 20  2  0
 20 21  1  0
 21 22  2  0
 22 23  1  0
 22 24  1  0
 24 25  2  0
 25 26  1  0
 26 27  2  0
 11  7  1  0
 16 12  1  0
 27 17  1  0
 26 20  1  0
  3 28  1  0
  4 29  1  0
  4 30  1  0
  8 31  1  0
  8 32  1  0
  9 33  1  0
  9 34  1  0
 10 35  1  0
 10 36  1  0
 11 37  1  6
 12 38  1  1
 13 39  1  0
 13 40  1  0
 14 41  1  0
 14 42  1  0
 15 43  1  0
 16 44  1  0
 16 45  1  0
 18 46  1  0
 19 47  1  0
 21 48  1  0
 24 49  1  0
 25 50  1  0
M  END
>  <smiles>  (113) 
O=C(NCC(=O)N1CCCC1C1CCNC1)c1ccc2cc(F)ccc2n1

>  <score_type>  (113) 
oracle

>  <origin>  (113) 
autodockgpu

>  <m_score__min__energy>  (113) 
-8.0399999999999991

>  <m_primary>  (113) 
energy

>  <rmsd>  (113) 
1.2346181694953589

>  <m_score__min__rmsd>  (113) 
1.2346181694953589

>  <meeko>  (113) 
{"free_energy": -7.08, "intermolecular_energy": -8.57, "internal_energy": -1.94, "cluster_size": 19, "cluster_id": 1, "rank_in_cluster": 18}

>  <energy>  (113) 
-7.55

>  <cluster_rmsd>  (113) 
1.27

>  <cluster>  (113) 
1

$$$$

     RDKit          3D

 50 53  0  0  0  0  0  0  0  0999 V2000
  141.3130   72.2800  221.5600 O   0  0  0  0  0  0  0  0  0  0  0  0
  140.4240   72.4760  222.4300 C   0  0  0  0  0  0  0  0  0  0  0  0
  139.5490   73.6010  222.3310 N   0  0  0  0  0  0  0  0  0  0  0  0
  139.6640   74.5520  221.2250 C   0  0  0  0  0  0  0  0  0  0  0  0
  140.2140   75.8280  221.7640 C   0  0  0  0  0  0  0  0  0  0  0  0
  141.4560   75.9500  221.7580 O   0  0  0  0  0  0  0  0  0  0  0  0
  139.2900   76.7850  222.2300 N   0  0  0  0  0  0  0  0  0  0  0  0
  137.8090   76.6730  222.2550 C   0  0  0  0  0  0  0  0  0  0  0  0
  137.4650   78.0130  221.6120 C   0  0  0  0  0  0  0  0  0  0  0  0
  138.6910   78.9200  221.8130 C   0  0  0  0  0  0  0  0  0  0  0  0
  139.4910   78.1200  222.7900 C   0  0  2  0  0  0  0  0  0  0  0  0
  140.8920   78.5200  223.0160 C   0  0  1  0  0  0  0  0  0  0  0  0
  141.5310   79.1300  221.7530 C   0  0  0  0  0  0  0  0  0  0  0  0
  142.6680   79.9090  222.4150 C   0  0  0  0  0  0  0  0  0  0  0  0
  142.2310   80.2080  223.7670 N   0  0  0  0  0  0  0  0  0  0  0  0
  140.8500   79.8260  223.8460 C   0  0  0  0  0  0  0  0  0  0  0  0
  140.2430   71.5640  223.5770 C   0  0  0  0  0  0  0  0  0  0  0  0
  139.5630   70.3740  223.3440 C   0  0  0  0  0  0  0  0  0  0  0  0
  139.4050   69.5360  224.4260 C   0  0  0  0  0  0  0  0  0  0  0  0
  139.8850   69.8370  225.6810 C   0  0  0  0  0  0  0  0  0  0  0  0
  139.7470   69.0330  226.7780 C   0  0  0  0  0  0  0  0  0  0  0  0
  140.2400   69.3670  228.0250 C   0  0  0  0  0  0  0  0  0  0  0  0
  140.0810   68.5290  229.1010 F   0  0  0  0  0  0  0  0  0  0  0  0
  140.9170   70.5770  228.2060 C   0  0  0  0  0  0  0  0  0  0  0  0
  141.0520   71.3830  227.0940 C   0  0  0  0  0  0  0  0  0  0  0  0
  140.5580   71.0480  225.8510 C   0  0  0  0  0  0  0  0  0  0  0  0
  140.7160   71.8710  224.7960 N   0  0  0  0  0  0  0  0  0  0  0  0
  138.8100   73.7320  223.0850 H   0  0  0  0  0  0  0  0  0  0  0  0
  140.3408   74.1498  220.4568 H   0  0  0  0  0  0  0  0  0  0  0  0
  138.6782   74.7256  220.7688 H   0  0  0  0  0  0  0  0  0  0  0  0
  137.4483   75.8227  221.6575 H   0  0  0  0  0  0  0  0  0  0  0  0
  137.3622   76.4909  223.2435 H   0  0  0  0  0  0  0  0  0  0  0  0
  137.2629   77.8791  220.5390 H   0  0  0  0  0  0  0  0  0  0  0  0
  136.5651   78.4533  222.0661 H   0  0  0  0  0  0  0  0  0  0  0  0
  139.2392   79.0704  220.8713 H   0  0  0  0  0  0  0  0  0  0  0  0
  138.4476   79.9365  222.1558 H   0  0  0  0  0  0  0  0  0  0  0  0
  139.1635   78.2462  223.8325 H   0  0  0  0  0  0  0  0  0  0  0  0
  141.4070   77.6339  223.4155 H   0  0  0  0  0  0  0  0  0  0  0  0
  141.9056   78.3573  221.0656 H   0  0  0  0  0  0  0  0  0  0  0  0
  140.8555   79.7240  221.1199 H   0  0  0  0  0  0  0  0  0  0  0  0
  143.5834   79.2994  222.4376 H   0  0  0  0  0  0  0  0  0  0  0  0
  142.8960   80.8298  221.8581 H   0  0  0  0  0  0  0  0  0  0  0  0
  142.2900   81.2460  223.9180 H   0  0  0  0  0  0  0  0  0  0  0  0
  140.5350   79.6416  224.8837 H   0  0  0  0  0  0  0  0  0  0  0  0
  140.1361   80.5826  223.4884 H   0  0  0  0  0  0  0  0  0  0  0  0
  139.1720   70.1154  222.3489 H   0  0  0  0  0  0  0  0  0  0  0  0
  138.8720   68.5847  224.2810 H   0  0  0  0  0  0  0  0  0  0  0  0
  139.2186   68.0751  226.6626 H   0  0  0  0  0  0  0  0  0  0  0  0
  141.3216   70.8716  229.1855 H   0  0  0  0  0  0  0  0  0  0  0  0
  141.5805   72.3413  227.2048 H   0  0  0  0  0  0  0  0  0  0  0  0
  1  2  2  0
  2  3  1  0
  3  4  1  0
  4  5  1  0
  5  6  2  0
  5  7  1  0
  7  8  1  0
  8  9  1  0
  9 10  1  0
 10 11  1  0
 11 12  1  0
 12 13  1  0
 13 14  1  0
 14 15  1  0
 15 16  1  0
  2 17  1  0
 17 18  2  0
 18 19  1  0
 19 20  2  0
 20 21  1  0
 21 22  2  0
 22 23  1  0
 22 24  1  0
 24 25  2  0
 25 26  1  0
 26 27  2  0
 11  7  1  0
 16 12  1  0
 27 17  1  0
 26 20  1  0
  3 28  1  0
  4 29  1  0
  4 30  1  0
  8 31  1  0
  8 32  1  0
  9 33  1  0
  9 34  1  0
 10 35  1  0
 10 36  1  0
 11 37  1  1
 12 38  1  1
 13 39  1  0
 13 40  1  0
 14 41  1  0
 14 42  1  0
 15 43  1  0
 16 44  1  0
 16 45  1  0
 18 46  1  0
 19 47  1  0
 21 48  1  0
 24 49  1  0
 25 50  1  0
M  END
>  <smiles>  (114) 
O=C(NCC(=O)N1CCCC1C1CCNC1)c1ccc2cc(F)ccc2n1

>  <score_type>  (114) 
oracle

>  <origin>  (114) 
autodockgpu

>  <m_score__min__energy>  (114) 
-8.0399999999999991

>  <m_primary>  (114) 
energy

>  <rmsd>  (114) 
2.710336634846952

>  <m_score__min__rmsd>  (114) 
2.710336634846952

>  <meeko>  (114) 
{"free_energy": -8.04, "intermolecular_energy": -9.53, "internal_energy": -1.13, "cluster_size": 19, "cluster_id": 1, "rank_in_cluster": 1}

>  <energy>  (114) 
-7.53

>  <cluster_rmsd>  (114) 
1.42

>  <cluster>  (114) 
1

$$$$

     RDKit          3D

 50 53  0  0  0  0  0  0  0  0999 V2000
  140.3270   71.3830  221.0340 O   0  0  0  0  0  0  0  0  0  0  0  0
  140.0490   71.8980  222.1480 C   0  0  0  0  0  0  0  0  0  0  0  0
  139.8160   73.3040  222.2590 N   0  0  0  0  0  0  0  0  0  0  0  0
  139.8930   74.1770  221.0880 C   0  0  0  0  0  0  0  0  0  0  0  0
  139.8870   75.5900  221.5610 C   0  0  0  0  0  0  0  0  0  0  0  0
  139.5150   75.7870  222.7350 O   0  0  0  0  0  0  0  0  0  0  0  0
  140.3010   76.5800  220.6460 N   0  0  0  0  0  0  0  0  0  0  0  0
  140.1010   76.5900  219.1740 C   0  0  0  0  0  0  0  0  0  0  0  0
  141.5320   76.9130  218.7500 C   0  0  0  0  0  0  0  0  0  0  0  0
  142.2060   77.5780  219.9620 C   0  0  0  0  0  0  0  0  0  0  0  0
  141.0310   77.8300  220.8510 C   0  0  2  0  0  0  0  0  0  0  0  0
  141.3010   78.1980  222.2530 C   0  0  1  0  0  0  0  0  0  0  0  0
  142.2610   79.3980  222.3620 C   0  0  0  0  0  0  0  0  0  0  0  0
  141.9030   79.8600  223.7750 C   0  0  0  0  0  0  0  0  0  0  0  0
  140.5380   79.4270  224.0170 N   0  0  0  0  0  0  0  0  0  0  0  0
  140.0370   78.9290  222.7680 C   0  0  0  0  0  0  0  0  0  0  0  0
  139.9520   71.0870  223.3780 C   0  0  0  0  0  0  0  0  0  0  0  0
  139.3660   69.8310  223.2680 C   0  0  0  0  0  0  0  0  0  0  0  0
  139.2850   69.0880  224.4260 C   0  0  0  0  0  0  0  0  0  0  0  0
  139.7500   69.5430  225.6390 C   0  0  0  0  0  0  0  0  0  0  0  0
  139.6870   68.8370  226.8090 C   0  0  0  0  0  0  0  0  0  0  0  0
  140.1630   69.3240  228.0100 C   0  0  0  0  0  0  0  0  0  0  0  0
  140.0810   68.5820  229.1630 F   0  0  0  0  0  0  0  0  0  0  0  0
  140.7430   70.5960  228.0670 C   0  0  0  0  0  0  0  0  0  0  0  0
  140.8030   71.3010  226.8830 C   0  0  0  0  0  0  0  0  0  0  0  0
  140.3270   70.8140  225.6850 C   0  0  0  0  0  0  0  0  0  0  0  0
  140.4090   71.5440  224.5550 N   0  0  0  0  0  0  0  0  0  0  0  0
  139.5840   73.7010  223.2180 H   0  0  0  0  0  0  0  0  0  0  0  0
  140.8204   73.9741  220.5323 H   0  0  0  0  0  0  0  0  0  0  0  0
  139.0373   73.9954  220.4211 H   0  0  0  0  0  0  0  0  0  0  0  0
  139.7676   75.6127  218.7949 H   0  0  0  0  0  0  0  0  0  0  0  0
  139.3273   77.2782  218.8029 H   0  0  0  0  0  0  0  0  0  0  0  0
  142.0652   75.9903  218.4773 H   0  0  0  0  0  0  0  0  0  0  0  0
  141.5472   77.5761  217.8725 H   0  0  0  0  0  0  0  0  0  0  0  0
  142.9334   76.9040  220.4379 H   0  0  0  0  0  0  0  0  0  0  0  0
  142.7853   78.4801  219.7157 H   0  0  0  0  0  0  0  0  0  0  0  0
  140.4758   78.7447  220.5958 H   0  0  0  0  0  0  0  0  0  0  0  0
  141.6455   77.2814  222.7541 H   0  0  0  0  0  0  0  0  0  0  0  0
  143.3147   79.0924  222.2821 H   0  0  0  0  0  0  0  0  0  0  0  0
  142.1595   80.1592  221.5745 H   0  0  0  0  0  0  0  0  0  0  0  0
  142.5828   79.4016  224.5083 H   0  0  0  0  0  0  0  0  0  0  0  0
  141.9972   80.9516  223.8724 H   0  0  0  0  0  0  0  0  0  0  0  0
  139.9620   80.2630  224.2890 H   0  0  0  0  0  0  0  0  0  0  0  0
  139.1938   78.2373  222.9115 H   0  0  0  0  0  0  0  0  0  0  0  0
  139.6320   79.6943  222.0896 H   0  0  0  0  0  0  0  0  0  0  0  0
  138.9872   69.4506  222.3079 H   0  0  0  0  0  0  0  0  0  0  0  0
  138.8290   68.0881  224.3788 H   0  0  0  0  0  0  0  0  0  0  0  0
  139.2358   67.8339  226.7921 H   0  0  0  0  0  0  0  0  0  0  0  0
  141.1313   71.0126  229.0081 H   0  0  0  0  0  0  0  0  0  0  0  0
  141.2542   72.3041  226.8957 H   0  0  0  0  0  0  0  0  0  0  0  0
  1  2  2  0
  2  3  1  0
  3  4  1  0
  4  5  1  0
  5  6  2  0
  5  7  1  0
  7  8  1  0
  8  9  1  0
  9 10  1  0
 10 11  1  0
 11 12  1  0
 12 13  1  0
 13 14  1  0
 14 15  1  0
 15 16  1  0
  2 17  1  0
 17 18  2  0
 18 19  1  0
 19 20  2  0
 20 21  1  0
 21 22  2  0
 22 23  1  0
 22 24  1  0
 24 25  2  0
 25 26  1  0
 26 27  2  0
 11  7  1  0
 16 12  1  0
 27 17  1  0
 26 20  1  0
  3 28  1  0
  4 29  1  0
  4 30  1  0
  8 31  1  0
  8 32  1  0
  9 33  1  0
  9 34  1  0
 10 35  1  0
 10 36  1  0
 11 37  1  6
 12 38  1  1
 13 39  1  0
 13 40  1  0
 14 41  1  0
 14 42  1  0
 15 43  1  0
 16 44  1  0
 16 45  1  0
 18 46  1  0
 19 47  1  0
 21 48  1  0
 24 49  1  0
 25 50  1  0
M  END
>  <smiles>  (115) 
O=C(NCC(=O)N1CCCC1C1CCNC1)c1ccc2cc(F)ccc2n1

>  <score_type>  (115) 
oracle

>  <origin>  (115) 
autodockgpu

>  <m_score__min__energy>  (115) 
-8.0399999999999991

>  <m_primary>  (115) 
energy

>  <rmsd>  (115) 
1.585845785394864

>  <m_score__min__rmsd>  (115) 
1.585845785394864

>  <meeko>  (115) 
{"free_energy": -7.75, "intermolecular_energy": -9.24, "internal_energy": -1.82, "cluster_size": 19, "cluster_id": 1, "rank_in_cluster": 7}

>  <energy>  (115) 
-7.5

>  <cluster_rmsd>  (115) 
1.32

>  <cluster>  (115) 
1

$$$$

     RDKit          3D

 50 53  0  0  0  0  0  0  0  0999 V2000
  140.5810   71.7620  221.0120 O   0  0  0  0  0  0  0  0  0  0  0  0
  140.1910   72.2680  222.0960 C   0  0  0  0  0  0  0  0  0  0  0  0
  139.8820   73.6610  222.1760 N   0  0  0  0  0  0  0  0  0  0  0  0
  140.0100   74.5310  221.0080 C   0  0  0  0  0  0  0  0  0  0  0  0
  140.8820   75.6820  221.3790 C   0  0  0  0  0  0  0  0  0  0  0  0
  140.6540   76.2260  222.4780 O   0  0  0  0  0  0  0  0  0  0  0  0
  141.8870   76.0540  220.4630 N   0  0  0  0  0  0  0  0  0  0  0  0
  141.9620   77.3050  219.6640 C   0  0  0  0  0  0  0  0  0  0  0  0
  142.2360   76.6880  218.2950 C   0  0  0  0  0  0  0  0  0  0  0  0
  142.8220   75.2900  218.5570 C   0  0  0  0  0  0  0  0  0  0  0  0
  143.0940   75.3550  220.0250 C   0  0  2  0  0  0  0  0  0  0  0  0
  143.3940   74.0900  220.7210 C   0  0  1  0  0  0  0  0  0  0  0  0
  143.1220   72.8610  219.8320 C   0  0  0  0  0  0  0  0  0  0  0  0
  144.0060   71.8450  220.5550 C   0  0  0  0  0  0  0  0  0  0  0  0
  145.0540   72.6050  221.2140 N   0  0  0  0  0  0  0  0  0  0  0  0
  144.9360   73.9570  220.7480 C   0  0  0  0  0  0  0  0  0  0  0  0
  140.0350   71.4580  223.3210 C   0  0  0  0  0  0  0  0  0  0  0  0
  139.3970   70.2300  223.1960 C   0  0  0  0  0  0  0  0  0  0  0  0
  139.2610   69.4880  224.3500 C   0  0  0  0  0  0  0  0  0  0  0  0
  139.7250   69.9180  225.5730 C   0  0  0  0  0  0  0  0  0  0  0  0
  139.6080   69.2130  226.7380 C   0  0  0  0  0  0  0  0  0  0  0  0
  140.0840   69.6750  227.9500 C   0  0  0  0  0  0  0  0  0  0  0  0
  139.9480   68.9330  229.0980 F   0  0  0  0  0  0  0  0  0  0  0  0
  140.7190   70.9190  228.0220 C   0  0  0  0  0  0  0  0  0  0  0  0
  140.8320   71.6240  226.8410 C   0  0  0  0  0  0  0  0  0  0  0  0
  140.3560   71.1620  225.6340 C   0  0  0  0  0  0  0  0  0  0  0  0
  140.4910   71.8910  224.5080 N   0  0  0  0  0  0  0  0  0  0  0  0
  139.5550   74.0500  223.1110 H   0  0  0  0  0  0  0  0  0  0  0  0
  140.4637   73.9729  220.1757 H   0  0  0  0  0  0  0  0  0  0  0  0
  139.0199   74.8905  220.6912 H   0  0  0  0  0  0  0  0  0  0  0  0
  141.0158   77.8657  219.6833 H   0  0  0  0  0  0  0  0  0  0  0  0
  142.6982   78.0463  220.0081 H   0  0  0  0  0  0  0  0  0  0  0  0
  141.3015   76.6070  217.7205 H   0  0  0  0  0  0  0  0  0  0  0  0
  142.9313   77.3083  217.7104 H   0  0  0  0  0  0  0  0  0  0  0  0
  142.0971   74.4983  218.3168 H   0  0  0  0  0  0  0  0  0  0  0  0
  143.7049   75.0507  217.9461 H   0  0  0  0  0  0  0  0  0  0  0  0
  144.0423   75.8540  220.2735 H   0  0  0  0  0  0  0  0  0  0  0  0
  142.8300   74.1134  221.6651 H   0  0  0  0  0  0  0  0  0  0  0  0
  142.0616   72.5687  219.8451 H   0  0  0  0  0  0  0  0  0  0  0  0
  143.3330   72.9951  218.7608 H   0  0  0  0  0  0  0  0  0  0  0  0
  143.4158   71.2884  221.2979 H   0  0  0  0  0  0  0  0  0  0  0  0
  144.4283   71.1130  219.8508 H   0  0  0  0  0  0  0  0  0  0  0  0
  145.9870   72.2340  220.9020 H   0  0  0  0  0  0  0  0  0  0  0  0
  145.3965   74.6722  221.4454 H   0  0  0  0  0  0  0  0  0  0  0  0
  145.4388   74.1663  219.7923 H   0  0  0  0  0  0  0  0  0  0  0  0
  139.0204   69.8690  222.2276 H   0  0  0  0  0  0  0  0  0  0  0  0
  138.7602   68.5104  224.2912 H   0  0  0  0  0  0  0  0  0  0  0  0
  139.1116   68.2318  226.7094 H   0  0  0  0  0  0  0  0  0  0  0  0
  141.1084   71.3152  228.9714 H   0  0  0  0  0  0  0  0  0  0  0  0
  141.3279   72.6056  226.8649 H   0  0  0  0  0  0  0  0  0  0  0  0
  1  2  2  0
  2  3  1  0
  3  4  1  0
  4  5  1  0
  5  6  2  0
  5  7  1  0
  7  8  1  0
  8  9  1  0
  9 10  1  0
 10 11  1  0
 11 12  1  0
 12 13  1  0
 13 14  1  0
 14 15  1  0
 15 16  1  0
  2 17  1  0
 17 18  2  0
 18 19  1  0
 19 20  2  0
 20 21  1  0
 21 22  2  0
 22 23  1  0
 22 24  1  0
 24 25  2  0
 25 26  1  0
 26 27  2  0
 11  7  1  0
 16 12  1  0
 27 17  1  0
 26 20  1  0
  3 28  1  0
  4 29  1  0
  4 30  1  0
  8 31  1  0
  8 32  1  0
  9 33  1  0
  9 34  1  0
 10 35  1  0
 10 36  1  0
 11 37  1  6
 12 38  1  1
 13 39  1  0
 13 40  1  0
 14 41  1  0
 14 42  1  0
 15 43  1  0
 16 44  1  0
 16 45  1  0
 18 46  1  0
 19 47  1  0
 21 48  1  0
 24 49  1  0
 25 50  1  0
M  END
>  <smiles>  (116) 
O=C(NCC(=O)N1CCCC1C1CCNC1)c1ccc2cc(F)ccc2n1

>  <score_type>  (116) 
oracle

>  <origin>  (116) 
autodockgpu

>  <m_score__min__energy>  (116) 
-8.0399999999999991

>  <m_primary>  (116) 
energy

>  <rmsd>  (116) 
2.197926635804059

>  <m_score__min__rmsd>  (116) 
2.197926635804059

>  <meeko>  (116) 
{"free_energy": -7.78, "intermolecular_energy": -9.27, "internal_energy": -1.86, "cluster_size": 15, "cluster_id": 2, "rank_in_cluster": 10}

>  <energy>  (116) 
-7.14

>  <cluster_rmsd>  (116) 
1.53

>  <cluster>  (116) 
1

$$$$

     RDKit          3D

 50 53  0  0  0  0  0  0  0  0999 V2000
  140.6540   71.6230  221.0600 O   0  0  0  0  0  0  0  0  0  0  0  0
  140.1300   72.0610  222.1160 C   0  0  0  0  0  0  0  0  0  0  0  0
  139.5870   73.3820  222.1620 N   0  0  0  0  0  0  0  0  0  0  0  0
  139.6270   74.2560  220.9900 C   0  0  0  0  0  0  0  0  0  0  0  0
  139.9130   75.6440  221.4550 C   0  0  0  0  0  0  0  0  0  0  0  0
  139.6880   75.8900  222.6570 O   0  0  0  0  0  0  0  0  0  0  0  0
  140.4120   76.5550  220.5010 N   0  0  0  0  0  0  0  0  0  0  0  0
  140.7330   76.2850  219.0760 C   0  0  0  0  0  0  0  0  0  0  0  0
  142.1290   76.9030  219.0330 C   0  0  0  0  0  0  0  0  0  0  0  0
  142.2000   77.8990  220.2030 C   0  0  0  0  0  0  0  0  0  0  0  0
  140.7660   77.9690  220.6190 C   0  0  2  0  0  0  0  0  0  0  0  0
  140.4590   78.6050  221.9130 C   0  0  1  0  0  0  0  0  0  0  0  0
  141.5080   78.2630  222.9890 C   0  0  0  0  0  0  0  0  0  0  0  0
  141.2590   79.4310  223.9420 C   0  0  0  0  0  0  0  0  0  0  0  0
  140.7170   80.5120  223.1380 N   0  0  0  0  0  0  0  0  0  0  0  0
  140.8300   80.1010  221.7680 C   0  0  0  0  0  0  0  0  0  0  0  0
  140.0490   71.2430  223.3430 C   0  0  0  0  0  0  0  0  0  0  0  0
  139.4150   70.0100  223.2450 C   0  0  0  0  0  0  0  0  0  0  0  0
  139.3500   69.2600  224.4000 C   0  0  0  0  0  0  0  0  0  0  0  0
  139.8780   69.6860  225.5980 C   0  0  0  0  0  0  0  0  0  0  0  0
  139.8320   68.9730  226.7640 C   0  0  0  0  0  0  0  0  0  0  0  0
  140.3720   69.4310  227.9500 C   0  0  0  0  0  0  0  0  0  0  0  0
  140.3060   68.6820  229.0990 F   0  0  0  0  0  0  0  0  0  0  0  0
  141.0000   70.6810  227.9950 C   0  0  0  0  0  0  0  0  0  0  0  0
  141.0400   71.3940  226.8140 C   0  0  0  0  0  0  0  0  0  0  0  0
  140.5020   70.9350  225.6320 C   0  0  0  0  0  0  0  0  0  0  0  0
  140.5670   71.6720  224.5050 N   0  0  0  0  0  0  0  0  0  0  0  0
  139.1510   73.7160  223.0740 H   0  0  0  0  0  0  0  0  0  0  0  0
  140.4190   73.9225  220.3033 H   0  0  0  0  0  0  0  0  0  0  0  0
  138.6647   74.2236  220.4581 H   0  0  0  0  0  0  0  0  0  0  0  0
  140.7502   75.2081  218.8526 H   0  0  0  0  0  0  0  0  0  0  0  0
  140.0145   76.6804  218.3429 H   0  0  0  0  0  0  0  0  0  0  0  0
  142.8945   76.1220  219.1514 H   0  0  0  0  0  0  0  0  0  0  0  0
  142.3135   77.4041  218.0713 H   0  0  0  0  0  0  0  0  0  0  0  0
  142.8366   77.5198  221.0160 H   0  0  0  0  0  0  0  0  0  0  0  0
  142.6393   78.8722  219.9387 H   0  0  0  0  0  0  0  0  0  0  0  0
  140.1648   78.6568  220.0062 H   0  0  0  0  0  0  0  0  0  0  0  0
  139.4267   78.3187  222.1629 H   0  0  0  0  0  0  0  0  0  0  0  0
  141.3090   77.2917  223.4655 H   0  0  0  0  0  0  0  0  0  0  0  0
  142.5415   78.1587  222.6271 H   0  0  0  0  0  0  0  0  0  0  0  0
  140.5391   79.1390  224.7208 H   0  0  0  0  0  0  0  0  0  0  0  0
  142.1874   79.7375  224.4460 H   0  0  0  0  0  0  0  0  0  0  0  0
  141.3160   81.3650  223.2720 H   0  0  0  0  0  0  0  0  0  0  0  0
  140.1216   80.6376  221.1197 H   0  0  0  0  0  0  0  0  0  0  0  0
  141.8071   80.2960  221.3018 H   0  0  0  0  0  0  0  0  0  0  0  0
  138.9880   69.6518  222.2967 H   0  0  0  0  0  0  0  0  0  0  0  0
  138.8547   68.2785  224.3627 H   0  0  0  0  0  0  0  0  0  0  0  0
  139.3418   67.9883  226.7571 H   0  0  0  0  0  0  0  0  0  0  0  0
  141.4390   71.0747  228.9236 H   0  0  0  0  0  0  0  0  0  0  0  0
  141.5269   72.3803  226.8168 H   0  0  0  0  0  0  0  0  0  0  0  0
  1  2  2  0
  2  3  1  0
  3  4  1  0
  4  5  1  0
  5  6  2  0
  5  7  1  0
  7  8  1  0
  8  9  1  0
  9 10  1  0
 10 11  1  0
 11 12  1  0
 12 13  1  0
 13 14  1  0
 14 15  1  0
 15 16  1  0
  2 17  1  0
 17 18  2  0
 18 19  1  0
 19 20  2  0
 20 21  1  0
 21 22  2  0
 22 23  1  0
 22 24  1  0
 24 25  2  0
 25 26  1  0
 26 27  2  0
 11  7  1  0
 16 12  1  0
 27 17  1  0
 26 20  1  0
  3 28  1  0
  4 29  1  0
  4 30  1  0
  8 31  1  0
  8 32  1  0
  9 33  1  0
  9 34  1  0
 10 35  1  0
 10 36  1  0
 11 37  1  6
 12 38  1  1
 13 39  1  0
 13 40  1  0
 14 41  1  0
 14 42  1  0
 15 43  1  0
 16 44  1  0
 16 45  1  0
 18 46  1  0
 19 47  1  0
 21 48  1  0
 24 49  1  0
 25 50  1  0
M  END
>  <smiles>  (117) 
O=C(NCC(=O)N1CCCC1C1CCNC1)c1ccc2cc(F)ccc2n1

>  <score_type>  (117) 
oracle

>  <origin>  (117) 
autodockgpu

>  <m_score__min__energy>  (117) 
-8.0399999999999991

>  <m_primary>  (117) 
energy

>  <rmsd>  (117) 
1.6835287237915597

>  <m_score__min__rmsd>  (117) 
1.6835287237915597

>  <meeko>  (117) 
{"free_energy": -7.55, "intermolecular_energy": -9.04, "internal_energy": -1.66, "cluster_size": 19, "cluster_id": 1, "rank_in_cluster": 13}

>  <energy>  (117) 
-7.08

>  <cluster_rmsd>  (117) 
1.65

>  <cluster>  (117) 
1

$$$$

     RDKit          3D

 50 53  0  0  0  0  0  0  0  0999 V2000
  141.0300   71.5690  221.2650 O   0  0  0  0  0  0  0  0  0  0  0  0
  140.4690   72.0380  222.2890 C   0  0  0  0  0  0  0  0  0  0  0  0
  140.0110   73.3910  222.3100 N   0  0  0  0  0  0  0  0  0  0  0  0
  140.1810   74.2630  221.1480 C   0  0  0  0  0  0  0  0  0  0  0  0
  139.9670   75.6710  221.5890 C   0  0  0  0  0  0  0  0  0  0  0  0
  139.4850   75.8350  222.7280 O   0  0  0  0  0  0  0  0  0  0  0  0
  140.3290   76.6930  220.6880 N   0  0  0  0  0  0  0  0  0  0  0  0
  140.0540   76.7480  219.2280 C   0  0  0  0  0  0  0  0  0  0  0  0
  141.4590   77.0960  218.7430 C   0  0  0  0  0  0  0  0  0  0  0  0
  142.1900   77.7260  219.9400 C   0  0  0  0  0  0  0  0  0  0  0  0
  141.0610   77.9410  220.8950 C   0  0  2  0  0  0  0  0  0  0  0  0
  141.3990   78.2650  222.2930 C   0  0  1  0  0  0  0  0  0  0  0  0
  142.3120   79.5030  222.3960 C   0  0  0  0  0  0  0  0  0  0  0  0
  142.0210   79.8920  223.8450 C   0  0  0  0  0  0  0  0  0  0  0  0
  140.6930   79.3870  224.1500 N   0  0  0  0  0  0  0  0  0  0  0  0
  140.1390   78.9170  222.9120 C   0  0  0  0  0  0  0  0  0  0  0  0
  140.2590   71.2230  223.5030 C   0  0  0  0  0  0  0  0  0  0  0  0
  139.5790   70.0200  223.3530 C   0  0  0  0  0  0  0  0  0  0  0  0
  139.3940   69.2740  224.4970 C   0  0  0  0  0  0  0  0  0  0  0  0
  139.8480   69.6750  225.7330 C   0  0  0  0  0  0  0  0  0  0  0  0
  139.6820   68.9640  226.8890 C   0  0  0  0  0  0  0  0  0  0  0  0
  140.1500   69.3970  228.1150 C   0  0  0  0  0  0  0  0  0  0  0  0
  139.9650   68.6510  229.2520 F   0  0  0  0  0  0  0  0  0  0  0  0
  140.8290   70.6170  228.2110 C   0  0  0  0  0  0  0  0  0  0  0  0
  140.9910   71.3280  227.0400 C   0  0  0  0  0  0  0  0  0  0  0  0
  140.5230   70.8940  225.8190 C   0  0  0  0  0  0  0  0  0  0  0  0
  140.7070   71.6280  224.7030 N   0  0  0  0  0  0  0  0  0  0  0  0
  139.5410   73.7500  223.1950 H   0  0  0  0  0  0  0  0  0  0  0  0
  141.1973   74.1498  220.7426 H   0  0  0  0  0  0  0  0  0  0  0  0
  139.4584   73.9960  220.3628 H   0  0  0  0  0  0  0  0  0  0  0  0
  139.7082   75.7805  218.8351 H   0  0  0  0  0  0  0  0  0  0  0  0
  139.2578   77.4411  218.9188 H   0  0  0  0  0  0  0  0  0  0  0  0
  141.9832   76.1870  218.4131 H   0  0  0  0  0  0  0  0  0  0  0  0
  141.4251   77.7878  217.8884 H   0  0  0  0  0  0  0  0  0  0  0  0
  142.9443   77.0420  220.3562 H   0  0  0  0  0  0  0  0  0  0  0  0
  142.7512   78.6396  219.6941 H   0  0  0  0  0  0  0  0  0  0  0  0
  140.4895   78.8598  220.6972 H   0  0  0  0  0  0  0  0  0  0  0  0
  141.8119   77.3456  222.7337 H   0  0  0  0  0  0  0  0  0  0  0  0
  143.3710   79.2489  222.2415 H   0  0  0  0  0  0  0  0  0  0  0  0
  142.1303   80.2893  221.6486 H   0  0  0  0  0  0  0  0  0  0  0  0
  142.7638   79.4373  224.5169 H   0  0  0  0  0  0  0  0  0  0  0  0
  142.0727   80.9822  223.9818 H   0  0  0  0  0  0  0  0  0  0  0  0
  140.0990   80.1850  224.4890 H   0  0  0  0  0  0  0  0  0  0  0  0
  139.3363   78.1828  223.0752 H   0  0  0  0  0  0  0  0  0  0  0  0
  139.6616   79.6899  222.2917 H   0  0  0  0  0  0  0  0  0  0  0  0
  139.2085   69.6817  222.3741 H   0  0  0  0  0  0  0  0  0  0  0  0
  138.8598   68.3156  224.4188 H   0  0  0  0  0  0  0  0  0  0  0  0
  139.1509   68.0019  226.8408 H   0  0  0  0  0  0  0  0  0  0  0  0
  141.2140   70.9900  229.1715 H   0  0  0  0  0  0  0  0  0  0  0  0
  141.5210   72.2909  227.0833 H   0  0  0  0  0  0  0  0  0  0  0  0
  1  2  2  0
  2  3  1  0
  3  4  1  0
  4  5  1  0
  5  6  2  0
  5  7  1  0
  7  8  1  0
  8  9  1  0
  9 10  1  0
 10 11  1  0
 11 12  1  0
 12 13  1  0
 13 14  1  0
 14 15  1  0
 15 16  1  0
  2 17  1  0
 17 18  2  0
 18 19  1  0
 19 20  2  0
 20 21  1  0
 21 22  2  0
 22 23  1  0
 22 24  1  0
 24 25  2  0
 25 26  1  0
 26 27  2  0
 11  7  1  0
 16 12  1  0
 27 17  1  0
 26 20  1  0
  3 28  1  0
  4 29  1  0
  4 30  1  0
  8 31  1  0
  8 32  1  0
  9 33  1  0
  9 34  1  0
 10 35  1  0
 10 36  1  0
 11 37  1  6
 12 38  1  1
 13 39  1  0
 13 40  1  0
 14 41  1  0
 14 42  1  0
 15 43  1  0
 16 44  1  0
 16 45  1  0
 18 46  1  0
 19 47  1  0
 21 48  1  0
 24 49  1  0
 25 50  1  0
M  END
>  <smiles>  (118) 
O=C(NCC(=O)N1CCCC1C1CCNC1)c1ccc2cc(F)ccc2n1

>  <score_type>  (118) 
oracle

>  <origin>  (118) 
autodockgpu

>  <m_score__min__energy>  (118) 
-8.0399999999999991

>  <m_primary>  (118) 
energy

>  <rmsd>  (118) 
1.735545840556515

>  <m_score__min__rmsd>  (118) 
1.735545840556515

>  <meeko>  (118) 
{"free_energy": -7.84, "intermolecular_energy": -9.33, "internal_energy": -1.74, "cluster_size": 19, "cluster_id": 1, "rank_in_cluster": 5}

>  <energy>  (118) 
-7.08

>  <cluster_rmsd>  (118) 
1.59

>  <cluster>  (118) 
1

$$$$

     RDKit          3D

 50 53  0  0  0  0  0  0  0  0999 V2000
  140.3640   71.3440  221.0270 O   0  0  0  0  0  0  0  0  0  0  0  0
  140.0530   71.8560  222.1340 C   0  0  0  0  0  0  0  0  0  0  0  0
  139.7850   73.2550  222.2350 N   0  0  0  0  0  0  0  0  0  0  0  0
  139.8650   74.1260  221.0620 C   0  0  0  0  0  0  0  0  0  0  0  0
  139.8840   75.5400  221.5340 C   0  0  0  0  0  0  0  0  0  0  0  0
  139.5280   75.7430  222.7130 O   0  0  0  0  0  0  0  0  0  0  0  0
  140.3000   76.5240  220.6140 N   0  0  0  0  0  0  0  0  0  0  0  0
  140.1270   76.5110  219.1390 C   0  0  0  0  0  0  0  0  0  0  0  0
  141.5600   76.8480  218.7360 C   0  0  0  0  0  0  0  0  0  0  0  0
  142.2040   77.5380  219.9500 C   0  0  0  0  0  0  0  0  0  0  0  0
  141.0100   77.7860  220.8150 C   0  0  2  0  0  0  0  0  0  0  0  0
  141.2490   78.1760  222.2160 C   0  0  1  0  0  0  0  0  0  0  0  0
  142.2030   79.3810  222.3270 C   0  0  0  0  0  0  0  0  0  0  0  0
  141.8140   79.8630  223.7250 C   0  0  0  0  0  0  0  0  0  0  0  0
  140.4460   79.4280  223.9460 N   0  0  0  0  0  0  0  0  0  0  0  0
  139.9730   78.9090  222.6950 C   0  0  0  0  0  0  0  0  0  0  0  0
  139.9500   71.0460  223.3650 C   0  0  0  0  0  0  0  0  0  0  0  0
  139.3630   69.7910  223.2540 C   0  0  0  0  0  0  0  0  0  0  0  0
  139.2760   69.0500  224.4130 C   0  0  0  0  0  0  0  0  0  0  0  0
  139.7380   69.5050  225.6280 C   0  0  0  0  0  0  0  0  0  0  0  0
  139.6700   68.8020  226.7980 C   0  0  0  0  0  0  0  0  0  0  0  0
  140.1430   69.2900  228.0000 C   0  0  0  0  0  0  0  0  0  0  0  0
  140.0560   68.5490  229.1530 F   0  0  0  0  0  0  0  0  0  0  0  0
  140.7250   70.5600  228.0570 C   0  0  0  0  0  0  0  0  0  0  0  0
  140.7900   71.2640  226.8720 C   0  0  0  0  0  0  0  0  0  0  0  0
  140.3170   70.7750  225.6730 C   0  0  0  0  0  0  0  0  0  0  0  0
  140.4040   71.5040  224.5430 N   0  0  0  0  0  0  0  0  0  0  0  0
  139.5240   73.6500  223.1880 H   0  0  0  0  0  0  0  0  0  0  0  0
  140.7845   73.9088  220.4986 H   0  0  0  0  0  0  0  0  0  0  0  0
  139.0011   73.9565  220.4025 H   0  0  0  0  0  0  0  0  0  0  0  0
  139.8140   75.5240  218.7678 H   0  0  0  0  0  0  0  0  0  0  0  0
  139.3508   77.1834  218.7447 H   0  0  0  0  0  0  0  0  0  0  0  0
  142.1102   75.9292  218.4849 H   0  0  0  0  0  0  0  0  0  0  0  0
  141.5813   77.4999  217.8502 H   0  0  0  0  0  0  0  0  0  0  0  0
  142.9318   76.8802  220.4476 H   0  0  0  0  0  0  0  0  0  0  0  0
  142.7758   78.4443  219.7016 H   0  0  0  0  0  0  0  0  0  0  0  0
  140.4482   78.6901  220.5376 H   0  0  0  0  0  0  0  0  0  0  0  0
  141.5858   77.2679  222.7375 H   0  0  0  0  0  0  0  0  0  0  0  0
  143.2590   79.0778  222.2739 H   0  0  0  0  0  0  0  0  0  0  0  0
  142.1157   80.1300  221.5261 H   0  0  0  0  0  0  0  0  0  0  0  0
  142.4804   79.4188  224.4791 H   0  0  0  0  0  0  0  0  0  0  0  0
  141.9017   80.9564  223.8072 H   0  0  0  0  0  0  0  0  0  0  0  0
  139.8620   80.2660  224.1930 H   0  0  0  0  0  0  0  0  0  0  0  0
  139.1299   78.2159  222.8320 H   0  0  0  0  0  0  0  0  0  0  0  0
  139.5792   79.6626  221.9972 H   0  0  0  0  0  0  0  0  0  0  0  0
  138.9880   69.4096  222.2928 H   0  0  0  0  0  0  0  0  0  0  0  0
  138.8174   68.0513  224.3654 H   0  0  0  0  0  0  0  0  0  0  0  0
  139.2169   67.7998  226.7814 H   0  0  0  0  0  0  0  0  0  0  0  0
  141.1115   70.9768  228.9988 H   0  0  0  0  0  0  0  0  0  0  0  0
  141.2423   72.2666  226.8847 H   0  0  0  0  0  0  0  0  0  0  0  0
  1  2  2  0
  2  3  1  0
  3  4  1  0
  4  5  1  0
  5  6  2  0
  5  7  1  0
  7  8  1  0
  8  9  1  0
  9 10  1  0
 10 11  1  0
 11 12  1  0
 12 13  1  0
 13 14  1  0
 14 15  1  0
 15 16  1  0
  2 17  1  0
 17 18  2  0
 18 19  1  0
 19 20  2  0
 20 21  1  0
 21 22  2  0
 22 23  1  0
 22 24  1  0
 24 25  2  0
 25 26  1  0
 26 27  2  0
 11  7  1  0
 16 12  1  0
 27 17  1  0
 26 20  1  0
  3 28  1  0
  4 29  1  0
  4 30  1  0
  8 31  1  0
  8 32  1  0
  9 33  1  0
  9 34  1  0
 10 35  1  0
 10 36  1  0
 11 37  1  6
 12 38  1  1
 13 39  1  0
 13 40  1  0
 14 41  1  0
 14 42  1  0
 15 43  1  0
 16 44  1  0
 16 45  1  0
 18 46  1  0
 19 47  1  0
 21 48  1  0
 24 49  1  0
 25 50  1  0
M  END
>  <smiles>  (119) 
O=C(NCC(=O)N1CCCC1C1CCNC1)c1ccc2cc(F)ccc2n1

>  <score_type>  (119) 
oracle

>  <origin>  (119) 
autodockgpu

>  <m_score__min__energy>  (119) 
-8.0399999999999991

>  <m_primary>  (119) 
energy

>  <rmsd>  (119) 
1.55850285835346

>  <m_score__min__rmsd>  (119) 
1.55850285835346

>  <meeko>  (119) 
{"free_energy": -7.76, "intermolecular_energy": -9.25, "internal_energy": -1.81, "cluster_size": 19, "cluster_id": 1, "rank_in_cluster": 6}

>  <energy>  (119) 
-6.98

>  <cluster_rmsd>  (119) 
1.68

>  <cluster>  (119) 
1

$$$$

     RDKit          3D

 50 53  0  0  0  0  0  0  0  0999 V2000
  141.1250   71.8770  221.1230 O   0  0  0  0  0  0  0  0  0  0  0  0
  140.4950   72.3220  222.1170 C   0  0  0  0  0  0  0  0  0  0  0  0
  139.9780   73.6540  222.1110 N   0  0  0  0  0  0  0  0  0  0  0  0
  140.1680   74.5320  220.9560 C   0  0  0  0  0  0  0  0  0  0  0  0
  141.1050   75.6220  221.3500 C   0  0  0  0  0  0  0  0  0  0  0  0
  140.9490   76.1120  222.4870 O   0  0  0  0  0  0  0  0  0  0  0  0
  142.0840   76.0040  220.4100 N   0  0  0  0  0  0  0  0  0  0  0  0
  142.2010   77.3080  219.7080 C   0  0  0  0  0  0  0  0  0  0  0  0
  142.3630   76.7880  218.2820 C   0  0  0  0  0  0  0  0  0  0  0  0
  142.8680   75.3410  218.4010 C   0  0  0  0  0  0  0  0  0  0  0  0
  143.2180   75.2690  219.8530 C   0  0  2  0  0  0  0  0  0  0  0  0
  143.4690   73.9360  220.4300 C   0  0  1  0  0  0  0  0  0  0  0  0
  143.5670   72.8450  219.3470 C   0  0  0  0  0  0  0  0  0  0  0  0
  144.3450   71.7940  220.1390 C   0  0  0  0  0  0  0  0  0  0  0  0
  145.1030   72.5140  221.1480 N   0  0  0  0  0  0  0  0  0  0  0  0
  144.9590   73.9110  220.8500 C   0  0  0  0  0  0  0  0  0  0  0  0
  140.2600   71.5000  223.3220 C   0  0  0  0  0  0  0  0  0  0  0  0
  139.5420   70.3210  223.1580 C   0  0  0  0  0  0  0  0  0  0  0  0
  139.3340   69.5680  224.2940 C   0  0  0  0  0  0  0  0  0  0  0  0
  139.8010   69.9400  225.5340 C   0  0  0  0  0  0  0  0  0  0  0  0
  139.6140   69.2220  226.6820 C   0  0  0  0  0  0  0  0  0  0  0  0
  140.0950   69.6260  227.9120 C   0  0  0  0  0  0  0  0  0  0  0  0
  139.8870   68.8730  229.0410 F   0  0  0  0  0  0  0  0  0  0  0  0
  140.8110   70.8230  228.0220 C   0  0  0  0  0  0  0  0  0  0  0  0
  140.9950   71.5420  226.8590 C   0  0  0  0  0  0  0  0  0  0  0  0
  140.5140   71.1370  225.6330 C   0  0  0  0  0  0  0  0  0  0  0  0
  140.7200   71.8770  224.5260 N   0  0  0  0  0  0  0  0  0  0  0  0
  139.4500   73.9930  222.9700 H   0  0  0  0  0  0  0  0  0  0  0  0
  140.5936   73.9594  220.1188 H   0  0  0  0  0  0  0  0  0  0  0  0
  139.2041   74.9556  220.6376 H   0  0  0  0  0  0  0  0  0  0  0  0
  141.2964   77.9230  219.8239 H   0  0  0  0  0  0  0  0  0  0  0  0
  143.0014   77.9718  220.0667 H   0  0  0  0  0  0  0  0  0  0  0  0
  141.3968   76.8115  217.7567 H   0  0  0  0  0  0  0  0  0  0  0  0
  143.0668   77.4096  217.7090 H   0  0  0  0  0  0  0  0  0  0  0  0
  142.0813   74.6176  218.1404 H   0  0  0  0  0  0  0  0  0  0  0  0
  143.7013   75.0986  217.7251 H   0  0  0  0  0  0  0  0  0  0  0  0
  144.2086   75.6858  220.0872 H   0  0  0  0  0  0  0  0  0  0  0  0
  142.6852   73.7712  221.1840 H   0  0  0  0  0  0  0  0  0  0  0  0
  142.5764   72.4796  219.0383 H   0  0  0  0  0  0  0  0  0  0  0  0
  144.0263   73.1592  218.3981 H   0  0  0  0  0  0  0  0  0  0  0  0
  143.6504   71.0880  220.6177 H   0  0  0  0  0  0  0  0  0  0  0  0
  145.0093   71.2129  219.4824 H   0  0  0  0  0  0  0  0  0  0  0  0
  146.1190   72.2630  221.0490 H   0  0  0  0  0  0  0  0  0  0  0  0
  145.1461   74.5395  221.7332 H   0  0  0  0  0  0  0  0  0  0  0  0
  145.6616   74.3025  220.0996 H   0  0  0  0  0  0  0  0  0  0  0  0
  139.1606   70.0060  222.1755 H   0  0  0  0  0  0  0  0  0  0  0  0
  138.7696   68.6280  224.2053 H   0  0  0  0  0  0  0  0  0  0  0  0
  139.0536   68.2773  226.6234 H   0  0  0  0  0  0  0  0  0  0  0  0
  141.2071   71.1730  228.9867 H   0  0  0  0  0  0  0  0  0  0  0  0
  141.5546   72.4875  226.9133 H   0  0  0  0  0  0  0  0  0  0  0  0
  1  2  2  0
  2  3  1  0
  3  4  1  0
  4  5  1  0
  5  6  2  0
  5  7  1  0
  7  8  1  0
  8  9  1  0
  9 10  1  0
 10 11  1  0
 11 12  1  0
 12 13  1  0
 13 14  1  0
 14 15  1  0
 15 16  1  0
  2 17  1  0
 17 18  2  0
 18 19  1  0
 19 20  2  0
 20 21  1  0
 21 22  2  0
 22 23  1  0
 22 24  1  0
 24 25  2  0
 25 26  1  0
 26 27  2  0
 11  7  1  0
 16 12  1  0
 27 17  1  0
 26 20  1  0
  3 28  1  0
  4 29  1  0
  4 30  1  0
  8 31  1  0
  8 32  1  0
  9 33  1  0
  9 34  1  0
 10 35  1  0
 10 36  1  0
 11 37  1  6
 12 38  1  1
 13 39  1  0
 13 40  1  0
 14 41  1  0
 14 42  1  0
 15 43  1  0
 16 44  1  0
 16 45  1  0
 18 46  1  0
 19 47  1  0
 21 48  1  0
 24 49  1  0
 25 50  1  0
M  END
>  <smiles>  (120) 
O=C(NCC(=O)N1CCCC1C1CCNC1)c1ccc2cc(F)ccc2n1

>  <score_type>  (120) 
oracle

>  <origin>  (120) 
autodockgpu

>  <m_score__min__energy>  (120) 
-8.0399999999999991

>  <m_primary>  (120) 
energy

>  <rmsd>  (120) 
2.3051380508141244

>  <m_score__min__rmsd>  (120) 
2.3051380508141244

>  <meeko>  (120) 
{"free_energy": -7.87, "intermolecular_energy": -9.36, "internal_energy": -1.72, "cluster_size": 15, "cluster_id": 2, "rank_in_cluster": 2}

>  <energy>  (120) 
-7.87

>  <cluster_rmsd>  (120) 
0.0

>  <cluster>  (120) 
2

$$$$

     RDKit          3D

 50 53  0  0  0  0  0  0  0  0999 V2000
  140.6950   71.7710  221.0240 O   0  0  0  0  0  0  0  0  0  0  0  0
  140.2730   72.2710  222.0990 C   0  0  0  0  0  0  0  0  0  0  0  0
  139.9360   73.6570  222.1710 N   0  0  0  0  0  0  0  0  0  0  0  0
  140.0740   74.5290  221.0040 C   0  0  0  0  0  0  0  0  0  0  0  0
  140.9600   75.6680  221.3780 C   0  0  0  0  0  0  0  0  0  0  0  0
  140.7140   76.2380  222.4600 O   0  0  0  0  0  0  0  0  0  0  0  0
  141.9960   76.0030  220.4820 N   0  0  0  0  0  0  0  0  0  0  0  0
  142.1820   77.2860  219.7550 C   0  0  0  0  0  0  0  0  0  0  0  0
  142.4050   76.7250  218.3530 C   0  0  0  0  0  0  0  0  0  0  0  0
  142.8670   75.2700  218.5340 C   0  0  0  0  0  0  0  0  0  0  0  0
  143.1390   75.2270  220.0030 C   0  0  2  0  0  0  0  0  0  0  0  0
  143.3260   73.9040  220.6260 C   0  0  1  0  0  0  0  0  0  0  0  0
  143.1080   72.7560  219.6230 C   0  0  0  0  0  0  0  0  0  0  0  0
  143.8810   71.6550  220.3500 C   0  0  0  0  0  0  0  0  0  0  0  0
  144.8790   72.3230  221.1660 N   0  0  0  0  0  0  0  0  0  0  0  0
  144.8530   73.7090  220.7960 C   0  0  0  0  0  0  0  0  0  0  0  0
  140.1040   71.4590  223.3210 C   0  0  0  0  0  0  0  0  0  0  0  0
  139.4660   70.2310  223.1880 C   0  0  0  0  0  0  0  0  0  0  0  0
  139.3190   69.4880  224.3390 C   0  0  0  0  0  0  0  0  0  0  0  0
  139.7710   69.9160  225.5680 C   0  0  0  0  0  0  0  0  0  0  0  0
  139.6430   69.2090  226.7310 C   0  0  0  0  0  0  0  0  0  0  0  0
  140.1080   69.6690  227.9470 C   0  0  0  0  0  0  0  0  0  0  0  0
  139.9610   68.9260  229.0930 F   0  0  0  0  0  0  0  0  0  0  0  0
  140.7440   70.9120  228.0280 C   0  0  0  0  0  0  0  0  0  0  0  0
  140.8680   71.6190  226.8490 C   0  0  0  0  0  0  0  0  0  0  0  0
  140.4040   71.1590  225.6360 C   0  0  0  0  0  0  0  0  0  0  0  0
  140.5490   71.8890  224.5130 N   0  0  0  0  0  0  0  0  0  0  0  0
  139.5820   74.0420  223.0970 H   0  0  0  0  0  0  0  0  0  0  0  0
  140.5206   73.9677  220.1701 H   0  0  0  0  0  0  0  0  0  0  0  0
  139.0883   74.9012  220.6882 H   0  0  0  0  0  0  0  0  0  0  0  0
  141.2883   77.9251  219.8078 H   0  0  0  0  0  0  0  0  0  0  0  0
  142.9788   77.9400  220.1389 H   0  0  0  0  0  0  0  0  0  0  0  0
  141.4683   76.7575  217.7772 H   0  0  0  0  0  0  0  0  0  0  0  0
  143.1531   77.3146  217.8028 H   0  0  0  0  0  0  0  0  0  0  0  0
  142.0772   74.5589  218.2502 H   0  0  0  0  0  0  0  0  0  0  0  0
  143.7281   74.9908  217.9091 H   0  0  0  0  0  0  0  0  0  0  0  0
  144.1267   75.6258  220.2777 H   0  0  0  0  0  0  0  0  0  0  0  0
  142.6694   73.8802  221.5082 H   0  0  0  0  0  0  0  0  0  0  0  0
  142.0432   72.5054  219.5077 H   0  0  0  0  0  0  0  0  0  0  0  0
  143.4319   72.9602  218.5918 H   0  0  0  0  0  0  0  0  0  0  0  0
  143.2007   71.0690  220.9854 H   0  0  0  0  0  0  0  0  0  0  0  0
  144.3495   70.9604  219.6373 H   0  0  0  0  0  0  0  0  0  0  0  0
  145.8270   71.9390  220.9210 H   0  0  0  0  0  0  0  0  0  0  0  0
  145.2624   74.3524  221.5887 H   0  0  0  0  0  0  0  0  0  0  0  0
  145.4575   73.9680  219.9143 H   0  0  0  0  0  0  0  0  0  0  0  0
  139.0981   69.8717  222.2156 H   0  0  0  0  0  0  0  0  0  0  0  0
  138.8189   68.5104  224.2737 H   0  0  0  0  0  0  0  0  0  0  0  0
  139.1465   68.2280  226.6965 H   0  0  0  0  0  0  0  0  0  0  0  0
  141.1255   71.3057  228.9816 H   0  0  0  0  0  0  0  0  0  0  0  0
  141.3630   72.6008  226.8795 H   0  0  0  0  0  0  0  0  0  0  0  0
  1  2  2  0
  2  3  1  0
  3  4  1  0
  4  5  1  0
  5  6  2  0
  5  7  1  0
  7  8  1  0
  8  9  1  0
  9 10  1  0
 10 11  1  0
 11 12  1  0
 12 13  1  0
 13 14  1  0
 14 15  1  0
 15 16  1  0
  2 17  1  0
 17 18  2  0
 18 19  1  0
 19 20  2  0
 20 21  1  0
 21 22  2  0
 22 23  1  0
 22 24  1  0
 24 25  2  0
 25 26  1  0
 26 27  2  0
 11  7  1  0
 16 12  1  0
 27 17  1  0
 26 20  1  0
  3 28  1  0
  4 29  1  0
  4 30  1  0
  8 31  1  0
  8 32  1  0
  9 33  1  0
  9 34  1  0
 10 35  1  0
 10 36  1  0
 11 37  1  6
 12 38  1  1
 13 39  1  0
 13 40  1  0
 14 41  1  0
 14 42  1  0
 15 43  1  0
 16 44  1  0
 16 45  1  0
 18 46  1  0
 19 47  1  0
 21 48  1  0
 24 49  1  0
 25 50  1  0
M  END
>  <smiles>  (121) 
O=C(NCC(=O)N1CCCC1C1CCNC1)c1ccc2cc(F)ccc2n1

>  <score_type>  (121) 
oracle

>  <origin>  (121) 
autodockgpu

>  <m_score__min__energy>  (121) 
-8.0399999999999991

>  <m_primary>  (121) 
energy

>  <rmsd>  (121) 
2.267810669412018

>  <m_score__min__rmsd>  (121) 
2.267810669412018

>  <meeko>  (121) 
{"free_energy": -7.85, "intermolecular_energy": -9.34, "internal_energy": -1.84, "cluster_size": 15, "cluster_id": 2, "rank_in_cluster": 5}

>  <energy>  (121) 
-7.87

>  <cluster_rmsd>  (121) 
0.16

>  <cluster>  (121) 
2

$$$$

     RDKit          3D

 50 53  0  0  0  0  0  0  0  0999 V2000
  141.0670   77.8610  217.7400 O   0  0  0  0  0  0  0  0  0  0  0  0
  141.9210   77.6020  218.6270 C   0  0  0  0  0  0  0  0  0  0  0  0
  142.1990   78.5460  219.6630 N   0  0  0  0  0  0  0  0  0  0  0  0
  141.5030   79.8320  219.7190 C   0  0  0  0  0  0  0  0  0  0  0  0
  140.2190   79.6340  220.4500 C   0  0  0  0  0  0  0  0  0  0  0  0
  139.1740   79.6760  219.7690 O   0  0  0  0  0  0  0  0  0  0  0  0
  140.2940   79.4150  221.8410 N   0  0  0  0  0  0  0  0  0  0  0  0
  140.4870   80.4330  222.9060 C   0  0  0  0  0  0  0  0  0  0  0  0
  141.6180   79.7520  223.6720 C   0  0  0  0  0  0  0  0  0  0  0  0
  141.5460   78.2570  223.3180 C   0  0  0  0  0  0  0  0  0  0  0  0
  140.2250   78.1820  222.6230 C   0  0  2  0  0  0  0  0  0  0  0  0
  139.9190   76.9550  221.8670 C   0  0  1  0  0  0  0  0  0  0  0  0
  141.0810   75.9450  221.9070 C   0  0  0  0  0  0  0  0  0  0  0  0
  140.3020   74.6730  221.5720 C   0  0  0  0  0  0  0  0  0  0  0  0
  138.9340   74.9010  222.0030 N   0  0  0  0  0  0  0  0  0  0  0  0
  138.9350   76.1340  222.7360 C   0  0  0  0  0  0  0  0  0  0  0  0
  142.6660   76.3270  218.6430 C   0  0  0  0  0  0  0  0  0  0  0  0
  142.5270   75.4950  217.5380 C   0  0  0  0  0  0  0  0  0  0  0  0
  143.2310   74.3100  217.5710 C   0  0  0  0  0  0  0  0  0  0  0  0
  144.0350   73.9470  218.6280 C   0  0  0  0  0  0  0  0  0  0  0  0
  144.7470   72.7820  218.6970 C   0  0  0  0  0  0  0  0  0  0  0  0
  145.5440   72.4480  219.7750 C   0  0  0  0  0  0  0  0  0  0  0  0
  146.2440   71.2670  219.8040 F   0  0  0  0  0  0  0  0  0  0  0  0
  145.6490   73.3220  220.8620 C   0  0  0  0  0  0  0  0  0  0  0  0
  144.9270   74.4950  220.7840 C   0  0  0  0  0  0  0  0  0  0  0  0
  144.1320   74.8260  219.7080 C   0  0  0  0  0  0  0  0  0  0  0  0
  143.4460   75.9850  219.6810 N   0  0  0  0  0  0  0  0  0  0  0  0
  142.9270   78.2900  220.3950 H   0  0  0  0  0  0  0  0  0  0  0  0
  142.1239   80.5689  220.2495 H   0  0  0  0  0  0  0  0  0  0  0  0
  141.3085   80.2039  218.7022 H   0  0  0  0  0  0  0  0  0  0  0  0
  140.7922   81.4074  222.4969 H   0  0  0  0  0  0  0  0  0  0  0  0
  139.5926   80.6801  223.4967 H   0  0  0  0  0  0  0  0  0  0  0  0
  142.5890   80.1687  223.3662 H   0  0  0  0  0  0  0  0  0  0  0  0
  141.5161   79.9098  224.7558 H   0  0  0  0  0  0  0  0  0  0  0  0
  142.3691   77.9614  222.6508 H   0  0  0  0  0  0  0  0  0  0  0  0
  141.6374   77.5849  224.1839 H   0  0  0  0  0  0  0  0  0  0  0  0
  139.3704   78.1100  223.3118 H   0  0  0  0  0  0  0  0  0  0  0  0
  139.6198   77.2785  220.8591 H   0  0  0  0  0  0  0  0  0  0  0  0
  141.8490   76.1694  221.1522 H   0  0  0  0  0  0  0  0  0  0  0  0
  141.6520   75.9170  222.8468 H   0  0  0  0  0  0  0  0  0  0  0  0
  140.3324   74.4830  220.4890 H   0  0  0  0  0  0  0  0  0  0  0  0
  140.7365   73.7966  222.0752 H   0  0  0  0  0  0  0  0  0  0  0  0
  138.6560   74.1310  222.6620 H   0  0  0  0  0  0  0  0  0  0  0  0
  137.9356   76.5926  222.7668 H   0  0  0  0  0  0  0  0  0  0  0  0
  139.2130   76.0451  223.7966 H   0  0  0  0  0  0  0  0  0  0  0  0
  141.8899   75.7673  216.6836 H   0  0  0  0  0  0  0  0  0  0  0  0
  143.1466   73.6243  216.7150 H   0  0  0  0  0  0  0  0  0  0  0  0
  144.6823   72.0775  217.8547 H   0  0  0  0  0  0  0  0  0  0  0  0
  146.2755   73.0860  221.7348 H   0  0  0  0  0  0  0  0  0  0  0  0
  144.9891   75.2026  221.6239 H   0  0  0  0  0  0  0  0  0  0  0  0
  1  2  2  0
  2  3  1  0
  3  4  1  0
  4  5  1  0
  5  6  2  0
  5  7  1  0
  7  8  1  0
  8  9  1  0
  9 10  1  0
 10 11  1  0
 11 12  1  0
 12 13  1  0
 13 14  1  0
 14 15  1  0
 15 16  1  0
  2 17  1  0
 17 18  2  0
 18 19  1  0
 19 20  2  0
 20 21  1  0
 21 22  2  0
 22 23  1  0
 22 24  1  0
 24 25  2  0
 25 26  1  0
 26 27  2  0
 11  7  1  0
 16 12  1  0
 27 17  1  0
 26 20  1  0
  3 28  1  0
  4 29  1  0
  4 30  1  0
  8 31  1  0
  8 32  1  0
  9 33  1  0
  9 34  1  0
 10 35  1  0
 10 36  1  0
 11 37  1  1
 12 38  1  6
 13 39  1  0
 13 40  1  0
 14 41  1  0
 14 42  1  0
 15 43  1  0
 16 44  1  0
 16 45  1  0
 18 46  1  0
 19 47  1  0
 21 48  1  0
 24 49  1  0
 25 50  1  0
M  END
>  <smiles>  (122) 
O=C(NCC(=O)N1CCCC1C1CCNC1)c1ccc2cc(F)ccc2n1

>  <score_type>  (122) 
oracle

>  <origin>  (122) 
autodockgpu

>  <m_score__min__energy>  (122) 
-8.0399999999999991

>  <m_primary>  (122) 
energy

>  <rmsd>  (122) 
7.858258184786611

>  <m_score__min__rmsd>  (122) 
7.858258184786611

>  <meeko>  (122) 
{"free_energy": -6.36, "intermolecular_energy": -7.85, "internal_energy": -2.31, "cluster_size": 1, "cluster_id": 6, "rank_in_cluster": 1}

>  <energy>  (122) 
-7.86

>  <cluster_rmsd>  (122) 
0.24

>  <cluster>  (122) 
2

$$$$

     RDKit          3D

 50 53  0  0  0  0  0  0  0  0999 V2000
  140.4340   71.7680  220.9390 O   0  0  0  0  0  0  0  0  0  0  0  0
  140.1030   72.2680  222.0460 C   0  0  0  0  0  0  0  0  0  0  0  0
  139.8230   73.6650  222.1550 N   0  0  0  0  0  0  0  0  0  0  0  0
  139.9140   74.5460  220.9910 C   0  0  0  0  0  0  0  0  0  0  0  0
  140.1460   75.9360  221.4780 C   0  0  0  0  0  0  0  0  0  0  0  0
  140.1960   76.0960  222.7140 O   0  0  0  0  0  0  0  0  0  0  0  0
  140.2920   76.9460  220.5050 N   0  0  0  0  0  0  0  0  0  0  0  0
  140.1680   76.8050  219.0310 C   0  0  0  0  0  0  0  0  0  0  0  0
  141.4570   77.5130  218.6230 C   0  0  0  0  0  0  0  0  0  0  0  0
  141.8470   78.4220  219.8010 C   0  0  0  0  0  0  0  0  0  0  0  0
  140.6090   78.3670  220.6370 C   0  0  2  0  0  0  0  0  0  0  0  0
  140.6920   78.8840  222.0150 C   0  0  1  0  0  0  0  0  0  0  0  0
  142.1500   79.0600  222.4820 C   0  0  0  0  0  0  0  0  0  0  0  0
  141.9190   80.0680  223.6080 C   0  0  0  0  0  0  0  0  0  0  0  0
  140.7010   80.7860  223.2750 N   0  0  0  0  0  0  0  0  0  0  0  0
  140.3410   80.3900  221.9440 C   0  0  0  0  0  0  0  0  0  0  0  0
  139.9890   71.4470  223.2680 C   0  0  0  0  0  0  0  0  0  0  0  0
  139.4100   70.1900  223.1390 C   0  0  0  0  0  0  0  0  0  0  0  0
  139.3120   69.4390  224.2910 C   0  0  0  0  0  0  0  0  0  0  0  0
  139.7570   69.8860  225.5150 C   0  0  0  0  0  0  0  0  0  0  0  0
  139.6770   69.1710  226.6780 C   0  0  0  0  0  0  0  0  0  0  0  0
  140.1320   69.6510  227.8900 C   0  0  0  0  0  0  0  0  0  0  0  0
  140.0340   68.9000  229.0350 F   0  0  0  0  0  0  0  0  0  0  0  0
  140.7070   70.9240  227.9660 C   0  0  0  0  0  0  0  0  0  0  0  0
  140.7840   71.6380  226.7880 C   0  0  0  0  0  0  0  0  0  0  0  0
  140.3280   71.1580  225.5790 C   0  0  0  0  0  0  0  0  0  0  0  0
  140.4260   71.8970  224.4560 N   0  0  0  0  0  0  0  0  0  0  0  0
  139.5460   74.0500  223.1070 H   0  0  0  0  0  0  0  0  0  0  0  0
  140.7506   74.2312  220.3499 H   0  0  0  0  0  0  0  0  0  0  0  0
  138.9850   74.4984  220.4039 H   0  0  0  0  0  0  0  0  0  0  0  0
  140.1569   75.7513  218.7155 H   0  0  0  0  0  0  0  0  0  0  0  0
  139.2438   77.2069  218.5902 H   0  0  0  0  0  0  0  0  0  0  0  0
  142.2513   76.7763  218.4322 H   0  0  0  0  0  0  0  0  0  0  0  0
  141.3164   78.0954  217.7005 H   0  0  0  0  0  0  0  0  0  0  0  0
  142.7175   78.0256  220.3443 H   0  0  0  0  0  0  0  0  0  0  0  0
  142.1457   79.4386  219.5054 H   0  0  0  0  0  0  0  0  0  0  0  0
  139.8211   79.0568  220.3004 H   0  0  0  0  0  0  0  0  0  0  0  0
  140.0844   78.2092  222.6359 H   0  0  0  0  0  0  0  0  0  0  0  0
  142.5810   78.1184  222.8530 H   0  0  0  0  0  0  0  0  0  0  0  0
  142.8618   79.3737  221.7042 H   0  0  0  0  0  0  0  0  0  0  0  0
  141.8012   79.5447  224.5683 H   0  0  0  0  0  0  0  0  0  0  0  0
  142.7717   80.7557  223.7075 H   0  0  0  0  0  0  0  0  0  0  0  0
  140.9100   81.8160  223.2630 H   0  0  0  0  0  0  0  0  0  0  0  0
  139.2716   80.5521  221.7438 H   0  0  0  0  0  0  0  0  0  0  0  0
  140.8432   80.9480  221.1400 H   0  0  0  0  0  0  0  0  0  0  0  0
  139.0494   69.8146  222.1700 H   0  0  0  0  0  0  0  0  0  0  0  0
  138.8584   68.4388  224.2296 H   0  0  0  0  0  0  0  0  0  0  0  0
  139.2293   68.1667  226.6464 H   0  0  0  0  0  0  0  0  0  0  0  0
  141.0787   71.3347  228.9163 H   0  0  0  0  0  0  0  0  0  0  0  0
  141.2324   72.6421  226.8150 H   0  0  0  0  0  0  0  0  0  0  0  0
  1  2  2  0
  2  3  1  0
  3  4  1  0
  4  5  1  0
  5  6  2  0
  5  7  1  0
  7  8  1  0
  8  9  1  0
  9 10  1  0
 10 11  1  0
 11 12  1  0
 12 13  1  0
 13 14  1  0
 14 15  1  0
 15 16  1  0
  2 17  1  0
 17 18  2  0
 18 19  1  0
 19 20  2  0
 20 21  1  0
 21 22  2  0
 22 23  1  0
 22 24  1  0
 24 25  2  0
 25 26  1  0
 26 27  2  0
 11  7  1  0
 16 12  1  0
 27 17  1  0
 26 20  1  0
  3 28  1  0
  4 29  1  0
  4 30  1  0
  8 31  1  0
  8 32  1  0
  9 33  1  0
  9 34  1  0
 10 35  1  0
 10 36  1  0
 11 37  1  6
 12 38  1  1
 13 39  1  0
 13 40  1  0
 14 41  1  0
 14 42  1  0
 15 43  1  0
 16 44  1  0
 16 45  1  0
 18 46  1  0
 19 47  1  0
 21 48  1  0
 24 49  1  0
 25 50  1  0
M  END
>  <smiles>  (123) 
O=C(NCC(=O)N1CCCC1C1CCNC1)c1ccc2cc(F)ccc2n1

>  <score_type>  (123) 
oracle

>  <origin>  (123) 
autodockgpu

>  <m_score__min__energy>  (123) 
-8.0399999999999991

>  <m_primary>  (123) 
energy

>  <rmsd>  (123) 
1.7299019665186461

>  <m_score__min__rmsd>  (123) 
1.7299019665186461

>  <meeko>  (123) 
{"free_energy": -7.5, "intermolecular_energy": -8.99, "internal_energy": -1.8, "cluster_size": 19, "cluster_id": 1, "rank_in_cluster": 15}

>  <energy>  (123) 
-7.85

>  <cluster_rmsd>  (123) 
0.26

>  <cluster>  (123) 
2

$$$$

     RDKit          3D

 50 53  0  0  0  0  0  0  0  0999 V2000
  139.1600   70.7170  221.4920 O   0  0  0  0  0  0  0  0  0  0  0  0
  139.3640   71.2290  222.6240 C   0  0  0  0  0  0  0  0  0  0  0  0
  139.4340   72.6480  222.7760 N   0  0  0  0  0  0  0  0  0  0  0  0
  139.2730   73.5390  221.6280 C   0  0  0  0  0  0  0  0  0  0  0  0
  140.6280   73.9820  221.1900 C   0  0  0  0  0  0  0  0  0  0  0  0
  141.2240   74.7840  221.9370 O   0  0  0  0  0  0  0  0  0  0  0  0
  141.1190   73.4590  219.9770 N   0  0  0  0  0  0  0  0  0  0  0  0
  140.3420   73.1340  218.7530 C   0  0  0  0  0  0  0  0  0  0  0  0
  140.8780   71.7270  218.5060 C   0  0  0  0  0  0  0  0  0  0  0  0
  142.2320   71.6430  219.2310 C   0  0  0  0  0  0  0  0  0  0  0  0
  142.4720   73.0780  219.5740 C   0  0  2  0  0  0  0  0  0  0  0  0
  143.5420   73.3800  220.5410 C   0  0  1  0  0  0  0  0  0  0  0  0
  144.6480   72.3070  220.5350 C   0  0  0  0  0  0  0  0  0  0  0  0
  145.7810   73.1310  221.1470 C   0  0  0  0  0  0  0  0  0  0  0  0
  145.4960   74.5200  220.8340 N   0  0  0  0  0  0  0  0  0  0  0  0
  144.3890   74.5170  219.9210 C   0  0  0  0  0  0  0  0  0  0  0  0
  139.5370   70.3990  223.8330 C   0  0  0  0  0  0  0  0  0  0  0  0
  139.0880   69.0840  223.7730 C   0  0  0  0  0  0  0  0  0  0  0  0
  139.2580   68.3260  224.9110 C   0  0  0  0  0  0  0  0  0  0  0  0
  139.8390   68.8190  226.0580 C   0  0  0  0  0  0  0  0  0  0  0  0
  140.0240   68.0980  227.2060 C   0  0  0  0  0  0  0  0  0  0  0  0
  140.6100   68.6250  228.3400 C   0  0  0  0  0  0  0  0  0  0  0  0
  140.7780   67.8670  229.4720 F   0  0  0  0  0  0  0  0  0  0  0  0
  141.0440   69.9550  228.3480 C   0  0  0  0  0  0  0  0  0  0  0  0
  140.8530   70.6740  227.1870 C   0  0  0  0  0  0  0  0  0  0  0  0
  140.2680   70.1470  226.0560 C   0  0  0  0  0  0  0  0  0  0  0  0
  140.1040   70.8930  224.9460 N   0  0  0  0  0  0  0  0  0  0  0  0
  139.6070   73.0410  223.7490 H   0  0  0  0  0  0  0  0  0  0  0  0
  138.7729   73.0032  220.8077 H   0  0  0  0  0  0  0  0  0  0  0  0
  138.6592   74.4089  221.9046 H   0  0  0  0  0  0  0  0  0  0  0  0
  139.2577   73.1370  218.9383 H   0  0  0  0  0  0  0  0  0  0  0  0
  140.4542   73.8397  217.9167 H   0  0  0  0  0  0  0  0  0  0  0  0
  140.1821   70.9783  218.9123 H   0  0  0  0  0  0  0  0  0  0  0  0
  140.9893   71.5265  217.4302 H   0  0  0  0  0  0  0  0  0  0  0  0
  142.1667   71.0188  220.1344 H   0  0  0  0  0  0  0  0  0  0  0  0
  143.0337   71.1828  218.6348 H   0  0  0  0  0  0  0  0  0  0  0  0
  142.8968   73.6621  218.7443 H   0  0  0  0  0  0  0  0  0  0  0  0
  143.0486   73.5324  221.5122 H   0  0  0  0  0  0  0  0  0  0  0  0
  144.3851   71.4397  221.1584 H   0  0  0  0  0  0  0  0  0  0  0  0
  144.8656   71.8562  219.5555 H   0  0  0  0  0  0  0  0  0  0  0  0
  145.8109   72.9854  222.2369 H   0  0  0  0  0  0  0  0  0  0  0  0
  146.7579   72.8248  220.7446 H   0  0  0  0  0  0  0  0  0  0  0  0
  146.3270   74.9310  220.3380 H   0  0  0  0  0  0  0  0  0  0  0  0
  143.8518   75.4769  219.9257 H   0  0  0  0  0  0  0  0  0  0  0  0
  144.6573   74.3749  218.8637 H   0  0  0  0  0  0  0  0  0  0  0  0
  138.6223   68.6714  222.8659 H   0  0  0  0  0  0  0  0  0  0  0  0
  138.9145   67.2810  224.9029 H   0  0  0  0  0  0  0  0  0  0  0  0
  139.6905   67.0500  227.2266 H   0  0  0  0  0  0  0  0  0  0  0  0
  141.5138   70.4043  229.2354 H   0  0  0  0  0  0  0  0  0  0  0  0
  141.1847   71.7225  227.1623 H   0  0  0  0  0  0  0  0  0  0  0  0
  1  2  2  0
  2  3  1  0
  3  4  1  0
  4  5  1  0
  5  6  2  0
  5  7  1  0
  7  8  1  0
  8  9  1  0
  9 10  1  0
 10 11  1  0
 11 12  1  0
 12 13  1  0
 13 14  1  0
 14 15  1  0
 15 16  1  0
  2 17  1  0
 17 18  2  0
 18 19  1  0
 19 20  2  0
 20 21  1  0
 21 22  2  0
 22 23  1  0
 22 24  1  0
 24 25  2  0
 25 26  1  0
 26 27  2  0
 11  7  1  0
 16 12  1  0
 27 17  1  0
 26 20  1  0
  3 28  1  0
  4 29  1  0
  4 30  1  0
  8 31  1  0
  8 32  1  0
  9 33  1  0
  9 34  1  0
 10 35  1  0
 10 36  1  0
 11 37  1  6
 12 38  1  1
 13 39  1  0
 13 40  1  0
 14 41  1  0
 14 42  1  0
 15 43  1  0
 16 44  1  0
 16 45  1  0
 18 46  1  0
 19 47  1  0
 21 48  1  0
 24 49  1  0
 25 50  1  0
M  END
>  <smiles>  (124) 
O=C(NCC(=O)N1CCCC1C1CCNC1)c1ccc2cc(F)ccc2n1

>  <score_type>  (124) 
oracle

>  <origin>  (124) 
autodockgpu

>  <m_score__min__energy>  (124) 
-8.0399999999999991

>  <m_primary>  (124) 
energy

>  <rmsd>  (124) 
2.669222339849438

>  <m_score__min__rmsd>  (124) 
2.669222339849438

>  <meeko>  (124) 
{"free_energy": -7.39, "intermolecular_energy": -8.88, "internal_energy": -1.71, "cluster_size": 15, "cluster_id": 2, "rank_in_cluster": 12}

>  <energy>  (124) 
-7.85

>  <cluster_rmsd>  (124) 
0.25

>  <cluster>  (124) 
2

$$$$

     RDKit          3D

 50 53  0  0  0  0  0  0  0  0999 V2000
  140.2920   70.8420  221.7040 O   0  0  0  0  0  0  0  0  0  0  0  0
  140.1560   71.5780  222.7160 C   0  0  0  0  0  0  0  0  0  0  0  0
  139.8710   72.9700  222.5670 N   0  0  0  0  0  0  0  0  0  0  0  0
  139.7310   73.5750  221.2420 C   0  0  0  0  0  0  0  0  0  0  0  0
  140.3700   74.9210  221.2770 C   0  0  0  0  0  0  0  0  0  0  0  0
  140.1740   75.6090  222.2990 O   0  0  0  0  0  0  0  0  0  0  0  0
  141.1390   75.3010  220.1580 N   0  0  0  0  0  0  0  0  0  0  0  0
  141.8000   74.4080  219.1710 C   0  0  0  0  0  0  0  0  0  0  0  0
  143.1880   75.0440  219.1790 C   0  0  0  0  0  0  0  0  0  0  0  0
  143.0060   76.4810  219.6940 C   0  0  0  0  0  0  0  0  0  0  0  0
  141.5180   76.6210  219.6570 C   0  0  2  0  0  0  0  0  0  0  0  0
  140.9220   77.7720  220.3590 C   0  0  1  0  0  0  0  0  0  0  0  0
  141.7650   78.2120  221.5710 C   0  0  0  0  0  0  0  0  0  0  0  0
  141.2520   79.6450  221.7110 C   0  0  0  0  0  0  0  0  0  0  0  0
  140.7970   80.0500  220.3920 N   0  0  0  0  0  0  0  0  0  0  0  0
  141.2020   79.0170  219.4820 C   0  0  0  0  0  0  0  0  0  0  0  0
  140.2810   71.0460  224.0880 C   0  0  0  0  0  0  0  0  0  0  0  0
  140.8050   71.8950  225.0550 C   0  0  0  0  0  0  0  0  0  0  0  0
  140.9130   71.3800  226.3290 C   0  0  0  0  0  0  0  0  0  0  0  0
  140.5300   70.0980  226.6530 C   0  0  0  0  0  0  0  0  0  0  0  0
  140.6220   69.5520  227.9030 C   0  0  0  0  0  0  0  0  0  0  0  0
  140.2280   68.2610  228.1930 C   0  0  0  0  0  0  0  0  0  0  0  0
  140.3370   67.7510  229.4630 F   0  0  0  0  0  0  0  0  0  0  0  0
  139.7070   67.4460  227.1820 C   0  0  0  0  0  0  0  0  0  0  0  0
  139.6170   68.0050  225.9230 C   0  0  0  0  0  0  0  0  0  0  0  0
  140.0110   69.2940  225.6360 C   0  0  0  0  0  0  0  0  0  0  0  0
  139.9030   69.7920  224.3890 N   0  0  0  0  0  0  0  0  0  0  0  0
  139.7620   73.5590  223.4470 H   0  0  0  0  0  0  0  0  0  0  0  0
  140.2293   72.9453  220.4902 H   0  0  0  0  0  0  0  0  0  0  0  0
  138.6677   73.6651  220.9749 H   0  0  0  0  0  0  0  0  0  0  0  0
  141.8223   73.3616  219.5095 H   0  0  0  0  0  0  0  0  0  0  0  0
  141.3122   74.3414  218.1873 H   0  0  0  0  0  0  0  0  0  0  0  0
  143.8592   74.4833  219.8461 H   0  0  0  0  0  0  0  0  0  0  0  0
  143.6358   75.0349  218.1743 H   0  0  0  0  0  0  0  0  0  0  0  0
  143.3955   76.5944  220.7164 H   0  0  0  0  0  0  0  0  0  0  0  0
  143.5440   77.2405  219.1077 H   0  0  0  0  0  0  0  0  0  0  0  0
  141.1265   76.8757  218.6611 H   0  0  0  0  0  0  0  0  0  0  0  0
  139.8851   77.4892  220.5933 H   0  0  0  0  0  0  0  0  0  0  0  0
  141.5497   77.6076  222.4645 H   0  0  0  0  0  0  0  0  0  0  0  0
  142.8537   78.1086  221.4528 H   0  0  0  0  0  0  0  0  0  0  0  0
  140.4191   79.6822  222.4285 H   0  0  0  0  0  0  0  0  0  0  0  0
  142.0404   80.3156  222.0835 H   0  0  0  0  0  0  0  0  0  0  0  0
  141.2950   80.9360  220.1220 H   0  0  0  0  0  0  0  0  0  0  0  0
  140.5939   79.0173  218.5653 H   0  0  0  0  0  0  0  0  0  0  0  0
  142.2334   79.1022  219.1092 H   0  0  0  0  0  0  0  0  0  0  0  0
  141.1168   72.9226  224.8167 H   0  0  0  0  0  0  0  0  0  0  0  0
  141.3235   72.0221  227.1222 H   0  0  0  0  0  0  0  0  0  0  0  0
  141.0293   70.1707  228.7163 H   0  0  0  0  0  0  0  0  0  0  0  0
  139.3856   66.4128  227.3803 H   0  0  0  0  0  0  0  0  0  0  0  0
  139.2099   67.3899  225.1069 H   0  0  0  0  0  0  0  0  0  0  0  0
  1  2  2  0
  2  3  1  0
  3  4  1  0
  4  5  1  0
  5  6  2  0
  5  7  1  0
  7  8  1  0
  8  9  1  0
  9 10  1  0
 10 11  1  0
 11 12  1  0
 12 13  1  0
 13 14  1  0
 14 15  1  0
 15 16  1  0
  2 17  1  0
 17 18  2  0
 18 19  1  0
 19 20  2  0
 20 21  1  0
 21 22  2  0
 22 23  1  0
 22 24  1  0
 24 25  2  0
 25 26  1  0
 26 27  2  0
 11  7  1  0
 16 12  1  0
 27 17  1  0
 26 20  1  0
  3 28  1  0
  4 29  1  0
  4 30  1  0
  8 31  1  0
  8 32  1  0
  9 33  1  0
  9 34  1  0
 10 35  1  0
 10 36  1  0
 11 37  1  6
 12 38  1  1
 13 39  1  0
 13 40  1  0
 14 41  1  0
 14 42  1  0
 15 43  1  0
 16 44  1  0
 16 45  1  0
 18 46  1  0
 19 47  1  0
 21 48  1  0
 24 49  1  0
 25 50  1  0
M  END
>  <smiles>  (125) 
O=C(NCC(=O)N1CCCC1C1CCNC1)c1ccc2cc(F)ccc2n1

>  <score_type>  (125) 
oracle

>  <origin>  (125) 
autodockgpu

>  <m_score__min__energy>  (125) 
-8.0399999999999991

>  <m_primary>  (125) 
energy

>  <rmsd>  (125) 
2.90426143632407

>  <m_score__min__rmsd>  (125) 
2.90426143632407

>  <meeko>  (125) 
{"free_energy": -6.93, "intermolecular_energy": -8.42, "internal_energy": -1.47, "cluster_size": 3, "cluster_id": 3, "rank_in_cluster": 3}

>  <energy>  (125) 
-7.84

>  <cluster_rmsd>  (125) 
0.2

>  <cluster>  (125) 
2

$$$$

     RDKit          3D

 50 53  0  0  0  0  0  0  0  0999 V2000
  134.7360   68.5080  225.1490 O   0  0  0  0  0  0  0  0  0  0  0  0
  135.1090   69.7030  225.0140 C   0  0  0  0  0  0  0  0  0  0  0  0
  136.2560   70.0190  224.2230 N   0  0  0  0  0  0  0  0  0  0  0  0
  137.0240   68.9700  223.5520 C   0  0  0  0  0  0  0  0  0  0  0  0
  138.3910   68.9430  224.1470 C   0  0  0  0  0  0  0  0  0  0  0  0
  138.8870   67.8190  224.3600 O   0  0  0  0  0  0  0  0  0  0  0  0
  139.0040   70.1840  224.4140 N   0  0  0  0  0  0  0  0  0  0  0  0
  139.0390   71.3820  223.5370 C   0  0  0  0  0  0  0  0  0  0  0  0
  140.5350   71.6750  223.6060 C   0  0  0  0  0  0  0  0  0  0  0  0
  141.0510   71.0050  224.8910 C   0  0  0  0  0  0  0  0  0  0  0  0
  139.7690   70.6460  225.5710 C   0  0  2  0  0  0  0  0  0  0  0  0
  139.8370   69.7160  226.7130 C   0  0  1  0  0  0  0  0  0  0  0  0
  140.7810   68.5300  226.4370 C   0  0  0  0  0  0  0  0  0  0  0  0
  141.0670   68.1140  227.8800 C   0  0  0  0  0  0  0  0  0  0  0  0
  140.8880   69.3030  228.6950 N   0  0  0  0  0  0  0  0  0  0  0  0
  140.7160   70.4010  227.7880 C   0  0  0  0  0  0  0  0  0  0  0  0
  134.3890   70.8200  225.6570 C   0  0  0  0  0  0  0  0  0  0  0  0
  133.3710   70.4950  226.5460 C   0  0  0  0  0  0  0  0  0  0  0  0
  132.7110   71.5510  227.1360 C   0  0  0  0  0  0  0  0  0  0  0  0
  133.0240   72.8670  226.8770 C   0  0  0  0  0  0  0  0  0  0  0  0
  132.3930   73.9400  227.4420 C   0  0  0  0  0  0  0  0  0  0  0  0
  132.7330   75.2490  227.1590 C   0  0  0  0  0  0  0  0  0  0  0  0
  132.0740   76.2990  227.7490 F   0  0  0  0  0  0  0  0  0  0  0  0
  133.7650   75.5230  226.2560 C   0  0  0  0  0  0  0  0  0  0  0  0
  134.3970   74.4330  225.6910 C   0  0  0  0  0  0  0  0  0  0  0  0
  134.0570   73.1280  225.9740 C   0  0  0  0  0  0  0  0  0  0  0  0
  134.7050   72.0990  225.3940 N   0  0  0  0  0  0  0  0  0  0  0  0
  136.5390   71.0410  224.1330 H   0  0  0  0  0  0  0  0  0  0  0  0
  136.5337   67.9965  223.7002 H   0  0  0  0  0  0  0  0  0  0  0  0
  137.0826   69.1725  222.4724 H   0  0  0  0  0  0  0  0  0  0  0  0
  138.7088   71.1547  222.5127 H   0  0  0  0  0  0  0  0  0  0  0  0
  138.3778   72.2092  223.8346 H   0  0  0  0  0  0  0  0  0  0  0  0
  141.0457   71.2552  222.7268 H   0  0  0  0  0  0  0  0  0  0  0  0
  140.7289   72.7577  223.6158 H   0  0  0  0  0  0  0  0  0  0  0  0
  141.6511   70.1111  224.6657 H   0  0  0  0  0  0  0  0  0  0  0  0
  141.7172   71.6402  225.4933 H   0  0  0  0  0  0  0  0  0  0  0  0
  139.3195   71.4810  226.1284 H   0  0  0  0  0  0  0  0  0  0  0  0
  138.7994   69.4384  226.9503 H   0  0  0  0  0  0  0  0  0  0  0  0
  140.2841   67.7307  225.8677 H   0  0  0  0  0  0  0  0  0  0  0  0
  141.6661   68.7611  225.8261 H   0  0  0  0  0  0  0  0  0  0  0  0
  140.3650   67.3280  228.1952 H   0  0  0  0  0  0  0  0  0  0  0  0
  142.0850   67.7103  227.9834 H   0  0  0  0  0  0  0  0  0  0  0  0
  141.7680   69.4700  229.2450 H   0  0  0  0  0  0  0  0  0  0  0  0
  140.1975   71.2470  228.2628 H   0  0  0  0  0  0  0  0  0  0  0  0
  141.6492   70.8464  227.4128 H   0  0  0  0  0  0  0  0  0  0  0  0
  133.1064   69.4504  226.7668 H   0  0  0  0  0  0  0  0  0  0  0  0
  131.8985   71.3334  227.8449 H   0  0  0  0  0  0  0  0  0  0  0  0
  131.5767   73.7526  228.1551 H   0  0  0  0  0  0  0  0  0  0  0  0
  134.0583   76.5539  226.0085 H   0  0  0  0  0  0  0  0  0  0  0  0
  135.2144   74.6160  224.9779 H   0  0  0  0  0  0  0  0  0  0  0  0
  1  2  2  0
  2  3  1  0
  3  4  1  0
  4  5  1  0
  5  6  2  0
  5  7  1  0
  7  8  1  0
  8  9  1  0
  9 10  1  0
 10 11  1  0
 11 12  1  0
 12 13  1  0
 13 14  1  0
 14 15  1  0
 15 16  1  0
  2 17  1  0
 17 18  2  0
 18 19  1  0
 19 20  2  0
 20 21  1  0
 21 22  2  0
 22 23  1  0
 22 24  1  0
 24 25  2  0
 25 26  1  0
 26 27  2  0
 11  7  1  0
 16 12  1  0
 27 17  1  0
 26 20  1  0
  3 28  1  0
  4 29  1  0
  4 30  1  0
  8 31  1  0
  8 32  1  0
  9 33  1  0
  9 34  1  0
 10 35  1  0
 10 36  1  0
 11 37  1  1
 12 38  1  1
 13 39  1  0
 13 40  1  0
 14 41  1  0
 14 42  1  0
 15 43  1  0
 16 44  1  0
 16 45  1  0
 18 46  1  0
 19 47  1  0
 21 48  1  0
 24 49  1  0
 25 50  1  0
M  END
>  <smiles>  (126) 
O=C(NCC(=O)N1CCCC1C1CCNC1)c1ccc2cc(F)ccc2n1

>  <score_type>  (126) 
oracle

>  <origin>  (126) 
autodockgpu

>  <m_score__min__energy>  (126) 
-8.0399999999999991

>  <m_primary>  (126) 
energy

>  <rmsd>  (126) 
7.602651915319098

>  <m_score__min__rmsd>  (126) 
7.602651915319098

>  <meeko>  (126) 
{"free_energy": -7.56, "intermolecular_energy": -9.06, "internal_energy": -1.62, "cluster_size": 8, "cluster_id": 4, "rank_in_cluster": 5}

>  <energy>  (126) 
-7.8

>  <cluster_rmsd>  (126) 
0.29

>  <cluster>  (126) 
2

$$$$

     RDKit          3D

 50 53  0  0  0  0  0  0  0  0999 V2000
  138.4470   71.2360  221.3950 O   0  0  0  0  0  0  0  0  0  0  0  0
  139.0120   71.6810  222.4270 C   0  0  0  0  0  0  0  0  0  0  0  0
  139.4230   73.0480  222.4970 N   0  0  0  0  0  0  0  0  0  0  0  0
  139.1990   73.9610  221.3760 C   0  0  0  0  0  0  0  0  0  0  0  0
  140.1740   75.0830  221.4900 C   0  0  0  0  0  0  0  0  0  0  0  0
  141.0780   74.9560  222.3400 O   0  0  0  0  0  0  0  0  0  0  0  0
  139.9930   76.1870  220.6320 N   0  0  0  0  0  0  0  0  0  0  0  0
  139.4160   76.1810  219.2630 C   0  0  0  0  0  0  0  0  0  0  0  0
  140.5020   76.9840  218.5520 C   0  0  0  0  0  0  0  0  0  0  0  0
  141.2280   77.7940  219.6390 C   0  0  0  0  0  0  0  0  0  0  0  0
  140.3150   77.6020  220.8070 C   0  0  2  0  0  0  0  0  0  0  0  0
  140.8170   77.9890  222.1380 C   0  0  1  0  0  0  0  0  0  0  0  0
  141.9300   79.0510  222.0510 C   0  0  0  0  0  0  0  0  0  0  0  0
  141.8290   79.6170  223.4680 C   0  0  0  0  0  0  0  0  0  0  0  0
  140.4650   79.3830  223.9090 N   0  0  0  0  0  0  0  0  0  0  0  0
  139.7400   78.9060  222.7670 C   0  0  0  0  0  0  0  0  0  0  0  0
  139.2740   70.8250  223.6020 C   0  0  0  0  0  0  0  0  0  0  0  0
  138.8580   69.5010  223.5300 C   0  0  0  0  0  0  0  0  0  0  0  0
  139.1110   68.7180  224.6360 C   0  0  0  0  0  0  0  0  0  0  0  0
  139.7410   69.1970  225.7630 C   0  0  0  0  0  0  0  0  0  0  0  0
  140.0090   68.4520  226.8780 C   0  0  0  0  0  0  0  0  0  0  0  0
  140.6430   68.9650  227.9920 C   0  0  0  0  0  0  0  0  0  0  0  0
  140.8950   68.1830  229.0920 F   0  0  0  0  0  0  0  0  0  0  0  0
  141.0420   70.3060  228.0140 C   0  0  0  0  0  0  0  0  0  0  0  0
  140.7680   71.0500  226.8840 C   0  0  0  0  0  0  0  0  0  0  0  0
  140.1350   70.5360  225.7730 C   0  0  0  0  0  0  0  0  0  0  0  0
  139.8890   71.3060  224.6950 N   0  0  0  0  0  0  0  0  0  0  0  0
  139.8970   73.3870  223.3870 H   0  0  0  0  0  0  0  0  0  0  0  0
  139.3524   73.4290  220.4255 H   0  0  0  0  0  0  0  0  0  0  0  0
  138.1693   74.3473  221.3993 H   0  0  0  0  0  0  0  0  0  0  0  0
  139.3222   75.1626  218.8579 H   0  0  0  0  0  0  0  0  0  0  0  0
  138.3945   76.5794  219.1750 H   0  0  0  0  0  0  0  0  0  0  0  0
  141.2072   76.3066  218.0481 H   0  0  0  0  0  0  0  0  0  0  0  0
  140.0709   77.6442  217.7850 H   0  0  0  0  0  0  0  0  0  0  0  0
  142.2306   77.3889  219.8408 H   0  0  0  0  0  0  0  0  0  0  0  0
  141.4044   78.8468  219.3737 H   0  0  0  0  0  0  0  0  0  0  0  0
  139.4516   78.2836  220.8049 H   0  0  0  0  0  0  0  0  0  0  0  0
  141.1045   77.0558  222.6444 H   0  0  0  0  0  0  0  0  0  0  0  0
  142.9148   78.6018  221.8551 H   0  0  0  0  0  0  0  0  0  0  0  0
  141.8221   79.7850  221.2388 H   0  0  0  0  0  0  0  0  0  0  0  0
  142.5373   79.1026  224.1341 H   0  0  0  0  0  0  0  0  0  0  0  0
  142.0749   80.6890  223.4868 H   0  0  0  0  0  0  0  0  0  0  0  0
  140.0440   80.3010  224.2020 H   0  0  0  0  0  0  0  0  0  0  0  0
  138.8417   78.3421  223.0586 H   0  0  0  0  0  0  0  0  0  0  0  0
  139.3496   79.6904  222.1019 H   0  0  0  0  0  0  0  0  0  0  0  0
  138.3540   69.0994  222.6385 H   0  0  0  0  0  0  0  0  0  0  0  0
  138.7958   67.6643  224.6175 H   0  0  0  0  0  0  0  0  0  0  0  0
  139.7053   67.3948  226.8878 H   0  0  0  0  0  0  0  0  0  0  0  0
  141.5479   70.7447  228.8867 H   0  0  0  0  0  0  0  0  0  0  0  0
  141.0705   72.1075  226.8696 H   0  0  0  0  0  0  0  0  0  0  0  0
  1  2  2  0
  2  3  1  0
  3  4  1  0
  4  5  1  0
  5  6  2  0
  5  7  1  0
  7  8  1  0
  8  9  1  0
  9 10  1  0
 10 11  1  0
 11 12  1  0
 12 13  1  0
 13 14  1  0
 14 15  1  0
 15 16  1  0
  2 17  1  0
 17 18  2  0
 18 19  1  0
 19 20  2  0
 20 21  1  0
 21 22  2  0
 22 23  1  0
 22 24  1  0
 24 25  2  0
 25 26  1  0
 26 27  2  0
 11  7  1  0
 16 12  1  0
 27 17  1  0
 26 20  1  0
  3 28  1  0
  4 29  1  0
  4 30  1  0
  8 31  1  0
  8 32  1  0
  9 33  1  0
  9 34  1  0
 10 35  1  0
 10 36  1  0
 11 37  1  6
 12 38  1  1
 13 39  1  0
 13 40  1  0
 14 41  1  0
 14 42  1  0
 15 43  1  0
 16 44  1  0
 16 45  1  0
 18 46  1  0
 19 47  1  0
 21 48  1  0
 24 49  1  0
 25 50  1  0
M  END
>  <smiles>  (127) 
O=C(NCC(=O)N1CCCC1C1CCNC1)c1ccc2cc(F)ccc2n1

>  <score_type>  (127) 
oracle

>  <origin>  (127) 
autodockgpu

>  <m_score__min__energy>  (127) 
-8.0399999999999991

>  <m_primary>  (127) 
energy

>  <rmsd>  (127) 
1.1930375813446343

>  <m_score__min__rmsd>  (127) 
1.1930375813446343

>  <meeko>  (127) 
{"free_energy": -7.14, "intermolecular_energy": -8.64, "internal_energy": -1.93, "cluster_size": 19, "cluster_id": 1, "rank_in_cluster": 16}

>  <energy>  (127) 
-7.8

>  <cluster_rmsd>  (127) 
0.29

>  <cluster>  (127) 
2

$$$$

     RDKit          3D

 50 53  0  0  0  0  0  0  0  0999 V2000
  140.2020   71.7470  221.0020 O   0  0  0  0  0  0  0  0  0  0  0  0
  139.9750   72.2330  222.1410 C   0  0  0  0  0  0  0  0  0  0  0  0
  139.7280   73.6320  222.2950 N   0  0  0  0  0  0  0  0  0  0  0  0
  139.7310   74.5310  221.1410 C   0  0  0  0  0  0  0  0  0  0  0  0
  140.3480   75.8220  221.5600 C   0  0  0  0  0  0  0  0  0  0  0  0
  141.5430   75.9990  221.2490 O   0  0  0  0  0  0  0  0  0  0  0  0
  139.5320   76.7290  222.2680 N   0  0  0  0  0  0  0  0  0  0  0  0
  138.1480   76.5050  222.7580 C   0  0  0  0  0  0  0  0  0  0  0  0
  137.5040   77.7790  222.2200 C   0  0  0  0  0  0  0  0  0  0  0  0
  138.6450   78.7870  222.0030 C   0  0  0  0  0  0  0  0  0  0  0  0
  139.7770   78.1040  222.7000 C   0  0  2  0  0  0  0  0  0  0  0  0
  141.1370   78.6210  222.4650 C   0  0  1  0  0  0  0  0  0  0  0  0
  141.1210   80.0270  221.8340 C   0  0  0  0  0  0  0  0  0  0  0  0
  142.5270   80.4800  222.2290 C   0  0  0  0  0  0  0  0  0  0  0  0
  142.8790   79.7380  223.4270 N   0  0  0  0  0  0  0  0  0  0  0  0
  141.6920   79.0480  223.8460 C   0  0  0  0  0  0  0  0  0  0  0  0
  139.9540   71.3940  223.3560 C   0  0  0  0  0  0  0  0  0  0  0  0
  139.4990   70.0880  223.2190 C   0  0  0  0  0  0  0  0  0  0  0  0
  139.4860   69.3200  224.3640 C   0  0  0  0  0  0  0  0  0  0  0  0
  139.8970   69.7970  225.5890 C   0  0  0  0  0  0  0  0  0  0  0  0
  139.8990   69.0680  226.7450 C   0  0  0  0  0  0  0  0  0  0  0  0
  140.3180   69.5790  227.9580 C   0  0  0  0  0  0  0  0  0  0  0  0
  140.3050   68.8110  229.0970 F   0  0  0  0  0  0  0  0  0  0  0  0
  140.7670   70.9010  228.0410 C   0  0  0  0  0  0  0  0  0  0  0  0
  140.7620   71.6300  226.8700 C   0  0  0  0  0  0  0  0  0  0  0  0
  140.3430   71.1190  225.6600 C   0  0  0  0  0  0  0  0  0  0  0  0
  140.3570   71.8730  224.5440 N   0  0  0  0  0  0  0  0  0  0  0  0
  139.5400   74.0050  223.2740 H   0  0  0  0  0  0  0  0  0  0  0  0
  140.3170   74.0859  220.3234 H   0  0  0  0  0  0  0  0  0  0  0  0
  138.7034   74.6978  220.7857 H   0  0  0  0  0  0  0  0  0  0  0  0
  137.6975   75.5993  222.3258 H   0  0  0  0  0  0  0  0  0  0  0  0
  138.0471   76.3413  223.8410 H   0  0  0  0  0  0  0  0  0  0  0  0
  136.9924   77.5735  221.2682 H   0  0  0  0  0  0  0  0  0  0  0  0
  136.7538   78.1724  222.9217 H   0  0  0  0  0  0  0  0  0  0  0  0
  138.8582   78.9295  220.9333 H   0  0  0  0  0  0  0  0  0  0  0  0
  138.4297   79.7983  222.3785 H   0  0  0  0  0  0  0  0  0  0  0  0
  139.7796   78.2609  223.7888 H   0  0  0  0  0  0  0  0  0  0  0  0
  141.6632   77.8544  221.8773 H   0  0  0  0  0  0  0  0  0  0  0  0
  140.9913   79.9881  220.7424 H   0  0  0  0  0  0  0  0  0  0  0  0
  140.3019   80.6841  222.1615 H   0  0  0  0  0  0  0  0  0  0  0  0
  143.2391   80.2566  221.4209 H   0  0  0  0  0  0  0  0  0  0  0  0
  142.5590   81.5646  222.4096 H   0  0  0  0  0  0  0  0  0  0  0  0
  143.1410   80.4210  224.1820 H   0  0  0  0  0  0  0  0  0  0  0  0
  141.9253   78.1797  224.4798 H   0  0  0  0  0  0  0  0  0  0  0  0
  141.0011   79.6414  224.4629 H   0  0  0  0  0  0  0  0  0  0  0  0
  139.1671   69.6885  222.2493 H   0  0  0  0  0  0  0  0  0  0  0  0
  139.1318   68.2808  224.2962 H   0  0  0  0  0  0  0  0  0  0  0  0
  139.5506   68.0253  226.7077 H   0  0  0  0  0  0  0  0  0  0  0  0
  141.1069   71.3373  228.9919 H   0  0  0  0  0  0  0  0  0  0  0  0
  141.1103   72.6729  226.9033 H   0  0  0  0  0  0  0  0  0  0  0  0
  1  2  2  0
  2  3  1  0
  3  4  1  0
  4  5  1  0
  5  6  2  0
  5  7  1  0
  7  8  1  0
  8  9  1  0
  9 10  1  0
 10 11  1  0
 11 12  1  0
 12 13  1  0
 13 14  1  0
 14 15  1  0
 15 16  1  0
  2 17  1  0
 17 18  2  0
 18 19  1  0
 19 20  2  0
 20 21  1  0
 21 22  2  0
 22 23  1  0
 22 24  1  0
 24 25  2  0
 25 26  1  0
 26 27  2  0
 11  7  1  0
 16 12  1  0
 27 17  1  0
 26 20  1  0
  3 28  1  0
  4 29  1  0
  4 30  1  0
  8 31  1  0
  8 32  1  0
  9 33  1  0
  9 34  1  0
 10 35  1  0
 10 36  1  0
 11 37  1  1
 12 38  1  6
 13 39  1  0
 13 40  1  0
 14 41  1  0
 14 42  1  0
 15 43  1  0
 16 44  1  0
 16 45  1  0
 18 46  1  0
 19 47  1  0
 21 48  1  0
 24 49  1  0
 25 50  1  0
M  END
>  <smiles>  (128) 
O=C(NCC(=O)N1CCCC1C1CCNC1)c1ccc2cc(F)ccc2n1

>  <score_type>  (128) 
oracle

>  <origin>  (128) 
autodockgpu

>  <m_score__min__energy>  (128) 
-8.0399999999999991

>  <m_primary>  (128) 
energy

>  <rmsd>  (128) 
2.7455104277658178

>  <m_score__min__rmsd>  (128) 
2.7455104277658178

>  <meeko>  (128) 
{"free_energy": -7.88, "intermolecular_energy": -9.37, "internal_energy": -1.28, "cluster_size": 19, "cluster_id": 1, "rank_in_cluster": 2}

>  <energy>  (128) 
-7.79

>  <cluster_rmsd>  (128) 
0.31

>  <cluster>  (128) 
2

$$$$

     RDKit          3D

 50 53  0  0  0  0  0  0  0  0999 V2000
  137.7050   71.1240  222.0030 O   0  0  0  0  0  0  0  0  0  0  0  0
  138.5840   71.4850  222.8280 C   0  0  0  0  0  0  0  0  0  0  0  0
  139.1920   72.7740  222.7210 N   0  0  0  0  0  0  0  0  0  0  0  0
  138.8120   73.7020  221.6560 C   0  0  0  0  0  0  0  0  0  0  0  0
  139.8700   74.7470  221.5530 C   0  0  0  0  0  0  0  0  0  0  0  0
  140.9130   74.5560  222.2100 O   0  0  0  0  0  0  0  0  0  0  0  0
  139.6030   75.8580  220.7260 N   0  0  0  0  0  0  0  0  0  0  0  0
  139.1500   75.8420  219.3120 C   0  0  0  0  0  0  0  0  0  0  0  0
  140.1640   76.8260  218.7340 C   0  0  0  0  0  0  0  0  0  0  0  0
  140.6700   77.6730  219.9140 C   0  0  0  0  0  0  0  0  0  0  0  0
  139.7000   77.2930  220.9860 C   0  0  2  0  0  0  0  0  0  0  0  0
  140.0270   77.6770  222.3720 C   0  0  1  0  0  0  0  0  0  0  0  0
  141.4370   78.2890  222.4850 C   0  0  0  0  0  0  0  0  0  0  0  0
  141.2590   79.0510  223.7990 C   0  0  0  0  0  0  0  0  0  0  0  0
  139.8420   79.3460  223.9160 N   0  0  0  0  0  0  0  0  0  0  0  0
  139.2410   78.9770  222.6670 C   0  0  0  0  0  0  0  0  0  0  0  0
  139.0220   70.6080  223.9320 C   0  0  0  0  0  0  0  0  0  0  0  0
  138.7910   69.2440  223.7920 C   0  0  0  0  0  0  0  0  0  0  0  0
  139.2080   68.4420  224.8330 C   0  0  0  0  0  0  0  0  0  0  0  0
  139.8230   68.9390  225.9600 C   0  0  0  0  0  0  0  0  0  0  0  0
  140.2490   68.1770  227.0120 C   0  0  0  0  0  0  0  0  0  0  0  0
  140.8620   68.7090  228.1300 C   0  0  0  0  0  0  0  0  0  0  0  0
  141.2760   67.9070  229.1640 F   0  0  0  0  0  0  0  0  0  0  0  0
  141.0700   70.0890  228.2210 C   0  0  0  0  0  0  0  0  0  0  0  0
  140.6370   70.8510  227.1550 C   0  0  0  0  0  0  0  0  0  0  0  0
  140.0250   70.3180  226.0410 C   0  0  0  0  0  0  0  0  0  0  0  0
  139.6190   71.1070  225.0270 N   0  0  0  0  0  0  0  0  0  0  0  0
  139.9300   73.0420  223.4390 H   0  0  0  0  0  0  0  0  0  0  0  0
  138.7284   73.1607  220.7020 H   0  0  0  0  0  0  0  0  0  0  0  0
  137.8401   74.1647  221.8826 H   0  0  0  0  0  0  0  0  0  0  0  0
  139.2390   74.8430  218.8603 H   0  0  0  0  0  0  0  0  0  0  0  0
  138.0925   76.0966  219.1479 H   0  0  0  0  0  0  0  0  0  0  0  0
  141.0001   76.2820  218.2703 H   0  0  0  0  0  0  0  0  0  0  0  0
  139.7082   77.4573  217.9570 H   0  0  0  0  0  0  0  0  0  0  0  0
  141.7004   77.4041  220.1898 H   0  0  0  0  0  0  0  0  0  0  0  0
  140.7124   78.7526  219.7075 H   0  0  0  0  0  0  0  0  0  0  0  0
  138.7500   77.8449  220.9332 H   0  0  0  0  0  0  0  0  0  0  0  0
  139.8575   76.7832  222.9904 H   0  0  0  0  0  0  0  0  0  0  0  0
  142.2175   77.5173  222.5576 H   0  0  0  0  0  0  0  0  0  0  0  0
  141.7614   78.8945  221.6259 H   0  0  0  0  0  0  0  0  0  0  0  0
  141.5892   78.4310  224.6455 H   0  0  0  0  0  0  0  0  0  0  0  0
  141.8593   79.9727  223.8087 H   0  0  0  0  0  0  0  0  0  0  0  0
  139.7230   80.3820  224.0420 H   0  0  0  0  0  0  0  0  0  0  0  0
  138.1624   78.7883  222.7717 H   0  0  0  0  0  0  0  0  0  0  0  0
  139.2955   79.7431  221.8795 H   0  0  0  0  0  0  0  0  0  0  0  0
  138.3020   68.8274  222.8991 H   0  0  0  0  0  0  0  0  0  0  0  0
  139.0420   67.3571  224.7599 H   0  0  0  0  0  0  0  0  0  0  0  0
  140.0965   67.0886  226.9662 H   0  0  0  0  0  0  0  0  0  0  0  0
  141.5542   70.5439  229.0977 H   0  0  0  0  0  0  0  0  0  0  0  0
  140.7881   71.9398  227.1965 H   0  0  0  0  0  0  0  0  0  0  0  0
  1  2  2  0
  2  3  1  0
  3  4  1  0
  4  5  1  0
  5  6  2  0
  5  7  1  0
  7  8  1  0
  8  9  1  0
  9 10  1  0
 10 11  1  0
 11 12  1  0
 12 13  1  0
 13 14  1  0
 14 15  1  0
 15 16  1  0
  2 17  1  0
 17 18  2  0
 18 19  1  0
 19 20  2  0
 20 21  1  0
 21 22  2  0
 22 23  1  0
 22 24  1  0
 24 25  2  0
 25 26  1  0
 26 27  2  0
 11  7  1  0
 16 12  1  0
 27 17  1  0
 26 20  1  0
  3 28  1  0
  4 29  1  0
  4 30  1  0
  8 31  1  0
  8 32  1  0
  9 33  1  0
  9 34  1  0
 10 35  1  0
 10 36  1  0
 11 37  1  6
 12 38  1  1
 13 39  1  0
 13 40  1  0
 14 41  1  0
 14 42  1  0
 15 43  1  0
 16 44  1  0
 16 45  1  0
 18 46  1  0
 19 47  1  0
 21 48  1  0
 24 49  1  0
 25 50  1  0
M  END
>  <smiles>  (129) 
O=C(NCC(=O)N1CCCC1C1CCNC1)c1ccc2cc(F)ccc2n1

>  <score_type>  (129) 
oracle

>  <origin>  (129) 
autodockgpu

>  <m_score__min__energy>  (129) 
-8.0399999999999991

>  <m_primary>  (129) 
energy

>  <rmsd>  (129) 
1.2844251377185145

>  <m_score__min__rmsd>  (129) 
1.2844251377185145

>  <meeko>  (129) 
{"free_energy": -6.98, "intermolecular_energy": -8.47, "internal_energy": -1.93, "cluster_size": 19, "cluster_id": 1, "rank_in_cluster": 19}

>  <energy>  (129) 
-7.78

>  <cluster_rmsd>  (129) 
0.32

>  <cluster>  (129) 
2

$$$$

     RDKit          3D

 50 53  0  0  0  0  0  0  0  0999 V2000
  140.0920   71.5690  221.0240 O   0  0  0  0  0  0  0  0  0  0  0  0
  139.8860   72.0500  222.1680 C   0  0  0  0  0  0  0  0  0  0  0  0
  139.6280   73.4460  222.3320 N   0  0  0  0  0  0  0  0  0  0  0  0
  139.5970   74.3480  221.1800 C   0  0  0  0  0  0  0  0  0  0  0  0
  140.8630   75.1360  221.1740 C   0  0  0  0  0  0  0  0  0  0  0  0
  140.8820   76.1720  221.8690 O   0  0  0  0  0  0  0  0  0  0  0  0
  141.9260   74.6450  220.3890 N   0  0  0  0  0  0  0  0  0  0  0  0
  142.6560   73.3630  220.5570 C   0  0  0  0  0  0  0  0  0  0  0  0
  144.0830   73.9010  220.4980 C   0  0  0  0  0  0  0  0  0  0  0  0
  144.0090   75.2540  219.7710 C   0  0  0  0  0  0  0  0  0  0  0  0
  142.6140   75.2250  219.2360 C   0  0  2  0  0  0  0  0  0  0  0  0
  142.0540   76.4860  218.7180 C   0  0  1  0  0  0  0  0  0  0  0  0
  142.2110   77.6450  219.7210 C   0  0  0  0  0  0  0  0  0  0  0  0
  142.0870   78.8180  218.7500 C   0  0  0  0  0  0  0  0  0  0  0  0
  142.5160   78.3270  217.4520 N   0  0  0  0  0  0  0  0  0  0  0  0
  143.0600   77.0170  217.6680 C   0  0  0  0  0  0  0  0  0  0  0  0
  139.8990   71.2080  223.3810 C   0  0  0  0  0  0  0  0  0  0  0  0
  139.4400   69.9020  223.2550 C   0  0  0  0  0  0  0  0  0  0  0  0
  139.4610   69.1310  224.3970 C   0  0  0  0  0  0  0  0  0  0  0  0
  139.9080   69.6050  225.6110 C   0  0  0  0  0  0  0  0  0  0  0  0
  139.9430   68.8720  226.7650 C   0  0  0  0  0  0  0  0  0  0  0  0
  140.3970   69.3800  227.9660 C   0  0  0  0  0  0  0  0  0  0  0  0
  140.4170   68.6090  229.1030 F   0  0  0  0  0  0  0  0  0  0  0  0
  140.8480   70.7020  228.0400 C   0  0  0  0  0  0  0  0  0  0  0  0
  140.8090   71.4340  226.8710 C   0  0  0  0  0  0  0  0  0  0  0  0
  140.3560   70.9260  225.6730 C   0  0  0  0  0  0  0  0  0  0  0  0
  140.3370   71.6840  224.5590 N   0  0  0  0  0  0  0  0  0  0  0  0
  139.4580   73.8140  223.3150 H   0  0  0  0  0  0  0  0  0  0  0  0
  139.5170   73.7640  220.2513 H   0  0  0  0  0  0  0  0  0  0  0  0
  138.7296   75.0212  221.2465 H   0  0  0  0  0  0  0  0  0  0  0  0
  142.4340   72.8838  221.5219 H   0  0  0  0  0  0  0  0  0  0  0  0
  142.4128   72.5773  219.8266 H   0  0  0  0  0  0  0  0  0  0  0  0
  144.4803   74.0370  221.5147 H   0  0  0  0  0  0  0  0  0  0  0  0
  144.7504   73.2024  219.9720 H   0  0  0  0  0  0  0  0  0  0  0  0
  144.1558   76.0932  220.4668 H   0  0  0  0  0  0  0  0  0  0  0  0
  144.7829   75.3943  219.0019 H   0  0  0  0  0  0  0  0  0  0  0  0
  142.5158   74.6600  218.2973 H   0  0  0  0  0  0  0  0  0  0  0  0
  141.0178   76.2666  218.4212 H   0  0  0  0  0  0  0  0  0  0  0  0
  141.4113   77.6482  220.4763 H   0  0  0  0  0  0  0  0  0  0  0  0
  143.1293   77.6263  220.3263 H   0  0  0  0  0  0  0  0  0  0  0  0
  141.0431   79.1613  218.7003 H   0  0  0  0  0  0  0  0  0  0  0  0
  142.7016   79.6702  219.0756 H   0  0  0  0  0  0  0  0  0  0  0  0
  143.2870   78.9460  217.0960 H   0  0  0  0  0  0  0  0  0  0  0  0
  143.0496   76.4127  216.7489 H   0  0  0  0  0  0  0  0  0  0  0  0
  144.1144   76.9960  217.9806 H   0  0  0  0  0  0  0  0  0  0  0  0
  139.0792   69.5050  222.2947 H   0  0  0  0  0  0  0  0  0  0  0  0
  139.1054   68.0918  224.3367 H   0  0  0  0  0  0  0  0  0  0  0  0
  139.5933   67.8295  226.7351 H   0  0  0  0  0  0  0  0  0  0  0  0
  141.2150   71.1359  228.9819 H   0  0  0  0  0  0  0  0  0  0  0  0
  141.1576   72.4770  226.8968 H   0  0  0  0  0  0  0  0  0  0  0  0
  1  2  2  0
  2  3  1  0
  3  4  1  0
  4  5  1  0
  5  6  2  0
  5  7  1  0
  7  8  1  0
  8  9  1  0
  9 10  1  0
 10 11  1  0
 11 12  1  0
 12 13  1  0
 13 14  1  0
 14 15  1  0
 15 16  1  0
  2 17  1  0
 17 18  2  0
 18 19  1  0
 19 20  2  0
 20 21  1  0
 21 22  2  0
 22 23  1  0
 22 24  1  0
 24 25  2  0
 25 26  1  0
 26 27  2  0
 11  7  1  0
 16 12  1  0
 27 17  1  0
 26 20  1  0
  3 28  1  0
  4 29  1  0
  4 30  1  0
  8 31  1  0
  8 32  1  0
  9 33  1  0
  9 34  1  0
 10 35  1  0
 10 36  1  0
 11 37  1  6
 12 38  1  6
 13 39  1  0
 13 40  1  0
 14 41  1  0
 14 42  1  0
 15 43  1  0
 16 44  1  0
 16 45  1  0
 18 46  1  0
 19 47  1  0
 21 48  1  0
 24 49  1  0
 25 50  1  0
M  END
>  <smiles>  (130) 
O=C(NCC(=O)N1CCCC1C1CCNC1)c1ccc2cc(F)ccc2n1

>  <score_type>  (130) 
oracle

>  <origin>  (130) 
autodockgpu

>  <m_score__min__energy>  (130) 
-8.0399999999999991

>  <m_primary>  (130) 
energy

>  <rmsd>  (130) 
2.5375729446534865

>  <m_score__min__rmsd>  (130) 
2.5375729446534865

>  <meeko>  (130) 
{"free_energy": -7.78, "intermolecular_energy": -9.27, "internal_energy": -1.46, "cluster_size": 3, "cluster_id": 3, "rank_in_cluster": 1}

>  <energy>  (130) 
-7.73

>  <cluster_rmsd>  (130) 
0.32

>  <cluster>  (130) 
2

$$$$

     RDKit          3D

 50 53  0  0  0  0  0  0  0  0999 V2000
  140.3400   71.3580  221.0740 O   0  0  0  0  0  0  0  0  0  0  0  0
  140.0550   71.8800  222.1830 C   0  0  0  0  0  0  0  0  0  0  0  0
  139.8230   73.2860  222.2850 N   0  0  0  0  0  0  0  0  0  0  0  0
  139.9110   74.1520  221.1090 C   0  0  0  0  0  0  0  0  0  0  0  0
  139.8500   75.5690  221.5710 C   0  0  0  0  0  0  0  0  0  0  0  0
  139.4270   75.7630  222.7280 O   0  0  0  0  0  0  0  0  0  0  0  0
  140.2750   76.5630  220.6660 N   0  0  0  0  0  0  0  0  0  0  0  0
  140.1160   76.5660  219.1890 C   0  0  0  0  0  0  0  0  0  0  0  0
  141.5530   76.9090  218.8040 C   0  0  0  0  0  0  0  0  0  0  0  0
  142.1840   77.5860  220.0320 C   0  0  0  0  0  0  0  0  0  0  0  0
  140.9810   77.8240  220.8880 C   0  0  2  0  0  0  0  0  0  0  0  0
  141.2060   78.1980  222.2960 C   0  0  1  0  0  0  0  0  0  0  0  0
  142.1880   79.3770  222.4320 C   0  0  0  0  0  0  0  0  0  0  0  0
  141.7880   79.8600  223.8260 C   0  0  0  0  0  0  0  0  0  0  0  0
  140.4050   79.4590  224.0200 N   0  0  0  0  0  0  0  0  0  0  0  0
  139.9410   78.9610  222.7570 C   0  0  0  0  0  0  0  0  0  0  0  0
  139.9470   71.0750  223.4170 C   0  0  0  0  0  0  0  0  0  0  0  0
  139.3910   69.8060  223.3030 C   0  0  0  0  0  0  0  0  0  0  0  0
  139.2990   69.0700  224.4650 C   0  0  0  0  0  0  0  0  0  0  0  0
  139.7270   69.5430  225.6850 C   0  0  0  0  0  0  0  0  0  0  0  0
  139.6520   68.8440  226.8580 C   0  0  0  0  0  0  0  0  0  0  0  0
  140.0910   69.3500  228.0660 C   0  0  0  0  0  0  0  0  0  0  0  0
  139.9990   68.6140  229.2220 F   0  0  0  0  0  0  0  0  0  0  0  0
  140.6430   70.6340  228.1260 C   0  0  0  0  0  0  0  0  0  0  0  0
  140.7140   71.3320  226.9380 C   0  0  0  0  0  0  0  0  0  0  0  0
  140.2760   70.8260  225.7340 C   0  0  0  0  0  0  0  0  0  0  0  0
  140.3680   71.5500  224.6010 N   0  0  0  0  0  0  0  0  0  0  0  0
  139.5840   73.6890  223.2400 H   0  0  0  0  0  0  0  0  0  0  0  0
  140.8604   73.9718  220.5835 H   0  0  0  0  0  0  0  0  0  0  0  0
  139.0821   73.9408  220.4174 H   0  0  0  0  0  0  0  0  0  0  0  0
  139.8077   75.5828  218.8039 H   0  0  0  0  0  0  0  0  0  0  0  0
  139.3428   77.2417  218.7944 H   0  0  0  0  0  0  0  0  0  0  0  0
  142.1067   75.9936  218.5482 H   0  0  0  0  0  0  0  0  0  0  0  0
  141.5825   77.5707  217.9258 H   0  0  0  0  0  0  0  0  0  0  0  0
  142.9072   76.9232  220.5296 H   0  0  0  0  0  0  0  0  0  0  0  0
  142.7575   78.4954  219.7992 H   0  0  0  0  0  0  0  0  0  0  0  0
  140.4211   78.7307  220.6153 H   0  0  0  0  0  0  0  0  0  0  0  0
  141.5104   77.2782  222.8169 H   0  0  0  0  0  0  0  0  0  0  0  0
  143.2367   79.0470  222.3947 H   0  0  0  0  0  0  0  0  0  0  0  0
  142.1334   80.1332  221.6350 H   0  0  0  0  0  0  0  0  0  0  0  0
  142.4294   79.3938  224.5884 H   0  0  0  0  0  0  0  0  0  0  0  0
  141.9029   80.9501  223.9176 H   0  0  0  0  0  0  0  0  0  0  0  0
  139.8390   80.3100  224.2630 H   0  0  0  0  0  0  0  0  0  0  0  0
  139.0777   78.2894  222.8739 H   0  0  0  0  0  0  0  0  0  0  0  0
  139.5795   79.7292  222.0576 H   0  0  0  0  0  0  0  0  0  0  0  0
  139.0431   69.4104  222.3374 H   0  0  0  0  0  0  0  0  0  0  0  0
  138.8646   68.0606  224.4152 H   0  0  0  0  0  0  0  0  0  0  0  0
  139.2220   67.8317  226.8386 H   0  0  0  0  0  0  0  0  0  0  0  0
  141.0021   71.0652  229.0721 H   0  0  0  0  0  0  0  0  0  0  0  0
  141.1426   72.3450  226.9531 H   0  0  0  0  0  0  0  0  0  0  0  0
  1  2  2  0
  2  3  1  0
  3  4  1  0
  4  5  1  0
  5  6  2  0
  5  7  1  0
  7  8  1  0
  8  9  1  0
  9 10  1  0
 10 11  1  0
 11 12  1  0
 12 13  1  0
 13 14  1  0
 14 15  1  0
 15 16  1  0
  2 17  1  0
 17 18  2  0
 18 19  1  0
 19 20  2  0
 20 21  1  0
 21 22  2  0
 22 23  1  0
 22 24  1  0
 24 25  2  0
 25 26  1  0
 26 27  2  0
 11  7  1  0
 16 12  1  0
 27 17  1  0
 26 20  1  0
  3 28  1  0
  4 29  1  0
  4 30  1  0
  8 31  1  0
  8 32  1  0
  9 33  1  0
  9 34  1  0
 10 35  1  0
 10 36  1  0
 11 37  1  6
 12 38  1  1
 13 39  1  0
 13 40  1  0
 14 41  1  0
 14 42  1  0
 15 43  1  0
 16 44  1  0
 16 45  1  0
 18 46  1  0
 19 47  1  0
 21 48  1  0
 24 49  1  0
 25 50  1  0
M  END
>  <smiles>  (131) 
O=C(NCC(=O)N1CCCC1C1CCNC1)c1ccc2cc(F)ccc2n1

>  <score_type>  (131) 
oracle

>  <origin>  (131) 
autodockgpu

>  <m_score__min__energy>  (131) 
-8.0399999999999991

>  <m_primary>  (131) 
energy

>  <rmsd>  (131) 
1.6037637803700795

>  <m_score__min__rmsd>  (131) 
1.6037637803700795

>  <meeko>  (131) 
{"free_energy": -7.73, "intermolecular_energy": -9.22, "internal_energy": -1.83, "cluster_size": 19, "cluster_id": 1, "rank_in_cluster": 8}

>  <energy>  (131) 
-7.39

>  <cluster_rmsd>  (131) 
1.57

>  <cluster>  (131) 
2

$$$$

     RDKit          3D

 50 53  0  0  0  0  0  0  0  0999 V2000
  134.7080   68.4840  225.0940 O   0  0  0  0  0  0  0  0  0  0  0  0
  135.1000   69.6760  224.9910 C   0  0  0  0  0  0  0  0  0  0  0  0
  136.2650   69.9920  224.2260 N   0  0  0  0  0  0  0  0  0  0  0  0
  137.0290   68.9460  223.5470 C   0  0  0  0  0  0  0  0  0  0  0  0
  138.3990   68.9160  224.1340 C   0  0  0  0  0  0  0  0  0  0  0  0
  138.8990   67.7910  224.3340 O   0  0  0  0  0  0  0  0  0  0  0  0
  139.0100   70.1560  224.4130 N   0  0  0  0  0  0  0  0  0  0  0  0
  139.0460   71.3610  223.5440 C   0  0  0  0  0  0  0  0  0  0  0  0
  140.5420   71.6540  223.6200 C   0  0  0  0  0  0  0  0  0  0  0  0
  141.0550   70.9760  224.9010 C   0  0  0  0  0  0  0  0  0  0  0  0
  139.7720   70.6100  225.5750 C   0  0  2  0  0  0  0  0  0  0  0  0
  139.8390   69.6720  226.7100 C   0  0  1  0  0  0  0  0  0  0  0  0
  140.7850   68.4890  226.4280 C   0  0  0  0  0  0  0  0  0  0  0  0
  141.0680   68.0630  227.8680 C   0  0  0  0  0  0  0  0  0  0  0  0
  140.8840   69.2450  228.6920 N   0  0  0  0  0  0  0  0  0  0  0  0
  140.7130   70.3500  227.7920 C   0  0  0  0  0  0  0  0  0  0  0  0
  134.3850   70.7900  225.6450 C   0  0  0  0  0  0  0  0  0  0  0  0
  133.3630   70.4600  226.5270 C   0  0  0  0  0  0  0  0  0  0  0  0
  132.7070   71.5130  227.1280 C   0  0  0  0  0  0  0  0  0  0  0  0
  133.0280   72.8290  226.8850 C   0  0  0  0  0  0  0  0  0  0  0  0
  132.4010   73.9000  227.4600 C   0  0  0  0  0  0  0  0  0  0  0  0
  132.7480   75.2100  227.1920 C   0  0  0  0  0  0  0  0  0  0  0  0
  132.0940   76.2570  227.7930 F   0  0  0  0  0  0  0  0  0  0  0  0
  133.7850   75.4880  226.2950 C   0  0  0  0  0  0  0  0  0  0  0  0
  134.4110   74.4020  225.7190 C   0  0  0  0  0  0  0  0  0  0  0  0
  134.0640   73.0960  225.9870 C   0  0  0  0  0  0  0  0  0  0  0  0
  134.7070   72.0700  225.3970 N   0  0  0  0  0  0  0  0  0  0  0  0
  136.5630   71.0110  224.1620 H   0  0  0  0  0  0  0  0  0  0  0  0
  136.5393   67.9720  223.6939 H   0  0  0  0  0  0  0  0  0  0  0  0
  137.0819   69.1531  222.4680 H   0  0  0  0  0  0  0  0  0  0  0  0
  138.7190   71.1407  222.5171 H   0  0  0  0  0  0  0  0  0  0  0  0
  138.3830   72.1856  223.8450 H   0  0  0  0  0  0  0  0  0  0  0  0
  141.0555   71.2405  222.7394 H   0  0  0  0  0  0  0  0  0  0  0  0
  140.7349   72.7368  223.6384 H   0  0  0  0  0  0  0  0  0  0  0  0
  141.6572   70.0847  224.6710 H   0  0  0  0  0  0  0  0  0  0  0  0
  141.7183   71.6081  225.5096 H   0  0  0  0  0  0  0  0  0  0  0  0
  139.3197   71.4401  226.1375 H   0  0  0  0  0  0  0  0  0  0  0  0
  138.8012   69.3911  226.9424 H   0  0  0  0  0  0  0  0  0  0  0  0
  140.2903   67.6932  225.8518 H   0  0  0  0  0  0  0  0  0  0  0  0
  141.6714   68.7255  225.8211 H   0  0  0  0  0  0  0  0  0  0  0  0
  140.3670   67.2729  228.1752 H   0  0  0  0  0  0  0  0  0  0  0  0
  142.0868   67.6613  227.9708 H   0  0  0  0  0  0  0  0  0  0  0  0
  141.7630   69.4090  229.2460 H   0  0  0  0  0  0  0  0  0  0  0  0
  140.1917   71.1917  228.2714 H   0  0  0  0  0  0  0  0  0  0  0  0
  141.6466   70.7996  227.4230 H   0  0  0  0  0  0  0  0  0  0  0  0
  133.0920   69.4143  226.7345 H   0  0  0  0  0  0  0  0  0  0  0  0
  131.8916   71.2918  227.8324 H   0  0  0  0  0  0  0  0  0  0  0  0
  131.5820   73.7092  228.1691 H   0  0  0  0  0  0  0  0  0  0  0  0
  134.0858   76.5199  226.0610 H   0  0  0  0  0  0  0  0  0  0  0  0
  135.2299   74.5886  225.0087 H   0  0  0  0  0  0  0  0  0  0  0  0
  1  2  2  0
  2  3  1  0
  3  4  1  0
  4  5  1  0
  5  6  2  0
  5  7  1  0
  7  8  1  0
  8  9  1  0
  9 10  1  0
 10 11  1  0
 11 12  1  0
 12 13  1  0
 13 14  1  0
 14 15  1  0
 15 16  1  0
  2 17  1  0
 17 18  2  0
 18 19  1  0
 19 20  2  0
 20 21  1  0
 21 22  2  0
 22 23  1  0
 22 24  1  0
 24 25  2  0
 25 26  1  0
 26 27  2  0
 11  7  1  0
 16 12  1  0
 27 17  1  0
 26 20  1  0
  3 28  1  0
  4 29  1  0
  4 30  1  0
  8 31  1  0
  8 32  1  0
  9 33  1  0
  9 34  1  0
 10 35  1  0
 10 36  1  0
 11 37  1  1
 12 38  1  1
 13 39  1  0
 13 40  1  0
 14 41  1  0
 14 42  1  0
 15 43  1  0
 16 44  1  0
 16 45  1  0
 18 46  1  0
 19 47  1  0
 21 48  1  0
 24 49  1  0
 25 50  1  0
M  END
>  <smiles>  (132) 
O=C(NCC(=O)N1CCCC1C1CCNC1)c1ccc2cc(F)ccc2n1

>  <score_type>  (132) 
oracle

>  <origin>  (132) 
autodockgpu

>  <m_score__min__energy>  (132) 
-8.0399999999999991

>  <m_primary>  (132) 
energy

>  <rmsd>  (132) 
7.600525215927657

>  <m_score__min__rmsd>  (132) 
7.600525215927657

>  <meeko>  (132) 
{"free_energy": -7.58, "intermolecular_energy": -9.07, "internal_energy": -1.61, "cluster_size": 8, "cluster_id": 4, "rank_in_cluster": 3}

>  <energy>  (132) 
-7.39

>  <cluster_rmsd>  (132) 
1.46

>  <cluster>  (132) 
2

$$$$

     RDKit          3D

 50 53  0  0  0  0  0  0  0  0999 V2000
  134.7320   68.4900  225.1830 O   0  0  0  0  0  0  0  0  0  0  0  0
  135.0610   69.6940  225.0170 C   0  0  0  0  0  0  0  0  0  0  0  0
  136.1820   70.0320  224.1980 N   0  0  0  0  0  0  0  0  0  0  0  0
  136.9730   68.9950  223.5350 C   0  0  0  0  0  0  0  0  0  0  0  0
  138.3070   68.9340  224.1970 C   0  0  0  0  0  0  0  0  0  0  0  0
  138.7670   67.7980  224.4270 O   0  0  0  0  0  0  0  0  0  0  0  0
  138.9330   70.1600  224.5040 N   0  0  0  0  0  0  0  0  0  0  0  0
  138.9610   71.3920  223.6740 C   0  0  0  0  0  0  0  0  0  0  0  0
  140.4600   71.6730  223.7290 C   0  0  0  0  0  0  0  0  0  0  0  0
  140.9940   70.9490  224.9770 C   0  0  0  0  0  0  0  0  0  0  0  0
  139.7210   70.5710  225.6640 C   0  0  2  0  0  0  0  0  0  0  0  0
  139.8030   69.5950  226.7660 C   0  0  1  0  0  0  0  0  0  0  0  0
  140.7460   68.4220  226.4320 C   0  0  0  0  0  0  0  0  0  0  0  0
  141.0480   67.9490  227.8540 C   0  0  0  0  0  0  0  0  0  0  0  0
  140.8760   69.1020  228.7190 N   0  0  0  0  0  0  0  0  0  0  0  0
  140.6920   70.2360  227.8590 C   0  0  0  0  0  0  0  0  0  0  0  0
  134.3150   70.7990  225.6510 C   0  0  0  0  0  0  0  0  0  0  0  0
  133.2610   70.4580  226.4910 C   0  0  0  0  0  0  0  0  0  0  0  0
  132.5770   71.5030  227.0730 C   0  0  0  0  0  0  0  0  0  0  0  0
  132.9010   72.8230  226.8530 C   0  0  0  0  0  0  0  0  0  0  0  0
  132.2470   73.8860  227.4110 C   0  0  0  0  0  0  0  0  0  0  0  0
  132.5980   75.2000  227.1670 C   0  0  0  0  0  0  0  0  0  0  0  0
  131.9150   76.2390  227.7490 F   0  0  0  0  0  0  0  0  0  0  0  0
  133.6670   75.4900  226.3130 C   0  0  0  0  0  0  0  0  0  0  0  0
  134.3210   74.4110  225.7540 C   0  0  0  0  0  0  0  0  0  0  0  0
  133.9700   73.1010  225.9980 C   0  0  0  0  0  0  0  0  0  0  0  0
  134.6410   72.0830  225.4260 N   0  0  0  0  0  0  0  0  0  0  0  0
  136.4280   71.0610  224.0830 H   0  0  0  0  0  0  0  0  0  0  0  0
  136.4661   68.0232  223.6280 H   0  0  0  0  0  0  0  0  0  0  0  0
  137.0888   69.2296  222.4666 H   0  0  0  0  0  0  0  0  0  0  0  0
  138.6121   71.2072  222.6473 H   0  0  0  0  0  0  0  0  0  0  0  0
  138.3103   72.2107  224.0150 H   0  0  0  0  0  0  0  0  0  0  0  0
  140.9528   71.2858  222.8250 H   0  0  0  0  0  0  0  0  0  0  0  0
  140.6609   72.7533  223.7791 H   0  0  0  0  0  0  0  0  0  0  0  0
  141.5841   70.0612  224.7058 H   0  0  0  0  0  0  0  0  0  0  0  0
  141.6750   71.5552  225.5924 H   0  0  0  0  0  0  0  0  0  0  0  0
  139.2867   71.3862  226.2613 H   0  0  0  0  0  0  0  0  0  0  0  0
  138.7681   69.3064  227.0022 H   0  0  0  0  0  0  0  0  0  0  0  0
  140.2439   67.6453  225.8364 H   0  0  0  0  0  0  0  0  0  0  0  0
  141.6241   68.6788  225.8213 H   0  0  0  0  0  0  0  0  0  0  0  0
  140.3508   67.1492  228.1442 H   0  0  0  0  0  0  0  0  0  0  0  0
  142.0681   67.5445  227.9297 H   0  0  0  0  0  0  0  0  0  0  0  0
  141.7610   69.2490  229.2660 H   0  0  0  0  0  0  0  0  0  0  0  0
  140.1772   71.0607  228.3737 H   0  0  0  0  0  0  0  0  0  0  0  0
  141.6206   70.6978  227.4923 H   0  0  0  0  0  0  0  0  0  0  0  0
  132.9876   69.4096  226.6809 H   0  0  0  0  0  0  0  0  0  0  0  0
  131.7353   71.2726  227.7427 H   0  0  0  0  0  0  0  0  0  0  0  0
  131.4017   73.6859  228.0858 H   0  0  0  0  0  0  0  0  0  0  0  0
  133.9709   76.5251  226.0980 H   0  0  0  0  0  0  0  0  0  0  0  0
  135.1666   74.6069  225.0783 H   0  0  0  0  0  0  0  0  0  0  0  0
  1  2  2  0
  2  3  1  0
  3  4  1  0
  4  5  1  0
  5  6  2  0
  5  7  1  0
  7  8  1  0
  8  9  1  0
  9 10  1  0
 10 11  1  0
 11 12  1  0
 12 13  1  0
 13 14  1  0
 14 15  1  0
 15 16  1  0
  2 17  1  0
 17 18  2  0
 18 19  1  0
 19 20  2  0
 20 21  1  0
 21 22  2  0
 22 23  1  0
 22 24  1  0
 24 25  2  0
 25 26  1  0
 26 27  2  0
 11  7  1  0
 16 12  1  0
 27 17  1  0
 26 20  1  0
  3 28  1  0
  4 29  1  0
  4 30  1  0
  8 31  1  0
  8 32  1  0
  9 33  1  0
  9 34  1  0
 10 35  1  0
 10 36  1  0
 11 37  1  1
 12 38  1  1
 13 39  1  0
 13 40  1  0
 14 41  1  0
 14 42  1  0
 15 43  1  0
 16 44  1  0
 16 45  1  0
 18 46  1  0
 19 47  1  0
 21 48  1  0
 24 49  1  0
 25 50  1  0
M  END
>  <smiles>  (133) 
O=C(NCC(=O)N1CCCC1C1CCNC1)c1ccc2cc(F)ccc2n1

>  <score_type>  (133) 
oracle

>  <origin>  (133) 
autodockgpu

>  <m_score__min__energy>  (133) 
-8.0399999999999991

>  <m_primary>  (133) 
energy

>  <rmsd>  (133) 
7.670269134660282

>  <m_score__min__rmsd>  (133) 
7.670269134660282

>  <meeko>  (133) 
{"free_energy": -7.55, "intermolecular_energy": -9.04, "internal_energy": -1.61, "cluster_size": 8, "cluster_id": 4, "rank_in_cluster": 6}

>  <energy>  (133) 
-7.19

>  <cluster_rmsd>  (133) 
1.07

>  <cluster>  (133) 
2

$$$$

     RDKit          3D

 50 53  0  0  0  0  0  0  0  0999 V2000
  139.9630   71.5110  221.0140 O   0  0  0  0  0  0  0  0  0  0  0  0
  139.8320   72.0060  222.1630 C   0  0  0  0  0  0  0  0  0  0  0  0
  139.6650   73.4150  222.3310 N   0  0  0  0  0  0  0  0  0  0  0  0
  139.6430   74.3150  221.1780 C   0  0  0  0  0  0  0  0  0  0  0  0
  140.9010   75.1140  221.1890 C   0  0  0  0  0  0  0  0  0  0  0  0
  140.9060   76.1440  221.8930 O   0  0  0  0  0  0  0  0  0  0  0  0
  141.9740   74.6410  220.4070 N   0  0  0  0  0  0  0  0  0  0  0  0
  142.7060   73.3570  220.5610 C   0  0  0  0  0  0  0  0  0  0  0  0
  144.1330   73.9000  220.5270 C   0  0  0  0  0  0  0  0  0  0  0  0
  144.0630   75.2650  219.8240 C   0  0  0  0  0  0  0  0  0  0  0  0
  142.6740   75.2420  219.2720 C   0  0  2  0  0  0  0  0  0  0  0  0
  142.1160   76.5110  218.7700 C   0  0  1  0  0  0  0  0  0  0  0  0
  142.2960   77.6620  219.7780 C   0  0  0  0  0  0  0  0  0  0  0  0
  142.1670   78.8430  218.8160 C   0  0  0  0  0  0  0  0  0  0  0  0
  142.5740   78.3570  217.5100 N   0  0  0  0  0  0  0  0  0  0  0  0
  143.1120   77.0410  217.7100 C   0  0  0  0  0  0  0  0  0  0  0  0
  139.8430   71.1660  223.3780 C   0  0  0  0  0  0  0  0  0  0  0  0
  139.3270   69.8800  223.2680 C   0  0  0  0  0  0  0  0  0  0  0  0
  139.3470   69.1120  224.4120 C   0  0  0  0  0  0  0  0  0  0  0  0
  139.8450   69.5690  225.6110 C   0  0  0  0  0  0  0  0  0  0  0  0
  139.8810   68.8380  226.7660 C   0  0  0  0  0  0  0  0  0  0  0  0
  140.3880   69.3290  227.9540 C   0  0  0  0  0  0  0  0  0  0  0  0
  140.4070   68.5610  229.0920 F   0  0  0  0  0  0  0  0  0  0  0  0
  140.8960   70.6320  228.0110 C   0  0  0  0  0  0  0  0  0  0  0  0
  140.8550   71.3620  226.8410 C   0  0  0  0  0  0  0  0  0  0  0  0
  140.3490   70.8710  225.6570 C   0  0  0  0  0  0  0  0  0  0  0  0
  140.3320   71.6260  224.5420 N   0  0  0  0  0  0  0  0  0  0  0  0
  139.5570   73.7950  223.3190 H   0  0  0  0  0  0  0  0  0  0  0  0
  139.5818   73.7291  220.2490 H   0  0  0  0  0  0  0  0  0  0  0  0
  138.7688   74.9806  221.2312 H   0  0  0  0  0  0  0  0  0  0  0  0
  142.4747   72.8606  221.5150 H   0  0  0  0  0  0  0  0  0  0  0  0
  142.4729   72.5834  219.8146 H   0  0  0  0  0  0  0  0  0  0  0  0
  144.5191   74.0187  221.5502 H   0  0  0  0  0  0  0  0  0  0  0  0
  144.8079   73.2128  219.9958 H   0  0  0  0  0  0  0  0  0  0  0  0
  144.1991   76.0919  220.5365 H   0  0  0  0  0  0  0  0  0  0  0  0
  144.8452   75.4212  219.0666 H   0  0  0  0  0  0  0  0  0  0  0  0
  142.5889   74.6931  218.3225 H   0  0  0  0  0  0  0  0  0  0  0  0
  141.0740   76.3017  218.4863 H   0  0  0  0  0  0  0  0  0  0  0  0
  141.5072   77.6662  220.5447 H   0  0  0  0  0  0  0  0  0  0  0  0
  143.2227   77.6325  220.3700 H   0  0  0  0  0  0  0  0  0  0  0  0
  141.1251   79.1943  218.7830 H   0  0  0  0  0  0  0  0  0  0  0  0
  142.7921   79.6888  219.1383 H   0  0  0  0  0  0  0  0  0  0  0  0
  143.3450   78.9720  217.1470 H   0  0  0  0  0  0  0  0  0  0  0  0
  143.0849   76.4428  216.7873 H   0  0  0  0  0  0  0  0  0  0  0  0
  144.1705   77.0101  218.0079 H   0  0  0  0  0  0  0  0  0  0  0  0
  138.9244   69.4961  222.3190 H   0  0  0  0  0  0  0  0  0  0  0  0
  138.9472   68.0883  224.3649 H   0  0  0  0  0  0  0  0  0  0  0  0
  139.4879   67.8108  226.7487 H   0  0  0  0  0  0  0  0  0  0  0  0
  141.3068   71.0524  228.9408 H   0  0  0  0  0  0  0  0  0  0  0  0
  141.2467   72.3898  226.8540 H   0  0  0  0  0  0  0  0  0  0  0  0
  1  2  2  0
  2  3  1  0
  3  4  1  0
  4  5  1  0
  5  6  2  0
  5  7  1  0
  7  8  1  0
  8  9  1  0
  9 10  1  0
 10 11  1  0
 11 12  1  0
 12 13  1  0
 13 14  1  0
 14 15  1  0
 15 16  1  0
  2 17  1  0
 17 18  2  0
 18 19  1  0
 19 20  2  0
 20 21  1  0
 21 22  2  0
 22 23  1  0
 22 24  1  0
 24 25  2  0
 25 26  1  0
 26 27  2  0
 11  7  1  0
 16 12  1  0
 27 17  1  0
 26 20  1  0
  3 28  1  0
  4 29  1  0
  4 30  1  0
  8 31  1  0
  8 32  1  0
  9 33  1  0
  9 34  1  0
 10 35  1  0
 10 36  1  0
 11 37  1  6
 12 38  1  6
 13 39  1  0
 13 40  1  0
 14 41  1  0
 14 42  1  0
 15 43  1  0
 16 44  1  0
 16 45  1  0
 18 46  1  0
 19 47  1  0
 21 48  1  0
 24 49  1  0
 25 50  1  0
M  END
>  <smiles>  (134) 
O=C(NCC(=O)N1CCCC1C1CCNC1)c1ccc2cc(F)ccc2n1

>  <score_type>  (134) 
oracle

>  <origin>  (134) 
autodockgpu

>  <m_score__min__energy>  (134) 
-8.0399999999999991

>  <m_primary>  (134) 
energy

>  <rmsd>  (134) 
2.5543485094156884

>  <m_score__min__rmsd>  (134) 
2.5543485094156884

>  <meeko>  (134) 
{"free_energy": -7.77, "intermolecular_energy": -9.26, "internal_energy": -1.48, "cluster_size": 3, "cluster_id": 3, "rank_in_cluster": 2}

>  <energy>  (134) 
-6.92

>  <cluster_rmsd>  (134) 
1.5

>  <cluster>  (134) 
2

$$$$

     RDKit          3D

 50 53  0  0  0  0  0  0  0  0999 V2000
  139.0690   71.1370  221.3540 O   0  0  0  0  0  0  0  0  0  0  0  0
  139.3630   71.6120  222.4810 C   0  0  0  0  0  0  0  0  0  0  0  0
  139.5500   73.0190  222.6480 N   0  0  0  0  0  0  0  0  0  0  0  0
  139.4080   73.9390  221.5200 C   0  0  0  0  0  0  0  0  0  0  0  0
  140.0070   75.2470  221.9080 C   0  0  0  0  0  0  0  0  0  0  0  0
  141.2510   75.2900  221.9950 O   0  0  0  0  0  0  0  0  0  0  0  0
  139.1230   76.3190  222.1430 N   0  0  0  0  0  0  0  0  0  0  0  0
  137.6400   76.3030  222.0550 C   0  0  0  0  0  0  0  0  0  0  0  0
  137.4470   77.5450  221.1890 C   0  0  0  0  0  0  0  0  0  0  0  0
  138.7160   78.3960  221.3580 C   0  0  0  0  0  0  0  0  0  0  0  0
  139.3780   77.7110  222.5100 C   0  0  2  0  0  0  0  0  0  0  0  0
  140.7830   78.0550  222.7950 C   0  0  1  0  0  0  0  0  0  0  0  0
  141.4300   78.8480  221.6420 C   0  0  0  0  0  0  0  0  0  0  0  0
  142.5750   79.5010  222.4170 C   0  0  0  0  0  0  0  0  0  0  0  0
  142.1400   79.5900  223.8000 N   0  0  0  0  0  0  0  0  0  0  0  0
  140.7550   79.2160  223.8190 C   0  0  0  0  0  0  0  0  0  0  0  0
  139.5240   70.7520  223.6710 C   0  0  0  0  0  0  0  0  0  0  0  0
  139.0550   69.4460  223.5810 C   0  0  0  0  0  0  0  0  0  0  0  0
  139.2160   68.6590  224.7010 C   0  0  0  0  0  0  0  0  0  0  0  0
  139.8050   69.1170  225.8580 C   0  0  0  0  0  0  0  0  0  0  0  0
  139.9810   68.3670  226.9880 C   0  0  0  0  0  0  0  0  0  0  0  0
  140.5770   68.8590  228.1340 C   0  0  0  0  0  0  0  0  0  0  0  0
  140.7350   68.0720  229.2480 F   0  0  0  0  0  0  0  0  0  0  0  0
  141.0310   70.1810  228.1720 C   0  0  0  0  0  0  0  0  0  0  0  0
  140.8500   70.9300  227.0270 C   0  0  0  0  0  0  0  0  0  0  0  0
  140.2550   70.4380  225.8860 C   0  0  0  0  0  0  0  0  0  0  0  0
  140.1000   71.2120  224.7940 N   0  0  0  0  0  0  0  0  0  0  0  0
  139.7970   73.3820  223.6170 H   0  0  0  0  0  0  0  0  0  0  0  0
  139.9327   73.5350  220.6416 H   0  0  0  0  0  0  0  0  0  0  0  0
  138.3455   74.0680  221.2662 H   0  0  0  0  0  0  0  0  0  0  0  0
  137.2645   75.3934  221.5634 H   0  0  0  0  0  0  0  0  0  0  0  0
  137.1059   76.3054  223.0166 H   0  0  0  0  0  0  0  0  0  0  0  0
  137.3199   77.2574  220.1349 H   0  0  0  0  0  0  0  0  0  0  0  0
  136.5494   78.1048  221.4905 H   0  0  0  0  0  0  0  0  0  0  0  0
  139.3447   78.3648  220.4559 H   0  0  0  0  0  0  0  0  0  0  0  0
  138.5217   79.4662  221.5220 H   0  0  0  0  0  0  0  0  0  0  0  0
  138.9814   78.0189  223.4887 H   0  0  0  0  0  0  0  0  0  0  0  0
  141.2876   77.1117  223.0511 H   0  0  0  0  0  0  0  0  0  0  0  0
  141.7966   78.1882  220.8419 H   0  0  0  0  0  0  0  0  0  0  0  0
  140.7618   79.5412  221.1101 H   0  0  0  0  0  0  0  0  0  0  0  0
  143.4834   78.8850  222.3434 H   0  0  0  0  0  0  0  0  0  0  0  0
  142.8139   80.4949  222.0108 H   0  0  0  0  0  0  0  0  0  0  0  0
  142.2100   80.5920  224.1110 H   0  0  0  0  0  0  0  0  0  0  0  0
  140.4366   78.8754  224.8153 H   0  0  0  0  0  0  0  0  0  0  0  0
  140.0502   80.0273  223.5843 H   0  0  0  0  0  0  0  0  0  0  0  0
  138.5812   69.0618  222.6656 H   0  0  0  0  0  0  0  0  0  0  0  0
  138.8582   67.6193  224.6690 H   0  0  0  0  0  0  0  0  0  0  0  0
  139.6321   67.3238  226.9847 H   0  0  0  0  0  0  0  0  0  0  0  0
  141.5082   70.6026  229.0690 H   0  0  0  0  0  0  0  0  0  0  0  0
  141.1987   71.9733  227.0253 H   0  0  0  0  0  0  0  0  0  0  0  0
  1  2  2  0
  2  3  1  0
  3  4  1  0
  4  5  1  0
  5  6  2  0
  5  7  1  0
  7  8  1  0
  8  9  1  0
  9 10  1  0
 10 11  1  0
 11 12  1  0
 12 13  1  0
 13 14  1  0
 14 15  1  0
 15 16  1  0
  2 17  1  0
 17 18  2  0
 18 19  1  0
 19 20  2  0
 20 21  1  0
 21 22  2  0
 22 23  1  0
 22 24  1  0
 24 25  2  0
 25 26  1  0
 26 27  2  0
 11  7  1  0
 16 12  1  0
 27 17  1  0
 26 20  1  0
  3 28  1  0
  4 29  1  0
  4 30  1  0
  8 31  1  0
  8 32  1  0
  9 33  1  0
  9 34  1  0
 10 35  1  0
 10 36  1  0
 11 37  1  1
 12 38  1  1
 13 39  1  0
 13 40  1  0
 14 41  1  0
 14 42  1  0
 15 43  1  0
 16 44  1  0
 16 45  1  0
 18 46  1  0
 19 47  1  0
 21 48  1  0
 24 49  1  0
 25 50  1  0
M  END
>  <smiles>  (135) 
O=C(NCC(=O)N1CCCC1C1CCNC1)c1ccc2cc(F)ccc2n1

>  <score_type>  (135) 
oracle

>  <origin>  (135) 
autodockgpu

>  <m_score__min__energy>  (135) 
-8.0399999999999991

>  <m_primary>  (135) 
energy

>  <rmsd>  (135) 
2.361909556756939

>  <m_score__min__rmsd>  (135) 
2.361909556756939

>  <meeko>  (135) 
{"free_energy": -7.56, "intermolecular_energy": -9.05, "internal_energy": -1.4, "cluster_size": 19, "cluster_id": 1, "rank_in_cluster": 12}

>  <energy>  (135) 
-7.78

>  <cluster_rmsd>  (135) 
0.0

>  <cluster>  (135) 
3

$$$$

     RDKit          3D

 50 53  0  0  0  0  0  0  0  0999 V2000
  139.7660   71.7260  221.0090 O   0  0  0  0  0  0  0  0  0  0  0  0
  139.6970   72.2230  222.1630 C   0  0  0  0  0  0  0  0  0  0  0  0
  139.5070   73.6280  222.3370 N   0  0  0  0  0  0  0  0  0  0  0  0
  139.3900   74.5230  221.1850 C   0  0  0  0  0  0  0  0  0  0  0  0
  140.5250   75.4880  221.2290 C   0  0  0  0  0  0  0  0  0  0  0  0
  141.4570   75.2220  222.0150 O   0  0  0  0  0  0  0  0  0  0  0  0
  140.4510   76.6130  220.3830 N   0  0  0  0  0  0  0  0  0  0  0  0
  139.8800   76.6760  219.0130 C   0  0  0  0  0  0  0  0  0  0  0  0
  141.0390   77.3810  218.3130 C   0  0  0  0  0  0  0  0  0  0  0  0
  141.8340   78.1070  219.4100 C   0  0  0  0  0  0  0  0  0  0  0  0
  140.9040   77.9900  220.5750 C   0  0  2  0  0  0  0  0  0  0  0  0
  141.4360   78.3130  221.9110 C   0  0  1  0  0  0  0  0  0  0  0  0
  142.0890   79.7080  221.9520 C   0  0  0  0  0  0  0  0  0  0  0  0
  142.0140   79.9610  223.4580 C   0  0  0  0  0  0  0  0  0  0  0  0
  140.8970   79.1760  223.9530 N   0  0  0  0  0  0  0  0  0  0  0  0
  140.2170   78.6570  222.8010 C   0  0  0  0  0  0  0  0  0  0  0  0
  139.8050   71.3890  223.3770 C   0  0  0  0  0  0  0  0  0  0  0  0
  139.3550   70.0760  223.2900 C   0  0  0  0  0  0  0  0  0  0  0  0
  139.4660   69.3140  224.4330 C   0  0  0  0  0  0  0  0  0  0  0  0
  139.9890   69.8020  225.6100 C   0  0  0  0  0  0  0  0  0  0  0  0
  140.1140   69.0780  226.7630 C   0  0  0  0  0  0  0  0  0  0  0  0
  140.6440   69.5990  227.9270 C   0  0  0  0  0  0  0  0  0  0  0  0
  140.7530   68.8370  229.0640 F   0  0  0  0  0  0  0  0  0  0  0  0
  141.0820   70.9270  227.9610 C   0  0  0  0  0  0  0  0  0  0  0  0
  140.9520   71.6510  226.7930 C   0  0  0  0  0  0  0  0  0  0  0  0
  140.4230   71.1290  225.6330 C   0  0  0  0  0  0  0  0  0  0  0  0
  140.3170   71.8780  224.5180 N   0  0  0  0  0  0  0  0  0  0  0  0
  139.4530   74.0100  223.3290 H   0  0  0  0  0  0  0  0  0  0  0  0
  139.4333   73.9392  220.2537 H   0  0  0  0  0  0  0  0  0  0  0  0
  138.4314   75.0615  221.2176 H   0  0  0  0  0  0  0  0  0  0  0  0
  139.6920   75.6754  218.5966 H   0  0  0  0  0  0  0  0  0  0  0  0
  138.9007   77.1696  218.9274 H   0  0  0  0  0  0  0  0  0  0  0  0
  141.6790   76.6458  217.8032 H   0  0  0  0  0  0  0  0  0  0  0  0
  140.6744   78.0870  217.5523 H   0  0  0  0  0  0  0  0  0  0  0  0
  142.7934   77.6071  219.6093 H   0  0  0  0  0  0  0  0  0  0  0  0
  142.1088   79.1414  219.1562 H   0  0  0  0  0  0  0  0  0  0  0  0
  140.1094   78.7506  220.5797 H   0  0  0  0  0  0  0  0  0  0  0  0
  142.0995   77.4812  222.1902 H   0  0  0  0  0  0  0  0  0  0  0  0
  143.1268   79.6888  221.5879 H   0  0  0  0  0  0  0  0  0  0  0  0
  141.6142   80.4721  221.3190 H   0  0  0  0  0  0  0  0  0  0  0  0
  142.9478   79.6417  223.9439 H   0  0  0  0  0  0  0  0  0  0  0  0
  141.8758   81.0304  223.6752 H   0  0  0  0  0  0  0  0  0  0  0  0
  140.2350   79.8150  224.4600 H   0  0  0  0  0  0  0  0  0  0  0  0
  139.6226   77.7639  223.0442 H   0  0  0  0  0  0  0  0  0  0  0  0
  139.4849   79.3397  222.3450 H   0  0  0  0  0  0  0  0  0  0  0  0
  138.9334   69.6679  222.3596 H   0  0  0  0  0  0  0  0  0  0  0  0
  139.1216   68.2697  224.4040 H   0  0  0  0  0  0  0  0  0  0  0  0
  139.7765   68.0311  226.7636 H   0  0  0  0  0  0  0  0  0  0  0  0
  141.5084   71.3718  228.8722 H   0  0  0  0  0  0  0  0  0  0  0  0
  141.2880   72.6984  226.7882 H   0  0  0  0  0  0  0  0  0  0  0  0
  1  2  2  0
  2  3  1  0
  3  4  1  0
  4  5  1  0
  5  6  2  0
  5  7  1  0
  7  8  1  0
  8  9  1  0
  9 10  1  0
 10 11  1  0
 11 12  1  0
 12 13  1  0
 13 14  1  0
 14 15  1  0
 15 16  1  0
  2 17  1  0
 17 18  2  0
 18 19  1  0
 19 20  2  0
 20 21  1  0
 21 22  2  0
 22 23  1  0
 22 24  1  0
 24 25  2  0
 25 26  1  0
 26 27  2  0
 11  7  1  0
 16 12  1  0
 27 17  1  0
 26 20  1  0
  3 28  1  0
  4 29  1  0
  4 30  1  0
  8 31  1  0
  8 32  1  0
  9 33  1  0
  9 34  1  0
 10 35  1  0
 10 36  1  0
 11 37  1  6
 12 38  1  1
 13 39  1  0
 13 40  1  0
 14 41  1  0
 14 42  1  0
 15 43  1  0
 16 44  1  0
 16 45  1  0
 18 46  1  0
 19 47  1  0
 21 48  1  0
 24 49  1  0
 25 50  1  0
M  END
>  <smiles>  (136) 
O=C(NCC(=O)N1CCCC1C1CCNC1)c1ccc2cc(F)ccc2n1

>  <score_type>  (136) 
oracle

>  <origin>  (136) 
autodockgpu

>  <m_score__min__energy>  (136) 
-8.0399999999999991

>  <m_primary>  (136) 
energy

>  <rmsd>  (136) 
1.4428876934540438

>  <m_score__min__rmsd>  (136) 
1.4428876934540438

>  <meeko>  (136) 
{"free_energy": -7.53, "intermolecular_energy": -9.03, "internal_energy": -1.44, "cluster_size": 19, "cluster_id": 1, "rank_in_cluster": 14}

>  <energy>  (136) 
-7.77

>  <cluster_rmsd>  (136) 
0.08

>  <cluster>  (136) 
3

$$$$

     RDKit          3D

 50 53  0  0  0  0  0  0  0  0999 V2000
  137.9360   70.8370  221.8090 O   0  0  0  0  0  0  0  0  0  0  0  0
  138.6590   71.3020  222.7280 C   0  0  0  0  0  0  0  0  0  0  0  0
  139.1120   72.6570  222.6780 N   0  0  0  0  0  0  0  0  0  0  0  0
  138.7500   73.5330  221.5640 C   0  0  0  0  0  0  0  0  0  0  0  0
  139.6430   74.7260  221.6040 C   0  0  0  0  0  0  0  0  0  0  0  0
  140.6530   74.6470  222.3310 O   0  0  0  0  0  0  0  0  0  0  0  0
  139.2720   75.8380  220.8200 N   0  0  0  0  0  0  0  0  0  0  0  0
  138.5770   75.8250  219.5070 C   0  0  0  0  0  0  0  0  0  0  0  0
  139.5050   76.7670  218.7450 C   0  0  0  0  0  0  0  0  0  0  0  0
  140.2390   77.6060  219.8050 C   0  0  0  0  0  0  0  0  0  0  0  0
  139.4610   77.2710  221.0360 C   0  0  2  0  0  0  0  0  0  0  0  0
  140.0390   77.6560  222.3360 C   0  0  1  0  0  0  0  0  0  0  0  0
  141.4520   78.2530  222.1880 C   0  0  0  0  0  0  0  0  0  0  0  0
  141.5250   79.0210  223.5070 C   0  0  0  0  0  0  0  0  0  0  0  0
  140.1570   79.3320  223.8800 N   0  0  0  0  0  0  0  0  0  0  0  0
  139.3330   78.9660  222.7630 C   0  0  0  0  0  0  0  0  0  0  0  0
  139.0680   70.4830  223.8870 C   0  0  0  0  0  0  0  0  0  0  0  0
  138.8030   69.1200  223.8290 C   0  0  0  0  0  0  0  0  0  0  0  0
  139.1930   68.3730  224.9200 C   0  0  0  0  0  0  0  0  0  0  0  0
  139.8120   68.9220  226.0200 C   0  0  0  0  0  0  0  0  0  0  0  0
  140.2120   68.2150  227.1190 C   0  0  0  0  0  0  0  0  0  0  0  0
  140.8310   68.7990  228.2070 C   0  0  0  0  0  0  0  0  0  0  0  0
  141.2190   68.0520  229.2920 F   0  0  0  0  0  0  0  0  0  0  0  0
  141.0750   70.1770  228.2160 C   0  0  0  0  0  0  0  0  0  0  0  0
  140.6680   70.8830  227.1020 C   0  0  0  0  0  0  0  0  0  0  0  0
  140.0500   70.2980  226.0180 C   0  0  0  0  0  0  0  0  0  0  0  0
  139.6710   71.0340  224.9540 N   0  0  0  0  0  0  0  0  0  0  0  0
  139.7210   73.0130  223.4740 H   0  0  0  0  0  0  0  0  0  0  0  0
  138.8832   72.9993  220.6114 H   0  0  0  0  0  0  0  0  0  0  0  0
  137.6976   73.8417  221.6483 H   0  0  0  0  0  0  0  0  0  0  0  0
  138.5521   74.8193  219.0620 H   0  0  0  0  0  0  0  0  0  0  0  0
  137.5162   76.1153  219.5272 H   0  0  0  0  0  0  0  0  0  0  0  0
  140.2277   76.1897  218.1496 H   0  0  0  0  0  0  0  0  0  0  0  0
  138.9407   77.4070  218.0508 H   0  0  0  0  0  0  0  0  0  0  0  0
  141.2922   77.3029  219.8996 H   0  0  0  0  0  0  0  0  0  0  0  0
  140.2805   78.6815  219.5778 H   0  0  0  0  0  0  0  0  0  0  0  0
  138.5354   77.8559  221.1418 H   0  0  0  0  0  0  0  0  0  0  0  0
  139.9761   76.7657  222.9790 H   0  0  0  0  0  0  0  0  0  0  0  0
  142.2247   77.4729  222.1214 H   0  0  0  0  0  0  0  0  0  0  0  0
  141.6202   78.8524  221.2811 H   0  0  0  0  0  0  0  0  0  0  0  0
  141.9984   78.4005  224.2822 H   0  0  0  0  0  0  0  0  0  0  0  0
  142.1260   79.9362  223.4013 H   0  0  0  0  0  0  0  0  0  0  0  0
  140.0730   80.3700  224.0200 H   0  0  0  0  0  0  0  0  0  0  0  0
  138.2898   78.7896  223.0641 H   0  0  0  0  0  0  0  0  0  0  0  0
  139.2500   79.7291  221.9751 H   0  0  0  0  0  0  0  0  0  0  0  0
  138.3088   68.6620  222.9595 H   0  0  0  0  0  0  0  0  0  0  0  0
  139.0009   67.2899  224.9111 H   0  0  0  0  0  0  0  0  0  0  0  0
  140.0326   67.1299  227.1380 H   0  0  0  0  0  0  0  0  0  0  0  0
  141.5658   70.6719  229.0670 H   0  0  0  0  0  0  0  0  0  0  0  0
  140.8460   71.9682  227.0782 H   0  0  0  0  0  0  0  0  0  0  0  0
  1  2  2  0
  2  3  1  0
  3  4  1  0
  4  5  1  0
  5  6  2  0
  5  7  1  0
  7  8  1  0
  8  9  1  0
  9 10  1  0
 10 11  1  0
 11 12  1  0
 12 13  1  0
 13 14  1  0
 14 15  1  0
 15 16  1  0
  2 17  1  0
 17 18  2  0
 18 19  1  0
 19 20  2  0
 20 21  1  0
 21 22  2  0
 22 23  1  0
 22 24  1  0
 24 25  2  0
 25 26  1  0
 26 27  2  0
 11  7  1  0
 16 12  1  0
 27 17  1  0
 26 20  1  0
  3 28  1  0
  4 29  1  0
  4 30  1  0
  8 31  1  0
  8 32  1  0
  9 33  1  0
  9 34  1  0
 10 35  1  0
 10 36  1  0
 11 37  1  6
 12 38  1  1
 13 39  1  0
 13 40  1  0
 14 41  1  0
 14 42  1  0
 15 43  1  0
 16 44  1  0
 16 45  1  0
 18 46  1  0
 19 47  1  0
 21 48  1  0
 24 49  1  0
 25 50  1  0
M  END
>  <smiles>  (137) 
O=C(NCC(=O)N1CCCC1C1CCNC1)c1ccc2cc(F)ccc2n1

>  <score_type>  (137) 
oracle

>  <origin>  (137) 
autodockgpu

>  <m_score__min__energy>  (137) 
-8.0399999999999991

>  <m_primary>  (137) 
energy

>  <rmsd>  (137) 
1.288272541924762

>  <m_score__min__rmsd>  (137) 
1.288272541924762

>  <meeko>  (137) 
{"free_energy": -7.08, "intermolecular_energy": -8.57, "internal_energy": -1.96, "cluster_size": 19, "cluster_id": 1, "rank_in_cluster": 17}

>  <energy>  (137) 
-6.93

>  <cluster_rmsd>  (137) 
1.58

>  <cluster>  (137) 
3

$$$$

     RDKit          3D

 50 53  0  0  0  0  0  0  0  0999 V2000
  140.0540   71.3850  220.9540 O   0  0  0  0  0  0  0  0  0  0  0  0
  139.8760   71.8960  222.0900 C   0  0  0  0  0  0  0  0  0  0  0  0
  139.6820   73.3050  222.2290 N   0  0  0  0  0  0  0  0  0  0  0  0
  139.6880   74.1870  221.0610 C   0  0  0  0  0  0  0  0  0  0  0  0
  139.7910   75.5940  221.5420 C   0  0  0  0  0  0  0  0  0  0  0  0
  139.4570   75.8080  222.7250 O   0  0  0  0  0  0  0  0  0  0  0  0
  140.2560   76.5580  220.6250 N   0  0  0  0  0  0  0  0  0  0  0  0
  140.1200   76.5380  219.1460 C   0  0  0  0  0  0  0  0  0  0  0  0
  141.5710   76.8340  218.7760 C   0  0  0  0  0  0  0  0  0  0  0  0
  142.2010   77.5170  220.0010 C   0  0  0  0  0  0  0  0  0  0  0  0
  140.9930   77.8040  220.8330 C   0  0  2  0  0  0  0  0  0  0  0  0
  141.2070   78.1990  222.2370 C   0  0  1  0  0  0  0  0  0  0  0  0
  142.1850   79.3830  222.3630 C   0  0  0  0  0  0  0  0  0  0  0  0
  141.7740   79.8850  223.7470 C   0  0  0  0  0  0  0  0  0  0  0  0
  140.3910   79.4820  223.9380 N   0  0  0  0  0  0  0  0  0  0  0  0
  139.9370   78.9650  222.6790 C   0  0  0  0  0  0  0  0  0  0  0  0
  139.8560   71.0760  223.3180 C   0  0  0  0  0  0  0  0  0  0  0  0
  139.3410   69.7890  223.2160 C   0  0  0  0  0  0  0  0  0  0  0  0
  139.3320   69.0390  224.3730 C   0  0  0  0  0  0  0  0  0  0  0  0
  139.8010   69.5160  225.5760 C   0  0  0  0  0  0  0  0  0  0  0  0
  139.8070   68.8040  226.7440 C   0  0  0  0  0  0  0  0  0  0  0  0
  140.2850   69.3130  227.9350 C   0  0  0  0  0  0  0  0  0  0  0  0
  140.2750   68.5630  229.0860 F   0  0  0  0  0  0  0  0  0  0  0  0
  140.7920   70.6160  227.9840 C   0  0  0  0  0  0  0  0  0  0  0  0
  140.7820   71.3280  226.8020 C   0  0  0  0  0  0  0  0  0  0  0  0
  140.3040   70.8170  225.6140 C   0  0  0  0  0  0  0  0  0  0  0  0
  140.3160   71.5550  224.4860 N   0  0  0  0  0  0  0  0  0  0  0  0
  139.5340   73.6990  223.2060 H   0  0  0  0  0  0  0  0  0  0  0  0
  140.5487   73.9489  220.4187 H   0  0  0  0  0  0  0  0  0  0  0  0
  138.7659   74.0511  220.4769 H   0  0  0  0  0  0  0  0  0  0  0  0
  139.7903   75.5567  218.7742 H   0  0  0  0  0  0  0  0  0  0  0  0
  139.3722   77.2277  218.7277 H   0  0  0  0  0  0  0  0  0  0  0  0
  142.1032   75.8992  218.5461 H   0  0  0  0  0  0  0  0  0  0  0  0
  141.6322   77.4771  217.8856 H   0  0  0  0  0  0  0  0  0  0  0  0
  142.8980   76.8445  220.5224 H   0  0  0  0  0  0  0  0  0  0  0  0
  142.8025   78.4059  219.7602 H   0  0  0  0  0  0  0  0  0  0  0  0
  140.4625   78.7200  220.5337 H   0  0  0  0  0  0  0  0  0  0  0  0
  141.5102   77.2874  222.7728 H   0  0  0  0  0  0  0  0  0  0  0  0
  143.2348   79.0555  222.3378 H   0  0  0  0  0  0  0  0  0  0  0  0
  142.1337   80.1275  221.5549 H   0  0  0  0  0  0  0  0  0  0  0  0
  142.4120   79.4324  224.5204 H   0  0  0  0  0  0  0  0  0  0  0  0
  141.8844   80.9768  223.8231 H   0  0  0  0  0  0  0  0  0  0  0  0
  139.8200   80.3350  224.1640 H   0  0  0  0  0  0  0  0  0  0  0  0
  139.0747   78.2927  222.7996 H   0  0  0  0  0  0  0  0  0  0  0  0
  139.5783   79.7224  221.9665 H   0  0  0  0  0  0  0  0  0  0  0  0
  138.9612   69.3904  222.2637 H   0  0  0  0  0  0  0  0  0  0  0  0
  138.9326   68.0148  224.3329 H   0  0  0  0  0  0  0  0  0  0  0  0
  139.4123   67.7773  226.7338 H   0  0  0  0  0  0  0  0  0  0  0  0
  141.1790   71.0508  228.9174 H   0  0  0  0  0  0  0  0  0  0  0  0
  141.1753   72.3553  226.8079 H   0  0  0  0  0  0  0  0  0  0  0  0
  1  2  2  0
  2  3  1  0
  3  4  1  0
  4  5  1  0
  5  6  2  0
  5  7  1  0
  7  8  1  0
  8  9  1  0
  9 10  1  0
 10 11  1  0
 11 12  1  0
 12 13  1  0
 13 14  1  0
 14 15  1  0
 15 16  1  0
  2 17  1  0
 17 18  2  0
 18 19  1  0
 19 20  2  0
 20 21  1  0
 21 22  2  0
 22 23  1  0
 22 24  1  0
 24 25  2  0
 25 26  1  0
 26 27  2  0
 11  7  1  0
 16 12  1  0
 27 17  1  0
 26 20  1  0
  3 28  1  0
  4 29  1  0
  4 30  1  0
  8 31  1  0
  8 32  1  0
  9 33  1  0
  9 34  1  0
 10 35  1  0
 10 36  1  0
 11 37  1  6
 12 38  1  1
 13 39  1  0
 13 40  1  0
 14 41  1  0
 14 42  1  0
 15 43  1  0
 16 44  1  0
 16 45  1  0
 18 46  1  0
 19 47  1  0
 21 48  1  0
 24 49  1  0
 25 50  1  0
M  END
>  <smiles>  (138) 
O=C(NCC(=O)N1CCCC1C1CCNC1)c1ccc2cc(F)ccc2n1

>  <score_type>  (138) 
oracle

>  <origin>  (138) 
autodockgpu

>  <m_score__min__energy>  (138) 
-8.0399999999999991

>  <m_primary>  (138) 
energy

>  <rmsd>  (138) 
1.5330672960195348

>  <m_score__min__rmsd>  (138) 
1.5330672960195348

>  <meeko>  (138) 
{"free_energy": -7.72, "intermolecular_energy": -9.21, "internal_energy": -1.85, "cluster_size": 19, "cluster_id": 1, "rank_in_cluster": 9}

>  <energy>  (138) 
-7.59

>  <cluster_rmsd>  (138) 
0.0

>  <cluster>  (138) 
4

$$$$

     RDKit          3D

 50 53  0  0  0  0  0  0  0  0999 V2000
  134.6800   68.4760  225.1110 O   0  0  0  0  0  0  0  0  0  0  0  0
  135.0920   69.6620  225.0190 C   0  0  0  0  0  0  0  0  0  0  0  0
  136.2720   69.9640  224.2730 N   0  0  0  0  0  0  0  0  0  0  0  0
  137.0300   68.9090  223.6000 C   0  0  0  0  0  0  0  0  0  0  0  0
  138.4130   68.9030  224.1570 C   0  0  0  0  0  0  0  0  0  0  0  0
  138.9420   67.7870  224.3310 O   0  0  0  0  0  0  0  0  0  0  0  0
  139.0020   70.1530  224.4360 N   0  0  0  0  0  0  0  0  0  0  0  0
  139.0280   71.3550  223.5630 C   0  0  0  0  0  0  0  0  0  0  0  0
  140.5190   71.6720  223.6520 C   0  0  0  0  0  0  0  0  0  0  0  0
  141.0300   71.0060  224.9400 C   0  0  0  0  0  0  0  0  0  0  0  0
  139.7460   70.6230  225.6040 C   0  0  2  0  0  0  0  0  0  0  0  0
  139.8170   69.6900  226.7420 C   0  0  1  0  0  0  0  0  0  0  0  0
  140.7580   68.5030  226.4610 C   0  0  0  0  0  0  0  0  0  0  0  0
  141.0480   68.0840  227.9020 C   0  0  0  0  0  0  0  0  0  0  0  0
  140.8720   69.2700  228.7210 N   0  0  0  0  0  0  0  0  0  0  0  0
  140.6990   70.3710  227.8170 C   0  0  0  0  0  0  0  0  0  0  0  0
  134.3840   70.7840  225.6680 C   0  0  0  0  0  0  0  0  0  0  0  0
  133.3740   70.4640  226.5680 C   0  0  0  0  0  0  0  0  0  0  0  0
  132.7260   71.5250  227.1640 C   0  0  0  0  0  0  0  0  0  0  0  0
  133.0420   72.8380  226.9000 C   0  0  0  0  0  0  0  0  0  0  0  0
  132.4230   73.9160  227.4700 C   0  0  0  0  0  0  0  0  0  0  0  0
  132.7660   75.2220  227.1810 C   0  0  0  0  0  0  0  0  0  0  0  0
  132.1180   76.2770  227.7770 F   0  0  0  0  0  0  0  0  0  0  0  0
  133.7900   75.4900  226.2670 C   0  0  0  0  0  0  0  0  0  0  0  0
  134.4100   74.3970  225.6970 C   0  0  0  0  0  0  0  0  0  0  0  0
  134.0660   73.0940  225.9860 C   0  0  0  0  0  0  0  0  0  0  0  0
  134.7030   72.0600  225.4000 N   0  0  0  0  0  0  0  0  0  0  0  0
  136.5880   70.9780  224.2190 H   0  0  0  0  0  0  0  0  0  0  0  0
  136.5520   67.9346  223.7791 H   0  0  0  0  0  0  0  0  0  0  0  0
  137.0573   69.0926  222.5158 H   0  0  0  0  0  0  0  0  0  0  0  0
  138.7143   71.1259  222.5339 H   0  0  0  0  0  0  0  0  0  0  0  0
  138.3496   72.1702  223.8547 H   0  0  0  0  0  0  0  0  0  0  0  0
  141.0472   71.2639  222.7777 H   0  0  0  0  0  0  0  0  0  0  0  0
  140.6949   72.7577  223.6685 H   0  0  0  0  0  0  0  0  0  0  0  0
  141.6474   70.1229  224.7186 H   0  0  0  0  0  0  0  0  0  0  0  0
  141.6782   71.6500  225.5525 H   0  0  0  0  0  0  0  0  0  0  0  0
  139.2759   71.4480  226.1594 H   0  0  0  0  0  0  0  0  0  0  0  0
  138.7796   69.4127  226.9807 H   0  0  0  0  0  0  0  0  0  0  0  0
  140.2578   67.7055  225.8919 H   0  0  0  0  0  0  0  0  0  0  0  0
  141.6415   68.7337  225.8477 H   0  0  0  0  0  0  0  0  0  0  0  0
  140.3467   67.2973  228.2172 H   0  0  0  0  0  0  0  0  0  0  0  0
  142.0665   67.6805  228.0010 H   0  0  0  0  0  0  0  0  0  0  0  0
  141.7530   69.4350  229.2690 H   0  0  0  0  0  0  0  0  0  0  0  0
  140.1824   71.2162  228.2952 H   0  0  0  0  0  0  0  0  0  0  0  0
  141.6318   70.8164  227.4409 H   0  0  0  0  0  0  0  0  0  0  0  0
  133.1063   69.4209  226.7924 H   0  0  0  0  0  0  0  0  0  0  0  0
  131.9206   71.3125  227.8825 H   0  0  0  0  0  0  0  0  0  0  0  0
  131.6139   73.7342  228.1927 H   0  0  0  0  0  0  0  0  0  0  0  0
  134.0859   76.5191  226.0154 H   0  0  0  0  0  0  0  0  0  0  0  0
  135.2205   74.5747  224.9748 H   0  0  0  0  0  0  0  0  0  0  0  0
  1  2  2  0
  2  3  1  0
  3  4  1  0
  4  5  1  0
  5  6  2  0
  5  7  1  0
  7  8  1  0
  8  9  1  0
  9 10  1  0
 10 11  1  0
 11 12  1  0
 12 13  1  0
 13 14  1  0
 14 15  1  0
 15 16  1  0
  2 17  1  0
 17 18  2  0
 18 19  1  0
 19 20  2  0
 20 21  1  0
 21 22  2  0
 22 23  1  0
 22 24  1  0
 24 25  2  0
 25 26  1  0
 26 27  2  0
 11  7  1  0
 16 12  1  0
 27 17  1  0
 26 20  1  0
  3 28  1  0
  4 29  1  0
  4 30  1  0
  8 31  1  0
  8 32  1  0
  9 33  1  0
  9 34  1  0
 10 35  1  0
 10 36  1  0
 11 37  1  1
 12 38  1  1
 13 39  1  0
 13 40  1  0
 14 41  1  0
 14 42  1  0
 15 43  1  0
 16 44  1  0
 16 45  1  0
 18 46  1  0
 19 47  1  0
 21 48  1  0
 24 49  1  0
 25 50  1  0
M  END
>  <smiles>  (139) 
O=C(NCC(=O)N1CCCC1C1CCNC1)c1ccc2cc(F)ccc2n1

>  <score_type>  (139) 
oracle

>  <origin>  (139) 
autodockgpu

>  <m_score__min__energy>  (139) 
-8.0399999999999991

>  <m_primary>  (139) 
energy

>  <rmsd>  (139) 
7.612497909488419

>  <m_score__min__rmsd>  (139) 
7.612497909488419

>  <meeko>  (139) 
{"free_energy": -7.58, "intermolecular_energy": -9.07, "internal_energy": -1.61, "cluster_size": 8, "cluster_id": 4, "rank_in_cluster": 2}

>  <energy>  (139) 
-7.58

>  <cluster_rmsd>  (139) 
0.05

>  <cluster>  (139) 
4

$$$$

     RDKit          3D

 50 53  0  0  0  0  0  0  0  0999 V2000
  138.8740   70.8970  221.1720 O   0  0  0  0  0  0  0  0  0  0  0  0
  139.1680   71.4400  222.2680 C   0  0  0  0  0  0  0  0  0  0  0  0
  139.2900   72.8610  222.3650 N   0  0  0  0  0  0  0  0  0  0  0  0
  139.0780   73.7170  221.1980 C   0  0  0  0  0  0  0  0  0  0  0  0
  139.6010   75.0760  221.5180 C   0  0  0  0  0  0  0  0  0  0  0  0
  139.6020   75.4070  222.7210 O   0  0  0  0  0  0  0  0  0  0  0  0
  140.0480   75.8670  220.4410 N   0  0  0  0  0  0  0  0  0  0  0  0
  139.2470   76.8130  219.6210 C   0  0  0  0  0  0  0  0  0  0  0  0
  139.6690   76.3300  218.2350 C   0  0  0  0  0  0  0  0  0  0  0  0
  141.0110   75.6030  218.4170 C   0  0  0  0  0  0  0  0  0  0  0  0
  141.3660   75.9840  219.8180 C   0  0  2  0  0  0  0  0  0  0  0  0
  142.4570   75.2410  220.4740 C   0  0  1  0  0  0  0  0  0  0  0  0
  142.4500   73.7480  220.0950 C   0  0  0  0  0  0  0  0  0  0  0  0
  143.9040   73.4120  220.4260 C   0  0  0  0  0  0  0  0  0  0  0  0
  144.6530   74.6500  220.2970 N   0  0  0  0  0  0  0  0  0  0  0  0
  143.7580   75.6130  219.7230 C   0  0  0  0  0  0  0  0  0  0  0  0
  139.3970   70.6470  223.4930 C   0  0  0  0  0  0  0  0  0  0  0  0
  139.0030   69.3140  223.4720 C   0  0  0  0  0  0  0  0  0  0  0  0
  139.2260   68.5900  224.6230 C   0  0  0  0  0  0  0  0  0  0  0  0
  139.8060   69.1340  225.7470 C   0  0  0  0  0  0  0  0  0  0  0  0
  140.0420   68.4490  226.9070 C   0  0  0  0  0  0  0  0  0  0  0  0
  140.6260   69.0270  228.0180 C   0  0  0  0  0  0  0  0  0  0  0  0
  140.8470   68.3030  229.1640 F   0  0  0  0  0  0  0  0  0  0  0  0
  141.0040   70.3730  227.9880 C   0  0  0  0  0  0  0  0  0  0  0  0
  140.7620   71.0570  226.8130 C   0  0  0  0  0  0  0  0  0  0  0  0
  140.1790   70.4790  225.7060 C   0  0  0  0  0  0  0  0  0  0  0  0
  139.9630   71.1910  224.5830 N   0  0  0  0  0  0  0  0  0  0  0  0
  139.5390   73.2810  223.3090 H   0  0  0  0  0  0  0  0  0  0  0  0
  139.6158   73.3053  220.3312 H   0  0  0  0  0  0  0  0  0  0  0  0
  138.0067   73.7692  220.9537 H   0  0  0  0  0  0  0  0  0  0  0  0
  138.1665   76.6944  219.7894 H   0  0  0  0  0  0  0  0  0  0  0  0
  139.4151   77.8808  219.8251 H   0  0  0  0  0  0  0  0  0  0  0  0
  138.9154   75.6404  217.8269 H   0  0  0  0  0  0  0  0  0  0  0  0
  139.7638   77.1708  217.5322 H   0  0  0  0  0  0  0  0  0  0  0  0
  140.8958   74.5140  218.3133 H   0  0  0  0  0  0  0  0  0  0  0  0
  141.7731   75.8728  217.6711 H   0  0  0  0  0  0  0  0  0  0  0  0
  141.8368   76.9751  219.8963 H   0  0  0  0  0  0  0  0  0  0  0  0
  142.3691   75.4468  221.5510 H   0  0  0  0  0  0  0  0  0  0  0  0
  141.7430   73.1699  220.7081 H   0  0  0  0  0  0  0  0  0  0  0  0
  142.1342   73.5221  219.0658 H   0  0  0  0  0  0  0  0  0  0  0  0
  143.9806   73.0268  221.4535 H   0  0  0  0  0  0  0  0  0  0  0  0
  144.2968   72.6372  219.7511 H   0  0  0  0  0  0  0  0  0  0  0  0
  145.4430   74.4960  219.6210 H   0  0  0  0  0  0  0  0  0  0  0  0
  144.0740   76.6445  219.9378 H   0  0  0  0  0  0  0  0  0  0  0  0
  143.6864   75.5865  218.6257 H   0  0  0  0  0  0  0  0  0  0  0  0
  138.5380   68.8613  222.5838 H   0  0  0  0  0  0  0  0  0  0  0  0
  138.9277   67.5314  224.6448 H   0  0  0  0  0  0  0  0  0  0  0  0
  139.7535   67.3887  226.9579 H   0  0  0  0  0  0  0  0  0  0  0  0
  141.4703   70.8620  228.8560 H   0  0  0  0  0  0  0  0  0  0  0  0
  141.0492   72.1174  226.7578 H   0  0  0  0  0  0  0  0  0  0  0  0
  1  2  2  0
  2  3  1  0
  3  4  1  0
  4  5  1  0
  5  6  2  0
  5  7  1  0
  7  8  1  0
  8  9  1  0
  9 10  1  0
 10 11  1  0
 11 12  1  0
 12 13  1  0
 13 14  1  0
 14 15  1  0
 15 16  1  0
  2 17  1  0
 17 18  2  0
 18 19  1  0
 19 20  2  0
 20 21  1  0
 21 22  2  0
 22 23  1  0
 22 24  1  0
 24 25  2  0
 25 26  1  0
 26 27  2  0
 11  7  1  0
 16 12  1  0
 27 17  1  0
 26 20  1  0
  3 28  1  0
  4 29  1  0
  4 30  1  0
  8 31  1  0
  8 32  1  0
  9 33  1  0
  9 34  1  0
 10 35  1  0
 10 36  1  0
 11 37  1  6
 12 38  1  1
 13 39  1  0
 13 40  1  0
 14 41  1  0
 14 42  1  0
 15 43  1  0
 16 44  1  0
 16 45  1  0
 18 46  1  0
 19 47  1  0
 21 48  1  0
 24 49  1  0
 25 50  1  0
M  END
>  <smiles>  (140) 
O=C(NCC(=O)N1CCCC1C1CCNC1)c1ccc2cc(F)ccc2n1

>  <score_type>  (140) 
oracle

>  <origin>  (140) 
autodockgpu

>  <m_score__min__energy>  (140) 
-8.0399999999999991

>  <m_primary>  (140) 
energy

>  <rmsd>  (140) 
1.3233462081499439

>  <m_score__min__rmsd>  (140) 
1.3233462081499439

>  <meeko>  (140) 
{"free_energy": -6.92, "intermolecular_energy": -8.41, "internal_energy": -2.11, "cluster_size": 15, "cluster_id": 2, "rank_in_cluster": 15}

>  <energy>  (140) 
-7.58

>  <cluster_rmsd>  (140) 
0.04

>  <cluster>  (140) 
4

$$$$

     RDKit          3D

 50 53  0  0  0  0  0  0  0  0999 V2000
  133.8580   69.9830  226.6010 O   0  0  0  0  0  0  0  0  0  0  0  0
  134.1200   71.1300  226.1550 C   0  0  0  0  0  0  0  0  0  0  0  0
  135.1560   71.3130  225.1880 N   0  0  0  0  0  0  0  0  0  0  0  0
  135.9370   70.1790  224.6940 C   0  0  0  0  0  0  0  0  0  0  0  0
  137.0930   70.7130  223.9200 C   0  0  0  0  0  0  0  0  0  0  0  0
  136.9870   71.8780  223.4860 O   0  0  0  0  0  0  0  0  0  0  0  0
  138.2040   69.8620  223.7470 N   0  0  0  0  0  0  0  0  0  0  0  0
  138.4440   68.9070  222.6350 C   0  0  0  0  0  0  0  0  0  0  0  0
  138.7990   67.6740  223.4620 C   0  0  0  0  0  0  0  0  0  0  0  0
  139.2560   68.1900  224.8380 C   0  0  0  0  0  0  0  0  0  0  0  0
  139.3920   69.6550  224.5720 C   0  0  2  0  0  0  0  0  0  0  0  0
  139.5340   70.5500  225.7350 C   0  0  1  0  0  0  0  0  0  0  0  0
  139.9920   69.7930  226.9960 C   0  0  0  0  0  0  0  0  0  0  0  0
  140.5620   70.9710  227.7860 C   0  0  0  0  0  0  0  0  0  0  0  0
  140.9630   71.9680  226.8090 N   0  0  0  0  0  0  0  0  0  0  0  0
  140.8410   71.3510  225.5190 C   0  0  0  0  0  0  0  0  0  0  0  0
  133.3780   72.3270  226.6010 C   0  0  0  0  0  0  0  0  0  0  0  0
  132.1370   72.1230  227.1940 C   0  0  0  0  0  0  0  0  0  0  0  0
  131.4610   73.2510  227.6050 C   0  0  0  0  0  0  0  0  0  0  0  0
  131.9650   74.5230  227.4480 C   0  0  0  0  0  0  0  0  0  0  0  0
  131.3240   75.6650  227.8410 C   0  0  0  0  0  0  0  0  0  0  0  0
  131.8590   76.9270  227.6680 C   0  0  0  0  0  0  0  0  0  0  0  0
  131.1830   78.0500  228.0790 F   0  0  0  0  0  0  0  0  0  0  0  0
  133.1120   77.0780  227.0650 C   0  0  0  0  0  0  0  0  0  0  0  0
  133.7510   75.9200  226.6720 C   0  0  0  0  0  0  0  0  0  0  0  0
  133.2160   74.6620  226.8450 C   0  0  0  0  0  0  0  0  0  0  0  0
  133.8820   73.5620  226.4410 N   0  0  0  0  0  0  0  0  0  0  0  0
  135.3460   72.2990  224.8350 H   0  0  0  0  0  0  0  0  0  0  0  0
  136.3011   69.5799  225.5417 H   0  0  0  0  0  0  0  0  0  0  0  0
  135.3136   69.5381  224.0532 H   0  0  0  0  0  0  0  0  0  0  0  0
  137.5435   68.7496  222.0232 H   0  0  0  0  0  0  0  0  0  0  0  0
  139.1970   69.2171  221.8955 H   0  0  0  0  0  0  0  0  0  0  0  0
  137.9186   67.0239  223.5728 H   0  0  0  0  0  0  0  0  0  0  0  0
  139.5884   67.0819  222.9761 H   0  0  0  0  0  0  0  0  0  0  0  0
  138.5021   67.9900  225.6136 H   0  0  0  0  0  0  0  0  0  0  0  0
  140.1730   67.7140  225.2154 H   0  0  0  0  0  0  0  0  0  0  0  0
  140.3459   69.9280  224.0972 H   0  0  0  0  0  0  0  0  0  0  0  0
  138.5766   71.0822  225.8355 H   0  0  0  0  0  0  0  0  0  0  0  0
  139.1507   69.3142  227.5184 H   0  0  0  0  0  0  0  0  0  0  0  0
  140.6875   68.9588  226.8214 H   0  0  0  0  0  0  0  0  0  0  0  0
  139.7954   71.3843  228.4579 H   0  0  0  0  0  0  0  0  0  0  0  0
  141.4141   70.6580  228.4072 H   0  0  0  0  0  0  0  0  0  0  0  0
  141.9760   72.2020  226.9630 H   0  0  0  0  0  0  0  0  0  0  0  0
  140.7365   72.0964  224.7169 H   0  0  0  0  0  0  0  0  0  0  0  0
  141.7084   70.7518  225.2051 H   0  0  0  0  0  0  0  0  0  0  0  0
  131.7174   71.1150  227.3278 H   0  0  0  0  0  0  0  0  0  0  0  0
  130.4758   73.1303  228.0792 H   0  0  0  0  0  0  0  0  0  0  0  0
  130.3365   75.5748  228.3171 H   0  0  0  0  0  0  0  0  0  0  0  0
  133.5646   78.0688  226.9120 H   0  0  0  0  0  0  0  0  0  0  0  0
  134.7389   76.0055  226.1958 H   0  0  0  0  0  0  0  0  0  0  0  0
  1  2  2  0
  2  3  1  0
  3  4  1  0
  4  5  1  0
  5  6  2  0
  5  7  1  0
  7  8  1  0
  8  9  1  0
  9 10  1  0
 10 11  1  0
 11 12  1  0
 12 13  1  0
 13 14  1  0
 14 15  1  0
 15 16  1  0
  2 17  1  0
 17 18  2  0
 18 19  1  0
 19 20  2  0
 20 21  1  0
 21 22  2  0
 22 23  1  0
 22 24  1  0
 24 25  2  0
 25 26  1  0
 26 27  2  0
 11  7  1  0
 16 12  1  0
 27 17  1  0
 26 20  1  0
  3 28  1  0
  4 29  1  0
  4 30  1  0
  8 31  1  0
  8 32  1  0
  9 33  1  0
  9 34  1  0
 10 35  1  0
 10 36  1  0
 11 37  1  6
 12 38  1  1
 13 39  1  0
 13 40  1  0
 14 41  1  0
 14 42  1  0
 15 43  1  0
 16 44  1  0
 16 45  1  0
 18 46  1  0
 19 47  1  0
 21 48  1  0
 24 49  1  0
 25 50  1  0
M  END
>  <smiles>  (141) 
O=C(NCC(=O)N1CCCC1C1CCNC1)c1ccc2cc(F)ccc2n1

>  <score_type>  (141) 
oracle

>  <origin>  (141) 
autodockgpu

>  <m_score__min__energy>  (141) 
-8.0399999999999991

>  <m_primary>  (141) 
energy

>  <rmsd>  (141) 
8.868094626310201

>  <m_score__min__rmsd>  (141) 
8.868094626310201

>  <meeko>  (141) 
{"free_energy": -7.08, "intermolecular_energy": -8.57, "internal_energy": -1.98, "cluster_size": 8, "cluster_id": 4, "rank_in_cluster": 7}

>  <energy>  (141) 
-7.57

>  <cluster_rmsd>  (141) 
0.06

>  <cluster>  (141) 
4

$$$$

     RDKit          3D

 50 53  0  0  0  0  0  0  0  0999 V2000
  139.0740   71.1820  221.0480 O   0  0  0  0  0  0  0  0  0  0  0  0
  139.3170   71.7480  222.1450 C   0  0  0  0  0  0  0  0  0  0  0  0
  139.3690   73.1730  222.2300 N   0  0  0  0  0  0  0  0  0  0  0  0
  139.1440   74.0090  221.0510 C   0  0  0  0  0  0  0  0  0  0  0  0
  140.4040   74.0360  220.2540 C   0  0  0  0  0  0  0  0  0  0  0  0
  140.5120   73.1870  219.3470 O   0  0  0  0  0  0  0  0  0  0  0  0
  141.3610   75.0150  220.5910 N   0  0  0  0  0  0  0  0  0  0  0  0
  141.1160   76.3410  221.2140 C   0  0  0  0  0  0  0  0  0  0  0  0
  141.9330   77.2010  220.2530 C   0  0  0  0  0  0  0  0  0  0  0  0
  142.9500   76.2610  219.5850 C   0  0  0  0  0  0  0  0  0  0  0  0
  142.8130   75.0330  220.4260 C   0  0  2  0  0  0  0  0  0  0  0  0
  143.4210   73.7880  219.9220 C   0  0  1  0  0  0  0  0  0  0  0  0
  144.9510   73.7760  220.1030 C   0  0  0  0  0  0  0  0  0  0  0  0
  145.1850   72.2670  220.0400 C   0  0  0  0  0  0  0  0  0  0  0  0
  143.9500   71.6390  220.4740 N   0  0  0  0  0  0  0  0  0  0  0  0
  143.1060   72.6890  220.9670 C   0  0  0  0  0  0  0  0  0  0  0  0
  139.5550   70.9770  223.3820 C   0  0  0  0  0  0  0  0  0  0  0  0
  139.2340   69.6250  223.3620 C   0  0  0  0  0  0  0  0  0  0  0  0
  139.4640   68.9220  224.5250 C   0  0  0  0  0  0  0  0  0  0  0  0
  139.9830   69.5050  225.6600 C   0  0  0  0  0  0  0  0  0  0  0  0
  140.2230   68.8420  226.8320 C   0  0  0  0  0  0  0  0  0  0  0  0
  140.7450   69.4590  227.9530 C   0  0  0  0  0  0  0  0  0  0  0  0
  140.9730   68.7560  229.1100 F   0  0  0  0  0  0  0  0  0  0  0  0
  141.0500   70.8230  227.9210 C   0  0  0  0  0  0  0  0  0  0  0  0
  140.8040   71.4840  226.7350 C   0  0  0  0  0  0  0  0  0  0  0  0
  140.2840   70.8680  225.6170 C   0  0  0  0  0  0  0  0  0  0  0  0
  140.0610   71.5590  224.4820 N   0  0  0  0  0  0  0  0  0  0  0  0
  139.5760   73.6140  223.1760 H   0  0  0  0  0  0  0  0  0  0  0  0
  138.3287   73.5871  220.4450 H   0  0  0  0  0  0  0  0  0  0  0  0
  138.8638   75.0284  221.3549 H   0  0  0  0  0  0  0  0  0  0  0  0
  140.0497   76.6111  221.2067 H   0  0  0  0  0  0  0  0  0  0  0  0
  141.3871   76.4254  222.2767 H   0  0  0  0  0  0  0  0  0  0  0  0
  141.2765   77.6518  219.4943 H   0  0  0  0  0  0  0  0  0  0  0  0
  142.4379   78.0216  220.7838 H   0  0  0  0  0  0  0  0  0  0  0  0
  142.6853   76.0619  218.5361 H   0  0  0  0  0  0  0  0  0  0  0  0
  143.9727   76.6636  219.5402 H   0  0  0  0  0  0  0  0  0  0  0  0
  143.3911   75.0745  221.3609 H   0  0  0  0  0  0  0  0  0  0  0  0
  143.0757   73.6717  218.8841 H   0  0  0  0  0  0  0  0  0  0  0  0
  145.4671   74.3081  219.2902 H   0  0  0  0  0  0  0  0  0  0  0  0
  145.3251   74.2762  221.0085 H   0  0  0  0  0  0  0  0  0  0  0  0
  145.4247   71.9624  219.0105 H   0  0  0  0  0  0  0  0  0  0  0  0
  146.0287   71.9686  220.6796 H   0  0  0  0  0  0  0  0  0  0  0  0
  144.1640   70.9920  221.2750 H   0  0  0  0  0  0  0  0  0  0  0  0
  142.0442   72.4021  220.9524 H   0  0  0  0  0  0  0  0  0  0  0  0
  143.2822   72.9765  222.0140 H   0  0  0  0  0  0  0  0  0  0  0  0
  138.8184   69.1416  222.4656 H   0  0  0  0  0  0  0  0  0  0  0  0
  139.2227   67.8490  224.5478 H   0  0  0  0  0  0  0  0  0  0  0  0
  139.9898   67.7683  226.8847 H   0  0  0  0  0  0  0  0  0  0  0  0
  141.4651   71.3430  228.7970 H   0  0  0  0  0  0  0  0  0  0  0  0
  141.0348   72.5580  226.6789 H   0  0  0  0  0  0  0  0  0  0  0  0
  1  2  2  0
  2  3  1  0
  3  4  1  0
  4  5  1  0
  5  6  2  0
  5  7  1  0
  7  8  1  0
  8  9  1  0
  9 10  1  0
 10 11  1  0
 11 12  1  0
 12 13  1  0
 13 14  1  0
 14 15  1  0
 15 16  1  0
  2 17  1  0
 17 18  2  0
 18 19  1  0
 19 20  2  0
 20 21  1  0
 21 22  2  0
 22 23  1  0
 22 24  1  0
 24 25  2  0
 25 26  1  0
 26 27  2  0
 11  7  1  0
 16 12  1  0
 27 17  1  0
 26 20  1  0
  3 28  1  0
  4 29  1  0
  4 30  1  0
  8 31  1  0
  8 32  1  0
  9 33  1  0
  9 34  1  0
 10 35  1  0
 10 36  1  0
 11 37  1  1
 12 38  1  6
 13 39  1  0
 13 40  1  0
 14 41  1  0
 14 42  1  0
 15 43  1  0
 16 44  1  0
 16 45  1  0
 18 46  1  0
 19 47  1  0
 21 48  1  0
 24 49  1  0
 25 50  1  0
M  END
>  <smiles>  (142) 
O=C(NCC(=O)N1CCCC1C1CCNC1)c1ccc2cc(F)ccc2n1

>  <score_type>  (142) 
oracle

>  <origin>  (142) 
autodockgpu

>  <m_score__min__energy>  (142) 
-8.0399999999999991

>  <m_primary>  (142) 
energy

>  <rmsd>  (142) 
2.087681694122185

>  <m_score__min__rmsd>  (142) 
2.087681694122185

>  <meeko>  (142) 
{"free_energy": -7.19, "intermolecular_energy": -8.68, "internal_energy": -1.55, "cluster_size": 15, "cluster_id": 2, "rank_in_cluster": 14}

>  <energy>  (142) 
-7.56

>  <cluster_rmsd>  (142) 
0.04

>  <cluster>  (142) 
4

$$$$

     RDKit          3D

 50 53  0  0  0  0  0  0  0  0999 V2000
  134.7350   68.4870  225.1120 O   0  0  0  0  0  0  0  0  0  0  0  0
  135.1140   69.6820  225.0030 C   0  0  0  0  0  0  0  0  0  0  0  0
  136.2760   70.0070  224.2380 N   0  0  0  0  0  0  0  0  0  0  0  0
  137.0540   68.9650  223.5670 C   0  0  0  0  0  0  0  0  0  0  0  0
  138.4150   68.9390  224.1720 C   0  0  0  0  0  0  0  0  0  0  0  0
  138.9110   67.8150  224.3890 O   0  0  0  0  0  0  0  0  0  0  0  0
  139.0250   70.1800  224.4470 N   0  0  0  0  0  0  0  0  0  0  0  0
  139.0590   71.3820  223.5740 C   0  0  0  0  0  0  0  0  0  0  0  0
  140.5550   71.6780  223.6480 C   0  0  0  0  0  0  0  0  0  0  0  0
  141.0700   71.0040  224.9300 C   0  0  0  0  0  0  0  0  0  0  0  0
  139.7870   70.6390  225.6070 C   0  0  2  0  0  0  0  0  0  0  0  0
  139.8560   69.7040  226.7440 C   0  0  1  0  0  0  0  0  0  0  0  0
  140.7830   68.5080  226.4560 C   0  0  0  0  0  0  0  0  0  0  0  0
  141.0780   68.0840  227.8950 C   0  0  0  0  0  0  0  0  0  0  0  0
  140.9200   69.2720  228.7150 N   0  0  0  0  0  0  0  0  0  0  0  0
  140.7520   70.3750  227.8140 C   0  0  0  0  0  0  0  0  0  0  0  0
  134.3850   70.7920  225.6490 C   0  0  0  0  0  0  0  0  0  0  0  0
  133.3570   70.4560  226.5230 C   0  0  0  0  0  0  0  0  0  0  0  0
  132.6890   71.5050  227.1170 C   0  0  0  0  0  0  0  0  0  0  0  0
  133.0030   72.8240  226.8750 C   0  0  0  0  0  0  0  0  0  0  0  0
  132.3640   73.8900  227.4430 C   0  0  0  0  0  0  0  0  0  0  0  0
  132.7050   75.2020  227.1770 C   0  0  0  0  0  0  0  0  0  0  0  0
  132.0380   76.2460  227.7700 F   0  0  0  0  0  0  0  0  0  0  0  0
  133.7480   75.4870  226.2890 C   0  0  0  0  0  0  0  0  0  0  0  0
  134.3870   74.4040  225.7200 C   0  0  0  0  0  0  0  0  0  0  0  0
  134.0450   73.0960  225.9860 C   0  0  0  0  0  0  0  0  0  0  0  0
  134.7010   72.0740  225.4030 N   0  0  0  0  0  0  0  0  0  0  0  0
  136.5640   71.0290  224.1690 H   0  0  0  0  0  0  0  0  0  0  0  0
  136.5662   67.9888  223.7051 H   0  0  0  0  0  0  0  0  0  0  0  0
  137.1209   69.1749  222.4893 H   0  0  0  0  0  0  0  0  0  0  0  0
  138.7318   71.1577  222.5480 H   0  0  0  0  0  0  0  0  0  0  0  0
  138.3950   72.2065  223.8728 H   0  0  0  0  0  0  0  0  0  0  0  0
  141.0685   71.2634  222.7680 H   0  0  0  0  0  0  0  0  0  0  0  0
  140.7460   72.7612  223.6636 H   0  0  0  0  0  0  0  0  0  0  0  0
  141.6724   70.1124  224.7017 H   0  0  0  0  0  0  0  0  0  0  0  0
  141.7339   71.6380  225.5360 H   0  0  0  0  0  0  0  0  0  0  0  0
  139.3346   71.4706  226.1672 H   0  0  0  0  0  0  0  0  0  0  0  0
  138.8174   69.4371  226.9891 H   0  0  0  0  0  0  0  0  0  0  0  0
  140.2712   67.7163  225.8892 H   0  0  0  0  0  0  0  0  0  0  0  0
  141.6650   68.7306  225.8376 H   0  0  0  0  0  0  0  0  0  0  0  0
  140.3702   67.3048  228.2144 H   0  0  0  0  0  0  0  0  0  0  0  0
  142.0923   67.6686  227.9875 H   0  0  0  0  0  0  0  0  0  0  0  0
  141.8070   69.4270  229.2580 H   0  0  0  0  0  0  0  0  0  0  0  0
  140.2470   71.2247  228.2966 H   0  0  0  0  0  0  0  0  0  0  0  0
  141.6867   70.8116  227.4322 H   0  0  0  0  0  0  0  0  0  0  0  0
  133.0911   69.4087  226.7293 H   0  0  0  0  0  0  0  0  0  0  0  0
  131.8693   71.2789  227.8148 H   0  0  0  0  0  0  0  0  0  0  0  0
  131.5397   73.6943  228.1446 H   0  0  0  0  0  0  0  0  0  0  0  0
  134.0435   76.5207  226.0564 H   0  0  0  0  0  0  0  0  0  0  0  0
  135.2119   74.5949  225.0179 H   0  0  0  0  0  0  0  0  0  0  0  0
  1  2  2  0
  2  3  1  0
  3  4  1  0
  4  5  1  0
  5  6  2  0
  5  7  1  0
  7  8  1  0
  8  9  1  0
  9 10  1  0
 10 11  1  0
 11 12  1  0
 12 13  1  0
 13 14  1  0
 14 15  1  0
 15 16  1  0
  2 17  1  0
 17 18  2  0
 18 19  1  0
 19 20  2  0
 20 21  1  0
 21 22  2  0
 22 23  1  0
 22 24  1  0
 24 25  2  0
 25 26  1  0
 26 27  2  0
 11  7  1  0
 16 12  1  0
 27 17  1  0
 26 20  1  0
  3 28  1  0
  4 29  1  0
  4 30  1  0
  8 31  1  0
  8 32  1  0
  9 33  1  0
  9 34  1  0
 10 35  1  0
 10 36  1  0
 11 37  1  1
 12 38  1  1
 13 39  1  0
 13 40  1  0
 14 41  1  0
 14 42  1  0
 15 43  1  0
 16 44  1  0
 16 45  1  0
 18 46  1  0
 19 47  1  0
 21 48  1  0
 24 49  1  0
 25 50  1  0
M  END
>  <smiles>  (143) 
O=C(NCC(=O)N1CCCC1C1CCNC1)c1ccc2cc(F)ccc2n1

>  <score_type>  (143) 
oracle

>  <origin>  (143) 
autodockgpu

>  <m_score__min__energy>  (143) 
-8.0399999999999991

>  <m_primary>  (143) 
energy

>  <rmsd>  (143) 
7.608611425796615

>  <m_score__min__rmsd>  (143) 
7.608611425796615

>  <meeko>  (143) 
{"free_energy": -7.59, "intermolecular_energy": -9.09, "internal_energy": -1.6, "cluster_size": 8, "cluster_id": 4, "rank_in_cluster": 1}

>  <energy>  (143) 
-7.55

>  <cluster_rmsd>  (143) 
0.12

>  <cluster>  (143) 
4

$$$$

     RDKit          3D

 50 53  0  0  0  0  0  0  0  0999 V2000
  138.5750   74.6460  222.0400 O   0  0  0  0  0  0  0  0  0  0  0  0
  139.7480   75.0960  221.9600 C   0  0  0  0  0  0  0  0  0  0  0  0
  140.0200   76.4660  222.2620 N   0  0  0  0  0  0  0  0  0  0  0  0
  138.9500   77.3760  222.6700 C   0  0  0  0  0  0  0  0  0  0  0  0
  139.5020   78.7610  222.6900 C   0  0  0  0  0  0  0  0  0  0  0  0
  138.6760   79.6950  222.6360 O   0  0  0  0  0  0  0  0  0  0  0  0
  140.9030   78.8980  222.7700 N   0  0  0  0  0  0  0  0  0  0  0  0
  141.7290   79.0260  223.9980 C   0  0  0  0  0  0  0  0  0  0  0  0
  142.5620   80.2380  223.5900 C   0  0  0  0  0  0  0  0  0  0  0  0
  142.5210   80.2980  222.0540 C   0  0  0  0  0  0  0  0  0  0  0  0
  141.9210   78.9690  221.7230 C   0  0  2  0  0  0  0  0  0  0  0  0
  141.4450   78.7590  220.3450 C   0  0  1  0  0  0  0  0  0  0  0  0
  142.0190   79.8020  219.3670 C   0  0  0  0  0  0  0  0  0  0  0  0
  141.8330   79.0310  218.0600 C   0  0  0  0  0  0  0  0  0  0  0  0
  141.8450   77.6210  218.4080 N   0  0  0  0  0  0  0  0  0  0  0  0
  142.2240   77.5420  219.7890 C   0  0  0  0  0  0  0  0  0  0  0  0
  140.8830   74.2430  221.5560 C   0  0  0  0  0  0  0  0  0  0  0  0
  140.6790   72.8680  221.5570 C   0  0  0  0  0  0  0  0  0  0  0  0
  141.7500   72.0880  221.1770 C   0  0  0  0  0  0  0  0  0  0  0  0
  142.9680   72.6180  220.8110 C   0  0  0  0  0  0  0  0  0  0  0  0
  144.0520   71.8780  220.4300 C   0  0  0  0  0  0  0  0  0  0  0  0
  145.2610   72.4430  220.0700 C   0  0  0  0  0  0  0  0  0  0  0  0
  146.3260   71.6640  219.6910 F   0  0  0  0  0  0  0  0  0  0  0  0
  145.4140   73.8330  220.0860 C   0  0  0  0  0  0  0  0  0  0  0  0
  144.3150   74.5720  220.4730 C   0  0  0  0  0  0  0  0  0  0  0  0
  143.1100   74.0070  220.8320 C   0  0  0  0  0  0  0  0  0  0  0  0
  142.0660   74.7730  221.2030 N   0  0  0  0  0  0  0  0  0  0  0  0
  141.0240   76.8090  222.1830 H   0  0  0  0  0  0  0  0  0  0  0  0
  138.1171   77.3169  221.9539 H   0  0  0  0  0  0  0  0  0  0  0  0
  138.5752   77.1008  223.6669 H   0  0  0  0  0  0  0  0  0  0  0  0
  141.1166   79.2260  224.8896 H   0  0  0  0  0  0  0  0  0  0  0  0
  142.2999   78.1301  224.2834 H   0  0  0  0  0  0  0  0  0  0  0  0
  142.1325   81.1559  224.0179 H   0  0  0  0  0  0  0  0  0  0  0  0
  143.5953   80.1529  223.9576 H   0  0  0  0  0  0  0  0  0  0  0  0
  141.8875   81.1248  221.7004 H   0  0  0  0  0  0  0  0  0  0  0  0
  143.4992   80.4793  221.5847 H   0  0  0  0  0  0  0  0  0  0  0  0
  142.6505   78.1457  221.7207 H   0  0  0  0  0  0  0  0  0  0  0  0
  140.3467   78.7283  220.3984 H   0  0  0  0  0  0  0  0  0  0  0  0
  141.4433   80.7392  219.3787 H   0  0  0  0  0  0  0  0  0  0  0  0
  143.0461   80.1343  219.5785 H   0  0  0  0  0  0  0  0  0  0  0  0
  140.8735   79.2992  217.5938 H   0  0  0  0  0  0  0  0  0  0  0  0
  142.6297   79.2700  217.3402 H   0  0  0  0  0  0  0  0  0  0  0  0
  142.5870   77.1410  217.8390 H   0  0  0  0  0  0  0  0  0  0  0  0
  141.8944   76.5995  220.2506 H   0  0  0  0  0  0  0  0  0  0  0  0
  143.3079   77.5579  219.9761 H   0  0  0  0  0  0  0  0  0  0  0  0
  139.7140   72.4258  221.8458 H   0  0  0  0  0  0  0  0  0  0  0  0
  141.6270   70.9950  221.1654 H   0  0  0  0  0  0  0  0  0  0  0  0
  143.9580   70.7822  220.4088 H   0  0  0  0  0  0  0  0  0  0  0  0
  146.3628   74.3130  219.8042 H   0  0  0  0  0  0  0  0  0  0  0  0
  144.4050   75.6681  220.4963 H   0  0  0  0  0  0  0  0  0  0  0  0
  1  2  2  0
  2  3  1  0
  3  4  1  0
  4  5  1  0
  5  6  2  0
  5  7  1  0
  7  8  1  0
  8  9  1  0
  9 10  1  0
 10 11  1  0
 11 12  1  0
 12 13  1  0
 13 14  1  0
 14 15  1  0
 15 16  1  0
  2 17  1  0
 17 18  2  0
 18 19  1  0
 19 20  2  0
 20 21  1  0
 21 22  2  0
 22 23  1  0
 22 24  1  0
 24 25  2  0
 25 26  1  0
 26 27  2  0
 11  7  1  0
 16 12  1  0
 27 17  1  0
 26 20  1  0
  3 28  1  0
  4 29  1  0
  4 30  1  0
  8 31  1  0
  8 32  1  0
  9 33  1  0
  9 34  1  0
 10 35  1  0
 10 36  1  0
 11 37  1  1
 12 38  1  1
 13 39  1  0
 13 40  1  0
 14 41  1  0
 14 42  1  0
 15 43  1  0
 16 44  1  0
 16 45  1  0
 18 46  1  0
 19 47  1  0
 21 48  1  0
 24 49  1  0
 25 50  1  0
M  END
>  <smiles>  (144) 
O=C(NCC(=O)N1CCCC1C1CCNC1)c1ccc2cc(F)ccc2n1

>  <score_type>  (144) 
oracle

>  <origin>  (144) 
autodockgpu

>  <m_score__min__energy>  (144) 
-8.0399999999999991

>  <m_primary>  (144) 
energy

>  <rmsd>  (144) 
6.403719983487218

>  <m_score__min__rmsd>  (144) 
6.403719983487218

>  <meeko>  (144) 
{"free_energy": -6.32, "intermolecular_energy": -7.81, "internal_energy": -2.07, "cluster_size": 1, "cluster_id": 8, "rank_in_cluster": 1}

>  <energy>  (144) 
-7.08

>  <cluster_rmsd>  (144) 
1.83

>  <cluster>  (144) 
4

$$$$

     RDKit          3D

 50 53  0  0  0  0  0  0  0  0999 V2000
  140.6870   71.7350  221.0220 O   0  0  0  0  0  0  0  0  0  0  0  0
  140.2610   72.2360  222.0950 C   0  0  0  0  0  0  0  0  0  0  0  0
  139.9190   73.6220  222.1630 N   0  0  0  0  0  0  0  0  0  0  0  0
  140.0550   74.4910  220.9950 C   0  0  0  0  0  0  0  0  0  0  0  0
  140.8970   75.6590  221.3810 C   0  0  0  0  0  0  0  0  0  0  0  0
  140.6060   76.2310  222.4510 O   0  0  0  0  0  0  0  0  0  0  0  0
  141.9460   76.0160  220.5090 N   0  0  0  0  0  0  0  0  0  0  0  0
  142.1540   77.3230  219.8340 C   0  0  0  0  0  0  0  0  0  0  0  0
  142.3860   76.8150  218.4140 C   0  0  0  0  0  0  0  0  0  0  0  0
  142.8300   75.3480  218.5430 C   0  0  0  0  0  0  0  0  0  0  0  0
  143.0850   75.2460  220.0130 C   0  0  2  0  0  0  0  0  0  0  0  0
  143.2510   73.8980  220.5860 C   0  0  1  0  0  0  0  0  0  0  0  0
  143.0850   72.7930  219.5250 C   0  0  0  0  0  0  0  0  0  0  0  0
  143.8300   71.6650  220.2380 C   0  0  0  0  0  0  0  0  0  0  0  0
  144.7870   72.3000  221.1270 N   0  0  0  0  0  0  0  0  0  0  0  0
  144.7690   73.7010  220.8170 C   0  0  0  0  0  0  0  0  0  0  0  0
  140.0940   71.4260  223.3190 C   0  0  0  0  0  0  0  0  0  0  0  0
  139.4700   70.1910  223.1860 C   0  0  0  0  0  0  0  0  0  0  0  0
  139.3240   69.4510  224.3390 C   0  0  0  0  0  0  0  0  0  0  0  0
  139.7640   69.8870  225.5680 C   0  0  0  0  0  0  0  0  0  0  0  0
  139.6370   69.1820  226.7330 C   0  0  0  0  0  0  0  0  0  0  0  0
  140.0900   69.6510  227.9510 C   0  0  0  0  0  0  0  0  0  0  0  0
  139.9440   68.9100  229.0980 F   0  0  0  0  0  0  0  0  0  0  0  0
  140.7110   70.9020  228.0310 C   0  0  0  0  0  0  0  0  0  0  0  0
  140.8350   71.6060  226.8510 C   0  0  0  0  0  0  0  0  0  0  0  0
  140.3820   71.1370  225.6360 C   0  0  0  0  0  0  0  0  0  0  0  0
  140.5270   71.8650  224.5120 N   0  0  0  0  0  0  0  0  0  0  0  0
  139.5610   74.0070  223.0880 H   0  0  0  0  0  0  0  0  0  0  0  0
  140.5367   73.9394  220.1742 H   0  0  0  0  0  0  0  0  0  0  0  0
  139.0652   74.8307  220.6560 H   0  0  0  0  0  0  0  0  0  0  0  0
  141.2668   77.9697  219.9023 H   0  0  0  0  0  0  0  0  0  0  0  0
  142.9541   77.9521  220.2511 H   0  0  0  0  0  0  0  0  0  0  0  0
  141.4561   76.8808  217.8300 H   0  0  0  0  0  0  0  0  0  0  0  0
  143.1465   77.4170  217.8951 H   0  0  0  0  0  0  0  0  0  0  0  0
  142.0356   74.6575  218.2234 H   0  0  0  0  0  0  0  0  0  0  0  0
  143.6946   75.0828  217.9168 H   0  0  0  0  0  0  0  0  0  0  0  0
  144.0735   75.6232  220.3140 H   0  0  0  0  0  0  0  0  0  0  0  0
  142.5551   73.8339  221.4355 H   0  0  0  0  0  0  0  0  0  0  0  0
  142.0279   72.5438  219.3506 H   0  0  0  0  0  0  0  0  0  0  0  0
  143.4542   73.0428  218.5193 H   0  0  0  0  0  0  0  0  0  0  0  0
  143.1247   71.0497  220.8159 H   0  0  0  0  0  0  0  0  0  0  0  0
  144.3342   71.0039  219.5178 H   0  0  0  0  0  0  0  0  0  0  0  0
  145.7460   71.9300  220.9090 H   0  0  0  0  0  0  0  0  0  0  0  0
  145.1381   74.3105  221.6550 H   0  0  0  0  0  0  0  0  0  0  0  0
  145.4112   74.0005  219.9756 H   0  0  0  0  0  0  0  0  0  0  0  0
  139.1121   69.8243  222.2127 H   0  0  0  0  0  0  0  0  0  0  0  0
  138.8341   68.4682  224.2744 H   0  0  0  0  0  0  0  0  0  0  0  0
  139.1515   68.1955  226.6987 H   0  0  0  0  0  0  0  0  0  0  0  0
  141.0814   71.3037  228.9857 H   0  0  0  0  0  0  0  0  0  0  0  0
  141.3204   72.5926  226.8810 H   0  0  0  0  0  0  0  0  0  0  0  0
  1  2  2  0
  2  3  1  0
  3  4  1  0
  4  5  1  0
  5  6  2  0
  5  7  1  0
  7  8  1  0
  8  9  1  0
  9 10  1  0
 10 11  1  0
 11 12  1  0
 12 13  1  0
 13 14  1  0
 14 15  1  0
 15 16  1  0
  2 17  1  0
 17 18  2  0
 18 19  1  0
 19 20  2  0
 20 21  1  0
 21 22  2  0
 22 23  1  0
 22 24  1  0
 24 25  2  0
 25 26  1  0
 26 27  2  0
 11  7  1  0
 16 12  1  0
 27 17  1  0
 26 20  1  0
  3 28  1  0
  4 29  1  0
  4 30  1  0
  8 31  1  0
  8 32  1  0
  9 33  1  0
  9 34  1  0
 10 35  1  0
 10 36  1  0
 11 37  1  6
 12 38  1  1
 13 39  1  0
 13 40  1  0
 14 41  1  0
 14 42  1  0
 15 43  1  0
 16 44  1  0
 16 45  1  0
 18 46  1  0
 19 47  1  0
 21 48  1  0
 24 49  1  0
 25 50  1  0
M  END
>  <smiles>  (145) 
O=C(NCC(=O)N1CCCC1C1CCNC1)c1ccc2cc(F)ccc2n1

>  <score_type>  (145) 
oracle

>  <origin>  (145) 
autodockgpu

>  <m_score__min__energy>  (145) 
-8.0399999999999991

>  <m_primary>  (145) 
energy

>  <rmsd>  (145) 
2.249827738382336

>  <m_score__min__rmsd>  (145) 
2.249827738382336

>  <meeko>  (145) 
{"free_energy": -7.86, "intermolecular_energy": -9.35, "internal_energy": -1.84, "cluster_size": 15, "cluster_id": 2, "rank_in_cluster": 3}

>  <energy>  (145) 
-7.08

>  <cluster_rmsd>  (145) 
1.81

>  <cluster>  (145) 
4

$$$$

     RDKit          3D

 50 53  0  0  0  0  0  0  0  0999 V2000
  141.1410   71.7150  221.1050 O   0  0  0  0  0  0  0  0  0  0  0  0
  140.5150   72.1960  222.0850 C   0  0  0  0  0  0  0  0  0  0  0  0
  140.0190   73.5350  222.0420 N   0  0  0  0  0  0  0  0  0  0  0  0
  140.2250   74.3790  220.8650 C   0  0  0  0  0  0  0  0  0  0  0  0
  141.0230   75.5680  221.2800 C   0  0  0  0  0  0  0  0  0  0  0  0
  140.7170   76.0960  222.3670 O   0  0  0  0  0  0  0  0  0  0  0  0
  142.0510   75.9910  220.4120 N   0  0  0  0  0  0  0  0  0  0  0  0
  142.2470   77.3470  219.8380 C   0  0  0  0  0  0  0  0  0  0  0  0
  142.4410   76.9530  218.3770 C   0  0  0  0  0  0  0  0  0  0  0  0
  142.8820   75.4800  218.3780 C   0  0  0  0  0  0  0  0  0  0  0  0
  143.1750   75.2610  219.8270 C   0  0  2  0  0  0  0  0  0  0  0  0
  143.3500   73.8710  220.2870 C   0  0  1  0  0  0  0  0  0  0  0  0
  143.5380   72.8920  219.1130 C   0  0  0  0  0  0  0  0  0  0  0  0
  144.2210   71.7490  219.8640 C   0  0  0  0  0  0  0  0  0  0  0  0
  144.8860   72.3460  221.0080 N   0  0  0  0  0  0  0  0  0  0  0  0
  144.7920   73.7680  220.8420 C   0  0  0  0  0  0  0  0  0  0  0  0
  140.2650   71.4100  223.3110 C   0  0  0  0  0  0  0  0  0  0  0  0
  139.5590   70.2210  223.1720 C   0  0  0  0  0  0  0  0  0  0  0  0
  139.3360   69.5020  224.3260 C   0  0  0  0  0  0  0  0  0  0  0  0
  139.7780   69.9160  225.5620 C   0  0  0  0  0  0  0  0  0  0  0  0
  139.5760   69.2320  226.7280 C   0  0  0  0  0  0  0  0  0  0  0  0
  140.0330   69.6780  227.9530 C   0  0  0  0  0  0  0  0  0  0  0  0
  139.8100   68.9580  229.1010 F   0  0  0  0  0  0  0  0  0  0  0  0
  140.7390   70.8820  228.0390 C   0  0  0  0  0  0  0  0  0  0  0  0
  140.9380   71.5660  226.8570 C   0  0  0  0  0  0  0  0  0  0  0  0
  140.4810   71.1200  225.6360 C   0  0  0  0  0  0  0  0  0  0  0  0
  140.7020   71.8270  224.5100 N   0  0  0  0  0  0  0  0  0  0  0  0
  139.4950   73.9050  222.8900 H   0  0  0  0  0  0  0  0  0  0  0  0
  140.7698   73.8155  220.0932 H   0  0  0  0  0  0  0  0  0  0  0  0
  139.2569   74.6964  220.4501 H   0  0  0  0  0  0  0  0  0  0  0  0
  141.3644   77.9880  219.9800 H   0  0  0  0  0  0  0  0  0  0  0  0
  143.0598   77.9395  220.2833 H   0  0  0  0  0  0  0  0  0  0  0  0
  141.4970   77.0669  217.8239 H   0  0  0  0  0  0  0  0  0  0  0  0
  143.1905   77.5927  217.8882 H   0  0  0  0  0  0  0  0  0  0  0  0
  142.0766   74.8186  218.0259 H   0  0  0  0  0  0  0  0  0  0  0  0
  143.7289   75.2637  217.7102 H   0  0  0  0  0  0  0  0  0  0  0  0
  144.1726   75.6111  220.1307 H   0  0  0  0  0  0  0  0  0  0  0  0
  142.4944   73.6508  220.9423 H   0  0  0  0  0  0  0  0  0  0  0  0
  142.5772   72.5826  218.6757 H   0  0  0  0  0  0  0  0  0  0  0  0
  144.0916   73.2889  218.2493 H   0  0  0  0  0  0  0  0  0  0  0  0
  143.4737   71.0148  220.1995 H   0  0  0  0  0  0  0  0  0  0  0  0
  144.9381   71.2214  219.2180 H   0  0  0  0  0  0  0  0  0  0  0  0
  145.9030   72.0830  220.9810 H   0  0  0  0  0  0  0  0  0  0  0  0
  144.9017   74.3001  221.7985 H   0  0  0  0  0  0  0  0  0  0  0  0
  145.5696   74.2156  220.2056 H   0  0  0  0  0  0  0  0  0  0  0  0
  139.1976   69.8726  222.1932 H   0  0  0  0  0  0  0  0  0  0  0  0
  138.7802   68.5553  224.2564 H   0  0  0  0  0  0  0  0  0  0  0  0
  139.0235   68.2816  226.6891 H   0  0  0  0  0  0  0  0  0  0  0  0
  141.1162   71.2641  228.9991 H   0  0  0  0  0  0  0  0  0  0  0  0
  141.4902   72.5167  226.8914 H   0  0  0  0  0  0  0  0  0  0  0  0
  1  2  2  0
  2  3  1  0
  3  4  1  0
  4  5  1  0
  5  6  2  0
  5  7  1  0
  7  8  1  0
  8  9  1  0
  9 10  1  0
 10 11  1  0
 11 12  1  0
 12 13  1  0
 13 14  1  0
 14 15  1  0
 15 16  1  0
  2 17  1  0
 17 18  2  0
 18 19  1  0
 19 20  2  0
 20 21  1  0
 21 22  2  0
 22 23  1  0
 22 24  1  0
 24 25  2  0
 25 26  1  0
 26 27  2  0
 11  7  1  0
 16 12  1  0
 27 17  1  0
 26 20  1  0
  3 28  1  0
  4 29  1  0
  4 30  1  0
  8 31  1  0
  8 32  1  0
  9 33  1  0
  9 34  1  0
 10 35  1  0
 10 36  1  0
 11 37  1  1
 12 38  1  1
 13 39  1  0
 13 40  1  0
 14 41  1  0
 14 42  1  0
 15 43  1  0
 16 44  1  0
 16 45  1  0
 18 46  1  0
 19 47  1  0
 21 48  1  0
 24 49  1  0
 25 50  1  0
M  END
>  <smiles>  (146) 
O=C(NCC(=O)N1CCCC1C1CCNC1)c1ccc2cc(F)ccc2n1

>  <score_type>  (146) 
oracle

>  <origin>  (146) 
autodockgpu

>  <m_score__min__energy>  (146) 
-8.0399999999999991

>  <m_primary>  (146) 
energy

>  <rmsd>  (146) 
2.3098724599927247

>  <m_score__min__rmsd>  (146) 
2.3098724599927247

>  <meeko>  (146) 
{"free_energy": -7.87, "intermolecular_energy": -9.36, "internal_energy": -1.75, "cluster_size": 15, "cluster_id": 2, "rank_in_cluster": 1}

>  <energy>  (146) 
-7.25

>  <cluster_rmsd>  (146) 
0.0

>  <cluster>  (146) 
5

$$$$

     RDKit          3D

 50 53  0  0  0  0  0  0  0  0999 V2000
  140.6630   71.7540  221.0050 O   0  0  0  0  0  0  0  0  0  0  0  0
  140.2630   72.2660  222.0830 C   0  0  0  0  0  0  0  0  0  0  0  0
  139.9550   73.6590  222.1540 N   0  0  0  0  0  0  0  0  0  0  0  0
  140.0960   74.5240  220.9820 C   0  0  0  0  0  0  0  0  0  0  0  0
  140.9500   75.6850  221.3620 C   0  0  0  0  0  0  0  0  0  0  0  0
  140.6970   76.2340  222.4540 O   0  0  0  0  0  0  0  0  0  0  0  0
  141.9680   76.0610  220.4620 N   0  0  0  0  0  0  0  0  0  0  0  0
  142.0480   77.3100  219.6600 C   0  0  0  0  0  0  0  0  0  0  0  0
  142.3480   76.6910  218.2980 C   0  0  0  0  0  0  0  0  0  0  0  0
  142.9400   75.2980  218.5740 C   0  0  0  0  0  0  0  0  0  0  0  0
  143.1860   75.3690  220.0470 C   0  0  2  0  0  0  0  0  0  0  0  0
  143.4840   74.1090  220.7510 C   0  0  1  0  0  0  0  0  0  0  0  0
  143.1790   72.8730  219.8830 C   0  0  0  0  0  0  0  0  0  0  0  0
  144.0640   71.8540  220.6010 C   0  0  0  0  0  0  0  0  0  0  0  0
  145.1340   72.6080  221.2290 N   0  0  0  0  0  0  0  0  0  0  0  0
  145.0250   73.9560  220.7500 C   0  0  0  0  0  0  0  0  0  0  0  0
  140.0940   71.4620  223.3100 C   0  0  0  0  0  0  0  0  0  0  0  0
  139.4430   70.2400  223.1870 C   0  0  0  0  0  0  0  0  0  0  0  0
  139.2950   69.5040  224.3430 C   0  0  0  0  0  0  0  0  0  0  0  0
  139.7580   69.9330  225.5660 C   0  0  0  0  0  0  0  0  0  0  0  0
  139.6300   69.2330  226.7340 C   0  0  0  0  0  0  0  0  0  0  0  0
  140.1060   69.6940  227.9460 C   0  0  0  0  0  0  0  0  0  0  0  0
  139.9580   68.9590  229.0950 F   0  0  0  0  0  0  0  0  0  0  0  0
  140.7540   70.9320  228.0160 C   0  0  0  0  0  0  0  0  0  0  0  0
  140.8790   71.6320  226.8330 C   0  0  0  0  0  0  0  0  0  0  0  0
  140.4030   71.1700  225.6250 C   0  0  0  0  0  0  0  0  0  0  0  0
  140.5500   71.8940  224.4980 N   0  0  0  0  0  0  0  0  0  0  0  0
  139.6200   74.0540  223.0830 H   0  0  0  0  0  0  0  0  0  0  0  0
  140.5701   73.9654  220.1615 H   0  0  0  0  0  0  0  0  0  0  0  0
  139.1085   74.8721  220.6449 H   0  0  0  0  0  0  0  0  0  0  0  0
  141.0981   77.8646  219.6622 H   0  0  0  0  0  0  0  0  0  0  0  0
  142.7739   78.0570  220.0136 H   0  0  0  0  0  0  0  0  0  0  0  0
  141.4233   76.6014  217.7090 H   0  0  0  0  0  0  0  0  0  0  0  0
  143.0479   77.3145  217.7224 H   0  0  0  0  0  0  0  0  0  0  0  0
  142.2254   74.5002  218.3234 H   0  0  0  0  0  0  0  0  0  0  0  0
  143.8352   75.0638  217.9792 H   0  0  0  0  0  0  0  0  0  0  0  0
  144.1261   75.8754  220.3109 H   0  0  0  0  0  0  0  0  0  0  0  0
  142.9388   74.1512  221.7055 H   0  0  0  0  0  0  0  0  0  0  0  0
  142.1154   72.5948  219.9204 H   0  0  0  0  0  0  0  0  0  0  0  0
  143.3708   72.9914  218.8063 H   0  0  0  0  0  0  0  0  0  0  0  0
  143.4816   71.3144  221.3624 H   0  0  0  0  0  0  0  0  0  0  0  0
  144.4625   71.1077  219.8980 H   0  0  0  0  0  0  0  0  0  0  0  0
  146.0550   72.2200  220.9030 H   0  0  0  0  0  0  0  0  0  0  0  0
  145.5082   74.6727  221.4303 H   0  0  0  0  0  0  0  0  0  0  0  0
  145.5121   74.1480  219.7826 H   0  0  0  0  0  0  0  0  0  0  0  0
  139.0660   69.8795  222.2186 H   0  0  0  0  0  0  0  0  0  0  0  0
  138.7846   68.5313  224.2855 H   0  0  0  0  0  0  0  0  0  0  0  0
  139.1240   68.2566  226.7069 H   0  0  0  0  0  0  0  0  0  0  0  0
  141.1440   71.3274  228.9655 H   0  0  0  0  0  0  0  0  0  0  0  0
  141.3845   72.6087  226.8555 H   0  0  0  0  0  0  0  0  0  0  0  0
  1  2  2  0
  2  3  1  0
  3  4  1  0
  4  5  1  0
  5  6  2  0
  5  7  1  0
  7  8  1  0
  8  9  1  0
  9 10  1  0
 10 11  1  0
 11 12  1  0
 12 13  1  0
 13 14  1  0
 14 15  1  0
 15 16  1  0
  2 17  1  0
 17 18  2  0
 18 19  1  0
 19 20  2  0
 20 21  1  0
 21 22  2  0
 22 23  1  0
 22 24  1  0
 24 25  2  0
 25 26  1  0
 26 27  2  0
 11  7  1  0
 16 12  1  0
 27 17  1  0
 26 20  1  0
  3 28  1  0
  4 29  1  0
  4 30  1  0
  8 31  1  0
  8 32  1  0
  9 33  1  0
  9 34  1  0
 10 35  1  0
 10 36  1  0
 11 37  1  6
 12 38  1  1
 13 39  1  0
 13 40  1  0
 14 41  1  0
 14 42  1  0
 15 43  1  0
 16 44  1  0
 16 45  1  0
 18 46  1  0
 19 47  1  0
 21 48  1  0
 24 49  1  0
 25 50  1  0
M  END
>  <smiles>  (147) 
O=C(NCC(=O)N1CCCC1C1CCNC1)c1ccc2cc(F)ccc2n1

>  <score_type>  (147) 
oracle

>  <origin>  (147) 
autodockgpu

>  <m_score__min__energy>  (147) 
-8.0399999999999991

>  <m_primary>  (147) 
energy

>  <rmsd>  (147) 
2.2450763583818665

>  <m_score__min__rmsd>  (147) 
2.2450763583818665

>  <meeko>  (147) 
{"free_energy": -7.79, "intermolecular_energy": -9.28, "internal_energy": -1.86, "cluster_size": 15, "cluster_id": 2, "rank_in_cluster": 9}

>  <energy>  (147) 
-7.25

>  <cluster_rmsd>  (147) 
0.11

>  <cluster>  (147) 
5

$$$$

     RDKit          3D

 50 53  0  0  0  0  0  0  0  0999 V2000
  141.2890   71.7770  221.3620 O   0  0  0  0  0  0  0  0  0  0  0  0
  140.6210   72.2370  222.3250 C   0  0  0  0  0  0  0  0  0  0  0  0
  140.1230   73.5760  222.2880 N   0  0  0  0  0  0  0  0  0  0  0  0
  140.3750   74.4440  221.1370 C   0  0  0  0  0  0  0  0  0  0  0  0
  139.8680   75.8070  221.4640 C   0  0  0  0  0  0  0  0  0  0  0  0
  139.1490   75.9090  222.4790 O   0  0  0  0  0  0  0  0  0  0  0  0
  140.2410   76.8590  220.6030 N   0  0  0  0  0  0  0  0  0  0  0  0
  139.9250   77.0000  219.1590 C   0  0  0  0  0  0  0  0  0  0  0  0
  141.3270   77.3180  218.6460 C   0  0  0  0  0  0  0  0  0  0  0  0
  142.1190   77.8570  219.8480 C   0  0  0  0  0  0  0  0  0  0  0  0
  141.0290   78.0660  220.8490 C   0  0  2  0  0  0  0  0  0  0  0  0
  141.4230   78.3050  222.2500 C   0  0  1  0  0  0  0  0  0  0  0  0
  142.3930   79.4940  222.3840 C   0  0  0  0  0  0  0  0  0  0  0  0
  142.1630   79.8230  223.8590 C   0  0  0  0  0  0  0  0  0  0  0  0
  140.8230   79.3630  224.1800 N   0  0  0  0  0  0  0  0  0  0  0  0
  140.2120   78.9790  222.9400 C   0  0  0  0  0  0  0  0  0  0  0  0
  140.3230   71.4260  223.5230 C   0  0  0  0  0  0  0  0  0  0  0  0
  139.6240   70.2400  223.3310 C   0  0  0  0  0  0  0  0  0  0  0  0
  139.3560   69.4970  224.4610 C   0  0  0  0  0  0  0  0  0  0  0  0
  139.7480   69.8860  225.7220 C   0  0  0  0  0  0  0  0  0  0  0  0
  139.5000   69.1780  226.8650 C   0  0  0  0  0  0  0  0  0  0  0  0
  139.9070   69.5990  228.1160 C   0  0  0  0  0  0  0  0  0  0  0  0
  139.6390   68.8560  229.2390 F   0  0  0  0  0  0  0  0  0  0  0  0
  140.6080   70.8020  228.2540 C   0  0  0  0  0  0  0  0  0  0  0  0
  140.8530   71.5100  227.0960 C   0  0  0  0  0  0  0  0  0  0  0  0
  140.4460   71.0890  225.8480 C   0  0  0  0  0  0  0  0  0  0  0  0
  140.7100   71.8190  224.7470 N   0  0  0  0  0  0  0  0  0  0  0  0
  139.5620   73.9280  223.1210 H   0  0  0  0  0  0  0  0  0  0  0  0
  141.4549   74.4873  220.9322 H   0  0  0  0  0  0  0  0  0  0  0  0
  139.8643   74.0516  220.2452 H   0  0  0  0  0  0  0  0  0  0  0  0
  139.5287   76.0682  218.7293 H   0  0  0  0  0  0  0  0  0  0  0  0
  139.1486   77.7389  218.9115 H   0  0  0  0  0  0  0  0  0  0  0  0
  141.8039   76.4076  218.2539 H   0  0  0  0  0  0  0  0  0  0  0  0
  141.2945   78.0534  217.8286 H   0  0  0  0  0  0  0  0  0  0  0  0
  142.8577   77.1240  220.2046 H   0  0  0  0  0  0  0  0  0  0  0  0
  142.7087   78.7596  219.6300 H   0  0  0  0  0  0  0  0  0  0  0  0
  140.4885   79.0149  220.7167 H   0  0  0  0  0  0  0  0  0  0  0  0
  141.8073   77.3478  222.6321 H   0  0  0  0  0  0  0  0  0  0  0  0
  143.4344   79.2017  222.1839 H   0  0  0  0  0  0  0  0  0  0  0  0
  142.2250   80.3239  221.6818 H   0  0  0  0  0  0  0  0  0  0  0  0
  142.9034   79.3027  224.4844 H   0  0  0  0  0  0  0  0  0  0  0  0
  142.2691   80.9016  224.0473 H   0  0  0  0  0  0  0  0  0  0  0  0
  140.2770   80.1680  224.5770 H   0  0  0  0  0  0  0  0  0  0  0  0
  139.3829   78.2726  223.0935 H   0  0  0  0  0  0  0  0  0  0  0  0
  139.7507   79.8012  222.3733 H   0  0  0  0  0  0  0  0  0  0  0  0
  139.3021   69.9120  222.3316 H   0  0  0  0  0  0  0  0  0  0  0  0
  138.8046   68.5517  224.3501 H   0  0  0  0  0  0  0  0  0  0  0  0
  138.9505   68.2285  226.7846 H   0  0  0  0  0  0  0  0  0  0  0  0
  140.9464   71.1646  229.2358 H   0  0  0  0  0  0  0  0  0  0  0  0
  141.4018   72.4603  227.1722 H   0  0  0  0  0  0  0  0  0  0  0  0
  1  2  2  0
  2  3  1  0
  3  4  1  0
  4  5  1  0
  5  6  2  0
  5  7  1  0
  7  8  1  0
  8  9  1  0
  9 10  1  0
 10 11  1  0
 11 12  1  0
 12 13  1  0
 13 14  1  0
 14 15  1  0
 15 16  1  0
  2 17  1  0
 17 18  2  0
 18 19  1  0
 19 20  2  0
 20 21  1  0
 21 22  2  0
 22 23  1  0
 22 24  1  0
 24 25  2  0
 25 26  1  0
 26 27  2  0
 11  7  1  0
 16 12  1  0
 27 17  1  0
 26 20  1  0
  3 28  1  0
  4 29  1  0
  4 30  1  0
  8 31  1  0
  8 32  1  0
  9 33  1  0
  9 34  1  0
 10 35  1  0
 10 36  1  0
 11 37  1  6
 12 38  1  1
 13 39  1  0
 13 40  1  0
 14 41  1  0
 14 42  1  0
 15 43  1  0
 16 44  1  0
 16 45  1  0
 18 46  1  0
 19 47  1  0
 21 48  1  0
 24 49  1  0
 25 50  1  0
M  END
>  <smiles>  (148) 
O=C(NCC(=O)N1CCCC1C1CCNC1)c1ccc2cc(F)ccc2n1

>  <score_type>  (148) 
oracle

>  <origin>  (148) 
autodockgpu

>  <m_score__min__energy>  (148) 
-8.0399999999999991

>  <m_primary>  (148) 
energy

>  <rmsd>  (148) 
1.8615026042332943

>  <m_score__min__rmsd>  (148) 
1.8615026042332943

>  <meeko>  (148) 
{"free_energy": -7.65, "intermolecular_energy": -9.15, "internal_energy": -1.73, "cluster_size": 19, "cluster_id": 1, "rank_in_cluster": 10}

>  <energy>  (148) 
-6.36

>  <cluster_rmsd>  (148) 
0.0

>  <cluster>  (148) 
6

$$$$

     RDKit          3D

 50 53  0  0  0  0  0  0  0  0999 V2000
  133.8370   69.9380  226.5180 O   0  0  0  0  0  0  0  0  0  0  0  0
  134.1230   71.0900  226.1020 C   0  0  0  0  0  0  0  0  0  0  0  0
  135.1810   71.2790  225.1610 N   0  0  0  0  0  0  0  0  0  0  0  0
  135.9580   70.1450  224.6600 C   0  0  0  0  0  0  0  0  0  0  0  0
  137.1230   70.6800  223.9000 C   0  0  0  0  0  0  0  0  0  0  0  0
  137.0250   71.8470  223.4700 O   0  0  0  0  0  0  0  0  0  0  0  0
  138.2330   69.8260  223.7320 N   0  0  0  0  0  0  0  0  0  0  0  0
  138.4840   68.8800  222.6140 C   0  0  0  0  0  0  0  0  0  0  0  0
  138.8240   67.6390  223.4340 C   0  0  0  0  0  0  0  0  0  0  0  0
  139.2640   68.1390  224.8200 C   0  0  0  0  0  0  0  0  0  0  0  0
  139.4100   69.6060  224.5710 C   0  0  2  0  0  0  0  0  0  0  0  0
  139.5390   70.4890  225.7440 C   0  0  1  0  0  0  0  0  0  0  0  0
  140.0570   69.7340  226.9840 C   0  0  0  0  0  0  0  0  0  0  0  0
  140.5950   70.9240  227.7790 C   0  0  0  0  0  0  0  0  0  0  0  0
  140.9300   71.9510  226.8090 N   0  0  0  0  0  0  0  0  0  0  0  0
  140.8060   71.3480  225.5120 C   0  0  0  0  0  0  0  0  0  0  0  0
  133.3870   72.2870  226.5570 C   0  0  0  0  0  0  0  0  0  0  0  0
  132.1530   72.0840  227.1630 C   0  0  0  0  0  0  0  0  0  0  0  0
  131.4820   73.2130  227.5820 C   0  0  0  0  0  0  0  0  0  0  0  0
  131.9850   74.4840  227.4210 C   0  0  0  0  0  0  0  0  0  0  0  0
  131.3500   75.6270  227.8220 C   0  0  0  0  0  0  0  0  0  0  0  0
  131.8850   76.8880  227.6450 C   0  0  0  0  0  0  0  0  0  0  0  0
  131.2140   78.0110  228.0640 F   0  0  0  0  0  0  0  0  0  0  0  0
  133.1320   77.0380  227.0290 C   0  0  0  0  0  0  0  0  0  0  0  0
  133.7650   75.8800  226.6270 C   0  0  0  0  0  0  0  0  0  0  0  0
  133.2310   74.6220  226.8050 C   0  0  0  0  0  0  0  0  0  0  0  0
  133.8900   73.5220  226.3930 N   0  0  0  0  0  0  0  0  0  0  0  0
  135.3920   72.2690  224.8320 H   0  0  0  0  0  0  0  0  0  0  0  0
  136.3121   69.5342  225.5035 H   0  0  0  0  0  0  0  0  0  0  0  0
  135.3350   69.5152  224.0079 H   0  0  0  0  0  0  0  0  0  0  0  0
  137.5908   68.7313  221.9894 H   0  0  0  0  0  0  0  0  0  0  0  0
  139.2474   69.1940  221.8869 H   0  0  0  0  0  0  0  0  0  0  0  0
  137.9401   66.9908  223.5268 H   0  0  0  0  0  0  0  0  0  0  0  0
  139.6184   67.0495  222.9530 H   0  0  0  0  0  0  0  0  0  0  0  0
  138.4987   67.9345  225.5832 H   0  0  0  0  0  0  0  0  0  0  0  0
  140.1739   67.6552  225.2049 H   0  0  0  0  0  0  0  0  0  0  0  0
  140.3718   69.8793  224.1125 H   0  0  0  0  0  0  0  0  0  0  0  0
  138.5622   70.9780  225.8733 H   0  0  0  0  0  0  0  0  0  0  0  0
  139.2484   69.2128  227.5175 H   0  0  0  0  0  0  0  0  0  0  0  0
  140.7827   68.9325  226.7817 H   0  0  0  0  0  0  0  0  0  0  0  0
  139.8276   71.2943  228.4746 H   0  0  0  0  0  0  0  0  0  0  0  0
  141.4741   70.6388  228.3756 H   0  0  0  0  0  0  0  0  0  0  0  0
  141.9350   72.2270  226.9440 H   0  0  0  0  0  0  0  0  0  0  0  0
  140.6524   72.0998  224.7238 H   0  0  0  0  0  0  0  0  0  0  0  0
  141.6908   70.7911  225.1701 H   0  0  0  0  0  0  0  0  0  0  0  0
  131.7340   71.0763  227.3010 H   0  0  0  0  0  0  0  0  0  0  0  0
  130.5016   73.0928  228.0662 H   0  0  0  0  0  0  0  0  0  0  0  0
  130.3673   75.5379  228.3082 H   0  0  0  0  0  0  0  0  0  0  0  0
  133.5846   78.0284  226.8732 H   0  0  0  0  0  0  0  0  0  0  0  0
  134.7471   75.9652  226.1390 H   0  0  0  0  0  0  0  0  0  0  0  0
  1  2  2  0
  2  3  1  0
  3  4  1  0
  4  5  1  0
  5  6  2  0
  5  7  1  0
  7  8  1  0
  8  9  1  0
  9 10  1  0
 10 11  1  0
 11 12  1  0
 12 13  1  0
 13 14  1  0
 14 15  1  0
 15 16  1  0
  2 17  1  0
 17 18  2  0
 18 19  1  0
 19 20  2  0
 20 21  1  0
 21 22  2  0
 22 23  1  0
 22 24  1  0
 24 25  2  0
 25 26  1  0
 26 27  2  0
 11  7  1  0
 16 12  1  0
 27 17  1  0
 26 20  1  0
  3 28  1  0
  4 29  1  0
  4 30  1  0
  8 31  1  0
  8 32  1  0
  9 33  1  0
  9 34  1  0
 10 35  1  0
 10 36  1  0
 11 37  1  6
 12 38  1  1
 13 39  1  0
 13 40  1  0
 14 41  1  0
 14 42  1  0
 15 43  1  0
 16 44  1  0
 16 45  1  0
 18 46  1  0
 19 47  1  0
 21 48  1  0
 24 49  1  0
 25 50  1  0
M  END
>  <smiles>  (149) 
O=C(NCC(=O)N1CCCC1C1CCNC1)c1ccc2cc(F)ccc2n1

>  <score_type>  (149) 
oracle

>  <origin>  (149) 
autodockgpu

>  <m_score__min__energy>  (149) 
-8.0399999999999991

>  <m_primary>  (149) 
energy

>  <rmsd>  (149) 
8.852999078236554

>  <m_score__min__rmsd>  (149) 
8.852999078236554

>  <meeko>  (149) 
{"free_energy": -7.08, "intermolecular_energy": -8.57, "internal_energy": -1.99, "cluster_size": 8, "cluster_id": 4, "rank_in_cluster": 8}

>  <energy>  (149) 
-6.32

>  <cluster_rmsd>  (149) 
0.0

>  <cluster>  (149) 
7

$$$$

     RDKit          3D

 50 53  0  0  0  0  0  0  0  0999 V2000
  141.7360   72.8850  220.1980 O   0  0  0  0  0  0  0  0  0  0  0  0
  141.2490   73.6070  221.1060 C   0  0  0  0  0  0  0  0  0  0  0  0
  140.5180   73.0210  222.1850 N   0  0  0  0  0  0  0  0  0  0  0  0
  140.3170   71.5740  222.2620 C   0  0  0  0  0  0  0  0  0  0  0  0
  139.8680   71.2410  223.6440 C   0  0  0  0  0  0  0  0  0  0  0  0
  140.3080   71.9580  224.5650 O   0  0  0  0  0  0  0  0  0  0  0  0
  138.9870   70.1490  223.7920 N   0  0  0  0  0  0  0  0  0  0  0  0
  137.8000   69.8270  222.9590 C   0  0  0  0  0  0  0  0  0  0  0  0
  136.7860   69.6070  224.0790 C   0  0  0  0  0  0  0  0  0  0  0  0
  137.5980   69.2810  225.3440 C   0  0  0  0  0  0  0  0  0  0  0  0
  138.9620   69.0640  224.7710 C   0  0  2  0  0  0  0  0  0  0  0  0
  140.0970   69.0140  225.7090 C   0  0  1  0  0  0  0  0  0  0  0  0
  139.7920   69.7510  227.0280 C   0  0  0  0  0  0  0  0  0  0  0  0
  140.8300   69.0760  227.9230 C   0  0  0  0  0  0  0  0  0  0  0  0
  141.0860   67.7680  227.3450 N   0  0  0  0  0  0  0  0  0  0  0  0
  140.1180   67.5840  226.3020 C   0  0  0  0  0  0  0  0  0  0  0  0
  141.4070   75.0760  221.1020 C   0  0  0  0  0  0  0  0  0  0  0  0
  142.1470   75.6340  220.0660 C   0  0  0  0  0  0  0  0  0  0  0  0
  142.2830   77.0050  220.0800 C   0  0  0  0  0  0  0  0  0  0  0  0
  141.7260   77.8020  221.0540 C   0  0  0  0  0  0  0  0  0  0  0  0
  141.8390   79.1640  221.1020 C   0  0  0  0  0  0  0  0  0  0  0  0
  141.2670   79.9340  222.0960 C   0  0  0  0  0  0  0  0  0  0  0  0
  141.4040   81.3000  222.1060 F   0  0  0  0  0  0  0  0  0  0  0  0
  140.5320   79.3220  223.1160 C   0  0  0  0  0  0  0  0  0  0  0  0
  140.4220   77.9480  223.0610 C   0  0  0  0  0  0  0  0  0  0  0  0
  140.9940   77.1810  222.0680 C   0  0  0  0  0  0  0  0  0  0  0  0
  140.8580   75.8410  222.0600 N   0  0  0  0  0  0  0  0  0  0  0  0
  140.1210   73.6650  222.9330 H   0  0  0  0  0  0  0  0  0  0  0  0
  139.5502   71.2651  221.5364 H   0  0  0  0  0  0  0  0  0  0  0  0
  141.2536   71.0465  222.0284 H   0  0  0  0  0  0  0  0  0  0  0  0
  137.5164   70.6625  222.3021 H   0  0  0  0  0  0  0  0  0  0  0  0
  137.9237   68.9891  222.2571 H   0  0  0  0  0  0  0  0  0  0  0  0
  136.1883   70.5172  224.2349 H   0  0  0  0  0  0  0  0  0  0  0  0
  136.0899   68.7920  223.8316 H   0  0  0  0  0  0  0  0  0  0  0  0
  137.5892   70.1201  226.0552 H   0  0  0  0  0  0  0  0  0  0  0  0
  137.2108   68.4272  225.9194 H   0  0  0  0  0  0  0  0  0  0  0  0
  139.1094   68.0555  224.3573 H   0  0  0  0  0  0  0  0  0  0  0  0
  140.9711   69.3908  225.1577 H   0  0  0  0  0  0  0  0  0  0  0  0
  139.9617   70.8346  226.9440 H   0  0  0  0  0  0  0  0  0  0  0  0
  138.7510   69.6853  227.3774 H   0  0  0  0  0  0  0  0  0  0  0  0
  141.7560   69.6694  227.9451 H   0  0  0  0  0  0  0  0  0  0  0  0
  140.4665   68.9891  228.9576 H   0  0  0  0  0  0  0  0  0  0  0  0
  140.9160   67.0360  228.0800 H   0  0  0  0  0  0  0  0  0  0  0  0
  140.4489   66.8393  225.5632 H   0  0  0  0  0  0  0  0  0  0  0  0
  139.1411   67.2033  226.6349 H   0  0  0  0  0  0  0  0  0  0  0  0
  142.5995   75.0145  219.2777 H   0  0  0  0  0  0  0  0  0  0  0  0
  142.8626   77.4839  219.2770 H   0  0  0  0  0  0  0  0  0  0  0  0
  142.4126   79.6704  220.3117 H   0  0  0  0  0  0  0  0  0  0  0  0
  140.0648   79.9069  223.9220 H   0  0  0  0  0  0  0  0  0  0  0  0
  139.8488   77.4383  223.8494 H   0  0  0  0  0  0  0  0  0  0  0  0
  1  2  2  0
  2  3  1  0
  3  4  1  0
  4  5  1  0
  5  6  2  0
  5  7  1  0
  7  8  1  0
  8  9  1  0
  9 10  1  0
 10 11  1  0
 11 12  1  0
 12 13  1  0
 13 14  1  0
 14 15  1  0
 15 16  1  0
  2 17  1  0
 17 18  2  0
 18 19  1  0
 19 20  2  0
 20 21  1  0
 21 22  2  0
 22 23  1  0
 22 24  1  0
 24 25  2  0
 25 26  1  0
 26 27  2  0
 11  7  1  0
 16 12  1  0
 27 17  1  0
 26 20  1  0
  3 28  1  0
  4 29  1  0
  4 30  1  0
  8 31  1  0
  8 32  1  0
  9 33  1  0
  9 34  1  0
 10 35  1  0
 10 36  1  0
 11 37  1  6
 12 38  1  6
 13 39  1  0
 13 40  1  0
 14 41  1  0
 14 42  1  0
 15 43  1  0
 16 44  1  0
 16 45  1  0
 18 46  1  0
 19 47  1  0
 21 48  1  0
 24 49  1  0
 25 50  1  0
M  END
>  <smiles>  (150) 
O=C(NCC(=O)N1CCCC1C1CCNC1)c1ccc2cc(F)ccc2n1

>  <score_type>  (150) 
oracle

>  <origin>  (150) 
autodockgpu

>  <m_score__min__energy>  (150) 
-8.0399999999999991

>  <m_primary>  (150) 
energy

>  <rmsd>  (150) 
8.59231505655834

>  <m_score__min__rmsd>  (150) 
8.59231505655834

>  <meeko>  (150) 
{"free_energy": -7.25, "intermolecular_energy": -8.74, "internal_energy": -1.8, "cluster_size": 2, "cluster_id": 5, "rank_in_cluster": 2}

>  <energy>  (150) 
-6.32

>  <cluster_rmsd>  (150) 
0.0

>  <cluster>  (150) 
8

$$$$

     RDKit          3D

 50 53  0  0  0  0  0  0  0  0999 V2000
  140.5060   70.9690  221.6830 O   0  0  0  0  0  0  0  0  0  0  0  0
  140.2200   71.6720  222.7030 C   0  0  0  0  0  0  0  0  0  0  0  0
  139.8130   73.0250  222.5320 N   0  0  0  0  0  0  0  0  0  0  0  0
  139.7310   73.5770  221.2140 C   0  0  0  0  0  0  0  0  0  0  0  0
  141.0330   74.1920  220.7840 C   0  0  0  0  0  0  0  0  0  0  0  0
  141.5440   75.0610  221.5340 O   0  0  0  0  0  0  0  0  0  0  0  0
  141.6190   73.7660  219.5590 N   0  0  0  0  0  0  0  0  0  0  0  0
  141.2290   74.2090  218.2110 C   0  0  0  0  0  0  0  0  0  0  0  0
  141.9230   73.2910  217.2630 C   0  0  0  0  0  0  0  0  0  0  0  0
  142.4980   72.1690  218.0970 C   0  0  0  0  0  0  0  0  0  0  0  0
  142.6890   72.8330  219.4410 C   0  0  1  0  0  0  0  0  0  0  0  0
  144.0680   73.3920  219.5420 C   0  0  1  0  0  0  0  0  0  0  0  0
  144.6280   73.5310  220.9120 C   0  0  0  0  0  0  0  0  0  0  0  0
  146.1200   73.7060  220.5950 C   0  0  0  0  0  0  0  0  0  0  0  0
  146.3240   73.2080  219.2600 N   0  0  0  0  0  0  0  0  0  0  0  0
  145.1060   72.5150  218.8780 C   0  0  0  0  0  0  0  0  0  0  0  0
  140.3080   71.0990  224.0420 C   0  0  0  0  0  0  0  0  0  0  0  0
  140.7610   71.8830  225.0860 C   0  0  0  0  0  0  0  0  0  0  0  0
  140.8680   71.4040  226.3700 C   0  0  0  0  0  0  0  0  0  0  0  0
  140.5160   70.0990  226.6510 C   0  0  0  0  0  0  0  0  0  0  0  0
  140.6160   69.6050  227.9300 C   0  0  0  0  0  0  0  0  0  0  0  0
  140.2670   68.3140  228.2060 C   0  0  0  0  0  0  0  0  0  0  0  0
  140.3790   67.8630  229.4710 F   0  0  0  0  0  0  0  0  0  0  0  0
  139.8140   67.5310  227.1540 C   0  0  0  0  0  0  0  0  0  0  0  0
  139.7150   68.0340  225.8680 C   0  0  0  0  0  0  0  0  0  0  0  0
  140.0650   69.3390  225.5820 C   0  0  0  0  0  0  0  0  0  0  0  0
  139.9710   69.8360  224.3310 N   0  0  0  0  0  0  0  0  0  0  0  0
  139.5710   73.6300  223.3490 H   0  0  0  0  0  0  0  0  0  0  0  0
  139.4655   72.7759  220.5085 H   0  0  0  0  0  0  0  0  0  0  0  0
  138.9658   74.3672  221.2215 H   0  0  0  0  0  0  0  0  0  0  0  0
  140.1387   74.1366  218.0849 H   0  0  0  0  0  0  0  0  0  0  0  0
  141.5075   75.2584  218.0342 H   0  0  0  0  0  0  0  0  0  0  0  0
  141.2081   72.8911  216.5289 H   0  0  0  0  0  0  0  0  0  0  0  0
  142.7117   73.8168  216.7049 H   0  0  0  0  0  0  0  0  0  0  0  0
  141.7970   71.3241  218.1660 H   0  0  0  0  0  0  0  0  0  0  0  0
  143.4221   71.7402  217.6819 H   0  0  0  0  0  0  0  0  0  0  0  0
  142.6343   72.1472  220.2993 H   0  0  0  0  0  0  0  0  0  0  0  0
  143.9104   74.3728  219.0695 H   0  0  0  0  0  0  0  0  0  0  0  0
  144.2180   74.4106  221.4298 H   0  0  0  0  0  0  0  0  0  0  0  0
  144.4003   72.6912  221.5850 H   0  0  0  0  0  0  0  0  0  0  0  0
  146.3961   74.7694  220.6485 H   0  0  0  0  0  0  0  0  0  0  0  0
  146.7434   73.1604  221.3187 H   0  0  0  0  0  0  0  0  0  0  0  0
  146.4760   73.9640  218.5540 H   0  0  0  0  0  0  0  0  0  0  0  0
  144.9783   72.4910  217.7857 H   0  0  0  0  0  0  0  0  0  0  0  0
  145.0690   71.4566  219.1755 H   0  0  0  0  0  0  0  0  0  0  0  0
  141.0457   72.9259  224.8826 H   0  0  0  0  0  0  0  0  0  0  0  0
  141.2340   72.0603  227.1733 H   0  0  0  0  0  0  0  0  0  0  0  0
  140.9805   70.2557  228.7385 H   0  0  0  0  0  0  0  0  0  0  0  0
  139.5269   66.4866  227.3462 H   0  0  0  0  0  0  0  0  0  0  0  0
  139.3511   67.3827  225.0597 H   0  0  0  0  0  0  0  0  0  0  0  0
  1  2  2  0
  2  3  1  0
  3  4  1  0
  4  5  1  0
  5  6  2  0
  5  7  1  0
  7  8  1  0
  8  9  1  0
  9 10  1  0
 10 11  1  0
 11 12  1  0
 12 13  1  0
 13 14  1  0
 14 15  1  0
 15 16  1  0
  2 17  1  0
 17 18  2  0
 18 19  1  0
 19 20  2  0
 20 21  1  0
 21 22  2  0
 22 23  1  0
 22 24  1  0
 24 25  2  0
 25 26  1  0
 26 27  2  0
 11  7  1  0
 16 12  1  0
 27 17  1  0
 26 20  1  0
  3 28  1  0
  4 29  1  0
  4 30  1  0
  8 31  1  0
  8 32  1  0
  9 33  1  0
  9 34  1  0
 10 35  1  0
 10 36  1  0
 11 37  1  1
 12 38  1  6
 13 39  1  0
 13 40  1  0
 14 41  1  0
 14 42  1  0
 15 43  1  0
 16 44  1  0
 16 45  1  0
 18 46  1  0
 19 47  1  0
 21 48  1  0
 24 49  1  0
 25 50  1  0
M  END
>  <smiles>  (151) 
O=C(NCC(=O)N1CCCC1C1CCNC1)c1ccc2cc(F)ccc2n1

>  <score_type>  (151) 
oracle

>  <origin>  (151) 
autodockgpu

>  <m_score__min__energy>  (151) 
-8.7599999999999998

>  <m_primary>  (151) 
energy

>  <rmsd>  (151) 
3.4031120694419306

>  <m_score__min__rmsd>  (151) 
3.4031120694419306

>  <meeko>  (151) 
{"free_energy": -7.92, "intermolecular_energy": -9.41, "internal_energy": -1.32, "cluster_size": 35, "cluster_id": 1, "rank_in_cluster": 30}

>  <energy>  (151) 
-8.76

>  <cluster_rmsd>  (151) 
0.0

>  <cluster>  (151) 
1

$$$$

     RDKit          3D

 50 53  0  0  0  0  0  0  0  0999 V2000
  140.4370   73.5630  222.2990 O   0  0  0  0  0  0  0  0  0  0  0  0
  140.5370   72.2970  222.2690 C   0  0  0  0  0  0  0  0  0  0  0  0
  140.8490   71.6450  221.0430 N   0  0  0  0  0  0  0  0  0  0  0  0
  141.0440   72.4240  219.8580 C   0  0  0  0  0  0  0  0  0  0  0  0
  142.2880   72.0150  219.1200 C   0  0  0  0  0  0  0  0  0  0  0  0
  142.1580   71.2280  218.1490 O   0  0  0  0  0  0  0  0  0  0  0  0
  143.5410   72.5330  219.5510 N   0  0  0  0  0  0  0  0  0  0  0  0
  144.8660   72.0040  219.1950 C   0  0  0  0  0  0  0  0  0  0  0  0
  145.8360   72.6900  220.0970 C   0  0  0  0  0  0  0  0  0  0  0  0
  145.0130   73.4140  221.1380 C   0  0  0  0  0  0  0  0  0  0  0  0
  143.7140   73.6590  220.4070 C   0  0  1  0  0  0  0  0  0  0  0  0
  143.7460   74.9950  219.7440 C   0  0  1  0  0  0  0  0  0  0  0  0
  143.6790   75.0000  218.2590 C   0  0  0  0  0  0  0  0  0  0  0  0
  143.3120   76.4670  217.9950 C   0  0  0  0  0  0  0  0  0  0  0  0
  142.7730   76.9900  219.2220 N   0  0  0  0  0  0  0  0  0  0  0  0
  142.5580   75.8580  220.1040 C   0  0  0  0  0  0  0  0  0  0  0  0
  140.3360   71.5120  223.4830 C   0  0  0  0  0  0  0  0  0  0  0  0
  139.6730   70.3030  223.4050 C   0  0  0  0  0  0  0  0  0  0  0  0
  139.4500   69.5160  224.5110 C   0  0  0  0  0  0  0  0  0  0  0  0
  139.8960   69.9270  225.7510 C   0  0  0  0  0  0  0  0  0  0  0  0
  139.6810   69.1510  226.8660 C   0  0  0  0  0  0  0  0  0  0  0  0
  140.1230   69.5600  228.0920 C   0  0  0  0  0  0  0  0  0  0  0  0
  139.8950   68.7750  229.1630 F   0  0  0  0  0  0  0  0  0  0  0  0
  140.7880   70.7750  228.1640 C   0  0  0  0  0  0  0  0  0  0  0  0
  141.0010   71.5520  227.0370 C   0  0  0  0  0  0  0  0  0  0  0  0
  140.5580   71.1440  225.7950 C   0  0  0  0  0  0  0  0  0  0  0  0
  140.7620   71.8960  224.6930 N   0  0  0  0  0  0  0  0  0  0  0  0
  140.9390   70.6060  220.9840 H   0  0  0  0  0  0  0  0  0  0  0  0
  140.1762   72.2883  219.1958 H   0  0  0  0  0  0  0  0  0  0  0  0
  141.1534   73.4774  220.1553 H   0  0  0  0  0  0  0  0  0  0  0  0
  144.8990   70.9161  219.3542 H   0  0  0  0  0  0  0  0  0  0  0  0
  145.1018   72.1849  218.1359 H   0  0  0  0  0  0  0  0  0  0  0  0
  146.4948   71.9524  220.5785 H   0  0  0  0  0  0  0  0  0  0  0  0
  146.4751   73.3889  219.5374 H   0  0  0  0  0  0  0  0  0  0  0  0
  144.8570   72.7878  222.0288 H   0  0  0  0  0  0  0  0  0  0  0  0
  145.4872   74.3326  221.5141 H   0  0  0  0  0  0  0  0  0  0  0  0
  142.8307   73.7250  221.0593 H   0  0  0  0  0  0  0  0  0  0  0  0
  144.7183   75.3616  220.1050 H   0  0  0  0  0  0  0  0  0  0  0  0
  144.6477   74.7373  217.8088 H   0  0  0  0  0  0  0  0  0  0  0  0
  142.9762   74.2697  217.8314 H   0  0  0  0  0  0  0  0  0  0  0  0
  144.2080   77.0345  217.7031 H   0  0  0  0  0  0  0  0  0  0  0  0
  142.5810   76.5490  217.1771 H   0  0  0  0  0  0  0  0  0  0  0  0
  143.4250   77.6400  219.7180 H   0  0  0  0  0  0  0  0  0  0  0  0
  142.5804   76.1581  221.1620 H   0  0  0  0  0  0  0  0  0  0  0  0
  141.5819   75.3649  219.9855 H   0  0  0  0  0  0  0  0  0  0  0  0
  139.3110   69.9577  222.4253 H   0  0  0  0  0  0  0  0  0  0  0  0
  138.9165   68.5596  224.4073 H   0  0  0  0  0  0  0  0  0  0  0  0
  139.1488   68.1932  226.7696 H   0  0  0  0  0  0  0  0  0  0  0  0
  141.1547   71.1299  229.1385 H   0  0  0  0  0  0  0  0  0  0  0  0
  141.5322   72.5104  227.1336 H   0  0  0  0  0  0  0  0  0  0  0  0
  1  2  2  0
  2  3  1  0
  3  4  1  0
  4  5  1  0
  5  6  2  0
  5  7  1  0
  7  8  1  0
  8  9  1  0
  9 10  1  0
 10 11  1  0
 11 12  1  0
 12 13  1  0
 13 14  1  0
 14 15  1  0
 15 16  1  0
  2 17  1  0
 17 18  2  0
 18 19  1  0
 19 20  2  0
 20 21  1  0
 21 22  2  0
 22 23  1  0
 22 24  1  0
 24 25  2  0
 25 26  1  0
 26 27  2  0
 11  7  1  0
 16 12  1  0
 27 17  1  0
 26 20  1  0
  3 28  1  0
  4 29  1  0
  4 30  1  0
  8 31  1  0
  8 32  1  0
  9 33  1  0
  9 34  1  0
 10 35  1  0
 10 36  1  0
 11 37  1  1
 12 38  1  6
 13 39  1  0
 13 40  1  0
 14 41  1  0
 14 42  1  0
 15 43  1  0
 16 44  1  0
 16 45  1  0
 18 46  1  0
 19 47  1  0
 21 48  1  0
 24 49  1  0
 25 50  1  0
M  END
>  <smiles>  (152) 
O=C(NCC(=O)N1CCCC1C1CCNC1)c1ccc2cc(F)ccc2n1

>  <score_type>  (152) 
oracle

>  <origin>  (152) 
autodockgpu

>  <m_score__min__energy>  (152) 
-8.7599999999999998

>  <m_primary>  (152) 
energy

>  <rmsd>  (152) 
4.00150051269334

>  <m_score__min__rmsd>  (152) 
4.00150051269334

>  <meeko>  (152) 
{"free_energy": -7.75, "intermolecular_energy": -9.24, "internal_energy": -1.36, "cluster_size": 1, "cluster_id": 3, "rank_in_cluster": 1}

>  <energy>  (152) 
-8.72

>  <cluster_rmsd>  (152) 
0.19

>  <cluster>  (152) 
1

$$$$

     RDKit          3D

 50 53  0  0  0  0  0  0  0  0999 V2000
  140.7890   71.4260  221.2570 O   0  0  0  0  0  0  0  0  0  0  0  0
  140.3310   71.9680  222.3110 C   0  0  0  0  0  0  0  0  0  0  0  0
  139.9530   73.3400  222.2880 N   0  0  0  0  0  0  0  0  0  0  0  0
  140.0930   74.0920  221.0790 C   0  0  0  0  0  0  0  0  0  0  0  0
  141.1200   75.1810  221.2150 C   0  0  0  0  0  0  0  0  0  0  0  0
  141.1310   75.8440  222.2830 O   0  0  0  0  0  0  0  0  0  0  0  0
  142.0220   75.4100  220.1380 N   0  0  0  0  0  0  0  0  0  0  0  0
  142.5650   76.7120  219.7230 C   0  0  0  0  0  0  0  0  0  0  0  0
  143.2220   76.4790  218.4050 C   0  0  0  0  0  0  0  0  0  0  0  0
  142.8160   75.0920  217.9630 C   0  0  0  0  0  0  0  0  0  0  0  0
  142.5480   74.4010  219.2800 C   0  0  1  0  0  0  0  0  0  0  0  0
  143.7820   73.7090  219.7520 C   0  0  1  0  0  0  0  0  0  0  0  0
  144.7830   74.5480  220.4620 C   0  0  0  0  0  0  0  0  0  0  0  0
  145.6390   73.4660  221.1340 C   0  0  0  0  0  0  0  0  0  0  0  0
  144.8480   72.2630  221.1570 N   0  0  0  0  0  0  0  0  0  0  0  0
  143.4970   72.6400  220.7830 C   0  0  0  0  0  0  0  0  0  0  0  0
  140.1920   71.1920  223.5390 C   0  0  0  0  0  0  0  0  0  0  0  0
  139.5430   69.9740  223.5020 C   0  0  0  0  0  0  0  0  0  0  0  0
  139.3780   69.1950  224.6240 C   0  0  0  0  0  0  0  0  0  0  0  0
  139.8710   69.6250  225.8390 C   0  0  0  0  0  0  0  0  0  0  0  0
  139.7150   68.8580  226.9700 C   0  0  0  0  0  0  0  0  0  0  0  0
  140.2030   69.2850  228.1720 C   0  0  0  0  0  0  0  0  0  0  0  0
  140.0320   68.5070  229.2590 F   0  0  0  0  0  0  0  0  0  0  0  0
  140.8540   70.5100  228.2040 C   0  0  0  0  0  0  0  0  0  0  0  0
  141.0080   71.2780  227.0620 C   0  0  0  0  0  0  0  0  0  0  0  0
  140.5180   70.8510  225.8430 C   0  0  0  0  0  0  0  0  0  0  0  0
  140.6640   71.5950  224.7260 N   0  0  0  0  0  0  0  0  0  0  0  0
  139.5730   73.8160  223.1380 H   0  0  0  0  0  0  0  0  0  0  0  0
  140.3997   73.4123  220.2703 H   0  0  0  0  0  0  0  0  0  0  0  0
  139.1241   74.5618  220.8543 H   0  0  0  0  0  0  0  0  0  0  0  0
  141.7553   77.4497  219.6219 H   0  0  0  0  0  0  0  0  0  0  0  0
  143.2749   77.1083  220.4639 H   0  0  0  0  0  0  0  0  0  0  0  0
  142.8813   77.2261  217.6731 H   0  0  0  0  0  0  0  0  0  0  0  0
  144.3156   76.5673  218.4843 H   0  0  0  0  0  0  0  0  0  0  0  0
  141.9118   75.1218  217.3373 H   0  0  0  0  0  0  0  0  0  0  0  0
  143.5735   74.5865  217.3460 H   0  0  0  0  0  0  0  0  0  0  0  0
  141.8102   73.5870  219.2254 H   0  0  0  0  0  0  0  0  0  0  0  0
  144.1724   73.3425  218.7911 H   0  0  0  0  0  0  0  0  0  0  0  0
  145.3743   75.1542  219.7599 H   0  0  0  0  0  0  0  0  0  0  0  0
  144.3508   75.2837  221.1563 H   0  0  0  0  0  0  0  0  0  0  0  0
  146.5616   73.3014  220.5581 H   0  0  0  0  0  0  0  0  0  0  0  0
  145.9279   73.7674  222.1517 H   0  0  0  0  0  0  0  0  0  0  0  0
  145.1650   71.5450  220.4660 H   0  0  0  0  0  0  0  0  0  0  0  0
  142.9453   71.7936  220.3480 H   0  0  0  0  0  0  0  0  0  0  0  0
  142.8654   72.9696  221.6211 H   0  0  0  0  0  0  0  0  0  0  0  0
  139.1440   69.6139  222.5422 H   0  0  0  0  0  0  0  0  0  0  0  0
  138.8538   68.2306  224.5526 H   0  0  0  0  0  0  0  0  0  0  0  0
  139.1926   67.8921  226.9058 H   0  0  0  0  0  0  0  0  0  0  0  0
  141.2570   70.8796  229.1585 H   0  0  0  0  0  0  0  0  0  0  0  0
  141.5293   72.2445  227.1266 H   0  0  0  0  0  0  0  0  0  0  0  0
  1  2  2  0
  2  3  1  0
  3  4  1  0
  4  5  1  0
  5  6  2  0
  5  7  1  0
  7  8  1  0
  8  9  1  0
  9 10  1  0
 10 11  1  0
 11 12  1  0
 12 13  1  0
 13 14  1  0
 14 15  1  0
 15 16  1  0
  2 17  1  0
 17 18  2  0
 18 19  1  0
 19 20  2  0
 20 21  1  0
 21 22  2  0
 22 23  1  0
 22 24  1  0
 24 25  2  0
 25 26  1  0
 26 27  2  0
 11  7  1  0
 16 12  1  0
 27 17  1  0
 26 20  1  0
  3 28  1  0
  4 29  1  0
  4 30  1  0
  8 31  1  0
  8 32  1  0
  9 33  1  0
  9 34  1  0
 10 35  1  0
 10 36  1  0
 11 37  1  6
 12 38  1  6
 13 39  1  0
 13 40  1  0
 14 41  1  0
 14 42  1  0
 15 43  1  0
 16 44  1  0
 16 45  1  0
 18 46  1  0
 19 47  1  0
 21 48  1  0
 24 49  1  0
 25 50  1  0
M  END
>  <smiles>  (153) 
O=C(NCC(=O)N1CCCC1C1CCNC1)c1ccc2cc(F)ccc2n1

>  <score_type>  (153) 
oracle

>  <origin>  (153) 
autodockgpu

>  <m_score__min__energy>  (153) 
-8.7599999999999998

>  <m_primary>  (153) 
energy

>  <rmsd>  (153) 
2.3255580028670986

>  <m_score__min__rmsd>  (153) 
2.3255580028670986

>  <meeko>  (153) 
{"free_energy": -7.95, "intermolecular_energy": -9.44, "internal_energy": -1.51, "cluster_size": 35, "cluster_id": 1, "rank_in_cluster": 29}

>  <energy>  (153) 
-8.7

>  <cluster_rmsd>  (153) 
1.12

>  <cluster>  (153) 
1

$$$$

     RDKit          3D

 50 53  0  0  0  0  0  0  0  0999 V2000
  140.7660   71.2160  221.3340 O   0  0  0  0  0  0  0  0  0  0  0  0
  140.3220   71.7980  222.3730 C   0  0  0  0  0  0  0  0  0  0  0  0
  139.9750   73.1770  222.3120 N   0  0  0  0  0  0  0  0  0  0  0  0
  140.1310   73.8910  221.0810 C   0  0  0  0  0  0  0  0  0  0  0  0
  140.9960   75.1080  221.2480 C   0  0  0  0  0  0  0  0  0  0  0  0
  140.8380   75.8000  222.2860 O   0  0  0  0  0  0  0  0  0  0  0  0
  141.9430   75.4190  220.2320 N   0  0  0  0  0  0  0  0  0  0  0  0
  142.5090   76.7470  219.9520 C   0  0  0  0  0  0  0  0  0  0  0  0
  143.2200   76.6210  218.6470 C   0  0  0  0  0  0  0  0  0  0  0  0
  142.8250   75.2790  218.0730 C   0  0  0  0  0  0  0  0  0  0  0  0
  142.5000   74.4820  219.3140 C   0  0  1  0  0  0  0  0  0  0  0  0
  143.7100   73.7420  219.7770 C   0  0  1  0  0  0  0  0  0  0  0  0
  144.7510   74.5430  220.4740 C   0  0  0  0  0  0  0  0  0  0  0  0
  145.5690   73.4290  221.1410 C   0  0  0  0  0  0  0  0  0  0  0  0
  144.7310   72.2590  221.1770 N   0  0  0  0  0  0  0  0  0  0  0  0
  143.3930   72.6890  220.8140 C   0  0  0  0  0  0  0  0  0  0  0  0
  140.1670   71.0610  223.6230 C   0  0  0  0  0  0  0  0  0  0  0  0
  139.4990   69.8520  223.6190 C   0  0  0  0  0  0  0  0  0  0  0  0
  139.3190   69.1090  224.7620 C   0  0  0  0  0  0  0  0  0  0  0  0
  139.8140   69.5670  225.9660 C   0  0  0  0  0  0  0  0  0  0  0  0
  139.6430   68.8360  227.1190 C   0  0  0  0  0  0  0  0  0  0  0  0
  140.1330   69.2900  228.3090 C   0  0  0  0  0  0  0  0  0  0  0  0
  139.9460   68.5480  229.4180 F   0  0  0  0  0  0  0  0  0  0  0  0
  140.8020   70.5050  228.3080 C   0  0  0  0  0  0  0  0  0  0  0  0
  140.9720   71.2370  227.1440 C   0  0  0  0  0  0  0  0  0  0  0  0
  140.4790   70.7830  225.9370 C   0  0  0  0  0  0  0  0  0  0  0  0
  140.6410   71.4910  224.8000 N   0  0  0  0  0  0  0  0  0  0  0  0
  139.6070   73.6850  223.1480 H   0  0  0  0  0  0  0  0  0  0  0  0
  140.5940   73.2241  220.3387 H   0  0  0  0  0  0  0  0  0  0  0  0
  139.1358   74.2216  220.7489 H   0  0  0  0  0  0  0  0  0  0  0  0
  141.7077   77.4972  219.8803 H   0  0  0  0  0  0  0  0  0  0  0  0
  143.1890   77.0734  220.7527 H   0  0  0  0  0  0  0  0  0  0  0  0
  142.9142   77.4302  217.9675 H   0  0  0  0  0  0  0  0  0  0  0  0
  144.3098   76.6933  218.7782 H   0  0  0  0  0  0  0  0  0  0  0  0
  141.9472   75.3693  217.4162 H   0  0  0  0  0  0  0  0  0  0  0  0
  143.6046   74.8209  217.4466 H   0  0  0  0  0  0  0  0  0  0  0  0
  141.7618   73.6812  219.1597 H   0  0  0  0  0  0  0  0  0  0  0  0
  144.0757   73.3565  218.8138 H   0  0  0  0  0  0  0  0  0  0  0  0
  145.3592   75.1226  219.7640 H   0  0  0  0  0  0  0  0  0  0  0  0
  144.3560   75.2981  221.1696 H   0  0  0  0  0  0  0  0  0  0  0  0
  146.4781   73.2253  220.5561 H   0  0  0  0  0  0  0  0  0  0  0  0
  145.8799   73.7219  222.1547 H   0  0  0  0  0  0  0  0  0  0  0  0
  145.0110   71.5270  220.4840 H   0  0  0  0  0  0  0  0  0  0  0  0
  142.8038   71.8640  220.3872 H   0  0  0  0  0  0  0  0  0  0  0  0
  142.7835   73.0466  221.6569 H   0  0  0  0  0  0  0  0  0  0  0  0
  139.0972   69.4704  222.6688 H   0  0  0  0  0  0  0  0  0  0  0  0
  138.7810   68.1506  224.7167 H   0  0  0  0  0  0  0  0  0  0  0  0
  139.1063   67.8766  227.0813 H   0  0  0  0  0  0  0  0  0  0  0  0
  141.2069   70.8964  229.2529 H   0  0  0  0  0  0  0  0  0  0  0  0
  141.5089   72.1963  227.1822 H   0  0  0  0  0  0  0  0  0  0  0  0
  1  2  2  0
  2  3  1  0
  3  4  1  0
  4  5  1  0
  5  6  2  0
  5  7  1  0
  7  8  1  0
  8  9  1  0
  9 10  1  0
 10 11  1  0
 11 12  1  0
 12 13  1  0
 13 14  1  0
 14 15  1  0
 15 16  1  0
  2 17  1  0
 17 18  2  0
 18 19  1  0
 19 20  2  0
 20 21  1  0
 21 22  2  0
 22 23  1  0
 22 24  1  0
 24 25  2  0
 25 26  1  0
 26 27  2  0
 11  7  1  0
 16 12  1  0
 27 17  1  0
 26 20  1  0
  3 28  1  0
  4 29  1  0
  4 30  1  0
  8 31  1  0
  8 32  1  0
  9 33  1  0
  9 34  1  0
 10 35  1  0
 10 36  1  0
 11 37  1  6
 12 38  1  6
 13 39  1  0
 13 40  1  0
 14 41  1  0
 14 42  1  0
 15 43  1  0
 16 44  1  0
 16 45  1  0
 18 46  1  0
 19 47  1  0
 21 48  1  0
 24 49  1  0
 25 50  1  0
M  END
>  <smiles>  (154) 
O=C(NCC(=O)N1CCCC1C1CCNC1)c1ccc2cc(F)ccc2n1

>  <score_type>  (154) 
oracle

>  <origin>  (154) 
autodockgpu

>  <m_score__min__energy>  (154) 
-8.7599999999999998

>  <m_primary>  (154) 
energy

>  <rmsd>  (154) 
2.3141170339100117

>  <m_score__min__rmsd>  (154) 
2.3141170339100117

>  <meeko>  (154) 
{"free_energy": -7.89, "intermolecular_energy": -9.38, "internal_energy": -1.51, "cluster_size": 35, "cluster_id": 1, "rank_in_cluster": 31}

>  <energy>  (154) 
-8.69

>  <cluster_rmsd>  (154) 
0.15

>  <cluster>  (154) 
1

$$$$

     RDKit          3D

 50 53  0  0  0  0  0  0  0  0999 V2000
  140.0720   73.2340  222.7110 O   0  0  0  0  0  0  0  0  0  0  0  0
  140.0620   71.9680  222.6040 C   0  0  0  0  0  0  0  0  0  0  0  0
  140.0880   71.3720  221.3110 N   0  0  0  0  0  0  0  0  0  0  0  0
  140.1260   72.2060  220.1490 C   0  0  0  0  0  0  0  0  0  0  0  0
  141.5350   72.5500  219.7550 C   0  0  0  0  0  0  0  0  0  0  0  0
  142.2690   71.6190  219.3380 O   0  0  0  0  0  0  0  0  0  0  0  0
  141.9680   73.9010  219.8710 N   0  0  0  0  0  0  0  0  0  0  0  0
  141.4820   74.8860  220.8490 C   0  0  0  0  0  0  0  0  0  0  0  0
  142.0130   76.2050  220.4000 C   0  0  0  0  0  0  0  0  0  0  0  0
  142.5840   75.9870  219.0170 C   0  0  0  0  0  0  0  0  0  0  0  0
  142.9510   74.5220  219.0480 C   0  0  1  0  0  0  0  0  0  0  0  0
  144.3710   74.3610  219.4790 C   0  0  1  0  0  0  0  0  0  0  0  0
  144.5920   73.8180  220.8450 C   0  0  0  0  0  0  0  0  0  0  0  0
  146.0690   73.4110  220.7550 C   0  0  0  0  0  0  0  0  0  0  0  0
  146.3880   73.3050  219.3560 N   0  0  0  0  0  0  0  0  0  0  0  0
  145.1320   73.3670  218.6310 C   0  0  0  0  0  0  0  0  0  0  0  0
  140.0230   71.1270  223.7950 C   0  0  0  0  0  0  0  0  0  0  0  0
  139.3650   69.9140  223.7480 C   0  0  0  0  0  0  0  0  0  0  0  0
  139.2910   69.0750  224.8350 C   0  0  0  0  0  0  0  0  0  0  0  0
  139.8880   69.4370  226.0250 C   0  0  0  0  0  0  0  0  0  0  0  0
  139.8240   68.6090  227.1220 C   0  0  0  0  0  0  0  0  0  0  0  0
  140.4160   68.9690  228.2990 C   0  0  0  0  0  0  0  0  0  0  0  0
  140.3320   68.1330  229.3540 F   0  0  0  0  0  0  0  0  0  0  0  0
  141.0750   70.1880  228.3430 C   0  0  0  0  0  0  0  0  0  0  0  0
  141.1360   71.0180  227.2350 C   0  0  0  0  0  0  0  0  0  0  0  0
  140.5410   70.6600  226.0410 C   0  0  0  0  0  0  0  0  0  0  0  0
  140.5970   71.4630  224.9580 N   0  0  0  0  0  0  0  0  0  0  0  0
  140.0810   70.3340  221.1880 H   0  0  0  0  0  0  0  0  0  0  0  0
  139.6421   71.6768  219.3149 H   0  0  0  0  0  0  0  0  0  0  0  0
  139.5979   73.1423  220.3826 H   0  0  0  0  0  0  0  0  0  0  0  0
  140.3822   74.9010  220.8626 H   0  0  0  0  0  0  0  0  0  0  0  0
  141.8167   74.6419  221.8680 H   0  0  0  0  0  0  0  0  0  0  0  0
  141.2034   76.9489  220.3644 H   0  0  0  0  0  0  0  0  0  0  0  0
  142.7793   76.5831  221.0927 H   0  0  0  0  0  0  0  0  0  0  0  0
  141.8341   76.1935  218.2392 H   0  0  0  0  0  0  0  0  0  0  0  0
  143.4305   76.6484  218.7805 H   0  0  0  0  0  0  0  0  0  0  0  0
  142.9298   74.0273  218.0657 H   0  0  0  0  0  0  0  0  0  0  0  0
  144.7122   75.4037  219.3999 H   0  0  0  0  0  0  0  0  0  0  0  0
  144.4293   74.5846  221.6169 H   0  0  0  0  0  0  0  0  0  0  0  0
  143.9104   73.0021  221.1274 H   0  0  0  0  0  0  0  0  0  0  0  0
  146.7017   74.1749  221.2306 H   0  0  0  0  0  0  0  0  0  0  0  0
  146.2472   72.4572  221.2732 H   0  0  0  0  0  0  0  0  0  0  0  0
  146.9790   74.0930  219.0040 H   0  0  0  0  0  0  0  0  0  0  0  0
  145.2740   73.7346  217.6040 H   0  0  0  0  0  0  0  0  0  0  0  0
  144.6299   72.3969  218.5015 H   0  0  0  0  0  0  0  0  0  0  0  0
  138.8830   69.6080  222.8078 H   0  0  0  0  0  0  0  0  0  0  0  0
  138.7567   68.1168  224.7559 H   0  0  0  0  0  0  0  0  0  0  0  0
  139.2916   67.6491  227.0505 H   0  0  0  0  0  0  0  0  0  0  0  0
  141.5603   70.5034  229.2784 H   0  0  0  0  0  0  0  0  0  0  0  0
  141.6674   71.9784  227.3076 H   0  0  0  0  0  0  0  0  0  0  0  0
  1  2  2  0
  2  3  1  0
  3  4  1  0
  4  5  1  0
  5  6  2  0
  5  7  1  0
  7  8  1  0
  8  9  1  0
  9 10  1  0
 10 11  1  0
 11 12  1  0
 12 13  1  0
 13 14  1  0
 14 15  1  0
 15 16  1  0
  2 17  1  0
 17 18  2  0
 18 19  1  0
 19 20  2  0
 20 21  1  0
 21 22  2  0
 22 23  1  0
 22 24  1  0
 24 25  2  0
 25 26  1  0
 26 27  2  0
 11  7  1  0
 16 12  1  0
 27 17  1  0
 26 20  1  0
  3 28  1  0
  4 29  1  0
  4 30  1  0
  8 31  1  0
  8 32  1  0
  9 33  1  0
  9 34  1  0
 10 35  1  0
 10 36  1  0
 11 37  1  6
 12 38  1  1
 13 39  1  0
 13 40  1  0
 14 41  1  0
 14 42  1  0
 15 43  1  0
 16 44  1  0
 16 45  1  0
 18 46  1  0
 19 47  1  0
 21 48  1  0
 24 49  1  0
 25 50  1  0
M  END
>  <smiles>  (155) 
O=C(NCC(=O)N1CCCC1C1CCNC1)c1ccc2cc(F)ccc2n1

>  <score_type>  (155) 
oracle

>  <origin>  (155) 
autodockgpu

>  <m_score__min__energy>  (155) 
-8.7599999999999998

>  <m_primary>  (155) 
energy

>  <rmsd>  (155) 
2.4692022418014252

>  <m_score__min__rmsd>  (155) 
2.4692022418014252

>  <meeko>  (155) 
{"free_energy": -8.34, "intermolecular_energy": -9.83, "internal_energy": -1.25, "cluster_size": 35, "cluster_id": 1, "rank_in_cluster": 17}

>  <energy>  (155) 
-8.68

>  <cluster_rmsd>  (155) 
1.12

>  <cluster>  (155) 
1

$$$$

     RDKit          3D

 50 53  0  0  0  0  0  0  0  0999 V2000
  139.6010   74.9360  221.9910 O   0  0  0  0  0  0  0  0  0  0  0  0
  140.7970   75.2510  221.7020 C   0  0  0  0  0  0  0  0  0  0  0  0
  141.2310   76.5960  221.8730 N   0  0  0  0  0  0  0  0  0  0  0  0
  140.3140   77.5760  222.3690 C   0  0  0  0  0  0  0  0  0  0  0  0
  141.0260   78.7920  222.8930 C   0  0  0  0  0  0  0  0  0  0  0  0
  141.4360   78.7620  224.0810 O   0  0  0  0  0  0  0  0  0  0  0  0
  141.1990   79.9090  222.0290 N   0  0  0  0  0  0  0  0  0  0  0  0
  141.7650   81.2140  222.4020 C   0  0  0  0  0  0  0  0  0  0  0  0
  141.4820   82.1250  221.2550 C   0  0  0  0  0  0  0  0  0  0  0  0
  140.5250   81.3860  220.3480 C   0  0  0  0  0  0  0  0  0  0  0  0
  140.8490   79.9410  220.6480 C   0  0  1  0  0  0  0  0  0  0  0  0
  141.8790   79.4400  219.6920 C   0  0  1  0  0  0  0  0  0  0  0  0
  141.8130   77.9970  219.3410 C   0  0  0  0  0  0  0  0  0  0  0  0
  142.6930   77.9680  218.0850 C   0  0  0  0  0  0  0  0  0  0  0  0
  142.7680   79.3190  217.5950 N   0  0  0  0  0  0  0  0  0  0  0  0
  141.7790   80.0880  218.3290 C   0  0  0  0  0  0  0  0  0  0  0  0
  141.7240   74.2440  221.1960 C   0  0  0  0  0  0  0  0  0  0  0  0
  141.3020   72.9350  221.0730 C   0  0  0  0  0  0  0  0  0  0  0  0
  142.1260   71.9390  220.6040 C   0  0  0  0  0  0  0  0  0  0  0  0
  143.4230   72.2340  220.2370 C   0  0  0  0  0  0  0  0  0  0  0  0
  144.2600   71.2490  219.7660 C   0  0  0  0  0  0  0  0  0  0  0  0
  145.5430   71.5430  219.4030 C   0  0  0  0  0  0  0  0  0  0  0  0
  146.3350   70.5530  218.9460 F   0  0  0  0  0  0  0  0  0  0  0  0
  145.9630   72.8590  219.5300 C   0  0  0  0  0  0  0  0  0  0  0  0
  145.1160   73.8460  220.0050 C   0  0  0  0  0  0  0  0  0  0  0  0
  143.8160   73.5560  220.3720 C   0  0  0  0  0  0  0  0  0  0  0  0
  142.9860   74.5130  220.8360 N   0  0  0  0  0  0  0  0  0  0  0  0
  142.2080   76.8890  221.6440 H   0  0  0  0  0  0  0  0  0  0  0  0
  139.6425   77.8807  221.5528 H   0  0  0  0  0  0  0  0  0  0  0  0
  139.7489   77.1265  223.1988 H   0  0  0  0  0  0  0  0  0  0  0  0
  141.2860   81.5913  223.3175 H   0  0  0  0  0  0  0  0  0  0  0  0
  142.8438   81.1433  222.6051 H   0  0  0  0  0  0  0  0  0  0  0  0
  141.0220   83.0574  221.6144 H   0  0  0  0  0  0  0  0  0  0  0  0
  142.4063   82.3953  220.7234 H   0  0  0  0  0  0  0  0  0  0  0  0
  139.4793   81.6198  220.5968 H   0  0  0  0  0  0  0  0  0  0  0  0
  140.6318   81.6502  219.2856 H   0  0  0  0  0  0  0  0  0  0  0  0
  140.0101   79.2457  220.4971 H   0  0  0  0  0  0  0  0  0  0  0  0
  142.7923   79.6754  220.2582 H   0  0  0  0  0  0  0  0  0  0  0  0
  142.2278   77.3661  220.1409 H   0  0  0  0  0  0  0  0  0  0  0  0
  140.7941   77.6097  219.1931 H   0  0  0  0  0  0  0  0  0  0  0  0
  143.6989   77.6006  218.3364 H   0  0  0  0  0  0  0  0  0  0  0  0
  142.2699   77.2963  217.3236 H   0  0  0  0  0  0  0  0  0  0  0  0
  143.6940   79.7730  217.7690 H   0  0  0  0  0  0  0  0  0  0  0  0
  142.0416   81.1555  218.3670 H   0  0  0  0  0  0  0  0  0  0  0  0
  140.7709   80.0753  217.8891 H   0  0  0  0  0  0  0  0  0  0  0  0
  140.2712   72.6802  221.3601 H   0  0  0  0  0  0  0  0  0  0  0  0
  141.7515   70.9080  220.5215 H   0  0  0  0  0  0  0  0  0  0  0  0
  143.8925   70.2157  219.6811 H   0  0  0  0  0  0  0  0  0  0  0  0
  146.9923   73.1244  219.2469 H   0  0  0  0  0  0  0  0  0  0  0  0
  145.4845   74.8788  220.0917 H   0  0  0  0  0  0  0  0  0  0  0  0
  1  2  2  0
  2  3  1  0
  3  4  1  0
  4  5  1  0
  5  6  2  0
  5  7  1  0
  7  8  1  0
  8  9  1  0
  9 10  1  0
 10 11  1  0
 11 12  1  0
 12 13  1  0
 13 14  1  0
 14 15  1  0
 15 16  1  0
  2 17  1  0
 17 18  2  0
 18 19  1  0
 19 20  2  0
 20 21  1  0
 21 22  2  0
 22 23  1  0
 22 24  1  0
 24 25  2  0
 25 26  1  0
 26 27  2  0
 11  7  1  0
 16 12  1  0
 27 17  1  0
 26 20  1  0
  3 28  1  0
  4 29  1  0
  4 30  1  0
  8 31  1  0
  8 32  1  0
  9 33  1  0
  9 34  1  0
 10 35  1  0
 10 36  1  0
 11 37  1  1
 12 38  1  1
 13 39  1  0
 13 40  1  0
 14 41  1  0
 14 42  1  0
 15 43  1  0
 16 44  1  0
 16 45  1  0
 18 46  1  0
 19 47  1  0
 21 48  1  0
 24 49  1  0
 25 50  1  0
M  END
>  <smiles>  (156) 
O=C(NCC(=O)N1CCCC1C1CCNC1)c1ccc2cc(F)ccc2n1

>  <score_type>  (156) 
oracle

>  <origin>  (156) 
autodockgpu

>  <m_score__min__energy>  (156) 
-8.7599999999999998

>  <m_primary>  (156) 
energy

>  <rmsd>  (156) 
6.730073398752609

>  <m_score__min__rmsd>  (156) 
6.730073398752609

>  <meeko>  (156) 
{"free_energy": -7.04, "intermolecular_energy": -8.53, "internal_energy": -1.55, "cluster_size": 1, "cluster_id": 6, "rank_in_cluster": 1}

>  <energy>  (156) 
-8.66

>  <cluster_rmsd>  (156) 
0.2

>  <cluster>  (156) 
1

$$$$

     RDKit          3D

 50 53  0  0  0  0  0  0  0  0999 V2000
  141.4120   71.9440  221.4330 O   0  0  0  0  0  0  0  0  0  0  0  0
  140.5920   72.3210  222.3280 C   0  0  0  0  0  0  0  0  0  0  0  0
  139.8800   73.5420  222.1600 N   0  0  0  0  0  0  0  0  0  0  0  0
  140.0960   74.3290  220.9840 C   0  0  0  0  0  0  0  0  0  0  0  0
  141.1590   75.3710  221.1970 C   0  0  0  0  0  0  0  0  0  0  0  0
  141.2800   75.8550  222.3510 O   0  0  0  0  0  0  0  0  0  0  0  0
  141.9700   75.7560  220.0930 N   0  0  0  0  0  0  0  0  0  0  0  0
  142.2120   77.1330  219.6350 C   0  0  0  0  0  0  0  0  0  0  0  0
  142.8780   77.0090  218.3060 C   0  0  0  0  0  0  0  0  0  0  0  0
  142.7710   75.5550  217.9070 C   0  0  0  0  0  0  0  0  0  0  0  0
  142.6830   74.8600  219.2460 C   0  0  1  0  0  0  0  0  0  0  0  0
  144.0470   74.4620  219.7040 C   0  0  1  0  0  0  0  0  0  0  0  0
  144.1110   73.5030  220.8380 C   0  0  0  0  0  0  0  0  0  0  0  0
  145.5670   73.0290  220.7290 C   0  0  0  0  0  0  0  0  0  0  0  0
  146.0100   73.3430  219.3950 N   0  0  0  0  0  0  0  0  0  0  0  0
  144.8310   73.7270  218.6400 C   0  0  0  0  0  0  0  0  0  0  0  0
  140.3800   71.5110  223.5230 C   0  0  0  0  0  0  0  0  0  0  0  0
  139.6960   70.3150  223.4190 C   0  0  0  0  0  0  0  0  0  0  0  0
  139.4620   69.5060  224.5060 C   0  0  0  0  0  0  0  0  0  0  0  0
  139.9180   69.8800  225.7540 C   0  0  0  0  0  0  0  0  0  0  0  0
  139.6920   69.0820  226.8510 C   0  0  0  0  0  0  0  0  0  0  0  0
  140.1440   69.4540  228.0850 C   0  0  0  0  0  0  0  0  0  0  0  0
  139.9040   68.6480  229.1380 F   0  0  0  0  0  0  0  0  0  0  0  0
  140.8290   70.6560  228.1840 C   0  0  0  0  0  0  0  0  0  0  0  0
  141.0530   71.4550  227.0760 C   0  0  0  0  0  0  0  0  0  0  0  0
  140.6000   71.0850  225.8250 C   0  0  0  0  0  0  0  0  0  0  0  0
  140.8150   71.8590  224.7410 N   0  0  0  0  0  0  0  0  0  0  0  0
  139.1990   73.8810  222.8760 H   0  0  0  0  0  0  0  0  0  0  0  0
  140.4071   73.6655  220.1637 H   0  0  0  0  0  0  0  0  0  0  0  0
  139.1555   74.8448  220.7402 H   0  0  0  0  0  0  0  0  0  0  0  0
  141.2608   77.6768  219.5374 H   0  0  0  0  0  0  0  0  0  0  0  0
  142.8341   77.6932  220.3485 H   0  0  0  0  0  0  0  0  0  0  0  0
  142.3703   77.6447  217.5656 H   0  0  0  0  0  0  0  0  0  0  0  0
  143.9284   77.3319  218.3555 H   0  0  0  0  0  0  0  0  0  0  0  0
  141.8696   75.3727  217.3034 H   0  0  0  0  0  0  0  0  0  0  0  0
  143.6075   75.2063  217.2836 H   0  0  0  0  0  0  0  0  0  0  0  0
  142.1361   73.9057  219.2281 H   0  0  0  0  0  0  0  0  0  0  0  0
  144.4481   75.4467  219.9859 H   0  0  0  0  0  0  0  0  0  0  0  0
  143.9175   73.9998  221.8002 H   0  0  0  0  0  0  0  0  0  0  0  0
  143.3642   72.6964  220.7962 H   0  0  0  0  0  0  0  0  0  0  0  0
  146.1916   73.5522  221.4681 H   0  0  0  0  0  0  0  0  0  0  0  0
  145.6457   71.9497  220.9264 H   0  0  0  0  0  0  0  0  0  0  0  0
  146.6710   74.1520  219.3570 H   0  0  0  0  0  0  0  0  0  0  0  0
  145.0860   74.3853  217.7964 H   0  0  0  0  0  0  0  0  0  0  0  0
  144.2936   72.8885  218.1729 H   0  0  0  0  0  0  0  0  0  0  0  0
  139.3258   69.9991  222.4325 H   0  0  0  0  0  0  0  0  0  0  0  0
  138.9119   68.5616  224.3811 H   0  0  0  0  0  0  0  0  0  0  0  0
  139.1426   68.1363  226.7336 H   0  0  0  0  0  0  0  0  0  0  0  0
  141.2029   70.9819  229.1658 H   0  0  0  0  0  0  0  0  0  0  0  0
  141.6014   72.4012  227.1941 H   0  0  0  0  0  0  0  0  0  0  0  0
  1  2  2  0
  2  3  1  0
  3  4  1  0
  4  5  1  0
  5  6  2  0
  5  7  1  0
  7  8  1  0
  8  9  1  0
  9 10  1  0
 10 11  1  0
 11 12  1  0
 12 13  1  0
 13 14  1  0
 14 15  1  0
 15 16  1  0
  2 17  1  0
 17 18  2  0
 18 19  1  0
 19 20  2  0
 20 21  1  0
 21 22  2  0
 22 23  1  0
 22 24  1  0
 24 25  2  0
 25 26  1  0
 26 27  2  0
 11  7  1  0
 16 12  1  0
 27 17  1  0
 26 20  1  0
  3 28  1  0
  4 29  1  0
  4 30  1  0
  8 31  1  0
  8 32  1  0
  9 33  1  0
  9 34  1  0
 10 35  1  0
 10 36  1  0
 11 37  1  6
 12 38  1  1
 13 39  1  0
 13 40  1  0
 14 41  1  0
 14 42  1  0
 15 43  1  0
 16 44  1  0
 16 45  1  0
 18 46  1  0
 19 47  1  0
 21 48  1  0
 24 49  1  0
 25 50  1  0
M  END
>  <smiles>  (157) 
O=C(NCC(=O)N1CCCC1C1CCNC1)c1ccc2cc(F)ccc2n1

>  <score_type>  (157) 
oracle

>  <origin>  (157) 
autodockgpu

>  <m_score__min__energy>  (157) 
-8.7599999999999998

>  <m_primary>  (157) 
energy

>  <rmsd>  (157) 
2.2883714773186328

>  <m_score__min__rmsd>  (157) 
2.2883714773186328

>  <meeko>  (157) 
{"free_energy": -8.72, "intermolecular_energy": -10.21, "internal_energy": -1.44, "cluster_size": 35, "cluster_id": 1, "rank_in_cluster": 2}

>  <energy>  (157) 
-8.65

>  <cluster_rmsd>  (157) 
1.13

>  <cluster>  (157) 
1

$$$$

     RDKit          3D

 50 53  0  0  0  0  0  0  0  0999 V2000
  141.2520   72.3530  221.5850 O   0  0  0  0  0  0  0  0  0  0  0  0
  140.3540   72.5160  222.4680 C   0  0  0  0  0  0  0  0  0  0  0  0
  139.4370   73.5980  222.3450 N   0  0  0  0  0  0  0  0  0  0  0  0
  139.5390   74.4880  221.2290 C   0  0  0  0  0  0  0  0  0  0  0  0
  139.1220   75.8860  221.5900 C   0  0  0  0  0  0  0  0  0  0  0  0
  138.1270   76.0220  222.3460 O   0  0  0  0  0  0  0  0  0  0  0  0
  139.8650   76.9790  221.0630 N   0  0  0  0  0  0  0  0  0  0  0  0
  139.4490   77.8580  219.9590 C   0  0  0  0  0  0  0  0  0  0  0  0
  140.6570   78.6530  219.5930 C   0  0  0  0  0  0  0  0  0  0  0  0
  141.8200   78.0260  220.3270 C   0  0  0  0  0  0  0  0  0  0  0  0
  141.1450   77.4010  221.5250 C   0  0  1  0  0  0  0  0  0  0  0  0
  141.1520   78.3570  222.6710 C   0  0  1  0  0  0  0  0  0  0  0  0
  142.1750   79.4350  222.6280 C   0  0  0  0  0  0  0  0  0  0  0  0
  141.6120   80.4050  223.6760 C   0  0  0  0  0  0  0  0  0  0  0  0
  140.2200   80.0760  223.8440 N   0  0  0  0  0  0  0  0  0  0  0  0
  139.8730   79.1570  222.7760 C   0  0  0  0  0  0  0  0  0  0  0  0
  140.2580   71.6040  223.6020 C   0  0  0  0  0  0  0  0  0  0  0  0
  139.6740   70.3650  223.4280 C   0  0  0  0  0  0  0  0  0  0  0  0
  139.5520   69.4590  224.4560 C   0  0  0  0  0  0  0  0  0  0  0  0
  140.0250   69.7770  225.7140 C   0  0  0  0  0  0  0  0  0  0  0  0
  139.9120   68.8820  226.7520 C   0  0  0  0  0  0  0  0  0  0  0  0
  140.3800   69.1990  227.9960 C   0  0  0  0  0  0  0  0  0  0  0  0
  140.2510   68.2980  228.9900 F   0  0  0  0  0  0  0  0  0  0  0  0
  140.9650   70.4440  228.1650 C   0  0  0  0  0  0  0  0  0  0  0  0
  141.0760   71.3410  227.1160 C   0  0  0  0  0  0  0  0  0  0  0  0
  140.6060   71.0270  225.8560 C   0  0  0  0  0  0  0  0  0  0  0  0
  140.7110   71.8960  224.8290 N   0  0  0  0  0  0  0  0  0  0  0  0
  138.6850   73.7610  223.0540 H   0  0  0  0  0  0  0  0  0  0  0  0
  140.5828   74.5061  220.8823 H   0  0  0  0  0  0  0  0  0  0  0  0
  138.8661   74.1238  220.4387 H   0  0  0  0  0  0  0  0  0  0  0  0
  139.1099   77.2598  219.1004 H   0  0  0  0  0  0  0  0  0  0  0  0
  138.6115   78.5076  220.2532 H   0  0  0  0  0  0  0  0  0  0  0  0
  140.8254   78.6106  218.5068 H   0  0  0  0  0  0  0  0  0  0  0  0
  140.5360   79.7111  219.8682 H   0  0  0  0  0  0  0  0  0  0  0  0
  142.3180   77.2650  219.7082 H   0  0  0  0  0  0  0  0  0  0  0  0
  142.6118   78.7423  220.5914 H   0  0  0  0  0  0  0  0  0  0  0  0
  141.6641   76.5203  221.9310 H   0  0  0  0  0  0  0  0  0  0  0  0
  141.3370   77.6579  223.4999 H   0  0  0  0  0  0  0  0  0  0  0  0
  143.1693   79.0616  222.9143 H   0  0  0  0  0  0  0  0  0  0  0  0
  142.3295   79.8778  221.6330 H   0  0  0  0  0  0  0  0  0  0  0  0
  142.1471   80.2844  224.6295 H   0  0  0  0  0  0  0  0  0  0  0  0
  141.7339   81.4492  223.3523 H   0  0  0  0  0  0  0  0  0  0  0  0
  140.0160   79.5860  224.7440 H   0  0  0  0  0  0  0  0  0  0  0  0
  139.0181   78.5212  223.0497 H   0  0  0  0  0  0  0  0  0  0  0  0
  139.5583   79.6414  221.8399 H   0  0  0  0  0  0  0  0  0  0  0  0
  139.2930   70.0929  222.4326 H   0  0  0  0  0  0  0  0  0  0  0  0
  139.0784   68.4826  224.2763 H   0  0  0  0  0  0  0  0  0  0  0  0
  139.4411   67.9030  226.5794 H   0  0  0  0  0  0  0  0  0  0  0  0
  141.3502   70.7262  229.1559 H   0  0  0  0  0  0  0  0  0  0  0  0
  141.5465   72.3201  227.2892 H   0  0  0  0  0  0  0  0  0  0  0  0
  1  2  2  0
  2  3  1  0
  3  4  1  0
  4  5  1  0
  5  6  2  0
  5  7  1  0
  7  8  1  0
  8  9  1  0
  9 10  1  0
 10 11  1  0
 11 12  1  0
 12 13  1  0
 13 14  1  0
 14 15  1  0
 15 16  1  0
  2 17  1  0
 17 18  2  0
 18 19  1  0
 19 20  2  0
 20 21  1  0
 21 22  2  0
 22 23  1  0
 22 24  1  0
 24 25  2  0
 25 26  1  0
 26 27  2  0
 11  7  1  0
 16 12  1  0
 27 17  1  0
 26 20  1  0
  3 28  1  0
  4 29  1  0
  4 30  1  0
  8 31  1  0
  8 32  1  0
  9 33  1  0
  9 34  1  0
 10 35  1  0
 10 36  1  0
 11 37  1  1
 12 38  1  1
 13 39  1  0
 13 40  1  0
 14 41  1  0
 14 42  1  0
 15 43  1  0
 16 44  1  0
 16 45  1  0
 18 46  1  0
 19 47  1  0
 21 48  1  0
 24 49  1  0
 25 50  1  0
M  END
>  <smiles>  (158) 
O=C(NCC(=O)N1CCCC1C1CCNC1)c1ccc2cc(F)ccc2n1

>  <score_type>  (158) 
oracle

>  <origin>  (158) 
autodockgpu

>  <m_score__min__energy>  (158) 
-8.7599999999999998

>  <m_primary>  (158) 
energy

>  <rmsd>  (158) 
1.9713185876920953

>  <m_score__min__rmsd>  (158) 
1.9713185876920953

>  <meeko>  (158) 
{"free_energy": -7.91, "intermolecular_energy": -9.4, "internal_energy": -1.32, "cluster_size": 11, "cluster_id": 2, "rank_in_cluster": 5}

>  <energy>  (158) 
-8.61

>  <cluster_rmsd>  (158) 
0.32

>  <cluster>  (158) 
1

$$$$

     RDKit          3D

 50 53  0  0  0  0  0  0  0  0999 V2000
  141.3100   72.0310  221.4140 O   0  0  0  0  0  0  0  0  0  0  0  0
  140.4210   72.3320  222.2700 C   0  0  0  0  0  0  0  0  0  0  0  0
  139.5930   73.4690  222.0520 N   0  0  0  0  0  0  0  0  0  0  0  0
  139.7730   74.2580  220.8710 C   0  0  0  0  0  0  0  0  0  0  0  0
  141.0860   74.9900  220.8830 C   0  0  0  0  0  0  0  0  0  0  0  0
  141.4740   75.4760  221.9760 O   0  0  0  0  0  0  0  0  0  0  0  0
  141.8210   75.0970  219.6690 N   0  0  0  0  0  0  0  0  0  0  0  0
  141.8480   76.2630  218.7730 C   0  0  0  0  0  0  0  0  0  0  0  0
  142.5150   75.8000  217.5220 C   0  0  0  0  0  0  0  0  0  0  0  0
  142.6260   74.2960  217.6270 C   0  0  0  0  0  0  0  0  0  0  0  0
  142.6550   74.0800  219.1220 C   0  0  1  0  0  0  0  0  0  0  0  0
  144.0670   74.0510  219.6060 C   0  0  1  0  0  0  0  0  0  0  0  0
  144.3270   73.2730  220.8460 C   0  0  0  0  0  0  0  0  0  0  0  0
  145.8530   73.1250  220.7750 C   0  0  0  0  0  0  0  0  0  0  0  0
  146.2330   73.3670  219.4080 N   0  0  0  0  0  0  0  0  0  0  0  0
  145.0080   73.3870  218.6280 C   0  0  0  0  0  0  0  0  0  0  0  0
  140.2460   71.5210  223.4700 C   0  0  0  0  0  0  0  0  0  0  0  0
  139.5760   70.3170  223.3830 C   0  0  0  0  0  0  0  0  0  0  0  0
  139.3770   69.5070  224.4770 C   0  0  0  0  0  0  0  0  0  0  0  0
  139.8550   69.8890  225.7130 C   0  0  0  0  0  0  0  0  0  0  0  0
  139.6650   69.0900  226.8160 C   0  0  0  0  0  0  0  0  0  0  0  0
  140.1400   69.4700  228.0400 C   0  0  0  0  0  0  0  0  0  0  0  0
  139.9340   68.6620  229.0990 F   0  0  0  0  0  0  0  0  0  0  0  0
  140.8120   70.6800  228.1220 C   0  0  0  0  0  0  0  0  0  0  0  0
  141.0000   71.4810  227.0070 C   0  0  0  0  0  0  0  0  0  0  0  0
  140.5240   71.1020  225.7680 C   0  0  0  0  0  0  0  0  0  0  0  0
  140.7040   71.8770  224.6780 N   0  0  0  0  0  0  0  0  0  0  0  0
  138.8520   73.7450  222.7360 H   0  0  0  0  0  0  0  0  0  0  0  0
  139.7423   73.5964  219.9928 H   0  0  0  0  0  0  0  0  0  0  0  0
  138.9659   75.0044  220.8323 H   0  0  0  0  0  0  0  0  0  0  0  0
  140.8247   76.6041  218.5576 H   0  0  0  0  0  0  0  0  0  0  0  0
  142.3834   77.1098  219.2272 H   0  0  0  0  0  0  0  0  0  0  0  0
  141.9115   76.0763  216.6448 H   0  0  0  0  0  0  0  0  0  0  0  0
  143.5048   76.2649  217.4031 H   0  0  0  0  0  0  0  0  0  0  0  0
  141.7577   73.7994  217.1693 H   0  0  0  0  0  0  0  0  0  0  0  0
  143.5005   73.8809  217.1045 H   0  0  0  0  0  0  0  0  0  0  0  0
  142.2588   73.1072  219.4488 H   0  0  0  0  0  0  0  0  0  0  0  0
  144.2359   75.1266  219.7627 H   0  0  0  0  0  0  0  0  0  0  0  0
  144.0149   73.8259  221.7442 H   0  0  0  0  0  0  0  0  0  0  0  0
  143.7788   72.3216  220.9112 H   0  0  0  0  0  0  0  0  0  0  0  0
  146.3355   73.8588  221.4374 H   0  0  0  0  0  0  0  0  0  0  0  0
  146.1670   72.1219  221.0994 H   0  0  0  0  0  0  0  0  0  0  0  0
  146.6980   74.2920  219.2640 H   0  0  0  0  0  0  0  0  0  0  0  0
  145.1221   73.9798  217.7085 H   0  0  0  0  0  0  0  0  0  0  0  0
  144.6763   72.4006  218.2717 H   0  0  0  0  0  0  0  0  0  0  0  0
  139.1881   69.9944  222.4055 H   0  0  0  0  0  0  0  0  0  0  0  0
  138.8369   68.5552  224.3660 H   0  0  0  0  0  0  0  0  0  0  0  0
  139.1260   68.1367  226.7123 H   0  0  0  0  0  0  0  0  0  0  0  0
  141.2049   71.0117  229.0944 H   0  0  0  0  0  0  0  0  0  0  0  0
  141.5376   72.4350  227.1110 H   0  0  0  0  0  0  0  0  0  0  0  0
  1  2  2  0
  2  3  1  0
  3  4  1  0
  4  5  1  0
  5  6  2  0
  5  7  1  0
  7  8  1  0
  8  9  1  0
  9 10  1  0
 10 11  1  0
 11 12  1  0
 12 13  1  0
 13 14  1  0
 14 15  1  0
 15 16  1  0
  2 17  1  0
 17 18  2  0
 18 19  1  0
 19 20  2  0
 20 21  1  0
 21 22  2  0
 22 23  1  0
 22 24  1  0
 24 25  2  0
 25 26  1  0
 26 27  2  0
 11  7  1  0
 16 12  1  0
 27 17  1  0
 26 20  1  0
  3 28  1  0
  4 29  1  0
  4 30  1  0
  8 31  1  0
  8 32  1  0
  9 33  1  0
  9 34  1  0
 10 35  1  0
 10 36  1  0
 11 37  1  6
 12 38  1  1
 13 39  1  0
 13 40  1  0
 14 41  1  0
 14 42  1  0
 15 43  1  0
 16 44  1  0
 16 45  1  0
 18 46  1  0
 19 47  1  0
 21 48  1  0
 24 49  1  0
 25 50  1  0
M  END
>  <smiles>  (159) 
O=C(NCC(=O)N1CCCC1C1CCNC1)c1ccc2cc(F)ccc2n1

>  <score_type>  (159) 
oracle

>  <origin>  (159) 
autodockgpu

>  <m_score__min__energy>  (159) 
-8.7599999999999998

>  <m_primary>  (159) 
energy

>  <rmsd>  (159) 
2.2321945406314745

>  <m_score__min__rmsd>  (159) 
2.2321945406314745

>  <meeko>  (159) 
{"free_energy": -8.53, "intermolecular_energy": -10.02, "internal_energy": -1.41, "cluster_size": 35, "cluster_id": 1, "rank_in_cluster": 12}

>  <energy>  (159) 
-8.55

>  <cluster_rmsd>  (159) 
0.34

>  <cluster>  (159) 
1

$$$$

     RDKit          3D

 50 53  0  0  0  0  0  0  0  0999 V2000
  139.5660   70.8510  221.4120 O   0  0  0  0  0  0  0  0  0  0  0  0
  139.7190   71.4380  222.5280 C   0  0  0  0  0  0  0  0  0  0  0  0
  139.8210   72.8570  222.5680 N   0  0  0  0  0  0  0  0  0  0  0  0
  139.7490   73.6050  221.3500 C   0  0  0  0  0  0  0  0  0  0  0  0
  141.0210   73.5020  220.5560 C   0  0  0  0  0  0  0  0  0  0  0  0
  141.4170   72.3540  220.2320 O   0  0  0  0  0  0  0  0  0  0  0  0
  141.7120   74.6980  220.2130 N   0  0  0  0  0  0  0  0  0  0  0  0
  141.5460   76.0100  220.8570 C   0  0  0  0  0  0  0  0  0  0  0  0
  142.2570   76.9870  219.9830 C   0  0  0  0  0  0  0  0  0  0  0  0
  142.5990   76.2500  218.7080 C   0  0  0  0  0  0  0  0  0  0  0  0
  142.6840   74.8170  219.1780 C   0  0  1  0  0  0  0  0  0  0  0  0
  144.0910   74.4860  219.5510 C   0  0  1  0  0  0  0  0  0  0  0  0
  144.2800   73.7220  220.8130 C   0  0  0  0  0  0  0  0  0  0  0  0
  145.7200   73.2240  220.6330 C   0  0  0  0  0  0  0  0  0  0  0  0
  146.0200   73.3130  219.2280 N   0  0  0  0  0  0  0  0  0  0  0  0
  144.7660   73.5810  218.5460 C   0  0  0  0  0  0  0  0  0  0  0  0
  139.7910   70.6660  223.7640 C   0  0  0  0  0  0  0  0  0  0  0  0
  139.2410   69.4000  223.8060 C   0  0  0  0  0  0  0  0  0  0  0  0
  139.2740   68.6220  224.9400 C   0  0  0  0  0  0  0  0  0  0  0  0
  139.8740   69.1000  226.0860 C   0  0  0  0  0  0  0  0  0  0  0  0
  139.9170   68.3350  227.2280 C   0  0  0  0  0  0  0  0  0  0  0  0
  140.5110   68.8110  228.3620 C   0  0  0  0  0  0  0  0  0  0  0  0
  140.5340   68.0330  229.4620 F   0  0  0  0  0  0  0  0  0  0  0  0
  141.0620   70.0830  228.3150 C   0  0  0  0  0  0  0  0  0  0  0  0
  141.0160   70.8490  227.1620 C   0  0  0  0  0  0  0  0  0  0  0  0
  140.4180   70.3740  226.0120 C   0  0  0  0  0  0  0  0  0  0  0  0
  140.3690   71.1150  224.8860 N   0  0  0  0  0  0  0  0  0  0  0  0
  139.9470   73.3710  223.4690 H   0  0  0  0  0  0  0  0  0  0  0  0
  138.9177   73.2174  220.7427 H   0  0  0  0  0  0  0  0  0  0  0  0
  139.5910   74.6628  221.6071 H   0  0  0  0  0  0  0  0  0  0  0  0
  140.4792   76.2680  220.9304 H   0  0  0  0  0  0  0  0  0  0  0  0
  141.9521   76.0124  221.8793 H   0  0  0  0  0  0  0  0  0  0  0  0
  141.6050   77.8452  219.7630 H   0  0  0  0  0  0  0  0  0  0  0  0
  143.1616   77.3758  220.4735 H   0  0  0  0  0  0  0  0  0  0  0  0
  141.8102   76.3751  217.9516 H   0  0  0  0  0  0  0  0  0  0  0  0
  143.5187   76.6103  218.2239 H   0  0  0  0  0  0  0  0  0  0  0  0
  142.4471   74.0701  218.4059 H   0  0  0  0  0  0  0  0  0  0  0  0
  144.5109   75.4999  219.6264 H   0  0  0  0  0  0  0  0  0  0  0  0
  144.1829   74.3695  221.6969 H   0  0  0  0  0  0  0  0  0  0  0  0
  143.5396   72.9257  220.9792 H   0  0  0  0  0  0  0  0  0  0  0  0
  146.4133   73.8549  221.2086 H   0  0  0  0  0  0  0  0  0  0  0  0
  145.8275   72.1905  220.9941 H   0  0  0  0  0  0  0  0  0  0  0  0
  146.6670   74.1000  218.9910 H   0  0  0  0  0  0  0  0  0  0  0  0
  144.9278   74.0912  217.5850 H   0  0  0  0  0  0  0  0  0  0  0  0
  144.1893   72.6831  218.2793 H   0  0  0  0  0  0  0  0  0  0  0  0
  138.7599   68.9998  222.9014 H   0  0  0  0  0  0  0  0  0  0  0  0
  138.8221   67.6192  224.9327 H   0  0  0  0  0  0  0  0  0  0  0  0
  139.4689   67.3304  227.2281 H   0  0  0  0  0  0  0  0  0  0  0  0
  141.5464   70.4926  229.2137 H   0  0  0  0  0  0  0  0  0  0  0  0
  141.4639   71.8537  227.1626 H   0  0  0  0  0  0  0  0  0  0  0  0
  1  2  2  0
  2  3  1  0
  3  4  1  0
  4  5  1  0
  5  6  2  0
  5  7  1  0
  7  8  1  0
  8  9  1  0
  9 10  1  0
 10 11  1  0
 11 12  1  0
 12 13  1  0
 13 14  1  0
 14 15  1  0
 15 16  1  0
  2 17  1  0
 17 18  2  0
 18 19  1  0
 19 20  2  0
 20 21  1  0
 21 22  2  0
 22 23  1  0
 22 24  1  0
 24 25  2  0
 25 26  1  0
 26 27  2  0
 11  7  1  0
 16 12  1  0
 27 17  1  0
 26 20  1  0
  3 28  1  0
  4 29  1  0
  4 30  1  0
  8 31  1  0
  8 32  1  0
  9 33  1  0
  9 34  1  0
 10 35  1  0
 10 36  1  0
 11 37  1  6
 12 38  1  1
 13 39  1  0
 13 40  1  0
 14 41  1  0
 14 42  1  0
 15 43  1  0
 16 44  1  0
 16 45  1  0
 18 46  1  0
 19 47  1  0
 21 48  1  0
 24 49  1  0
 25 50  1  0
M  END
>  <smiles>  (160) 
O=C(NCC(=O)N1CCCC1C1CCNC1)c1ccc2cc(F)ccc2n1

>  <score_type>  (160) 
oracle

>  <origin>  (160) 
autodockgpu

>  <m_score__min__energy>  (160) 
-8.7599999999999998

>  <m_primary>  (160) 
energy

>  <rmsd>  (160) 
2.1275062123798687

>  <m_score__min__rmsd>  (160) 
2.1275062123798687

>  <meeko>  (160) 
{"free_energy": -8.3, "intermolecular_energy": -9.79, "internal_energy": -1.24, "cluster_size": 35, "cluster_id": 1, "rank_in_cluster": 18}

>  <energy>  (160) 
-8.55

>  <cluster_rmsd>  (160) 
0.35

>  <cluster>  (160) 
1

$$$$

     RDKit          3D

 50 53  0  0  0  0  0  0  0  0999 V2000
  140.4660   71.4220  221.1910 O   0  0  0  0  0  0  0  0  0  0  0  0
  140.1590   71.9680  222.2960 C   0  0  0  0  0  0  0  0  0  0  0  0
  139.8810   73.3640  222.3370 N   0  0  0  0  0  0  0  0  0  0  0  0
  139.9500   74.1340  221.1320 C   0  0  0  0  0  0  0  0  0  0  0  0
  141.0120   75.1940  221.2090 C   0  0  0  0  0  0  0  0  0  0  0  0
  141.0880   75.8710  222.2660 O   0  0  0  0  0  0  0  0  0  0  0  0
  141.8740   75.3820  220.0920 N   0  0  0  0  0  0  0  0  0  0  0  0
  142.3450   76.6730  219.5670 C   0  0  0  0  0  0  0  0  0  0  0  0
  142.9770   76.3720  218.2500 C   0  0  0  0  0  0  0  0  0  0  0  0
  142.6230   74.9390  217.9230 C   0  0  0  0  0  0  0  0  0  0  0  0
  142.4230   74.3370  219.2940 C   0  0  1  0  0  0  0  0  0  0  0  0
  143.7000   73.7370  219.7780 C   0  0  1  0  0  0  0  0  0  0  0  0
  144.6440   74.6540  220.4680 C   0  0  0  0  0  0  0  0  0  0  0  0
  145.5690   73.6450  221.1610 C   0  0  0  0  0  0  0  0  0  0  0  0
  144.8590   72.3940  221.2110 N   0  0  0  0  0  0  0  0  0  0  0  0
  143.4860   72.6740  220.8310 C   0  0  0  0  0  0  0  0  0  0  0  0
  140.0910   71.1740  223.5180 C   0  0  0  0  0  0  0  0  0  0  0  0
  139.5810   69.8920  223.4660 C   0  0  0  0  0  0  0  0  0  0  0  0
  139.4880   69.0920  224.5810 C   0  0  0  0  0  0  0  0  0  0  0  0
  139.9150   69.5660  225.8050 C   0  0  0  0  0  0  0  0  0  0  0  0
  139.8300   68.7790  226.9300 C   0  0  0  0  0  0  0  0  0  0  0  0
  140.2520   69.2500  228.1410 C   0  0  0  0  0  0  0  0  0  0  0  0
  140.1540   68.4510  229.2220 F   0  0  0  0  0  0  0  0  0  0  0  0
  140.7630   70.5380  228.1880 C   0  0  0  0  0  0  0  0  0  0  0  0
  140.8460   71.3260  227.0520 C   0  0  0  0  0  0  0  0  0  0  0  0
  140.4220   70.8560  225.8250 C   0  0  0  0  0  0  0  0  0  0  0  0
  140.5000   71.6180  224.7140 N   0  0  0  0  0  0  0  0  0  0  0  0
  139.6250   73.8440  223.2290 H   0  0  0  0  0  0  0  0  0  0  0  0
  140.1780   73.4615  220.2919 H   0  0  0  0  0  0  0  0  0  0  0  0
  138.9795   74.6313  220.9872 H   0  0  0  0  0  0  0  0  0  0  0  0
  141.4996   77.3646  219.4367 H   0  0  0  0  0  0  0  0  0  0  0  0
  143.0552   77.1543  220.2554 H   0  0  0  0  0  0  0  0  0  0  0  0
  142.5830   77.0471  217.4760 H   0  0  0  0  0  0  0  0  0  0  0  0
  144.0671   76.5139  218.2896 H   0  0  0  0  0  0  0  0  0  0  0  0
  141.7016   74.8827  217.3247 H   0  0  0  0  0  0  0  0  0  0  0  0
  143.3858   74.4226  217.3218 H   0  0  0  0  0  0  0  0  0  0  0  0
  141.7224   73.4894  219.3208 H   0  0  0  0  0  0  0  0  0  0  0  0
  144.1132   73.3767  218.8243 H   0  0  0  0  0  0  0  0  0  0  0  0
  145.1941   75.2825  219.7522 H   0  0  0  0  0  0  0  0  0  0  0  0
  144.1650   75.3744  221.1474 H   0  0  0  0  0  0  0  0  0  0  0  0
  146.5002   73.5290  220.5870 H   0  0  0  0  0  0  0  0  0  0  0  0
  145.8378   73.9863  222.1716 H   0  0  0  0  0  0  0  0  0  0  0  0
  145.2220   71.6840  220.5340 H   0  0  0  0  0  0  0  0  0  0  0  0
  142.9909   71.7844  220.4146 H   0  0  0  0  0  0  0  0  0  0  0  0
  142.8343   72.9791  221.6630 H   0  0  0  0  0  0  0  0  0  0  0  0
  139.2370   69.4965  222.4989 H   0  0  0  0  0  0  0  0  0  0  0  0
  139.0741   68.0763  224.4974 H   0  0  0  0  0  0  0  0  0  0  0  0
  139.4187   67.7616  226.8539 H   0  0  0  0  0  0  0  0  0  0  0  0
  141.1105   70.9434  229.1497 H   0  0  0  0  0  0  0  0  0  0  0  0
  141.2567   72.3436  227.1287 H   0  0  0  0  0  0  0  0  0  0  0  0
  1  2  2  0
  2  3  1  0
  3  4  1  0
  4  5  1  0
  5  6  2  0
  5  7  1  0
  7  8  1  0
  8  9  1  0
  9 10  1  0
 10 11  1  0
 11 12  1  0
 12 13  1  0
 13 14  1  0
 14 15  1  0
 15 16  1  0
  2 17  1  0
 17 18  2  0
 18 19  1  0
 19 20  2  0
 20 21  1  0
 21 22  2  0
 22 23  1  0
 22 24  1  0
 24 25  2  0
 25 26  1  0
 26 27  2  0
 11  7  1  0
 16 12  1  0
 27 17  1  0
 26 20  1  0
  3 28  1  0
  4 29  1  0
  4 30  1  0
  8 31  1  0
  8 32  1  0
  9 33  1  0
  9 34  1  0
 10 35  1  0
 10 36  1  0
 11 37  1  6
 12 38  1  6
 13 39  1  0
 13 40  1  0
 14 41  1  0
 14 42  1  0
 15 43  1  0
 16 44  1  0
 16 45  1  0
 18 46  1  0
 19 47  1  0
 21 48  1  0
 24 49  1  0
 25 50  1  0
M  END
>  <smiles>  (161) 
O=C(NCC(=O)N1CCCC1C1CCNC1)c1ccc2cc(F)ccc2n1

>  <score_type>  (161) 
oracle

>  <origin>  (161) 
autodockgpu

>  <m_score__min__energy>  (161) 
-8.7599999999999998

>  <m_primary>  (161) 
energy

>  <rmsd>  (161) 
2.226069882618557

>  <m_score__min__rmsd>  (161) 
2.226069882618557

>  <meeko>  (161) 
{"free_energy": -7.71, "intermolecular_energy": -9.2, "internal_energy": -1.58, "cluster_size": 35, "cluster_id": 1, "rank_in_cluster": 33}

>  <energy>  (161) 
-8.54

>  <cluster_rmsd>  (161) 
1.43

>  <cluster>  (161) 
1

$$$$

     RDKit          3D

 50 53  0  0  0  0  0  0  0  0999 V2000
  138.4740   72.1370  222.3280 O   0  0  0  0  0  0  0  0  0  0  0  0
  139.5980   71.5830  222.5330 C   0  0  0  0  0  0  0  0  0  0  0  0
  140.5240   71.4530  221.4590 N   0  0  0  0  0  0  0  0  0  0  0  0
  140.1750   71.9490  220.1620 C   0  0  0  0  0  0  0  0  0  0  0  0
  141.3610   72.5430  219.4550 C   0  0  0  0  0  0  0  0  0  0  0  0
  141.9230   71.8470  218.5720 O   0  0  0  0  0  0  0  0  0  0  0  0
  141.7880   73.8520  219.8140 N   0  0  0  0  0  0  0  0  0  0  0  0
  141.2780   74.6510  220.9380 C   0  0  0  0  0  0  0  0  0  0  0  0
  141.8170   76.0270  220.7380 C   0  0  0  0  0  0  0  0  0  0  0  0
  142.4200   76.0530  219.3520 C   0  0  0  0  0  0  0  0  0  0  0  0
  142.7890   74.6050  219.1350 C   0  0  1  0  0  0  0  0  0  0  0  0
  144.1990   74.3680  219.5630 C   0  0  1  0  0  0  0  0  0  0  0  0
  144.3890   73.6360  220.8430 C   0  0  0  0  0  0  0  0  0  0  0  0
  145.8640   73.2280  220.7210 C   0  0  0  0  0  0  0  0  0  0  0  0
  146.2080   73.3160  219.3270 N   0  0  0  0  0  0  0  0  0  0  0  0
  144.9660   73.4940  218.5970 C   0  0  0  0  0  0  0  0  0  0  0  0
  139.9440   71.0800  223.8580 C   0  0  0  0  0  0  0  0  0  0  0  0
  140.6670   71.8810  224.7200 C   0  0  0  0  0  0  0  0  0  0  0  0
  141.0250   71.4660  225.9820 C   0  0  0  0  0  0  0  0  0  0  0  0
  140.6590   70.2110  226.4240 C   0  0  0  0  0  0  0  0  0  0  0  0
  141.0090   69.7820  227.6830 C   0  0  0  0  0  0  0  0  0  0  0  0
  140.6460   68.5390  228.1190 C   0  0  0  0  0  0  0  0  0  0  0  0
  141.0070   68.1520  229.3580 F   0  0  0  0  0  0  0  0  0  0  0  0
  139.9210   67.7380  227.2490 C   0  0  0  0  0  0  0  0  0  0  0  0
  139.5720   68.1760  225.9830 C   0  0  0  0  0  0  0  0  0  0  0  0
  139.9340   69.4320  225.5360 C   0  0  0  0  0  0  0  0  0  0  0  0
  139.5980   69.8650  224.3030 N   0  0  0  0  0  0  0  0  0  0  0  0
  141.4570   71.0030  221.5930 H   0  0  0  0  0  0  0  0  0  0  0  0
  139.7790   71.1193  219.5580 H   0  0  0  0  0  0  0  0  0  0  0  0
  139.4210   72.7397  220.2893 H   0  0  0  0  0  0  0  0  0  0  0  0
  140.1781   74.6657  220.9292 H   0  0  0  0  0  0  0  0  0  0  0  0
  141.5894   74.2317  221.9061 H   0  0  0  0  0  0  0  0  0  0  0  0
  141.0071   76.7674  220.8143 H   0  0  0  0  0  0  0  0  0  0  0  0
  142.5667   76.2763  221.5034 H   0  0  0  0  0  0  0  0  0  0  0  0
  141.6878   76.3938  218.6052 H   0  0  0  0  0  0  0  0  0  0  0  0
  143.2704   76.7439  219.2543 H   0  0  0  0  0  0  0  0  0  0  0  0
  142.7915   74.2894  218.0812 H   0  0  0  0  0  0  0  0  0  0  0  0
  144.5519   75.4072  219.6369 H   0  0  0  0  0  0  0  0  0  0  0  0
  144.2195   74.2886  221.7122 H   0  0  0  0  0  0  0  0  0  0  0  0
  143.6943   72.7971  220.9968 H   0  0  0  0  0  0  0  0  0  0  0  0
  146.4950   73.9097  221.3101 H   0  0  0  0  0  0  0  0  0  0  0  0
  146.0233   72.2086  221.1022 H   0  0  0  0  0  0  0  0  0  0  0  0
  146.8130   74.1390  219.1000 H   0  0  0  0  0  0  0  0  0  0  0  0
  145.1302   74.0003  217.6343 H   0  0  0  0  0  0  0  0  0  0  0  0
  144.4573   72.5576  218.3242 H   0  0  0  0  0  0  0  0  0  0  0  0
  140.9670   72.8853  224.3861 H   0  0  0  0  0  0  0  0  0  0  0  0
  141.6024   72.1340  226.6380 H   0  0  0  0  0  0  0  0  0  0  0  0
  141.5860   70.4451  228.3444 H   0  0  0  0  0  0  0  0  0  0  0  0
  139.6164   66.7317  227.5724 H   0  0  0  0  0  0  0  0  0  0  0  0
  138.9963   67.5122  225.3213 H   0  0  0  0  0  0  0  0  0  0  0  0
  1  2  2  0
  2  3  1  0
  3  4  1  0
  4  5  1  0
  5  6  2  0
  5  7  1  0
  7  8  1  0
  8  9  1  0
  9 10  1  0
 10 11  1  0
 11 12  1  0
 12 13  1  0
 13 14  1  0
 14 15  1  0
 15 16  1  0
  2 17  1  0
 17 18  2  0
 18 19  1  0
 19 20  2  0
 20 21  1  0
 21 22  2  0
 22 23  1  0
 22 24  1  0
 24 25  2  0
 25 26  1  0
 26 27  2  0
 11  7  1  0
 16 12  1  0
 27 17  1  0
 26 20  1  0
  3 28  1  0
  4 29  1  0
  4 30  1  0
  8 31  1  0
  8 32  1  0
  9 33  1  0
  9 34  1  0
 10 35  1  0
 10 36  1  0
 11 37  1  6
 12 38  1  1
 13 39  1  0
 13 40  1  0
 14 41  1  0
 14 42  1  0
 15 43  1  0
 16 44  1  0
 16 45  1  0
 18 46  1  0
 19 47  1  0
 21 48  1  0
 24 49  1  0
 25 50  1  0
M  END
>  <smiles>  (162) 
O=C(NCC(=O)N1CCCC1C1CCNC1)c1ccc2cc(F)ccc2n1

>  <score_type>  (162) 
oracle

>  <origin>  (162) 
autodockgpu

>  <m_score__min__energy>  (162) 
-8.7599999999999998

>  <m_primary>  (162) 
energy

>  <rmsd>  (162) 
3.270738830332084

>  <m_score__min__rmsd>  (162) 
3.270738830332084

>  <meeko>  (162) 
{"free_energy": -7.62, "intermolecular_energy": -9.11, "internal_energy": -1.27, "cluster_size": 35, "cluster_id": 1, "rank_in_cluster": 34}

>  <energy>  (162) 
-8.53

>  <cluster_rmsd>  (162) 
0.54

>  <cluster>  (162) 
1

$$$$

     RDKit          3D

 50 53  0  0  0  0  0  0  0  0999 V2000
  138.7120   71.6330  221.5540 O   0  0  0  0  0  0  0  0  0  0  0  0
  139.5870   71.8960  222.4370 C   0  0  0  0  0  0  0  0  0  0  0  0
  140.4560   73.0080  222.2560 N   0  0  0  0  0  0  0  0  0  0  0  0
  140.3350   73.8160  221.0800 C   0  0  0  0  0  0  0  0  0  0  0  0
  141.2890   74.9770  221.1000 C   0  0  0  0  0  0  0  0  0  0  0  0
  141.4020   75.6220  222.1720 O   0  0  0  0  0  0  0  0  0  0  0  0
  142.0120   75.2880  219.9140 N   0  0  0  0  0  0  0  0  0  0  0  0
  142.0640   76.6000  219.2500 C   0  0  0  0  0  0  0  0  0  0  0  0
  142.7010   76.3600  217.9230 C   0  0  0  0  0  0  0  0  0  0  0  0
  142.7680   74.8610  217.7450 C   0  0  0  0  0  0  0  0  0  0  0  0
  142.8080   74.3690  219.1720 C   0  0  1  0  0  0  0  0  0  0  0  0
  144.2240   74.2120  219.6170 C   0  0  1  0  0  0  0  0  0  0  0  0
  144.4410   73.4690  220.8870 C   0  0  0  0  0  0  0  0  0  0  0  0
  145.9400   73.1540  220.7810 C   0  0  0  0  0  0  0  0  0  0  0  0
  146.2980   73.2900  219.3930 N   0  0  0  0  0  0  0  0  0  0  0  0
  145.0570   73.4050  218.6480 C   0  0  0  0  0  0  0  0  0  0  0  0
  139.7020   71.0670  223.6320 C   0  0  0  0  0  0  0  0  0  0  0  0
  139.2050   69.7790  223.6140 C   0  0  0  0  0  0  0  0  0  0  0  0
  139.2810   68.9460  224.7060 C   0  0  0  0  0  0  0  0  0  0  0  0
  139.8720   69.3910  225.8710 C   0  0  0  0  0  0  0  0  0  0  0  0
  139.9570   68.5710  226.9720 C   0  0  0  0  0  0  0  0  0  0  0  0
  140.5430   69.0130  228.1240 C   0  0  0  0  0  0  0  0  0  0  0  0
  140.6080   68.1830  229.1830 F   0  0  0  0  0  0  0  0  0  0  0  0
  141.0400   70.3080  228.1380 C   0  0  0  0  0  0  0  0  0  0  0  0
  140.9510   71.1290  227.0260 C   0  0  0  0  0  0  0  0  0  0  0  0
  140.3620   70.6880  225.8580 C   0  0  0  0  0  0  0  0  0  0  0  0
  140.2720   71.4830  224.7710 N   0  0  0  0  0  0  0  0  0  0  0  0
  141.1860   73.2530  222.9630 H   0  0  0  0  0  0  0  0  0  0  0  0
  140.5486   73.1948  220.1977 H   0  0  0  0  0  0  0  0  0  0  0  0
  139.3108   74.2156  221.0436 H   0  0  0  0  0  0  0  0  0  0  0  0
  141.0491   77.0038  219.1201 H   0  0  0  0  0  0  0  0  0  0  0  0
  142.6308   77.3319  219.8443 H   0  0  0  0  0  0  0  0  0  0  0  0
  142.0951   76.8111  217.1233 H   0  0  0  0  0  0  0  0  0  0  0  0
  143.7028   76.8118  217.8747 H   0  0  0  0  0  0  0  0  0  0  0  0
  141.8799   74.4823  217.2178 H   0  0  0  0  0  0  0  0  0  0  0  0
  143.6237   74.5271  217.1398 H   0  0  0  0  0  0  0  0  0  0  0  0
  142.3861   73.3637  219.3182 H   0  0  0  0  0  0  0  0  0  0  0  0
  144.5106   75.2695  219.7143 H   0  0  0  0  0  0  0  0  0  0  0  0
  144.2193   74.0937  221.7648 H   0  0  0  0  0  0  0  0  0  0  0  0
  143.7972   72.5863  221.0148 H   0  0  0  0  0  0  0  0  0  0  0  0
  146.5195   73.8614  221.3924 H   0  0  0  0  0  0  0  0  0  0  0  0
  146.1562   72.1391  221.1461 H   0  0  0  0  0  0  0  0  0  0  0  0
  146.8540   74.1520  219.1900 H   0  0  0  0  0  0  0  0  0  0  0  0
  145.2029   73.9380  217.6969 H   0  0  0  0  0  0  0  0  0  0  0  0
  144.6109   72.4441  218.3517 H   0  0  0  0  0  0  0  0  0  0  0  0
  138.7315   69.4058  222.6939 H   0  0  0  0  0  0  0  0  0  0  0  0
  138.8713   67.9266  224.6507 H   0  0  0  0  0  0  0  0  0  0  0  0
  139.5495   67.5504  226.9244 H   0  0  0  0  0  0  0  0  0  0  0  0
  141.5155   70.6915  229.0528 H   0  0  0  0  0  0  0  0  0  0  0  0
  141.3568   72.1503  227.0745 H   0  0  0  0  0  0  0  0  0  0  0  0
  1  2  2  0
  2  3  1  0
  3  4  1  0
  4  5  1  0
  5  6  2  0
  5  7  1  0
  7  8  1  0
  8  9  1  0
  9 10  1  0
 10 11  1  0
 11 12  1  0
 12 13  1  0
 13 14  1  0
 14 15  1  0
 15 16  1  0
  2 17  1  0
 17 18  2  0
 18 19  1  0
 19 20  2  0
 20 21  1  0
 21 22  2  0
 22 23  1  0
 22 24  1  0
 24 25  2  0
 25 26  1  0
 26 27  2  0
 11  7  1  0
 16 12  1  0
 27 17  1  0
 26 20  1  0
  3 28  1  0
  4 29  1  0
  4 30  1  0
  8 31  1  0
  8 32  1  0
  9 33  1  0
  9 34  1  0
 10 35  1  0
 10 36  1  0
 11 37  1  6
 12 38  1  1
 13 39  1  0
 13 40  1  0
 14 41  1  0
 14 42  1  0
 15 43  1  0
 16 44  1  0
 16 45  1  0
 18 46  1  0
 19 47  1  0
 21 48  1  0
 24 49  1  0
 25 50  1  0
M  END
>  <smiles>  (163) 
O=C(NCC(=O)N1CCCC1C1CCNC1)c1ccc2cc(F)ccc2n1

>  <score_type>  (163) 
oracle

>  <origin>  (163) 
autodockgpu

>  <m_score__min__energy>  (163) 
-8.7599999999999998

>  <m_primary>  (163) 
energy

>  <rmsd>  (163) 
2.2145060977049322

>  <m_score__min__rmsd>  (163) 
2.2145060977049322

>  <meeko>  (163) 
{"free_energy": -8.07, "intermolecular_energy": -9.56, "internal_energy": -1.51, "cluster_size": 35, "cluster_id": 1, "rank_in_cluster": 26}

>  <energy>  (163) 
-8.43

>  <cluster_rmsd>  (163) 
0.33

>  <cluster>  (163) 
1

$$$$

     RDKit          3D

 50 53  0  0  0  0  0  0  0  0999 V2000
  141.2600   72.3940  221.8180 O   0  0  0  0  0  0  0  0  0  0  0  0
  140.2550   72.4100  222.5940 C   0  0  0  0  0  0  0  0  0  0  0  0
  139.1900   73.3220  222.3450 N   0  0  0  0  0  0  0  0  0  0  0  0
  139.2650   74.2070  221.2230 C   0  0  0  0  0  0  0  0  0  0  0  0
  140.2190   75.3420  221.4710 C   0  0  0  0  0  0  0  0  0  0  0  0
  141.4490   75.0850  221.4550 O   0  0  0  0  0  0  0  0  0  0  0  0
  139.6890   76.6410  221.7110 N   0  0  0  0  0  0  0  0  0  0  0  0
  138.6280   76.9810  222.6710 C   0  0  0  0  0  0  0  0  0  0  0  0
  138.2310   78.3840  222.3610 C   0  0  0  0  0  0  0  0  0  0  0  0
  138.8970   78.7380  221.0500 C   0  0  0  0  0  0  0  0  0  0  0  0
  140.1060   77.8330  221.0500 C   0  0  1  0  0  0  0  0  0  0  0  0
  141.2750   78.5440  221.6450 C   0  0  1  0  0  0  0  0  0  0  0  0
  141.2060   80.0290  221.6690 C   0  0  0  0  0  0  0  0  0  0  0  0
  142.3090   80.3500  222.6860 C   0  0  0  0  0  0  0  0  0  0  0  0
  142.5430   79.1470  223.4420 N   0  0  0  0  0  0  0  0  0  0  0  0
  141.4710   78.2260  223.1100 C   0  0  0  0  0  0  0  0  0  0  0  0
  140.1880   71.5030  223.7350 C   0  0  0  0  0  0  0  0  0  0  0  0
  139.6070   70.2600  223.5800 C   0  0  0  0  0  0  0  0  0  0  0  0
  139.5120   69.3600  224.6150 C   0  0  0  0  0  0  0  0  0  0  0  0
  140.0070   69.6870  225.8600 C   0  0  0  0  0  0  0  0  0  0  0  0
  139.9200   68.7980  226.9060 C   0  0  0  0  0  0  0  0  0  0  0  0
  140.4110   69.1240  228.1380 C   0  0  0  0  0  0  0  0  0  0  0  0
  140.3080   68.2280  229.1400 F   0  0  0  0  0  0  0  0  0  0  0  0
  140.9930   70.3740  228.2890 C   0  0  0  0  0  0  0  0  0  0  0  0
  141.0770   71.2650  227.2320 C   0  0  0  0  0  0  0  0  0  0  0  0
  140.5840   70.9420  225.9840 C   0  0  0  0  0  0  0  0  0  0  0  0
  140.6630   71.8060  224.9500 N   0  0  0  0  0  0  0  0  0  0  0  0
  138.3480   73.3610  222.9640 H   0  0  0  0  0  0  0  0  0  0  0  0
  139.6066   73.6401  220.3444 H   0  0  0  0  0  0  0  0  0  0  0  0
  138.2643   74.6316  221.0545 H   0  0  0  0  0  0  0  0  0  0  0  0
  137.7695   76.3043  222.5480 H   0  0  0  0  0  0  0  0  0  0  0  0
  138.9755   76.8797  223.7097 H   0  0  0  0  0  0  0  0  0  0  0  0
  137.1377   78.4571  222.2640 H   0  0  0  0  0  0  0  0  0  0  0  0
  138.5392   79.0714  223.1626 H   0  0  0  0  0  0  0  0  0  0  0  0
  138.2373   78.5219  220.1967 H   0  0  0  0  0  0  0  0  0  0  0  0
  139.1452   79.8055  220.9556 H   0  0  0  0  0  0  0  0  0  0  0  0
  140.4656   77.5548  220.0483 H   0  0  0  0  0  0  0  0  0  0  0  0
  142.0731   78.1885  220.9767 H   0  0  0  0  0  0  0  0  0  0  0  0
  141.4271   80.4608  220.6818 H   0  0  0  0  0  0  0  0  0  0  0  0
  140.2166   80.4355  221.9258 H   0  0  0  0  0  0  0  0  0  0  0  0
  143.2284   80.6536  222.1639 H   0  0  0  0  0  0  0  0  0  0  0  0
  142.0083   81.1775  223.3454 H   0  0  0  0  0  0  0  0  0  0  0  0
  143.4400   78.6690  223.1940 H   0  0  0  0  0  0  0  0  0  0  0  0
  141.7740   77.1794  223.2609 H   0  0  0  0  0  0  0  0  0  0  0  0
  140.5667   78.3351  223.7267 H   0  0  0  0  0  0  0  0  0  0  0  0
  139.2064   69.9802  222.5945 H   0  0  0  0  0  0  0  0  0  0  0  0
  139.0414   68.3795  224.4501 H   0  0  0  0  0  0  0  0  0  0  0  0
  139.4507   67.8156  226.7488 H   0  0  0  0  0  0  0  0  0  0  0  0
  141.3969   70.6641  229.2702 H   0  0  0  0  0  0  0  0  0  0  0  0
  141.5451   72.2478  227.3900 H   0  0  0  0  0  0  0  0  0  0  0  0
  1  2  2  0
  2  3  1  0
  3  4  1  0
  4  5  1  0
  5  6  2  0
  5  7  1  0
  7  8  1  0
  8  9  1  0
  9 10  1  0
 10 11  1  0
 11 12  1  0
 12 13  1  0
 13 14  1  0
 14 15  1  0
 15 16  1  0
  2 17  1  0
 17 18  2  0
 18 19  1  0
 19 20  2  0
 20 21  1  0
 21 22  2  0
 22 23  1  0
 22 24  1  0
 24 25  2  0
 25 26  1  0
 26 27  2  0
 11  7  1  0
 16 12  1  0
 27 17  1  0
 26 20  1  0
  3 28  1  0
  4 29  1  0
  4 30  1  0
  8 31  1  0
  8 32  1  0
  9 33  1  0
  9 34  1  0
 10 35  1  0
 10 36  1  0
 11 37  1  6
 12 38  1  6
 13 39  1  0
 13 40  1  0
 14 41  1  0
 14 42  1  0
 15 43  1  0
 16 44  1  0
 16 45  1  0
 18 46  1  0
 19 47  1  0
 21 48  1  0
 24 49  1  0
 25 50  1  0
M  END
>  <smiles>  (164) 
O=C(NCC(=O)N1CCCC1C1CCNC1)c1ccc2cc(F)ccc2n1

>  <score_type>  (164) 
oracle

>  <origin>  (164) 
autodockgpu

>  <m_score__min__energy>  (164) 
-8.7599999999999998

>  <m_primary>  (164) 
energy

>  <rmsd>  (164) 
2.5589526132697635

>  <m_score__min__rmsd>  (164) 
2.5589526132697635

>  <meeko>  (164) 
{"free_energy": -8.32, "intermolecular_energy": -9.82, "internal_energy": -1.0, "cluster_size": 11, "cluster_id": 2, "rank_in_cluster": 2}

>  <energy>  (164) 
-8.39

>  <cluster_rmsd>  (164) 
1.13

>  <cluster>  (164) 
1

$$$$

     RDKit          3D

 50 53  0  0  0  0  0  0  0  0999 V2000
  141.2620   72.2000  221.5370 O   0  0  0  0  0  0  0  0  0  0  0  0
  140.4200   72.4660  222.4500 C   0  0  0  0  0  0  0  0  0  0  0  0
  139.6160   73.6360  222.3430 N   0  0  0  0  0  0  0  0  0  0  0  0
  139.7670   74.4970  221.2100 C   0  0  0  0  0  0  0  0  0  0  0  0
  139.2340   75.8760  221.4810 C   0  0  0  0  0  0  0  0  0  0  0  0
  138.2000   75.9730  222.1890 O   0  0  0  0  0  0  0  0  0  0  0  0
  139.9180   76.9950  220.9290 N   0  0  0  0  0  0  0  0  0  0  0  0
  139.4010   77.9000  219.8910 C   0  0  0  0  0  0  0  0  0  0  0  0
  140.5650   78.7230  219.4510 C   0  0  0  0  0  0  0  0  0  0  0  0
  141.7930   78.0910  220.0670 C   0  0  0  0  0  0  0  0  0  0  0  0
  141.2260   77.4210  221.2970 C   0  0  1  0  0  0  0  0  0  0  0  0
  141.3170   78.3420  222.4670 C   0  0  1  0  0  0  0  0  0  0  0  0
  142.2340   79.5050  222.3260 C   0  0  0  0  0  0  0  0  0  0  0  0
  141.7470   80.3930  223.4790 C   0  0  0  0  0  0  0  0  0  0  0  0
  140.4240   79.9430  223.8230 N   0  0  0  0  0  0  0  0  0  0  0  0
  140.0060   79.0270  222.7780 C   0  0  0  0  0  0  0  0  0  0  0  0
  140.2730   71.5820  223.6010 C   0  0  0  0  0  0  0  0  0  0  0  0
  139.6440   70.3630  223.4440 C   0  0  0  0  0  0  0  0  0  0  0  0
  139.4740   69.4850  224.4890 C   0  0  0  0  0  0  0  0  0  0  0  0
  139.9400   69.8110  225.7460 C   0  0  0  0  0  0  0  0  0  0  0  0
  139.7780   68.9440  226.8010 C   0  0  0  0  0  0  0  0  0  0  0  0
  140.2400   69.2680  228.0450 C   0  0  0  0  0  0  0  0  0  0  0  0
  140.0630   68.3940  229.0550 F   0  0  0  0  0  0  0  0  0  0  0  0
  140.8700   70.4940  228.1970 C   0  0  0  0  0  0  0  0  0  0  0  0
  141.0300   71.3640  227.1310 C   0  0  0  0  0  0  0  0  0  0  0  0
  140.5670   71.0410  225.8710 C   0  0  0  0  0  0  0  0  0  0  0  0
  140.7190   71.8830  224.8280 N   0  0  0  0  0  0  0  0  0  0  0  0
  138.9130   73.8850  223.0760 H   0  0  0  0  0  0  0  0  0  0  0  0
  140.8355   74.5713  220.9593 H   0  0  0  0  0  0  0  0  0  0  0  0
  139.1937   74.0671  220.3754 H   0  0  0  0  0  0  0  0  0  0  0  0
  138.9989   77.3227  219.0454 H   0  0  0  0  0  0  0  0  0  0  0  0
  138.5830   78.5283  220.2732 H   0  0  0  0  0  0  0  0  0  0  0  0
  140.6431   78.7153  218.3538 H   0  0  0  0  0  0  0  0  0  0  0  0
  140.4547   79.7706  219.7677 H   0  0  0  0  0  0  0  0  0  0  0  0
  142.2470   77.3559  219.3862 H   0  0  0  0  0  0  0  0  0  0  0  0
  142.5958   78.8101  220.2870 H   0  0  0  0  0  0  0  0  0  0  0  0
  141.7866   76.5358  221.6319 H   0  0  0  0  0  0  0  0  0  0  0  0
  141.6725   77.6384  223.2342 H   0  0  0  0  0  0  0  0  0  0  0  0
  143.2856   79.2103  222.4577 H   0  0  0  0  0  0  0  0  0  0  0  0
  142.2112   79.9871  221.3375 H   0  0  0  0  0  0  0  0  0  0  0  0
  142.4182   80.2911  224.3445 H   0  0  0  0  0  0  0  0  0  0  0  0
  141.7381   81.4525  223.1834 H   0  0  0  0  0  0  0  0  0  0  0  0
  140.3880   79.4120  224.7230 H   0  0  0  0  0  0  0  0  0  0  0  0
  139.2519   78.3135  223.1418 H   0  0  0  0  0  0  0  0  0  0  0  0
  139.5254   79.5083  221.9135 H   0  0  0  0  0  0  0  0  0  0  0  0
  139.2659   70.0845  222.4493 H   0  0  0  0  0  0  0  0  0  0  0  0
  138.9667   68.5233  224.3226 H   0  0  0  0  0  0  0  0  0  0  0  0
  139.2716   67.9806  226.6417 H   0  0  0  0  0  0  0  0  0  0  0  0
  141.2517   70.7825  229.1875 H   0  0  0  0  0  0  0  0  0  0  0  0
  141.5344   72.3284  227.2910 H   0  0  0  0  0  0  0  0  0  0  0  0
  1  2  2  0
  2  3  1  0
  3  4  1  0
  4  5  1  0
  5  6  2  0
  5  7  1  0
  7  8  1  0
  8  9  1  0
  9 10  1  0
 10 11  1  0
 11 12  1  0
 12 13  1  0
 13 14  1  0
 14 15  1  0
 15 16  1  0
  2 17  1  0
 17 18  2  0
 18 19  1  0
 19 20  2  0
 20 21  1  0
 21 22  2  0
 22 23  1  0
 22 24  1  0
 24 25  2  0
 25 26  1  0
 26 27  2  0
 11  7  1  0
 16 12  1  0
 27 17  1  0
 26 20  1  0
  3 28  1  0
  4 29  1  0
  4 30  1  0
  8 31  1  0
  8 32  1  0
  9 33  1  0
  9 34  1  0
 10 35  1  0
 10 36  1  0
 11 37  1  1
 12 38  1  1
 13 39  1  0
 13 40  1  0
 14 41  1  0
 14 42  1  0
 15 43  1  0
 16 44  1  0
 16 45  1  0
 18 46  1  0
 19 47  1  0
 21 48  1  0
 24 49  1  0
 25 50  1  0
M  END
>  <smiles>  (165) 
O=C(NCC(=O)N1CCCC1C1CCNC1)c1ccc2cc(F)ccc2n1

>  <score_type>  (165) 
oracle

>  <origin>  (165) 
autodockgpu

>  <m_score__min__energy>  (165) 
-8.7599999999999998

>  <m_primary>  (165) 
energy

>  <rmsd>  (165) 
1.9564300466340359

>  <m_score__min__rmsd>  (165) 
1.9564300466340359

>  <meeko>  (165) 
{"free_energy": -7.81, "intermolecular_energy": -9.3, "internal_energy": -1.38, "cluster_size": 11, "cluster_id": 2, "rank_in_cluster": 7}

>  <energy>  (165) 
-8.38

>  <cluster_rmsd>  (165) 
1.34

>  <cluster>  (165) 
1

$$$$

     RDKit          3D

 50 53  0  0  0  0  0  0  0  0999 V2000
  140.9110   72.3950  221.4270 O   0  0  0  0  0  0  0  0  0  0  0  0
  140.0750   72.5740  222.3660 C   0  0  0  0  0  0  0  0  0  0  0  0
  139.1870   73.6860  222.3140 N   0  0  0  0  0  0  0  0  0  0  0  0
  139.2480   74.5870  221.2040 C   0  0  0  0  0  0  0  0  0  0  0  0
  140.4660   75.4660  221.2640 C   0  0  0  0  0  0  0  0  0  0  0  0
  141.4310   75.0790  221.9700 O   0  0  0  0  0  0  0  0  0  0  0  0
  140.4680   76.6830  220.5270 N   0  0  0  0  0  0  0  0  0  0  0  0
  139.4820   77.0830  219.5120 C   0  0  0  0  0  0  0  0  0  0  0  0
  140.0560   78.2830  218.8360 C   0  0  0  0  0  0  0  0  0  0  0  0
  141.4890   78.3940  219.3060 C   0  0  0  0  0  0  0  0  0  0  0  0
  141.4370   77.7200  220.6570 C   0  0  1  0  0  0  0  0  0  0  0  0
  141.1840   78.7320  221.7230 C   0  0  1  0  0  0  0  0  0  0  0  0
  141.4160   78.2920  223.1240 C   0  0  0  0  0  0  0  0  0  0  0  0
  141.4750   79.6470  223.8430 C   0  0  0  0  0  0  0  0  0  0  0  0
  141.7430   80.6420  222.8370 N   0  0  0  0  0  0  0  0  0  0  0  0
  142.1030   79.9290  221.6250 C   0  0  0  0  0  0  0  0  0  0  0  0
  140.0220   71.6500  223.4940 C   0  0  0  0  0  0  0  0  0  0  0  0
  139.3860   70.4330  223.3440 C   0  0  0  0  0  0  0  0  0  0  0  0
  139.3010   69.5180  224.3670 C   0  0  0  0  0  0  0  0  0  0  0  0
  139.8620   69.8030  225.5950 C   0  0  0  0  0  0  0  0  0  0  0  0
  139.7850   68.8980  226.6280 C   0  0  0  0  0  0  0  0  0  0  0  0
  140.3420   69.1830  227.8430 C   0  0  0  0  0  0  0  0  0  0  0  0
  140.2470   68.2730  228.8320 F   0  0  0  0  0  0  0  0  0  0  0  0
  140.9780   70.4060  227.9890 C   0  0  0  0  0  0  0  0  0  0  0  0
  141.0510   71.3130  226.9450 C   0  0  0  0  0  0  0  0  0  0  0  0
  140.4920   71.0320  225.7140 C   0  0  0  0  0  0  0  0  0  0  0  0
  140.5610   71.9110  224.6920 N   0  0  0  0  0  0  0  0  0  0  0  0
  138.4880   73.8620  223.0710 H   0  0  0  0  0  0  0  0  0  0  0  0
  139.2762   74.0027  220.2724 H   0  0  0  0  0  0  0  0  0  0  0  0
  138.3584   75.2330  221.2390 H   0  0  0  0  0  0  0  0  0  0  0  0
  139.3293   76.2710  218.7858 H   0  0  0  0  0  0  0  0  0  0  0  0
  138.5034   77.3029  219.9637 H   0  0  0  0  0  0  0  0  0  0  0  0
  140.0227   78.1566  217.7438 H   0  0  0  0  0  0  0  0  0  0  0  0
  139.4846   79.1903  219.0817 H   0  0  0  0  0  0  0  0  0  0  0  0
  142.1738   77.8681  218.6244 H   0  0  0  0  0  0  0  0  0  0  0  0
  141.8617   79.4282  219.3435 H   0  0  0  0  0  0  0  0  0  0  0  0
  142.3845   77.2584  220.9718 H   0  0  0  0  0  0  0  0  0  0  0  0
  140.1200   78.9406  221.5374 H   0  0  0  0  0  0  0  0  0  0  0  0
  140.5874   77.6716  223.4962 H   0  0  0  0  0  0  0  0  0  0  0  0
  142.3075   77.6628  223.2628 H   0  0  0  0  0  0  0  0  0  0  0  0
  140.5140   79.8562  224.3356 H   0  0  0  0  0  0  0  0  0  0  0  0
  142.2565   79.6487  224.6171 H   0  0  0  0  0  0  0  0  0  0  0  0
  140.9110   81.2320  222.6060 H   0  0  0  0  0  0  0  0  0  0  0  0
  141.8954   80.5273  220.7256 H   0  0  0  0  0  0  0  0  0  0  0  0
  143.1711   79.6799  221.5410 H   0  0  0  0  0  0  0  0  0  0  0  0
  138.9319   70.1873  222.3727 H   0  0  0  0  0  0  0  0  0  0  0  0
  138.7860   68.5593  224.2065 H   0  0  0  0  0  0  0  0  0  0  0  0
  139.2712   67.9375  226.4750 H   0  0  0  0  0  0  0  0  0  0  0  0
  141.4352   70.6619  228.9562 H   0  0  0  0  0  0  0  0  0  0  0  0
  141.5633   72.2742  227.0991 H   0  0  0  0  0  0  0  0  0  0  0  0
  1  2  2  0
  2  3  1  0
  3  4  1  0
  4  5  1  0
  5  6  2  0
  5  7  1  0
  7  8  1  0
  8  9  1  0
  9 10  1  0
 10 11  1  0
 11 12  1  0
 12 13  1  0
 13 14  1  0
 14 15  1  0
 15 16  1  0
  2 17  1  0
 17 18  2  0
 18 19  1  0
 19 20  2  0
 20 21  1  0
 21 22  2  0
 22 23  1  0
 22 24  1  0
 24 25  2  0
 25 26  1  0
 26 27  2  0
 11  7  1  0
 16 12  1  0
 27 17  1  0
 26 20  1  0
  3 28  1  0
  4 29  1  0
  4 30  1  0
  8 31  1  0
  8 32  1  0
  9 33  1  0
  9 34  1  0
 10 35  1  0
 10 36  1  0
 11 37  1  1
 12 38  1  1
 13 39  1  0
 13 40  1  0
 14 41  1  0
 14 42  1  0
 15 43  1  0
 16 44  1  0
 16 45  1  0
 18 46  1  0
 19 47  1  0
 21 48  1  0
 24 49  1  0
 25 50  1  0
M  END
>  <smiles>  (166) 
O=C(NCC(=O)N1CCCC1C1CCNC1)c1ccc2cc(F)ccc2n1

>  <score_type>  (166) 
oracle

>  <origin>  (166) 
autodockgpu

>  <m_score__min__energy>  (166) 
-8.7599999999999998

>  <m_primary>  (166) 
energy

>  <rmsd>  (166) 
1.518396189445636

>  <m_score__min__rmsd>  (166) 
1.518396189445636

>  <meeko>  (166) 
{"free_energy": -7.81, "intermolecular_energy": -9.3, "internal_energy": -1.07, "cluster_size": 11, "cluster_id": 2, "rank_in_cluster": 8}

>  <energy>  (166) 
-8.35

>  <cluster_rmsd>  (166) 
1.04

>  <cluster>  (166) 
1

$$$$

     RDKit          3D

 50 53  0  0  0  0  0  0  0  0999 V2000
  140.1280   71.3580  221.1360 O   0  0  0  0  0  0  0  0  0  0  0  0
  139.9450   71.9000  222.2700 C   0  0  0  0  0  0  0  0  0  0  0  0
  139.7360   73.3060  222.3500 N   0  0  0  0  0  0  0  0  0  0  0  0
  139.7330   74.0900  221.1530 C   0  0  0  0  0  0  0  0  0  0  0  0
  141.1260   74.3520  220.6540 C   0  0  0  0  0  0  0  0  0  0  0  0
  141.6100   75.4960  220.8470 O   0  0  0  0  0  0  0  0  0  0  0  0
  141.8240   73.3030  219.9930 N   0  0  0  0  0  0  0  0  0  0  0  0
  141.4600   72.6970  218.7030 C   0  0  0  0  0  0  0  0  0  0  0  0
  142.3080   71.4780  218.5700 C   0  0  0  0  0  0  0  0  0  0  0  0
  142.9640   71.2650  219.9150 C   0  0  0  0  0  0  0  0  0  0  0  0
  143.0020   72.6650  220.4800 C   0  0  1  0  0  0  0  0  0  0  0  0
  144.2980   73.3190  220.1380 C   0  0  1  0  0  0  0  0  0  0  0  0
  145.2910   73.4400  221.2380 C   0  0  0  0  0  0  0  0  0  0  0  0
  146.5670   73.7370  220.4390 C   0  0  0  0  0  0  0  0  0  0  0  0
  146.3220   73.3140  219.0860 N   0  0  0  0  0  0  0  0  0  0  0  0
  145.0870   72.5510  219.1010 C   0  0  0  0  0  0  0  0  0  0  0  0
  139.9500   71.0920  223.4850 C   0  0  0  0  0  0  0  0  0  0  0  0
  139.4080   69.8220  223.4560 C   0  0  0  0  0  0  0  0  0  0  0  0
  139.3810   69.0100  224.5660 C   0  0  0  0  0  0  0  0  0  0  0  0
  139.9090   69.4580  225.7600 C   0  0  0  0  0  0  0  0  0  0  0  0
  139.8900   68.6590  226.8790 C   0  0  0  0  0  0  0  0  0  0  0  0
  140.4130   69.1040  228.0600 C   0  0  0  0  0  0  0  0  0  0  0  0
  140.3770   68.2930  229.1360 F   0  0  0  0  0  0  0  0  0  0  0  0
  140.9560   70.3800  228.0830 C   0  0  0  0  0  0  0  0  0  0  0  0
  140.9720   71.1800  226.9530 C   0  0  0  0  0  0  0  0  0  0  0  0
  140.4460   70.7360  225.7560 C   0  0  0  0  0  0  0  0  0  0  0  0
  140.4580   71.5110  224.6510 N   0  0  0  0  0  0  0  0  0  0  0  0
  139.5830   73.7840  223.2670 H   0  0  0  0  0  0  0  0  0  0  0  0
  139.1719   73.5508  220.3756 H   0  0  0  0  0  0  0  0  0  0  0  0
  139.2633   75.0585  221.3798 H   0  0  0  0  0  0  0  0  0  0  0  0
  140.3944   72.4244  218.6955 H   0  0  0  0  0  0  0  0  0  0  0  0
  141.6230   73.3951  217.8687 H   0  0  0  0  0  0  0  0  0  0  0  0
  141.6865   70.6090  218.3081 H   0  0  0  0  0  0  0  0  0  0  0  0
  143.0587   71.5995  217.7752 H   0  0  0  0  0  0  0  0  0  0  0  0
  142.3642   70.5956  220.5492 H   0  0  0  0  0  0  0  0  0  0  0  0
  143.9535   70.7885  219.8519 H   0  0  0  0  0  0  0  0  0  0  0  0
  142.9818   72.7126  221.5788 H   0  0  0  0  0  0  0  0  0  0  0  0
  143.9326   74.3049  219.8148 H   0  0  0  0  0  0  0  0  0  0  0  0
  145.0399   74.2644  221.9217 H   0  0  0  0  0  0  0  0  0  0  0  0
  145.3571   72.5581  221.8921 H   0  0  0  0  0  0  0  0  0  0  0  0
  146.7867   74.8145  220.4643 H   0  0  0  0  0  0  0  0  0  0  0  0
  147.4310   73.2070  220.8664 H   0  0  0  0  0  0  0  0  0  0  0  0
  146.1780   74.1090  218.4220 H   0  0  0  0  0  0  0  0  0  0  0  0
  144.5894   72.5653  218.1201 H   0  0  0  0  0  0  0  0  0  0  0  0
  145.2131   71.4809  219.3224 H   0  0  0  0  0  0  0  0  0  0  0  0
  138.9834   69.4470  222.5131 H   0  0  0  0  0  0  0  0  0  0  0  0
  138.9391   68.0047  224.5021 H   0  0  0  0  0  0  0  0  0  0  0  0
  139.4497   67.6525  226.8227 H   0  0  0  0  0  0  0  0  0  0  0  0
  141.3837   70.7653  229.0203 H   0  0  0  0  0  0  0  0  0  0  0  0
  141.4114   72.1868  227.0099 H   0  0  0  0  0  0  0  0  0  0  0  0
  1  2  2  0
  2  3  1  0
  3  4  1  0
  4  5  1  0
  5  6  2  0
  5  7  1  0
  7  8  1  0
  8  9  1  0
  9 10  1  0
 10 11  1  0
 11 12  1  0
 12 13  1  0
 13 14  1  0
 14 15  1  0
 15 16  1  0
  2 17  1  0
 17 18  2  0
 18 19  1  0
 19 20  2  0
 20 21  1  0
 21 22  2  0
 22 23  1  0
 22 24  1  0
 24 25  2  0
 25 26  1  0
 26 27  2  0
 11  7  1  0
 16 12  1  0
 27 17  1  0
 26 20  1  0
  3 28  1  0
  4 29  1  0
  4 30  1  0
  8 31  1  0
  8 32  1  0
  9 33  1  0
  9 34  1  0
 10 35  1  0
 10 36  1  0
 11 37  1  1
 12 38  1  6
 13 39  1  0
 13 40  1  0
 14 41  1  0
 14 42  1  0
 15 43  1  0
 16 44  1  0
 16 45  1  0
 18 46  1  0
 19 47  1  0
 21 48  1  0
 24 49  1  0
 25 50  1  0
M  END
>  <smiles>  (167) 
O=C(NCC(=O)N1CCCC1C1CCNC1)c1ccc2cc(F)ccc2n1

>  <score_type>  (167) 
oracle

>  <origin>  (167) 
autodockgpu

>  <m_score__min__energy>  (167) 
-8.7599999999999998

>  <m_primary>  (167) 
energy

>  <rmsd>  (167) 
3.0523332558593985

>  <m_score__min__rmsd>  (167) 
3.0523332558593985

>  <meeko>  (167) 
{"free_energy": -8.18, "intermolecular_energy": -9.67, "internal_energy": -1.44, "cluster_size": 35, "cluster_id": 1, "rank_in_cluster": 21}

>  <energy>  (167) 
-8.34

>  <cluster_rmsd>  (167) 
1.38

>  <cluster>  (167) 
1

$$$$

     RDKit          3D

 50 53  0  0  0  0  0  0  0  0999 V2000
  140.4430   71.0120  221.7230 O   0  0  0  0  0  0  0  0  0  0  0  0
  140.1900   71.7120  222.7530 C   0  0  0  0  0  0  0  0  0  0  0  0
  139.7980   73.0720  222.6000 N   0  0  0  0  0  0  0  0  0  0  0  0
  139.6940   73.6340  221.2880 C   0  0  0  0  0  0  0  0  0  0  0  0
  141.0390   74.0150  220.7360 C   0  0  0  0  0  0  0  0  0  0  0  0
  141.4410   75.1890  220.9370 O   0  0  0  0  0  0  0  0  0  0  0  0
  141.7860   73.0390  220.0190 N   0  0  0  0  0  0  0  0  0  0  0  0
  141.4410   72.4780  218.7040 C   0  0  0  0  0  0  0  0  0  0  0  0
  142.3530   71.3140  218.5050 C   0  0  0  0  0  0  0  0  0  0  0  0
  143.0320   71.0710  219.8330 C   0  0  0  0  0  0  0  0  0  0  0  0
  143.0000   72.4420  220.4660 C   0  0  1  0  0  0  0  0  0  0  0  0
  144.2570   73.1810  220.1470 C   0  0  1  0  0  0  0  0  0  0  0  0
  145.2050   73.3940  221.2720 C   0  0  0  0  0  0  0  0  0  0  0  0
  146.4800   73.7670  220.5050 C   0  0  0  0  0  0  0  0  0  0  0  0
  146.3060   73.3000  219.1540 N   0  0  0  0  0  0  0  0  0  0  0  0
  145.1290   72.4510  219.1510 C   0  0  0  0  0  0  0  0  0  0  0  0
  140.2990   71.1290  224.0860 C   0  0  0  0  0  0  0  0  0  0  0  0
  140.7800   71.9000  225.1260 C   0  0  0  0  0  0  0  0  0  0  0  0
  140.9080   71.4110  226.4050 C   0  0  0  0  0  0  0  0  0  0  0  0
  140.5490   70.1080  226.6830 C   0  0  0  0  0  0  0  0  0  0  0  0
  140.6700   69.6030  227.9570 C   0  0  0  0  0  0  0  0  0  0  0  0
  140.3140   68.3130  228.2300 C   0  0  0  0  0  0  0  0  0  0  0  0
  140.4470   67.8530  229.4900 F   0  0  0  0  0  0  0  0  0  0  0  0
  139.8320   67.5430  227.1830 C   0  0  0  0  0  0  0  0  0  0  0  0
  139.7120   68.0560  225.9020 C   0  0  0  0  0  0  0  0  0  0  0  0
  140.0690   69.3600  225.6190 C   0  0  0  0  0  0  0  0  0  0  0  0
  139.9550   69.8660  224.3730 N   0  0  0  0  0  0  0  0  0  0  0  0
  139.5820   73.6740  223.4260 H   0  0  0  0  0  0  0  0  0  0  0  0
  139.2313   72.8934  220.6190 H   0  0  0  0  0  0  0  0  0  0  0  0
  139.0808   74.5449  221.3537 H   0  0  0  0  0  0  0  0  0  0  0  0
  140.3916   72.1485  218.6918 H   0  0  0  0  0  0  0  0  0  0  0  0
  141.5565   73.2236  217.9035 H   0  0  0  0  0  0  0  0  0  0  0  0
  141.7768   70.4265  218.2045 H   0  0  0  0  0  0  0  0  0  0  0  0
  143.0886   71.5152  217.7123 H   0  0  0  0  0  0  0  0  0  0  0  0
  142.4750   70.3400  220.4374 H   0  0  0  0  0  0  0  0  0  0  0  0
  144.0449   70.6522  219.7399 H   0  0  0  0  0  0  0  0  0  0  0  0
  142.9869   72.4345  221.5659 H   0  0  0  0  0  0  0  0  0  0  0  0
  143.8328   74.1318  219.7920 H   0  0  0  0  0  0  0  0  0  0  0  0
  144.8750   74.2108  221.9307 H   0  0  0  0  0  0  0  0  0  0  0  0
  145.3142   72.5314  221.9458 H   0  0  0  0  0  0  0  0  0  0  0  0
  146.6211   74.8579  220.5131 H   0  0  0  0  0  0  0  0  0  0  0  0
  147.3668   73.3103  220.9688 H   0  0  0  0  0  0  0  0  0  0  0  0
  146.1260   74.0700  218.4690 H   0  0  0  0  0  0  0  0  0  0  0  0
  144.6613   72.4095  218.1562 H   0  0  0  0  0  0  0  0  0  0  0  0
  145.3243   71.3975  219.3999 H   0  0  0  0  0  0  0  0  0  0  0  0
  141.0709   72.9415  224.9243 H   0  0  0  0  0  0  0  0  0  0  0  0
  141.2962   72.0579  227.2055 H   0  0  0  0  0  0  0  0  0  0  0  0
  141.0569   70.2439  228.7629 H   0  0  0  0  0  0  0  0  0  0  0  0
  139.5380   66.5004  227.3739 H   0  0  0  0  0  0  0  0  0  0  0  0
  139.3259   67.4141  225.0964 H   0  0  0  0  0  0  0  0  0  0  0  0
  1  2  2  0
  2  3  1  0
  3  4  1  0
  4  5  1  0
  5  6  2  0
  5  7  1  0
  7  8  1  0
  8  9  1  0
  9 10  1  0
 10 11  1  0
 11 12  1  0
 12 13  1  0
 13 14  1  0
 14 15  1  0
 15 16  1  0
  2 17  1  0
 17 18  2  0
 18 19  1  0
 19 20  2  0
 20 21  1  0
 21 22  2  0
 22 23  1  0
 22 24  1  0
 24 25  2  0
 25 26  1  0
 26 27  2  0
 11  7  1  0
 16 12  1  0
 27 17  1  0
 26 20  1  0
  3 28  1  0
  4 29  1  0
  4 30  1  0
  8 31  1  0
  8 32  1  0
  9 33  1  0
  9 34  1  0
 10 35  1  0
 10 36  1  0
 11 37  1  1
 12 38  1  6
 13 39  1  0
 13 40  1  0
 14 41  1  0
 14 42  1  0
 15 43  1  0
 16 44  1  0
 16 45  1  0
 18 46  1  0
 19 47  1  0
 21 48  1  0
 24 49  1  0
 25 50  1  0
M  END
>  <smiles>  (168) 
O=C(NCC(=O)N1CCCC1C1CCNC1)c1ccc2cc(F)ccc2n1

>  <score_type>  (168) 
oracle

>  <origin>  (168) 
autodockgpu

>  <m_score__min__energy>  (168) 
-8.7599999999999998

>  <m_primary>  (168) 
energy

>  <rmsd>  (168) 
3.867576985939365

>  <m_score__min__rmsd>  (168) 
3.867576985939365

>  <meeko>  (168) 
{"free_energy": -8.13, "intermolecular_energy": -9.63, "internal_energy": -1.33, "cluster_size": 35, "cluster_id": 1, "rank_in_cluster": 23}

>  <energy>  (168) 
-8.3

>  <cluster_rmsd>  (168) 
0.93

>  <cluster>  (168) 
1

$$$$

     RDKit          3D

 50 53  0  0  0  0  0  0  0  0999 V2000
  139.8750   70.9410  221.1800 O   0  0  0  0  0  0  0  0  0  0  0  0
  140.1790   71.5260  222.2670 C   0  0  0  0  0  0  0  0  0  0  0  0
  140.6470   72.8700  222.2340 N   0  0  0  0  0  0  0  0  0  0  0  0
  140.7700   73.5450  220.9780 C   0  0  0  0  0  0  0  0  0  0  0  0
  141.2360   74.9630  221.1500 C   0  0  0  0  0  0  0  0  0  0  0  0
  140.9120   75.5600  222.2080 O   0  0  0  0  0  0  0  0  0  0  0  0
  142.0140   75.5580  220.1170 N   0  0  0  0  0  0  0  0  0  0  0  0
  142.2000   76.9990  219.8920 C   0  0  0  0  0  0  0  0  0  0  0  0
  142.8470   77.1240  218.5550 C   0  0  0  0  0  0  0  0  0  0  0  0
  142.7850   75.7530  217.9200 C   0  0  0  0  0  0  0  0  0  0  0  0
  142.7460   74.8430  219.1250 C   0  0  1  0  0  0  0  0  0  0  0  0
  144.1300   74.4260  219.4950 C   0  0  1  0  0  0  0  0  0  0  0  0
  144.2840   73.7200  220.7940 C   0  0  0  0  0  0  0  0  0  0  0  0
  145.6800   73.1050  220.6210 C   0  0  0  0  0  0  0  0  0  0  0  0
  145.9590   73.0950  219.2090 N   0  0  0  0  0  0  0  0  0  0  0  0
  144.7170   73.4200  218.5320 C   0  0  0  0  0  0  0  0  0  0  0  0
  140.0500   70.8290  223.5420 C   0  0  0  0  0  0  0  0  0  0  0  0
  139.3780   69.6230  223.5900 C   0  0  0  0  0  0  0  0  0  0  0  0
  139.2220   68.9160  224.7600 C   0  0  0  0  0  0  0  0  0  0  0  0
  139.7450   69.4090  225.9380 C   0  0  0  0  0  0  0  0  0  0  0  0
  139.5970   68.7140  227.1160 C   0  0  0  0  0  0  0  0  0  0  0  0
  140.1160   69.2040  228.2800 C   0  0  0  0  0  0  0  0  0  0  0  0
  139.9520   68.4960  229.4160 F   0  0  0  0  0  0  0  0  0  0  0  0
  140.7890   70.4150  228.2270 C   0  0  0  0  0  0  0  0  0  0  0  0
  140.9340   71.1100  227.0370 C   0  0  0  0  0  0  0  0  0  0  0  0
  140.4130   70.6210  225.8560 C   0  0  0  0  0  0  0  0  0  0  0  0
  140.5510   71.2930  224.6940 N   0  0  0  0  0  0  0  0  0  0  0  0
  140.9060   73.3800  223.1090 H   0  0  0  0  0  0  0  0  0  0  0  0
  141.4964   73.0048  220.3531 H   0  0  0  0  0  0  0  0  0  0  0  0
  139.7782   73.5663  220.5027 H   0  0  0  0  0  0  0  0  0  0  0  0
  141.2288   77.5154  219.8968 H   0  0  0  0  0  0  0  0  0  0  0  0
  142.8147   77.4549  220.6821 H   0  0  0  0  0  0  0  0  0  0  0  0
  142.3045   77.8544  217.9367 H   0  0  0  0  0  0  0  0  0  0  0  0
  143.8857   77.4743  218.6462 H   0  0  0  0  0  0  0  0  0  0  0  0
  141.8801   75.6391  217.3051 H   0  0  0  0  0  0  0  0  0  0  0  0
  143.6220   75.5450  217.2373 H   0  0  0  0  0  0  0  0  0  0  0  0
  142.2346   73.8841  218.9549 H   0  0  0  0  0  0  0  0  0  0  0  0
  144.6265   75.4075  219.5079 H   0  0  0  0  0  0  0  0  0  0  0  0
  144.2519   74.4200  221.6419 H   0  0  0  0  0  0  0  0  0  0  0  0
  143.4891   72.9924  221.0149 H   0  0  0  0  0  0  0  0  0  0  0  0
  146.4292   73.7118  221.1506 H   0  0  0  0  0  0  0  0  0  0  0  0
  145.7170   72.0875  221.0374 H   0  0  0  0  0  0  0  0  0  0  0  0
  146.6590   73.8170  218.9200 H   0  0  0  0  0  0  0  0  0  0  0  0
  144.8988   73.8642  217.5422 H   0  0  0  0  0  0  0  0  0  0  0  0
  144.0700   72.5552  218.3235 H   0  0  0  0  0  0  0  0  0  0  0  0
  138.9532   69.2141  222.6614 H   0  0  0  0  0  0  0  0  0  0  0  0
  138.6807   67.9584  224.7564 H   0  0  0  0  0  0  0  0  0  0  0  0
  139.0563   67.7561  227.1202 H   0  0  0  0  0  0  0  0  0  0  0  0
  141.2172   70.8333  229.1499 H   0  0  0  0  0  0  0  0  0  0  0  0
  141.4739   72.0684  227.0334 H   0  0  0  0  0  0  0  0  0  0  0  0
  1  2  2  0
  2  3  1  0
  3  4  1  0
  4  5  1  0
  5  6  2  0
  5  7  1  0
  7  8  1  0
  8  9  1  0
  9 10  1  0
 10 11  1  0
 11 12  1  0
 12 13  1  0
 13 14  1  0
 14 15  1  0
 15 16  1  0
  2 17  1  0
 17 18  2  0
 18 19  1  0
 19 20  2  0
 20 21  1  0
 21 22  2  0
 22 23  1  0
 22 24  1  0
 24 25  2  0
 25 26  1  0
 26 27  2  0
 11  7  1  0
 16 12  1  0
 27 17  1  0
 26 20  1  0
  3 28  1  0
  4 29  1  0
  4 30  1  0
  8 31  1  0
  8 32  1  0
  9 33  1  0
  9 34  1  0
 10 35  1  0
 10 36  1  0
 11 37  1  6
 12 38  1  1
 13 39  1  0
 13 40  1  0
 14 41  1  0
 14 42  1  0
 15 43  1  0
 16 44  1  0
 16 45  1  0
 18 46  1  0
 19 47  1  0
 21 48  1  0
 24 49  1  0
 25 50  1  0
M  END
>  <smiles>  (169) 
O=C(NCC(=O)N1CCCC1C1CCNC1)c1ccc2cc(F)ccc2n1

>  <score_type>  (169) 
oracle

>  <origin>  (169) 
autodockgpu

>  <m_score__min__energy>  (169) 
-8.7599999999999998

>  <m_primary>  (169) 
energy

>  <rmsd>  (169) 
2.288453910798605

>  <m_score__min__rmsd>  (169) 
2.288453910798605

>  <meeko>  (169) 
{"free_energy": -8.15, "intermolecular_energy": -9.64, "internal_energy": -1.71, "cluster_size": 35, "cluster_id": 1, "rank_in_cluster": 22}

>  <energy>  (169) 
-8.28

>  <cluster_rmsd>  (169) 
0.92

>  <cluster>  (169) 
1

$$$$

     RDKit          3D

 50 53  0  0  0  0  0  0  0  0999 V2000
  138.8090   72.3930  222.1880 O   0  0  0  0  0  0  0  0  0  0  0  0
  139.8990   71.8830  222.5950 C   0  0  0  0  0  0  0  0  0  0  0  0
  141.1000   72.1240  221.8710 N   0  0  0  0  0  0  0  0  0  0  0  0
  141.0650   72.9390  220.6950 C   0  0  0  0  0  0  0  0  0  0  0  0
  141.1750   74.4010  221.0250 C   0  0  0  0  0  0  0  0  0  0  0  0
  140.5670   74.8170  222.0440 O   0  0  0  0  0  0  0  0  0  0  0  0
  141.9530   75.2380  220.1770 N   0  0  0  0  0  0  0  0  0  0  0  0
  142.0330   76.7040  220.2430 C   0  0  0  0  0  0  0  0  0  0  0  0
  142.7340   77.1320  218.9980 C   0  0  0  0  0  0  0  0  0  0  0  0
  142.8140   75.9100  218.1110 C   0  0  0  0  0  0  0  0  0  0  0  0
  142.7870   74.7820  219.1150 C   0  0  1  0  0  0  0  0  0  0  0  0
  144.1800   74.3980  219.4870 C   0  0  1  0  0  0  0  0  0  0  0  0
  144.3520   73.7140  220.7960 C   0  0  0  0  0  0  0  0  0  0  0  0
  145.7590   73.1240  220.6280 C   0  0  0  0  0  0  0  0  0  0  0  0
  146.0340   73.0990  219.2150 N   0  0  0  0  0  0  0  0  0  0  0  0
  144.7840   73.3890  218.5370 C   0  0  0  0  0  0  0  0  0  0  0  0
  139.9240   71.0540  223.7950 C   0  0  0  0  0  0  0  0  0  0  0  0
  139.3450   69.8000  223.7650 C   0  0  0  0  0  0  0  0  0  0  0  0
  139.3340   68.9700  224.8620 C   0  0  0  0  0  0  0  0  0  0  0  0
  139.9160   69.3820  226.0440 C   0  0  0  0  0  0  0  0  0  0  0  0
  139.9140   68.5640  227.1490 C   0  0  0  0  0  0  0  0  0  0  0  0
  140.4900   68.9740  228.3180 C   0  0  0  0  0  0  0  0  0  0  0  0
  140.4690   68.1460  229.3810 F   0  0  0  0  0  0  0  0  0  0  0  0
  141.0690   70.2340  228.3430 C   0  0  0  0  0  0  0  0  0  0  0  0
  141.0680   71.0530  227.2260 C   0  0  0  0  0  0  0  0  0  0  0  0
  140.4880   70.6450  226.0410 C   0  0  0  0  0  0  0  0  0  0  0  0
  140.4830   71.4380  224.9500 N   0  0  0  0  0  0  0  0  0  0  0  0
  142.0140   71.7190  222.1780 H   0  0  0  0  0  0  0  0  0  0  0  0
  141.9040   72.6575  220.0417 H   0  0  0  0  0  0  0  0  0  0  0  0
  140.1001   72.7736  220.1933 H   0  0  0  0  0  0  0  0  0  0  0  0
  141.0242   77.1407  220.2834 H   0  0  0  0  0  0  0  0  0  0  0  0
  142.5688   77.0389  221.1434 H   0  0  0  0  0  0  0  0  0  0  0  0
  142.1659   77.9294  218.4966 H   0  0  0  0  0  0  0  0  0  0  0  0
  143.7353   77.5291  219.2208 H   0  0  0  0  0  0  0  0  0  0  0  0
  141.9533   75.8563  217.4281 H   0  0  0  0  0  0  0  0  0  0  0  0
  143.6986   75.8971  217.4573 H   0  0  0  0  0  0  0  0  0  0  0  0
  142.3618   73.8424  218.7323 H   0  0  0  0  0  0  0  0  0  0  0  0
  144.6567   75.3893  219.4840 H   0  0  0  0  0  0  0  0  0  0  0  0
  144.3086   74.4256  221.6337 H   0  0  0  0  0  0  0  0  0  0  0  0
  143.5723   72.9741  221.0298 H   0  0  0  0  0  0  0  0  0  0  0  0
  146.4977   73.7530  221.1464 H   0  0  0  0  0  0  0  0  0  0  0  0
  145.8173   72.1137  221.0592 H   0  0  0  0  0  0  0  0  0  0  0  0
  146.7190   73.8290  218.9130 H   0  0  0  0  0  0  0  0  0  0  0  0
  144.9541   73.8216  217.5401 H   0  0  0  0  0  0  0  0  0  0  0  0
  144.1536   72.5086  218.3435 H   0  0  0  0  0  0  0  0  0  0  0  0
  138.8767   69.4534  222.8320 H   0  0  0  0  0  0  0  0  0  0  0  0
  138.8617   67.9786  224.7973 H   0  0  0  0  0  0  0  0  0  0  0  0
  139.4446   67.5709  227.0914 H   0  0  0  0  0  0  0  0  0  0  0  0
  141.5397   70.5910  229.2709 H   0  0  0  0  0  0  0  0  0  0  0  0
  141.5375   72.0461  227.2838 H   0  0  0  0  0  0  0  0  0  0  0  0
  1  2  2  0
  2  3  1  0
  3  4  1  0
  4  5  1  0
  5  6  2  0
  5  7  1  0
  7  8  1  0
  8  9  1  0
  9 10  1  0
 10 11  1  0
 11 12  1  0
 12 13  1  0
 13 14  1  0
 14 15  1  0
 15 16  1  0
  2 17  1  0
 17 18  2  0
 18 19  1  0
 19 20  2  0
 20 21  1  0
 21 22  2  0
 22 23  1  0
 22 24  1  0
 24 25  2  0
 25 26  1  0
 26 27  2  0
 11  7  1  0
 16 12  1  0
 27 17  1  0
 26 20  1  0
  3 28  1  0
  4 29  1  0
  4 30  1  0
  8 31  1  0
  8 32  1  0
  9 33  1  0
  9 34  1  0
 10 35  1  0
 10 36  1  0
 11 37  1  6
 12 38  1  1
 13 39  1  0
 13 40  1  0
 14 41  1  0
 14 42  1  0
 15 43  1  0
 16 44  1  0
 16 45  1  0
 18 46  1  0
 19 47  1  0
 21 48  1  0
 24 49  1  0
 25 50  1  0
M  END
>  <smiles>  (170) 
O=C(NCC(=O)N1CCCC1C1CCNC1)c1ccc2cc(F)ccc2n1

>  <score_type>  (170) 
oracle

>  <origin>  (170) 
autodockgpu

>  <m_score__min__energy>  (170) 
-8.7599999999999998

>  <m_primary>  (170) 
energy

>  <rmsd>  (170) 
2.404825755376307

>  <m_score__min__rmsd>  (170) 
2.404825755376307

>  <meeko>  (170) 
{"free_energy": -8.65, "intermolecular_energy": -10.14, "internal_energy": -1.15, "cluster_size": 35, "cluster_id": 1, "rank_in_cluster": 7}

>  <energy>  (170) 
-8.25

>  <cluster_rmsd>  (170) 
1.37

>  <cluster>  (170) 
1

$$$$

     RDKit          3D

 50 53  0  0  0  0  0  0  0  0999 V2000
  141.2520   72.4920  221.8790 O   0  0  0  0  0  0  0  0  0  0  0  0
  140.2220   72.4640  222.6230 C   0  0  0  0  0  0  0  0  0  0  0  0
  139.1350   73.3420  222.3500 N   0  0  0  0  0  0  0  0  0  0  0  0
  139.2160   74.2440  221.2420 C   0  0  0  0  0  0  0  0  0  0  0  0
  140.1700   75.3740  221.5100 C   0  0  0  0  0  0  0  0  0  0  0  0
  141.3980   75.1080  221.5340 O   0  0  0  0  0  0  0  0  0  0  0  0
  139.6430   76.6780  221.7250 N   0  0  0  0  0  0  0  0  0  0  0  0
  138.5730   77.0360  222.6670 C   0  0  0  0  0  0  0  0  0  0  0  0
  138.1850   78.4370  222.3320 C   0  0  0  0  0  0  0  0  0  0  0  0
  138.8670   78.7680  221.0240 C   0  0  0  0  0  0  0  0  0  0  0  0
  140.0730   77.8580  221.0510 C   0  0  1  0  0  0  0  0  0  0  0  0
  141.2380   78.5730  221.6490 C   0  0  1  0  0  0  0  0  0  0  0  0
  141.1550   80.0570  221.6900 C   0  0  0  0  0  0  0  0  0  0  0  0
  142.2600   80.3770  222.7060 C   0  0  0  0  0  0  0  0  0  0  0  0
  142.5090   79.1680  223.4470 N   0  0  0  0  0  0  0  0  0  0  0  0
  141.4440   78.2410  223.1100 C   0  0  0  0  0  0  0  0  0  0  0  0
  140.1490   71.5410  223.7500 C   0  0  0  0  0  0  0  0  0  0  0  0
  139.5540   70.3070  223.5790 C   0  0  0  0  0  0  0  0  0  0  0  0
  139.4530   69.3920  224.6000 C   0  0  0  0  0  0  0  0  0  0  0  0
  139.9570   69.6940  225.8480 C   0  0  0  0  0  0  0  0  0  0  0  0
  139.8650   68.7900  226.8810 C   0  0  0  0  0  0  0  0  0  0  0  0
  140.3650   69.0920  228.1150 C   0  0  0  0  0  0  0  0  0  0  0  0
  140.2560   68.1820  229.1040 F   0  0  0  0  0  0  0  0  0  0  0  0
  140.9610   70.3330  228.2830 C   0  0  0  0  0  0  0  0  0  0  0  0
  141.0510   71.2390  227.2390 C   0  0  0  0  0  0  0  0  0  0  0  0
  140.5490   70.9400  225.9880 C   0  0  0  0  0  0  0  0  0  0  0  0
  140.6330   71.8190  224.9680 N   0  0  0  0  0  0  0  0  0  0  0  0
  138.2730   73.3450  222.9410 H   0  0  0  0  0  0  0  0  0  0  0  0
  139.5604   73.6899  220.3564 H   0  0  0  0  0  0  0  0  0  0  0  0
  138.2165   74.6726  221.0766 H   0  0  0  0  0  0  0  0  0  0  0  0
  137.7132   76.3610  222.5439 H   0  0  0  0  0  0  0  0  0  0  0  0
  138.9081   76.9485  223.7110 H   0  0  0  0  0  0  0  0  0  0  0  0
  137.0932   78.5133  222.2217 H   0  0  0  0  0  0  0  0  0  0  0  0
  138.4868   79.1351  223.1267 H   0  0  0  0  0  0  0  0  0  0  0  0
  138.2160   78.5415  220.1667 H   0  0  0  0  0  0  0  0  0  0  0  0
  139.1208   79.8329  220.9165 H   0  0  0  0  0  0  0  0  0  0  0  0
  140.4432   77.5637  220.0578 H   0  0  0  0  0  0  0  0  0  0  0  0
  142.0363   78.2319  220.9734 H   0  0  0  0  0  0  0  0  0  0  0  0
  141.3675   80.5020  220.7067 H   0  0  0  0  0  0  0  0  0  0  0  0
  140.1630   80.4512  221.9557 H   0  0  0  0  0  0  0  0  0  0  0  0
  143.1740   80.6954  222.1832 H   0  0  0  0  0  0  0  0  0  0  0  0
  141.9543   81.1939  223.3762 H   0  0  0  0  0  0  0  0  0  0  0  0
  143.4090   78.7020  223.1890 H   0  0  0  0  0  0  0  0  0  0  0  0
  141.7573   77.1956  223.2482 H   0  0  0  0  0  0  0  0  0  0  0  0
  140.5417   78.3353  223.7321 H   0  0  0  0  0  0  0  0  0  0  0  0
  139.1464   70.0468  222.5910 H   0  0  0  0  0  0  0  0  0  0  0  0
  138.9706   68.4196  224.4219 H   0  0  0  0  0  0  0  0  0  0  0  0
  139.3843   67.8153  226.7112 H   0  0  0  0  0  0  0  0  0  0  0  0
  141.3713   70.6038  229.2670 H   0  0  0  0  0  0  0  0  0  0  0  0
  141.5309   72.2140  227.4096 H   0  0  0  0  0  0  0  0  0  0  0  0
  1  2  2  0
  2  3  1  0
  3  4  1  0
  4  5  1  0
  5  6  2  0
  5  7  1  0
  7  8  1  0
  8  9  1  0
  9 10  1  0
 10 11  1  0
 11 12  1  0
 12 13  1  0
 13 14  1  0
 14 15  1  0
 15 16  1  0
  2 17  1  0
 17 18  2  0
 18 19  1  0
 19 20  2  0
 20 21  1  0
 21 22  2  0
 22 23  1  0
 22 24  1  0
 24 25  2  0
 25 26  1  0
 26 27  2  0
 11  7  1  0
 16 12  1  0
 27 17  1  0
 26 20  1  0
  3 28  1  0
  4 29  1  0
  4 30  1  0
  8 31  1  0
  8 32  1  0
  9 33  1  0
  9 34  1  0
 10 35  1  0
 10 36  1  0
 11 37  1  6
 12 38  1  6
 13 39  1  0
 13 40  1  0
 14 41  1  0
 14 42  1  0
 15 43  1  0
 16 44  1  0
 16 45  1  0
 18 46  1  0
 19 47  1  0
 21 48  1  0
 24 49  1  0
 25 50  1  0
M  END
>  <smiles>  (171) 
O=C(NCC(=O)N1CCCC1C1CCNC1)c1ccc2cc(F)ccc2n1

>  <score_type>  (171) 
oracle

>  <origin>  (171) 
autodockgpu

>  <m_score__min__energy>  (171) 
-8.7599999999999998

>  <m_primary>  (171) 
energy

>  <rmsd>  (171) 
2.5694725427302996

>  <m_score__min__rmsd>  (171) 
2.5694725427302996

>  <meeko>  (171) 
{"free_energy": -8.33, "intermolecular_energy": -9.82, "internal_energy": -0.98, "cluster_size": 11, "cluster_id": 2, "rank_in_cluster": 1}

>  <energy>  (171) 
-8.18

>  <cluster_rmsd>  (171) 
1.33

>  <cluster>  (171) 
1

$$$$

     RDKit          3D

 50 53  0  0  0  0  0  0  0  0999 V2000
  140.6190   71.0540  221.7220 O   0  0  0  0  0  0  0  0  0  0  0  0
  140.2630   71.7170  222.7450 C   0  0  0  0  0  0  0  0  0  0  0  0
  139.7710   73.0430  222.5860 N   0  0  0  0  0  0  0  0  0  0  0  0
  139.6810   73.6120  221.2760 C   0  0  0  0  0  0  0  0  0  0  0  0
  141.0280   74.0270  220.7550 C   0  0  0  0  0  0  0  0  0  0  0  0
  141.4630   75.1570  221.0940 O   0  0  0  0  0  0  0  0  0  0  0  0
  141.7410   73.1310  219.9100 N   0  0  0  0  0  0  0  0  0  0  0  0
  141.3730   72.7560  218.5370 C   0  0  0  0  0  0  0  0  0  0  0  0
  142.2470   71.6020  218.1800 C   0  0  0  0  0  0  0  0  0  0  0  0
  142.9260   71.1680  219.4590 C   0  0  0  0  0  0  0  0  0  0  0  0
  142.9390   72.4450  220.2650 C   0  0  1  0  0  0  0  0  0  0  0  0
  144.2160   73.1810  220.0330 C   0  0  1  0  0  0  0  0  0  0  0  0
  145.0810   73.4000  221.2220 C   0  0  0  0  0  0  0  0  0  0  0  0
  146.4080   73.7680  220.5460 C   0  0  0  0  0  0  0  0  0  0  0  0
  146.3320   73.2940  219.1890 N   0  0  0  0  0  0  0  0  0  0  0  0
  145.1570   72.4460  219.1060 C   0  0  0  0  0  0  0  0  0  0  0  0
  140.3590   71.1280  224.0770 C   0  0  0  0  0  0  0  0  0  0  0  0
  140.8880   71.8740  225.1120 C   0  0  0  0  0  0  0  0  0  0  0  0
  141.0060   71.3780  226.3890 C   0  0  0  0  0  0  0  0  0  0  0  0
  140.5880   70.0940  226.6700 C   0  0  0  0  0  0  0  0  0  0  0  0
  140.6980   69.5830  227.9420 C   0  0  0  0  0  0  0  0  0  0  0  0
  140.2830   68.3110  228.2190 C   0  0  0  0  0  0  0  0  0  0  0  0
  140.4070   67.8430  229.4770 F   0  0  0  0  0  0  0  0  0  0  0  0
  139.7520   67.5660  227.1760 C   0  0  0  0  0  0  0  0  0  0  0  0
  139.6440   68.0860  225.8970 C   0  0  0  0  0  0  0  0  0  0  0  0
  140.0600   69.3710  225.6110 C   0  0  0  0  0  0  0  0  0  0  0  0
  139.9570   69.8840  224.3670 N   0  0  0  0  0  0  0  0  0  0  0  0
  139.4700   73.6160  223.4070 H   0  0  0  0  0  0  0  0  0  0  0  0
  139.2491   72.8661  220.5926 H   0  0  0  0  0  0  0  0  0  0  0  0
  139.0459   74.5082  221.3350 H   0  0  0  0  0  0  0  0  0  0  0  0
  140.3139   72.4622  218.4915 H   0  0  0  0  0  0  0  0  0  0  0  0
  141.5079   73.5956  217.8393 H   0  0  0  0  0  0  0  0  0  0  0  0
  141.6421   70.7787  217.7723 H   0  0  0  0  0  0  0  0  0  0  0  0
  142.9839   71.8826  217.4131 H   0  0  0  0  0  0  0  0  0  0  0  0
  142.3505   70.3811  219.9685 H   0  0  0  0  0  0  0  0  0  0  0  0
  143.9252   70.7353  219.3026 H   0  0  0  0  0  0  0  0  0  0  0  0
  142.9311   72.2953  221.3547 H   0  0  0  0  0  0  0  0  0  0  0  0
  143.8187   74.1297  219.6430 H   0  0  0  0  0  0  0  0  0  0  0  0
  144.7053   74.2208  221.8506 H   0  0  0  0  0  0  0  0  0  0  0  0
  145.1408   72.5413  221.9069 H   0  0  0  0  0  0  0  0  0  0  0  0
  146.5489   74.8589  220.5582 H   0  0  0  0  0  0  0  0  0  0  0  0
  147.2585   73.3130  221.0748 H   0  0  0  0  0  0  0  0  0  0  0  0
  146.2020   74.0600  218.4890 H   0  0  0  0  0  0  0  0  0  0  0  0
  144.7619   72.3998  218.0804 H   0  0  0  0  0  0  0  0  0  0  0  0
  145.3331   71.3938  219.3740 H   0  0  0  0  0  0  0  0  0  0  0  0
  141.2266   72.9004  224.9077 H   0  0  0  0  0  0  0  0  0  0  0  0
  141.4333   72.0046  227.1857 H   0  0  0  0  0  0  0  0  0  0  0  0
  141.1240   70.2040  228.7438 H   0  0  0  0  0  0  0  0  0  0  0  0
  139.4090   66.5389  227.3693 H   0  0  0  0  0  0  0  0  0  0  0  0
  139.2194   67.4644  225.0950 H   0  0  0  0  0  0  0  0  0  0  0  0
  1  2  2  0
  2  3  1  0
  3  4  1  0
  4  5  1  0
  5  6  2  0
  5  7  1  0
  7  8  1  0
  8  9  1  0
  9 10  1  0
 10 11  1  0
 11 12  1  0
 12 13  1  0
 13 14  1  0
 14 15  1  0
 15 16  1  0
  2 17  1  0
 17 18  2  0
 18 19  1  0
 19 20  2  0
 20 21  1  0
 21 22  2  0
 22 23  1  0
 22 24  1  0
 24 25  2  0
 25 26  1  0
 26 27  2  0
 11  7  1  0
 16 12  1  0
 27 17  1  0
 26 20  1  0
  3 28  1  0
  4 29  1  0
  4 30  1  0
  8 31  1  0
  8 32  1  0
  9 33  1  0
  9 34  1  0
 10 35  1  0
 10 36  1  0
 11 37  1  1
 12 38  1  6
 13 39  1  0
 13 40  1  0
 14 41  1  0
 14 42  1  0
 15 43  1  0
 16 44  1  0
 16 45  1  0
 18 46  1  0
 19 47  1  0
 21 48  1  0
 24 49  1  0
 25 50  1  0
M  END
>  <smiles>  (172) 
O=C(NCC(=O)N1CCCC1C1CCNC1)c1ccc2cc(F)ccc2n1

>  <score_type>  (172) 
oracle

>  <origin>  (172) 
autodockgpu

>  <m_score__min__energy>  (172) 
-8.7599999999999998

>  <m_primary>  (172) 
energy

>  <rmsd>  (172) 
3.789454382104023

>  <m_score__min__rmsd>  (172) 
3.789454382104023

>  <meeko>  (172) 
{"free_energy": -8.1, "intermolecular_energy": -9.59, "internal_energy": -1.36, "cluster_size": 35, "cluster_id": 1, "rank_in_cluster": 24}

>  <energy>  (172) 
-8.15

>  <cluster_rmsd>  (172) 
0.69

>  <cluster>  (172) 
1

$$$$

     RDKit          3D

 50 53  0  0  0  0  0  0  0  0999 V2000
  141.2020   72.1190  221.5450 O   0  0  0  0  0  0  0  0  0  0  0  0
  140.3840   72.4280  222.4660 C   0  0  0  0  0  0  0  0  0  0  0  0
  139.6190   73.6240  222.3550 N   0  0  0  0  0  0  0  0  0  0  0  0
  139.7820   74.4620  221.2070 C   0  0  0  0  0  0  0  0  0  0  0  0
  139.6300   75.9170  221.5520 C   0  0  0  0  0  0  0  0  0  0  0  0
  138.9360   76.2100  222.5580 O   0  0  0  0  0  0  0  0  0  0  0  0
  140.2740   76.8860  220.7320 N   0  0  0  0  0  0  0  0  0  0  0  0
  139.8360   77.3180  219.3960 C   0  0  0  0  0  0  0  0  0  0  0  0
  140.9630   78.1180  218.8360 C   0  0  0  0  0  0  0  0  0  0  0  0
  142.1380   77.9110  219.7650 C   0  0  0  0  0  0  0  0  0  0  0  0
  141.4580   77.5990  221.0770 C   0  0  1  0  0  0  0  0  0  0  0  0
  141.2690   78.8520  221.8650 C   0  0  1  0  0  0  0  0  0  0  0  0
  140.4590   78.7400  223.1060 C   0  0  0  0  0  0  0  0  0  0  0  0
  140.8420   80.0450  223.8170 C   0  0  0  0  0  0  0  0  0  0  0  0
  142.0730   80.4970  223.2240 N   0  0  0  0  0  0  0  0  0  0  0  0
  142.5690   79.4090  222.4010 C   0  0  0  0  0  0  0  0  0  0  0  0
  140.2260   71.5660  223.6330 C   0  0  0  0  0  0  0  0  0  0  0  0
  139.5800   70.3530  223.4970 C   0  0  0  0  0  0  0  0  0  0  0  0
  139.3980   69.4960  224.5570 C   0  0  0  0  0  0  0  0  0  0  0  0
  139.8690   69.8370  225.8080 C   0  0  0  0  0  0  0  0  0  0  0  0
  139.6950   68.9910  226.8780 C   0  0  0  0  0  0  0  0  0  0  0  0
  140.1620   69.3310  228.1160 C   0  0  0  0  0  0  0  0  0  0  0  0
  139.9730   68.4770  229.1420 F   0  0  0  0  0  0  0  0  0  0  0  0
  140.8080   70.5510  228.2480 C   0  0  0  0  0  0  0  0  0  0  0  0
  140.9800   71.3990  227.1660 C   0  0  0  0  0  0  0  0  0  0  0  0
  140.5120   71.0610  225.9120 C   0  0  0  0  0  0  0  0  0  0  0  0
  140.6760   71.8830  224.8540 N   0  0  0  0  0  0  0  0  0  0  0  0
  138.9380   73.9070  223.0950 H   0  0  0  0  0  0  0  0  0  0  0  0
  140.7852   74.2987  220.7865 H   0  0  0  0  0  0  0  0  0  0  0  0
  139.0005   74.1999  220.4786 H   0  0  0  0  0  0  0  0  0  0  0  0
  139.6329   76.4446  218.7588 H   0  0  0  0  0  0  0  0  0  0  0  0
  138.9081   77.9066  219.4456 H   0  0  0  0  0  0  0  0  0  0  0  0
  141.2122   77.7671  217.8237 H   0  0  0  0  0  0  0  0  0  0  0  0
  140.6971   79.1828  218.7613 H   0  0  0  0  0  0  0  0  0  0  0  0
  142.7663   77.0717  219.4322 H   0  0  0  0  0  0  0  0  0  0  0  0
  142.8181   78.7741  219.8150 H   0  0  0  0  0  0  0  0  0  0  0  0
  142.0481   76.9645  221.7546 H   0  0  0  0  0  0  0  0  0  0  0  0
  140.7660   79.4754  221.1110 H   0  0  0  0  0  0  0  0  0  0  0  0
  139.3822   78.7004  222.8846 H   0  0  0  0  0  0  0  0  0  0  0  0
  140.6477   77.8289  223.6928 H   0  0  0  0  0  0  0  0  0  0  0  0
  140.0539   80.7991  223.6744 H   0  0  0  0  0  0  0  0  0  0  0  0
  140.9611   79.8844  224.8987 H   0  0  0  0  0  0  0  0  0  0  0  0
  141.9520   81.3230  222.5940 H   0  0  0  0  0  0  0  0  0  0  0  0
  143.2178   79.7754  221.5918 H   0  0  0  0  0  0  0  0  0  0  0  0
  143.1941   78.6787  222.9357 H   0  0  0  0  0  0  0  0  0  0  0  0
  139.1981   70.0624  222.5072 H   0  0  0  0  0  0  0  0  0  0  0  0
  138.8770   68.5388  224.4074 H   0  0  0  0  0  0  0  0  0  0  0  0
  139.1752   68.0320  226.7359 H   0  0  0  0  0  0  0  0  0  0  0  0
  141.1924   70.8521  229.2337 H   0  0  0  0  0  0  0  0  0  0  0  0
  141.4986   72.3585  227.3086 H   0  0  0  0  0  0  0  0  0  0  0  0
  1  2  2  0
  2  3  1  0
  3  4  1  0
  4  5  1  0
  5  6  2  0
  5  7  1  0
  7  8  1  0
  8  9  1  0
  9 10  1  0
 10 11  1  0
 11 12  1  0
 12 13  1  0
 13 14  1  0
 14 15  1  0
 15 16  1  0
  2 17  1  0
 17 18  2  0
 18 19  1  0
 19 20  2  0
 20 21  1  0
 21 22  2  0
 22 23  1  0
 22 24  1  0
 24 25  2  0
 25 26  1  0
 26 27  2  0
 11  7  1  0
 16 12  1  0
 27 17  1  0
 26 20  1  0
  3 28  1  0
  4 29  1  0
  4 30  1  0
  8 31  1  0
  8 32  1  0
  9 33  1  0
  9 34  1  0
 10 35  1  0
 10 36  1  0
 11 37  1  1
 12 38  1  6
 13 39  1  0
 13 40  1  0
 14 41  1  0
 14 42  1  0
 15 43  1  0
 16 44  1  0
 16 45  1  0
 18 46  1  0
 19 47  1  0
 21 48  1  0
 24 49  1  0
 25 50  1  0
M  END
>  <smiles>  (173) 
O=C(NCC(=O)N1CCCC1C1CCNC1)c1ccc2cc(F)ccc2n1

>  <score_type>  (173) 
oracle

>  <origin>  (173) 
autodockgpu

>  <m_score__min__energy>  (173) 
-8.7599999999999998

>  <m_primary>  (173) 
energy

>  <rmsd>  (173) 
1.7570682728402842

>  <m_score__min__rmsd>  (173) 
1.7570682728402842

>  <meeko>  (173) 
{"free_energy": -7.81, "intermolecular_energy": -9.3, "internal_energy": -1.45, "cluster_size": 11, "cluster_id": 2, "rank_in_cluster": 6}

>  <energy>  (173) 
-8.13

>  <cluster_rmsd>  (173) 
1.56

>  <cluster>  (173) 
1

$$$$

     RDKit          3D

 50 53  0  0  0  0  0  0  0  0999 V2000
  139.3360   69.5500  222.2480 O   0  0  0  0  0  0  0  0  0  0  0  0
  139.3640   70.7080  222.7700 C   0  0  0  0  0  0  0  0  0  0  0  0
  138.6400   70.9550  223.9700 N   0  0  0  0  0  0  0  0  0  0  0  0
  137.8900   69.8970  224.5740 C   0  0  0  0  0  0  0  0  0  0  0  0
  138.7290   68.6680  224.7840 C   0  0  0  0  0  0  0  0  0  0  0  0
  138.6490   67.7530  223.9260 O   0  0  0  0  0  0  0  0  0  0  0  0
  139.5640   68.5980  225.9340 N   0  0  0  0  0  0  0  0  0  0  0  0
  140.7300   67.7190  226.1060 C   0  0  0  0  0  0  0  0  0  0  0  0
  141.0960   67.8040  227.5500 C   0  0  0  0  0  0  0  0  0  0  0  0
  139.9650   68.5350  228.2350 C   0  0  0  0  0  0  0  0  0  0  0  0
  139.4020   69.3790  227.1150 C   0  0  1  0  0  0  0  0  0  0  0  0
  140.0500   70.7230  227.1140 C   0  0  1  0  0  0  0  0  0  0  0  0
  140.8440   71.0780  228.3200 C   0  0  0  0  0  0  0  0  0  0  0  0
  141.6580   72.2640  227.7880 C   0  0  0  0  0  0  0  0  0  0  0  0
  141.6320   72.1770  226.3510 N   0  0  0  0  0  0  0  0  0  0  0  0
  141.0800   70.8760  226.0180 C   0  0  0  0  0  0  0  0  0  0  0  0
  140.1320   71.7810  222.1470 C   0  0  0  0  0  0  0  0  0  0  0  0
  141.1910   71.4640  221.3190 C   0  0  0  0  0  0  0  0  0  0  0  0
  141.9550   72.4270  220.7020 C   0  0  0  0  0  0  0  0  0  0  0  0
  141.6720   73.7620  220.9010 C   0  0  0  0  0  0  0  0  0  0  0  0
  142.4250   74.7380  220.2910 C   0  0  0  0  0  0  0  0  0  0  0  0
  142.1430   76.0590  220.4890 C   0  0  0  0  0  0  0  0  0  0  0  0
  142.9030   76.9880  219.8750 F   0  0  0  0  0  0  0  0  0  0  0  0
  141.0790   76.3730  221.3210 C   0  0  0  0  0  0  0  0  0  0  0  0
  140.3240   75.3860  221.9330 C   0  0  0  0  0  0  0  0  0  0  0  0
  140.6030   74.0480  221.7360 C   0  0  0  0  0  0  0  0  0  0  0  0
  139.8710   73.0820  222.3290 N   0  0  0  0  0  0  0  0  0  0  0  0
  138.6420   71.8960  224.4260 H   0  0  0  0  0  0  0  0  0  0  0  0
  137.5110   70.2402  225.5480 H   0  0  0  0  0  0  0  0  0  0  0  0
  137.0627   69.6350  223.8981 H   0  0  0  0  0  0  0  0  0  0  0  0
  140.4721   66.6841  225.8368 H   0  0  0  0  0  0  0  0  0  0  0  0
  141.5653   68.0245  225.4587 H   0  0  0  0  0  0  0  0  0  0  0  0
  141.2087   66.7952  227.9738 H   0  0  0  0  0  0  0  0  0  0  0  0
  142.0522   68.3299  227.6885 H   0  0  0  0  0  0  0  0  0  0  0  0
  139.2122   67.8319  228.6211 H   0  0  0  0  0  0  0  0  0  0  0  0
  140.2847   69.1204  229.1097 H   0  0  0  0  0  0  0  0  0  0  0  0
  138.3331   69.6179  227.2175 H   0  0  0  0  0  0  0  0  0  0  0  0
  139.1601   71.3620  227.0151 H   0  0  0  0  0  0  0  0  0  0  0  0
  140.1965   71.3747  229.1583 H   0  0  0  0  0  0  0  0  0  0  0  0
  141.4501   70.2544  228.7254 H   0  0  0  0  0  0  0  0  0  0  0  0
  141.2066   73.2113  228.1180 H   0  0  0  0  0  0  0  0  0  0  0  0
  142.6906   72.2345  228.1660 H   0  0  0  0  0  0  0  0  0  0  0  0
  141.0140   72.8920  225.9030 H   0  0  0  0  0  0  0  0  0  0  0  0
  140.6150   70.8756  225.0211 H   0  0  0  0  0  0  0  0  0  0  0  0
  141.8201   70.0637  225.9689 H   0  0  0  0  0  0  0  0  0  0  0  0
  141.4318   70.4045  221.1470 H   0  0  0  0  0  0  0  0  0  0  0  0
  142.7910   72.1326  220.0504 H   0  0  0  0  0  0  0  0  0  0  0  0
  143.2622   74.4515  219.6375 H   0  0  0  0  0  0  0  0  0  0  0  0
  140.8290   77.4293  221.4989 H   0  0  0  0  0  0  0  0  0  0  0  0
  139.4877   75.6730  222.5873 H   0  0  0  0  0  0  0  0  0  0  0  0
  1  2  2  0
  2  3  1  0
  3  4  1  0
  4  5  1  0
  5  6  2  0
  5  7  1  0
  7  8  1  0
  8  9  1  0
  9 10  1  0
 10 11  1  0
 11 12  1  0
 12 13  1  0
 13 14  1  0
 14 15  1  0
 15 16  1  0
  2 17  1  0
 17 18  2  0
 18 19  1  0
 19 20  2  0
 20 21  1  0
 21 22  2  0
 22 23  1  0
 22 24  1  0
 24 25  2  0
 25 26  1  0
 26 27  2  0
 11  7  1  0
 16 12  1  0
 27 17  1  0
 26 20  1  0
  3 28  1  0
  4 29  1  0
  4 30  1  0
  8 31  1  0
  8 32  1  0
  9 33  1  0
  9 34  1  0
 10 35  1  0
 10 36  1  0
 11 37  1  1
 12 38  1  6
 13 39  1  0
 13 40  1  0
 14 41  1  0
 14 42  1  0
 15 43  1  0
 16 44  1  0
 16 45  1  0
 18 46  1  0
 19 47  1  0
 21 48  1  0
 24 49  1  0
 25 50  1  0
M  END
>  <smiles>  (174) 
O=C(NCC(=O)N1CCCC1C1CCNC1)c1ccc2cc(F)ccc2n1

>  <score_type>  (174) 
oracle

>  <origin>  (174) 
autodockgpu

>  <m_score__min__energy>  (174) 
-8.7599999999999998

>  <m_primary>  (174) 
energy

>  <rmsd>  (174) 
8.65561557196331

>  <m_score__min__rmsd>  (174) 
8.65561557196331

>  <meeko>  (174) 
{"free_energy": -7.51, "intermolecular_energy": -9.0, "internal_energy": -1.48, "cluster_size": 1, "cluster_id": 5, "rank_in_cluster": 1}

>  <energy>  (174) 
-8.1

>  <cluster_rmsd>  (174) 
1.54

>  <cluster>  (174) 
1

$$$$

     RDKit          3D

 50 53  0  0  0  0  0  0  0  0999 V2000
  140.8180   71.2530  221.2380 O   0  0  0  0  0  0  0  0  0  0  0  0
  140.4560   71.8630  222.2920 C   0  0  0  0  0  0  0  0  0  0  0  0
  140.2270   73.2670  222.2480 N   0  0  0  0  0  0  0  0  0  0  0  0
  140.4070   73.9740  221.0170 C   0  0  0  0  0  0  0  0  0  0  0  0
  141.1520   75.2640  221.2170 C   0  0  0  0  0  0  0  0  0  0  0  0
  141.0070   75.8570  222.3160 O   0  0  0  0  0  0  0  0  0  0  0  0
  141.9770   75.7480  220.1630 N   0  0  0  0  0  0  0  0  0  0  0  0
  142.2210   77.1600  219.8340 C   0  0  0  0  0  0  0  0  0  0  0  0
  142.9060   77.1570  218.5090 C   0  0  0  0  0  0  0  0  0  0  0  0
  142.8090   75.7450  217.9800 C   0  0  0  0  0  0  0  0  0  0  0  0
  142.7050   74.9330  219.2500 C   0  0  1  0  0  0  0  0  0  0  0  0
  144.0630   74.4980  219.6890 C   0  0  1  0  0  0  0  0  0  0  0  0
  144.1170   73.5180  220.8060 C   0  0  0  0  0  0  0  0  0  0  0  0
  145.5610   73.0160  220.6770 C   0  0  0  0  0  0  0  0  0  0  0  0
  146.0000   73.3430  219.3460 N   0  0  0  0  0  0  0  0  0  0  0  0
  144.8230   73.7650  218.6070 C   0  0  0  0  0  0  0  0  0  0  0  0
  140.2750   71.1330  223.5430 C   0  0  0  0  0  0  0  0  0  0  0  0
  139.5900   69.9340  223.5350 C   0  0  0  0  0  0  0  0  0  0  0  0
  139.3860   69.1980  224.6780 C   0  0  0  0  0  0  0  0  0  0  0  0
  139.8730   69.6520  225.8870 C   0  0  0  0  0  0  0  0  0  0  0  0
  139.6770   68.9280  227.0390 C   0  0  0  0  0  0  0  0  0  0  0  0
  140.1600   69.3800  228.2340 C   0  0  0  0  0  0  0  0  0  0  0  0
  139.9490   68.6440  229.3440 F   0  0  0  0  0  0  0  0  0  0  0  0
  140.8470   70.5850  228.2370 C   0  0  0  0  0  0  0  0  0  0  0  0
  141.0410   71.3100  227.0730 C   0  0  0  0  0  0  0  0  0  0  0  0
  140.5560   70.8580  225.8610 C   0  0  0  0  0  0  0  0  0  0  0  0
  140.7420   71.5600  224.7230 N   0  0  0  0  0  0  0  0  0  0  0  0
  139.9290   73.7990  223.0970 H   0  0  0  0  0  0  0  0  0  0  0  0
  140.9754   73.3389  220.3216 H   0  0  0  0  0  0  0  0  0  0  0  0
  139.4126   74.2131  220.6119 H   0  0  0  0  0  0  0  0  0  0  0  0
  141.2696   77.7086  219.7719 H   0  0  0  0  0  0  0  0  0  0  0  0
  142.8313   77.6551  220.6037 H   0  0  0  0  0  0  0  0  0  0  0  0
  142.4069   77.8557  217.8214 H   0  0  0  0  0  0  0  0  0  0  0  0
  143.9546   77.4761  218.6022 H   0  0  0  0  0  0  0  0  0  0  0  0
  141.9165   75.6158  217.3501 H   0  0  0  0  0  0  0  0  0  0  0  0
  143.6549   75.4551  217.3393 H   0  0  0  0  0  0  0  0  0  0  0  0
  142.1618   73.9829  219.1398 H   0  0  0  0  0  0  0  0  0  0  0  0
  144.4861   75.4696  219.9839 H   0  0  0  0  0  0  0  0  0  0  0  0
  143.9418   74.0019  221.7782 H   0  0  0  0  0  0  0  0  0  0  0  0
  143.3535   72.7277  220.7563 H   0  0  0  0  0  0  0  0  0  0  0  0
  146.2021   73.5134  221.4197 H   0  0  0  0  0  0  0  0  0  0  0  0
  145.6184   71.9321  220.8553 H   0  0  0  0  0  0  0  0  0  0  0  0
  146.6770   74.1390  219.3160 H   0  0  0  0  0  0  0  0  0  0  0  0
  145.0855   74.4321  217.7727 H   0  0  0  0  0  0  0  0  0  0  0  0
  144.2643   72.9460  218.1304 H   0  0  0  0  0  0  0  0  0  0  0  0
  139.1940   69.5548  222.5814 H   0  0  0  0  0  0  0  0  0  0  0  0
  138.8347   68.2474  224.6291 H   0  0  0  0  0  0  0  0  0  0  0  0
  139.1265   67.9765  226.9981 H   0  0  0  0  0  0  0  0  0  0  0  0
  141.2467   70.9735  229.1853 H   0  0  0  0  0  0  0  0  0  0  0  0
  141.5906   72.2619  227.1143 H   0  0  0  0  0  0  0  0  0  0  0  0
  1  2  2  0
  2  3  1  0
  3  4  1  0
  4  5  1  0
  5  6  2  0
  5  7  1  0
  7  8  1  0
  8  9  1  0
  9 10  1  0
 10 11  1  0
 11 12  1  0
 12 13  1  0
 13 14  1  0
 14 15  1  0
 15 16  1  0
  2 17  1  0
 17 18  2  0
 18 19  1  0
 19 20  2  0
 20 21  1  0
 21 22  2  0
 22 23  1  0
 22 24  1  0
 24 25  2  0
 25 26  1  0
 26 27  2  0
 11  7  1  0
 16 12  1  0
 27 17  1  0
 26 20  1  0
  3 28  1  0
  4 29  1  0
  4 30  1  0
  8 31  1  0
  8 32  1  0
  9 33  1  0
  9 34  1  0
 10 35  1  0
 10 36  1  0
 11 37  1  6
 12 38  1  1
 13 39  1  0
 13 40  1  0
 14 41  1  0
 14 42  1  0
 15 43  1  0
 16 44  1  0
 16 45  1  0
 18 46  1  0
 19 47  1  0
 21 48  1  0
 24 49  1  0
 25 50  1  0
M  END
>  <smiles>  (175) 
O=C(NCC(=O)N1CCCC1C1CCNC1)c1ccc2cc(F)ccc2n1

>  <score_type>  (175) 
oracle

>  <origin>  (175) 
autodockgpu

>  <m_score__min__energy>  (175) 
-8.7599999999999998

>  <m_primary>  (175) 
energy

>  <rmsd>  (175) 
2.273928074820935

>  <m_score__min__rmsd>  (175) 
2.273928074820935

>  <meeko>  (175) 
{"free_energy": -8.55, "intermolecular_energy": -10.04, "internal_energy": -1.62, "cluster_size": 35, "cluster_id": 1, "rank_in_cluster": 10}

>  <energy>  (175) 
-8.09

>  <cluster_rmsd>  (175) 
1.53

>  <cluster>  (175) 
1

$$$$

     RDKit          3D

 50 53  0  0  0  0  0  0  0  0999 V2000
  140.7820   71.3550  221.2730 O   0  0  0  0  0  0  0  0  0  0  0  0
  140.3360   71.9100  222.3250 C   0  0  0  0  0  0  0  0  0  0  0  0
  139.9740   73.2870  222.2930 N   0  0  0  0  0  0  0  0  0  0  0  0
  140.1170   74.0270  221.0770 C   0  0  0  0  0  0  0  0  0  0  0  0
  141.0830   75.1680  221.2280 C   0  0  0  0  0  0  0  0  0  0  0  0
  141.0280   75.8440  222.2870 O   0  0  0  0  0  0  0  0  0  0  0  0
  142.0060   75.4280  220.1760 N   0  0  0  0  0  0  0  0  0  0  0  0
  142.5650   76.7400  219.8180 C   0  0  0  0  0  0  0  0  0  0  0  0
  143.2440   76.5490  218.5040 C   0  0  0  0  0  0  0  0  0  0  0  0
  142.8360   75.1810  218.0060 C   0  0  0  0  0  0  0  0  0  0  0  0
  142.5410   74.4460  219.2920 C   0  0  1  0  0  0  0  0  0  0  0  0
  143.7620   73.7290  219.7620 C   0  0  1  0  0  0  0  0  0  0  0  0
  144.7850   74.5490  220.4620 C   0  0  0  0  0  0  0  0  0  0  0  0
  145.6200   73.4510  221.1350 C   0  0  0  0  0  0  0  0  0  0  0  0
  144.8030   72.2660  221.1680 N   0  0  0  0  0  0  0  0  0  0  0  0
  143.4580   72.6720  220.7990 C   0  0  0  0  0  0  0  0  0  0  0  0
  140.1940   71.1460  223.5600 C   0  0  0  0  0  0  0  0  0  0  0  0
  139.5470   69.9270  223.5320 C   0  0  0  0  0  0  0  0  0  0  0  0
  139.3800   69.1590  224.6610 C   0  0  0  0  0  0  0  0  0  0  0  0
  139.8680   69.6000  225.8730 C   0  0  0  0  0  0  0  0  0  0  0  0
  139.7090   68.8440  227.0110 C   0  0  0  0  0  0  0  0  0  0  0  0
  140.1930   69.2830  228.2100 C   0  0  0  0  0  0  0  0  0  0  0  0
  140.0190   68.5160  229.3050 F   0  0  0  0  0  0  0  0  0  0  0  0
  140.8430   70.5090  228.2330 C   0  0  0  0  0  0  0  0  0  0  0  0
  140.9990   71.2660  227.0840 C   0  0  0  0  0  0  0  0  0  0  0  0
  140.5130   70.8280  225.8680 C   0  0  0  0  0  0  0  0  0  0  0  0
  140.6620   71.5610  224.7450 N   0  0  0  0  0  0  0  0  0  0  0  0
  139.6030   73.7740  223.1400 H   0  0  0  0  0  0  0  0  0  0  0  0
  140.4841   73.3515  220.2903 H   0  0  0  0  0  0  0  0  0  0  0  0
  139.1340   74.4441  220.8132 H   0  0  0  0  0  0  0  0  0  0  0  0
  141.7623   77.4868  219.7291 H   0  0  0  0  0  0  0  0  0  0  0  0
  143.2640   77.1046  220.5851 H   0  0  0  0  0  0  0  0  0  0  0  0
  142.9216   77.3241  217.7932 H   0  0  0  0  0  0  0  0  0  0  0  0
  144.3366   76.6264  218.6054 H   0  0  0  0  0  0  0  0  0  0  0  0
  141.9428   75.2397  217.3667 H   0  0  0  0  0  0  0  0  0  0  0  0
  143.6005   74.6921  217.3843 H   0  0  0  0  0  0  0  0  0  0  0  0
  141.7997   73.6391  219.1949 H   0  0  0  0  0  0  0  0  0  0  0  0
  144.1399   73.3490  218.8014 H   0  0  0  0  0  0  0  0  0  0  0  0
  145.3860   75.1381  219.7537 H   0  0  0  0  0  0  0  0  0  0  0  0
  144.3734   75.2980  221.1546 H   0  0  0  0  0  0  0  0  0  0  0  0
  146.5357   73.2632  220.5552 H   0  0  0  0  0  0  0  0  0  0  0  0
  145.9204   73.7508  222.1498 H   0  0  0  0  0  0  0  0  0  0  0  0
  145.0990   71.5380  220.4790 H   0  0  0  0  0  0  0  0  0  0  0  0
  142.8850   71.8364  220.3708 H   0  0  0  0  0  0  0  0  0  0  0  0
  142.8383   73.0196  221.6387 H   0  0  0  0  0  0  0  0  0  0  0  0
  139.1515   69.5572  222.5745 H   0  0  0  0  0  0  0  0  0  0  0  0
  138.8573   68.1932  224.5970 H   0  0  0  0  0  0  0  0  0  0  0  0
  139.1873   67.8772  226.9547 H   0  0  0  0  0  0  0  0  0  0  0  0
  141.2432   70.8878  229.1850 H   0  0  0  0  0  0  0  0  0  0  0  0
  141.5193   72.2335  227.1410 H   0  0  0  0  0  0  0  0  0  0  0  0
  1  2  2  0
  2  3  1  0
  3  4  1  0
  4  5  1  0
  5  6  2  0
  5  7  1  0
  7  8  1  0
  8  9  1  0
  9 10  1  0
 10 11  1  0
 11 12  1  0
 12 13  1  0
 13 14  1  0
 14 15  1  0
 15 16  1  0
  2 17  1  0
 17 18  2  0
 18 19  1  0
 19 20  2  0
 20 21  1  0
 21 22  2  0
 22 23  1  0
 22 24  1  0
 24 25  2  0
 25 26  1  0
 26 27  2  0
 11  7  1  0
 16 12  1  0
 27 17  1  0
 26 20  1  0
  3 28  1  0
  4 29  1  0
  4 30  1  0
  8 31  1  0
  8 32  1  0
  9 33  1  0
  9 34  1  0
 10 35  1  0
 10 36  1  0
 11 37  1  6
 12 38  1  6
 13 39  1  0
 13 40  1  0
 14 41  1  0
 14 42  1  0
 15 43  1  0
 16 44  1  0
 16 45  1  0
 18 46  1  0
 19 47  1  0
 21 48  1  0
 24 49  1  0
 25 50  1  0
M  END
>  <smiles>  (176) 
O=C(NCC(=O)N1CCCC1C1CCNC1)c1ccc2cc(F)ccc2n1

>  <score_type>  (176) 
oracle

>  <origin>  (176) 
autodockgpu

>  <m_score__min__energy>  (176) 
-8.7599999999999998

>  <m_primary>  (176) 
energy

>  <rmsd>  (176) 
2.3262077922609086

>  <m_score__min__rmsd>  (176) 
2.3262077922609086

>  <meeko>  (176) 
{"free_energy": -7.95, "intermolecular_energy": -9.44, "internal_energy": -1.52, "cluster_size": 35, "cluster_id": 1, "rank_in_cluster": 28}

>  <energy>  (176) 
-8.07

>  <cluster_rmsd>  (176) 
0.91

>  <cluster>  (176) 
1

$$$$

     RDKit          3D

 50 53  0  0  0  0  0  0  0  0999 V2000
  139.6840   73.2780  222.7390 O   0  0  0  0  0  0  0  0  0  0  0  0
  139.8850   72.0280  222.6330 C   0  0  0  0  0  0  0  0  0  0  0  0
  140.0910   71.4560  221.3460 N   0  0  0  0  0  0  0  0  0  0  0  0
  140.0700   72.2970  220.1880 C   0  0  0  0  0  0  0  0  0  0  0  0
  141.4570   72.6350  219.7190 C   0  0  0  0  0  0  0  0  0  0  0  0
  142.1530   71.7070  219.2350 O   0  0  0  0  0  0  0  0  0  0  0  0
  141.9130   73.9780  219.8440 N   0  0  0  0  0  0  0  0  0  0  0  0
  141.4280   74.9710  220.8140 C   0  0  0  0  0  0  0  0  0  0  0  0
  141.9930   76.2800  220.3750 C   0  0  0  0  0  0  0  0  0  0  0  0
  142.5850   76.0520  219.0030 C   0  0  0  0  0  0  0  0  0  0  0  0
  142.9230   74.5800  219.0400 C   0  0  1  0  0  0  0  0  0  0  0  0
  144.3320   74.3920  219.4960 C   0  0  1  0  0  0  0  0  0  0  0  0
  144.5180   73.7670  220.8320 C   0  0  0  0  0  0  0  0  0  0  0  0
  145.9960   73.3640  220.7560 C   0  0  0  0  0  0  0  0  0  0  0  0
  146.3520   73.3440  219.3610 N   0  0  0  0  0  0  0  0  0  0  0  0
  145.1150   73.4510  218.6090 C   0  0  0  0  0  0  0  0  0  0  0  0
  139.9040   71.1790  223.8200 C   0  0  0  0  0  0  0  0  0  0  0  0
  139.2940   69.9410  223.7790 C   0  0  0  0  0  0  0  0  0  0  0  0
  139.2760   69.0940  224.8630 C   0  0  0  0  0  0  0  0  0  0  0  0
  139.8830   69.4730  226.0420 C   0  0  0  0  0  0  0  0  0  0  0  0
  139.8750   68.6380  227.1350 C   0  0  0  0  0  0  0  0  0  0  0  0
  140.4760   69.0150  228.3020 C   0  0  0  0  0  0  0  0  0  0  0  0
  140.4480   68.1710  229.3530 F   0  0  0  0  0  0  0  0  0  0  0  0
  141.0870   70.2600  228.3390 C   0  0  0  0  0  0  0  0  0  0  0  0
  141.0920   71.0960  227.2350 C   0  0  0  0  0  0  0  0  0  0  0  0
  140.4870   70.7210  226.0520 C   0  0  0  0  0  0  0  0  0  0  0  0
  140.4880   71.5320  224.9730 N   0  0  0  0  0  0  0  0  0  0  0  0
  140.2590   70.4320  221.2230 H   0  0  0  0  0  0  0  0  0  0  0  0
  139.5376   71.7756  219.3788 H   0  0  0  0  0  0  0  0  0  0  0  0
  139.5613   73.2349  220.4556 H   0  0  0  0  0  0  0  0  0  0  0  0
  140.3286   75.0071  220.8075 H   0  0  0  0  0  0  0  0  0  0  0  0
  141.7386   74.7200  221.8390 H   0  0  0  0  0  0  0  0  0  0  0  0
  141.1987   77.0394  220.3250 H   0  0  0  0  0  0  0  0  0  0  0  0
  142.7538   76.6426  221.0819 H   0  0  0  0  0  0  0  0  0  0  0  0
  141.8537   76.2732  218.2116 H   0  0  0  0  0  0  0  0  0  0  0  0
  143.4482   76.6972  218.7825 H   0  0  0  0  0  0  0  0  0  0  0  0
  142.9102   74.0853  218.0576 H   0  0  0  0  0  0  0  0  0  0  0  0
  144.6748   75.4372  219.4886 H   0  0  0  0  0  0  0  0  0  0  0  0
  144.3354   74.4858  221.6444 H   0  0  0  0  0  0  0  0  0  0  0  0
  143.8294   72.9365  221.0467 H   0  0  0  0  0  0  0  0  0  0  0  0
  146.6160   74.0960  221.2943 H   0  0  0  0  0  0  0  0  0  0  0  0
  146.1604   72.3797  221.2188 H   0  0  0  0  0  0  0  0  0  0  0  0
  146.9510   74.1510  219.0740 H   0  0  0  0  0  0  0  0  0  0  0  0
  145.2831   73.8803  217.6103 H   0  0  0  0  0  0  0  0  0  0  0  0
  144.6171   72.4910  218.4077 H   0  0  0  0  0  0  0  0  0  0  0  0
  138.8053   69.6207  222.8470 H   0  0  0  0  0  0  0  0  0  0  0  0
  138.7782   68.1159  224.7895 H   0  0  0  0  0  0  0  0  0  0  0  0
  139.3801   67.6578  227.0686 H   0  0  0  0  0  0  0  0  0  0  0  0
  141.5785   70.5905  229.2660 H   0  0  0  0  0  0  0  0  0  0  0  0
  141.5867   72.0762  227.3018 H   0  0  0  0  0  0  0  0  0  0  0  0
  1  2  2  0
  2  3  1  0
  3  4  1  0
  4  5  1  0
  5  6  2  0
  5  7  1  0
  7  8  1  0
  8  9  1  0
  9 10  1  0
 10 11  1  0
 11 12  1  0
 12 13  1  0
 13 14  1  0
 14 15  1  0
 15 16  1  0
  2 17  1  0
 17 18  2  0
 18 19  1  0
 19 20  2  0
 20 21  1  0
 21 22  2  0
 22 23  1  0
 22 24  1  0
 24 25  2  0
 25 26  1  0
 26 27  2  0
 11  7  1  0
 16 12  1  0
 27 17  1  0
 26 20  1  0
  3 28  1  0
  4 29  1  0
  4 30  1  0
  8 31  1  0
  8 32  1  0
  9 33  1  0
  9 34  1  0
 10 35  1  0
 10 36  1  0
 11 37  1  6
 12 38  1  1
 13 39  1  0
 13 40  1  0
 14 41  1  0
 14 42  1  0
 15 43  1  0
 16 44  1  0
 16 45  1  0
 18 46  1  0
 19 47  1  0
 21 48  1  0
 24 49  1  0
 25 50  1  0
M  END
>  <smiles>  (177) 
O=C(NCC(=O)N1CCCC1C1CCNC1)c1ccc2cc(F)ccc2n1

>  <score_type>  (177) 
oracle

>  <origin>  (177) 
autodockgpu

>  <m_score__min__energy>  (177) 
-8.7599999999999998

>  <m_primary>  (177) 
energy

>  <rmsd>  (177) 
2.4269717099662915

>  <m_score__min__rmsd>  (177) 
2.4269717099662915

>  <meeko>  (177) 
{"free_energy": -8.25, "intermolecular_energy": -9.75, "internal_energy": -1.28, "cluster_size": 35, "cluster_id": 1, "rank_in_cluster": 20}

>  <energy>  (177) 
-7.97

>  <cluster_rmsd>  (177) 
0.92

>  <cluster>  (177) 
1

$$$$

     RDKit          3D

 50 53  0  0  0  0  0  0  0  0999 V2000
  141.2790   71.5150  221.4510 O   0  0  0  0  0  0  0  0  0  0  0  0
  140.5940   72.0560  222.3740 C   0  0  0  0  0  0  0  0  0  0  0  0
  140.0850   73.3720  222.1930 N   0  0  0  0  0  0  0  0  0  0  0  0
  140.3500   74.0700  220.9720 C   0  0  0  0  0  0  0  0  0  0  0  0
  141.1550   75.3170  221.2050 C   0  0  0  0  0  0  0  0  0  0  0  0
  141.0580   75.8740  222.3280 O   0  0  0  0  0  0  0  0  0  0  0  0
  141.9820   75.8050  220.1540 N   0  0  0  0  0  0  0  0  0  0  0  0
  142.2370   77.2180  219.8360 C   0  0  0  0  0  0  0  0  0  0  0  0
  142.9180   77.2220  218.5100 C   0  0  0  0  0  0  0  0  0  0  0  0
  142.8080   75.8150  217.9680 C   0  0  0  0  0  0  0  0  0  0  0  0
  142.7010   74.9920  219.2310 C   0  0  1  0  0  0  0  0  0  0  0  0
  144.0570   74.5420  219.6630 C   0  0  1  0  0  0  0  0  0  0  0  0
  144.1110   73.6390  220.8420 C   0  0  0  0  0  0  0  0  0  0  0  0
  145.5340   73.0810  220.7100 C   0  0  0  0  0  0  0  0  0  0  0  0
  145.9450   73.3020  219.3480 N   0  0  0  0  0  0  0  0  0  0  0  0
  144.7620   73.7130  218.6130 C   0  0  0  0  0  0  0  0  0  0  0  0
  140.3300   71.3360  223.6160 C   0  0  0  0  0  0  0  0  0  0  0  0
  139.6370   70.1420  223.5730 C   0  0  0  0  0  0  0  0  0  0  0  0
  139.3540   69.4160  224.7060 C   0  0  0  0  0  0  0  0  0  0  0  0
  139.7690   69.8740  225.9400 C   0  0  0  0  0  0  0  0  0  0  0  0
  139.4950   69.1600  227.0820 C   0  0  0  0  0  0  0  0  0  0  0  0
  139.9070   69.6160  228.3020 C   0  0  0  0  0  0  0  0  0  0  0  0
  139.6210   68.8890  229.4010 F   0  0  0  0  0  0  0  0  0  0  0  0
  140.6020   70.8150  228.3400 C   0  0  0  0  0  0  0  0  0  0  0  0
  140.8750   71.5300  227.1860 C   0  0  0  0  0  0  0  0  0  0  0  0
  140.4630   71.0750  225.9490 C   0  0  0  0  0  0  0  0  0  0  0  0
  140.7250   71.7670  224.8210 N   0  0  0  0  0  0  0  0  0  0  0  0
  139.5180   73.8460  222.9320 H   0  0  0  0  0  0  0  0  0  0  0  0
  140.9096   73.4061  220.2967 H   0  0  0  0  0  0  0  0  0  0  0  0
  139.3863   74.3630  220.5298 H   0  0  0  0  0  0  0  0  0  0  0  0
  141.2899   77.7748  219.7814 H   0  0  0  0  0  0  0  0  0  0  0  0
  142.8539   77.7007  220.6082 H   0  0  0  0  0  0  0  0  0  0  0  0
  142.4227   77.9311  217.8303 H   0  0  0  0  0  0  0  0  0  0  0  0
  143.9693   77.5318  218.6032 H   0  0  0  0  0  0  0  0  0  0  0  0
  141.9127   75.6988  217.3396 H   0  0  0  0  0  0  0  0  0  0  0  0
  143.6497   75.5242  217.3223 H   0  0  0  0  0  0  0  0  0  0  0  0
  142.1500   74.0473  219.1131 H   0  0  0  0  0  0  0  0  0  0  0  0
  144.5198   75.5160  219.8801 H   0  0  0  0  0  0  0  0  0  0  0  0
  143.9789   74.1931  221.7830 H   0  0  0  0  0  0  0  0  0  0  0  0
  143.3215   72.8734  220.8665 H   0  0  0  0  0  0  0  0  0  0  0  0
  146.2116   73.6058  221.3995 H   0  0  0  0  0  0  0  0  0  0  0  0
  145.5620   72.0104  220.9610 H   0  0  0  0  0  0  0  0  0  0  0  0
  146.6460   74.0710  219.2460 H   0  0  0  0  0  0  0  0  0  0  0  0
  145.0219   74.3136  217.7289 H   0  0  0  0  0  0  0  0  0  0  0  0
  144.1641   72.8836  218.2073 H   0  0  0  0  0  0  0  0  0  0  0  0
  139.2998   69.7586  222.5987 H   0  0  0  0  0  0  0  0  0  0  0  0
  138.7971   68.4706  224.6288 H   0  0  0  0  0  0  0  0  0  0  0  0
  138.9392   68.2133  227.0130 H   0  0  0  0  0  0  0  0  0  0  0  0
  140.9444   71.2073  229.3090 H   0  0  0  0  0  0  0  0  0  0  0  0
  141.4299   72.4772  227.2559 H   0  0  0  0  0  0  0  0  0  0  0  0
  1  2  2  0
  2  3  1  0
  3  4  1  0
  4  5  1  0
  5  6  2  0
  5  7  1  0
  7  8  1  0
  8  9  1  0
  9 10  1  0
 10 11  1  0
 11 12  1  0
 12 13  1  0
 13 14  1  0
 14 15  1  0
 15 16  1  0
  2 17  1  0
 17 18  2  0
 18 19  1  0
 19 20  2  0
 20 21  1  0
 21 22  2  0
 22 23  1  0
 22 24  1  0
 24 25  2  0
 25 26  1  0
 26 27  2  0
 11  7  1  0
 16 12  1  0
 27 17  1  0
 26 20  1  0
  3 28  1  0
  4 29  1  0
  4 30  1  0
  8 31  1  0
  8 32  1  0
  9 33  1  0
  9 34  1  0
 10 35  1  0
 10 36  1  0
 11 37  1  6
 12 38  1  1
 13 39  1  0
 13 40  1  0
 14 41  1  0
 14 42  1  0
 15 43  1  0
 16 44  1  0
 16 45  1  0
 18 46  1  0
 19 47  1  0
 21 48  1  0
 24 49  1  0
 25 50  1  0
M  END
>  <smiles>  (178) 
O=C(NCC(=O)N1CCCC1C1CCNC1)c1ccc2cc(F)ccc2n1

>  <score_type>  (178) 
oracle

>  <origin>  (178) 
autodockgpu

>  <m_score__min__energy>  (178) 
-8.7599999999999998

>  <m_primary>  (178) 
energy

>  <rmsd>  (178) 
2.3222042075546825

>  <m_score__min__rmsd>  (178) 
2.3222042075546825

>  <meeko>  (178) 
{"free_energy": -8.69, "intermolecular_energy": -10.18, "internal_energy": -1.49, "cluster_size": 35, "cluster_id": 1, "rank_in_cluster": 4}

>  <energy>  (178) 
-7.95

>  <cluster_rmsd>  (178) 
0.93

>  <cluster>  (178) 
1

$$$$

     RDKit          3D

 50 53  0  0  0  0  0  0  0  0999 V2000
  141.3570   72.5150  221.8070 O   0  0  0  0  0  0  0  0  0  0  0  0
  140.3430   72.5410  222.5710 C   0  0  0  0  0  0  0  0  0  0  0  0
  139.3040   73.4840  222.3280 N   0  0  0  0  0  0  0  0  0  0  0  0
  139.4160   74.3900  221.2260 C   0  0  0  0  0  0  0  0  0  0  0  0
  139.4800   75.8200  221.6830 C   0  0  0  0  0  0  0  0  0  0  0  0
  138.8700   76.1240  222.7390 O   0  0  0  0  0  0  0  0  0  0  0  0
  140.2200   76.7540  220.9050 N   0  0  0  0  0  0  0  0  0  0  0  0
  139.8830   77.2140  219.5500 C   0  0  0  0  0  0  0  0  0  0  0  0
  141.0810   77.9530  219.0580 C   0  0  0  0  0  0  0  0  0  0  0  0
  142.1890   77.6780  220.0500 C   0  0  0  0  0  0  0  0  0  0  0  0
  141.4210   77.4000  221.3210 C   0  0  1  0  0  0  0  0  0  0  0  0
  141.2570   78.6600  222.1040 C   0  0  1  0  0  0  0  0  0  0  0  0
  141.7920   78.6520  223.4910 C   0  0  0  0  0  0  0  0  0  0  0  0
  141.8310   80.1560  223.7900 C   0  0  0  0  0  0  0  0  0  0  0  0
  141.7950   80.8360  222.5220 N   0  0  0  0  0  0  0  0  0  0  0  0
  142.0020   79.8280  221.4980 C   0  0  0  0  0  0  0  0  0  0  0  0
  140.2390   71.6140  223.6930 C   0  0  0  0  0  0  0  0  0  0  0  0
  139.6520   70.3790  223.4990 C   0  0  0  0  0  0  0  0  0  0  0  0
  139.5230   69.4600  224.5140 C   0  0  0  0  0  0  0  0  0  0  0  0
  139.9880   69.7590  225.7780 C   0  0  0  0  0  0  0  0  0  0  0  0
  139.8670   68.8510  226.8040 C   0  0  0  0  0  0  0  0  0  0  0  0
  140.3290   69.1500  228.0540 C   0  0  0  0  0  0  0  0  0  0  0  0
  140.1930   68.2360  229.0350 F   0  0  0  0  0  0  0  0  0  0  0  0
  140.9160   70.3920  228.2440 C   0  0  0  0  0  0  0  0  0  0  0  0
  141.0350   71.3030  227.2070 C   0  0  0  0  0  0  0  0  0  0  0  0
  140.5720   71.0070  225.9400 C   0  0  0  0  0  0  0  0  0  0  0  0
  140.6850   71.8890  224.9260 N   0  0  0  0  0  0  0  0  0  0  0  0
  138.4560   73.5330  222.9380 H   0  0  0  0  0  0  0  0  0  0  0  0
  140.3315   74.1548  220.6634 H   0  0  0  0  0  0  0  0  0  0  0  0
  138.5227   74.2726  220.5949 H   0  0  0  0  0  0  0  0  0  0  0  0
  139.6686   76.3552  218.8969 H   0  0  0  0  0  0  0  0  0  0  0  0
  138.9877   77.8531  219.5521 H   0  0  0  0  0  0  0  0  0  0  0  0
  141.3667   77.5924  218.0588 H   0  0  0  0  0  0  0  0  0  0  0  0
  140.8784   79.0310  218.9749 H   0  0  0  0  0  0  0  0  0  0  0  0
  142.7874   76.8061  219.7473 H   0  0  0  0  0  0  0  0  0  0  0  0
  142.9116   78.5021  220.1431 H   0  0  0  0  0  0  0  0  0  0  0  0
  141.9363   76.7324  222.0273 H   0  0  0  0  0  0  0  0  0  0  0  0
  140.1606   78.7479  222.0954 H   0  0  0  0  0  0  0  0  0  0  0  0
  141.1213   78.1189  224.1810 H   0  0  0  0  0  0  0  0  0  0  0  0
  142.7584   78.1389  223.6044 H   0  0  0  0  0  0  0  0  0  0  0  0
  140.9605   80.4434  224.3981 H   0  0  0  0  0  0  0  0  0  0  0  0
  142.7376   80.4218  224.3534 H   0  0  0  0  0  0  0  0  0  0  0  0
  140.8730   81.2880  222.3200 H   0  0  0  0  0  0  0  0  0  0  0  0
  141.5657   80.1321  220.5351 H   0  0  0  0  0  0  0  0  0  0  0  0
  143.0571   79.6252  221.2620 H   0  0  0  0  0  0  0  0  0  0  0  0
  139.2747   70.1216  222.4983 H   0  0  0  0  0  0  0  0  0  0  0  0
  139.0492   68.4868  224.3181 H   0  0  0  0  0  0  0  0  0  0  0  0
  139.3941   67.8757  226.6162 H   0  0  0  0  0  0  0  0  0  0  0  0
  141.2958   70.6600  229.2409 H   0  0  0  0  0  0  0  0  0  0  0  0
  141.5063   72.2788  227.3961 H   0  0  0  0  0  0  0  0  0  0  0  0
  1  2  2  0
  2  3  1  0
  3  4  1  0
  4  5  1  0
  5  6  2  0
  5  7  1  0
  7  8  1  0
  8  9  1  0
  9 10  1  0
 10 11  1  0
 11 12  1  0
 12 13  1  0
 13 14  1  0
 14 15  1  0
 15 16  1  0
  2 17  1  0
 17 18  2  0
 18 19  1  0
 19 20  2  0
 20 21  1  0
 21 22  2  0
 22 23  1  0
 22 24  1  0
 24 25  2  0
 25 26  1  0
 26 27  2  0
 11  7  1  0
 16 12  1  0
 27 17  1  0
 26 20  1  0
  3 28  1  0
  4 29  1  0
  4 30  1  0
  8 31  1  0
  8 32  1  0
  9 33  1  0
  9 34  1  0
 10 35  1  0
 10 36  1  0
 11 37  1  1
 12 38  1  1
 13 39  1  0
 13 40  1  0
 14 41  1  0
 14 42  1  0
 15 43  1  0
 16 44  1  0
 16 45  1  0
 18 46  1  0
 19 47  1  0
 21 48  1  0
 24 49  1  0
 25 50  1  0
M  END
>  <smiles>  (179) 
O=C(NCC(=O)N1CCCC1C1CCNC1)c1ccc2cc(F)ccc2n1

>  <score_type>  (179) 
oracle

>  <origin>  (179) 
autodockgpu

>  <m_score__min__energy>  (179) 
-8.7599999999999998

>  <m_primary>  (179) 
energy

>  <rmsd>  (179) 
1.7570351148560077

>  <m_score__min__rmsd>  (179) 
1.7570351148560077

>  <meeko>  (179) 
{"free_energy": -8.0, "intermolecular_energy": -9.49, "internal_energy": -1.2, "cluster_size": 11, "cluster_id": 2, "rank_in_cluster": 4}

>  <energy>  (179) 
-7.95

>  <cluster_rmsd>  (179) 
0.92

>  <cluster>  (179) 
1

$$$$

     RDKit          3D

 50 53  0  0  0  0  0  0  0  0999 V2000
  139.0800   72.3170  222.7140 O   0  0  0  0  0  0  0  0  0  0  0  0
  140.2260   71.8680  223.0310 C   0  0  0  0  0  0  0  0  0  0  0  0
  141.3140   72.0190  222.1260 N   0  0  0  0  0  0  0  0  0  0  0  0
  141.1040   72.6740  220.8710 C   0  0  0  0  0  0  0  0  0  0  0  0
  141.1440   74.1700  221.0090 C   0  0  0  0  0  0  0  0  0  0  0  0
  140.5040   74.6860  221.9600 O   0  0  0  0  0  0  0  0  0  0  0  0
  141.8970   74.9240  220.0660 N   0  0  0  0  0  0  0  0  0  0  0  0
  141.8610   76.3840  219.8970 C   0  0  0  0  0  0  0  0  0  0  0  0
  142.5890   76.6670  218.6260 C   0  0  0  0  0  0  0  0  0  0  0  0
  142.8060   75.3310  217.9520 C   0  0  0  0  0  0  0  0  0  0  0  0
  142.8160   74.3780  219.1240 C   0  0  1  0  0  0  0  0  0  0  0  0
  144.2140   74.1750  219.6050 C   0  0  1  0  0  0  0  0  0  0  0  0
  144.3820   73.3390  220.8230 C   0  0  0  0  0  0  0  0  0  0  0  0
  145.8810   73.0200  220.7460 C   0  0  0  0  0  0  0  0  0  0  0  0
  146.2890   73.2540  219.3850 N   0  0  0  0  0  0  0  0  0  0  0  0
  145.0760   73.4340  218.6080 C   0  0  0  0  0  0  0  0  0  0  0  0
  140.4290   71.2010  224.3130 C   0  0  0  0  0  0  0  0  0  0  0  0
  140.9810   71.9060  225.3640 C   0  0  0  0  0  0  0  0  0  0  0  0
  141.2000   71.3360  226.5960 C   0  0  0  0  0  0  0  0  0  0  0  0
  140.8630   70.0160  226.8140 C   0  0  0  0  0  0  0  0  0  0  0  0
  141.0750   69.4310  228.0410 C   0  0  0  0  0  0  0  0  0  0  0  0
  140.7410   68.1240  228.2540 C   0  0  0  0  0  0  0  0  0  0  0  0
  140.9630   67.5840  229.4690 F   0  0  0  0  0  0  0  0  0  0  0  0
  140.1880   67.4190  227.1950 C   0  0  0  0  0  0  0  0  0  0  0  0
  139.9780   68.0140  225.9620 C   0  0  0  0  0  0  0  0  0  0  0  0
  140.3110   69.3350  225.7400 C   0  0  0  0  0  0  0  0  0  0  0  0
  140.1090   69.9200  224.5400 N   0  0  0  0  0  0  0  0  0  0  0  0
  142.2690   71.6610  222.3550 H   0  0  0  0  0  0  0  0  0  0  0  0
  141.8908   72.3599  220.1693 H   0  0  0  0  0  0  0  0  0  0  0  0
  140.1078   72.3912  220.5001 H   0  0  0  0  0  0  0  0  0  0  0  0
  140.8210   76.7356  219.8286 H   0  0  0  0  0  0  0  0  0  0  0  0
  142.3236   76.9007  220.7508 H   0  0  0  0  0  0  0  0  0  0  0  0
  141.9877   77.3251  217.9815 H   0  0  0  0  0  0  0  0  0  0  0  0
  143.5447   77.1764  218.8187 H   0  0  0  0  0  0  0  0  0  0  0  0
  141.9867   75.0981  217.2559 H   0  0  0  0  0  0  0  0  0  0  0  0
  143.7201   75.2886  217.3415 H   0  0  0  0  0  0  0  0  0  0  0  0
  142.4845   73.3573  218.8826 H   0  0  0  0  0  0  0  0  0  0  0  0
  144.5033   75.2200  219.7903 H   0  0  0  0  0  0  0  0  0  0  0  0
  144.1334   73.8993  221.7364 H   0  0  0  0  0  0  0  0  0  0  0  0
  143.7289   72.4547  220.8629 H   0  0  0  0  0  0  0  0  0  0  0  0
  146.4428   73.6758  221.4274 H   0  0  0  0  0  0  0  0  0  0  0  0
  146.0778   71.9792  221.0427 H   0  0  0  0  0  0  0  0  0  0  0  0
  146.8570   74.1240  219.2660 H   0  0  0  0  0  0  0  0  0  0  0  0
  145.2584   74.0343  217.7044 H   0  0  0  0  0  0  0  0  0  0  0  0
  144.6349   72.5014  218.2263 H   0  0  0  0  0  0  0  0  0  0  0  0
  141.2551   72.9602  225.2104 H   0  0  0  0  0  0  0  0  0  0  0  0
  141.6436   71.9320  227.4072 H   0  0  0  0  0  0  0  0  0  0  0  0
  141.5172   70.0209  228.8574 H   0  0  0  0  0  0  0  0  0  0  0  0
  139.9102   66.3643  227.3376 H   0  0  0  0  0  0  0  0  0  0  0  0
  139.5380   67.4232  225.1451 H   0  0  0  0  0  0  0  0  0  0  0  0
  1  2  2  0
  2  3  1  0
  3  4  1  0
  4  5  1  0
  5  6  2  0
  5  7  1  0
  7  8  1  0
  8  9  1  0
  9 10  1  0
 10 11  1  0
 11 12  1  0
 12 13  1  0
 13 14  1  0
 14 15  1  0
 15 16  1  0
  2 17  1  0
 17 18  2  0
 18 19  1  0
 19 20  2  0
 20 21  1  0
 21 22  2  0
 22 23  1  0
 22 24  1  0
 24 25  2  0
 25 26  1  0
 26 27  2  0
 11  7  1  0
 16 12  1  0
 27 17  1  0
 26 20  1  0
  3 28  1  0
  4 29  1  0
  4 30  1  0
  8 31  1  0
  8 32  1  0
  9 33  1  0
  9 34  1  0
 10 35  1  0
 10 36  1  0
 11 37  1  6
 12 38  1  1
 13 39  1  0
 13 40  1  0
 14 41  1  0
 14 42  1  0
 15 43  1  0
 16 44  1  0
 16 45  1  0
 18 46  1  0
 19 47  1  0
 21 48  1  0
 24 49  1  0
 25 50  1  0
M  END
>  <smiles>  (180) 
O=C(NCC(=O)N1CCCC1C1CCNC1)c1ccc2cc(F)ccc2n1

>  <score_type>  (180) 
oracle

>  <origin>  (180) 
autodockgpu

>  <m_score__min__energy>  (180) 
-8.7599999999999998

>  <m_primary>  (180) 
energy

>  <rmsd>  (180) 
3.338521537761712

>  <m_score__min__rmsd>  (180) 
3.338521537761712

>  <meeko>  (180) 
{"free_energy": -8.54, "intermolecular_energy": -10.03, "internal_energy": -1.14, "cluster_size": 35, "cluster_id": 1, "rank_in_cluster": 11}

>  <energy>  (180) 
-7.92

>  <cluster_rmsd>  (180) 
1.41

>  <cluster>  (180) 
1

$$$$

     RDKit          3D

 50 53  0  0  0  0  0  0  0  0999 V2000
  141.2780   72.7780  222.0830 O   0  0  0  0  0  0  0  0  0  0  0  0
  140.1920   72.5920  222.7150 C   0  0  0  0  0  0  0  0  0  0  0  0
  139.0300   73.3250  222.3450 N   0  0  0  0  0  0  0  0  0  0  0  0
  139.0990   74.2620  221.2660 C   0  0  0  0  0  0  0  0  0  0  0  0
  138.9990   75.6810  221.7510 C   0  0  0  0  0  0  0  0  0  0  0  0
  137.9230   76.0380  222.2940 O   0  0  0  0  0  0  0  0  0  0  0  0
  140.1160   76.5460  221.5730 N   0  0  0  0  0  0  0  0  0  0  0  0
  140.5860   77.5620  222.5270 C   0  0  0  0  0  0  0  0  0  0  0  0
  141.5860   78.3840  221.7870 C   0  0  0  0  0  0  0  0  0  0  0  0
  141.4800   77.9820  220.3340 C   0  0  0  0  0  0  0  0  0  0  0  0
  140.9650   76.5650  220.4290 C   0  0  1  0  0  0  0  0  0  0  0  0
  142.1090   75.6060  220.4390 C   0  0  1  0  0  0  0  0  0  0  0  0
  141.9020   74.3210  219.7210 C   0  0  0  0  0  0  0  0  0  0  0  0
  143.3510   73.8330  219.5870 C   0  0  0  0  0  0  0  0  0  0  0  0
  144.1980   74.9820  219.7700 N   0  0  0  0  0  0  0  0  0  0  0  0
  143.3350   76.1490  219.7410 C   0  0  0  0  0  0  0  0  0  0  0  0
  140.1320   71.6350  223.8150 C   0  0  0  0  0  0  0  0  0  0  0  0
  139.5430   70.4020  223.6090 C   0  0  0  0  0  0  0  0  0  0  0  0
  139.4540   69.4560  224.6030 C   0  0  0  0  0  0  0  0  0  0  0  0
  139.9630   69.7240  225.8570 C   0  0  0  0  0  0  0  0  0  0  0  0
  139.8820   68.7890  226.8620 C   0  0  0  0  0  0  0  0  0  0  0  0
  140.3870   69.0560  228.1030 C   0  0  0  0  0  0  0  0  0  0  0  0
  140.2900   68.1160  229.0630 F   0  0  0  0  0  0  0  0  0  0  0  0
  140.9760   70.2950  228.3040 C   0  0  0  0  0  0  0  0  0  0  0  0
  141.0550   71.2330  227.2880 C   0  0  0  0  0  0  0  0  0  0  0  0
  140.5480   70.9690  226.0320 C   0  0  0  0  0  0  0  0  0  0  0  0
  140.6210   71.8790  225.0380 N   0  0  0  0  0  0  0  0  0  0  0  0
  138.1200   73.1960  222.8440 H   0  0  0  0  0  0  0  0  0  0  0  0
  140.0574   74.1316  220.7421 H   0  0  0  0  0  0  0  0  0  0  0  0
  138.2506   74.0706  220.5925 H   0  0  0  0  0  0  0  0  0  0  0  0
  139.7471   78.1897  222.8620 H   0  0  0  0  0  0  0  0  0  0  0  0
  141.0254   77.1017  223.4242 H   0  0  0  0  0  0  0  0  0  0  0  0
  141.3590   79.4541  221.9029 H   0  0  0  0  0  0  0  0  0  0  0  0
  142.6024   78.2171  222.1731 H   0  0  0  0  0  0  0  0  0  0  0  0
  140.7727   78.6275  219.7926 H   0  0  0  0  0  0  0  0  0  0  0  0
  142.4275   78.0703  219.7822 H   0  0  0  0  0  0  0  0  0  0  0  0
  140.3717   76.2375  219.5625 H   0  0  0  0  0  0  0  0  0  0  0  0
  142.2167   75.4498  221.5225 H   0  0  0  0  0  0  0  0  0  0  0  0
  141.2915   73.6211  220.3105 H   0  0  0  0  0  0  0  0  0  0  0  0
  141.3612   74.4128  218.7675 H   0  0  0  0  0  0  0  0  0  0  0  0
  143.5680   73.0768  220.3558 H   0  0  0  0  0  0  0  0  0  0  0  0
  143.5214   73.3711  218.6033 H   0  0  0  0  0  0  0  0  0  0  0  0
  144.6890   74.9930  220.6930 H   0  0  0  0  0  0  0  0  0  0  0  0
  143.7753   76.9929  220.2924 H   0  0  0  0  0  0  0  0  0  0  0  0
  143.1471   76.5539  218.7356 H   0  0  0  0  0  0  0  0  0  0  0  0
  139.1313   70.1693  222.6159 H   0  0  0  0  0  0  0  0  0  0  0  0
  138.9772   68.4860  224.3984 H   0  0  0  0  0  0  0  0  0  0  0  0
  139.4062   67.8170  226.6649 H   0  0  0  0  0  0  0  0  0  0  0  0
  141.3902   70.5387  229.2935 H   0  0  0  0  0  0  0  0  0  0  0  0
  141.5301   72.2052  227.4857 H   0  0  0  0  0  0  0  0  0  0  0  0
  1  2  2  0
  2  3  1  0
  3  4  1  0
  4  5  1  0
  5  6  2  0
  5  7  1  0
  7  8  1  0
  8  9  1  0
  9 10  1  0
 10 11  1  0
 11 12  1  0
 12 13  1  0
 13 14  1  0
 14 15  1  0
 15 16  1  0
  2 17  1  0
 17 18  2  0
 18 19  1  0
 19 20  2  0
 20 21  1  0
 21 22  2  0
 22 23  1  0
 22 24  1  0
 24 25  2  0
 25 26  1  0
 26 27  2  0
 11  7  1  0
 16 12  1  0
 27 17  1  0
 26 20  1  0
  3 28  1  0
  4 29  1  0
  4 30  1  0
  8 31  1  0
  8 32  1  0
  9 33  1  0
  9 34  1  0
 10 35  1  0
 10 36  1  0
 11 37  1  6
 12 38  1  1
 13 39  1  0
 13 40  1  0
 14 41  1  0
 14 42  1  0
 15 43  1  0
 16 44  1  0
 16 45  1  0
 18 46  1  0
 19 47  1  0
 21 48  1  0
 24 49  1  0
 25 50  1  0
M  END
>  <smiles>  (181) 
O=C(NCC(=O)N1CCCC1C1CCNC1)c1ccc2cc(F)ccc2n1

>  <score_type>  (181) 
oracle

>  <origin>  (181) 
autodockgpu

>  <m_score__min__energy>  (181) 
-8.7599999999999998

>  <m_primary>  (181) 
energy

>  <rmsd>  (181) 
2.516361544286958

>  <m_score__min__rmsd>  (181) 
2.516361544286958

>  <meeko>  (181) 
{"free_energy": -7.45, "intermolecular_energy": -8.94, "internal_energy": -1.35, "cluster_size": 35, "cluster_id": 1, "rank_in_cluster": 35}

>  <energy>  (181) 
-7.89

>  <cluster_rmsd>  (181) 
0.95

>  <cluster>  (181) 
1

$$$$

     RDKit          3D

 50 53  0  0  0  0  0  0  0  0999 V2000
  140.5500   71.0490  221.7440 O   0  0  0  0  0  0  0  0  0  0  0  0
  140.2370   71.7260  222.7730 C   0  0  0  0  0  0  0  0  0  0  0  0
  139.7820   73.0660  222.6200 N   0  0  0  0  0  0  0  0  0  0  0  0
  139.6830   73.6340  221.3100 C   0  0  0  0  0  0  0  0  0  0  0  0
  141.0240   74.0640  220.7850 C   0  0  0  0  0  0  0  0  0  0  0  0
  141.4700   75.1760  221.1630 O   0  0  0  0  0  0  0  0  0  0  0  0
  141.7180   73.1990  219.8930 N   0  0  0  0  0  0  0  0  0  0  0  0
  141.3400   72.9040  218.5020 C   0  0  0  0  0  0  0  0  0  0  0  0
  142.1910   71.7540  218.0830 C   0  0  0  0  0  0  0  0  0  0  0  0
  142.8640   71.2400  219.3360 C   0  0  0  0  0  0  0  0  0  0  0  0
  142.9030   72.4730  220.2080 C   0  0  1  0  0  0  0  0  0  0  0  0
  144.1930   73.1960  220.0110 C   0  0  1  0  0  0  0  0  0  0  0  0
  145.0450   73.3720  221.2170 C   0  0  0  0  0  0  0  0  0  0  0  0
  146.3870   73.7370  220.5680 C   0  0  0  0  0  0  0  0  0  0  0  0
  146.3210   73.2990  219.1980 N   0  0  0  0  0  0  0  0  0  0  0  0
  145.1350   72.4710  219.0780 C   0  0  0  0  0  0  0  0  0  0  0  0
  140.3430   71.1380  224.1040 C   0  0  0  0  0  0  0  0  0  0  0  0
  140.8740   71.8860  225.1360 C   0  0  0  0  0  0  0  0  0  0  0  0
  141.0010   71.3900  226.4120 C   0  0  0  0  0  0  0  0  0  0  0  0
  140.5900   70.1040  226.6960 C   0  0  0  0  0  0  0  0  0  0  0  0
  140.7100   69.5930  227.9670 C   0  0  0  0  0  0  0  0  0  0  0  0
  140.3020   68.3200  228.2460 C   0  0  0  0  0  0  0  0  0  0  0  0
  140.4350   67.8530  229.5030 F   0  0  0  0  0  0  0  0  0  0  0  0
  139.7700   67.5720  227.2060 C   0  0  0  0  0  0  0  0  0  0  0  0
  139.6520   68.0920  225.9280 C   0  0  0  0  0  0  0  0  0  0  0  0
  140.0610   69.3790  225.6390 C   0  0  0  0  0  0  0  0  0  0  0  0
  139.9490   69.8910  224.3960 N   0  0  0  0  0  0  0  0  0  0  0  0
  139.5160   73.6500  223.4450 H   0  0  0  0  0  0  0  0  0  0  0  0
  139.2576   72.8833  220.6277 H   0  0  0  0  0  0  0  0  0  0  0  0
  139.0386   74.5234  221.3709 H   0  0  0  0  0  0  0  0  0  0  0  0
  140.2754   72.6334  218.4439 H   0  0  0  0  0  0  0  0  0  0  0  0
  141.4896   73.7764  217.8489 H   0  0  0  0  0  0  0  0  0  0  0  0
  141.5697   70.9650  217.6342 H   0  0  0  0  0  0  0  0  0  0  0  0
  142.9321   72.0606  217.3302 H   0  0  0  0  0  0  0  0  0  0  0  0
  142.2743   70.4386  219.8051 H   0  0  0  0  0  0  0  0  0  0  0  0
  143.8543   70.7968  219.1545 H   0  0  0  0  0  0  0  0  0  0  0  0
  142.8946   72.2664  221.2884 H   0  0  0  0  0  0  0  0  0  0  0  0
  143.8151   74.1601  219.6399 H   0  0  0  0  0  0  0  0  0  0  0  0
  144.6729   74.1823  221.8612 H   0  0  0  0  0  0  0  0  0  0  0  0
  145.0827   72.4956  221.8807 H   0  0  0  0  0  0  0  0  0  0  0  0
  146.5443   74.8249  220.6103 H   0  0  0  0  0  0  0  0  0  0  0  0
  147.2237   73.2559  221.0957 H   0  0  0  0  0  0  0  0  0  0  0  0
  146.2120   74.0850  218.5170 H   0  0  0  0  0  0  0  0  0  0  0  0
  144.7530   72.4568  218.0466 H   0  0  0  0  0  0  0  0  0  0  0  0
  145.2920   71.4097  219.3210 H   0  0  0  0  0  0  0  0  0  0  0  0
  141.2068   72.9140  224.9302 H   0  0  0  0  0  0  0  0  0  0  0  0
  141.4302   72.0184  227.2063 H   0  0  0  0  0  0  0  0  0  0  0  0
  141.1386   70.2154  228.7663 H   0  0  0  0  0  0  0  0  0  0  0  0
  139.4344   66.5427  227.4008 H   0  0  0  0  0  0  0  0  0  0  0  0
  139.2248   67.4687  225.1286 H   0  0  0  0  0  0  0  0  0  0  0  0
  1  2  2  0
  2  3  1  0
  3  4  1  0
  4  5  1  0
  5  6  2  0
  5  7  1  0
  7  8  1  0
  8  9  1  0
  9 10  1  0
 10 11  1  0
 11 12  1  0
 12 13  1  0
 13 14  1  0
 14 15  1  0
 15 16  1  0
  2 17  1  0
 17 18  2  0
 18 19  1  0
 19 20  2  0
 20 21  1  0
 21 22  2  0
 22 23  1  0
 22 24  1  0
 24 25  2  0
 25 26  1  0
 26 27  2  0
 11  7  1  0
 16 12  1  0
 27 17  1  0
 26 20  1  0
  3 28  1  0
  4 29  1  0
  4 30  1  0
  8 31  1  0
  8 32  1  0
  9 33  1  0
  9 34  1  0
 10 35  1  0
 10 36  1  0
 11 37  1  1
 12 38  1  6
 13 39  1  0
 13 40  1  0
 14 41  1  0
 14 42  1  0
 15 43  1  0
 16 44  1  0
 16 45  1  0
 18 46  1  0
 19 47  1  0
 21 48  1  0
 24 49  1  0
 25 50  1  0
M  END
>  <smiles>  (182) 
O=C(NCC(=O)N1CCCC1C1CCNC1)c1ccc2cc(F)ccc2n1

>  <score_type>  (182) 
oracle

>  <origin>  (182) 
autodockgpu

>  <m_score__min__energy>  (182) 
-8.7599999999999998

>  <m_primary>  (182) 
energy

>  <rmsd>  (182) 
3.7488457316562354

>  <m_score__min__rmsd>  (182) 
3.7488457316562354

>  <meeko>  (182) 
{"free_energy": -8.09, "intermolecular_energy": -9.58, "internal_energy": -1.35, "cluster_size": 35, "cluster_id": 1, "rank_in_cluster": 25}

>  <energy>  (182) 
-7.77

>  <cluster_rmsd>  (182) 
1.54

>  <cluster>  (182) 
1

$$$$

     RDKit          3D

 50 53  0  0  0  0  0  0  0  0999 V2000
  138.8940   71.5940  221.7330 O   0  0  0  0  0  0  0  0  0  0  0  0
  139.9350   71.4940  222.4540 C   0  0  0  0  0  0  0  0  0  0  0  0
  141.1410   72.1230  222.0370 N   0  0  0  0  0  0  0  0  0  0  0  0
  141.1660   72.8620  220.8110 C   0  0  0  0  0  0  0  0  0  0  0  0
  141.0780   74.3430  221.0500 C   0  0  0  0  0  0  0  0  0  0  0  0
  140.3350   74.7410  221.9810 O   0  0  0  0  0  0  0  0  0  0  0  0
  141.8330   75.2160  220.2170 N   0  0  0  0  0  0  0  0  0  0  0  0
  141.8650   76.6840  220.3030 C   0  0  0  0  0  0  0  0  0  0  0  0
  142.5590   77.1510  219.0690 C   0  0  0  0  0  0  0  0  0  0  0  0
  142.6830   75.9440  218.1660 C   0  0  0  0  0  0  0  0  0  0  0  0
  142.6880   74.8020  219.1550 C   0  0  1  0  0  0  0  0  0  0  0  0
  144.0910   74.4590  219.5300 C   0  0  1  0  0  0  0  0  0  0  0  0
  144.2780   73.7670  220.8330 C   0  0  0  0  0  0  0  0  0  0  0  0
  145.7030   73.2240  220.6660 C   0  0  0  0  0  0  0  0  0  0  0  0
  145.9870   73.2220  219.2540 N   0  0  0  0  0  0  0  0  0  0  0  0
  144.7310   73.4790  218.5730 C   0  0  0  0  0  0  0  0  0  0  0  0
  139.8990   70.7380  223.7020 C   0  0  0  0  0  0  0  0  0  0  0  0
  139.2090   69.5440  223.7520 C   0  0  0  0  0  0  0  0  0  0  0  0
  139.1360   68.7850  224.8970 C   0  0  0  0  0  0  0  0  0  0  0  0
  139.7670   69.2110  226.0470 C   0  0  0  0  0  0  0  0  0  0  0  0
  139.7040   68.4640  227.2000 C   0  0  0  0  0  0  0  0  0  0  0  0
  140.3300   68.8880  228.3380 C   0  0  0  0  0  0  0  0  0  0  0  0
  140.2470   68.1300  229.4490 F   0  0  0  0  0  0  0  0  0  0  0  0
  141.0220   70.0890  228.2820 C   0  0  0  0  0  0  0  0  0  0  0  0
  141.0810   70.8370  227.1180 C   0  0  0  0  0  0  0  0  0  0  0  0
  140.4520   70.4140  225.9650 C   0  0  0  0  0  0  0  0  0  0  0  0
  140.5060   71.1380  224.8270 N   0  0  0  0  0  0  0  0  0  0  0  0
  142.0160   72.0610  222.6060 H   0  0  0  0  0  0  0  0  0  0  0  0
  142.1049   72.6419  220.2817 H   0  0  0  0  0  0  0  0  0  0  0  0
  140.2942   72.5600  220.2120 H   0  0  0  0  0  0  0  0  0  0  0  0
  140.8424   77.0873  220.3426 H   0  0  0  0  0  0  0  0  0  0  0  0
  142.3841   77.0239  221.2113 H   0  0  0  0  0  0  0  0  0  0  0  0
  141.9688   77.9368  218.5748 H   0  0  0  0  0  0  0  0  0  0  0  0
  143.5458   77.5767  219.3034 H   0  0  0  0  0  0  0  0  0  0  0  0
  141.8278   75.8715  217.4780 H   0  0  0  0  0  0  0  0  0  0  0  0
  143.5706   75.9686  217.5168 H   0  0  0  0  0  0  0  0  0  0  0  0
  142.2968   73.8537  218.7579 H   0  0  0  0  0  0  0  0  0  0  0  0
  144.5363   75.4648  219.5392 H   0  0  0  0  0  0  0  0  0  0  0  0
  144.2080   74.4681  221.6778 H   0  0  0  0  0  0  0  0  0  0  0  0
  143.5209   73.0005  221.0552 H   0  0  0  0  0  0  0  0  0  0  0  0
  146.4186   73.8706  221.1949 H   0  0  0  0  0  0  0  0  0  0  0  0
  145.7904   72.2114  221.0867 H   0  0  0  0  0  0  0  0  0  0  0  0
  146.6490   73.9770  218.9630 H   0  0  0  0  0  0  0  0  0  0  0  0
  144.8916   73.9266  217.5811 H   0  0  0  0  0  0  0  0  0  0  0  0
  144.1298   72.5809  218.3681 H   0  0  0  0  0  0  0  0  0  0  0  0
  138.6997   69.1867  222.8448 H   0  0  0  0  0  0  0  0  0  0  0  0
  138.5747   67.8390  224.8954 H   0  0  0  0  0  0  0  0  0  0  0  0
  139.1447   67.5168  227.2060 H   0  0  0  0  0  0  0  0  0  0  0  0
  141.5357   70.4556  229.1829 H   0  0  0  0  0  0  0  0  0  0  0  0
  141.6390   71.7849  227.1125 H   0  0  0  0  0  0  0  0  0  0  0  0
  1  2  2  0
  2  3  1  0
  3  4  1  0
  4  5  1  0
  5  6  2  0
  5  7  1  0
  7  8  1  0
  8  9  1  0
  9 10  1  0
 10 11  1  0
 11 12  1  0
 12 13  1  0
 13 14  1  0
 14 15  1  0
 15 16  1  0
  2 17  1  0
 17 18  2  0
 18 19  1  0
 19 20  2  0
 20 21  1  0
 21 22  2  0
 22 23  1  0
 22 24  1  0
 24 25  2  0
 25 26  1  0
 26 27  2  0
 11  7  1  0
 16 12  1  0
 27 17  1  0
 26 20  1  0
  3 28  1  0
  4 29  1  0
  4 30  1  0
  8 31  1  0
  8 32  1  0
  9 33  1  0
  9 34  1  0
 10 35  1  0
 10 36  1  0
 11 37  1  6
 12 38  1  1
 13 39  1  0
 13 40  1  0
 14 41  1  0
 14 42  1  0
 15 43  1  0
 16 44  1  0
 16 45  1  0
 18 46  1  0
 19 47  1  0
 21 48  1  0
 24 49  1  0
 25 50  1  0
M  END
>  <smiles>  (183) 
O=C(NCC(=O)N1CCCC1C1CCNC1)c1ccc2cc(F)ccc2n1

>  <score_type>  (183) 
oracle

>  <origin>  (183) 
autodockgpu

>  <m_score__min__energy>  (183) 
-8.7599999999999998

>  <m_primary>  (183) 
energy

>  <rmsd>  (183) 
2.3510864853214417

>  <m_score__min__rmsd>  (183) 
2.3510864853214417

>  <meeko>  (183) 
{"free_energy": -8.39, "intermolecular_energy": -9.88, "internal_energy": -1.21, "cluster_size": 35, "cluster_id": 1, "rank_in_cluster": 14}

>  <energy>  (183) 
-7.71

>  <cluster_rmsd>  (183) 
0.95

>  <cluster>  (183) 
1

$$$$

     RDKit          3D

 50 53  0  0  0  0  0  0  0  0999 V2000
  139.5520   70.8870  221.4270 O   0  0  0  0  0  0  0  0  0  0  0  0
  139.7160   71.4690  222.5440 C   0  0  0  0  0  0  0  0  0  0  0  0
  139.8240   72.8880  222.5880 N   0  0  0  0  0  0  0  0  0  0  0  0
  139.7460   73.6400  221.3730 C   0  0  0  0  0  0  0  0  0  0  0  0
  141.0070   73.5250  220.5640 C   0  0  0  0  0  0  0  0  0  0  0  0
  141.3780   72.3740  220.2210 O   0  0  0  0  0  0  0  0  0  0  0  0
  141.7150   74.7130  220.2280 N   0  0  0  0  0  0  0  0  0  0  0  0
  141.5540   76.0280  220.8670 C   0  0  0  0  0  0  0  0  0  0  0  0
  142.2880   76.9950  220.0000 C   0  0  0  0  0  0  0  0  0  0  0  0
  142.6400   76.2520  218.7320 C   0  0  0  0  0  0  0  0  0  0  0  0
  142.7030   74.8190  219.2070 C   0  0  1  0  0  0  0  0  0  0  0  0
  144.1000   74.4740  219.6000 C   0  0  1  0  0  0  0  0  0  0  0  0
  144.2590   73.6500  220.8270 C   0  0  0  0  0  0  0  0  0  0  0  0
  145.7060   73.1650  220.6610 C   0  0  0  0  0  0  0  0  0  0  0  0
  146.0420   73.3240  219.2700 N   0  0  0  0  0  0  0  0  0  0  0  0
  144.8060   73.6210  218.5700 C   0  0  0  0  0  0  0  0  0  0  0  0
  139.7940   70.6930  223.7770 C   0  0  0  0  0  0  0  0  0  0  0  0
  139.2660   69.4180  223.8110 C   0  0  0  0  0  0  0  0  0  0  0  0
  139.3060   68.6350  224.9410 C   0  0  0  0  0  0  0  0  0  0  0  0
  139.8910   69.1180  226.0930 C   0  0  0  0  0  0  0  0  0  0  0  0
  139.9410   68.3480  227.2310 C   0  0  0  0  0  0  0  0  0  0  0  0
  140.5210   68.8290  228.3710 C   0  0  0  0  0  0  0  0  0  0  0  0
  140.5510   68.0460  229.4680 F   0  0  0  0  0  0  0  0  0  0  0  0
  141.0500   70.1100  228.3330 C   0  0  0  0  0  0  0  0  0  0  0  0
  140.9970   70.8810  227.1830 C   0  0  0  0  0  0  0  0  0  0  0  0
  140.4130   70.4010  226.0270 C   0  0  0  0  0  0  0  0  0  0  0  0
  140.3580   71.1470  224.9040 N   0  0  0  0  0  0  0  0  0  0  0  0
  139.9590   73.3980  223.4900 H   0  0  0  0  0  0  0  0  0  0  0  0
  138.9034   73.2634  220.7746 H   0  0  0  0  0  0  0  0  0  0  0  0
  139.6028   74.6988  221.6347 H   0  0  0  0  0  0  0  0  0  0  0  0
  140.4891   76.2977  220.9250 H   0  0  0  0  0  0  0  0  0  0  0  0
  141.9454   76.0287  221.8950 H   0  0  0  0  0  0  0  0  0  0  0  0
  141.6484   77.8596  219.7689 H   0  0  0  0  0  0  0  0  0  0  0  0
  143.1900   77.3747  220.5023 H   0  0  0  0  0  0  0  0  0  0  0  0
  141.8633   76.3836  217.9642 H   0  0  0  0  0  0  0  0  0  0  0  0
  143.5701   76.6014  218.2599 H   0  0  0  0  0  0  0  0  0  0  0  0
  142.4691   74.0725  218.4337 H   0  0  0  0  0  0  0  0  0  0  0  0
  144.5132   75.4844  219.7357 H   0  0  0  0  0  0  0  0  0  0  0  0
  144.1361   74.2532  221.7386 H   0  0  0  0  0  0  0  0  0  0  0  0
  143.5177   72.8444  220.9343 H   0  0  0  0  0  0  0  0  0  0  0  0
  146.3815   73.7686  221.2850 H   0  0  0  0  0  0  0  0  0  0  0  0
  145.8084   72.1154  220.9739 H   0  0  0  0  0  0  0  0  0  0  0  0
  146.6920   74.1230  219.0890 H   0  0  0  0  0  0  0  0  0  0  0  0
  144.9906   74.1782  217.6397 H   0  0  0  0  0  0  0  0  0  0  0  0
  144.2406   72.7352  218.2450 H   0  0  0  0  0  0  0  0  0  0  0  0
  138.7966   69.0139  222.9020 H   0  0  0  0  0  0  0  0  0  0  0  0
  138.8718   67.6244  224.9261 H   0  0  0  0  0  0  0  0  0  0  0  0
  139.5103   67.3358  227.2237 H   0  0  0  0  0  0  0  0  0  0  0  0
  141.5224   70.5236  229.2362 H   0  0  0  0  0  0  0  0  0  0  0  0
  141.4276   71.8932  227.1908 H   0  0  0  0  0  0  0  0  0  0  0  0
  1  2  2  0
  2  3  1  0
  3  4  1  0
  4  5  1  0
  5  6  2  0
  5  7  1  0
  7  8  1  0
  8  9  1  0
  9 10  1  0
 10 11  1  0
 11 12  1  0
 12 13  1  0
 13 14  1  0
 14 15  1  0
 15 16  1  0
  2 17  1  0
 17 18  2  0
 18 19  1  0
 19 20  2  0
 20 21  1  0
 21 22  2  0
 22 23  1  0
 22 24  1  0
 24 25  2  0
 25 26  1  0
 26 27  2  0
 11  7  1  0
 16 12  1  0
 27 17  1  0
 26 20  1  0
  3 28  1  0
  4 29  1  0
  4 30  1  0
  8 31  1  0
  8 32  1  0
  9 33  1  0
  9 34  1  0
 10 35  1  0
 10 36  1  0
 11 37  1  6
 12 38  1  1
 13 39  1  0
 13 40  1  0
 14 41  1  0
 14 42  1  0
 15 43  1  0
 16 44  1  0
 16 45  1  0
 18 46  1  0
 19 47  1  0
 21 48  1  0
 24 49  1  0
 25 50  1  0
M  END
>  <smiles>  (184) 
O=C(NCC(=O)N1CCCC1C1CCNC1)c1ccc2cc(F)ccc2n1

>  <score_type>  (184) 
oracle

>  <origin>  (184) 
autodockgpu

>  <m_score__min__energy>  (184) 
-8.7599999999999998

>  <m_primary>  (184) 
energy

>  <rmsd>  (184) 
2.136022279545685

>  <m_score__min__rmsd>  (184) 
2.136022279545685

>  <meeko>  (184) 
{"free_energy": -8.28, "intermolecular_energy": -9.77, "internal_energy": -1.24, "cluster_size": 35, "cluster_id": 1, "rank_in_cluster": 19}

>  <energy>  (184) 
-7.62

>  <cluster_rmsd>  (184) 
1.65

>  <cluster>  (184) 
1

$$$$

     RDKit          3D

 50 53  0  0  0  0  0  0  0  0999 V2000
  140.1500   70.8160  221.5560 O   0  0  0  0  0  0  0  0  0  0  0  0
  140.0290   71.5920  222.5550 C   0  0  0  0  0  0  0  0  0  0  0  0
  139.7630   72.9740  222.3420 N   0  0  0  0  0  0  0  0  0  0  0  0
  139.6340   73.4720  221.0070 C   0  0  0  0  0  0  0  0  0  0  0  0
  140.9450   73.4420  220.2710 C   0  0  0  0  0  0  0  0  0  0  0  0
  141.3540   72.3300  219.8520 O   0  0  0  0  0  0  0  0  0  0  0  0
  141.6530   74.6620  220.0860 N   0  0  0  0  0  0  0  0  0  0  0  0
  141.4590   75.9020  220.8530 C   0  0  0  0  0  0  0  0  0  0  0  0
  142.2140   76.9580  220.1190 C   0  0  0  0  0  0  0  0  0  0  0  0
  142.6160   76.3540  218.7930 C   0  0  0  0  0  0  0  0  0  0  0  0
  142.6750   74.8790  219.1180 C   0  0  1  0  0  0  0  0  0  0  0  0
  144.0610   74.5020  219.5220 C   0  0  1  0  0  0  0  0  0  0  0  0
  144.1940   73.7100  220.7740 C   0  0  0  0  0  0  0  0  0  0  0  0
  145.6250   73.1750  220.6230 C   0  0  0  0  0  0  0  0  0  0  0  0
  145.9650   73.2820  219.2280 N   0  0  0  0  0  0  0  0  0  0  0  0
  144.7390   73.5970  218.5180 C   0  0  0  0  0  0  0  0  0  0  0  0
  140.1620   71.0740  223.9130 C   0  0  0  0  0  0  0  0  0  0  0  0
  140.7090   71.8780  224.8940 C   0  0  0  0  0  0  0  0  0  0  0  0
  140.8630   71.4500  226.1920 C   0  0  0  0  0  0  0  0  0  0  0  0
  140.4640   70.1790  226.5500 C   0  0  0  0  0  0  0  0  0  0  0  0
  140.6110   69.7360  227.8440 C   0  0  0  0  0  0  0  0  0  0  0  0
  140.2150   68.4770  228.1960 C   0  0  0  0  0  0  0  0  0  0  0  0
  140.3740   68.0770  229.4730 F   0  0  0  0  0  0  0  0  0  0  0  0
  139.6670   67.6740  227.2070 C   0  0  0  0  0  0  0  0  0  0  0  0
  139.5220   68.1260  225.9060 C   0  0  0  0  0  0  0  0  0  0  0  0
  139.9190   69.3970  225.5430 C   0  0  0  0  0  0  0  0  0  0  0  0
  139.7810   69.8430  224.2770 N   0  0  0  0  0  0  0  0  0  0  0  0
  139.6580   73.6400  223.1420 H   0  0  0  0  0  0  0  0  0  0  0  0
  138.9064   72.8509  220.4640 H   0  0  0  0  0  0  0  0  0  0  0  0
  139.2970   74.5176  221.0630 H   0  0  0  0  0  0  0  0  0  0  0  0
  140.3905   76.1590  220.9013 H   0  0  0  0  0  0  0  0  0  0  0  0
  141.8148   75.7966  221.8885 H   0  0  0  0  0  0  0  0  0  0  0  0
  141.5755   77.8390  219.9574 H   0  0  0  0  0  0  0  0  0  0  0  0
  143.0948   77.2872  220.6898 H   0  0  0  0  0  0  0  0  0  0  0  0
  141.8651   76.5614  218.0164 H   0  0  0  0  0  0  0  0  0  0  0  0
  143.5585   76.7557  218.3927 H   0  0  0  0  0  0  0  0  0  0  0  0
  142.4748   74.2158  218.2636 H   0  0  0  0  0  0  0  0  0  0  0  0
  144.5064   75.5022  219.6279 H   0  0  0  0  0  0  0  0  0  0  0  0
  144.0905   74.3437  221.6672 H   0  0  0  0  0  0  0  0  0  0  0  0
  143.4276   72.9319  220.9052 H   0  0  0  0  0  0  0  0  0  0  0  0
  146.3195   73.7754  221.2290 H   0  0  0  0  0  0  0  0  0  0  0  0
  145.6946   72.1325  220.9670 H   0  0  0  0  0  0  0  0  0  0  0  0
  146.6400   74.0540  219.0240 H   0  0  0  0  0  0  0  0  0  0  0  0
  144.9411   74.1203  217.5718 H   0  0  0  0  0  0  0  0  0  0  0  0
  144.1457   72.7205  218.2184 H   0  0  0  0  0  0  0  0  0  0  0  0
  141.0324   72.8952  224.6281 H   0  0  0  0  0  0  0  0  0  0  0  0
  141.3040   72.1207  226.9441 H   0  0  0  0  0  0  0  0  0  0  0  0
  141.0511   70.4012  228.6016 H   0  0  0  0  0  0  0  0  0  0  0  0
  139.3401   66.6550  227.4617 H   0  0  0  0  0  0  0  0  0  0  0  0
  139.0826   67.4602  225.1486 H   0  0  0  0  0  0  0  0  0  0  0  0
  1  2  2  0
  2  3  1  0
  3  4  1  0
  4  5  1  0
  5  6  2  0
  5  7  1  0
  7  8  1  0
  8  9  1  0
  9 10  1  0
 10 11  1  0
 11 12  1  0
 12 13  1  0
 13 14  1  0
 14 15  1  0
 15 16  1  0
  2 17  1  0
 17 18  2  0
 18 19  1  0
 19 20  2  0
 20 21  1  0
 21 22  2  0
 22 23  1  0
 22 24  1  0
 24 25  2  0
 25 26  1  0
 26 27  2  0
 11  7  1  0
 16 12  1  0
 27 17  1  0
 26 20  1  0
  3 28  1  0
  4 29  1  0
  4 30  1  0
  8 31  1  0
  8 32  1  0
  9 33  1  0
  9 34  1  0
 10 35  1  0
 10 36  1  0
 11 37  1  6
 12 38  1  1
 13 39  1  0
 13 40  1  0
 14 41  1  0
 14 42  1  0
 15 43  1  0
 16 44  1  0
 16 45  1  0
 18 46  1  0
 19 47  1  0
 21 48  1  0
 24 49  1  0
 25 50  1  0
M  END
>  <smiles>  (185) 
O=C(NCC(=O)N1CCCC1C1CCNC1)c1ccc2cc(F)ccc2n1

>  <score_type>  (185) 
oracle

>  <origin>  (185) 
autodockgpu

>  <m_score__min__energy>  (185) 
-8.7599999999999998

>  <m_primary>  (185) 
energy

>  <rmsd>  (185) 
3.0589654548476615

>  <m_score__min__rmsd>  (185) 
3.0589654548476615

>  <meeko>  (185) 
{"free_energy": -8.35, "intermolecular_energy": -9.84, "internal_energy": -1.12, "cluster_size": 35, "cluster_id": 1, "rank_in_cluster": 16}

>  <energy>  (185) 
-7.45

>  <cluster_rmsd>  (185) 
1.51

>  <cluster>  (185) 
1

$$$$

     RDKit          3D

 50 53  0  0  0  0  0  0  0  0999 V2000
  138.8440   72.6750  222.3440 O   0  0  0  0  0  0  0  0  0  0  0  0
  139.9080   72.0360  222.6130 C   0  0  0  0  0  0  0  0  0  0  0  0
  141.0430   72.1710  221.7640 N   0  0  0  0  0  0  0  0  0  0  0  0
  140.9700   73.0260  220.6190 C   0  0  0  0  0  0  0  0  0  0  0  0
  141.2280   74.4620  220.9770 C   0  0  0  0  0  0  0  0  0  0  0  0
  140.7190   74.9000  222.0400 O   0  0  0  0  0  0  0  0  0  0  0  0
  142.0270   75.2520  220.1040 N   0  0  0  0  0  0  0  0  0  0  0  0
  142.1220   76.7200  220.1050 C   0  0  0  0  0  0  0  0  0  0  0  0
  142.8460   77.0840  218.8530 C   0  0  0  0  0  0  0  0  0  0  0  0
  142.9260   75.8230  218.0230 C   0  0  0  0  0  0  0  0  0  0  0  0
  142.8730   74.7410  219.0770 C   0  0  1  0  0  0  0  0  0  0  0  0
  144.2560   74.3600  219.4870 C   0  0  1  0  0  0  0  0  0  0  0  0
  144.3900   73.6480  220.7850 C   0  0  0  0  0  0  0  0  0  0  0  0
  145.8070   73.0740  220.6510 C   0  0  0  0  0  0  0  0  0  0  0  0
  146.1300   73.0840  219.2480 N   0  0  0  0  0  0  0  0  0  0  0  0
  144.9010   73.3790  218.5350 C   0  0  0  0  0  0  0  0  0  0  0  0
  139.9720   71.1670  223.7840 C   0  0  0  0  0  0  0  0  0  0  0  0
  139.5000   69.8720  223.6930 C   0  0  0  0  0  0  0  0  0  0  0  0
  139.5310   69.0030  224.7590 C   0  0  0  0  0  0  0  0  0  0  0  0
  140.0460   69.4170  225.9700 C   0  0  0  0  0  0  0  0  0  0  0  0
  140.0840   68.5600  227.0450 C   0  0  0  0  0  0  0  0  0  0  0  0
  140.5950   68.9720  228.2440 C   0  0  0  0  0  0  0  0  0  0  0  0
  140.6160   68.1060  229.2760 F   0  0  0  0  0  0  0  0  0  0  0  0
  141.0660   70.2730  228.3300 C   0  0  0  0  0  0  0  0  0  0  0  0
  141.0250   71.1310  227.2430 C   0  0  0  0  0  0  0  0  0  0  0  0
  140.5110   70.7220  226.0290 C   0  0  0  0  0  0  0  0  0  0  0  0
  140.4680   71.5520  224.9660 N   0  0  0  0  0  0  0  0  0  0  0  0
  141.9340   71.6590  221.9570 H   0  0  0  0  0  0  0  0  0  0  0  0
  141.7216   72.7018  219.8842 H   0  0  0  0  0  0  0  0  0  0  0  0
  139.9540   72.9547  220.2035 H   0  0  0  0  0  0  0  0  0  0  0  0
  141.1175   77.1683  220.1102 H   0  0  0  0  0  0  0  0  0  0  0  0
  142.6479   77.0899  220.9975 H   0  0  0  0  0  0  0  0  0  0  0  0
  142.2942   77.8638  218.3077 H   0  0  0  0  0  0  0  0  0  0  0  0
  143.8483   77.4802  219.0732 H   0  0  0  0  0  0  0  0  0  0  0  0
  142.0746   75.7469  217.3306 H   0  0  0  0  0  0  0  0  0  0  0  0
  143.8195   75.7721  217.3835 H   0  0  0  0  0  0  0  0  0  0  0  0
  142.4446   73.7889  218.7306 H   0  0  0  0  0  0  0  0  0  0  0  0
  144.7236   75.3550  219.5229 H   0  0  0  0  0  0  0  0  0  0  0  0
  144.3120   74.3399  221.6366 H   0  0  0  0  0  0  0  0  0  0  0  0
  143.6096   72.8966  220.9758 H   0  0  0  0  0  0  0  0  0  0  0  0
  146.5220   73.6969  221.2085 H   0  0  0  0  0  0  0  0  0  0  0  0
  145.8597   72.0544  221.0604 H   0  0  0  0  0  0  0  0  0  0  0  0
  146.8180   73.8270  218.9860 H   0  0  0  0  0  0  0  0  0  0  0  0
  145.1005   73.8364  217.5547 H   0  0  0  0  0  0  0  0  0  0  0  0
  144.2858   72.4979  218.2998 H   0  0  0  0  0  0  0  0  0  0  0  0
  139.0852   69.5238  222.7356 H   0  0  0  0  0  0  0  0  0  0  0  0
  139.1455   67.9790  224.6459 H   0  0  0  0  0  0  0  0  0  0  0  0
  139.7000   67.5346  226.9391 H   0  0  0  0  0  0  0  0  0  0  0  0
  141.4817   70.6323  229.2830 H   0  0  0  0  0  0  0  0  0  0  0  0
  141.4089   72.1563  227.3493 H   0  0  0  0  0  0  0  0  0  0  0  0
  1  2  2  0
  2  3  1  0
  3  4  1  0
  4  5  1  0
  5  6  2  0
  5  7  1  0
  7  8  1  0
  8  9  1  0
  9 10  1  0
 10 11  1  0
 11 12  1  0
 12 13  1  0
 13 14  1  0
 14 15  1  0
 15 16  1  0
  2 17  1  0
 17 18  2  0
 18 19  1  0
 19 20  2  0
 20 21  1  0
 21 22  2  0
 22 23  1  0
 22 24  1  0
 24 25  2  0
 25 26  1  0
 26 27  2  0
 11  7  1  0
 16 12  1  0
 27 17  1  0
 26 20  1  0
  3 28  1  0
  4 29  1  0
  4 30  1  0
  8 31  1  0
  8 32  1  0
  9 33  1  0
  9 34  1  0
 10 35  1  0
 10 36  1  0
 11 37  1  6
 12 38  1  1
 13 39  1  0
 13 40  1  0
 14 41  1  0
 14 42  1  0
 15 43  1  0
 16 44  1  0
 16 45  1  0
 18 46  1  0
 19 47  1  0
 21 48  1  0
 24 49  1  0
 25 50  1  0
M  END
>  <smiles>  (186) 
O=C(NCC(=O)N1CCCC1C1CCNC1)c1ccc2cc(F)ccc2n1

>  <score_type>  (186) 
oracle

>  <origin>  (186) 
autodockgpu

>  <m_score__min__energy>  (186) 
-8.7599999999999998

>  <m_primary>  (186) 
energy

>  <rmsd>  (186) 
2.4233231851002937

>  <m_score__min__rmsd>  (186) 
2.4233231851002937

>  <meeko>  (186) 
{"free_energy": -8.68, "intermolecular_energy": -10.17, "internal_energy": -1.14, "cluster_size": 35, "cluster_id": 1, "rank_in_cluster": 5}

>  <energy>  (186) 
-8.33

>  <cluster_rmsd>  (186) 
0.0

>  <cluster>  (186) 
2

$$$$

     RDKit          3D

 50 53  0  0  0  0  0  0  0  0999 V2000
  140.8860   71.2390  221.2790 O   0  0  0  0  0  0  0  0  0  0  0  0
  140.4860   71.8510  222.3180 C   0  0  0  0  0  0  0  0  0  0  0  0
  140.2320   73.2500  222.2560 N   0  0  0  0  0  0  0  0  0  0  0  0
  140.4310   73.9500  221.0230 C   0  0  0  0  0  0  0  0  0  0  0  0
  141.1550   75.2510  221.2310 C   0  0  0  0  0  0  0  0  0  0  0  0
  141.0010   75.8360  222.3320 O   0  0  0  0  0  0  0  0  0  0  0  0
  141.9740   75.7530  220.1800 N   0  0  0  0  0  0  0  0  0  0  0  0
  142.2060   77.1700  219.8650 C   0  0  0  0  0  0  0  0  0  0  0  0
  142.8880   77.1870  218.5390 C   0  0  0  0  0  0  0  0  0  0  0  0
  142.8010   75.7790  217.9950 C   0  0  0  0  0  0  0  0  0  0  0  0
  142.7070   74.9530  219.2570 C   0  0  1  0  0  0  0  0  0  0  0  0
  144.0690   74.5250  219.6880 C   0  0  1  0  0  0  0  0  0  0  0  0
  144.1350   73.5820  220.8360 C   0  0  0  0  0  0  0  0  0  0  0  0
  145.5750   73.0670  220.7010 C   0  0  0  0  0  0  0  0  0  0  0  0
  145.9930   73.3470  219.3520 N   0  0  0  0  0  0  0  0  0  0  0  0
  144.8070   73.7520  218.6190 C   0  0  0  0  0  0  0  0  0  0  0  0
  140.2860   71.1280  223.5700 C   0  0  0  0  0  0  0  0  0  0  0  0
  139.5820   69.9400  223.5620 C   0  0  0  0  0  0  0  0  0  0  0  0
  139.3590   69.2110  224.7070 C   0  0  0  0  0  0  0  0  0  0  0  0
  139.8460   69.6620  225.9160 C   0  0  0  0  0  0  0  0  0  0  0  0
  139.6310   68.9450  227.0700 C   0  0  0  0  0  0  0  0  0  0  0  0
  140.1140   69.3930  228.2670 C   0  0  0  0  0  0  0  0  0  0  0  0
  139.8850   68.6640  229.3770 F   0  0  0  0  0  0  0  0  0  0  0  0
  140.8200   70.5870  228.2700 C   0  0  0  0  0  0  0  0  0  0  0  0
  141.0320   71.3050  227.1040 C   0  0  0  0  0  0  0  0  0  0  0  0
  140.5480   70.8570  225.8910 C   0  0  0  0  0  0  0  0  0  0  0  0
  140.7510   71.5520  224.7520 N   0  0  0  0  0  0  0  0  0  0  0  0
  139.9020   73.7840  223.0920 H   0  0  0  0  0  0  0  0  0  0  0  0
  141.0232   73.3171  220.3457 H   0  0  0  0  0  0  0  0  0  0  0  0
  139.4435   74.1729  220.5928 H   0  0  0  0  0  0  0  0  0  0  0  0
  141.2500   77.7115  219.8107 H   0  0  0  0  0  0  0  0  0  0  0  0
  142.8142   77.6616  220.6386 H   0  0  0  0  0  0  0  0  0  0  0  0
  142.3818   77.8889  217.8600 H   0  0  0  0  0  0  0  0  0  0  0  0
  143.9341   77.5137  218.6333 H   0  0  0  0  0  0  0  0  0  0  0  0
  141.9079   75.6491  217.3661 H   0  0  0  0  0  0  0  0  0  0  0  0
  143.6474   75.5027  217.3490 H   0  0  0  0  0  0  0  0  0  0  0  0
  142.1717   73.9993  219.1387 H   0  0  0  0  0  0  0  0  0  0  0  0
  144.5027   75.5031  219.9435 H   0  0  0  0  0  0  0  0  0  0  0  0
  143.9778   74.0988  221.7942 H   0  0  0  0  0  0  0  0  0  0  0  0
  143.3664   72.7952  220.8245 H   0  0  0  0  0  0  0  0  0  0  0  0
  146.2310   73.5853  221.4159 H   0  0  0  0  0  0  0  0  0  0  0  0
  145.6302   71.9895  220.9154 H   0  0  0  0  0  0  0  0  0  0  0  0
  146.6750   74.1380  219.2850 H   0  0  0  0  0  0  0  0  0  0  0  0
  145.0598   74.3896  217.7590 H   0  0  0  0  0  0  0  0  0  0  0  0
  144.2358   72.9213  218.1789 H   0  0  0  0  0  0  0  0  0  0  0  0
  139.1860   69.5637  222.6072 H   0  0  0  0  0  0  0  0  0  0  0  0
  138.7928   68.2692  224.6584 H   0  0  0  0  0  0  0  0  0  0  0  0
  139.0652   68.0026  227.0288 H   0  0  0  0  0  0  0  0  0  0  0  0
  141.2205   70.9725  229.2192 H   0  0  0  0  0  0  0  0  0  0  0  0
  141.5958   72.2486  227.1455 H   0  0  0  0  0  0  0  0  0  0  0  0
  1  2  2  0
  2  3  1  0
  3  4  1  0
  4  5  1  0
  5  6  2  0
  5  7  1  0
  7  8  1  0
  8  9  1  0
  9 10  1  0
 10 11  1  0
 11 12  1  0
 12 13  1  0
 13 14  1  0
 14 15  1  0
 15 16  1  0
  2 17  1  0
 17 18  2  0
 18 19  1  0
 19 20  2  0
 20 21  1  0
 21 22  2  0
 22 23  1  0
 22 24  1  0
 24 25  2  0
 25 26  1  0
 26 27  2  0
 11  7  1  0
 16 12  1  0
 27 17  1  0
 26 20  1  0
  3 28  1  0
  4 29  1  0
  4 30  1  0
  8 31  1  0
  8 32  1  0
  9 33  1  0
  9 34  1  0
 10 35  1  0
 10 36  1  0
 11 37  1  6
 12 38  1  1
 13 39  1  0
 13 40  1  0
 14 41  1  0
 14 42  1  0
 15 43  1  0
 16 44  1  0
 16 45  1  0
 18 46  1  0
 19 47  1  0
 21 48  1  0
 24 49  1  0
 25 50  1  0
M  END
>  <smiles>  (187) 
O=C(NCC(=O)N1CCCC1C1CCNC1)c1ccc2cc(F)ccc2n1

>  <score_type>  (187) 
oracle

>  <origin>  (187) 
autodockgpu

>  <m_score__min__energy>  (187) 
-8.7599999999999998

>  <m_primary>  (187) 
energy

>  <rmsd>  (187) 
2.2794477127582518

>  <m_score__min__rmsd>  (187) 
2.2794477127582518

>  <meeko>  (187) 
{"free_energy": -8.55, "intermolecular_energy": -10.05, "internal_energy": -1.61, "cluster_size": 35, "cluster_id": 1, "rank_in_cluster": 9}

>  <energy>  (187) 
-8.32

>  <cluster_rmsd>  (187) 
0.06

>  <cluster>  (187) 
2

$$$$

     RDKit          3D

 50 53  0  0  0  0  0  0  0  0999 V2000
  140.7790   71.4650  221.1950 O   0  0  0  0  0  0  0  0  0  0  0  0
  140.3610   72.0250  222.2560 C   0  0  0  0  0  0  0  0  0  0  0  0
  140.0440   73.4130  222.2400 N   0  0  0  0  0  0  0  0  0  0  0  0
  140.1990   74.1590  221.0290 C   0  0  0  0  0  0  0  0  0  0  0  0
  141.1110   75.3400  221.2140 C   0  0  0  0  0  0  0  0  0  0  0  0
  141.1140   75.9050  222.3360 O   0  0  0  0  0  0  0  0  0  0  0  0
  141.9190   75.7580  220.1200 N   0  0  0  0  0  0  0  0  0  0  0  0
  142.1560   77.1470  219.6990 C   0  0  0  0  0  0  0  0  0  0  0  0
  142.8210   77.0630  218.3670 C   0  0  0  0  0  0  0  0  0  0  0  0
  142.7180   75.6200  217.9280 C   0  0  0  0  0  0  0  0  0  0  0  0
  142.6340   74.8880  219.2470 C   0  0  1  0  0  0  0  0  0  0  0  0
  144.0000   74.4820  219.6920 C   0  0  1  0  0  0  0  0  0  0  0  0
  144.0690   73.5170  220.8200 C   0  0  0  0  0  0  0  0  0  0  0  0
  145.5220   73.0380  220.6970 C   0  0  0  0  0  0  0  0  0  0  0  0
  145.9550   73.3560  219.3620 N   0  0  0  0  0  0  0  0  0  0  0  0
  144.7720   73.7490  218.6180 C   0  0  0  0  0  0  0  0  0  0  0  0
  140.2060   71.2550  223.4850 C   0  0  0  0  0  0  0  0  0  0  0  0
  139.5640   70.0330  223.4440 C   0  0  0  0  0  0  0  0  0  0  0  0
  139.3850   69.2590  224.5670 C   0  0  0  0  0  0  0  0  0  0  0  0
  139.8550   69.6970  225.7870 C   0  0  0  0  0  0  0  0  0  0  0  0
  139.6850   68.9350  226.9190 C   0  0  0  0  0  0  0  0  0  0  0  0
  140.1520   69.3710  228.1270 C   0  0  0  0  0  0  0  0  0  0  0  0
  139.9660   68.5970  229.2150 F   0  0  0  0  0  0  0  0  0  0  0  0
  140.7960   70.5980  228.1640 C   0  0  0  0  0  0  0  0  0  0  0  0
  140.9640   71.3620  227.0200 C   0  0  0  0  0  0  0  0  0  0  0  0
  140.4960   70.9270  225.7960 C   0  0  0  0  0  0  0  0  0  0  0  0
  140.6570   71.6660  224.6780 N   0  0  0  0  0  0  0  0  0  0  0  0
  139.6980   73.9040  223.0950 H   0  0  0  0  0  0  0  0  0  0  0  0
  140.6220   73.5000  220.2564 H   0  0  0  0  0  0  0  0  0  0  0  0
  139.2094   74.5346  220.7296 H   0  0  0  0  0  0  0  0  0  0  0  0
  141.2028   77.6898  219.6171 H   0  0  0  0  0  0  0  0  0  0  0  0
  142.7775   77.6890  220.4270 H   0  0  0  0  0  0  0  0  0  0  0  0
  142.3106   77.7175  217.6451 H   0  0  0  0  0  0  0  0  0  0  0  0
  143.8703   77.3882  218.4242 H   0  0  0  0  0  0  0  0  0  0  0  0
  141.8164   75.4516  217.3207 H   0  0  0  0  0  0  0  0  0  0  0  0
  143.5548   75.2914  217.2941 H   0  0  0  0  0  0  0  0  0  0  0  0
  142.0901   73.9329  219.2032 H   0  0  0  0  0  0  0  0  0  0  0  0
  144.4076   75.4635  219.9758 H   0  0  0  0  0  0  0  0  0  0  0  0
  143.8851   74.0094  221.7863 H   0  0  0  0  0  0  0  0  0  0  0  0
  143.3187   72.7136  220.7798 H   0  0  0  0  0  0  0  0  0  0  0  0
  146.1546   73.5555  221.4333 H   0  0  0  0  0  0  0  0  0  0  0  0
  145.5981   71.9576  220.8889 H   0  0  0  0  0  0  0  0  0  0  0  0
  146.6190   74.1630  219.3220 H   0  0  0  0  0  0  0  0  0  0  0  0
  145.0234   74.4105  217.7758 H   0  0  0  0  0  0  0  0  0  0  0  0
  144.2272   72.9154  218.1507 H   0  0  0  0  0  0  0  0  0  0  0  0
  139.1825   69.6658  222.4798 H   0  0  0  0  0  0  0  0  0  0  0  0
  138.8673   68.2914  224.4918 H   0  0  0  0  0  0  0  0  0  0  0  0
  139.1686   67.9661  226.8516 H   0  0  0  0  0  0  0  0  0  0  0  0
  141.1824   70.9737  229.1229 H   0  0  0  0  0  0  0  0  0  0  0  0
  141.4790   72.3316  227.0883 H   0  0  0  0  0  0  0  0  0  0  0  0
  1  2  2  0
  2  3  1  0
  3  4  1  0
  4  5  1  0
  5  6  2  0
  5  7  1  0
  7  8  1  0
  8  9  1  0
  9 10  1  0
 10 11  1  0
 11 12  1  0
 12 13  1  0
 13 14  1  0
 14 15  1  0
 15 16  1  0
  2 17  1  0
 17 18  2  0
 18 19  1  0
 19 20  2  0
 20 21  1  0
 21 22  2  0
 22 23  1  0
 22 24  1  0
 24 25  2  0
 25 26  1  0
 26 27  2  0
 11  7  1  0
 16 12  1  0
 27 17  1  0
 26 20  1  0
  3 28  1  0
  4 29  1  0
  4 30  1  0
  8 31  1  0
  8 32  1  0
  9 33  1  0
  9 34  1  0
 10 35  1  0
 10 36  1  0
 11 37  1  6
 12 38  1  1
 13 39  1  0
 13 40  1  0
 14 41  1  0
 14 42  1  0
 15 43  1  0
 16 44  1  0
 16 45  1  0
 18 46  1  0
 19 47  1  0
 21 48  1  0
 24 49  1  0
 25 50  1  0
M  END
>  <smiles>  (188) 
O=C(NCC(=O)N1CCCC1C1CCNC1)c1ccc2cc(F)ccc2n1

>  <score_type>  (188) 
oracle

>  <origin>  (188) 
autodockgpu

>  <m_score__min__energy>  (188) 
-8.7599999999999998

>  <m_primary>  (188) 
energy

>  <rmsd>  (188) 
2.219565406299481

>  <m_score__min__rmsd>  (188) 
2.219565406299481

>  <meeko>  (188) 
{"free_energy": -8.61, "intermolecular_energy": -10.1, "internal_energy": -1.55, "cluster_size": 35, "cluster_id": 1, "rank_in_cluster": 8}

>  <energy>  (188) 
-8.04

>  <cluster_rmsd>  (188) 
0.65

>  <cluster>  (188) 
2

$$$$

     RDKit          3D

 50 53  0  0  0  0  0  0  0  0999 V2000
  138.9290   72.7350  222.3560 O   0  0  0  0  0  0  0  0  0  0  0  0
  139.9750   72.0640  222.6200 C   0  0  0  0  0  0  0  0  0  0  0  0
  141.1070   72.1610  221.7620 N   0  0  0  0  0  0  0  0  0  0  0  0
  141.0520   73.0130  220.6140 C   0  0  0  0  0  0  0  0  0  0  0  0
  141.2950   74.4520  220.9750 C   0  0  0  0  0  0  0  0  0  0  0  0
  140.7780   74.8830  222.0360 O   0  0  0  0  0  0  0  0  0  0  0  0
  142.0920   75.2500  220.1060 N   0  0  0  0  0  0  0  0  0  0  0  0
  142.1660   76.7180  220.1040 C   0  0  0  0  0  0  0  0  0  0  0  0
  142.8970   77.0880  218.8570 C   0  0  0  0  0  0  0  0  0  0  0  0
  143.0020   75.8260  218.0330 C   0  0  0  0  0  0  0  0  0  0  0  0
  142.9540   74.7470  219.0890 C   0  0  1  0  0  0  0  0  0  0  0  0
  144.3380   74.3870  219.5140 C   0  0  1  0  0  0  0  0  0  0  0  0
  144.4700   73.6780  220.8140 C   0  0  0  0  0  0  0  0  0  0  0  0
  145.8960   73.1240  220.6950 C   0  0  0  0  0  0  0  0  0  0  0  0
  146.2330   73.1370  219.2960 N   0  0  0  0  0  0  0  0  0  0  0  0
  145.0070   73.4140  218.5700 C   0  0  0  0  0  0  0  0  0  0  0  0
  140.0200   71.1970  223.7930 C   0  0  0  0  0  0  0  0  0  0  0  0
  139.5250   69.9110  223.7050 C   0  0  0  0  0  0  0  0  0  0  0  0
  139.5380   69.0450  224.7730 C   0  0  0  0  0  0  0  0  0  0  0  0
  140.0590   69.4520  225.9840 C   0  0  0  0  0  0  0  0  0  0  0  0
  140.0790   68.5980  227.0620 C   0  0  0  0  0  0  0  0  0  0  0  0
  140.5950   69.0040  228.2600 C   0  0  0  0  0  0  0  0  0  0  0  0
  140.5980   68.1400  229.2950 F   0  0  0  0  0  0  0  0  0  0  0  0
  141.0910   70.2960  228.3430 C   0  0  0  0  0  0  0  0  0  0  0  0
  141.0670   71.1520  227.2540 C   0  0  0  0  0  0  0  0  0  0  0  0
  140.5480   70.7480  226.0400 C   0  0  0  0  0  0  0  0  0  0  0  0
  140.5220   71.5770  224.9750 N   0  0  0  0  0  0  0  0  0  0  0  0
  141.9830   71.6220  221.9500 H   0  0  0  0  0  0  0  0  0  0  0  0
  141.8199   72.6917  219.8949 H   0  0  0  0  0  0  0  0  0  0  0  0
  140.0451   72.9350  220.1781 H   0  0  0  0  0  0  0  0  0  0  0  0
  141.1553   77.1522  220.0984 H   0  0  0  0  0  0  0  0  0  0  0  0
  142.6777   77.0982  221.0005 H   0  0  0  0  0  0  0  0  0  0  0  0
  142.3396   77.8582  218.3037 H   0  0  0  0  0  0  0  0  0  0  0  0
  143.8915   77.4989  219.0851 H   0  0  0  0  0  0  0  0  0  0  0  0
  142.1583   75.7360  217.3329 H   0  0  0  0  0  0  0  0  0  0  0  0
  143.9024   75.7854  217.4024 H   0  0  0  0  0  0  0  0  0  0  0  0
  142.5424   73.7880  218.7413 H   0  0  0  0  0  0  0  0  0  0  0  0
  144.7898   75.3892  219.5537 H   0  0  0  0  0  0  0  0  0  0  0  0
  144.3739   74.3696  221.6640 H   0  0  0  0  0  0  0  0  0  0  0  0
  143.6987   72.9155  220.9976 H   0  0  0  0  0  0  0  0  0  0  0  0
  146.5964   73.7575  221.2589 H   0  0  0  0  0  0  0  0  0  0  0  0
  145.9588   72.1057  221.1062 H   0  0  0  0  0  0  0  0  0  0  0  0
  146.9130   73.8900  219.0400 H   0  0  0  0  0  0  0  0  0  0  0  0
  145.2101   73.8731  217.5912 H   0  0  0  0  0  0  0  0  0  0  0  0
  144.4068   72.5240  218.3298 H   0  0  0  0  0  0  0  0  0  0  0  0
  139.1059   69.5675  222.7477 H   0  0  0  0  0  0  0  0  0  0  0  0
  139.1332   68.0282  224.6619 H   0  0  0  0  0  0  0  0  0  0  0  0
  139.6762   67.5797  226.9586 H   0  0  0  0  0  0  0  0  0  0  0  0
  141.5132   70.6495  229.2953 H   0  0  0  0  0  0  0  0  0  0  0  0
  141.4683   72.1709  227.3583 H   0  0  0  0  0  0  0  0  0  0  0  0
  1  2  2  0
  2  3  1  0
  3  4  1  0
  4  5  1  0
  5  6  2  0
  5  7  1  0
  7  8  1  0
  8  9  1  0
  9 10  1  0
 10 11  1  0
 11 12  1  0
 12 13  1  0
 13 14  1  0
 14 15  1  0
 15 16  1  0
  2 17  1  0
 17 18  2  0
 18 19  1  0
 19 20  2  0
 20 21  1  0
 21 22  2  0
 22 23  1  0
 22 24  1  0
 24 25  2  0
 25 26  1  0
 26 27  2  0
 11  7  1  0
 16 12  1  0
 27 17  1  0
 26 20  1  0
  3 28  1  0
  4 29  1  0
  4 30  1  0
  8 31  1  0
  8 32  1  0
  9 33  1  0
  9 34  1  0
 10 35  1  0
 10 36  1  0
 11 37  1  6
 12 38  1  1
 13 39  1  0
 13 40  1  0
 14 41  1  0
 14 42  1  0
 15 43  1  0
 16 44  1  0
 16 45  1  0
 18 46  1  0
 19 47  1  0
 21 48  1  0
 24 49  1  0
 25 50  1  0
M  END
>  <smiles>  (189) 
O=C(NCC(=O)N1CCCC1C1CCNC1)c1ccc2cc(F)ccc2n1

>  <score_type>  (189) 
oracle

>  <origin>  (189) 
autodockgpu

>  <m_score__min__energy>  (189) 
-8.7599999999999998

>  <m_primary>  (189) 
energy

>  <rmsd>  (189) 
2.462209764053308

>  <m_score__min__rmsd>  (189) 
2.462209764053308

>  <meeko>  (189) 
{"free_energy": -8.7, "intermolecular_energy": -10.19, "internal_energy": -1.13, "cluster_size": 35, "cluster_id": 1, "rank_in_cluster": 3}

>  <energy>  (189) 
-8.0

>  <cluster_rmsd>  (189) 
1.25

>  <cluster>  (189) 
2

$$$$

     RDKit          3D

 50 53  0  0  0  0  0  0  0  0999 V2000
  141.1720   71.9780  221.3520 O   0  0  0  0  0  0  0  0  0  0  0  0
  140.3600   72.3330  222.2630 C   0  0  0  0  0  0  0  0  0  0  0  0
  139.6050   73.5280  222.1030 N   0  0  0  0  0  0  0  0  0  0  0  0
  139.7690   74.3150  220.9190 C   0  0  0  0  0  0  0  0  0  0  0  0
  139.3380   75.7390  221.1320 C   0  0  0  0  0  0  0  0  0  0  0  0
  138.1080   75.9910  221.0790 O   0  0  0  0  0  0  0  0  0  0  0  0
  140.3330   76.7260  221.3790 N   0  0  0  0  0  0  0  0  0  0  0  0
  140.7270   77.2480  222.6960 C   0  0  0  0  0  0  0  0  0  0  0  0
  141.5840   78.4380  222.4240 C   0  0  0  0  0  0  0  0  0  0  0  0
  141.4520   78.7310  220.9470 C   0  0  0  0  0  0  0  0  0  0  0  0
  141.1150   77.3730  220.3790 C   0  0  1  0  0  0  0  0  0  0  0  0
  142.3630   76.6720  219.9590 C   0  0  1  0  0  0  0  0  0  0  0  0
  142.5480   75.2860  220.4650 C   0  0  0  0  0  0  0  0  0  0  0  0
  143.6470   74.7810  219.5210 C   0  0  0  0  0  0  0  0  0  0  0  0
  143.6420   75.6480  218.3720 N   0  0  0  0  0  0  0  0  0  0  0  0
  142.4430   76.4610  218.4640 C   0  0  0  0  0  0  0  0  0  0  0  0
  140.2000   71.5230  223.4660 C   0  0  0  0  0  0  0  0  0  0  0  0
  139.5310   70.3170  223.3880 C   0  0  0  0  0  0  0  0  0  0  0  0
  139.3460   69.5080  224.4850 C   0  0  0  0  0  0  0  0  0  0  0  0
  139.8370   69.8920  225.7150 C   0  0  0  0  0  0  0  0  0  0  0  0
  139.6610   69.0940  226.8220 C   0  0  0  0  0  0  0  0  0  0  0  0
  140.1480   69.4770  228.0390 C   0  0  0  0  0  0  0  0  0  0  0  0
  139.9560   68.6700  229.1010 F   0  0  0  0  0  0  0  0  0  0  0  0
  140.8190   70.6890  228.1120 C   0  0  0  0  0  0  0  0  0  0  0  0
  140.9930   71.4880  226.9950 C   0  0  0  0  0  0  0  0  0  0  0  0
  140.5040   71.1070  225.7610 C   0  0  0  0  0  0  0  0  0  0  0  0
  140.6700   71.8810  224.6680 N   0  0  0  0  0  0  0  0  0  0  0  0
  138.9280   73.8480  222.8330 H   0  0  0  0  0  0  0  0  0  0  0  0
  140.8297   74.3037  220.6279 H   0  0  0  0  0  0  0  0  0  0  0  0
  139.1380   73.8809  220.1294 H   0  0  0  0  0  0  0  0  0  0  0  0
  139.8376   77.5408  223.2733 H   0  0  0  0  0  0  0  0  0  0  0  0
  141.2630   76.4907  223.2869 H   0  0  0  0  0  0  0  0  0  0  0  0
  141.2381   79.2989  223.0149 H   0  0  0  0  0  0  0  0  0  0  0  0
  142.6314   78.2464  222.7003 H   0  0  0  0  0  0  0  0  0  0  0  0
  140.6460   79.4545  220.7548 H   0  0  0  0  0  0  0  0  0  0  0  0
  142.3525   79.1824  220.5051 H   0  0  0  0  0  0  0  0  0  0  0  0
  140.5213   77.4017  219.4535 H   0  0  0  0  0  0  0  0  0  0  0  0
  143.1145   77.3578  220.3773 H   0  0  0  0  0  0  0  0  0  0  0  0
  142.8800   75.2786  221.5137 H   0  0  0  0  0  0  0  0  0  0  0  0
  141.6329   74.6755  220.4672 H   0  0  0  0  0  0  0  0  0  0  0  0
  144.6252   74.8231  220.0224 H   0  0  0  0  0  0  0  0  0  0  0  0
  143.4645   73.7368  219.2272 H   0  0  0  0  0  0  0  0  0  0  0  0
  144.4530   76.3070  218.3460 H   0  0  0  0  0  0  0  0  0  0  0  0
  142.5565   77.4134  217.9255 H   0  0  0  0  0  0  0  0  0  0  0  0
  141.5465   76.0054  218.0181 H   0  0  0  0  0  0  0  0  0  0  0  0
  139.1326   69.9925  222.4154 H   0  0  0  0  0  0  0  0  0  0  0  0
  138.8065   68.5550  224.3811 H   0  0  0  0  0  0  0  0  0  0  0  0
  139.1233   68.1392  226.7259 H   0  0  0  0  0  0  0  0  0  0  0  0
  141.2220   71.0228  229.0796 H   0  0  0  0  0  0  0  0  0  0  0  0
  141.5301   72.4430  227.0920 H   0  0  0  0  0  0  0  0  0  0  0  0
  1  2  2  0
  2  3  1  0
  3  4  1  0
  4  5  1  0
  5  6  2  0
  5  7  1  0
  7  8  1  0
  8  9  1  0
  9 10  1  0
 10 11  1  0
 11 12  1  0
 12 13  1  0
 13 14  1  0
 14 15  1  0
 15 16  1  0
  2 17  1  0
 17 18  2  0
 18 19  1  0
 19 20  2  0
 20 21  1  0
 21 22  2  0
 22 23  1  0
 22 24  1  0
 24 25  2  0
 25 26  1  0
 26 27  2  0
 11  7  1  0
 16 12  1  0
 27 17  1  0
 26 20  1  0
  3 28  1  0
  4 29  1  0
  4 30  1  0
  8 31  1  0
  8 32  1  0
  9 33  1  0
  9 34  1  0
 10 35  1  0
 10 36  1  0
 11 37  1  6
 12 38  1  1
 13 39  1  0
 13 40  1  0
 14 41  1  0
 14 42  1  0
 15 43  1  0
 16 44  1  0
 16 45  1  0
 18 46  1  0
 19 47  1  0
 21 48  1  0
 24 49  1  0
 25 50  1  0
M  END
>  <smiles>  (190) 
O=C(NCC(=O)N1CCCC1C1CCNC1)c1ccc2cc(F)ccc2n1

>  <score_type>  (190) 
oracle

>  <origin>  (190) 
autodockgpu

>  <m_score__min__energy>  (190) 
-8.7599999999999998

>  <m_primary>  (190) 
energy

>  <rmsd>  (190) 
2.6886039415260217

>  <m_score__min__rmsd>  (190) 
2.6886039415260217

>  <meeko>  (190) 
{"free_energy": -7.77, "intermolecular_energy": -9.26, "internal_energy": -1.16, "cluster_size": 35, "cluster_id": 1, "rank_in_cluster": 32}

>  <energy>  (190) 
-7.91

>  <cluster_rmsd>  (190) 
1.32

>  <cluster>  (190) 
2

$$$$

     RDKit          3D

 50 53  0  0  0  0  0  0  0  0999 V2000
  141.1230   72.0110  221.4490 O   0  0  0  0  0  0  0  0  0  0  0  0
  140.3750   72.3840  222.4070 C   0  0  0  0  0  0  0  0  0  0  0  0
  139.6870   73.6270  222.3180 N   0  0  0  0  0  0  0  0  0  0  0  0
  139.8450   74.4400  221.1520 C   0  0  0  0  0  0  0  0  0  0  0  0
  141.1570   75.1740  221.1570 C   0  0  0  0  0  0  0  0  0  0  0  0
  142.2030   74.5010  220.9790 O   0  0  0  0  0  0  0  0  0  0  0  0
  141.1530   76.5820  221.3610 N   0  0  0  0  0  0  0  0  0  0  0  0
  141.8080   77.5840  220.5060 C   0  0  0  0  0  0  0  0  0  0  0  0
  141.7620   78.8640  221.2690 C   0  0  0  0  0  0  0  0  0  0  0  0
  141.3090   78.5130  222.6680 C   0  0  0  0  0  0  0  0  0  0  0  0
  140.5060   77.2540  222.4380 C   0  0  1  0  0  0  0  0  0  0  0  0
  139.0680   77.5960  222.2360 C   0  0  1  0  0  0  0  0  0  0  0  0
  138.0750   76.5990  222.7180 C   0  0  0  0  0  0  0  0  0  0  0  0
  136.7990   77.4520  222.7350 C   0  0  0  0  0  0  0  0  0  0  0  0
  137.2170   78.8290  222.7420 N   0  0  0  0  0  0  0  0  0  0  0  0
  138.6470   78.8340  222.9960 C   0  0  0  0  0  0  0  0  0  0  0  0
  140.2210   71.5470  223.5920 C   0  0  0  0  0  0  0  0  0  0  0  0
  139.5630   70.3370  223.4870 C   0  0  0  0  0  0  0  0  0  0  0  0
  139.3830   69.5030  224.5650 C   0  0  0  0  0  0  0  0  0  0  0  0
  139.8700   69.8640  225.8050 C   0  0  0  0  0  0  0  0  0  0  0  0
  139.6990   69.0410  226.8930 C   0  0  0  0  0  0  0  0  0  0  0  0
  140.1820   69.4010  228.1190 C   0  0  0  0  0  0  0  0  0  0  0  0
  139.9960   68.5690  229.1630 F   0  0  0  0  0  0  0  0  0  0  0  0
  140.8420   70.6160  228.2190 C   0  0  0  0  0  0  0  0  0  0  0  0
  141.0100   71.4420  227.1200 C   0  0  0  0  0  0  0  0  0  0  0  0
  140.5260   71.0830  225.8770 C   0  0  0  0  0  0  0  0  0  0  0  0
  140.6870   71.8830  224.8020 N   0  0  0  0  0  0  0  0  0  0  0  0
  139.0650   73.9630  223.0880 H   0  0  0  0  0  0  0  0  0  0  0  0
  139.8002   73.7969  220.2607 H   0  0  0  0  0  0  0  0  0  0  0  0
  139.0361   75.1854  221.1426 H   0  0  0  0  0  0  0  0  0  0  0  0
  142.8503   77.2945  220.3067 H   0  0  0  0  0  0  0  0  0  0  0  0
  141.3045   77.6756  219.5323 H   0  0  0  0  0  0  0  0  0  0  0  0
  142.7600   79.3258  221.2972 H   0  0  0  0  0  0  0  0  0  0  0  0
  141.0768   79.5840  220.7976 H   0  0  0  0  0  0  0  0  0  0  0  0
  142.1674   78.3232  223.3291 H   0  0  0  0  0  0  0  0  0  0  0  0
  140.7405   79.3148  223.1619 H   0  0  0  0  0  0  0  0  0  0  0  0
  140.4808   76.5673  223.2969 H   0  0  0  0  0  0  0  0  0  0  0  0
  139.0475   77.6883  221.1401 H   0  0  0  0  0  0  0  0  0  0  0  0
  137.9851   75.7492  222.0253 H   0  0  0  0  0  0  0  0  0  0  0  0
  138.3263   76.1347  223.6831 H   0  0  0  0  0  0  0  0  0  0  0  0
  136.1936   77.2450  221.8402 H   0  0  0  0  0  0  0  0  0  0  0  0
  136.1837   77.2227  223.6175 H   0  0  0  0  0  0  0  0  0  0  0  0
  137.0710   79.3120  221.8270 H   0  0  0  0  0  0  0  0  0  0  0  0
  139.1272   79.7390  222.5954 H   0  0  0  0  0  0  0  0  0  0  0  0
  138.9228   78.8333  224.0609 H   0  0  0  0  0  0  0  0  0  0  0  0
  139.1694   70.0301  222.5068 H   0  0  0  0  0  0  0  0  0  0  0  0
  138.8511   68.5484  224.4394 H   0  0  0  0  0  0  0  0  0  0  0  0
  139.1687   68.0845  226.7752 H   0  0  0  0  0  0  0  0  0  0  0  0
  141.2416   70.9315  229.1941 H   0  0  0  0  0  0  0  0  0  0  0  0
  141.5376   72.3998  227.2390 H   0  0  0  0  0  0  0  0  0  0  0  0
  1  2  2  0
  2  3  1  0
  3  4  1  0
  4  5  1  0
  5  6  2  0
  5  7  1  0
  7  8  1  0
  8  9  1  0
  9 10  1  0
 10 11  1  0
 11 12  1  0
 12 13  1  0
 13 14  1  0
 14 15  1  0
 15 16  1  0
  2 17  1  0
 17 18  2  0
 18 19  1  0
 19 20  2  0
 20 21  1  0
 21 22  2  0
 22 23  1  0
 22 24  1  0
 24 25  2  0
 25 26  1  0
 26 27  2  0
 11  7  1  0
 16 12  1  0
 27 17  1  0
 26 20  1  0
  3 28  1  0
  4 29  1  0
  4 30  1  0
  8 31  1  0
  8 32  1  0
  9 33  1  0
  9 34  1  0
 10 35  1  0
 10 36  1  0
 11 37  1  1
 12 38  1  6
 13 39  1  0
 13 40  1  0
 14 41  1  0
 14 42  1  0
 15 43  1  0
 16 44  1  0
 16 45  1  0
 18 46  1  0
 19 47  1  0
 21 48  1  0
 24 49  1  0
 25 50  1  0
M  END
>  <smiles>  (191) 
O=C(NCC(=O)N1CCCC1C1CCNC1)c1ccc2cc(F)ccc2n1

>  <score_type>  (191) 
oracle

>  <origin>  (191) 
autodockgpu

>  <m_score__min__energy>  (191) 
-8.7599999999999998

>  <m_primary>  (191) 
energy

>  <rmsd>  (191) 
2.731962680054868

>  <m_score__min__rmsd>  (191) 
2.731962680054868

>  <meeko>  (191) 
{"free_energy": -7.68, "intermolecular_energy": -9.17, "internal_energy": -1.14, "cluster_size": 11, "cluster_id": 2, "rank_in_cluster": 9}

>  <energy>  (191) 
-7.81

>  <cluster_rmsd>  (191) 
1.24

>  <cluster>  (191) 
2

$$$$

     RDKit          3D

 50 53  0  0  0  0  0  0  0  0999 V2000
  141.0380   73.7040  220.3240 O   0  0  0  0  0  0  0  0  0  0  0  0
  140.6180   74.4190  221.2870 C   0  0  0  0  0  0  0  0  0  0  0  0
  139.7680   73.8410  222.2720 N   0  0  0  0  0  0  0  0  0  0  0  0
  139.3970   72.4630  222.1650 C   0  0  0  0  0  0  0  0  0  0  0  0
  139.8400   71.6720  223.3640 C   0  0  0  0  0  0  0  0  0  0  0  0
  140.6980   72.1900  224.1220 O   0  0  0  0  0  0  0  0  0  0  0  0
  139.2730   70.3840  223.5810 N   0  0  0  0  0  0  0  0  0  0  0  0
  138.9890   69.3770  222.5470 C   0  0  0  0  0  0  0  0  0  0  0  0
  138.1560   68.3340  223.2130 C   0  0  0  0  0  0  0  0  0  0  0  0
  137.7600   68.8970  224.5580 C   0  0  0  0  0  0  0  0  0  0  0  0
  138.8860   69.8610  224.8480 C   0  0  1  0  0  0  0  0  0  0  0  0
  139.9530   69.1760  225.6350 C   0  0  1  0  0  0  0  0  0  0  0  0
  140.2630   69.7500  226.9710 C   0  0  0  0  0  0  0  0  0  0  0  0
  141.0380   68.5890  227.6080 C   0  0  0  0  0  0  0  0  0  0  0  0
  140.7100   67.4060  226.8570 N   0  0  0  0  0  0  0  0  0  0  0  0
  139.5960   67.7510  225.9920 C   0  0  0  0  0  0  0  0  0  0  0  0
  141.0020   75.8230  221.3870 C   0  0  0  0  0  0  0  0  0  0  0  0
  141.7840   76.3840  220.3960 C   0  0  0  0  0  0  0  0  0  0  0  0
  142.1810   77.7010  220.4310 C   0  0  0  0  0  0  0  0  0  0  0  0
  141.7950   78.5080  221.4820 C   0  0  0  0  0  0  0  0  0  0  0  0
  142.1830   79.8270  221.5310 C   0  0  0  0  0  0  0  0  0  0  0  0
  141.8010   80.6250  222.5720 C   0  0  0  0  0  0  0  0  0  0  0  0
  142.2000   81.9120  222.5880 F   0  0  0  0  0  0  0  0  0  0  0  0
  141.0160   80.0570  223.5640 C   0  0  0  0  0  0  0  0  0  0  0  0
  140.6290   78.7280  223.5090 C   0  0  0  0  0  0  0  0  0  0  0  0
  141.0110   77.9160  222.4590 C   0  0  0  0  0  0  0  0  0  0  0  0
  140.6370   76.6210  222.3990 N   0  0  0  0  0  0  0  0  0  0  0  0
  139.4060   74.4010  223.0770 H   0  0  0  0  0  0  0  0  0  0  0  0
  138.3026   72.3945  222.0775 H   0  0  0  0  0  0  0  0  0  0  0  0
  139.8912   72.0434  221.2763 H   0  0  0  0  0  0  0  0  0  0  0  0
  138.4373   69.8316  221.7110 H   0  0  0  0  0  0  0  0  0  0  0  0
  139.9143   68.9515  222.1314 H   0  0  0  0  0  0  0  0  0  0  0  0
  137.2601   68.1214  222.6111 H   0  0  0  0  0  0  0  0  0  0  0  0
  138.7119   67.3913  223.3240 H   0  0  0  0  0  0  0  0  0  0  0  0
  136.7933   69.4189  224.5023 H   0  0  0  0  0  0  0  0  0  0  0  0
  137.6264   68.1295  225.3346 H   0  0  0  0  0  0  0  0  0  0  0  0
  138.6061   70.7083  225.4912 H   0  0  0  0  0  0  0  0  0  0  0  0
  140.8001   69.2872  224.9422 H   0  0  0  0  0  0  0  0  0  0  0  0
  140.8834   70.6546  226.8892 H   0  0  0  0  0  0  0  0  0  0  0  0
  139.3819   70.0780  227.5421 H   0  0  0  0  0  0  0  0  0  0  0  0
  142.1196   68.7824  227.5559 H   0  0  0  0  0  0  0  0  0  0  0  0
  140.7685   68.4701  228.6678 H   0  0  0  0  0  0  0  0  0  0  0  0
  141.4860   67.0810  226.2350 H   0  0  0  0  0  0  0  0  0  0  0  0
  139.5591   67.1066  225.1013 H   0  0  0  0  0  0  0  0  0  0  0  0
  138.6044   67.6292  226.4523 H   0  0  0  0  0  0  0  0  0  0  0  0
  142.1002   75.7563  219.5498 H   0  0  0  0  0  0  0  0  0  0  0  0
  142.8050   78.1100  219.6227 H   0  0  0  0  0  0  0  0  0  0  0  0
  142.8060   80.2426  220.7253 H   0  0  0  0  0  0  0  0  0  0  0  0
  140.6932   80.6759  224.4141 H   0  0  0  0  0  0  0  0  0  0  0  0
  140.0069   78.3123  224.3153 H   0  0  0  0  0  0  0  0  0  0  0  0
  1  2  2  0
  2  3  1  0
  3  4  1  0
  4  5  1  0
  5  6  2  0
  5  7  1  0
  7  8  1  0
  8  9  1  0
  9 10  1  0
 10 11  1  0
 11 12  1  0
 12 13  1  0
 13 14  1  0
 14 15  1  0
 15 16  1  0
  2 17  1  0
 17 18  2  0
 18 19  1  0
 19 20  2  0
 20 21  1  0
 21 22  2  0
 22 23  1  0
 22 24  1  0
 24 25  2  0
 25 26  1  0
 26 27  2  0
 11  7  1  0
 16 12  1  0
 27 17  1  0
 26 20  1  0
  3 28  1  0
  4 29  1  0
  4 30  1  0
  8 31  1  0
  8 32  1  0
  9 33  1  0
  9 34  1  0
 10 35  1  0
 10 36  1  0
 11 37  1  1
 12 38  1  6
 13 39  1  0
 13 40  1  0
 14 41  1  0
 14 42  1  0
 15 43  1  0
 16 44  1  0
 16 45  1  0
 18 46  1  0
 19 47  1  0
 21 48  1  0
 24 49  1  0
 25 50  1  0
M  END
>  <smiles>  (192) 
O=C(NCC(=O)N1CCCC1C1CCNC1)c1ccc2cc(F)ccc2n1

>  <score_type>  (192) 
oracle

>  <origin>  (192) 
autodockgpu

>  <m_score__min__energy>  (192) 
-8.7599999999999998

>  <m_primary>  (192) 
energy

>  <rmsd>  (192) 
8.67249654192432

>  <m_score__min__rmsd>  (192) 
8.67249654192432

>  <meeko>  (192) 
{"free_energy": -7.55, "intermolecular_energy": -9.04, "internal_energy": -1.27, "cluster_size": 1, "cluster_id": 4, "rank_in_cluster": 1}

>  <energy>  (192) 
-7.81

>  <cluster_rmsd>  (192) 
1.28

>  <cluster>  (192) 
2

$$$$

     RDKit          3D

 50 53  0  0  0  0  0  0  0  0999 V2000
  139.9880   73.3090  222.7140 O   0  0  0  0  0  0  0  0  0  0  0  0
  139.9830   72.0440  222.5990 C   0  0  0  0  0  0  0  0  0  0  0  0
  140.0030   71.4570  221.3020 N   0  0  0  0  0  0  0  0  0  0  0  0
  140.0280   72.2990  220.1460 C   0  0  0  0  0  0  0  0  0  0  0  0
  141.4340   72.6220  219.7210 C   0  0  0  0  0  0  0  0  0  0  0  0
  142.1460   71.6790  219.2930 O   0  0  0  0  0  0  0  0  0  0  0  0
  141.8870   73.9670  219.8240 N   0  0  0  0  0  0  0  0  0  0  0  0
  141.3980   74.9770  220.7750 C   0  0  0  0  0  0  0  0  0  0  0  0
  141.9610   76.2780  220.3150 C   0  0  0  0  0  0  0  0  0  0  0  0
  142.5570   76.0280  218.9480 C   0  0  0  0  0  0  0  0  0  0  0  0
  142.8980   74.5580  219.0120 C   0  0  1  0  0  0  0  0  0  0  0  0
  144.3050   74.3800  219.4740 C   0  0  1  0  0  0  0  0  0  0  0  0
  144.4900   73.7640  220.8150 C   0  0  0  0  0  0  0  0  0  0  0  0
  145.9710   73.3690  220.7460 C   0  0  0  0  0  0  0  0  0  0  0  0
  146.3320   73.3420  219.3530 N   0  0  0  0  0  0  0  0  0  0  0  0
  145.0970   73.4380  218.5960 C   0  0  0  0  0  0  0  0  0  0  0  0
  139.9570   71.1940  223.7850 C   0  0  0  0  0  0  0  0  0  0  0  0
  139.3130   69.9740  223.7310 C   0  0  0  0  0  0  0  0  0  0  0  0
  139.2510   69.1280  224.8130 C   0  0  0  0  0  0  0  0  0  0  0  0
  139.8470   69.4880  226.0040 C   0  0  0  0  0  0  0  0  0  0  0  0
  139.7950   68.6520  227.0950 C   0  0  0  0  0  0  0  0  0  0  0  0
  140.3860   69.0110  228.2740 C   0  0  0  0  0  0  0  0  0  0  0  0
  140.3150   68.1680  229.3220 F   0  0  0  0  0  0  0  0  0  0  0  0
  141.0310   70.2380  228.3230 C   0  0  0  0  0  0  0  0  0  0  0  0
  141.0800   71.0750  227.2210 C   0  0  0  0  0  0  0  0  0  0  0  0
  140.4860   70.7180  226.0260 C   0  0  0  0  0  0  0  0  0  0  0  0
  140.5300   71.5290  224.9490 N   0  0  0  0  0  0  0  0  0  0  0  0
  140.0000   70.4200  221.1720 H   0  0  0  0  0  0  0  0  0  0  0  0
  139.5155   71.7847  219.3197 H   0  0  0  0  0  0  0  0  0  0  0  0
  139.5219   73.2423  220.3989 H   0  0  0  0  0  0  0  0  0  0  0  0
  140.2986   75.0111  220.7652 H   0  0  0  0  0  0  0  0  0  0  0  0
  141.7070   74.7449  221.8049 H   0  0  0  0  0  0  0  0  0  0  0  0
  141.1654   77.0348  220.2501 H   0  0  0  0  0  0  0  0  0  0  0  0
  142.7196   76.6539  221.0173 H   0  0  0  0  0  0  0  0  0  0  0  0
  141.8272   76.2337  218.1511 H   0  0  0  0  0  0  0  0  0  0  0  0
  143.4190   76.6714  218.7180 H   0  0  0  0  0  0  0  0  0  0  0  0
  142.8886   74.0470  218.0379 H   0  0  0  0  0  0  0  0  0  0  0  0
  144.6415   75.4272  219.4613 H   0  0  0  0  0  0  0  0  0  0  0  0
  144.3007   74.4867  221.6224 H   0  0  0  0  0  0  0  0  0  0  0  0
  143.8054   72.9310  221.0327 H   0  0  0  0  0  0  0  0  0  0  0  0
  146.5849   74.1080  221.2816 H   0  0  0  0  0  0  0  0  0  0  0  0
  146.1393   72.3885  221.2154 H   0  0  0  0  0  0  0  0  0  0  0  0
  146.9280   74.1510  219.0630 H   0  0  0  0  0  0  0  0  0  0  0  0
  145.2665   73.8622  217.5953 H   0  0  0  0  0  0  0  0  0  0  0  0
  144.6051   72.4740  218.3991 H   0  0  0  0  0  0  0  0  0  0  0  0
  138.8329   69.6682  222.7897 H   0  0  0  0  0  0  0  0  0  0  0  0
  138.7265   68.1647  224.7291 H   0  0  0  0  0  0  0  0  0  0  0  0
  139.2735   67.6865  227.0180 H   0  0  0  0  0  0  0  0  0  0  0  0
  141.5149   70.5535  229.2591 H   0  0  0  0  0  0  0  0  0  0  0  0
  141.6009   72.0408  227.2984 H   0  0  0  0  0  0  0  0  0  0  0  0
  1  2  2  0
  2  3  1  0
  3  4  1  0
  4  5  1  0
  5  6  2  0
  5  7  1  0
  7  8  1  0
  8  9  1  0
  9 10  1  0
 10 11  1  0
 11 12  1  0
 12 13  1  0
 13 14  1  0
 14 15  1  0
 15 16  1  0
  2 17  1  0
 17 18  2  0
 18 19  1  0
 19 20  2  0
 20 21  1  0
 21 22  2  0
 22 23  1  0
 22 24  1  0
 24 25  2  0
 25 26  1  0
 26 27  2  0
 11  7  1  0
 16 12  1  0
 27 17  1  0
 26 20  1  0
  3 28  1  0
  4 29  1  0
  4 30  1  0
  8 31  1  0
  8 32  1  0
  9 33  1  0
  9 34  1  0
 10 35  1  0
 10 36  1  0
 11 37  1  6
 12 38  1  1
 13 39  1  0
 13 40  1  0
 14 41  1  0
 14 42  1  0
 15 43  1  0
 16 44  1  0
 16 45  1  0
 18 46  1  0
 19 47  1  0
 21 48  1  0
 24 49  1  0
 25 50  1  0
M  END
>  <smiles>  (193) 
O=C(NCC(=O)N1CCCC1C1CCNC1)c1ccc2cc(F)ccc2n1

>  <score_type>  (193) 
oracle

>  <origin>  (193) 
autodockgpu

>  <m_score__min__energy>  (193) 
-8.7599999999999998

>  <m_primary>  (193) 
energy

>  <rmsd>  (193) 
2.4133268001197483

>  <m_score__min__rmsd>  (193) 
2.4133268001197483

>  <meeko>  (193) 
{"free_energy": -8.38, "intermolecular_energy": -9.87, "internal_energy": -1.27, "cluster_size": 35, "cluster_id": 1, "rank_in_cluster": 15}

>  <energy>  (193) 
-7.81

>  <cluster_rmsd>  (193) 
1.17

>  <cluster>  (193) 
2

$$$$

     RDKit          3D

 50 53  0  0  0  0  0  0  0  0999 V2000
  140.9790   71.1850  221.3220 O   0  0  0  0  0  0  0  0  0  0  0  0
  140.5400   71.8330  222.3230 C   0  0  0  0  0  0  0  0  0  0  0  0
  140.3010   73.2310  222.2040 N   0  0  0  0  0  0  0  0  0  0  0  0
  140.5570   73.8890  220.9590 C   0  0  0  0  0  0  0  0  0  0  0  0
  141.1100   75.2720  221.1620 C   0  0  0  0  0  0  0  0  0  0  0  0
  140.7990   75.8750  222.2200 O   0  0  0  0  0  0  0  0  0  0  0  0
  141.9490   75.8270  220.1560 N   0  0  0  0  0  0  0  0  0  0  0  0
  142.1930   77.2590  219.9250 C   0  0  0  0  0  0  0  0  0  0  0  0
  142.8990   77.3460  218.6140 C   0  0  0  0  0  0  0  0  0  0  0  0
  142.8150   75.9720  217.9910 C   0  0  0  0  0  0  0  0  0  0  0  0
  142.6950   75.0770  219.2020 C   0  0  1  0  0  0  0  0  0  0  0  0
  144.0470   74.6170  219.6330 C   0  0  1  0  0  0  0  0  0  0  0  0
  144.1010   73.7590  220.8460 C   0  0  0  0  0  0  0  0  0  0  0  0
  145.5110   73.1680  220.7160 C   0  0  0  0  0  0  0  0  0  0  0  0
  145.9060   73.3280  219.3410 N   0  0  0  0  0  0  0  0  0  0  0  0
  144.7210   73.7340  218.6070 C   0  0  0  0  0  0  0  0  0  0  0  0
  140.2820   71.1530  223.5880 C   0  0  0  0  0  0  0  0  0  0  0  0
  139.5750   69.9670  223.5880 C   0  0  0  0  0  0  0  0  0  0  0  0
  139.2970   69.2770  224.7450 C   0  0  0  0  0  0  0  0  0  0  0  0
  139.7310   69.7670  225.9600 C   0  0  0  0  0  0  0  0  0  0  0  0
  139.4620   69.0900  227.1260 C   0  0  0  0  0  0  0  0  0  0  0  0
  139.8920   69.5770  228.3270 C   0  0  0  0  0  0  0  0  0  0  0  0
  139.6100   68.8870  229.4500 F   0  0  0  0  0  0  0  0  0  0  0  0
  140.6010   70.7690  228.3220 C   0  0  0  0  0  0  0  0  0  0  0  0
  140.8680   71.4470  227.1440 C   0  0  0  0  0  0  0  0  0  0  0  0
  140.4380   70.9600  225.9260 C   0  0  0  0  0  0  0  0  0  0  0  0
  140.6950   71.6150  224.7750 N   0  0  0  0  0  0  0  0  0  0  0  0
  139.9400   73.7940  223.0080 H   0  0  0  0  0  0  0  0  0  0  0  0
  141.2841   73.2954  220.3855 H   0  0  0  0  0  0  0  0  0  0  0  0
  139.6040   73.9779  220.4169 H   0  0  0  0  0  0  0  0  0  0  0  0
  141.2406   77.8079  219.8841 H   0  0  0  0  0  0  0  0  0  0  0  0
  142.7892   77.7035  220.7356 H   0  0  0  0  0  0  0  0  0  0  0  0
  142.4085   78.0877  217.9665 H   0  0  0  0  0  0  0  0  0  0  0  0
  143.9448   77.6607  218.7449 H   0  0  0  0  0  0  0  0  0  0  0  0
  141.9325   75.8827  217.3405 H   0  0  0  0  0  0  0  0  0  0  0  0
  143.6715   75.7276  217.3455 H   0  0  0  0  0  0  0  0  0  0  0  0
  142.1578   74.1346  219.0195 H   0  0  0  0  0  0  0  0  0  0  0  0
  144.5310   75.5896  219.8059 H   0  0  0  0  0  0  0  0  0  0  0  0
  143.9935   74.3517  221.7664 H   0  0  0  0  0  0  0  0  0  0  0  0
  143.2973   73.0108  220.9114 H   0  0  0  0  0  0  0  0  0  0  0  0
  146.2087   73.7054  221.3751 H   0  0  0  0  0  0  0  0  0  0  0  0
  145.5220   72.1076  221.0081 H   0  0  0  0  0  0  0  0  0  0  0  0
  146.6210   74.0790  219.1990 H   0  0  0  0  0  0  0  0  0  0  0  0
  144.9799   74.2947  217.6967 H   0  0  0  0  0  0  0  0  0  0  0  0
  144.1013   72.9015  218.2423 H   0  0  0  0  0  0  0  0  0  0  0  0
  139.2217   69.5597  222.6292 H   0  0  0  0  0  0  0  0  0  0  0  0
  138.7294   68.3357  224.7019 H   0  0  0  0  0  0  0  0  0  0  0  0
  138.8954   68.1478  227.0911 H   0  0  0  0  0  0  0  0  0  0  0  0
  140.9594   71.1854  229.2750 H   0  0  0  0  0  0  0  0  0  0  0  0
  141.4327   72.3903  227.1797 H   0  0  0  0  0  0  0  0  0  0  0  0
  1  2  2  0
  2  3  1  0
  3  4  1  0
  4  5  1  0
  5  6  2  0
  5  7  1  0
  7  8  1  0
  8  9  1  0
  9 10  1  0
 10 11  1  0
 11 12  1  0
 12 13  1  0
 13 14  1  0
 14 15  1  0
 15 16  1  0
  2 17  1  0
 17 18  2  0
 18 19  1  0
 19 20  2  0
 20 21  1  0
 21 22  2  0
 22 23  1  0
 22 24  1  0
 24 25  2  0
 25 26  1  0
 26 27  2  0
 11  7  1  0
 16 12  1  0
 27 17  1  0
 26 20  1  0
  3 28  1  0
  4 29  1  0
  4 30  1  0
  8 31  1  0
  8 32  1  0
  9 33  1  0
  9 34  1  0
 10 35  1  0
 10 36  1  0
 11 37  1  6
 12 38  1  1
 13 39  1  0
 13 40  1  0
 14 41  1  0
 14 42  1  0
 15 43  1  0
 16 44  1  0
 16 45  1  0
 18 46  1  0
 19 47  1  0
 21 48  1  0
 24 49  1  0
 25 50  1  0
M  END
>  <smiles>  (194) 
O=C(NCC(=O)N1CCCC1C1CCNC1)c1ccc2cc(F)ccc2n1

>  <score_type>  (194) 
oracle

>  <origin>  (194) 
autodockgpu

>  <m_score__min__energy>  (194) 
-8.7599999999999998

>  <m_primary>  (194) 
energy

>  <rmsd>  (194) 
2.31816460162596

>  <m_score__min__rmsd>  (194) 
2.31816460162596

>  <meeko>  (194) 
{"free_energy": -8.43, "intermolecular_energy": -9.92, "internal_energy": -1.65, "cluster_size": 35, "cluster_id": 1, "rank_in_cluster": 13}

>  <energy>  (194) 
-7.68

>  <cluster_rmsd>  (194) 
1.72

>  <cluster>  (194) 
2

$$$$

     RDKit          3D

 50 53  0  0  0  0  0  0  0  0999 V2000
  141.0480   71.9080  221.3220 O   0  0  0  0  0  0  0  0  0  0  0  0
  140.4420   72.3550  222.3460 C   0  0  0  0  0  0  0  0  0  0  0  0
  139.9230   73.6810  222.3320 N   0  0  0  0  0  0  0  0  0  0  0  0
  140.0910   74.4930  221.1650 C   0  0  0  0  0  0  0  0  0  0  0  0
  139.7340   75.9290  221.4290 C   0  0  0  0  0  0  0  0  0  0  0  0
  138.9140   76.1680  222.3520 O   0  0  0  0  0  0  0  0  0  0  0  0
  140.3350   76.9410  220.6300 N   0  0  0  0  0  0  0  0  0  0  0  0
  139.8610   77.4040  219.3170 C   0  0  0  0  0  0  0  0  0  0  0  0
  140.9550   78.2530  218.7630 C   0  0  0  0  0  0  0  0  0  0  0  0
  142.1520   78.0490  219.6640 C   0  0  0  0  0  0  0  0  0  0  0  0
  141.5060   77.6760  220.9770 C   0  0  1  0  0  0  0  0  0  0  0  0
  141.2970   78.8970  221.8090 C   0  0  1  0  0  0  0  0  0  0  0  0
  140.4500   78.7390  223.0200 C   0  0  0  0  0  0  0  0  0  0  0  0
  140.8150   80.0130  223.7930 C   0  0  0  0  0  0  0  0  0  0  0  0
  142.0650   80.4830  223.2560 N   0  0  0  0  0  0  0  0  0  0  0  0
  142.5820   79.4270  222.4050 C   0  0  0  0  0  0  0  0  0  0  0  0
  140.2770   71.5190  223.5300 C   0  0  0  0  0  0  0  0  0  0  0  0
  139.6470   70.2960  223.4140 C   0  0  0  0  0  0  0  0  0  0  0  0
  139.4590   69.4620  224.4910 C   0  0  0  0  0  0  0  0  0  0  0  0
  139.9080   69.8370  225.7400 C   0  0  0  0  0  0  0  0  0  0  0  0
  139.7290   69.0140  226.8270 C   0  0  0  0  0  0  0  0  0  0  0  0
  140.1750   69.3880  228.0630 C   0  0  0  0  0  0  0  0  0  0  0  0
  139.9820   68.5560  229.1060 F   0  0  0  0  0  0  0  0  0  0  0  0
  140.8070   70.6180  228.1740 C   0  0  0  0  0  0  0  0  0  0  0  0
  140.9840   71.4430  227.0760 C   0  0  0  0  0  0  0  0  0  0  0  0
  140.5370   71.0700  225.8240 C   0  0  0  0  0  0  0  0  0  0  0  0
  140.7070   71.8690  224.7490 N   0  0  0  0  0  0  0  0  0  0  0  0
  139.4200   74.0790  223.1570 H   0  0  0  0  0  0  0  0  0  0  0  0
  141.1414   74.4405  220.8427 H   0  0  0  0  0  0  0  0  0  0  0  0
  139.4184   74.1113  220.3827 H   0  0  0  0  0  0  0  0  0  0  0  0
  139.6698   76.5464  218.6551 H   0  0  0  0  0  0  0  0  0  0  0  0
  138.9187   77.9651  219.4029 H   0  0  0  0  0  0  0  0  0  0  0  0
  141.1948   77.9418  217.7356 H   0  0  0  0  0  0  0  0  0  0  0  0
  140.6588   79.3118  218.7273 H   0  0  0  0  0  0  0  0  0  0  0  0
  142.7967   77.2387  219.2927 H   0  0  0  0  0  0  0  0  0  0  0  0
  142.8087   78.9290  219.7303 H   0  0  0  0  0  0  0  0  0  0  0  0
  142.1265   77.0371  221.6226 H   0  0  0  0  0  0  0  0  0  0  0  0
  140.8182   79.5518  221.0661 H   0  0  0  0  0  0  0  0  0  0  0  0
  139.3802   78.7123  222.7653 H   0  0  0  0  0  0  0  0  0  0  0  0
  140.6187   77.8047  223.5755 H   0  0  0  0  0  0  0  0  0  0  0  0
  140.0339   80.7754  223.6565 H   0  0  0  0  0  0  0  0  0  0  0  0
  140.9007   79.8093  224.8706 H   0  0  0  0  0  0  0  0  0  0  0  0
  141.9650   81.3340  222.6560 H   0  0  0  0  0  0  0  0  0  0  0  0
  143.2555   79.8230  221.6306 H   0  0  0  0  0  0  0  0  0  0  0  0
  143.1889   78.6734  222.9282 H   0  0  0  0  0  0  0  0  0  0  0  0
  139.2829   69.9778  222.4260 H   0  0  0  0  0  0  0  0  0  0  0  0
  138.9506   68.4959  224.3564 H   0  0  0  0  0  0  0  0  0  0  0  0
  139.2222   68.0460  226.7002 H   0  0  0  0  0  0  0  0  0  0  0  0
  141.1761   70.9455  229.1571 H   0  0  0  0  0  0  0  0  0  0  0  0
  141.4892   72.4118  227.2034 H   0  0  0  0  0  0  0  0  0  0  0  0
  1  2  2  0
  2  3  1  0
  3  4  1  0
  4  5  1  0
  5  6  2  0
  5  7  1  0
  7  8  1  0
  8  9  1  0
  9 10  1  0
 10 11  1  0
 11 12  1  0
 12 13  1  0
 13 14  1  0
 14 15  1  0
 15 16  1  0
  2 17  1  0
 17 18  2  0
 18 19  1  0
 19 20  2  0
 20 21  1  0
 21 22  2  0
 22 23  1  0
 22 24  1  0
 24 25  2  0
 25 26  1  0
 26 27  2  0
 11  7  1  0
 16 12  1  0
 27 17  1  0
 26 20  1  0
  3 28  1  0
  4 29  1  0
  4 30  1  0
  8 31  1  0
  8 32  1  0
  9 33  1  0
  9 34  1  0
 10 35  1  0
 10 36  1  0
 11 37  1  1
 12 38  1  6
 13 39  1  0
 13 40  1  0
 14 41  1  0
 14 42  1  0
 15 43  1  0
 16 44  1  0
 16 45  1  0
 18 46  1  0
 19 47  1  0
 21 48  1  0
 24 49  1  0
 25 50  1  0
M  END
>  <smiles>  (195) 
O=C(NCC(=O)N1CCCC1C1CCNC1)c1ccc2cc(F)ccc2n1

>  <score_type>  (195) 
oracle

>  <origin>  (195) 
autodockgpu

>  <m_score__min__energy>  (195) 
-8.7599999999999998

>  <m_primary>  (195) 
energy

>  <rmsd>  (195) 
1.7980429608047284

>  <m_score__min__rmsd>  (195) 
1.7980429608047284

>  <meeko>  (195) 
{"free_energy": -7.64, "intermolecular_energy": -9.13, "internal_energy": -1.55, "cluster_size": 11, "cluster_id": 2, "rank_in_cluster": 10}

>  <energy>  (195) 
-7.64

>  <cluster_rmsd>  (195) 
1.29

>  <cluster>  (195) 
2

$$$$

     RDKit          3D

 50 53  0  0  0  0  0  0  0  0999 V2000
  140.8550   72.0000  221.2390 O   0  0  0  0  0  0  0  0  0  0  0  0
  140.3180   72.4200  222.3110 C   0  0  0  0  0  0  0  0  0  0  0  0
  139.8040   73.7460  222.3660 N   0  0  0  0  0  0  0  0  0  0  0  0
  139.8980   74.5890  221.2130 C   0  0  0  0  0  0  0  0  0  0  0  0
  139.8680   76.0460  221.5830 C   0  0  0  0  0  0  0  0  0  0  0  0
  139.3430   76.3590  222.6810 O   0  0  0  0  0  0  0  0  0  0  0  0
  140.4280   76.9930  220.6800 N   0  0  0  0  0  0  0  0  0  0  0  0
  139.9100   77.3290  219.3460 C   0  0  0  0  0  0  0  0  0  0  0  0
  140.9730   78.1440  218.6890 C   0  0  0  0  0  0  0  0  0  0  0  0
  142.1980   78.0390  219.5700 C   0  0  0  0  0  0  0  0  0  0  0  0
  141.5940   77.7740  220.9290 C   0  0  1  0  0  0  0  0  0  0  0  0
  141.3850   79.0610  221.6540 C   0  0  1  0  0  0  0  0  0  0  0  0
  140.2500   79.1040  222.6140 C   0  0  0  0  0  0  0  0  0  0  0  0
  140.6130   80.3540  223.4280 C   0  0  0  0  0  0  0  0  0  0  0  0
  142.0150   80.5980  223.2170 N   0  0  0  0  0  0  0  0  0  0  0  0
  142.5500   79.4260  222.5460 C   0  0  0  0  0  0  0  0  0  0  0  0
  140.2260   71.5530  223.4810 C   0  0  0  0  0  0  0  0  0  0  0  0
  139.6600   70.3000  223.3530 C   0  0  0  0  0  0  0  0  0  0  0  0
  139.5430   69.4350  224.4160 C   0  0  0  0  0  0  0  0  0  0  0  0
  140.0020   69.8090  225.6620 C   0  0  0  0  0  0  0  0  0  0  0  0
  139.8930   68.9560  226.7350 C   0  0  0  0  0  0  0  0  0  0  0  0
  140.3470   69.3290  227.9680 C   0  0  0  0  0  0  0  0  0  0  0  0
  140.2240   68.4670  228.9970 F   0  0  0  0  0  0  0  0  0  0  0  0
  140.9150   70.5880  228.0920 C   0  0  0  0  0  0  0  0  0  0  0  0
  141.0210   71.4430  227.0070 C   0  0  0  0  0  0  0  0  0  0  0  0
  140.5650   71.0720  225.7580 C   0  0  0  0  0  0  0  0  0  0  0  0
  140.6660   71.9010  224.6970 N   0  0  0  0  0  0  0  0  0  0  0  0
  139.3560   74.1230  223.2320 H   0  0  0  0  0  0  0  0  0  0  0  0
  140.8417   74.3737  220.6904 H   0  0  0  0  0  0  0  0  0  0  0  0
  139.0322   74.3823  220.5667 H   0  0  0  0  0  0  0  0  0  0  0  0
  139.7179   76.4130  218.7681 H   0  0  0  0  0  0  0  0  0  0  0  0
  138.9594   77.8790  219.4082 H   0  0  0  0  0  0  0  0  0  0  0  0
  141.1907   77.7479  217.6861 H   0  0  0  0  0  0  0  0  0  0  0  0
  140.6563   79.1906  218.5698 H   0  0  0  0  0  0  0  0  0  0  0  0
  142.8466   77.2089  219.2534 H   0  0  0  0  0  0  0  0  0  0  0  0
  142.8408   78.9312  219.5396 H   0  0  0  0  0  0  0  0  0  0  0  0
  142.2420   77.2051  221.6119 H   0  0  0  0  0  0  0  0  0  0  0  0
  141.2172   79.7351  220.8011 H   0  0  0  0  0  0  0  0  0  0  0  0
  139.2863   79.2226  222.0972 H   0  0  0  0  0  0  0  0  0  0  0  0
  140.1236   78.1900  223.2128 H   0  0  0  0  0  0  0  0  0  0  0  0
  140.0229   81.2153  223.0817 H   0  0  0  0  0  0  0  0  0  0  0  0
  140.3959   80.2049  224.4960 H   0  0  0  0  0  0  0  0  0  0  0  0
  142.2050   81.4160  222.5930 H   0  0  0  0  0  0  0  0  0  0  0  0
  143.4490   79.6687  221.9604 H   0  0  0  0  0  0  0  0  0  0  0  0
  142.8788   78.6223  223.2212 H   0  0  0  0  0  0  0  0  0  0  0  0
  139.2899   69.9827  222.3669 H   0  0  0  0  0  0  0  0  0  0  0  0
  139.0838   68.4458  224.2727 H   0  0  0  0  0  0  0  0  0  0  0  0
  139.4362   67.9646  226.5992 H   0  0  0  0  0  0  0  0  0  0  0  0
  141.2896   70.9150  229.0732 H   0  0  0  0  0  0  0  0  0  0  0  0
  141.4765   72.4349  227.1432 H   0  0  0  0  0  0  0  0  0  0  0  0
  1  2  2  0
  2  3  1  0
  3  4  1  0
  4  5  1  0
  5  6  2  0
  5  7  1  0
  7  8  1  0
  8  9  1  0
  9 10  1  0
 10 11  1  0
 11 12  1  0
 12 13  1  0
 13 14  1  0
 14 15  1  0
 15 16  1  0
  2 17  1  0
 17 18  2  0
 18 19  1  0
 19 20  2  0
 20 21  1  0
 21 22  2  0
 22 23  1  0
 22 24  1  0
 24 25  2  0
 25 26  1  0
 26 27  2  0
 11  7  1  0
 16 12  1  0
 27 17  1  0
 26 20  1  0
  3 28  1  0
  4 29  1  0
  4 30  1  0
  8 31  1  0
  8 32  1  0
  9 33  1  0
  9 34  1  0
 10 35  1  0
 10 36  1  0
 11 37  1  1
 12 38  1  6
 13 39  1  0
 13 40  1  0
 14 41  1  0
 14 42  1  0
 15 43  1  0
 16 44  1  0
 16 45  1  0
 18 46  1  0
 19 47  1  0
 21 48  1  0
 24 49  1  0
 25 50  1  0
M  END
>  <smiles>  (196) 
O=C(NCC(=O)N1CCCC1C1CCNC1)c1ccc2cc(F)ccc2n1

>  <score_type>  (196) 
oracle

>  <origin>  (196) 
autodockgpu

>  <m_score__min__energy>  (196) 
-8.7599999999999998

>  <m_primary>  (196) 
energy

>  <rmsd>  (196) 
1.7378940365593236

>  <m_score__min__rmsd>  (196) 
1.7378940365593236

>  <meeko>  (196) 
{"free_energy": -7.63, "intermolecular_energy": -9.12, "internal_energy": -1.52, "cluster_size": 11, "cluster_id": 2, "rank_in_cluster": 11}

>  <energy>  (196) 
-7.63

>  <cluster_rmsd>  (196) 
1.3

>  <cluster>  (196) 
2

$$$$

     RDKit          3D

 50 53  0  0  0  0  0  0  0  0999 V2000
  141.5640   71.8350  221.5870 O   0  0  0  0  0  0  0  0  0  0  0  0
  140.6740   72.2460  222.3950 C   0  0  0  0  0  0  0  0  0  0  0  0
  139.9580   73.4410  222.1040 N   0  0  0  0  0  0  0  0  0  0  0  0
  140.2480   74.1640  220.9040 C   0  0  0  0  0  0  0  0  0  0  0  0
  141.1770   75.3180  221.1590 C   0  0  0  0  0  0  0  0  0  0  0  0
  141.1760   75.8260  222.3090 O   0  0  0  0  0  0  0  0  0  0  0  0
  142.0040   75.7780  220.0970 N   0  0  0  0  0  0  0  0  0  0  0  0
  142.2530   77.1830  219.7370 C   0  0  0  0  0  0  0  0  0  0  0  0
  142.9400   77.1500  218.4140 C   0  0  0  0  0  0  0  0  0  0  0  0
  142.8390   75.7270  217.9150 C   0  0  0  0  0  0  0  0  0  0  0  0
  142.7320   74.9420  219.2010 C   0  0  1  0  0  0  0  0  0  0  0  0
  144.0880   74.5120  219.6510 C   0  0  1  0  0  0  0  0  0  0  0  0
  144.1400   73.6080  220.8300 C   0  0  0  0  0  0  0  0  0  0  0  0
  145.5730   73.0730  220.7170 C   0  0  0  0  0  0  0  0  0  0  0  0
  145.9990   73.3020  219.3610 N   0  0  0  0  0  0  0  0  0  0  0  0
  144.8200   73.6950  218.6110 C   0  0  0  0  0  0  0  0  0  0  0  0
  140.3860   71.5010  223.6160 C   0  0  0  0  0  0  0  0  0  0  0  0
  139.6460   70.3370  223.5410 C   0  0  0  0  0  0  0  0  0  0  0  0
  139.3390   69.5890  224.6540 C   0  0  0  0  0  0  0  0  0  0  0  0
  139.7760   69.9950  225.8990 C   0  0  0  0  0  0  0  0  0  0  0  0
  139.4780   69.2580  227.0210 C   0  0  0  0  0  0  0  0  0  0  0  0
  139.9100   69.6620  228.2520 C   0  0  0  0  0  0  0  0  0  0  0  0
  139.5990   68.9160  229.3300 F   0  0  0  0  0  0  0  0  0  0  0  0
  140.6530   70.8320  228.3220 C   0  0  0  0  0  0  0  0  0  0  0  0
  140.9490   71.5700  227.1880 C   0  0  0  0  0  0  0  0  0  0  0  0
  140.5160   71.1670  225.9400 C   0  0  0  0  0  0  0  0  0  0  0  0
  140.8010   71.8810  224.8320 N   0  0  0  0  0  0  0  0  0  0  0  0
  139.2190   73.8060  222.7480 H   0  0  0  0  0  0  0  0  0  0  0  0
  140.7185   73.4809  220.1815 H   0  0  0  0  0  0  0  0  0  0  0  0
  139.3030   74.5661  220.5099 H   0  0  0  0  0  0  0  0  0  0  0  0
  141.3032   77.7328  219.6614 H   0  0  0  0  0  0  0  0  0  0  0  0
  142.8638   77.6925  220.4968 H   0  0  0  0  0  0  0  0  0  0  0  0
  142.4443   77.8356  217.7109 H   0  0  0  0  0  0  0  0  0  0  0  0
  143.9894   77.4677  218.5020 H   0  0  0  0  0  0  0  0  0  0  0  0
  141.9464   75.5873  217.2875 H   0  0  0  0  0  0  0  0  0  0  0  0
  143.6846   75.4213  217.2813 H   0  0  0  0  0  0  0  0  0  0  0  0
  142.1868   73.9910  219.1094 H   0  0  0  0  0  0  0  0  0  0  0  0
  144.5322   75.4930  219.8751 H   0  0  0  0  0  0  0  0  0  0  0  0
  143.9861   74.1586  221.7697 H   0  0  0  0  0  0  0  0  0  0  0  0
  143.3625   72.8300  220.8428 H   0  0  0  0  0  0  0  0  0  0  0  0
  146.2327   73.6077  221.4162 H   0  0  0  0  0  0  0  0  0  0  0  0
  145.6146   72.0027  220.9674 H   0  0  0  0  0  0  0  0  0  0  0  0
  146.6900   74.0820  219.2700 H   0  0  0  0  0  0  0  0  0  0  0  0
  145.0823   74.3002  217.7307 H   0  0  0  0  0  0  0  0  0  0  0  0
  144.2406   72.8564  218.1973 H   0  0  0  0  0  0  0  0  0  0  0  0
  139.2899   69.9965  222.5575 H   0  0  0  0  0  0  0  0  0  0  0  0
  138.7459   68.6682  224.5520 H   0  0  0  0  0  0  0  0  0  0  0  0
  138.8867   68.3353  226.9263 H   0  0  0  0  0  0  0  0  0  0  0  0
  141.0150   71.1812  229.3003 H   0  0  0  0  0  0  0  0  0  0  0  0
  141.5393   72.4933  227.2830 H   0  0  0  0  0  0  0  0  0  0  0  0
  1  2  2  0
  2  3  1  0
  3  4  1  0
  4  5  1  0
  5  6  2  0
  5  7  1  0
  7  8  1  0
  8  9  1  0
  9 10  1  0
 10 11  1  0
 11 12  1  0
 12 13  1  0
 13 14  1  0
 14 15  1  0
 15 16  1  0
  2 17  1  0
 17 18  2  0
 18 19  1  0
 19 20  2  0
 20 21  1  0
 21 22  2  0
 22 23  1  0
 22 24  1  0
 24 25  2  0
 25 26  1  0
 26 27  2  0
 11  7  1  0
 16 12  1  0
 27 17  1  0
 26 20  1  0
  3 28  1  0
  4 29  1  0
  4 30  1  0
  8 31  1  0
  8 32  1  0
  9 33  1  0
  9 34  1  0
 10 35  1  0
 10 36  1  0
 11 37  1  6
 12 38  1  1
 13 39  1  0
 13 40  1  0
 14 41  1  0
 14 42  1  0
 15 43  1  0
 16 44  1  0
 16 45  1  0
 18 46  1  0
 19 47  1  0
 21 48  1  0
 24 49  1  0
 25 50  1  0
M  END
>  <smiles>  (197) 
O=C(NCC(=O)N1CCCC1C1CCNC1)c1ccc2cc(F)ccc2n1

>  <score_type>  (197) 
oracle

>  <origin>  (197) 
autodockgpu

>  <m_score__min__energy>  (197) 
-8.7599999999999998

>  <m_primary>  (197) 
energy

>  <rmsd>  (197) 
2.3482201579917836

>  <m_score__min__rmsd>  (197) 
2.3482201579917836

>  <meeko>  (197) 
{"free_energy": -8.76, "intermolecular_energy": -10.25, "internal_energy": -1.42, "cluster_size": 35, "cluster_id": 1, "rank_in_cluster": 1}

>  <energy>  (197) 
-7.75

>  <cluster_rmsd>  (197) 
0.0

>  <cluster>  (197) 
3

$$$$

     RDKit          3D

 50 53  0  0  0  0  0  0  0  0999 V2000
  141.0540   71.4850  221.3520 O   0  0  0  0  0  0  0  0  0  0  0  0
  140.5040   72.0620  222.3410 C   0  0  0  0  0  0  0  0  0  0  0  0
  140.1070   73.4240  222.2280 N   0  0  0  0  0  0  0  0  0  0  0  0
  140.3330   74.1270  221.0020 C   0  0  0  0  0  0  0  0  0  0  0  0
  141.1980   75.3390  221.2040 C   0  0  0  0  0  0  0  0  0  0  0  0
  141.1680   75.8970  222.3310 O   0  0  0  0  0  0  0  0  0  0  0  0
  142.0010   75.7960  220.1220 N   0  0  0  0  0  0  0  0  0  0  0  0
  142.2310   77.1980  219.7440 C   0  0  0  0  0  0  0  0  0  0  0  0
  142.8920   77.1580  218.4080 C   0  0  0  0  0  0  0  0  0  0  0  0
  142.7940   75.7290  217.9250 C   0  0  0  0  0  0  0  0  0  0  0  0
  142.7180   74.9570  219.2210 C   0  0  1  0  0  0  0  0  0  0  0  0
  144.0860   74.5430  219.6490 C   0  0  1  0  0  0  0  0  0  0  0  0
  144.1680   73.6490  220.8340 C   0  0  0  0  0  0  0  0  0  0  0  0
  145.6050   73.1250  220.6980 C   0  0  0  0  0  0  0  0  0  0  0  0
  146.0030   73.3480  219.3330 N   0  0  0  0  0  0  0  0  0  0  0  0
  144.8070   73.7250  218.6010 C   0  0  0  0  0  0  0  0  0  0  0  0
  140.2780   71.3370  223.5870 C   0  0  0  0  0  0  0  0  0  0  0  0
  139.6330   70.1170  223.5540 C   0  0  0  0  0  0  0  0  0  0  0  0
  139.3880   69.3840  224.6920 C   0  0  0  0  0  0  0  0  0  0  0  0
  139.7940   69.8640  225.9210 C   0  0  0  0  0  0  0  0  0  0  0  0
  139.5580   69.1430  227.0680 C   0  0  0  0  0  0  0  0  0  0  0  0
  139.9610   69.6200  228.2830 C   0  0  0  0  0  0  0  0  0  0  0  0
  139.7120   68.8870  229.3870 F   0  0  0  0  0  0  0  0  0  0  0  0
  140.6080   70.8470  228.3110 C   0  0  0  0  0  0  0  0  0  0  0  0
  140.8430   71.5680  227.1520 C   0  0  0  0  0  0  0  0  0  0  0  0
  140.4400   71.0910  225.9210 C   0  0  0  0  0  0  0  0  0  0  0  0
  140.6650   71.7880  224.7880 N   0  0  0  0  0  0  0  0  0  0  0  0
  139.6520   73.9290  223.0230 H   0  0  0  0  0  0  0  0  0  0  0  0
  140.8287   73.4506  220.2901 H   0  0  0  0  0  0  0  0  0  0  0  0
  139.3591   74.4629  220.6164 H   0  0  0  0  0  0  0  0  0  0  0  0
  141.2754   77.7393  219.6820 H   0  0  0  0  0  0  0  0  0  0  0  0
  142.8526   77.7197  220.4866 H   0  0  0  0  0  0  0  0  0  0  0  0
  142.3763   77.8321  217.7083 H   0  0  0  0  0  0  0  0  0  0  0  0
  143.9400   77.4859  218.4720 H   0  0  0  0  0  0  0  0  0  0  0  0
  141.8910   75.5752  217.3159 H   0  0  0  0  0  0  0  0  0  0  0  0
  143.6299   75.4238  217.2783 H   0  0  0  0  0  0  0  0  0  0  0  0
  142.1787   74.0009  219.1498 H   0  0  0  0  0  0  0  0  0  0  0  0
  144.5253   75.5297  219.8575 H   0  0  0  0  0  0  0  0  0  0  0  0
  144.0269   74.2058  221.7721 H   0  0  0  0  0  0  0  0  0  0  0  0
  143.3977   72.8645  220.8676 H   0  0  0  0  0  0  0  0  0  0  0  0
  146.2729   73.6705  221.3809 H   0  0  0  0  0  0  0  0  0  0  0  0
  145.6610   72.0570  220.9554 H   0  0  0  0  0  0  0  0  0  0  0  0
  146.6850   74.1340  219.2230 H   0  0  0  0  0  0  0  0  0  0  0  0
  145.0481   74.3263  217.7120 H   0  0  0  0  0  0  0  0  0  0  0  0
  144.2281   72.8784  218.2033 H   0  0  0  0  0  0  0  0  0  0  0  0
  139.3034   69.7170  222.5838 H   0  0  0  0  0  0  0  0  0  0  0  0
  138.8692   68.4165  224.6228 H   0  0  0  0  0  0  0  0  0  0  0  0
  139.0405   68.1743  227.0066 H   0  0  0  0  0  0  0  0  0  0  0  0
  140.9420   71.2566  229.2757 H   0  0  0  0  0  0  0  0  0  0  0  0
  141.3596   72.5372  227.2136 H   0  0  0  0  0  0  0  0  0  0  0  0
  1  2  2  0
  2  3  1  0
  3  4  1  0
  4  5  1  0
  5  6  2  0
  5  7  1  0
  7  8  1  0
  8  9  1  0
  9 10  1  0
 10 11  1  0
 11 12  1  0
 12 13  1  0
 13 14  1  0
 14 15  1  0
 15 16  1  0
  2 17  1  0
 17 18  2  0
 18 19  1  0
 19 20  2  0
 20 21  1  0
 21 22  2  0
 22 23  1  0
 22 24  1  0
 24 25  2  0
 25 26  1  0
 26 27  2  0
 11  7  1  0
 16 12  1  0
 27 17  1  0
 26 20  1  0
  3 28  1  0
  4 29  1  0
  4 30  1  0
  8 31  1  0
  8 32  1  0
  9 33  1  0
  9 34  1  0
 10 35  1  0
 10 36  1  0
 11 37  1  6
 12 38  1  1
 13 39  1  0
 13 40  1  0
 14 41  1  0
 14 42  1  0
 15 43  1  0
 16 44  1  0
 16 45  1  0
 18 46  1  0
 19 47  1  0
 21 48  1  0
 24 49  1  0
 25 50  1  0
M  END
>  <smiles>  (198) 
O=C(NCC(=O)N1CCCC1C1CCNC1)c1ccc2cc(F)ccc2n1

>  <score_type>  (198) 
oracle

>  <origin>  (198) 
autodockgpu

>  <m_score__min__energy>  (198) 
-8.7599999999999998

>  <m_primary>  (198) 
energy

>  <rmsd>  (198) 
2.302393682088559

>  <m_score__min__rmsd>  (198) 
2.302393682088559

>  <meeko>  (198) 
{"free_energy": -8.66, "intermolecular_energy": -10.15, "internal_energy": -1.52, "cluster_size": 35, "cluster_id": 1, "rank_in_cluster": 6}

>  <energy>  (198) 
-7.55

>  <cluster_rmsd>  (198) 
0.0

>  <cluster>  (198) 
4

$$$$

     RDKit          3D

 50 53  0  0  0  0  0  0  0  0999 V2000
  141.3950   71.9850  221.6370 O   0  0  0  0  0  0  0  0  0  0  0  0
  140.5260   72.2930  222.5110 C   0  0  0  0  0  0  0  0  0  0  0  0
  139.7280   73.4570  222.3280 N   0  0  0  0  0  0  0  0  0  0  0  0
  139.9150   74.2670  221.1630 C   0  0  0  0  0  0  0  0  0  0  0  0
  141.1400   75.1310  221.2740 C   0  0  0  0  0  0  0  0  0  0  0  0
  141.3020   75.7810  222.3380 O   0  0  0  0  0  0  0  0  0  0  0  0
  142.0500   75.1720  220.1810 N   0  0  0  0  0  0  0  0  0  0  0  0
  142.7740   76.3580  219.6990 C   0  0  0  0  0  0  0  0  0  0  0  0
  143.3690   75.9690  218.3890 C   0  0  0  0  0  0  0  0  0  0  0  0
  142.7550   74.6380  218.0180 C   0  0  0  0  0  0  0  0  0  0  0  0
  142.4080   74.0570  219.3680 C   0  0  1  0  0  0  0  0  0  0  0  0
  143.5330   73.2120  219.8640 C   0  0  1  0  0  0  0  0  0  0  0  0
  144.5220   72.7620  218.8490 C   0  0  0  0  0  0  0  0  0  0  0  0
  145.6810   72.3240  219.7530 C   0  0  0  0  0  0  0  0  0  0  0  0
  145.4760   72.9550  221.0310 N   0  0  0  0  0  0  0  0  0  0  0  0
  144.4210   73.9360  220.8510 C   0  0  0  0  0  0  0  0  0  0  0  0
  140.3430   71.4610  223.6950 C   0  0  0  0  0  0  0  0  0  0  0  0
  139.7000   70.2440  223.5770 C   0  0  0  0  0  0  0  0  0  0  0  0
  139.4960   69.4140  224.6540 C   0  0  0  0  0  0  0  0  0  0  0  0
  139.9400   69.7870  225.9060 C   0  0  0  0  0  0  0  0  0  0  0  0
  139.7440   68.9680  226.9930 C   0  0  0  0  0  0  0  0  0  0  0  0
  140.1850   69.3390  228.2310 C   0  0  0  0  0  0  0  0  0  0  0  0
  139.9750   68.5120  229.2740 F   0  0  0  0  0  0  0  0  0  0  0  0
  140.8300   70.5620  228.3450 C   0  0  0  0  0  0  0  0  0  0  0  0
  141.0250   71.3830  227.2460 C   0  0  0  0  0  0  0  0  0  0  0  0
  140.5820   71.0130  225.9920 C   0  0  0  0  0  0  0  0  0  0  0  0
  140.7680   71.8080  224.9170 N   0  0  0  0  0  0  0  0  0  0  0  0
  139.0040   73.7390  223.0280 H   0  0  0  0  0  0  0  0  0  0  0  0
  140.0204   73.6109  220.2864 H   0  0  0  0  0  0  0  0  0  0  0  0
  139.0402   74.9260  221.0610 H   0  0  0  0  0  0  0  0  0  0  0  0
  142.0812   77.2025  219.5689 H   0  0  0  0  0  0  0  0  0  0  0  0
  143.5461   76.6781  220.4141 H   0  0  0  0  0  0  0  0  0  0  0  0
  143.1316   76.7235  217.6246 H   0  0  0  0  0  0  0  0  0  0  0  0
  144.4647   75.8975  218.4549 H   0  0  0  0  0  0  0  0  0  0  0  0
  141.8557   74.7727  217.3991 H   0  0  0  0  0  0  0  0  0  0  0  0
  143.4199   73.9973  217.4201 H   0  0  0  0  0  0  0  0  0  0  0  0
  141.5572   73.3598  219.3578 H   0  0  0  0  0  0  0  0  0  0  0  0
  142.9650   72.3655  220.2772 H   0  0  0  0  0  0  0  0  0  0  0  0
  144.1356   71.9235  218.2510 H   0  0  0  0  0  0  0  0  0  0  0  0
  144.7890   73.5251  218.1031 H   0  0  0  0  0  0  0  0  0  0  0  0
  145.6794   71.2299  219.8667 H   0  0  0  0  0  0  0  0  0  0  0  0
  146.6495   72.6156  219.3207 H   0  0  0  0  0  0  0  0  0  0  0  0
  145.1500   72.2930  221.7720 H   0  0  0  0  0  0  0  0  0  0  0  0
  143.8944   74.1431  221.7943 H   0  0  0  0  0  0  0  0  0  0  0  0
  144.7680   74.9242  220.5146 H   0  0  0  0  0  0  0  0  0  0  0  0
  139.3387   69.9281  222.5872 H   0  0  0  0  0  0  0  0  0  0  0  0
  138.9789   68.4528  224.5175 H   0  0  0  0  0  0  0  0  0  0  0  0
  139.2274   68.0054  226.8642 H   0  0  0  0  0  0  0  0  0  0  0  0
  141.1949   70.8873  229.3304 H   0  0  0  0  0  0  0  0  0  0  0  0
  141.5414   72.3457  227.3749 H   0  0  0  0  0  0  0  0  0  0  0  0
  1  2  2  0
  2  3  1  0
  3  4  1  0
  4  5  1  0
  5  6  2  0
  5  7  1  0
  7  8  1  0
  8  9  1  0
  9 10  1  0
 10 11  1  0
 11 12  1  0
 12 13  1  0
 13 14  1  0
 14 15  1  0
 15 16  1  0
  2 17  1  0
 17 18  2  0
 18 19  1  0
 19 20  2  0
 20 21  1  0
 21 22  2  0
 22 23  1  0
 22 24  1  0
 24 25  2  0
 25 26  1  0
 26 27  2  0
 11  7  1  0
 16 12  1  0
 27 17  1  0
 26 20  1  0
  3 28  1  0
  4 29  1  0
  4 30  1  0
  8 31  1  0
  8 32  1  0
  9 33  1  0
  9 34  1  0
 10 35  1  0
 10 36  1  0
 11 37  1  6
 12 38  1  1
 13 39  1  0
 13 40  1  0
 14 41  1  0
 14 42  1  0
 15 43  1  0
 16 44  1  0
 16 45  1  0
 18 46  1  0
 19 47  1  0
 21 48  1  0
 24 49  1  0
 25 50  1  0
M  END
>  <smiles>  (199) 
O=C(NCC(=O)N1CCCC1C1CCNC1)c1ccc2cc(F)ccc2n1

>  <score_type>  (199) 
oracle

>  <origin>  (199) 
autodockgpu

>  <m_score__min__energy>  (199) 
-8.7599999999999998

>  <m_primary>  (199) 
energy

>  <rmsd>  (199) 
2.4468491609303666

>  <m_score__min__rmsd>  (199) 
2.4468491609303666

>  <meeko>  (199) 
{"free_energy": -7.97, "intermolecular_energy": -9.46, "internal_energy": -1.38, "cluster_size": 35, "cluster_id": 1, "rank_in_cluster": 27}

>  <energy>  (199) 
-7.51

>  <cluster_rmsd>  (199) 
0.0

>  <cluster>  (199) 
5

$$$$

     RDKit          3D

 50 53  0  0  0  0  0  0  0  0999 V2000
  140.2080   71.7780  221.1190 O   0  0  0  0  0  0  0  0  0  0  0  0
  139.9850   72.3080  222.2520 C   0  0  0  0  0  0  0  0  0  0  0  0
  139.7360   73.7070  222.3370 N   0  0  0  0  0  0  0  0  0  0  0  0
  139.7380   74.4980  221.1450 C   0  0  0  0  0  0  0  0  0  0  0  0
  140.5840   75.7320  221.2950 C   0  0  0  0  0  0  0  0  0  0  0  0
  141.8270   75.6090  221.1510 O   0  0  0  0  0  0  0  0  0  0  0  0
  139.9440   76.9680  221.5930 N   0  0  0  0  0  0  0  0  0  0  0  0
  138.9930   77.2100  222.6880 C   0  0  0  0  0  0  0  0  0  0  0  0
  138.3970   78.5510  222.4210 C   0  0  0  0  0  0  0  0  0  0  0  0
  138.8300   78.9420  221.0270 C   0  0  0  0  0  0  0  0  0  0  0  0
  140.1250   78.1810  220.8680 C   0  0  1  0  0  0  0  0  0  0  0  0
  141.2740   79.0360  221.2860 C   0  0  1  0  0  0  0  0  0  0  0  0
  140.9800   80.4750  221.5200 C   0  0  0  0  0  0  0  0  0  0  0  0
  142.2260   80.8970  222.3090 C   0  0  0  0  0  0  0  0  0  0  0  0
  142.8170   79.6930  222.8320 N   0  0  0  0  0  0  0  0  0  0  0  0
  141.8560   78.6260  222.6200 C   0  0  0  0  0  0  0  0  0  0  0  0
  139.9850   71.4920  223.4620 C   0  0  0  0  0  0  0  0  0  0  0  0
  139.4280   70.2280  223.4270 C   0  0  0  0  0  0  0  0  0  0  0  0
  139.3950   69.4100  224.5320 C   0  0  0  0  0  0  0  0  0  0  0  0
  139.9310   69.8440  225.7270 C   0  0  0  0  0  0  0  0  0  0  0  0
  139.9070   69.0370  226.8410 C   0  0  0  0  0  0  0  0  0  0  0  0
  140.4380   69.4690  228.0230 C   0  0  0  0  0  0  0  0  0  0  0  0
  140.3960   68.6520  229.0940 F   0  0  0  0  0  0  0  0  0  0  0  0
  140.9950   70.7390  228.0530 C   0  0  0  0  0  0  0  0  0  0  0  0
  141.0160   71.5470  226.9280 C   0  0  0  0  0  0  0  0  0  0  0  0
  140.4820   71.1160  225.7290 C   0  0  0  0  0  0  0  0  0  0  0  0
  140.5000   71.8980  224.6290 N   0  0  0  0  0  0  0  0  0  0  0  0
  139.5490   74.1740  223.2530 H   0  0  0  0  0  0  0  0  0  0  0  0
  140.1350   73.8927  220.3167 H   0  0  0  0  0  0  0  0  0  0  0  0
  138.7041   74.8148  220.9432 H   0  0  0  0  0  0  0  0  0  0  0  0
  138.2102   76.4372  222.6930 H   0  0  0  0  0  0  0  0  0  0  0  0
  139.4889   77.1759  223.6693 H   0  0  0  0  0  0  0  0  0  0  0  0
  137.2998   78.4974  222.4773 H   0  0  0  0  0  0  0  0  0  0  0  0
  138.7311   79.2903  223.1638 H   0  0  0  0  0  0  0  0  0  0  0  0
  138.0889   78.6287  220.2769 H   0  0  0  0  0  0  0  0  0  0  0  0
  138.9366   80.0278  220.8867 H   0  0  0  0  0  0  0  0  0  0  0  0
  140.3739   77.9190  219.8291 H   0  0  0  0  0  0  0  0  0  0  0  0
  141.9383   78.8955  220.4206 H   0  0  0  0  0  0  0  0  0  0  0  0
  140.8925   81.0296  220.5741 H   0  0  0  0  0  0  0  0  0  0  0  0
  140.0273   80.6678  222.0350 H   0  0  0  0  0  0  0  0  0  0  0  0
  142.9377   81.4107  221.6459 H   0  0  0  0  0  0  0  0  0  0  0  0
  141.9619   81.5909  223.1207 H   0  0  0  0  0  0  0  0  0  0  0  0
  143.6940   79.4130  222.3360 H   0  0  0  0  0  0  0  0  0  0  0  0
  142.3470   77.6433  222.5635 H   0  0  0  0  0  0  0  0  0  0  0  0
  141.1159   78.5106  223.4256 H   0  0  0  0  0  0  0  0  0  0  0  0
  138.9963   69.8636  222.4832 H   0  0  0  0  0  0  0  0  0  0  0  0
  138.9415   68.4102  224.4632 H   0  0  0  0  0  0  0  0  0  0  0  0
  139.4564   68.0354  226.7793 H   0  0  0  0  0  0  0  0  0  0  0  0
  141.4299   71.1131  228.9916 H   0  0  0  0  0  0  0  0  0  0  0  0
  141.4656   72.5490  226.9904 H   0  0  0  0  0  0  0  0  0  0  0  0
  1  2  2  0
  2  3  1  0
  3  4  1  0
  4  5  1  0
  5  6  2  0
  5  7  1  0
  7  8  1  0
  8  9  1  0
  9 10  1  0
 10 11  1  0
 11 12  1  0
 12 13  1  0
 13 14  1  0
 14 15  1  0
 15 16  1  0
  2 17  1  0
 17 18  2  0
 18 19  1  0
 19 20  2  0
 20 21  1  0
 21 22  2  0
 22 23  1  0
 22 24  1  0
 24 25  2  0
 25 26  1  0
 26 27  2  0
 11  7  1  0
 16 12  1  0
 27 17  1  0
 26 20  1  0
  3 28  1  0
  4 29  1  0
  4 30  1  0
  8 31  1  0
  8 32  1  0
  9 33  1  0
  9 34  1  0
 10 35  1  0
 10 36  1  0
 11 37  1  6
 12 38  1  6
 13 39  1  0
 13 40  1  0
 14 41  1  0
 14 42  1  0
 15 43  1  0
 16 44  1  0
 16 45  1  0
 18 46  1  0
 19 47  1  0
 21 48  1  0
 24 49  1  0
 25 50  1  0
M  END
>  <smiles>  (200) 
O=C(NCC(=O)N1CCCC1C1CCNC1)c1ccc2cc(F)ccc2n1

>  <score_type>  (200) 
oracle

>  <origin>  (200) 
autodockgpu

>  <m_score__min__energy>  (200) 
-8.7599999999999998

>  <m_primary>  (200) 
energy

>  <rmsd>  (200) 
2.6289676583360437

>  <m_score__min__rmsd>  (200) 
2.6289676583360437

>  <meeko>  (200) 
{"free_energy": -8.04, "intermolecular_energy": -9.53, "internal_energy": -1.1, "cluster_size": 11, "cluster_id": 2, "rank_in_cluster": 3}

>  <energy>  (200) 
-7.04

>  <cluster_rmsd>  (200) 
0.0

>  <cluster>  (200) 
6

$$$$
