
     RDKit          3D

 66 70  0  0  0  0  0  0  0  0999 V2000
  139.3370   70.1910  228.3560 C   0  0  0  0  0  0  0  0  0  0  0  0
  140.3720   71.1180  228.3780 C   0  0  0  0  0  0  0  0  0  0  0  0
  141.0720   71.4500  227.2400 C   0  0  0  0  0  0  0  0  0  0  0  0
  140.7020   70.8220  226.0720 C   0  0  0  0  0  0  0  0  0  0  0  0
  139.6780   69.8920  226.0040 C   0  0  0  0  0  0  0  0  0  0  0  0
  139.0000   69.5870  227.1650 C   0  0  0  0  0  0  0  0  0  0  0  0
  139.3660   69.2770  224.6890 C   0  0  0  0  0  0  0  0  0  0  0  0
  139.2040   70.4060  223.6950 C   0  0  0  0  0  0  0  0  0  0  0  0
  140.3640   71.2390  223.7290 N   0  0  0  0  0  0  0  0  0  0  0  0
  140.5430   72.2500  222.7190 C   0  0  0  0  0  0  0  0  0  0  0  0
  139.6430   73.2510  222.6880 N   0  0  0  0  0  0  0  0  0  0  0  0
  139.7990   74.2000  221.7500 C   0  0  0  0  0  0  0  0  0  0  0  0
  138.8450   75.2850  221.6970 N   0  0  0  0  0  0  0  0  0  0  0  0
  139.2280   76.5020  222.3240 C   0  0  0  0  0  0  0  0  0  0  0  0
  140.7000   76.6920  222.4150 C   0  0  0  0  0  0  0  0  0  0  0  0
  141.2320   78.0650  222.5420 C   0  0  0  0  0  0  0  0  0  0  0  0
  140.1540   79.0190  223.1140 C   0  0  0  0  0  0  0  0  0  0  0  0
  140.8960   80.1180  223.8330 C   0  0  0  0  0  0  0  0  0  0  0  0
  142.1270   80.4910  223.0340 C   0  0  0  0  0  0  0  0  0  0  0  0
  141.9080   80.2490  221.5500 C   0  0  0  0  0  0  0  0  0  0  0  0
  141.7340   78.7390  221.3100 C   0  0  0  0  0  0  0  0  0  0  0  0
  140.8310   74.1230  220.8870 N   0  0  0  0  0  0  0  0  0  0  0  0
  141.7280   73.1250  220.9180 C   0  0  0  0  0  0  0  0  0  0  0  0
  142.8110   73.0500  220.0090 N   0  0  0  0  0  0  0  0  0  0  0  0
  143.8160   72.0090  220.0250 C   0  0  0  0  0  0  0  0  0  0  0  0
  145.1330   72.6640  220.3630 C   0  0  0  0  0  0  0  0  0  0  0  0
  145.3380   73.7990  219.5290 N   0  0  0  0  0  0  0  0  0  0  0  0
  144.4140   73.9880  218.4600 C   0  0  0  0  0  0  0  0  0  0  0  0
  142.9700   74.0690  218.9610 C   0  0  0  0  0  0  0  0  0  0  0  0
  141.5800   72.1710  221.8520 N   0  0  0  0  0  0  0  0  0  0  0  0
  141.3940   71.1040  224.7640 C   0  0  0  0  0  0  0  0  0  0  0  0
  138.7931   69.9424  229.2793 H   0  0  0  0  0  0  0  0  0  0  0  0
  140.6391   71.5995  229.3303 H   0  0  0  0  0  0  0  0  0  0  0  0
  141.8906   72.1844  227.2629 H   0  0  0  0  0  0  0  0  0  0  0  0
  138.1809   68.8532  227.1398 H   0  0  0  0  0  0  0  0  0  0  0  0
  140.1880   68.6156  224.3776 H   0  0  0  0  0  0  0  0  0  0  0  0
  138.4482   68.6735  224.7478 H   0  0  0  0  0  0  0  0  0  0  0  0
  139.0805   69.9900  222.6842 H   0  0  0  0  0  0  0  0  0  0  0  0
  138.3168   71.0012  223.9568 H   0  0  0  0  0  0  0  0  0  0  0  0
  137.9600   75.0610  221.2180 H   0  0  0  0  0  0  0  0  0  0  0  0
  138.8053   77.3376  221.7469 H   0  0  0  0  0  0  0  0  0  0  0  0
  138.8449   76.4663  223.3545 H   0  0  0  0  0  0  0  0  0  0  0  0
  141.0454   76.1283  223.2942 H   0  0  0  0  0  0  0  0  0  0  0  0
  141.0742   76.3499  221.4388 H   0  0  0  0  0  0  0  0  0  0  0  0
  142.0998   77.8975  223.1969 H   0  0  0  0  0  0  0  0  0  0  0  0
  139.5473   79.4399  222.2987 H   0  0  0  0  0  0  0  0  0  0  0  0
  139.4716   78.4877  223.7938 H   0  0  0  0  0  0  0  0  0  0  0  0
  140.2430   80.9973  223.9352 H   0  0  0  0  0  0  0  0  0  0  0  0
  141.1950   79.7701  224.8328 H   0  0  0  0  0  0  0  0  0  0  0  0
  142.3514   81.5557  223.1954 H   0  0  0  0  0  0  0  0  0  0  0  0
  142.9661   79.8645  223.3708 H   0  0  0  0  0  0  0  0  0  0  0  0
  141.0045   80.7818  221.2187 H   0  0  0  0  0  0  0  0  0  0  0  0
  142.7737   80.6188  220.9810 H   0  0  0  0  0  0  0  0  0  0  0  0
  141.0130   78.5836  220.4939 H   0  0  0  0  0  0  0  0  0  0  0  0
  142.7103   78.3080  221.0433 H   0  0  0  0  0  0  0  0  0  0  0  0
  143.5646   71.2543  220.7848 H   0  0  0  0  0  0  0  0  0  0  0  0
  143.8704   71.5043  219.0491 H   0  0  0  0  0  0  0  0  0  0  0  0
  145.1224   72.9823  221.4159 H   0  0  0  0  0  0  0  0  0  0  0  0
  145.9480   71.9433  220.2004 H   0  0  0  0  0  0  0  0  0  0  0  0
  146.2940   73.7670  219.1090 H   0  0  0  0  0  0  0  0  0  0  0  0
  144.6619   74.9234  217.9369 H   0  0  0  0  0  0  0  0  0  0  0  0
  144.4925   73.1231  217.7848 H   0  0  0  0  0  0  0  0  0  0  0  0
  142.7711   75.0685  219.3750 H   0  0  0  0  0  0  0  0  0  0  0  0
  142.2624   73.8931  218.1374 H   0  0  0  0  0  0  0  0  0  0  0  0
  142.0702   70.2737  224.5123 H   0  0  0  0  0  0  0  0  0  0  0  0
  141.9881   72.0270  224.8360 H   0  0  0  0  0  0  0  0  0  0  0  0
  1  2  2  0
  2  3  1  0
  3  4  2  0
  4  5  1  0
  5  6  2  0
  5  7  1  0
  7  8  1  0
  8  9  1  0
  9 10  1  0
 10 11  2  0
 11 12  1  0
 12 13  1  0
 13 14  1  0
 14 15  1  0
 15 16  1  0
 16 17  1  0
 17 18  1  0
 18 19  1  0
 19 20  1  0
 20 21  1  0
 12 22  2  0
 22 23  1  0
 23 24  1  0
 24 25  1  0
 25 26  1  0
 26 27  1  0
 27 28  1  0
 28 29  1  0
 23 30  2  0
  9 31  1  0
  6  1  1  0
 30 10  1  0
 31  4  1  0
 21 16  1  0
 29 24  1  0
  1 32  1  0
  2 33  1  0
  3 34  1  0
  6 35  1  0
  7 36  1  0
  7 37  1  0
  8 38  1  0
  8 39  1  0
 13 40  1  0
 14 41  1  0
 14 42  1  0
 15 43  1  0
 15 44  1  0
 16 45  1  0
 17 46  1  0
 17 47  1  0
 18 48  1  0
 18 49  1  0
 19 50  1  0
 19 51  1  0
 20 52  1  0
 20 53  1  0
 21 54  1  0
 21 55  1  0
 25 56  1  0
 25 57  1  0
 26 58  1  0
 26 59  1  0
 27 60  1  0
 28 61  1  0
 28 62  1  0
 29 63  1  0
 29 64  1  0
 31 65  1  0
 31 66  1  0
M  END
>  <smiles>  (1) 
c1ccc2c(c1)CCN(c1nc(NCCC3CCCCC3)nc(N3CCNCC3)n1)C2

>  <score_type>  (1) 
oracle

>  <origin>  (1) 
autodockgpu

>  <m_score__min__energy>  (1) 
-10.369999999999999

>  <m_primary>  (1) 
energy

>  <rmsd>  (1) 
10.892701202807828

>  <m_score__min__rmsd>  (1) 
10.892701202807828

>  <meeko>  (1) 
{"free_energy": -8.73, "intermolecular_energy": -10.52, "internal_energy": -1.09, "cluster_size": 4, "cluster_id": 2, "rank_in_cluster": 1}

>  <energy>  (1) 
-10.37

>  <cluster_rmsd>  (1) 
0.0

>  <cluster>  (1) 
1

$$$$

     RDKit          3D

 66 70  0  0  0  0  0  0  0  0999 V2000
  142.7250   80.7330  223.1680 C   0  0  0  0  0  0  0  0  0  0  0  0
  142.2060   79.9630  224.2000 C   0  0  0  0  0  0  0  0  0  0  0  0
  141.4820   78.8170  223.9570 C   0  0  0  0  0  0  0  0  0  0  0  0
  141.2940   78.4640  222.6390 C   0  0  0  0  0  0  0  0  0  0  0  0
  141.7940   79.2030  221.5790 C   0  0  0  0  0  0  0  0  0  0  0  0
  142.5130   80.3420  221.8640 C   0  0  0  0  0  0  0  0  0  0  0  0
  141.5280   78.7270  220.1970 C   0  0  0  0  0  0  0  0  0  0  0  0
  141.9300   77.2690  220.1420 C   0  0  0  0  0  0  0  0  0  0  0  0
  141.2620   76.5520  221.1820 N   0  0  0  0  0  0  0  0  0  0  0  0
  141.3120   75.1130  221.1980 C   0  0  0  0  0  0  0  0  0  0  0  0
  140.3960   74.4760  221.9520 N   0  0  0  0  0  0  0  0  0  0  0  0
  140.4330   73.1340  221.9740 C   0  0  0  0  0  0  0  0  0  0  0  0
  139.4600   72.4270  222.7770 N   0  0  0  0  0  0  0  0  0  0  0  0
  139.9470   71.3540  223.5710 C   0  0  0  0  0  0  0  0  0  0  0  0
  139.1500   71.1090  224.8020 C   0  0  0  0  0  0  0  0  0  0  0  0
  139.7940   70.4170  225.9390 C   0  0  0  0  0  0  0  0  0  0  0  0
  140.9860   71.2440  226.4790 C   0  0  0  0  0  0  0  0  0  0  0  0
  141.1270   70.8880  227.9380 C   0  0  0  0  0  0  0  0  0  0  0  0
  140.8790   69.4040  228.1120 C   0  0  0  0  0  0  0  0  0  0  0  0
  141.2720   68.6350  226.8610 C   0  0  0  0  0  0  0  0  0  0  0  0
  140.3410   69.0500  225.7080 C   0  0  0  0  0  0  0  0  0  0  0  0
  141.3660   72.4780  221.2560 N   0  0  0  0  0  0  0  0  0  0  0  0
  142.2780   73.1130  220.5040 C   0  0  0  0  0  0  0  0  0  0  0  0
  143.2560   72.4200  219.7500 N   0  0  0  0  0  0  0  0  0  0  0  0
  144.4380   71.8080  220.3170 C   0  0  0  0  0  0  0  0  0  0  0  0
  145.6330   72.5490  219.7670 C   0  0  0  0  0  0  0  0  0  0  0  0
  145.5300   72.6520  218.3520 N   0  0  0  0  0  0  0  0  0  0  0  0
  144.4810   71.9150  217.7270 C   0  0  0  0  0  0  0  0  0  0  0  0
  143.1070   72.2830  218.2940 C   0  0  0  0  0  0  0  0  0  0  0  0
  142.2500   74.4560  220.4760 N   0  0  0  0  0  0  0  0  0  0  0  0
  140.5200   77.2310  222.2490 C   0  0  0  0  0  0  0  0  0  0  0  0
  143.2990   81.6450  223.3889 H   0  0  0  0  0  0  0  0  0  0  0  0
  142.3777   80.2768  225.2402 H   0  0  0  0  0  0  0  0  0  0  0  0
  141.0723   78.2109  224.7785 H   0  0  0  0  0  0  0  0  0  0  0  0
  142.9228   80.9466  221.0415 H   0  0  0  0  0  0  0  0  0  0  0  0
  140.4588   78.8325  219.9611 H   0  0  0  0  0  0  0  0  0  0  0  0
  142.0971   79.3174  219.4638 H   0  0  0  0  0  0  0  0  0  0  0  0
  141.6478   76.8473  219.1660 H   0  0  0  0  0  0  0  0  0  0  0  0
  143.0182   77.1830  220.2774 H   0  0  0  0  0  0  0  0  0  0  0  0
  138.4900   72.7640  222.6800 H   0  0  0  0  0  0  0  0  0  0  0  0
  139.9346   70.4382  222.9618 H   0  0  0  0  0  0  0  0  0  0  0  0
  140.9612   71.6299  223.8954 H   0  0  0  0  0  0  0  0  0  0  0  0
  138.8118   72.0892  225.1691 H   0  0  0  0  0  0  0  0  0  0  0  0
  138.3632   70.4126  224.4765 H   0  0  0  0  0  0  0  0  0  0  0  0
  138.9471   70.3143  226.6334 H   0  0  0  0  0  0  0  0  0  0  0  0
  141.9059   70.9856  225.9340 H   0  0  0  0  0  0  0  0  0  0  0  0
  140.8146   72.3225  226.3471 H   0  0  0  0  0  0  0  0  0  0  0  0
  142.1427   71.1344  228.2808 H   0  0  0  0  0  0  0  0  0  0  0  0
  140.3965   71.4579  228.5309 H   0  0  0  0  0  0  0  0  0  0  0  0
  141.4740   69.0371  228.9614 H   0  0  0  0  0  0  0  0  0  0  0  0
  139.8059   69.2476  228.2966 H   0  0  0  0  0  0  0  0  0  0  0  0
  142.3140   68.8680  226.5964 H   0  0  0  0  0  0  0  0  0  0  0  0
  141.1803   67.5541  227.0436 H   0  0  0  0  0  0  0  0  0  0  0  0
  140.9080   69.0424  224.7654 H   0  0  0  0  0  0  0  0  0  0  0  0
  139.5040   68.3382  225.6554 H   0  0  0  0  0  0  0  0  0  0  0  0
  144.4157   71.8904  221.4137 H   0  0  0  0  0  0  0  0  0  0  0  0
  144.4875   70.7403  220.0570 H   0  0  0  0  0  0  0  0  0  0  0  0
  145.6696   73.5577  220.2043 H   0  0  0  0  0  0  0  0  0  0  0  0
  146.5500   71.9986  220.0241 H   0  0  0  0  0  0  0  0  0  0  0  0
  146.4250   72.3550  217.9040 H   0  0  0  0  0  0  0  0  0  0  0  0
  144.4895   72.1299  216.6482 H   0  0  0  0  0  0  0  0  0  0  0  0
  144.6539   70.8460  217.9203 H   0  0  0  0  0  0  0  0  0  0  0  0
  142.7632   73.2335  217.8599 H   0  0  0  0  0  0  0  0  0  0  0  0
  142.3654   71.5080  218.0502 H   0  0  0  0  0  0  0  0  0  0  0  0
  139.5211   77.5157  221.8868 H   0  0  0  0  0  0  0  0  0  0  0  0
  140.3989   76.5644  223.1156 H   0  0  0  0  0  0  0  0  0  0  0  0
  1  2  2  0
  2  3  1  0
  3  4  2  0
  4  5  1  0
  5  6  2  0
  5  7  1  0
  7  8  1  0
  8  9  1  0
  9 10  1  0
 10 11  2  0
 11 12  1  0
 12 13  1  0
 13 14  1  0
 14 15  1  0
 15 16  1  0
 16 17  1  0
 17 18  1  0
 18 19  1  0
 19 20  1  0
 20 21  1  0
 12 22  2  0
 22 23  1  0
 23 24  1  0
 24 25  1  0
 25 26  1  0
 26 27  1  0
 27 28  1  0
 28 29  1  0
 23 30  2  0
  9 31  1  0
  6  1  1  0
 30 10  1  0
 31  4  1  0
 21 16  1  0
 29 24  1  0
  1 32  1  0
  2 33  1  0
  3 34  1  0
  6 35  1  0
  7 36  1  0
  7 37  1  0
  8 38  1  0
  8 39  1  0
 13 40  1  0
 14 41  1  0
 14 42  1  0
 15 43  1  0
 15 44  1  0
 16 45  1  0
 17 46  1  0
 17 47  1  0
 18 48  1  0
 18 49  1  0
 19 50  1  0
 19 51  1  0
 20 52  1  0
 20 53  1  0
 21 54  1  0
 21 55  1  0
 25 56  1  0
 25 57  1  0
 26 58  1  0
 26 59  1  0
 27 60  1  0
 28 61  1  0
 28 62  1  0
 29 63  1  0
 29 64  1  0
 31 65  1  0
 31 66  1  0
M  END
>  <smiles>  (2) 
c1ccc2c(c1)CCN(c1nc(NCCC3CCCCC3)nc(N3CCNCC3)n1)C2

>  <score_type>  (2) 
oracle

>  <origin>  (2) 
autodockgpu

>  <m_score__min__energy>  (2) 
-10.369999999999999

>  <m_primary>  (2) 
energy

>  <rmsd>  (2) 
5.212458248654876

>  <m_score__min__rmsd>  (2) 
5.212458248654876

>  <meeko>  (2) 
{"free_energy": -9.47, "intermolecular_energy": -11.26, "internal_energy": -0.9, "cluster_size": 42, "cluster_id": 1, "rank_in_cluster": 31}

>  <energy>  (2) 
-10.32

>  <cluster_rmsd>  (2) 
0.68

>  <cluster>  (2) 
1

$$$$

     RDKit          3D

 66 70  0  0  0  0  0  0  0  0999 V2000
  139.6490   70.0060  228.0190 C   0  0  0  0  0  0  0  0  0  0  0  0
  140.7730   70.8200  227.9510 C   0  0  0  0  0  0  0  0  0  0  0  0
  141.2770   71.2620  226.7480 C   0  0  0  0  0  0  0  0  0  0  0  0
  140.6160   70.8610  225.6090 C   0  0  0  0  0  0  0  0  0  0  0  0
  139.4930   70.0490  225.6300 C   0  0  0  0  0  0  0  0  0  0  0  0
  139.0200   69.6290  226.8540 C   0  0  0  0  0  0  0  0  0  0  0  0
  138.8630   69.6790  224.3380 C   0  0  0  0  0  0  0  0  0  0  0  0
  138.6500   70.9610  223.5610 C   0  0  0  0  0  0  0  0  0  0  0  0
  139.8880   71.6690  223.4650 N   0  0  0  0  0  0  0  0  0  0  0  0
  139.9890   72.8060  222.5870 C   0  0  0  0  0  0  0  0  0  0  0  0
  138.8540   73.4790  222.3220 N   0  0  0  0  0  0  0  0  0  0  0  0
  138.9370   74.5410  221.5040 C   0  0  0  0  0  0  0  0  0  0  0  0
  137.7300   75.2800  221.2040 N   0  0  0  0  0  0  0  0  0  0  0  0
  137.6720   76.6210  221.6700 C   0  0  0  0  0  0  0  0  0  0  0  0
  138.6780   76.9360  222.7190 C   0  0  0  0  0  0  0  0  0  0  0  0
  139.5500   78.1150  222.5370 C   0  0  0  0  0  0  0  0  0  0  0  0
  141.0420   77.7180  222.6650 C   0  0  0  0  0  0  0  0  0  0  0  0
  141.8190   78.7050  221.8310 C   0  0  0  0  0  0  0  0  0  0  0  0
  141.2140   80.0830  222.0010 C   0  0  0  0  0  0  0  0  0  0  0  0
  140.5690   80.2310  223.3700 C   0  0  0  0  0  0  0  0  0  0  0  0
  139.3730   79.2680  223.4650 C   0  0  0  0  0  0  0  0  0  0  0  0
  140.1290   74.8940  220.9850 N   0  0  0  0  0  0  0  0  0  0  0  0
  141.2600   74.2220  221.2490 C   0  0  0  0  0  0  0  0  0  0  0  0
  142.5110   74.5970  220.7010 N   0  0  0  0  0  0  0  0  0  0  0  0
  142.7730   75.8710  220.0670 C   0  0  0  0  0  0  0  0  0  0  0  0
  143.0750   75.5930  218.6140 C   0  0  0  0  0  0  0  0  0  0  0  0
  144.0530   74.5650  218.5100 N   0  0  0  0  0  0  0  0  0  0  0  0
  144.6760   74.1430  219.7210 C   0  0  0  0  0  0  0  0  0  0  0  0
  143.6510   73.6690  220.7560 C   0  0  0  0  0  0  0  0  0  0  0  0
  141.1880   73.1580  222.0650 N   0  0  0  0  0  0  0  0  0  0  0  0
  141.0730   71.2810  224.2360 C   0  0  0  0  0  0  0  0  0  0  0  0
  139.2661   69.6666  228.9928 H   0  0  0  0  0  0  0  0  0  0  0  0
  141.2739   71.1195  228.8834 H   0  0  0  0  0  0  0  0  0  0  0  0
  142.1673   71.9062  226.6995 H   0  0  0  0  0  0  0  0  0  0  0  0
  138.1295   68.9850  226.9008 H   0  0  0  0  0  0  0  0  0  0  0  0
  139.5243   69.0031  223.7760 H   0  0  0  0  0  0  0  0  0  0  0  0
  137.9078   69.1593  224.5037 H   0  0  0  0  0  0  0  0  0  0  0  0
  138.2847   70.7219  222.5514 H   0  0  0  0  0  0  0  0  0  0  0  0
  137.9083   71.5862  224.0797 H   0  0  0  0  0  0  0  0  0  0  0  0
  137.0130   74.7480  220.6890 H   0  0  0  0  0  0  0  0  0  0  0  0
  137.8402   77.2927  220.8153 H   0  0  0  0  0  0  0  0  0  0  0  0
  136.6803   76.7593  222.1254 H   0  0  0  0  0  0  0  0  0  0  0  0
  138.1284   77.0824  223.6606 H   0  0  0  0  0  0  0  0  0  0  0  0
  139.3725   76.0836  222.6865 H   0  0  0  0  0  0  0  0  0  0  0  0
  139.2430   78.4539  221.5366 H   0  0  0  0  0  0  0  0  0  0  0  0
  141.3615   77.7737  223.7161 H   0  0  0  0  0  0  0  0  0  0  0  0
  141.2107   76.6866  222.3219 H   0  0  0  0  0  0  0  0  0  0  0  0
  142.8683   78.7203  222.1609 H   0  0  0  0  0  0  0  0  0  0  0  0
  141.7761   78.4098  220.7722 H   0  0  0  0  0  0  0  0  0  0  0  0
  142.0057   80.8390  221.8929 H   0  0  0  0  0  0  0  0  0  0  0  0
  140.4396   80.2225  221.2323 H   0  0  0  0  0  0  0  0  0  0  0  0
  141.3028   79.9865  224.1521 H   0  0  0  0  0  0  0  0  0  0  0  0
  140.2253   81.2665  223.5097 H   0  0  0  0  0  0  0  0  0  0  0  0
  139.2925   78.8928  224.4959 H   0  0  0  0  0  0  0  0  0  0  0  0
  138.4585   79.8110  223.1840 H   0  0  0  0  0  0  0  0  0  0  0  0
  141.8904   76.5221  220.1506 H   0  0  0  0  0  0  0  0  0  0  0  0
  143.6188   76.3813  220.5509 H   0  0  0  0  0  0  0  0  0  0  0  0
  142.1539   75.2728  218.1050 H   0  0  0  0  0  0  0  0  0  0  0  0
  143.4614   76.5090  218.1431 H   0  0  0  0  0  0  0  0  0  0  0  0
  144.8140   74.8570  217.8570 H   0  0  0  0  0  0  0  0  0  0  0  0
  145.3642   73.3146  219.4969 H   0  0  0  0  0  0  0  0  0  0  0  0
  145.2152   75.0032  220.1445 H   0  0  0  0  0  0  0  0  0  0  0  0
  143.3176   72.6487  220.5154 H   0  0  0  0  0  0  0  0  0  0  0  0
  144.0931   73.6552  221.7632 H   0  0  0  0  0  0  0  0  0  0  0  0
  141.5837   70.4427  223.7396 H   0  0  0  0  0  0  0  0  0  0  0  0
  141.7760   72.1240  224.3077 H   0  0  0  0  0  0  0  0  0  0  0  0
  1  2  2  0
  2  3  1  0
  3  4  2  0
  4  5  1  0
  5  6  2  0
  5  7  1  0
  7  8  1  0
  8  9  1  0
  9 10  1  0
 10 11  2  0
 11 12  1  0
 12 13  1  0
 13 14  1  0
 14 15  1  0
 15 16  1  0
 16 17  1  0
 17 18  1  0
 18 19  1  0
 19 20  1  0
 20 21  1  0
 12 22  2  0
 22 23  1  0
 23 24  1  0
 24 25  1  0
 25 26  1  0
 26 27  1  0
 27 28  1  0
 28 29  1  0
 23 30  2  0
  9 31  1  0
  6  1  1  0
 30 10  1  0
 31  4  1  0
 21 16  1  0
 29 24  1  0
  1 32  1  0
  2 33  1  0
  3 34  1  0
  6 35  1  0
  7 36  1  0
  7 37  1  0
  8 38  1  0
  8 39  1  0
 13 40  1  0
 14 41  1  0
 14 42  1  0
 15 43  1  0
 15 44  1  0
 16 45  1  0
 17 46  1  0
 17 47  1  0
 18 48  1  0
 18 49  1  0
 19 50  1  0
 19 51  1  0
 20 52  1  0
 20 53  1  0
 21 54  1  0
 21 55  1  0
 25 56  1  0
 25 57  1  0
 26 58  1  0
 26 59  1  0
 27 60  1  0
 28 61  1  0
 28 62  1  0
 29 63  1  0
 29 64  1  0
 31 65  1  0
 31 66  1  0
M  END
>  <smiles>  (3) 
c1ccc2c(c1)CCN(c1nc(NCCC3CCCCC3)nc(N3CCNCC3)n1)C2

>  <score_type>  (3) 
oracle

>  <origin>  (3) 
autodockgpu

>  <m_score__min__energy>  (3) 
-10.369999999999999

>  <m_primary>  (3) 
energy

>  <rmsd>  (3) 
10.673776511568105

>  <m_score__min__rmsd>  (3) 
10.673776511568105

>  <meeko>  (3) 
{"free_energy": -8.26, "intermolecular_energy": -10.05, "internal_energy": -1.53, "cluster_size": 4, "cluster_id": 2, "rank_in_cluster": 2}

>  <energy>  (3) 
-10.31

>  <cluster_rmsd>  (3) 
0.53

>  <cluster>  (3) 
1

$$$$

     RDKit          3D

 66 70  0  0  0  0  0  0  0  0999 V2000
  142.2830   81.1530  222.6900 C   0  0  0  0  0  0  0  0  0  0  0  0
  142.1160   80.4010  223.8460 C   0  0  0  0  0  0  0  0  0  0  0  0
  141.5180   79.1600  223.8230 C   0  0  0  0  0  0  0  0  0  0  0  0
  141.0910   78.6940  222.6000 C   0  0  0  0  0  0  0  0  0  0  0  0
  141.2370   79.4110  221.4240 C   0  0  0  0  0  0  0  0  0  0  0  0
  141.8400   80.6480  221.4880 C   0  0  0  0  0  0  0  0  0  0  0  0
  140.7370   78.8090  220.1620 C   0  0  0  0  0  0  0  0  0  0  0  0
  141.3110   77.4120  220.0760 C   0  0  0  0  0  0  0  0  0  0  0  0
  140.9950   76.6940  221.2710 N   0  0  0  0  0  0  0  0  0  0  0  0
  141.2410   75.2760  221.3340 C   0  0  0  0  0  0  0  0  0  0  0  0
  140.3400   74.5270  221.9960 N   0  0  0  0  0  0  0  0  0  0  0  0
  140.5600   73.2030  222.0620 C   0  0  0  0  0  0  0  0  0  0  0  0
  139.6060   72.3770  222.7680 N   0  0  0  0  0  0  0  0  0  0  0  0
  140.0170   71.0510  223.0750 C   0  0  0  0  0  0  0  0  0  0  0  0
  139.2010   70.4020  224.1360 C   0  0  0  0  0  0  0  0  0  0  0  0
  139.6600   70.4880  225.5380 C   0  0  0  0  0  0  0  0  0  0  0  0
  140.9950   71.2670  225.6310 C   0  0  0  0  0  0  0  0  0  0  0  0
  141.0310   71.8910  227.0030 C   0  0  0  0  0  0  0  0  0  0  0  0
  140.4640   70.9110  228.0080 C   0  0  0  0  0  0  0  0  0  0  0  0
  140.7000   69.4760  227.5640 C   0  0  0  0  0  0  0  0  0  0  0  0
  139.9010   69.2150  226.2760 C   0  0  0  0  0  0  0  0  0  0  0  0
  141.6520   72.6770  221.4750 N   0  0  0  0  0  0  0  0  0  0  0  0
  142.5500   73.4250  220.8140 C   0  0  0  0  0  0  0  0  0  0  0  0
  143.6960   72.8670  220.1980 N   0  0  0  0  0  0  0  0  0  0  0  0
  144.9600   72.6540  220.8710 C   0  0  0  0  0  0  0  0  0  0  0  0
  145.9750   73.5540  220.2090 C   0  0  0  0  0  0  0  0  0  0  0  0
  145.9190   73.3930  218.7970 N   0  0  0  0  0  0  0  0  0  0  0  0
  145.1000   72.3360  218.3010 C   0  0  0  0  0  0  0  0  0  0  0  0
  143.6530   72.4590  218.7860 C   0  0  0  0  0  0  0  0  0  0  0  0
  142.3400   74.7490  220.7440 N   0  0  0  0  0  0  0  0  0  0  0  0
  140.4240   77.3520  222.4500 C   0  0  0  0  0  0  0  0  0  0  0  0
  142.7640   82.1413  222.7344 H   0  0  0  0  0  0  0  0  0  0  0  0
  142.4705   80.8070  224.8049 H   0  0  0  0  0  0  0  0  0  0  0  0
  141.3876   78.5680  224.7409 H   0  0  0  0  0  0  0  0  0  0  0  0
  141.9690   81.2386  220.5690 H   0  0  0  0  0  0  0  0  0  0  0  0
  139.6380   78.7650  220.1748 H   0  0  0  0  0  0  0  0  0  0  0  0
  141.0424   79.4113  219.2937 H   0  0  0  0  0  0  0  0  0  0  0  0
  140.8787   76.8904  219.2094 H   0  0  0  0  0  0  0  0  0  0  0  0
  142.4034   77.4703  219.9606 H   0  0  0  0  0  0  0  0  0  0  0  0
  138.7020   72.8310  222.9680 H   0  0  0  0  0  0  0  0  0  0  0  0
  139.9434   70.4442  222.1605 H   0  0  0  0  0  0  0  0  0  0  0  0
  141.0472   71.1140  223.4555 H   0  0  0  0  0  0  0  0  0  0  0  0
  138.1989   70.8539  224.0953 H   0  0  0  0  0  0  0  0  0  0  0  0
  139.2624   69.3292  223.9007 H   0  0  0  0  0  0  0  0  0  0  0  0
  138.7993   70.9814  226.0132 H   0  0  0  0  0  0  0  0  0  0  0  0
  141.8452   70.5809  225.5030 H   0  0  0  0  0  0  0  0  0  0  0  0
  141.0651   72.0321  224.8438 H   0  0  0  0  0  0  0  0  0  0  0  0
  142.0702   72.1330  227.2704 H   0  0  0  0  0  0  0  0  0  0  0  0
  140.4319   72.8135  227.0064 H   0  0  0  0  0  0  0  0  0  0  0  0
  140.9516   71.0712  228.9809 H   0  0  0  0  0  0  0  0  0  0  0  0
  139.3798   71.0790  228.0875 H   0  0  0  0  0  0  0  0  0  0  0  0
  141.7718   69.3206  227.3715 H   0  0  0  0  0  0  0  0  0  0  0  0
  140.3719   68.7832  228.3529 H   0  0  0  0  0  0  0  0  0  0  0  0
  140.4683   68.5264  225.6325 H   0  0  0  0  0  0  0  0  0  0  0  0
  138.9303   68.7733  226.5455 H   0  0  0  0  0  0  0  0  0  0  0  0
  144.8674   72.9101  221.9368 H   0  0  0  0  0  0  0  0  0  0  0  0
  145.2674   71.6002  220.8004 H   0  0  0  0  0  0  0  0  0  0  0  0
  145.7558   74.6010  220.4654 H   0  0  0  0  0  0  0  0  0  0  0  0
  146.9813   73.2863  220.5637 H   0  0  0  0  0  0  0  0  0  0  0  0
  146.8780   73.2460  218.4130 H   0  0  0  0  0  0  0  0  0  0  0  0
  145.1101   72.3644  217.2014 H   0  0  0  0  0  0  0  0  0  0  0  0
  145.5058   71.3852  218.6770 H   0  0  0  0  0  0  0  0  0  0  0  0
  143.1203   73.2161  218.1919 H   0  0  0  0  0  0  0  0  0  0  0  0
  143.1231   71.5016  218.6742 H   0  0  0  0  0  0  0  0  0  0  0  0
  139.3406   77.4862  222.3151 H   0  0  0  0  0  0  0  0  0  0  0  0
  140.5897   76.7393  223.3484 H   0  0  0  0  0  0  0  0  0  0  0  0
  1  2  2  0
  2  3  1  0
  3  4  2  0
  4  5  1  0
  5  6  2  0
  5  7  1  0
  7  8  1  0
  8  9  1  0
  9 10  1  0
 10 11  2  0
 11 12  1  0
 12 13  1  0
 13 14  1  0
 14 15  1  0
 15 16  1  0
 16 17  1  0
 17 18  1  0
 18 19  1  0
 19 20  1  0
 20 21  1  0
 12 22  2  0
 22 23  1  0
 23 24  1  0
 24 25  1  0
 25 26  1  0
 26 27  1  0
 27 28  1  0
 28 29  1  0
 23 30  2  0
  9 31  1  0
  6  1  1  0
 30 10  1  0
 31  4  1  0
 21 16  1  0
 29 24  1  0
  1 32  1  0
  2 33  1  0
  3 34  1  0
  6 35  1  0
  7 36  1  0
  7 37  1  0
  8 38  1  0
  8 39  1  0
 13 40  1  0
 14 41  1  0
 14 42  1  0
 15 43  1  0
 15 44  1  0
 16 45  1  0
 17 46  1  0
 17 47  1  0
 18 48  1  0
 18 49  1  0
 19 50  1  0
 19 51  1  0
 20 52  1  0
 20 53  1  0
 21 54  1  0
 21 55  1  0
 25 56  1  0
 25 57  1  0
 26 58  1  0
 26 59  1  0
 27 60  1  0
 28 61  1  0
 28 62  1  0
 29 63  1  0
 29 64  1  0
 31 65  1  0
 31 66  1  0
M  END
>  <smiles>  (4) 
c1ccc2c(c1)CCN(c1nc(NCCC3CCCCC3)nc(N3CCNCC3)n1)C2

>  <score_type>  (4) 
oracle

>  <origin>  (4) 
autodockgpu

>  <m_score__min__energy>  (4) 
-10.369999999999999

>  <m_primary>  (4) 
energy

>  <rmsd>  (4) 
5.014974648887474

>  <m_score__min__rmsd>  (4) 
5.014974648887474

>  <meeko>  (4) 
{"free_energy": -10.37, "intermolecular_energy": -12.16, "internal_energy": -0.99, "cluster_size": 42, "cluster_id": 1, "rank_in_cluster": 1}

>  <energy>  (4) 
-10.3

>  <cluster_rmsd>  (4) 
0.4

>  <cluster>  (4) 
1

$$$$

     RDKit          3D

 66 70  0  0  0  0  0  0  0  0999 V2000
  142.6120   80.8560  223.0760 C   0  0  0  0  0  0  0  0  0  0  0  0
  142.4710   79.9980  224.1600 C   0  0  0  0  0  0  0  0  0  0  0  0
  141.8200   78.7890  224.0470 C   0  0  0  0  0  0  0  0  0  0  0  0
  141.3120   78.4650  222.8100 C   0  0  0  0  0  0  0  0  0  0  0  0
  141.4290   79.2910  221.7030 C   0  0  0  0  0  0  0  0  0  0  0  0
  142.0880   80.4910  221.8560 C   0  0  0  0  0  0  0  0  0  0  0  0
  140.8410   78.8380  220.4170 C   0  0  0  0  0  0  0  0  0  0  0  0
  141.3490   77.4360  220.1630 C   0  0  0  0  0  0  0  0  0  0  0  0
  141.0630   76.6140  221.2960 N   0  0  0  0  0  0  0  0  0  0  0  0
  141.2510   75.1890  221.2060 C   0  0  0  0  0  0  0  0  0  0  0  0
  140.5350   74.4210  222.0490 N   0  0  0  0  0  0  0  0  0  0  0  0
  140.7020   73.0910  221.9740 C   0  0  0  0  0  0  0  0  0  0  0  0
  139.9440   72.2460  222.8690 N   0  0  0  0  0  0  0  0  0  0  0  0
  140.6570   71.6630  223.9520 C   0  0  0  0  0  0  0  0  0  0  0  0
  139.7930   71.2750  225.0990 C   0  0  0  0  0  0  0  0  0  0  0  0
  140.2590   70.2080  226.0090 C   0  0  0  0  0  0  0  0  0  0  0  0
  139.2340   69.0490  226.0670 C   0  0  0  0  0  0  0  0  0  0  0  0
  140.0160   67.8030  226.3970 C   0  0  0  0  0  0  0  0  0  0  0  0
  141.0820   68.1420  227.4180 C   0  0  0  0  0  0  0  0  0  0  0  0
  140.6440   69.3010  228.2990 C   0  0  0  0  0  0  0  0  0  0  0  0
  140.5200   70.5680  227.4330 C   0  0  0  0  0  0  0  0  0  0  0  0
  141.5640   72.5750  221.0760 N   0  0  0  0  0  0  0  0  0  0  0  0
  142.2780   73.3400  220.2360 C   0  0  0  0  0  0  0  0  0  0  0  0
  143.1820   72.7940  219.2930 N   0  0  0  0  0  0  0  0  0  0  0  0
  143.2660   71.3860  218.9670 C   0  0  0  0  0  0  0  0  0  0  0  0
  144.6240   70.9040  219.4150 C   0  0  0  0  0  0  0  0  0  0  0  0
  145.6350   71.7780  218.9280 N   0  0  0  0  0  0  0  0  0  0  0  0
  145.2270   72.7810  218.0010 C   0  0  0  0  0  0  0  0  0  0  0  0
  144.1170   73.6690  218.5710 C   0  0  0  0  0  0  0  0  0  0  0  0
  142.1190   74.6720  220.3040 N   0  0  0  0  0  0  0  0  0  0  0  0
  140.5820   77.1710  222.5640 C   0  0  0  0  0  0  0  0  0  0  0  0
  143.1364   81.8161  223.1912 H   0  0  0  0  0  0  0  0  0  0  0  0
  142.8901   80.2918  225.1337 H   0  0  0  0  0  0  0  0  0  0  0  0
  141.7112   78.1127  224.9077 H   0  0  0  0  0  0  0  0  0  0  0  0
  142.1969   81.1653  220.9938 H   0  0  0  0  0  0  0  0  0  0  0  0
  139.7431   78.8347  220.4849 H   0  0  0  0  0  0  0  0  0  0  0  0
  141.1284   79.5124  219.5969 H   0  0  0  0  0  0  0  0  0  0  0  0
  140.8516   77.0211  219.2739 H   0  0  0  0  0  0  0  0  0  0  0  0
  142.4357   77.4642  219.9951 H   0  0  0  0  0  0  0  0  0  0  0  0
  138.9500   72.1320  222.6210 H   0  0  0  0  0  0  0  0  0  0  0  0
  141.1708   70.7625  223.5844 H   0  0  0  0  0  0  0  0  0  0  0  0
  141.3580   72.4257  224.3221 H   0  0  0  0  0  0  0  0  0  0  0  0
  139.6405   72.1774  225.7093 H   0  0  0  0  0  0  0  0  0  0  0  0
  138.8957   70.8496  224.6258 H   0  0  0  0  0  0  0  0  0  0  0  0
  141.2269   69.9489  225.5552 H   0  0  0  0  0  0  0  0  0  0  0  0
  138.4831   69.2442  226.8468 H   0  0  0  0  0  0  0  0  0  0  0  0
  138.6995   68.9421  225.1116 H   0  0  0  0  0  0  0  0  0  0  0  0
  139.3384   67.0418  226.8110 H   0  0  0  0  0  0  0  0  0  0  0  0
  140.4886   67.4100  225.4848 H   0  0  0  0  0  0  0  0  0  0  0  0
  141.2685   67.2608  228.0494 H   0  0  0  0  0  0  0  0  0  0  0  0
  141.9981   68.4345  226.8840 H   0  0  0  0  0  0  0  0  0  0  0  0
  139.6706   69.0697  228.7562 H   0  0  0  0  0  0  0  0  0  0  0  0
  141.3858   69.4650  229.0945 H   0  0  0  0  0  0  0  0  0  0  0  0
  139.6886   71.1825  227.8086 H   0  0  0  0  0  0  0  0  0  0  0  0
  141.4643   71.1294  227.4892 H   0  0  0  0  0  0  0  0  0  0  0  0
  142.4763   70.8297  219.4931 H   0  0  0  0  0  0  0  0  0  0  0  0
  143.1322   71.2268  217.8868 H   0  0  0  0  0  0  0  0  0  0  0  0
  144.6589   70.8832  220.5142 H   0  0  0  0  0  0  0  0  0  0  0  0
  144.7979   69.8933  219.0173 H   0  0  0  0  0  0  0  0  0  0  0  0
  146.3970   71.2280  218.4730 H   0  0  0  0  0  0  0  0  0  0  0  0
  146.0944   73.4107  217.7540 H   0  0  0  0  0  0  0  0  0  0  0  0
  144.8342   72.2775  217.1054 H   0  0  0  0  0  0  0  0  0  0  0  0
  144.5459   74.4113  219.2602 H   0  0  0  0  0  0  0  0  0  0  0  0
  143.5995   74.2098  217.7649 H   0  0  0  0  0  0  0  0  0  0  0  0
  139.4998   77.3586  222.5028 H   0  0  0  0  0  0  0  0  0  0  0  0
  140.7677   76.4649  223.3867 H   0  0  0  0  0  0  0  0  0  0  0  0
  1  2  2  0
  2  3  1  0
  3  4  2  0
  4  5  1  0
  5  6  2  0
  5  7  1  0
  7  8  1  0
  8  9  1  0
  9 10  1  0
 10 11  2  0
 11 12  1  0
 12 13  1  0
 13 14  1  0
 14 15  1  0
 15 16  1  0
 16 17  1  0
 17 18  1  0
 18 19  1  0
 19 20  1  0
 20 21  1  0
 12 22  2  0
 22 23  1  0
 23 24  1  0
 24 25  1  0
 25 26  1  0
 26 27  1  0
 27 28  1  0
 28 29  1  0
 23 30  2  0
  9 31  1  0
  6  1  1  0
 30 10  1  0
 31  4  1  0
 21 16  1  0
 29 24  1  0
  1 32  1  0
  2 33  1  0
  3 34  1  0
  6 35  1  0
  7 36  1  0
  7 37  1  0
  8 38  1  0
  8 39  1  0
 13 40  1  0
 14 41  1  0
 14 42  1  0
 15 43  1  0
 15 44  1  0
 16 45  1  0
 17 46  1  0
 17 47  1  0
 18 48  1  0
 18 49  1  0
 19 50  1  0
 19 51  1  0
 20 52  1  0
 20 53  1  0
 21 54  1  0
 21 55  1  0
 25 56  1  0
 25 57  1  0
 26 58  1  0
 26 59  1  0
 27 60  1  0
 28 61  1  0
 28 62  1  0
 29 63  1  0
 29 64  1  0
 31 65  1  0
 31 66  1  0
M  END
>  <smiles>  (5) 
c1ccc2c(c1)CCN(c1nc(NCCC3CCCCC3)nc(N3CCNCC3)n1)C2

>  <score_type>  (5) 
oracle

>  <origin>  (5) 
autodockgpu

>  <m_score__min__energy>  (5) 
-10.369999999999999

>  <m_primary>  (5) 
energy

>  <rmsd>  (5) 
5.224955414229762

>  <m_score__min__rmsd>  (5) 
5.224955414229762

>  <meeko>  (5) 
{"free_energy": -9.39, "intermolecular_energy": -11.18, "internal_energy": -0.81, "cluster_size": 42, "cluster_id": 1, "rank_in_cluster": 35}

>  <energy>  (5) 
-10.28

>  <cluster_rmsd>  (5) 
0.44

>  <cluster>  (5) 
1

$$$$

     RDKit          3D

 66 70  0  0  0  0  0  0  0  0999 V2000
  142.7380   80.8780  223.1760 C   0  0  0  0  0  0  0  0  0  0  0  0
  142.2560   80.0750  224.2020 C   0  0  0  0  0  0  0  0  0  0  0  0
  141.5480   78.9220  223.9490 C   0  0  0  0  0  0  0  0  0  0  0  0
  141.3360   78.5950  222.6280 C   0  0  0  0  0  0  0  0  0  0  0  0
  141.7980   79.3660  221.5740 C   0  0  0  0  0  0  0  0  0  0  0  0
  142.5030   80.5130  221.8690 C   0  0  0  0  0  0  0  0  0  0  0  0
  141.5100   78.9160  220.1880 C   0  0  0  0  0  0  0  0  0  0  0  0
  141.9370   77.4680  220.0910 C   0  0  0  0  0  0  0  0  0  0  0  0
  141.3060   76.7160  221.1290 N   0  0  0  0  0  0  0  0  0  0  0  0
  141.3820   75.2770  221.1110 C   0  0  0  0  0  0  0  0  0  0  0  0
  140.6480   74.6130  222.0230 N   0  0  0  0  0  0  0  0  0  0  0  0
  140.7110   73.2720  222.0150 C   0  0  0  0  0  0  0  0  0  0  0  0
  139.9310   72.5360  222.9850 N   0  0  0  0  0  0  0  0  0  0  0  0
  140.6160   71.5350  223.7270 C   0  0  0  0  0  0  0  0  0  0  0  0
  139.7180   70.5080  224.3190 C   0  0  0  0  0  0  0  0  0  0  0  0
  139.8760   70.1660  225.7480 C   0  0  0  0  0  0  0  0  0  0  0  0
  140.9940   71.0200  226.3960 C   0  0  0  0  0  0  0  0  0  0  0  0
  140.6470   71.1390  227.8590 C   0  0  0  0  0  0  0  0  0  0  0  0
  140.0970   69.8160  228.3480 C   0  0  0  0  0  0  0  0  0  0  0  0
  140.6850   68.6560  227.5590 C   0  0  0  0  0  0  0  0  0  0  0  0
  140.2110   68.7560  226.0980 C   0  0  0  0  0  0  0  0  0  0  0  0
  141.4910   72.6440  221.1140 N   0  0  0  0  0  0  0  0  0  0  0  0
  142.2240   73.3070  220.2050 C   0  0  0  0  0  0  0  0  0  0  0  0
  143.0420   72.6430  219.2590 N   0  0  0  0  0  0  0  0  0  0  0  0
  143.3870   71.2390  219.3240 C   0  0  0  0  0  0  0  0  0  0  0  0
  144.8780   71.1550  219.5430 C   0  0  0  0  0  0  0  0  0  0  0  0
  145.5540   71.9800  218.6020 N   0  0  0  0  0  0  0  0  0  0  0  0
  144.7630   72.5520  217.5620 C   0  0  0  0  0  0  0  0  0  0  0  0
  143.6020   73.3810  218.1170 C   0  0  0  0  0  0  0  0  0  0  0  0
  142.1680   74.6490  220.2050 N   0  0  0  0  0  0  0  0  0  0  0  0
  140.5760   77.3570  222.2270 C   0  0  0  0  0  0  0  0  0  0  0  0
  143.3009   81.7949  223.4049 H   0  0  0  0  0  0  0  0  0  0  0  0
  142.4453   80.3686  225.2451 H   0  0  0  0  0  0  0  0  0  0  0  0
  141.1685   78.2900  224.7654 H   0  0  0  0  0  0  0  0  0  0  0  0
  142.8821   81.1438  221.0515 H   0  0  0  0  0  0  0  0  0  0  0  0
  140.4340   79.0067  219.9781 H   0  0  0  0  0  0  0  0  0  0  0  0
  142.0518   79.5331  219.4562 H   0  0  0  0  0  0  0  0  0  0  0  0
  141.6405   77.0628  219.1123 H   0  0  0  0  0  0  0  0  0  0  0  0
  143.0294   77.3993  220.2000 H   0  0  0  0  0  0  0  0  0  0  0  0
  138.9350   72.8000  223.0330 H   0  0  0  0  0  0  0  0  0  0  0  0
  141.3256   71.0298  223.0553 H   0  0  0  0  0  0  0  0  0  0  0  0
  141.1178   72.0430  224.5637 H   0  0  0  0  0  0  0  0  0  0  0  0
  138.6859   70.8634  224.1833 H   0  0  0  0  0  0  0  0  0  0  0  0
  139.9875   69.5813  223.7912 H   0  0  0  0  0  0  0  0  0  0  0  0
  138.8623   70.3628  226.1270 H   0  0  0  0  0  0  0  0  0  0  0  0
  141.9688   70.5248  226.2755 H   0  0  0  0  0  0  0  0  0  0  0  0
  141.0645   72.0100  225.9216 H   0  0  0  0  0  0  0  0  0  0  0  0
  141.5501   71.3966  228.4318 H   0  0  0  0  0  0  0  0  0  0  0  0
  139.8925   71.9274  227.9975 H   0  0  0  0  0  0  0  0  0  0  0  0
  140.3497   69.6924  229.4114 H   0  0  0  0  0  0  0  0  0  0  0  0
  139.0059   69.8172  228.2087 H   0  0  0  0  0  0  0  0  0  0  0  0
  141.7834   68.7040  227.5950 H   0  0  0  0  0  0  0  0  0  0  0  0
  140.3522   67.7023  227.9945 H   0  0  0  0  0  0  0  0  0  0  0  0
  141.0117   68.3994  225.4334 H   0  0  0  0  0  0  0  0  0  0  0  0
  139.3096   68.1375  225.9755 H   0  0  0  0  0  0  0  0  0  0  0  0
  142.8559   70.7588  220.1590 H   0  0  0  0  0  0  0  0  0  0  0  0
  143.0991   70.7230  218.3962 H   0  0  0  0  0  0  0  0  0  0  0  0
  145.1164   71.4936  220.5621 H   0  0  0  0  0  0  0  0  0  0  0  0
  145.2048   70.1130  219.4107 H   0  0  0  0  0  0  0  0  0  0  0  0
  146.3260   71.4470  218.1450 H   0  0  0  0  0  0  0  0  0  0  0  0
  145.4018   73.2024  216.9463 H   0  0  0  0  0  0  0  0  0  0  0  0
  144.3401   71.7307  216.9649 H   0  0  0  0  0  0  0  0  0  0  0  0
  143.9666   74.3649  218.4473 H   0  0  0  0  0  0  0  0  0  0  0  0
  142.8354   73.5421  217.3447 H   0  0  0  0  0  0  0  0  0  0  0  0
  139.5643   77.6312  221.8934 H   0  0  0  0  0  0  0  0  0  0  0  0
  140.4864   76.6691  223.0807 H   0  0  0  0  0  0  0  0  0  0  0  0
  1  2  2  0
  2  3  1  0
  3  4  2  0
  4  5  1  0
  5  6  2  0
  5  7  1  0
  7  8  1  0
  8  9  1  0
  9 10  1  0
 10 11  2  0
 11 12  1  0
 12 13  1  0
 13 14  1  0
 14 15  1  0
 15 16  1  0
 16 17  1  0
 17 18  1  0
 18 19  1  0
 19 20  1  0
 20 21  1  0
 12 22  2  0
 22 23  1  0
 23 24  1  0
 24 25  1  0
 25 26  1  0
 26 27  1  0
 27 28  1  0
 28 29  1  0
 23 30  2  0
  9 31  1  0
  6  1  1  0
 30 10  1  0
 31  4  1  0
 21 16  1  0
 29 24  1  0
  1 32  1  0
  2 33  1  0
  3 34  1  0
  6 35  1  0
  7 36  1  0
  7 37  1  0
  8 38  1  0
  8 39  1  0
 13 40  1  0
 14 41  1  0
 14 42  1  0
 15 43  1  0
 15 44  1  0
 16 45  1  0
 17 46  1  0
 17 47  1  0
 18 48  1  0
 18 49  1  0
 19 50  1  0
 19 51  1  0
 20 52  1  0
 20 53  1  0
 21 54  1  0
 21 55  1  0
 25 56  1  0
 25 57  1  0
 26 58  1  0
 26 59  1  0
 27 60  1  0
 28 61  1  0
 28 62  1  0
 29 63  1  0
 29 64  1  0
 31 65  1  0
 31 66  1  0
M  END
>  <smiles>  (6) 
c1ccc2c(c1)CCN(c1nc(NCCC3CCCCC3)nc(N3CCNCC3)n1)C2

>  <score_type>  (6) 
oracle

>  <origin>  (6) 
autodockgpu

>  <m_score__min__energy>  (6) 
-10.369999999999999

>  <m_primary>  (6) 
energy

>  <rmsd>  (6) 
5.251902566677003

>  <m_score__min__rmsd>  (6) 
5.251902566677003

>  <meeko>  (6) 
{"free_energy": -9.82, "intermolecular_energy": -11.61, "internal_energy": -0.88, "cluster_size": 42, "cluster_id": 1, "rank_in_cluster": 19}

>  <energy>  (6) 
-10.27

>  <cluster_rmsd>  (6) 
0.6

>  <cluster>  (6) 
1

$$$$

     RDKit          3D

 66 70  0  0  0  0  0  0  0  0999 V2000
  142.3160   80.8220  222.7640 C   0  0  0  0  0  0  0  0  0  0  0  0
  142.4150   80.0020  223.8810 C   0  0  0  0  0  0  0  0  0  0  0  0
  141.8450   78.7490  223.9130 C   0  0  0  0  0  0  0  0  0  0  0  0
  141.1690   78.3400  222.7860 C   0  0  0  0  0  0  0  0  0  0  0  0
  141.0450   79.1250  221.6500 C   0  0  0  0  0  0  0  0  0  0  0  0
  141.6300   80.3720  221.6570 C   0  0  0  0  0  0  0  0  0  0  0  0
  140.2930   78.5800  220.4920 C   0  0  0  0  0  0  0  0  0  0  0  0
  140.8550   77.2050  220.2000 C   0  0  0  0  0  0  0  0  0  0  0  0
  140.8170   76.4140  221.3900 N   0  0  0  0  0  0  0  0  0  0  0  0
  141.0920   75.0030  221.3140 C   0  0  0  0  0  0  0  0  0  0  0  0
  140.0900   74.1640  221.6370 N   0  0  0  0  0  0  0  0  0  0  0  0
  140.3350   72.8460  221.5690 C   0  0  0  0  0  0  0  0  0  0  0  0
  139.2740   71.9250  221.9120 N   0  0  0  0  0  0  0  0  0  0  0  0
  139.1390   71.5920  223.2870 C   0  0  0  0  0  0  0  0  0  0  0  0
  140.4320   71.5390  224.0210 C   0  0  0  0  0  0  0  0  0  0  0  0
  140.4310   71.0860  225.4280 C   0  0  0  0  0  0  0  0  0  0  0  0
  141.4910   71.8580  226.2520 C   0  0  0  0  0  0  0  0  0  0  0  0
  140.9940   71.8760  227.6760 C   0  0  0  0  0  0  0  0  0  0  0  0
  140.3710   70.5340  228.0010 C   0  0  0  0  0  0  0  0  0  0  0  0
  141.0150   69.4220  227.1890 C   0  0  0  0  0  0  0  0  0  0  0  0
  140.7010   69.6450  225.6990 C   0  0  0  0  0  0  0  0  0  0  0  0
  141.5520   72.4110  221.1880 N   0  0  0  0  0  0  0  0  0  0  0  0
  142.5510   73.2470  220.8650 C   0  0  0  0  0  0  0  0  0  0  0  0
  143.8280   72.7850  220.4640 N   0  0  0  0  0  0  0  0  0  0  0  0
  145.0380   72.9660  221.2360 C   0  0  0  0  0  0  0  0  0  0  0  0
  145.9490   73.8640  220.4330 C   0  0  0  0  0  0  0  0  0  0  0  0
  146.0560   73.3810  219.1000 N   0  0  0  0  0  0  0  0  0  0  0  0
  145.4760   72.1070  218.8280 C   0  0  0  0  0  0  0  0  0  0  0  0
  143.9880   72.0670  219.1910 C   0  0  0  0  0  0  0  0  0  0  0  0
  142.3160   74.5670  220.9310 N   0  0  0  0  0  0  0  0  0  0  0  0
  140.5060   76.9900  222.7020 C   0  0  0  0  0  0  0  0  0  0  0  0
  142.7800   81.8193  222.7633 H   0  0  0  0  0  0  0  0  0  0  0  0
  142.9634   80.3633  224.7634 H   0  0  0  0  0  0  0  0  0  0  0  0
  141.9263   78.1035  224.8000 H   0  0  0  0  0  0  0  0  0  0  0  0
  141.5486   81.0159  220.7688 H   0  0  0  0  0  0  0  0  0  0  0  0
  139.2236   78.5054  220.7385 H   0  0  0  0  0  0  0  0  0  0  0  0
  140.3949   79.2375  219.6160 H   0  0  0  0  0  0  0  0  0  0  0  0
  140.2519   76.7206  219.4179 H   0  0  0  0  0  0  0  0  0  0  0  0
  141.8950   77.2990  219.8543 H   0  0  0  0  0  0  0  0  0  0  0  0
  138.7220   71.5810  221.1120 H   0  0  0  0  0  0  0  0  0  0  0  0
  138.4990   72.3477  223.7658 H   0  0  0  0  0  0  0  0  0  0  0  0
  138.7035   70.5829  223.3313 H   0  0  0  0  0  0  0  0  0  0  0  0
  141.0937   70.8604  223.4628 H   0  0  0  0  0  0  0  0  0  0  0  0
  140.7497   72.5905  224.0790 H   0  0  0  0  0  0  0  0  0  0  0  0
  139.3871   71.2807  225.7149 H   0  0  0  0  0  0  0  0  0  0  0  0
  142.4633   71.3468  226.1950 H   0  0  0  0  0  0  0  0  0  0  0  0
  141.6304   72.8784  225.8656 H   0  0  0  0  0  0  0  0  0  0  0  0
  141.8362   72.0658  228.3576 H   0  0  0  0  0  0  0  0  0  0  0  0
  140.2439   72.6715  227.7965 H   0  0  0  0  0  0  0  0  0  0  0  0
  140.5091   70.3234  229.0718 H   0  0  0  0  0  0  0  0  0  0  0  0
  139.3007   70.5753  227.7506 H   0  0  0  0  0  0  0  0  0  0  0  0
  142.1041   69.4360  227.3427 H   0  0  0  0  0  0  0  0  0  0  0  0
  140.6181   68.4481  227.5113 H   0  0  0  0  0  0  0  0  0  0  0  0
  141.5612   69.3190  225.0958 H   0  0  0  0  0  0  0  0  0  0  0  0
  139.8068   69.0615  225.4345 H   0  0  0  0  0  0  0  0  0  0  0  0
  144.8020   73.4355  222.2024 H   0  0  0  0  0  0  0  0  0  0  0  0
  145.5213   71.9987  221.4376 H   0  0  0  0  0  0  0  0  0  0  0  0
  145.5359   74.8834  220.4191 H   0  0  0  0  0  0  0  0  0  0  0  0
  146.9471   73.8723  220.8953 H   0  0  0  0  0  0  0  0  0  0  0  0
  147.0590   73.3300  218.8150 H   0  0  0  0  0  0  0  0  0  0  0  0
  145.5864   71.8877  217.7558 H   0  0  0  0  0  0  0  0  0  0  0  0
  145.9968   71.3574  219.4420 H   0  0  0  0  0  0  0  0  0  0  0  0
  143.3956   72.5582  218.4050 H   0  0  0  0  0  0  0  0  0  0  0  0
  143.6380   71.0283  219.2836 H   0  0  0  0  0  0  0  0  0  0  0  0
  139.4172   77.1012  222.8124 H   0  0  0  0  0  0  0  0  0  0  0  0
  140.8728   76.3333  223.5046 H   0  0  0  0  0  0  0  0  0  0  0  0
  1  2  2  0
  2  3  1  0
  3  4  2  0
  4  5  1  0
  5  6  2  0
  5  7  1  0
  7  8  1  0
  8  9  1  0
  9 10  1  0
 10 11  2  0
 11 12  1  0
 12 13  1  0
 13 14  1  0
 14 15  1  0
 15 16  1  0
 16 17  1  0
 17 18  1  0
 18 19  1  0
 19 20  1  0
 20 21  1  0
 12 22  2  0
 22 23  1  0
 23 24  1  0
 24 25  1  0
 25 26  1  0
 26 27  1  0
 27 28  1  0
 28 29  1  0
 23 30  2  0
  9 31  1  0
  6  1  1  0
 30 10  1  0
 31  4  1  0
 21 16  1  0
 29 24  1  0
  1 32  1  0
  2 33  1  0
  3 34  1  0
  6 35  1  0
  7 36  1  0
  7 37  1  0
  8 38  1  0
  8 39  1  0
 13 40  1  0
 14 41  1  0
 14 42  1  0
 15 43  1  0
 15 44  1  0
 16 45  1  0
 17 46  1  0
 17 47  1  0
 18 48  1  0
 18 49  1  0
 19 50  1  0
 19 51  1  0
 20 52  1  0
 20 53  1  0
 21 54  1  0
 21 55  1  0
 25 56  1  0
 25 57  1  0
 26 58  1  0
 26 59  1  0
 27 60  1  0
 28 61  1  0
 28 62  1  0
 29 63  1  0
 29 64  1  0
 31 65  1  0
 31 66  1  0
M  END
>  <smiles>  (7) 
c1ccc2c(c1)CCN(c1nc(NCCC3CCCCC3)nc(N3CCNCC3)n1)C2

>  <score_type>  (7) 
oracle

>  <origin>  (7) 
autodockgpu

>  <m_score__min__energy>  (7) 
-10.369999999999999

>  <m_primary>  (7) 
energy

>  <rmsd>  (7) 
5.049879741439315

>  <m_score__min__rmsd>  (7) 
5.049879741439315

>  <meeko>  (7) 
{"free_energy": -9.7, "intermolecular_energy": -11.49, "internal_energy": -1.08, "cluster_size": 42, "cluster_id": 1, "rank_in_cluster": 25}

>  <energy>  (7) 
-10.26

>  <cluster_rmsd>  (7) 
0.46

>  <cluster>  (7) 
1

$$$$

     RDKit          3D

 66 70  0  0  0  0  0  0  0  0999 V2000
  145.2190   69.5860  217.4930 C   0  0  0  0  0  0  0  0  0  0  0  0
  144.3470   68.9050  218.3340 C   0  0  0  0  0  0  0  0  0  0  0  0
  143.8270   69.4900  219.4670 C   0  0  0  0  0  0  0  0  0  0  0  0
  144.2070   70.7860  219.7330 C   0  0  0  0  0  0  0  0  0  0  0  0
  145.0730   71.5020  218.9220 C   0  0  0  0  0  0  0  0  0  0  0  0
  145.5720   70.8820  217.7980 C   0  0  0  0  0  0  0  0  0  0  0  0
  145.4150   72.8950  219.3080 C   0  0  0  0  0  0  0  0  0  0  0  0
  144.1110   73.6200  219.5640 C   0  0  0  0  0  0  0  0  0  0  0  0
  143.3390   72.8860  220.5160 N   0  0  0  0  0  0  0  0  0  0  0  0
  142.1590   73.4840  221.0860 C   0  0  0  0  0  0  0  0  0  0  0  0
  141.2650   72.6550  221.6570 N   0  0  0  0  0  0  0  0  0  0  0  0
  140.1620   73.2020  222.1920 C   0  0  0  0  0  0  0  0  0  0  0  0
  139.1860   72.3310  222.8100 N   0  0  0  0  0  0  0  0  0  0  0  0
  139.6920   71.1880  223.4870 C   0  0  0  0  0  0  0  0  0  0  0  0
  140.4840   71.5130  224.7030 C   0  0  0  0  0  0  0  0  0  0  0  0
  140.5910   70.4980  225.7730 C   0  0  0  0  0  0  0  0  0  0  0  0
  139.3590   69.5600  225.7640 C   0  0  0  0  0  0  0  0  0  0  0  0
  139.8220   68.2430  226.3330 C   0  0  0  0  0  0  0  0  0  0  0  0
  140.7720   68.5050  227.4820 C   0  0  0  0  0  0  0  0  0  0  0  0
  140.4490   69.8230  228.1670 C   0  0  0  0  0  0  0  0  0  0  0  0
  140.7070   70.9760  227.1810 C   0  0  0  0  0  0  0  0  0  0  0  0
  139.9860   74.5360  222.1420 N   0  0  0  0  0  0  0  0  0  0  0  0
  140.8770   75.3630  221.5740 C   0  0  0  0  0  0  0  0  0  0  0  0
  140.6870   76.7650  221.5250 N   0  0  0  0  0  0  0  0  0  0  0  0
  140.3530   77.5010  220.3240 C   0  0  0  0  0  0  0  0  0  0  0  0
  141.5190   78.4100  220.0190 C   0  0  0  0  0  0  0  0  0  0  0  0
  141.8860   79.1380  221.1840 N   0  0  0  0  0  0  0  0  0  0  0  0
  141.0180   79.0290  222.3110 C   0  0  0  0  0  0  0  0  0  0  0  0
  140.8260   77.5740  222.7460 C   0  0  0  0  0  0  0  0  0  0  0  0
  141.9830   74.8260  221.0350 N   0  0  0  0  0  0  0  0  0  0  0  0
  143.7030   71.5310  220.9410 C   0  0  0  0  0  0  0  0  0  0  0  0
  145.6224   69.0959  216.5946 H   0  0  0  0  0  0  0  0  0  0  0  0
  144.0646   67.8707  218.0880 H   0  0  0  0  0  0  0  0  0  0  0  0
  143.1384   68.9457  220.1301 H   0  0  0  0  0  0  0  0  0  0  0  0
  146.2604   71.4281  217.1362 H   0  0  0  0  0  0  0  0  0  0  0  0
  146.0308   72.8934  220.2194 H   0  0  0  0  0  0  0  0  0  0  0  0
  145.9889   73.3917  218.5118 H   0  0  0  0  0  0  0  0  0  0  0  0
  144.3212   74.6250  219.9586 H   0  0  0  0  0  0  0  0  0  0  0  0
  143.5480   73.7069  218.6230 H   0  0  0  0  0  0  0  0  0  0  0  0
  138.2050   72.6180  222.6820 H   0  0  0  0  0  0  0  0  0  0  0  0
  138.8419   70.5568  223.7851 H   0  0  0  0  0  0  0  0  0  0  0  0
  140.3713   70.6767  222.7891 H   0  0  0  0  0  0  0  0  0  0  0  0
  141.5073   71.7427  224.3711 H   0  0  0  0  0  0  0  0  0  0  0  0
  139.9272   72.3377  225.1719 H   0  0  0  0  0  0  0  0  0  0  0  0
  141.5443   70.0141  225.5141 H   0  0  0  0  0  0  0  0  0  0  0  0
  138.5555   69.9815  226.3858 H   0  0  0  0  0  0  0  0  0  0  0  0
  138.9597   69.4363  224.7466 H   0  0  0  0  0  0  0  0  0  0  0  0
  138.9539   67.6731  226.6957 H   0  0  0  0  0  0  0  0  0  0  0  0
  140.3363   67.6630  225.5525 H   0  0  0  0  0  0  0  0  0  0  0  0
  140.6849   67.6885  228.2139 H   0  0  0  0  0  0  0  0  0  0  0  0
  141.7962   68.5588  227.0843 H   0  0  0  0  0  0  0  0  0  0  0  0
  139.3928   69.8299  228.4744 H   0  0  0  0  0  0  0  0  0  0  0  0
  141.0845   69.9452  229.0565 H   0  0  0  0  0  0  0  0  0  0  0  0
  139.9682   71.7723  227.3545 H   0  0  0  0  0  0  0  0  0  0  0  0
  141.7251   71.3599  227.3426 H   0  0  0  0  0  0  0  0  0  0  0  0
  140.1894   76.8046  219.4884 H   0  0  0  0  0  0  0  0  0  0  0  0
  139.4307   78.0833  220.4666 H   0  0  0  0  0  0  0  0  0  0  0  0
  142.3742   77.8052  219.6829 H   0  0  0  0  0  0  0  0  0  0  0  0
  141.2283   79.1171  219.2281 H   0  0  0  0  0  0  0  0  0  0  0  0
  141.9750   80.1540  220.9600 H   0  0  0  0  0  0  0  0  0  0  0  0
  141.4500   79.5964  223.1486 H   0  0  0  0  0  0  0  0  0  0  0  0
  140.0352   79.4312  222.0241 H   0  0  0  0  0  0  0  0  0  0  0  0
  141.6988   77.2359  223.3238 H   0  0  0  0  0  0  0  0  0  0  0  0
  139.9346   77.4731  223.3826 H   0  0  0  0  0  0  0  0  0  0  0  0
  144.4916   71.5787  221.7064 H   0  0  0  0  0  0  0  0  0  0  0  0
  142.8306   71.0173  221.3712 H   0  0  0  0  0  0  0  0  0  0  0  0
  1  2  2  0
  2  3  1  0
  3  4  2  0
  4  5  1  0
  5  6  2  0
  5  7  1  0
  7  8  1  0
  8  9  1  0
  9 10  1  0
 10 11  2  0
 11 12  1  0
 12 13  1  0
 13 14  1  0
 14 15  1  0
 15 16  1  0
 16 17  1  0
 17 18  1  0
 18 19  1  0
 19 20  1  0
 20 21  1  0
 12 22  2  0
 22 23  1  0
 23 24  1  0
 24 25  1  0
 25 26  1  0
 26 27  1  0
 27 28  1  0
 28 29  1  0
 23 30  2  0
  9 31  1  0
  6  1  1  0
 30 10  1  0
 31  4  1  0
 21 16  1  0
 29 24  1  0
  1 32  1  0
  2 33  1  0
  3 34  1  0
  6 35  1  0
  7 36  1  0
  7 37  1  0
  8 38  1  0
  8 39  1  0
 13 40  1  0
 14 41  1  0
 14 42  1  0
 15 43  1  0
 15 44  1  0
 16 45  1  0
 17 46  1  0
 17 47  1  0
 18 48  1  0
 18 49  1  0
 19 50  1  0
 19 51  1  0
 20 52  1  0
 20 53  1  0
 21 54  1  0
 21 55  1  0
 25 56  1  0
 25 57  1  0
 26 58  1  0
 26 59  1  0
 27 60  1  0
 28 61  1  0
 28 62  1  0
 29 63  1  0
 29 64  1  0
 31 65  1  0
 31 66  1  0
M  END
>  <smiles>  (8) 
c1ccc2c(c1)CCN(c1nc(NCCC3CCCCC3)nc(N3CCNCC3)n1)C2

>  <score_type>  (8) 
oracle

>  <origin>  (8) 
autodockgpu

>  <m_score__min__energy>  (8) 
-10.369999999999999

>  <m_primary>  (8) 
energy

>  <rmsd>  (8) 
9.384576763878952

>  <m_score__min__rmsd>  (8) 
9.384576763878952

>  <meeko>  (8) 
{"free_energy": -8.12, "intermolecular_energy": -9.91, "internal_energy": -1.03, "cluster_size": 2, "cluster_id": 3, "rank_in_cluster": 2}

>  <energy>  (8) 
-10.16

>  <cluster_rmsd>  (8) 
0.62

>  <cluster>  (8) 
1

$$$$

     RDKit          3D

 66 70  0  0  0  0  0  0  0  0999 V2000
  142.0880   81.5920  222.6480 C   0  0  0  0  0  0  0  0  0  0  0  0
  142.1650   80.8110  223.7940 C   0  0  0  0  0  0  0  0  0  0  0  0
  141.5690   79.5710  223.8670 C   0  0  0  0  0  0  0  0  0  0  0  0
  140.8910   79.1360  222.7510 C   0  0  0  0  0  0  0  0  0  0  0  0
  140.7890   79.8830  221.5880 C   0  0  0  0  0  0  0  0  0  0  0  0
  141.3990   81.1170  221.5540 C   0  0  0  0  0  0  0  0  0  0  0  0
  140.0310   79.3130  220.4450 C   0  0  0  0  0  0  0  0  0  0  0  0
  140.5660   77.9180  220.2050 C   0  0  0  0  0  0  0  0  0  0  0  0
  140.5060   77.1700  221.4220 N   0  0  0  0  0  0  0  0  0  0  0  0
  140.7520   75.7510  221.3970 C   0  0  0  0  0  0  0  0  0  0  0  0
  139.8570   74.9620  222.0200 N   0  0  0  0  0  0  0  0  0  0  0  0
  140.0770   73.6380  222.0030 C   0  0  0  0  0  0  0  0  0  0  0  0
  139.1300   72.7700  222.6670 N   0  0  0  0  0  0  0  0  0  0  0  0
  139.5070   71.4070  222.8110 C   0  0  0  0  0  0  0  0  0  0  0  0
  140.7350   71.2070  223.6260 C   0  0  0  0  0  0  0  0  0  0  0  0
  140.6010   70.6290  224.9800 C   0  0  0  0  0  0  0  0  0  0  0  0
  139.1690   70.0840  225.2050 C   0  0  0  0  0  0  0  0  0  0  0  0
  139.2910   68.9710  226.2150 C   0  0  0  0  0  0  0  0  0  0  0  0
  140.3020   69.3670  227.2700 C   0  0  0  0  0  0  0  0  0  0  0  0
  140.3440   70.8760  227.4470 C   0  0  0  0  0  0  0  0  0  0  0  0
  140.8680   71.5160  226.1490 C   0  0  0  0  0  0  0  0  0  0  0  0
  141.1640   73.1490  221.3760 N   0  0  0  0  0  0  0  0  0  0  0  0
  142.0560   73.9350  220.7540 C   0  0  0  0  0  0  0  0  0  0  0  0
  143.1970   73.4160  220.0950 N   0  0  0  0  0  0  0  0  0  0  0  0
  143.2170   72.1680  219.3640 C   0  0  0  0  0  0  0  0  0  0  0  0
  144.1540   71.2370  220.0950 C   0  0  0  0  0  0  0  0  0  0  0  0
  145.3880   71.8950  220.3550 N   0  0  0  0  0  0  0  0  0  0  0  0
  145.5780   73.1700  219.7450 C   0  0  0  0  0  0  0  0  0  0  0  0
  144.4680   74.1550  220.1230 C   0  0  0  0  0  0  0  0  0  0  0  0
  141.8460   75.2620  220.7660 N   0  0  0  0  0  0  0  0  0  0  0  0
  140.2000   77.7980  222.7110 C   0  0  0  0  0  0  0  0  0  0  0  0
  142.5720   82.5792  222.6145 H   0  0  0  0  0  0  0  0  0  0  0  0
  142.7162   81.1925  224.6661 H   0  0  0  0  0  0  0  0  0  0  0  0
  141.6322   78.9559  224.7768 H   0  0  0  0  0  0  0  0  0  0  0  0
  141.3354   81.7303  220.6430 H   0  0  0  0  0  0  0  0  0  0  0  0
  138.9591   79.2690  220.6880 H   0  0  0  0  0  0  0  0  0  0  0  0
  140.1504   79.9370  219.5470 H   0  0  0  0  0  0  0  0  0  0  0  0
  139.9571   77.4186  219.4370 H   0  0  0  0  0  0  0  0  0  0  0  0
  141.6095   77.9788  219.8624 H   0  0  0  0  0  0  0  0  0  0  0  0
  138.2530   73.2270  222.9600 H   0  0  0  0  0  0  0  0  0  0  0  0
  138.6788   70.8671  223.2934 H   0  0  0  0  0  0  0  0  0  0  0  0
  139.7263   71.0268  221.8024 H   0  0  0  0  0  0  0  0  0  0  0  0
  141.3986   70.5418  223.0540 H   0  0  0  0  0  0  0  0  0  0  0  0
  141.1056   72.2269  223.8060 H   0  0  0  0  0  0  0  0  0  0  0  0
  141.3915   69.8642  224.9641 H   0  0  0  0  0  0  0  0  0  0  0  0
  138.5157   70.8796  225.5926 H   0  0  0  0  0  0  0  0  0  0  0  0
  138.7275   69.7225  224.2646 H   0  0  0  0  0  0  0  0  0  0  0  0
  138.3140   68.7951  226.6889 H   0  0  0  0  0  0  0  0  0  0  0  0
  139.6215   68.0498  225.7128 H   0  0  0  0  0  0  0  0  0  0  0  0
  140.0246   68.9004  228.2268 H   0  0  0  0  0  0  0  0  0  0  0  0
  141.2964   69.0248  226.9475 H   0  0  0  0  0  0  0  0  0  0  0  0
  139.3323   71.2509  227.6613 H   0  0  0  0  0  0  0  0  0  0  0  0
  141.0085   71.1346  228.2846 H   0  0  0  0  0  0  0  0  0  0  0  0
  140.3638   72.4811  225.9929 H   0  0  0  0  0  0  0  0  0  0  0  0
  141.9542   71.6639  226.2405 H   0  0  0  0  0  0  0  0  0  0  0  0
  142.2064   71.7351  219.3299 H   0  0  0  0  0  0  0  0  0  0  0  0
  143.5538   72.3272  218.3290 H   0  0  0  0  0  0  0  0  0  0  0  0
  143.6956   70.9327  221.0475 H   0  0  0  0  0  0  0  0  0  0  0  0
  144.3417   70.3504  219.4715 H   0  0  0  0  0  0  0  0  0  0  0  0
  146.1870   71.2910  220.0610 H   0  0  0  0  0  0  0  0  0  0  0  0
  146.5445   73.5805  220.0727 H   0  0  0  0  0  0  0  0  0  0  0  0
  145.5549   73.0327  218.6538 H   0  0  0  0  0  0  0  0  0  0  0  0
  144.6480   74.5556  221.1315 H   0  0  0  0  0  0  0  0  0  0  0  0
  144.4419   75.0000  219.4192 H   0  0  0  0  0  0  0  0  0  0  0  0
  139.1132   77.9357  222.8108 H   0  0  0  0  0  0  0  0  0  0  0  0
  140.5482   77.1625  223.5386 H   0  0  0  0  0  0  0  0  0  0  0  0
  1  2  2  0
  2  3  1  0
  3  4  2  0
  4  5  1  0
  5  6  2  0
  5  7  1  0
  7  8  1  0
  8  9  1  0
  9 10  1  0
 10 11  2  0
 11 12  1  0
 12 13  1  0
 13 14  1  0
 14 15  1  0
 15 16  1  0
 16 17  1  0
 17 18  1  0
 18 19  1  0
 19 20  1  0
 20 21  1  0
 12 22  2  0
 22 23  1  0
 23 24  1  0
 24 25  1  0
 25 26  1  0
 26 27  1  0
 27 28  1  0
 28 29  1  0
 23 30  2  0
  9 31  1  0
  6  1  1  0
 30 10  1  0
 31  4  1  0
 21 16  1  0
 29 24  1  0
  1 32  1  0
  2 33  1  0
  3 34  1  0
  6 35  1  0
  7 36  1  0
  7 37  1  0
  8 38  1  0
  8 39  1  0
 13 40  1  0
 14 41  1  0
 14 42  1  0
 15 43  1  0
 15 44  1  0
 16 45  1  0
 17 46  1  0
 17 47  1  0
 18 48  1  0
 18 49  1  0
 19 50  1  0
 19 51  1  0
 20 52  1  0
 20 53  1  0
 21 54  1  0
 21 55  1  0
 25 56  1  0
 25 57  1  0
 26 58  1  0
 26 59  1  0
 27 60  1  0
 28 61  1  0
 28 62  1  0
 29 63  1  0
 29 64  1  0
 31 65  1  0
 31 66  1  0
M  END
>  <smiles>  (9) 
c1ccc2c(c1)CCN(c1nc(NCCC3CCCCC3)nc(N3CCNCC3)n1)C2

>  <score_type>  (9) 
oracle

>  <origin>  (9) 
autodockgpu

>  <m_score__min__energy>  (9) 
-10.369999999999999

>  <m_primary>  (9) 
energy

>  <rmsd>  (9) 
5.128599374050011

>  <m_score__min__rmsd>  (9) 
5.128599374050011

>  <meeko>  (9) 
{"free_energy": -9.23, "intermolecular_energy": -11.01, "internal_energy": -1.05, "cluster_size": 42, "cluster_id": 1, "rank_in_cluster": 40}

>  <energy>  (9) 
-10.13

>  <cluster_rmsd>  (9) 
0.52

>  <cluster>  (9) 
1

$$$$

     RDKit          3D

 66 70  0  0  0  0  0  0  0  0999 V2000
  142.5560   80.8230  222.7920 C   0  0  0  0  0  0  0  0  0  0  0  0
  142.2700   80.0870  223.9350 C   0  0  0  0  0  0  0  0  0  0  0  0
  141.6360   78.8660  223.8720 C   0  0  0  0  0  0  0  0  0  0  0  0
  141.2960   78.4020  222.6210 C   0  0  0  0  0  0  0  0  0  0  0  0
  141.5610   79.1030  221.4550 C   0  0  0  0  0  0  0  0  0  0  0  0
  142.1980   80.3200  221.5610 C   0  0  0  0  0  0  0  0  0  0  0  0
  141.1480   78.5050  220.1600 C   0  0  0  0  0  0  0  0  0  0  0  0
  141.6810   77.0890  220.1320 C   0  0  0  0  0  0  0  0  0  0  0  0
  141.2450   76.3930  221.3020 N   0  0  0  0  0  0  0  0  0  0  0  0
  141.4390   74.9690  221.3950 C   0  0  0  0  0  0  0  0  0  0  0  0
  140.4670   74.2560  221.9930 N   0  0  0  0  0  0  0  0  0  0  0  0
  140.6370   72.9270  222.0860 C   0  0  0  0  0  0  0  0  0  0  0  0
  139.6060   72.1390  222.7250 N   0  0  0  0  0  0  0  0  0  0  0  0
  140.0430   71.0680  223.5500 C   0  0  0  0  0  0  0  0  0  0  0  0
  140.5450   71.5020  224.8810 C   0  0  0  0  0  0  0  0  0  0  0  0
  140.6170   70.5070  225.9720 C   0  0  0  0  0  0  0  0  0  0  0  0
  139.5230   69.4250  225.8000 C   0  0  0  0  0  0  0  0  0  0  0  0
  140.0540   68.1740  226.4530 C   0  0  0  0  0  0  0  0  0  0  0  0
  140.7870   68.5500  227.7230 C   0  0  0  0  0  0  0  0  0  0  0  0
  140.2090   69.8170  228.3320 C   0  0  0  0  0  0  0  0  0  0  0  0
  140.4670   70.9940  227.3730 C   0  0  0  0  0  0  0  0  0  0  0  0
  141.7530   72.3600  221.5880 N   0  0  0  0  0  0  0  0  0  0  0  0
  142.7220   73.0710  220.9910 C   0  0  0  0  0  0  0  0  0  0  0  0
  143.8920   72.4700  220.4680 N   0  0  0  0  0  0  0  0  0  0  0  0
  145.2130   73.0570  220.5450 C   0  0  0  0  0  0  0  0  0  0  0  0
  145.6500   73.3580  219.1310 C   0  0  0  0  0  0  0  0  0  0  0  0
  145.4590   72.2130  218.3100 N   0  0  0  0  0  0  0  0  0  0  0  0
  145.0940   71.0010  218.9680 C   0  0  0  0  0  0  0  0  0  0  0  0
  143.8170   71.1640  219.7960 C   0  0  0  0  0  0  0  0  0  0  0  0
  142.5610   74.4010  220.8940 N   0  0  0  0  0  0  0  0  0  0  0  0
  140.6010   77.0800  222.4250 C   0  0  0  0  0  0  0  0  0  0  0  0
  143.0626   81.7963  222.8693 H   0  0  0  0  0  0  0  0  0  0  0  0
  142.5578   80.4904  224.9171 H   0  0  0  0  0  0  0  0  0  0  0  0
  141.4114   78.2875  224.7802 H   0  0  0  0  0  0  0  0  0  0  0  0
  142.4233   80.8966  220.6518 H   0  0  0  0  0  0  0  0  0  0  0  0
  140.0508   78.4965  220.0814 H   0  0  0  0  0  0  0  0  0  0  0  0
  141.5441   79.0886  219.3159 H   0  0  0  0  0  0  0  0  0  0  0  0
  141.3043   76.5730  219.2366 H   0  0  0  0  0  0  0  0  0  0  0  0
  142.7805   77.1113  220.1068 H   0  0  0  0  0  0  0  0  0  0  0  0
  138.6410   72.4250  222.5020 H   0  0  0  0  0  0  0  0  0  0  0  0
  139.1970   70.3822  223.7051 H   0  0  0  0  0  0  0  0  0  0  0  0
  140.8852   70.5869  223.0312 H   0  0  0  0  0  0  0  0  0  0  0  0
  141.5624   71.8927  224.7316 H   0  0  0  0  0  0  0  0  0  0  0  0
  139.7914   72.2243  225.2279 H   0  0  0  0  0  0  0  0  0  0  0  0
  141.6496   70.1440  225.8626 H   0  0  0  0  0  0  0  0  0  0  0  0
  138.5918   69.7443  226.2909 H   0  0  0  0  0  0  0  0  0  0  0  0
  139.2953   69.2540  224.7375 H   0  0  0  0  0  0  0  0  0  0  0  0
  139.2177   67.5020  226.6958 H   0  0  0  0  0  0  0  0  0  0  0  0
  140.7432   67.6616  225.7657 H   0  0  0  0  0  0  0  0  0  0  0  0
  140.6947   67.7280  228.4482 H   0  0  0  0  0  0  0  0  0  0  0  0
  141.8438   68.7306  227.4768 H   0  0  0  0  0  0  0  0  0  0  0  0
  139.1263   69.6938  228.4824 H   0  0  0  0  0  0  0  0  0  0  0  0
  140.6868   70.0155  229.3027 H   0  0  0  0  0  0  0  0  0  0  0  0
  139.6198   71.6938  227.4236 H   0  0  0  0  0  0  0  0  0  0  0  0
  141.3967   71.4991  227.6740 H   0  0  0  0  0  0  0  0  0  0  0  0
  145.1795   73.9849  221.1349 H   0  0  0  0  0  0  0  0  0  0  0  0
  145.9185   72.3692  221.0341 H   0  0  0  0  0  0  0  0  0  0  0  0
  145.0540   74.1937  218.7354 H   0  0  0  0  0  0  0  0  0  0  0  0
  146.7162   73.6285  219.1319 H   0  0  0  0  0  0  0  0  0  0  0  0
  146.3250   72.0160  217.7600 H   0  0  0  0  0  0  0  0  0  0  0  0
  144.9296   70.2205  218.2105 H   0  0  0  0  0  0  0  0  0  0  0  0
  145.9106   70.7244  219.6512 H   0  0  0  0  0  0  0  0  0  0  0  0
  142.9357   71.1295  219.1386 H   0  0  0  0  0  0  0  0  0  0  0  0
  143.7260   70.3527  220.5332 H   0  0  0  0  0  0  0  0  0  0  0  0
  139.5372   77.2470  222.2002 H   0  0  0  0  0  0  0  0  0  0  0  0
  140.6730   76.4709  223.3381 H   0  0  0  0  0  0  0  0  0  0  0  0
  1  2  2  0
  2  3  1  0
  3  4  2  0
  4  5  1  0
  5  6  2  0
  5  7  1  0
  7  8  1  0
  8  9  1  0
  9 10  1  0
 10 11  2  0
 11 12  1  0
 12 13  1  0
 13 14  1  0
 14 15  1  0
 15 16  1  0
 16 17  1  0
 17 18  1  0
 18 19  1  0
 19 20  1  0
 20 21  1  0
 12 22  2  0
 22 23  1  0
 23 24  1  0
 24 25  1  0
 25 26  1  0
 26 27  1  0
 27 28  1  0
 28 29  1  0
 23 30  2  0
  9 31  1  0
  6  1  1  0
 30 10  1  0
 31  4  1  0
 21 16  1  0
 29 24  1  0
  1 32  1  0
  2 33  1  0
  3 34  1  0
  6 35  1  0
  7 36  1  0
  7 37  1  0
  8 38  1  0
  8 39  1  0
 13 40  1  0
 14 41  1  0
 14 42  1  0
 15 43  1  0
 15 44  1  0
 16 45  1  0
 17 46  1  0
 17 47  1  0
 18 48  1  0
 18 49  1  0
 19 50  1  0
 19 51  1  0
 20 52  1  0
 20 53  1  0
 21 54  1  0
 21 55  1  0
 25 56  1  0
 25 57  1  0
 26 58  1  0
 26 59  1  0
 27 60  1  0
 28 61  1  0
 28 62  1  0
 29 63  1  0
 29 64  1  0
 31 65  1  0
 31 66  1  0
M  END
>  <smiles>  (10) 
c1ccc2c(c1)CCN(c1nc(NCCC3CCCCC3)nc(N3CCNCC3)n1)C2

>  <score_type>  (10) 
oracle

>  <origin>  (10) 
autodockgpu

>  <m_score__min__energy>  (10) 
-10.369999999999999

>  <m_primary>  (10) 
energy

>  <rmsd>  (10) 
5.037836289677222

>  <m_score__min__rmsd>  (10) 
5.037836289677222

>  <meeko>  (10) 
{"free_energy": -10.12, "intermolecular_energy": -11.91, "internal_energy": -0.95, "cluster_size": 42, "cluster_id": 1, "rank_in_cluster": 10}

>  <energy>  (10) 
-10.12

>  <cluster_rmsd>  (10) 
0.77

>  <cluster>  (10) 
1

$$$$

     RDKit          3D

 66 70  0  0  0  0  0  0  0  0999 V2000
  142.4900   80.8300  222.7280 C   0  0  0  0  0  0  0  0  0  0  0  0
  142.1000   80.1300  223.8640 C   0  0  0  0  0  0  0  0  0  0  0  0
  141.4540   78.9170  223.7810 C   0  0  0  0  0  0  0  0  0  0  0  0
  141.2100   78.4220  222.5200 C   0  0  0  0  0  0  0  0  0  0  0  0
  141.5810   79.0860  221.3620 C   0  0  0  0  0  0  0  0  0  0  0  0
  142.2260   80.2970  221.4860 C   0  0  0  0  0  0  0  0  0  0  0  0
  141.2650   78.4580  220.0540 C   0  0  0  0  0  0  0  0  0  0  0  0
  141.7760   77.0340  220.1080 C   0  0  0  0  0  0  0  0  0  0  0  0
  141.2350   76.3780  221.2560 N   0  0  0  0  0  0  0  0  0  0  0  0
  141.3980   74.9540  221.4040 C   0  0  0  0  0  0  0  0  0  0  0  0
  140.4580   74.3000  222.1100 N   0  0  0  0  0  0  0  0  0  0  0  0
  140.6000   72.9720  222.2540 C   0  0  0  0  0  0  0  0  0  0  0  0
  139.6030   72.2470  223.0090 N   0  0  0  0  0  0  0  0  0  0  0  0
  139.2260   70.9710  222.5080 C   0  0  0  0  0  0  0  0  0  0  0  0
  139.6390   69.8380  223.3780 C   0  0  0  0  0  0  0  0  0  0  0  0
  139.8220   70.0840  224.8240 C   0  0  0  0  0  0  0  0  0  0  0  0
  141.2090   70.7150  225.1020 C   0  0  0  0  0  0  0  0  0  0  0  0
  141.0620   71.5310  226.3610 C   0  0  0  0  0  0  0  0  0  0  0  0
  140.1770   70.7830  227.3370 C   0  0  0  0  0  0  0  0  0  0  0  0
  140.2920   69.2800  227.1360 C   0  0  0  0  0  0  0  0  0  0  0  0
  139.7320   68.9170  225.7490 C   0  0  0  0  0  0  0  0  0  0  0  0
  141.6570   72.3490  221.6980 N   0  0  0  0  0  0  0  0  0  0  0  0
  142.5940   73.0010  220.9940 C   0  0  0  0  0  0  0  0  0  0  0  0
  143.7030   72.3420  220.4120 N   0  0  0  0  0  0  0  0  0  0  0  0
  145.0840   72.6370  220.7270 C   0  0  0  0  0  0  0  0  0  0  0  0
  145.7200   73.1900  219.4750 C   0  0  0  0  0  0  0  0  0  0  0  0
  145.4400   72.3380  218.3710 N   0  0  0  0  0  0  0  0  0  0  0  0
  144.8120   71.0920  218.6620 C   0  0  0  0  0  0  0  0  0  0  0  0
  143.4930   71.2790  219.4170 C   0  0  0  0  0  0  0  0  0  0  0  0
  142.4620   74.3300  220.8450 N   0  0  0  0  0  0  0  0  0  0  0  0
  140.5120   77.1050  222.3040 C   0  0  0  0  0  0  0  0  0  0  0  0
  143.0035   81.7984  222.8201 H   0  0  0  0  0  0  0  0  0  0  0  0
  142.3132   80.5565  224.8553 H   0  0  0  0  0  0  0  0  0  0  0  0
  141.1463   78.3675  224.6829 H   0  0  0  0  0  0  0  0  0  0  0  0
  142.5336   80.8443  220.5828 H   0  0  0  0  0  0  0  0  0  0  0  0
  140.1779   78.4625  219.8863 H   0  0  0  0  0  0  0  0  0  0  0  0
  141.7375   79.0122  219.2296 H   0  0  0  0  0  0  0  0  0  0  0  0
  141.4655   76.4981  219.1989 H   0  0  0  0  0  0  0  0  0  0  0  0
  142.8741   77.0403  220.1723 H   0  0  0  0  0  0  0  0  0  0  0  0
  139.2440   72.7400  223.8410 H   0  0  0  0  0  0  0  0  0  0  0  0
  138.1310   70.9484  222.4058 H   0  0  0  0  0  0  0  0  0  0  0  0
  139.7418   70.8399  221.5453 H   0  0  0  0  0  0  0  0  0  0  0  0
  138.8721   69.0559  223.2771 H   0  0  0  0  0  0  0  0  0  0  0  0
  140.6471   69.5806  223.0210 H   0  0  0  0  0  0  0  0  0  0  0  0
  138.9636   70.7372  225.0397 H   0  0  0  0  0  0  0  0  0  0  0  0
  141.9633   69.9273  225.2454 H   0  0  0  0  0  0  0  0  0  0  0  0
  141.5387   71.3396  224.2587 H   0  0  0  0  0  0  0  0  0  0  0  0
  142.0520   71.6938  226.8119 H   0  0  0  0  0  0  0  0  0  0  0  0
  140.6085   72.5040  226.1208 H   0  0  0  0  0  0  0  0  0  0  0  0
  140.4824   71.0329  228.3638 H   0  0  0  0  0  0  0  0  0  0  0  0
  139.1327   71.0809  227.1621 H   0  0  0  0  0  0  0  0  0  0  0  0
  141.3483   68.9792  227.1978 H   0  0  0  0  0  0  0  0  0  0  0  0
  139.7216   68.7554  227.9167 H   0  0  0  0  0  0  0  0  0  0  0  0
  140.3121   68.0803  225.3327 H   0  0  0  0  0  0  0  0  0  0  0  0
  138.6753   68.6311  225.8571 H   0  0  0  0  0  0  0  0  0  0  0  0
  145.1353   73.3809  221.5357 H   0  0  0  0  0  0  0  0  0  0  0  0
  145.6093   71.7312  221.0640 H   0  0  0  0  0  0  0  0  0  0  0  0
  145.3155   74.1928  219.2732 H   0  0  0  0  0  0  0  0  0  0  0  0
  146.8090   73.2494  219.6187 H   0  0  0  0  0  0  0  0  0  0  0  0
  146.3180   72.1270  217.8480 H   0  0  0  0  0  0  0  0  0  0  0  0
  144.6093   70.5668  217.7170 H   0  0  0  0  0  0  0  0  0  0  0  0
  145.4911   70.5096  219.3020 H   0  0  0  0  0  0  0  0  0  0  0  0
  142.6969   71.5715  218.7165 H   0  0  0  0  0  0  0  0  0  0  0  0
  143.1898   70.3422  219.9074 H   0  0  0  0  0  0  0  0  0  0  0  0
  139.4729   77.2801  221.9884 H   0  0  0  0  0  0  0  0  0  0  0  0
  140.4990   76.5210  223.2361 H   0  0  0  0  0  0  0  0  0  0  0  0
  1  2  2  0
  2  3  1  0
  3  4  2  0
  4  5  1  0
  5  6  2  0
  5  7  1  0
  7  8  1  0
  8  9  1  0
  9 10  1  0
 10 11  2  0
 11 12  1  0
 12 13  1  0
 13 14  1  0
 14 15  1  0
 15 16  1  0
 16 17  1  0
 17 18  1  0
 18 19  1  0
 19 20  1  0
 20 21  1  0
 12 22  2  0
 22 23  1  0
 23 24  1  0
 24 25  1  0
 25 26  1  0
 26 27  1  0
 27 28  1  0
 28 29  1  0
 23 30  2  0
  9 31  1  0
  6  1  1  0
 30 10  1  0
 31  4  1  0
 21 16  1  0
 29 24  1  0
  1 32  1  0
  2 33  1  0
  3 34  1  0
  6 35  1  0
  7 36  1  0
  7 37  1  0
  8 38  1  0
  8 39  1  0
 13 40  1  0
 14 41  1  0
 14 42  1  0
 15 43  1  0
 15 44  1  0
 16 45  1  0
 17 46  1  0
 17 47  1  0
 18 48  1  0
 18 49  1  0
 19 50  1  0
 19 51  1  0
 20 52  1  0
 20 53  1  0
 21 54  1  0
 21 55  1  0
 25 56  1  0
 25 57  1  0
 26 58  1  0
 26 59  1  0
 27 60  1  0
 28 61  1  0
 28 62  1  0
 29 63  1  0
 29 64  1  0
 31 65  1  0
 31 66  1  0
M  END
>  <smiles>  (11) 
c1ccc2c(c1)CCN(c1nc(NCCC3CCCCC3)nc(N3CCNCC3)n1)C2

>  <score_type>  (11) 
oracle

>  <origin>  (11) 
autodockgpu

>  <m_score__min__energy>  (11) 
-10.369999999999999

>  <m_primary>  (11) 
energy

>  <rmsd>  (11) 
4.981299563144641

>  <m_score__min__rmsd>  (11) 
4.981299563144641

>  <meeko>  (11) 
{"free_energy": -9.48, "intermolecular_energy": -11.27, "internal_energy": -1.14, "cluster_size": 42, "cluster_id": 1, "rank_in_cluster": 30}

>  <energy>  (11) 
-10.09

>  <cluster_rmsd>  (11) 
0.43

>  <cluster>  (11) 
1

$$$$

     RDKit          3D

 66 70  0  0  0  0  0  0  0  0999 V2000
  142.3150   80.5980  222.7410 C   0  0  0  0  0  0  0  0  0  0  0  0
  142.1890   79.8020  223.8730 C   0  0  0  0  0  0  0  0  0  0  0  0
  141.6400   78.5410  223.8150 C   0  0  0  0  0  0  0  0  0  0  0  0
  141.2190   78.0970  222.5820 C   0  0  0  0  0  0  0  0  0  0  0  0
  141.3240   78.8570  221.4280 C   0  0  0  0  0  0  0  0  0  0  0  0
  141.8800   80.1140  221.5270 C   0  0  0  0  0  0  0  0  0  0  0  0
  140.8360   78.2770  220.1510 C   0  0  0  0  0  0  0  0  0  0  0  0
  141.4630   76.9060  220.0150 C   0  0  0  0  0  0  0  0  0  0  0  0
  141.1870   76.1390  221.1880 N   0  0  0  0  0  0  0  0  0  0  0  0
  141.4890   74.7310  221.2030 C   0  0  0  0  0  0  0  0  0  0  0  0
  140.5680   73.9110  221.7430 N   0  0  0  0  0  0  0  0  0  0  0  0
  140.8390   72.5960  221.7620 C   0  0  0  0  0  0  0  0  0  0  0  0
  139.8640   71.6960  222.3380 N   0  0  0  0  0  0  0  0  0  0  0  0
  139.5840   71.8600  223.7210 C   0  0  0  0  0  0  0  0  0  0  0  0
  140.7120   71.4780  224.6110 C   0  0  0  0  0  0  0  0  0  0  0  0
  140.4070   70.8620  225.9200 C   0  0  0  0  0  0  0  0  0  0  0  0
  141.0920   71.6450  227.0670 C   0  0  0  0  0  0  0  0  0  0  0  0
  140.2410   71.4350  228.2940 C   0  0  0  0  0  0  0  0  0  0  0  0
  139.7520   70.0020  228.3200 C   0  0  0  0  0  0  0  0  0  0  0  0
  140.7400   69.0770  227.6270 C   0  0  0  0  0  0  0  0  0  0  0  0
  140.7990   69.4390  226.1320 C   0  0  0  0  0  0  0  0  0  0  0  0
  142.0010   72.1460  221.2520 N   0  0  0  0  0  0  0  0  0  0  0  0
  142.9200   72.9630  220.7140 C   0  0  0  0  0  0  0  0  0  0  0  0
  144.1400   72.4840  220.1780 N   0  0  0  0  0  0  0  0  0  0  0  0
  145.3210   73.2980  219.9890 C   0  0  0  0  0  0  0  0  0  0  0  0
  145.5770   73.3780  218.5030 C   0  0  0  0  0  0  0  0  0  0  0  0
  145.5490   72.0740  217.9350 N   0  0  0  0  0  0  0  0  0  0  0  0
  145.4820   70.9770  218.8440 C   0  0  0  0  0  0  0  0  0  0  0  0
  144.2680   71.0760  219.7720 C   0  0  0  0  0  0  0  0  0  0  0  0
  142.6590   74.2800  220.6900 N   0  0  0  0  0  0  0  0  0  0  0  0
  140.6030   76.7350  222.3940 C   0  0  0  0  0  0  0  0  0  0  0  0
  142.7569   81.6027  222.8135 H   0  0  0  0  0  0  0  0  0  0  0  0
  142.5373   80.1900  224.8416 H   0  0  0  0  0  0  0  0  0  0  0  0
  141.5420   77.9156  224.7146 H   0  0  0  0  0  0  0  0  0  0  0  0
  141.9775   80.7379  220.6263 H   0  0  0  0  0  0  0  0  0  0  0  0
  139.7396   78.1900  220.1710 H   0  0  0  0  0  0  0  0  0  0  0  0
  141.1100   78.9183  219.3003 H   0  0  0  0  0  0  0  0  0  0  0  0
  141.0426   76.3959  219.1358 H   0  0  0  0  0  0  0  0  0  0  0  0
  142.5511   77.0104  219.8922 H   0  0  0  0  0  0  0  0  0  0  0  0
  139.4740   71.0020  221.6820 H   0  0  0  0  0  0  0  0  0  0  0  0
  139.3416   72.9175  223.9027 H   0  0  0  0  0  0  0  0  0  0  0  0
  138.7459   71.1888  223.9600 H   0  0  0  0  0  0  0  0  0  0  0  0
  141.3357   70.7631  224.0543 H   0  0  0  0  0  0  0  0  0  0  0  0
  141.1835   72.4372  224.8709 H   0  0  0  0  0  0  0  0  0  0  0  0
  139.3077   70.9006  225.9230 H   0  0  0  0  0  0  0  0  0  0  0  0
  142.1076   71.2585  227.2378 H   0  0  0  0  0  0  0  0  0  0  0  0
  141.1815   72.7137  226.8221 H   0  0  0  0  0  0  0  0  0  0  0  0
  140.8385   71.6365  229.1953 H   0  0  0  0  0  0  0  0  0  0  0  0
  139.3802   72.1194  228.2689 H   0  0  0  0  0  0  0  0  0  0  0  0
  139.6317   69.6818  229.3655 H   0  0  0  0  0  0  0  0  0  0  0  0
  138.7905   69.9499  227.7882 H   0  0  0  0  0  0  0  0  0  0  0  0
  141.7369   69.1987  228.0759 H   0  0  0  0  0  0  0  0  0  0  0  0
  140.4172   68.0320  227.7446 H   0  0  0  0  0  0  0  0  0  0  0  0
  141.8245   69.2880  225.7638 H   0  0  0  0  0  0  0  0  0  0  0  0
  140.0982   68.7929  225.5831 H   0  0  0  0  0  0  0  0  0  0  0  0
  145.1531   74.3056  220.3970 H   0  0  0  0  0  0  0  0  0  0  0  0
  146.1845   72.8590  220.5102 H   0  0  0  0  0  0  0  0  0  0  0  0
  144.7996   73.9976  218.0320 H   0  0  0  0  0  0  0  0  0  0  0  0
  146.5663   73.8267  218.3300 H   0  0  0  0  0  0  0  0  0  0  0  0
  146.3890   71.9260  217.3340 H   0  0  0  0  0  0  0  0  0  0  0  0
  145.4140   70.0421  218.2683 H   0  0  0  0  0  0  0  0  0  0  0  0
  146.3887   70.9951  219.4666 H   0  0  0  0  0  0  0  0  0  0  0  0
  143.3606   70.7538  219.2402 H   0  0  0  0  0  0  0  0  0  0  0  0
  144.3968   70.4278  220.6514 H   0  0  0  0  0  0  0  0  0  0  0  0
  139.5138   76.8307  222.2738 H   0  0  0  0  0  0  0  0  0  0  0  0
  140.8018   76.1002  223.2701 H   0  0  0  0  0  0  0  0  0  0  0  0
  1  2  2  0
  2  3  1  0
  3  4  2  0
  4  5  1  0
  5  6  2  0
  5  7  1  0
  7  8  1  0
  8  9  1  0
  9 10  1  0
 10 11  2  0
 11 12  1  0
 12 13  1  0
 13 14  1  0
 14 15  1  0
 15 16  1  0
 16 17  1  0
 17 18  1  0
 18 19  1  0
 19 20  1  0
 20 21  1  0
 12 22  2  0
 22 23  1  0
 23 24  1  0
 24 25  1  0
 25 26  1  0
 26 27  1  0
 27 28  1  0
 28 29  1  0
 23 30  2  0
  9 31  1  0
  6  1  1  0
 30 10  1  0
 31  4  1  0
 21 16  1  0
 29 24  1  0
  1 32  1  0
  2 33  1  0
  3 34  1  0
  6 35  1  0
  7 36  1  0
  7 37  1  0
  8 38  1  0
  8 39  1  0
 13 40  1  0
 14 41  1  0
 14 42  1  0
 15 43  1  0
 15 44  1  0
 16 45  1  0
 17 46  1  0
 17 47  1  0
 18 48  1  0
 18 49  1  0
 19 50  1  0
 19 51  1  0
 20 52  1  0
 20 53  1  0
 21 54  1  0
 21 55  1  0
 25 56  1  0
 25 57  1  0
 26 58  1  0
 26 59  1  0
 27 60  1  0
 28 61  1  0
 28 62  1  0
 29 63  1  0
 29 64  1  0
 31 65  1  0
 31 66  1  0
M  END
>  <smiles>  (12) 
c1ccc2c(c1)CCN(c1nc(NCCC3CCCCC3)nc(N3CCNCC3)n1)C2

>  <score_type>  (12) 
oracle

>  <origin>  (12) 
autodockgpu

>  <m_score__min__energy>  (12) 
-10.369999999999999

>  <m_primary>  (12) 
energy

>  <rmsd>  (12) 
4.97285459718193

>  <m_score__min__rmsd>  (12) 
4.97285459718193

>  <meeko>  (12) 
{"free_energy": -9.59, "intermolecular_energy": -11.38, "internal_energy": -0.96, "cluster_size": 42, "cluster_id": 1, "rank_in_cluster": 28}

>  <energy>  (12) 
-10.06

>  <cluster_rmsd>  (12) 
0.55

>  <cluster>  (12) 
1

$$$$

     RDKit          3D

 66 70  0  0  0  0  0  0  0  0999 V2000
  142.4880   80.8630  222.8210 C   0  0  0  0  0  0  0  0  0  0  0  0
  142.1580   80.1380  223.9590 C   0  0  0  0  0  0  0  0  0  0  0  0
  141.5260   78.9170  223.8830 C   0  0  0  0  0  0  0  0  0  0  0  0
  141.2330   78.4410  222.6250 C   0  0  0  0  0  0  0  0  0  0  0  0
  141.5430   79.1310  221.4640 C   0  0  0  0  0  0  0  0  0  0  0  0
  142.1750   80.3490  221.5820 C   0  0  0  0  0  0  0  0  0  0  0  0
  141.1780   78.5210  220.1600 C   0  0  0  0  0  0  0  0  0  0  0  0
  141.7100   77.1040  220.1650 C   0  0  0  0  0  0  0  0  0  0  0  0
  141.2300   76.4200  221.3240 N   0  0  0  0  0  0  0  0  0  0  0  0
  141.4190   74.9970  221.4380 C   0  0  0  0  0  0  0  0  0  0  0  0
  140.5250   74.3170  222.1790 N   0  0  0  0  0  0  0  0  0  0  0  0
  140.6910   72.9890  222.2920 C   0  0  0  0  0  0  0  0  0  0  0  0
  139.7440   72.2370  223.0840 N   0  0  0  0  0  0  0  0  0  0  0  0
  139.3010   70.9990  222.5430 C   0  0  0  0  0  0  0  0  0  0  0  0
  139.5060   69.8400  223.4510 C   0  0  0  0  0  0  0  0  0  0  0  0
  139.7660   70.0970  224.8830 C   0  0  0  0  0  0  0  0  0  0  0  0
  141.2020   70.6380  225.0920 C   0  0  0  0  0  0  0  0  0  0  0  0
  141.1630   71.4830  226.3400 C   0  0  0  0  0  0  0  0  0  0  0  0
  140.2720   70.8130  227.3650 C   0  0  0  0  0  0  0  0  0  0  0  0
  140.2790   69.3030  227.1890 C   0  0  0  0  0  0  0  0  0  0  0  0
  139.6380   68.9550  225.8340 C   0  0  0  0  0  0  0  0  0  0  0  0
  141.7270   72.3900  221.6730 N   0  0  0  0  0  0  0  0  0  0  0  0
  142.6190   73.0680  220.9340 C   0  0  0  0  0  0  0  0  0  0  0  0
  143.7050   72.4340  220.2840 N   0  0  0  0  0  0  0  0  0  0  0  0
  145.0890   72.5820  220.6800 C   0  0  0  0  0  0  0  0  0  0  0  0
  145.8050   73.2800  219.5490 C   0  0  0  0  0  0  0  0  0  0  0  0
  145.5140   72.6320  218.3170 N   0  0  0  0  0  0  0  0  0  0  0  0
  144.7990   71.4010  218.3900 C   0  0  0  0  0  0  0  0  0  0  0  0
  143.4670   71.5560  219.1290 C   0  0  0  0  0  0  0  0  0  0  0  0
  142.4610   74.3960  220.8150 N   0  0  0  0  0  0  0  0  0  0  0  0
  140.5440   77.1170  222.4160 C   0  0  0  0  0  0  0  0  0  0  0  0
  142.9933   81.8361  222.9083 H   0  0  0  0  0  0  0  0  0  0  0  0
  142.4083   80.5504  224.9476 H   0  0  0  0  0  0  0  0  0  0  0  0
  141.2667   78.3472  224.7875 H   0  0  0  0  0  0  0  0  0  0  0  0
  142.4328   80.9178  220.6764 H   0  0  0  0  0  0  0  0  0  0  0  0
  140.0845   78.5127  220.0406 H   0  0  0  0  0  0  0  0  0  0  0  0
  141.6063   79.0963  219.3260 H   0  0  0  0  0  0  0  0  0  0  0  0
  141.3662   76.5799  219.2611 H   0  0  0  0  0  0  0  0  0  0  0  0
  142.8097   77.1249  220.1803 H   0  0  0  0  0  0  0  0  0  0  0  0
  139.4640   72.6860  223.9690 H   0  0  0  0  0  0  0  0  0  0  0  0
  138.2264   71.0814  222.3229 H   0  0  0  0  0  0  0  0  0  0  0  0
  139.9020   70.8099  221.6413 H   0  0  0  0  0  0  0  0  0  0  0  0
  138.5999   69.2191  223.3929 H   0  0  0  0  0  0  0  0  0  0  0  0
  140.4369   69.3790  223.0893 H   0  0  0  0  0  0  0  0  0  0  0  0
  138.9624   70.8097  225.1202 H   0  0  0  0  0  0  0  0  0  0  0  0
  141.9076   69.8039  225.2196 H   0  0  0  0  0  0  0  0  0  0  0  0
  141.5364   71.2252  224.2240 H   0  0  0  0  0  0  0  0  0  0  0  0
  142.1797   71.5859  226.7470 H   0  0  0  0  0  0  0  0  0  0  0  0
  140.7661   72.4804  226.0997 H   0  0  0  0  0  0  0  0  0  0  0  0
  140.6356   71.0593  228.3735 H   0  0  0  0  0  0  0  0  0  0  0  0
  139.2433   71.1772  227.2266 H   0  0  0  0  0  0  0  0  0  0  0  0
  141.3148   68.9335  227.2130 H   0  0  0  0  0  0  0  0  0  0  0  0
  139.7090   68.8308  228.0027 H   0  0  0  0  0  0  0  0  0  0  0  0
  140.1430   68.0741  225.4109 H   0  0  0  0  0  0  0  0  0  0  0  0
  138.5702   68.7429  225.9913 H   0  0  0  0  0  0  0  0  0  0  0  0
  145.1560   73.1850  221.5975 H   0  0  0  0  0  0  0  0  0  0  0  0
  145.5438   71.6013  220.8837 H   0  0  0  0  0  0  0  0  0  0  0  0
  145.4717   74.3270  219.4977 H   0  0  0  0  0  0  0  0  0  0  0  0
  146.8894   73.2426  219.7298 H   0  0  0  0  0  0  0  0  0  0  0  0
  146.3960   72.4460  217.7910 H   0  0  0  0  0  0  0  0  0  0  0  0
  144.5994   71.0448  217.3686 H   0  0  0  0  0  0  0  0  0  0  0  0
  145.4161   70.6815  218.9480 H   0  0  0  0  0  0  0  0  0  0  0  0
  142.7172   72.0068  218.4622 H   0  0  0  0  0  0  0  0  0  0  0  0
  143.0883   70.5767  219.4569 H   0  0  0  0  0  0  0  0  0  0  0  0
  139.4895   77.2822  222.1499 H   0  0  0  0  0  0  0  0  0  0  0  0
  140.5804   76.5164  223.3368 H   0  0  0  0  0  0  0  0  0  0  0  0
  1  2  2  0
  2  3  1  0
  3  4  2  0
  4  5  1  0
  5  6  2  0
  5  7  1  0
  7  8  1  0
  8  9  1  0
  9 10  1  0
 10 11  2  0
 11 12  1  0
 12 13  1  0
 13 14  1  0
 14 15  1  0
 15 16  1  0
 16 17  1  0
 17 18  1  0
 18 19  1  0
 19 20  1  0
 20 21  1  0
 12 22  2  0
 22 23  1  0
 23 24  1  0
 24 25  1  0
 25 26  1  0
 26 27  1  0
 27 28  1  0
 28 29  1  0
 23 30  2  0
  9 31  1  0
  6  1  1  0
 30 10  1  0
 31  4  1  0
 21 16  1  0
 29 24  1  0
  1 32  1  0
  2 33  1  0
  3 34  1  0
  6 35  1  0
  7 36  1  0
  7 37  1  0
  8 38  1  0
  8 39  1  0
 13 40  1  0
 14 41  1  0
 14 42  1  0
 15 43  1  0
 15 44  1  0
 16 45  1  0
 17 46  1  0
 17 47  1  0
 18 48  1  0
 18 49  1  0
 19 50  1  0
 19 51  1  0
 20 52  1  0
 20 53  1  0
 21 54  1  0
 21 55  1  0
 25 56  1  0
 25 57  1  0
 26 58  1  0
 26 59  1  0
 27 60  1  0
 28 61  1  0
 28 62  1  0
 29 63  1  0
 29 64  1  0
 31 65  1  0
 31 66  1  0
M  END
>  <smiles>  (13) 
c1ccc2c(c1)CCN(c1nc(NCCC3CCCCC3)nc(N3CCNCC3)n1)C2

>  <score_type>  (13) 
oracle

>  <origin>  (13) 
autodockgpu

>  <m_score__min__energy>  (13) 
-10.369999999999999

>  <m_primary>  (13) 
energy

>  <rmsd>  (13) 
5.037690203229832

>  <m_score__min__rmsd>  (13) 
5.037690203229832

>  <meeko>  (13) 
{"free_energy": -9.41, "intermolecular_energy": -11.2, "internal_energy": -1.08, "cluster_size": 42, "cluster_id": 1, "rank_in_cluster": 34}

>  <energy>  (13) 
-10.05

>  <cluster_rmsd>  (13) 
0.56

>  <cluster>  (13) 
1

$$$$

     RDKit          3D

 66 70  0  0  0  0  0  0  0  0999 V2000
  142.4650   80.5940  222.7370 C   0  0  0  0  0  0  0  0  0  0  0  0
  142.0420   79.8870  223.8560 C   0  0  0  0  0  0  0  0  0  0  0  0
  141.3750   78.6870  223.7460 C   0  0  0  0  0  0  0  0  0  0  0  0
  141.1440   78.2140  222.4740 C   0  0  0  0  0  0  0  0  0  0  0  0
  141.5470   78.8860  221.3320 C   0  0  0  0  0  0  0  0  0  0  0  0
  142.2120   80.0830  221.4840 C   0  0  0  0  0  0  0  0  0  0  0  0
  141.2420   78.2810  220.0100 C   0  0  0  0  0  0  0  0  0  0  0  0
  141.7250   76.8480  220.0530 C   0  0  0  0  0  0  0  0  0  0  0  0
  141.1520   76.1870  221.1830 N   0  0  0  0  0  0  0  0  0  0  0  0
  141.2860   74.7590  221.3130 C   0  0  0  0  0  0  0  0  0  0  0  0
  140.5180   74.1530  222.2380 N   0  0  0  0  0  0  0  0  0  0  0  0
  140.6340   72.8220  222.3690 C   0  0  0  0  0  0  0  0  0  0  0  0
  139.8200   72.1480  223.3560 N   0  0  0  0  0  0  0  0  0  0  0  0
  139.4560   70.8040  223.0730 C   0  0  0  0  0  0  0  0  0  0  0  0
  139.8490   69.8400  224.1340 C   0  0  0  0  0  0  0  0  0  0  0  0
  139.9960   70.3300  225.5210 C   0  0  0  0  0  0  0  0  0  0  0  0
  141.4240   70.8800  225.7590 C   0  0  0  0  0  0  0  0  0  0  0  0
  141.3050   71.9230  226.8410 C   0  0  0  0  0  0  0  0  0  0  0  0
  140.3140   71.4460  227.8830 C   0  0  0  0  0  0  0  0  0  0  0  0
  140.2940   69.9280  227.9620 C   0  0  0  0  0  0  0  0  0  0  0  0
  139.7590   69.3660  226.6330 C   0  0  0  0  0  0  0  0  0  0  0  0
  141.4980   72.1460  221.5860 N   0  0  0  0  0  0  0  0  0  0  0  0
  142.2640   72.7500  220.6640 C   0  0  0  0  0  0  0  0  0  0  0  0
  143.1690   72.0360  219.8430 N   0  0  0  0  0  0  0  0  0  0  0  0
  142.7770   71.0250  218.8850 C   0  0  0  0  0  0  0  0  0  0  0  0
  143.3520   69.7120  219.3590 C   0  0  0  0  0  0  0  0  0  0  0  0
  144.7330   69.8670  219.6590 N   0  0  0  0  0  0  0  0  0  0  0  0
  145.3360   71.1080  219.2960 C   0  0  0  0  0  0  0  0  0  0  0  0
  144.6130   72.3010  219.9300 C   0  0  0  0  0  0  0  0  0  0  0  0
  142.1550   74.0810  220.5260 N   0  0  0  0  0  0  0  0  0  0  0  0
  140.4250   76.9130  222.2280 C   0  0  0  0  0  0  0  0  0  0  0  0
  142.9957   81.5507  222.8511 H   0  0  0  0  0  0  0  0  0  0  0  0
  142.2453   80.2967  224.8564 H   0  0  0  0  0  0  0  0  0  0  0  0
  141.0417   78.1313  224.6349 H   0  0  0  0  0  0  0  0  0  0  0  0
  142.5447   80.6369  220.5937 H   0  0  0  0  0  0  0  0  0  0  0  0
  140.1582   78.3082  219.8239 H   0  0  0  0  0  0  0  0  0  0  0  0
  141.7392   78.8370  219.2015 H   0  0  0  0  0  0  0  0  0  0  0  0
  141.4201   76.3303  219.1316 H   0  0  0  0  0  0  0  0  0  0  0  0
  142.8218   76.8326  220.1358 H   0  0  0  0  0  0  0  0  0  0  0  0
  139.5650   72.7230  224.1730 H   0  0  0  0  0  0  0  0  0  0  0  0
  138.3637   70.7589  222.9507 H   0  0  0  0  0  0  0  0  0  0  0  0
  139.9943   70.5119  222.1593 H   0  0  0  0  0  0  0  0  0  0  0  0
  139.0861   69.0477  224.1499 H   0  0  0  0  0  0  0  0  0  0  0  0
  140.8664   69.5322  223.8509 H   0  0  0  0  0  0  0  0  0  0  0  0
  139.1947   71.0822  225.5675 H   0  0  0  0  0  0  0  0  0  0  0  0
  142.0941   70.0703  226.0835 H   0  0  0  0  0  0  0  0  0  0  0  0
  141.8444   71.3086  224.8373 H   0  0  0  0  0  0  0  0  0  0  0  0
  142.2870   72.0796  227.3112 H   0  0  0  0  0  0  0  0  0  0  0  0
  140.9567   72.8709  226.4051 H   0  0  0  0  0  0  0  0  0  0  0  0
  140.5996   71.8534  228.8640 H   0  0  0  0  0  0  0  0  0  0  0  0
  139.3106   71.7951  227.5977 H   0  0  0  0  0  0  0  0  0  0  0  0
  141.3135   69.5540  228.1372 H   0  0  0  0  0  0  0  0  0  0  0  0
  139.6453   69.6067  228.7902 H   0  0  0  0  0  0  0  0  0  0  0  0
  140.2738   68.4204  226.4073 H   0  0  0  0  0  0  0  0  0  0  0  0
  138.6765   69.1968  226.7303 H   0  0  0  0  0  0  0  0  0  0  0  0
  141.6801   70.9594  218.8342 H   0  0  0  0  0  0  0  0  0  0  0  0
  143.1500   71.2741  217.8806 H   0  0  0  0  0  0  0  0  0  0  0  0
  142.8172   69.3850  220.2629 H   0  0  0  0  0  0  0  0  0  0  0  0
  143.2368   68.9593  218.5651 H   0  0  0  0  0  0  0  0  0  0  0  0
  145.2880   69.1100  219.2020 H   0  0  0  0  0  0  0  0  0  0  0  0
  146.3831   71.1067  219.6329 H   0  0  0  0  0  0  0  0  0  0  0  0
  145.2715   71.2117  218.2028 H   0  0  0  0  0  0  0  0  0  0  0  0
  144.9133   72.4065  220.9829 H   0  0  0  0  0  0  0  0  0  0  0  0
  144.8693   73.2338  219.4064 H   0  0  0  0  0  0  0  0  0  0  0  0
  139.3950   77.1120  221.8972 H   0  0  0  0  0  0  0  0  0  0  0  0
  140.3850   76.3168  223.1516 H   0  0  0  0  0  0  0  0  0  0  0  0
  1  2  2  0
  2  3  1  0
  3  4  2  0
  4  5  1  0
  5  6  2  0
  5  7  1  0
  7  8  1  0
  8  9  1  0
  9 10  1  0
 10 11  2  0
 11 12  1  0
 12 13  1  0
 13 14  1  0
 14 15  1  0
 15 16  1  0
 16 17  1  0
 17 18  1  0
 18 19  1  0
 19 20  1  0
 20 21  1  0
 12 22  2  0
 22 23  1  0
 23 24  1  0
 24 25  1  0
 25 26  1  0
 26 27  1  0
 27 28  1  0
 28 29  1  0
 23 30  2  0
  9 31  1  0
  6  1  1  0
 30 10  1  0
 31  4  1  0
 21 16  1  0
 29 24  1  0
  1 32  1  0
  2 33  1  0
  3 34  1  0
  6 35  1  0
  7 36  1  0
  7 37  1  0
  8 38  1  0
  8 39  1  0
 13 40  1  0
 14 41  1  0
 14 42  1  0
 15 43  1  0
 15 44  1  0
 16 45  1  0
 17 46  1  0
 17 47  1  0
 18 48  1  0
 18 49  1  0
 19 50  1  0
 19 51  1  0
 20 52  1  0
 20 53  1  0
 21 54  1  0
 21 55  1  0
 25 56  1  0
 25 57  1  0
 26 58  1  0
 26 59  1  0
 27 60  1  0
 28 61  1  0
 28 62  1  0
 29 63  1  0
 29 64  1  0
 31 65  1  0
 31 66  1  0
M  END
>  <smiles>  (14) 
c1ccc2c(c1)CCN(c1nc(NCCC3CCCCC3)nc(N3CCNCC3)n1)C2

>  <score_type>  (14) 
oracle

>  <origin>  (14) 
autodockgpu

>  <m_score__min__energy>  (14) 
-10.369999999999999

>  <m_primary>  (14) 
energy

>  <rmsd>  (14) 
4.95047570430309

>  <m_score__min__rmsd>  (14) 
4.95047570430309

>  <meeko>  (14) 
{"free_energy": -9.32, "intermolecular_energy": -11.11, "internal_energy": -1.09, "cluster_size": 42, "cluster_id": 1, "rank_in_cluster": 37}

>  <energy>  (14) 
-10.04

>  <cluster_rmsd>  (14) 
0.47

>  <cluster>  (14) 
1

$$$$

     RDKit          3D

 66 70  0  0  0  0  0  0  0  0999 V2000
  142.6770   80.8710  222.9060 C   0  0  0  0  0  0  0  0  0  0  0  0
  142.4600   80.0620  224.0140 C   0  0  0  0  0  0  0  0  0  0  0  0
  141.7900   78.8630  223.9150 C   0  0  0  0  0  0  0  0  0  0  0  0
  141.3420   78.4980  222.6660 C   0  0  0  0  0  0  0  0  0  0  0  0
  141.5360   79.2740  221.5350 C   0  0  0  0  0  0  0  0  0  0  0  0
  142.2120   80.4670  221.6750 C   0  0  0  0  0  0  0  0  0  0  0  0
  141.0080   78.7800  220.2380 C   0  0  0  0  0  0  0  0  0  0  0  0
  141.4980   77.3590  220.0680 C   0  0  0  0  0  0  0  0  0  0  0  0
  141.1340   76.5910  221.2170 N   0  0  0  0  0  0  0  0  0  0  0  0
  141.2950   75.1590  221.1950 C   0  0  0  0  0  0  0  0  0  0  0  0
  140.5830   74.4480  222.0890 N   0  0  0  0  0  0  0  0  0  0  0  0
  140.7250   73.1130  222.0780 C   0  0  0  0  0  0  0  0  0  0  0  0
  139.9710   72.3280  223.0300 N   0  0  0  0  0  0  0  0  0  0  0  0
  139.8240   70.9440  222.7390 C   0  0  0  0  0  0  0  0  0  0  0  0
  139.3310   70.1390  223.8890 C   0  0  0  0  0  0  0  0  0  0  0  0
  139.7100   70.5500  225.2570 C   0  0  0  0  0  0  0  0  0  0  0  0
  141.2280   70.8430  225.3410 C   0  0  0  0  0  0  0  0  0  0  0  0
  141.4070   71.8530  226.4470 C   0  0  0  0  0  0  0  0  0  0  0  0
  140.4690   71.5130  227.5860 C   0  0  0  0  0  0  0  0  0  0  0  0
  140.1990   70.0180  227.6430 C   0  0  0  0  0  0  0  0  0  0  0  0
  139.4340   69.6010  226.3740 C   0  0  0  0  0  0  0  0  0  0  0  0
  141.5590   72.5370  221.1900 N   0  0  0  0  0  0  0  0  0  0  0  0
  142.2690   73.2460  220.2980 C   0  0  0  0  0  0  0  0  0  0  0  0
  143.1430   72.6370  219.3670 N   0  0  0  0  0  0  0  0  0  0  0  0
  143.2650   71.2070  219.1800 C   0  0  0  0  0  0  0  0  0  0  0  0
  144.6630   70.8190  219.5980 C   0  0  0  0  0  0  0  0  0  0  0  0
  145.6120   71.6730  218.9690 N   0  0  0  0  0  0  0  0  0  0  0  0
  145.1160   72.5610  217.9690 C   0  0  0  0  0  0  0  0  0  0  0  0
  144.0040   73.4640  218.5080 C   0  0  0  0  0  0  0  0  0  0  0  0
  142.1340   74.5820  220.3030 N   0  0  0  0  0  0  0  0  0  0  0  0
  140.5970   77.2090  222.4340 C   0  0  0  0  0  0  0  0  0  0  0  0
  143.2149   81.8247  223.0112 H   0  0  0  0  0  0  0  0  0  0  0  0
  142.8331   80.3876  224.9962 H   0  0  0  0  0  0  0  0  0  0  0  0
  141.6204   78.2253  224.7951 H   0  0  0  0  0  0  0  0  0  0  0  0
  142.3817   81.1030  220.7937 H   0  0  0  0  0  0  0  0  0  0  0  0
  139.9082   78.8010  220.2462 H   0  0  0  0  0  0  0  0  0  0  0  0
  141.3537   79.4143  219.4085 H   0  0  0  0  0  0  0  0  0  0  0  0
  141.0393   76.9174  219.1710 H   0  0  0  0  0  0  0  0  0  0  0  0
  142.5924   77.3584  219.9571 H   0  0  0  0  0  0  0  0  0  0  0  0
  139.5930   72.8590  223.8280 H   0  0  0  0  0  0  0  0  0  0  0  0
  139.1096   70.8378  221.9093 H   0  0  0  0  0  0  0  0  0  0  0  0
  140.8235   70.5616  222.4846 H   0  0  0  0  0  0  0  0  0  0  0  0
  138.2320   70.1458  223.8416 H   0  0  0  0  0  0  0  0  0  0  0  0
  139.8181   69.1613  223.7591 H   0  0  0  0  0  0  0  0  0  0  0  0
  139.0598   71.4249  225.4048 H   0  0  0  0  0  0  0  0  0  0  0  0
  141.7809   69.9212  225.5746 H   0  0  0  0  0  0  0  0  0  0  0  0
  141.6133   71.2267  224.3848 H   0  0  0  0  0  0  0  0  0  0  0  0
  142.4466   71.8260  226.8056 H   0  0  0  0  0  0  0  0  0  0  0  0
  141.1800   72.8606  226.0686 H   0  0  0  0  0  0  0  0  0  0  0  0
  140.9249   71.8325  228.5347 H   0  0  0  0  0  0  0  0  0  0  0  0
  139.5148   72.0350  227.4213 H   0  0  0  0  0  0  0  0  0  0  0  0
  141.1526   69.4722  227.6954 H   0  0  0  0  0  0  0  0  0  0  0  0
  139.5996   69.7811  228.5344 H   0  0  0  0  0  0  0  0  0  0  0  0
  139.7515   68.5907  226.0764 H   0  0  0  0  0  0  0  0  0  0  0  0
  138.3556   69.6135  226.5907 H   0  0  0  0  0  0  0  0  0  0  0  0
  142.5260   70.6812  219.8025 H   0  0  0  0  0  0  0  0  0  0  0  0
  143.0816   70.9337  218.1304 H   0  0  0  0  0  0  0  0  0  0  0  0
  144.7561   70.9123  220.6901 H   0  0  0  0  0  0  0  0  0  0  0  0
  144.8556   69.7791  219.2955 H   0  0  0  0  0  0  0  0  0  0  0  0
  146.3700   71.1050  218.5300 H   0  0  0  0  0  0  0  0  0  0  0  0
  145.9435   73.1911  217.6109 H   0  0  0  0  0  0  0  0  0  0  0  0
  144.6969   71.9547  217.1524 H   0  0  0  0  0  0  0  0  0  0  0  0
  144.4390   74.2875  219.0933 H   0  0  0  0  0  0  0  0  0  0  0  0
  143.4236   73.9005  217.6818 H   0  0  0  0  0  0  0  0  0  0  0  0
  139.5241   77.4151  222.3064 H   0  0  0  0  0  0  0  0  0  0  0  0
  140.7217   76.5342  223.2937 H   0  0  0  0  0  0  0  0  0  0  0  0
  1  2  2  0
  2  3  1  0
  3  4  2  0
  4  5  1  0
  5  6  2  0
  5  7  1  0
  7  8  1  0
  8  9  1  0
  9 10  1  0
 10 11  2  0
 11 12  1  0
 12 13  1  0
 13 14  1  0
 14 15  1  0
 15 16  1  0
 16 17  1  0
 17 18  1  0
 18 19  1  0
 19 20  1  0
 20 21  1  0
 12 22  2  0
 22 23  1  0
 23 24  1  0
 24 25  1  0
 25 26  1  0
 26 27  1  0
 27 28  1  0
 28 29  1  0
 23 30  2  0
  9 31  1  0
  6  1  1  0
 30 10  1  0
 31  4  1  0
 21 16  1  0
 29 24  1  0
  1 32  1  0
  2 33  1  0
  3 34  1  0
  6 35  1  0
  7 36  1  0
  7 37  1  0
  8 38  1  0
  8 39  1  0
 13 40  1  0
 14 41  1  0
 14 42  1  0
 15 43  1  0
 15 44  1  0
 16 45  1  0
 17 46  1  0
 17 47  1  0
 18 48  1  0
 18 49  1  0
 19 50  1  0
 19 51  1  0
 20 52  1  0
 20 53  1  0
 21 54  1  0
 21 55  1  0
 25 56  1  0
 25 57  1  0
 26 58  1  0
 26 59  1  0
 27 60  1  0
 28 61  1  0
 28 62  1  0
 29 63  1  0
 29 64  1  0
 31 65  1  0
 31 66  1  0
M  END
>  <smiles>  (15) 
c1ccc2c(c1)CCN(c1nc(NCCC3CCCCC3)nc(N3CCNCC3)n1)C2

>  <score_type>  (15) 
oracle

>  <origin>  (15) 
autodockgpu

>  <m_score__min__energy>  (15) 
-10.369999999999999

>  <m_primary>  (15) 
energy

>  <rmsd>  (15) 
5.142082282003317

>  <m_score__min__rmsd>  (15) 
5.142082282003317

>  <meeko>  (15) 
{"free_energy": -9.38, "intermolecular_energy": -11.17, "internal_energy": -1.03, "cluster_size": 42, "cluster_id": 1, "rank_in_cluster": 36}

>  <energy>  (15) 
-10.03

>  <cluster_rmsd>  (15) 
0.42

>  <cluster>  (15) 
1

$$$$

     RDKit          3D

 66 70  0  0  0  0  0  0  0  0999 V2000
  142.5490   81.0070  223.0410 C   0  0  0  0  0  0  0  0  0  0  0  0
  142.4340   80.1950  224.1630 C   0  0  0  0  0  0  0  0  0  0  0  0
  141.7940   78.9770  224.1140 C   0  0  0  0  0  0  0  0  0  0  0  0
  141.2700   78.5940  222.9000 C   0  0  0  0  0  0  0  0  0  0  0  0
  141.3610   79.3720  221.7570 C   0  0  0  0  0  0  0  0  0  0  0  0
  142.0100   80.5830  221.8470 C   0  0  0  0  0  0  0  0  0  0  0  0
  140.7580   78.8570  220.5010 C   0  0  0  0  0  0  0  0  0  0  0  0
  141.2760   77.4500  220.3000 C   0  0  0  0  0  0  0  0  0  0  0  0
  141.0160   76.6760  221.4730 N   0  0  0  0  0  0  0  0  0  0  0  0
  141.2170   75.2500  221.4430 C   0  0  0  0  0  0  0  0  0  0  0  0
  140.2430   74.4820  221.9660 N   0  0  0  0  0  0  0  0  0  0  0  0
  140.4200   73.1510  221.9430 C   0  0  0  0  0  0  0  0  0  0  0  0
  139.3870   72.3050  222.4990 N   0  0  0  0  0  0  0  0  0  0  0  0
  139.8170   71.2510  223.3500 C   0  0  0  0  0  0  0  0  0  0  0  0
  140.6490   71.7060  224.4950 C   0  0  0  0  0  0  0  0  0  0  0  0
  140.4270   71.0930  225.8220 C   0  0  0  0  0  0  0  0  0  0  0  0
  141.3730   71.7160  226.8790 C   0  0  0  0  0  0  0  0  0  0  0  0
  140.6690   71.5910  228.2070 C   0  0  0  0  0  0  0  0  0  0  0  0
  139.9690   70.2500  228.2730 C   0  0  0  0  0  0  0  0  0  0  0  0
  140.6970   69.2120  227.4340 C   0  0  0  0  0  0  0  0  0  0  0  0
  140.6140   69.6190  225.9520 C   0  0  0  0  0  0  0  0  0  0  0  0
  141.5440   72.6350  221.4080 N   0  0  0  0  0  0  0  0  0  0  0  0
  142.5150   73.4010  220.8860 C   0  0  0  0  0  0  0  0  0  0  0  0
  143.6940   72.8540  220.3250 N   0  0  0  0  0  0  0  0  0  0  0  0
  144.9510   72.7320  221.0310 C   0  0  0  0  0  0  0  0  0  0  0  0
  145.9440   73.6310  220.3340 C   0  0  0  0  0  0  0  0  0  0  0  0
  145.9210   73.3850  218.9330 N   0  0  0  0  0  0  0  0  0  0  0  0
  145.1540   72.2690  218.4870 C   0  0  0  0  0  0  0  0  0  0  0  0
  143.6940   72.3620  218.9390 C   0  0  0  0  0  0  0  0  0  0  0  0
  142.3480   74.7330  220.9060 N   0  0  0  0  0  0  0  0  0  0  0  0
  140.5480   77.2830  222.7230 C   0  0  0  0  0  0  0  0  0  0  0  0
  143.0643   81.9766  223.1060 H   0  0  0  0  0  0  0  0  0  0  0  0
  142.8660   80.5346  225.1159 H   0  0  0  0  0  0  0  0  0  0  0  0
  141.7053   78.3383  225.0052 H   0  0  0  0  0  0  0  0  0  0  0  0
  142.0990   81.2194  220.9542 H   0  0  0  0  0  0  0  0  0  0  0  0
  139.6614   78.8462  220.5862 H   0  0  0  0  0  0  0  0  0  0  0  0
  141.0264   79.4974  219.6479 H   0  0  0  0  0  0  0  0  0  0  0  0
  140.7687   76.9918  219.4382 H   0  0  0  0  0  0  0  0  0  0  0  0
  142.3595   77.4807  220.1129 H   0  0  0  0  0  0  0  0  0  0  0  0
  138.4280   72.5420  222.2060 H   0  0  0  0  0  0  0  0  0  0  0  0
  138.9270   70.7421  223.7486 H   0  0  0  0  0  0  0  0  0  0  0  0
  140.4460   70.5844  222.7417 H   0  0  0  0  0  0  0  0  0  0  0  0
  141.6994   71.5222  224.2251 H   0  0  0  0  0  0  0  0  0  0  0  0
  140.3586   72.7577  224.6348 H   0  0  0  0  0  0  0  0  0  0  0  0
  139.3578   71.3000  225.9766 H   0  0  0  0  0  0  0  0  0  0  0  0
  142.3286   71.1716  226.9023 H   0  0  0  0  0  0  0  0  0  0  0  0
  141.5968   72.7670  226.6437 H   0  0  0  0  0  0  0  0  0  0  0  0
  141.4044   71.6630  229.0219 H   0  0  0  0  0  0  0  0  0  0  0  0
  139.9308   72.3997  228.3124 H   0  0  0  0  0  0  0  0  0  0  0  0
  139.9400   69.9107  229.3190 H   0  0  0  0  0  0  0  0  0  0  0  0
  138.9495   70.3676  227.8769 H   0  0  0  0  0  0  0  0  0  0  0  0
  141.7512   69.1604  227.7440 H   0  0  0  0  0  0  0  0  0  0  0  0
  140.2309   68.2258  227.5756 H   0  0  0  0  0  0  0  0  0  0  0  0
  141.5449   69.3265  225.4441 H   0  0  0  0  0  0  0  0  0  0  0  0
  139.7537   69.1105  225.4923 H   0  0  0  0  0  0  0  0  0  0  0  0
  144.8275   73.0470  222.0777 H   0  0  0  0  0  0  0  0  0  0  0  0
  145.3003   71.6889  221.0289 H   0  0  0  0  0  0  0  0  0  0  0  0
  145.6803   74.6819  220.5240 H   0  0  0  0  0  0  0  0  0  0  0  0
  146.9527   73.4244  220.7210 H   0  0  0  0  0  0  0  0  0  0  0  0
  146.8930   73.2540  218.5750 H   0  0  0  0  0  0  0  0  0  0  0  0
  145.1844   72.2331  217.3880 H   0  0  0  0  0  0  0  0  0  0  0  0
  145.5893   71.3591  218.9258 H   0  0  0  0  0  0  0  0  0  0  0  0
  143.1437   73.0608  218.2918 H   0  0  0  0  0  0  0  0  0  0  0  0
  143.2040   71.3792  218.8754 H   0  0  0  0  0  0  0  0  0  0  0  0
  139.4633   77.4578  222.6704 H   0  0  0  0  0  0  0  0  0  0  0  0
  140.7520   76.6154  223.5731 H   0  0  0  0  0  0  0  0  0  0  0  0
  1  2  2  0
  2  3  1  0
  3  4  2  0
  4  5  1  0
  5  6  2  0
  5  7  1  0
  7  8  1  0
  8  9  1  0
  9 10  1  0
 10 11  2  0
 11 12  1  0
 12 13  1  0
 13 14  1  0
 14 15  1  0
 15 16  1  0
 16 17  1  0
 17 18  1  0
 18 19  1  0
 19 20  1  0
 20 21  1  0
 12 22  2  0
 22 23  1  0
 23 24  1  0
 24 25  1  0
 25 26  1  0
 26 27  1  0
 27 28  1  0
 28 29  1  0
 23 30  2  0
  9 31  1  0
  6  1  1  0
 30 10  1  0
 31  4  1  0
 21 16  1  0
 29 24  1  0
  1 32  1  0
  2 33  1  0
  3 34  1  0
  6 35  1  0
  7 36  1  0
  7 37  1  0
  8 38  1  0
  8 39  1  0
 13 40  1  0
 14 41  1  0
 14 42  1  0
 15 43  1  0
 15 44  1  0
 16 45  1  0
 17 46  1  0
 17 47  1  0
 18 48  1  0
 18 49  1  0
 19 50  1  0
 19 51  1  0
 20 52  1  0
 20 53  1  0
 21 54  1  0
 21 55  1  0
 25 56  1  0
 25 57  1  0
 26 58  1  0
 26 59  1  0
 27 60  1  0
 28 61  1  0
 28 62  1  0
 29 63  1  0
 29 64  1  0
 31 65  1  0
 31 66  1  0
M  END
>  <smiles>  (16) 
c1ccc2c(c1)CCN(c1nc(NCCC3CCCCC3)nc(N3CCNCC3)n1)C2

>  <score_type>  (16) 
oracle

>  <origin>  (16) 
autodockgpu

>  <m_score__min__energy>  (16) 
-10.369999999999999

>  <m_primary>  (16) 
energy

>  <rmsd>  (16) 
5.21919621573952

>  <m_score__min__rmsd>  (16) 
5.21919621573952

>  <meeko>  (16) 
{"free_energy": -10.26, "intermolecular_energy": -12.05, "internal_energy": -0.99, "cluster_size": 42, "cluster_id": 1, "rank_in_cluster": 7}

>  <energy>  (16) 
-9.94

>  <cluster_rmsd>  (16) 
0.77

>  <cluster>  (16) 
1

$$$$

     RDKit          3D

 66 70  0  0  0  0  0  0  0  0999 V2000
  142.5390   80.8810  222.6870 C   0  0  0  0  0  0  0  0  0  0  0  0
  142.2370   80.1610  223.8370 C   0  0  0  0  0  0  0  0  0  0  0  0
  141.5910   78.9460  223.7830 C   0  0  0  0  0  0  0  0  0  0  0  0
  141.2550   78.4710  222.5360 C   0  0  0  0  0  0  0  0  0  0  0  0
  141.5360   79.1550  221.3640 C   0  0  0  0  0  0  0  0  0  0  0  0
  142.1840   80.3670  221.4600 C   0  0  0  0  0  0  0  0  0  0  0  0
  141.1250   78.5460  220.0730 C   0  0  0  0  0  0  0  0  0  0  0  0
  141.6440   77.1240  220.0650 C   0  0  0  0  0  0  0  0  0  0  0  0
  141.1930   76.4470  221.2400 N   0  0  0  0  0  0  0  0  0  0  0  0
  141.3720   75.0220  221.3520 C   0  0  0  0  0  0  0  0  0  0  0  0
  140.4710   74.3470  222.0910 N   0  0  0  0  0  0  0  0  0  0  0  0
  140.6280   73.0180  222.2020 C   0  0  0  0  0  0  0  0  0  0  0  0
  139.6740   72.2720  222.9910 N   0  0  0  0  0  0  0  0  0  0  0  0
  140.1750   71.1440  223.6970 C   0  0  0  0  0  0  0  0  0  0  0  0
  140.3450   71.3770  225.1560 C   0  0  0  0  0  0  0  0  0  0  0  0
  140.5900   70.2160  226.0370 C   0  0  0  0  0  0  0  0  0  0  0  0
  139.4460   69.1790  225.9080 C   0  0  0  0  0  0  0  0  0  0  0  0
  140.0490   67.8360  226.2340 C   0  0  0  0  0  0  0  0  0  0  0  0
  141.0240   67.9960  227.3820 C   0  0  0  0  0  0  0  0  0  0  0  0
  140.6150   69.1470  228.2880 C   0  0  0  0  0  0  0  0  0  0  0  0
  140.7260   70.4650  227.5010 C   0  0  0  0  0  0  0  0  0  0  0  0
  141.6610   72.4130  221.5830 N   0  0  0  0  0  0  0  0  0  0  0  0
  142.5580   73.0860  220.8460 C   0  0  0  0  0  0  0  0  0  0  0  0
  143.6410   72.4450  220.1970 N   0  0  0  0  0  0  0  0  0  0  0  0
  145.0220   72.5610  220.6110 C   0  0  0  0  0  0  0  0  0  0  0  0
  145.7640   73.2680  219.5020 C   0  0  0  0  0  0  0  0  0  0  0  0
  145.4750   72.6490  218.2540 N   0  0  0  0  0  0  0  0  0  0  0  0
  144.7380   71.4290  218.2960 C   0  0  0  0  0  0  0  0  0  0  0  0
  143.4000   71.5940  219.0220 C   0  0  0  0  0  0  0  0  0  0  0  0
  142.4100   74.4160  220.7300 N   0  0  0  0  0  0  0  0  0  0  0  0
  140.5480   77.1540  222.3510 C   0  0  0  0  0  0  0  0  0  0  0  0
  143.0554   81.8498  222.7564 H   0  0  0  0  0  0  0  0  0  0  0  0
  142.5216   80.5728  224.8165 H   0  0  0  0  0  0  0  0  0  0  0  0
  141.3541   78.3803  224.6962 H   0  0  0  0  0  0  0  0  0  0  0  0
  142.4206   80.9307  220.5455 H   0  0  0  0  0  0  0  0  0  0  0  0
  140.0283   78.5477  219.9875 H   0  0  0  0  0  0  0  0  0  0  0  0
  141.5323   79.1157  219.2247 H   0  0  0  0  0  0  0  0  0  0  0  0
  141.2680   76.6012  219.1732 H   0  0  0  0  0  0  0  0  0  0  0  0
  142.7438   77.1346  220.0466 H   0  0  0  0  0  0  0  0  0  0  0  0
  138.7060   72.6250  222.9500 H   0  0  0  0  0  0  0  0  0  0  0  0
  139.4733   70.3083  223.5586 H   0  0  0  0  0  0  0  0  0  0  0  0
  141.1730   70.9272  223.2884 H   0  0  0  0  0  0  0  0  0  0  0  0
  141.1979   72.0610  225.2773 H   0  0  0  0  0  0  0  0  0  0  0  0
  139.3653   71.7567  225.4814 H   0  0  0  0  0  0  0  0  0  0  0  0
  141.5700   69.8745  225.6725 H   0  0  0  0  0  0  0  0  0  0  0  0
  138.6375   69.4147  226.6156 H   0  0  0  0  0  0  0  0  0  0  0  0
  139.0134   69.1867  224.8967 H   0  0  0  0  0  0  0  0  0  0  0  0
  139.2522   67.1347  226.5225 H   0  0  0  0  0  0  0  0  0  0  0  0
  140.5760   67.4425  225.3523 H   0  0  0  0  0  0  0  0  0  0  0  0
  141.0443   67.0659  227.9690 H   0  0  0  0  0  0  0  0  0  0  0  0
  142.0200   68.2125  226.9683 H   0  0  0  0  0  0  0  0  0  0  0  0
  139.5770   69.0029  228.6222 H   0  0  0  0  0  0  0  0  0  0  0  0
  141.2748   69.1815  229.1674 H   0  0  0  0  0  0  0  0  0  0  0  0
  139.9283   71.1488  227.8269 H   0  0  0  0  0  0  0  0  0  0  0  0
  141.7127   70.9111  227.6944 H   0  0  0  0  0  0  0  0  0  0  0  0
  145.0887   73.1450  221.5408 H   0  0  0  0  0  0  0  0  0  0  0  0
  145.4570   71.5686  220.8004 H   0  0  0  0  0  0  0  0  0  0  0  0
  145.4505   74.3218  219.4676 H   0  0  0  0  0  0  0  0  0  0  0  0
  146.8454   73.2075  219.6942 H   0  0  0  0  0  0  0  0  0  0  0  0
  146.3610   72.4570  217.7350 H   0  0  0  0  0  0  0  0  0  0  0  0
  144.5447   71.0948  217.2660 H   0  0  0  0  0  0  0  0  0  0  0  0
  145.3359   70.6888  218.8479 H   0  0  0  0  0  0  0  0  0  0  0  0
  142.6667   72.0716  218.3556 H   0  0  0  0  0  0  0  0  0  0  0  0
  142.9989   70.6158  219.3258 H   0  0  0  0  0  0  0  0  0  0  0  0
  139.4875   77.3290  222.1170 H   0  0  0  0  0  0  0  0  0  0  0  0
  140.6075   76.5551  223.2717 H   0  0  0  0  0  0  0  0  0  0  0  0
  1  2  2  0
  2  3  1  0
  3  4  2  0
  4  5  1  0
  5  6  2  0
  5  7  1  0
  7  8  1  0
  8  9  1  0
  9 10  1  0
 10 11  2  0
 11 12  1  0
 12 13  1  0
 13 14  1  0
 14 15  1  0
 15 16  1  0
 16 17  1  0
 17 18  1  0
 18 19  1  0
 19 20  1  0
 20 21  1  0
 12 22  2  0
 22 23  1  0
 23 24  1  0
 24 25  1  0
 25 26  1  0
 26 27  1  0
 27 28  1  0
 28 29  1  0
 23 30  2  0
  9 31  1  0
  6  1  1  0
 30 10  1  0
 31  4  1  0
 21 16  1  0
 29 24  1  0
  1 32  1  0
  2 33  1  0
  3 34  1  0
  6 35  1  0
  7 36  1  0
  7 37  1  0
  8 38  1  0
  8 39  1  0
 13 40  1  0
 14 41  1  0
 14 42  1  0
 15 43  1  0
 15 44  1  0
 16 45  1  0
 17 46  1  0
 17 47  1  0
 18 48  1  0
 18 49  1  0
 19 50  1  0
 19 51  1  0
 20 52  1  0
 20 53  1  0
 21 54  1  0
 21 55  1  0
 25 56  1  0
 25 57  1  0
 26 58  1  0
 26 59  1  0
 27 60  1  0
 28 61  1  0
 28 62  1  0
 29 63  1  0
 29 64  1  0
 31 65  1  0
 31 66  1  0
M  END
>  <smiles>  (17) 
c1ccc2c(c1)CCN(c1nc(NCCC3CCCCC3)nc(N3CCNCC3)n1)C2

>  <score_type>  (17) 
oracle

>  <origin>  (17) 
autodockgpu

>  <m_score__min__energy>  (17) 
-10.369999999999999

>  <m_primary>  (17) 
energy

>  <rmsd>  (17) 
4.990960480782438

>  <m_score__min__rmsd>  (17) 
4.990960480782438

>  <meeko>  (17) 
{"free_energy": -10.32, "intermolecular_energy": -12.11, "internal_energy": -0.88, "cluster_size": 42, "cluster_id": 1, "rank_in_cluster": 2}

>  <energy>  (17) 
-9.92

>  <cluster_rmsd>  (17) 
0.53

>  <cluster>  (17) 
1

$$$$

     RDKit          3D

 66 70  0  0  0  0  0  0  0  0999 V2000
  142.5810   80.7260  222.8330 C   0  0  0  0  0  0  0  0  0  0  0  0
  142.4190   79.9230  223.9550 C   0  0  0  0  0  0  0  0  0  0  0  0
  141.8120   78.6890  223.8820 C   0  0  0  0  0  0  0  0  0  0  0  0
  141.3700   78.2820  222.6440 C   0  0  0  0  0  0  0  0  0  0  0  0
  141.5100   79.0500  221.4990 C   0  0  0  0  0  0  0  0  0  0  0  0
  142.1230   80.2780  221.6140 C   0  0  0  0  0  0  0  0  0  0  0  0
  140.9950   78.5090  220.2160 C   0  0  0  0  0  0  0  0  0  0  0  0
  141.5580   77.1130  220.0620 C   0  0  0  0  0  0  0  0  0  0  0  0
  141.2470   76.3440  221.2260 N   0  0  0  0  0  0  0  0  0  0  0  0
  141.4840   74.9230  221.2230 C   0  0  0  0  0  0  0  0  0  0  0  0
  140.4990   74.1370  221.6960 N   0  0  0  0  0  0  0  0  0  0  0  0
  140.7090   72.8110  221.6980 C   0  0  0  0  0  0  0  0  0  0  0  0
  139.6650   71.9450  222.2010 N   0  0  0  0  0  0  0  0  0  0  0  0
  139.5230   71.8740  223.6140 C   0  0  0  0  0  0  0  0  0  0  0  0
  140.6550   71.1940  224.2970 C   0  0  0  0  0  0  0  0  0  0  0  0
  140.5190   70.8510  225.7290 C   0  0  0  0  0  0  0  0  0  0  0  0
  141.3740   71.8000  226.6040 C   0  0  0  0  0  0  0  0  0  0  0  0
  140.6950   71.8680  227.9490 C   0  0  0  0  0  0  0  0  0  0  0  0
  140.1790   70.4920  228.3140 C   0  0  0  0  0  0  0  0  0  0  0  0
  141.0390   69.4040  227.6900 C   0  0  0  0  0  0  0  0  0  0  0  0
  140.9010   69.4750  226.1580 C   0  0  0  0  0  0  0  0  0  0  0  0
  141.8740   72.3170  221.2360 N   0  0  0  0  0  0  0  0  0  0  0  0
  142.8560   73.1010  220.7650 C   0  0  0  0  0  0  0  0  0  0  0  0
  144.0790   72.5780  220.2800 N   0  0  0  0  0  0  0  0  0  0  0  0
  145.2830   73.3590  220.0960 C   0  0  0  0  0  0  0  0  0  0  0  0
  145.5800   73.3800  218.6160 C   0  0  0  0  0  0  0  0  0  0  0  0
  145.5380   72.0580  218.0940 N   0  0  0  0  0  0  0  0  0  0  0  0
  145.4230   70.9960  219.0380 C   0  0  0  0  0  0  0  0  0  0  0  0
  144.1870   71.1540  219.9280 C   0  0  0  0  0  0  0  0  0  0  0  0
  142.6560   74.4290  220.7590 N   0  0  0  0  0  0  0  0  0  0  0  0
  140.6920   76.9520  222.4390 C   0  0  0  0  0  0  0  0  0  0  0  0
  143.0693   81.7081  222.9173 H   0  0  0  0  0  0  0  0  0  0  0  0
  142.7854   80.2825  224.9279 H   0  0  0  0  0  0  0  0  0  0  0  0
  141.6861   78.0570  224.7734 H   0  0  0  0  0  0  0  0  0  0  0  0
  142.2483   80.9085  220.7214 H   0  0  0  0  0  0  0  0  0  0  0  0
  139.8958   78.4721  220.2365 H   0  0  0  0  0  0  0  0  0  0  0  0
  141.2975   79.1476  219.3730 H   0  0  0  0  0  0  0  0  0  0  0  0
  141.1144   76.6341  219.1766 H   0  0  0  0  0  0  0  0  0  0  0  0
  142.6498   77.1688  219.9397 H   0  0  0  0  0  0  0  0  0  0  0  0
  139.1300   71.4430  221.4770 H   0  0  0  0  0  0  0  0  0  0  0  0
  139.4459   72.8986  224.0068 H   0  0  0  0  0  0  0  0  0  0  0  0
  138.6215   71.2769  223.8160 H   0  0  0  0  0  0  0  0  0  0  0  0
  140.8424   70.2549  223.7557 H   0  0  0  0  0  0  0  0  0  0  0  0
  141.4644   71.9386  224.2769 H   0  0  0  0  0  0  0  0  0  0  0  0
  139.4319   70.9451  225.8685 H   0  0  0  0  0  0  0  0  0  0  0  0
  142.3936   71.4018  226.7125 H   0  0  0  0  0  0  0  0  0  0  0  0
  141.4550   72.7976  226.1478 H   0  0  0  0  0  0  0  0  0  0  0  0
  141.4157   72.2046  228.7088 H   0  0  0  0  0  0  0  0  0  0  0  0
  139.8564   72.5785  227.9052 H   0  0  0  0  0  0  0  0  0  0  0  0
  140.1955   70.3802  229.4082 H   0  0  0  0  0  0  0  0  0  0  0  0
  139.1527   70.3899  227.9315 H   0  0  0  0  0  0  0  0  0  0  0  0
  142.0908   69.5570  227.9733 H   0  0  0  0  0  0  0  0  0  0  0  0
  140.7093   68.4176  228.0482 H   0  0  0  0  0  0  0  0  0  0  0  0
  141.8621   69.2058  225.6955 H   0  0  0  0  0  0  0  0  0  0  0  0
  140.1159   68.7734  225.8396 H   0  0  0  0  0  0  0  0  0  0  0  0
  145.1272   74.3840  220.4636 H   0  0  0  0  0  0  0  0  0  0  0  0
  146.1220   72.9207  220.6563 H   0  0  0  0  0  0  0  0  0  0  0  0
  144.8295   73.9987  218.1023 H   0  0  0  0  0  0  0  0  0  0  0  0
  146.5834   73.8009  218.4544 H   0  0  0  0  0  0  0  0  0  0  0  0
  146.3910   71.8700  217.5220 H   0  0  0  0  0  0  0  0  0  0  0  0
  145.3498   70.0429  218.4938 H   0  0  0  0  0  0  0  0  0  0  0  0
  146.3130   71.0166  219.6841 H   0  0  0  0  0  0  0  0  0  0  0  0
  143.2874   70.8319  219.3831 H   0  0  0  0  0  0  0  0  0  0  0  0
  144.2779   70.5355  220.8331 H   0  0  0  0  0  0  0  0  0  0  0  0
  139.6084   77.0995  222.3206 H   0  0  0  0  0  0  0  0  0  0  0  0
  140.8621   76.2980  223.3070 H   0  0  0  0  0  0  0  0  0  0  0  0
  1  2  2  0
  2  3  1  0
  3  4  2  0
  4  5  1  0
  5  6  2  0
  5  7  1  0
  7  8  1  0
  8  9  1  0
  9 10  1  0
 10 11  2  0
 11 12  1  0
 12 13  1  0
 13 14  1  0
 14 15  1  0
 15 16  1  0
 16 17  1  0
 17 18  1  0
 18 19  1  0
 19 20  1  0
 20 21  1  0
 12 22  2  0
 22 23  1  0
 23 24  1  0
 24 25  1  0
 25 26  1  0
 26 27  1  0
 27 28  1  0
 28 29  1  0
 23 30  2  0
  9 31  1  0
  6  1  1  0
 30 10  1  0
 31  4  1  0
 21 16  1  0
 29 24  1  0
  1 32  1  0
  2 33  1  0
  3 34  1  0
  6 35  1  0
  7 36  1  0
  7 37  1  0
  8 38  1  0
  8 39  1  0
 13 40  1  0
 14 41  1  0
 14 42  1  0
 15 43  1  0
 15 44  1  0
 16 45  1  0
 17 46  1  0
 17 47  1  0
 18 48  1  0
 18 49  1  0
 19 50  1  0
 19 51  1  0
 20 52  1  0
 20 53  1  0
 21 54  1  0
 21 55  1  0
 25 56  1  0
 25 57  1  0
 26 58  1  0
 26 59  1  0
 27 60  1  0
 28 61  1  0
 28 62  1  0
 29 63  1  0
 29 64  1  0
 31 65  1  0
 31 66  1  0
M  END
>  <smiles>  (18) 
c1ccc2c(c1)CCN(c1nc(NCCC3CCCCC3)nc(N3CCNCC3)n1)C2

>  <score_type>  (18) 
oracle

>  <origin>  (18) 
autodockgpu

>  <m_score__min__energy>  (18) 
-10.369999999999999

>  <m_primary>  (18) 
energy

>  <rmsd>  (18) 
5.073393803854362

>  <m_score__min__rmsd>  (18) 
5.073393803854362

>  <meeko>  (18) 
{"free_energy": -9.71, "intermolecular_energy": -11.5, "internal_energy": -0.99, "cluster_size": 42, "cluster_id": 1, "rank_in_cluster": 24}

>  <energy>  (18) 
-9.91

>  <cluster_rmsd>  (18) 
0.66

>  <cluster>  (18) 
1

$$$$

     RDKit          3D

 66 70  0  0  0  0  0  0  0  0999 V2000
  142.4490   80.8950  222.7050 C   0  0  0  0  0  0  0  0  0  0  0  0
  142.1420   80.1730  223.8520 C   0  0  0  0  0  0  0  0  0  0  0  0
  141.5040   78.9540  223.7920 C   0  0  0  0  0  0  0  0  0  0  0  0
  141.1820   78.4770  222.5420 C   0  0  0  0  0  0  0  0  0  0  0  0
  141.4690   79.1630  221.3720 C   0  0  0  0  0  0  0  0  0  0  0  0
  142.1080   80.3790  221.4740 C   0  0  0  0  0  0  0  0  0  0  0  0
  141.0730   78.5520  220.0780 C   0  0  0  0  0  0  0  0  0  0  0  0
  141.6010   77.1340  220.0740 C   0  0  0  0  0  0  0  0  0  0  0  0
  141.1430   76.4540  221.2450 N   0  0  0  0  0  0  0  0  0  0  0  0
  141.3290   75.0300  221.3580 C   0  0  0  0  0  0  0  0  0  0  0  0
  140.4350   74.3510  222.1010 N   0  0  0  0  0  0  0  0  0  0  0  0
  140.5990   73.0230  222.2130 C   0  0  0  0  0  0  0  0  0  0  0  0
  139.6510   72.2730  223.0070 N   0  0  0  0  0  0  0  0  0  0  0  0
  139.4320   70.9210  222.6280 C   0  0  0  0  0  0  0  0  0  0  0  0
  139.7230   69.9400  223.7070 C   0  0  0  0  0  0  0  0  0  0  0  0
  139.9090   70.4370  225.0870 C   0  0  0  0  0  0  0  0  0  0  0  0
  141.3960   70.7820  225.3490 C   0  0  0  0  0  0  0  0  0  0  0  0
  141.4040   71.8570  226.4070 C   0  0  0  0  0  0  0  0  0  0  0  0
  140.3340   71.5510  227.4330 C   0  0  0  0  0  0  0  0  0  0  0  0
  140.0940   70.0540  227.5420 C   0  0  0  0  0  0  0  0  0  0  0  0
  139.5120   69.5430  226.2120 C   0  0  0  0  0  0  0  0  0  0  0  0
  141.6320   72.4220  221.5920 N   0  0  0  0  0  0  0  0  0  0  0  0
  142.5230   73.0990  220.8510 C   0  0  0  0  0  0  0  0  0  0  0  0
  143.6070   72.4620  220.1990 N   0  0  0  0  0  0  0  0  0  0  0  0
  144.9900   72.5910  220.6030 C   0  0  0  0  0  0  0  0  0  0  0  0
  145.7190   73.2970  219.4850 C   0  0  0  0  0  0  0  0  0  0  0  0
  145.4270   72.6680  218.2430 N   0  0  0  0  0  0  0  0  0  0  0  0
  144.7000   71.4430  218.2960 C   0  0  0  0  0  0  0  0  0  0  0  0
  143.3650   71.6020  219.0300 C   0  0  0  0  0  0  0  0  0  0  0  0
  142.3680   74.4270  220.7330 N   0  0  0  0  0  0  0  0  0  0  0  0
  140.4840   77.1560  222.3500 C   0  0  0  0  0  0  0  0  0  0  0  0
  142.9583   81.8671  222.7791 H   0  0  0  0  0  0  0  0  0  0  0  0
  142.4159   80.5861  224.8340 H   0  0  0  0  0  0  0  0  0  0  0  0
  141.2625   78.3867  224.7030 H   0  0  0  0  0  0  0  0  0  0  0  0
  142.3488   80.9447  220.5619 H   0  0  0  0  0  0  0  0  0  0  0  0
  139.9771   78.5466  219.9832 H   0  0  0  0  0  0  0  0  0  0  0  0
  141.4837   79.1245  219.2333 H   0  0  0  0  0  0  0  0  0  0  0  0
  141.2366   76.6091  219.1786 H   0  0  0  0  0  0  0  0  0  0  0  0
  142.7008   77.1513  220.0654 H   0  0  0  0  0  0  0  0  0  0  0  0
  139.2070   72.8050  223.7710 H   0  0  0  0  0  0  0  0  0  0  0  0
  138.3780   70.8099  222.3334 H   0  0  0  0  0  0  0  0  0  0  0  0
  140.1254   70.7037  221.8022 H   0  0  0  0  0  0  0  0  0  0  0  0
  138.8864   69.2262  223.7299 H   0  0  0  0  0  0  0  0  0  0  0  0
  140.7068   69.5290  223.4362 H   0  0  0  0  0  0  0  0  0  0  0  0
  139.2237   71.2974  225.0986 H   0  0  0  0  0  0  0  0  0  0  0  0
  141.9356   69.8925  225.7064 H   0  0  0  0  0  0  0  0  0  0  0  0
  141.8939   71.1238  224.4296 H   0  0  0  0  0  0  0  0  0  0  0  0
  142.3881   71.8833  226.8978 H   0  0  0  0  0  0  0  0  0  0  0  0
  141.2039   72.8343  225.9435 H   0  0  0  0  0  0  0  0  0  0  0  0
  140.6545   71.9359  228.4123 H   0  0  0  0  0  0  0  0  0  0  0  0
  139.3975   72.0333  227.1163 H   0  0  0  0  0  0  0  0  0  0  0  0
  141.0451   69.5419  227.7496 H   0  0  0  0  0  0  0  0  0  0  0  0
  139.3882   69.8489  228.3604 H   0  0  0  0  0  0  0  0  0  0  0  0
  139.8902   68.5284  226.0181 H   0  0  0  0  0  0  0  0  0  0  0  0
  138.4145   69.5326  226.2861 H   0  0  0  0  0  0  0  0  0  0  0  0
  145.0585   73.1810  221.5289 H   0  0  0  0  0  0  0  0  0  0  0  0
  145.4339   71.6031  220.7953 H   0  0  0  0  0  0  0  0  0  0  0  0
  145.3968   74.3480  219.4461 H   0  0  0  0  0  0  0  0  0  0  0  0
  146.8021   73.2465  219.6705 H   0  0  0  0  0  0  0  0  0  0  0  0
  146.3110   72.4800  217.7200 H   0  0  0  0  0  0  0  0  0  0  0  0
  144.5027   71.1019  217.2690 H   0  0  0  0  0  0  0  0  0  0  0  0
  145.3070   70.7101  218.8477 H   0  0  0  0  0  0  0  0  0  0  0  0
  142.6237   72.0701  218.3656 H   0  0  0  0  0  0  0  0  0  0  0  0
  142.9736   70.6225  219.3420 H   0  0  0  0  0  0  0  0  0  0  0  0
  139.4247   77.3251  222.1064 H   0  0  0  0  0  0  0  0  0  0  0  0
  140.5383   76.5568  223.2709 H   0  0  0  0  0  0  0  0  0  0  0  0
  1  2  2  0
  2  3  1  0
  3  4  2  0
  4  5  1  0
  5  6  2  0
  5  7  1  0
  7  8  1  0
  8  9  1  0
  9 10  1  0
 10 11  2  0
 11 12  1  0
 12 13  1  0
 13 14  1  0
 14 15  1  0
 15 16  1  0
 16 17  1  0
 17 18  1  0
 18 19  1  0
 19 20  1  0
 20 21  1  0
 12 22  2  0
 22 23  1  0
 23 24  1  0
 24 25  1  0
 25 26  1  0
 26 27  1  0
 27 28  1  0
 28 29  1  0
 23 30  2  0
  9 31  1  0
  6  1  1  0
 30 10  1  0
 31  4  1  0
 21 16  1  0
 29 24  1  0
  1 32  1  0
  2 33  1  0
  3 34  1  0
  6 35  1  0
  7 36  1  0
  7 37  1  0
  8 38  1  0
  8 39  1  0
 13 40  1  0
 14 41  1  0
 14 42  1  0
 15 43  1  0
 15 44  1  0
 16 45  1  0
 17 46  1  0
 17 47  1  0
 18 48  1  0
 18 49  1  0
 19 50  1  0
 19 51  1  0
 20 52  1  0
 20 53  1  0
 21 54  1  0
 21 55  1  0
 25 56  1  0
 25 57  1  0
 26 58  1  0
 26 59  1  0
 27 60  1  0
 28 61  1  0
 28 62  1  0
 29 63  1  0
 29 64  1  0
 31 65  1  0
 31 66  1  0
M  END
>  <smiles>  (19) 
c1ccc2c(c1)CCN(c1nc(NCCC3CCCCC3)nc(N3CCNCC3)n1)C2

>  <score_type>  (19) 
oracle

>  <origin>  (19) 
autodockgpu

>  <m_score__min__energy>  (19) 
-10.369999999999999

>  <m_primary>  (19) 
energy

>  <rmsd>  (19) 
4.984462343723808

>  <m_score__min__rmsd>  (19) 
4.984462343723808

>  <meeko>  (19) 
{"free_energy": -9.74, "intermolecular_energy": -11.53, "internal_energy": -1.15, "cluster_size": 42, "cluster_id": 1, "rank_in_cluster": 22}

>  <energy>  (19) 
-9.82

>  <cluster_rmsd>  (19) 
0.83

>  <cluster>  (19) 
1

$$$$

     RDKit          3D

 66 70  0  0  0  0  0  0  0  0999 V2000
  142.5710   80.7470  222.8830 C   0  0  0  0  0  0  0  0  0  0  0  0
  142.4010   79.9320  223.9950 C   0  0  0  0  0  0  0  0  0  0  0  0
  141.8040   78.6950  223.9030 C   0  0  0  0  0  0  0  0  0  0  0  0
  141.3810   78.2950  222.6560 C   0  0  0  0  0  0  0  0  0  0  0  0
  141.5300   79.0750  221.5200 C   0  0  0  0  0  0  0  0  0  0  0  0
  142.1330   80.3070  221.6540 C   0  0  0  0  0  0  0  0  0  0  0  0
  141.0350   78.5420  220.2260 C   0  0  0  0  0  0  0  0  0  0  0  0
  141.6100   77.1510  220.0660 C   0  0  0  0  0  0  0  0  0  0  0  0
  141.2910   76.3700  221.2190 N   0  0  0  0  0  0  0  0  0  0  0  0
  141.5380   74.9510  221.2060 C   0  0  0  0  0  0  0  0  0  0  0  0
  140.5600   74.1540  221.6750 N   0  0  0  0  0  0  0  0  0  0  0  0
  140.7790   72.8290  221.6670 C   0  0  0  0  0  0  0  0  0  0  0  0
  139.7430   71.9520  222.1660 N   0  0  0  0  0  0  0  0  0  0  0  0
  139.5890   71.8870  223.5780 C   0  0  0  0  0  0  0  0  0  0  0  0
  140.4720   70.8850  224.2320 C   0  0  0  0  0  0  0  0  0  0  0  0
  140.3630   70.6890  225.6930 C   0  0  0  0  0  0  0  0  0  0  0  0
  141.3840   71.5800  226.4430 C   0  0  0  0  0  0  0  0  0  0  0  0
  140.7910   71.8570  227.8010 C   0  0  0  0  0  0  0  0  0  0  0  0
  140.1110   70.6040  228.3110 C   0  0  0  0  0  0  0  0  0  0  0  0
  140.7800   69.3560  227.7570 C   0  0  0  0  0  0  0  0  0  0  0  0
  140.5740   69.3150  226.2320 C   0  0  0  0  0  0  0  0  0  0  0  0
  141.9480   72.3480  221.2010 N   0  0  0  0  0  0  0  0  0  0  0  0
  142.9240   73.1420  220.7340 C   0  0  0  0  0  0  0  0  0  0  0  0
  144.1500   72.6320  220.2450 N   0  0  0  0  0  0  0  0  0  0  0  0
  145.3240   73.4380  219.9910 C   0  0  0  0  0  0  0  0  0  0  0  0
  145.5850   73.3930  218.5050 C   0  0  0  0  0  0  0  0  0  0  0  0
  145.5710   72.0450  218.0500 N   0  0  0  0  0  0  0  0  0  0  0  0
  145.5110   71.0290  219.0490 C   0  0  0  0  0  0  0  0  0  0  0  0
  144.2930   71.1960  219.9610 C   0  0  0  0  0  0  0  0  0  0  0  0
  142.7140   74.4690  220.7380 N   0  0  0  0  0  0  0  0  0  0  0  0
  140.7160   76.9620  222.4310 C   0  0  0  0  0  0  0  0  0  0  0  0
  143.0499   81.7322  222.9831 H   0  0  0  0  0  0  0  0  0  0  0  0
  142.7530   80.2846  224.9757 H   0  0  0  0  0  0  0  0  0  0  0  0
  141.6709   78.0545  224.7873 H   0  0  0  0  0  0  0  0  0  0  0  0
  142.2659   80.9463  220.7688 H   0  0  0  0  0  0  0  0  0  0  0  0
  139.9359   78.4971  220.2325 H   0  0  0  0  0  0  0  0  0  0  0  0
  141.3435   79.1905  219.3927 H   0  0  0  0  0  0  0  0  0  0  0  0
  141.1802   76.6769  219.1713 H   0  0  0  0  0  0  0  0  0  0  0  0
  142.7027   77.2155  219.9568 H   0  0  0  0  0  0  0  0  0  0  0  0
  139.2220   71.4390  221.4400 H   0  0  0  0  0  0  0  0  0  0  0  0
  139.8179   72.8776  223.9979 H   0  0  0  0  0  0  0  0  0  0  0  0
  138.5520   71.5766  223.7735 H   0  0  0  0  0  0  0  0  0  0  0  0
  140.2656   69.9137  223.7587 H   0  0  0  0  0  0  0  0  0  0  0  0
  141.4851   71.2899  224.0917 H   0  0  0  0  0  0  0  0  0  0  0  0
  139.3076   70.9469  225.8652 H   0  0  0  0  0  0  0  0  0  0  0  0
  142.3440   71.0532  226.5474 H   0  0  0  0  0  0  0  0  0  0  0  0
  141.5769   72.5137  225.8943 H   0  0  0  0  0  0  0  0  0  0  0  0
  141.5892   72.1523  228.4979 H   0  0  0  0  0  0  0  0  0  0  0  0
  140.0561   72.6719  227.7247 H   0  0  0  0  0  0  0  0  0  0  0  0
  140.1685   70.5853  229.4093 H   0  0  0  0  0  0  0  0  0  0  0  0
  139.0621   70.6153  227.9798 H   0  0  0  0  0  0  0  0  0  0  0  0
  141.8561   69.3823  227.9837 H   0  0  0  0  0  0  0  0  0  0  0  0
  140.3372   68.4603  228.2171 H   0  0  0  0  0  0  0  0  0  0  0  0
  141.4638   68.8739  225.7589 H   0  0  0  0  0  0  0  0  0  0  0  0
  139.6842   68.7072  226.0109 H   0  0  0  0  0  0  0  0  0  0  0  0
  145.1452   74.4752  220.3107 H   0  0  0  0  0  0  0  0  0  0  0  0
  146.1894   73.0536  220.5507 H   0  0  0  0  0  0  0  0  0  0  0  0
  144.8040   73.9629  217.9804 H   0  0  0  0  0  0  0  0  0  0  0  0
  146.5710   73.8343  218.2976 H   0  0  0  0  0  0  0  0  0  0  0  0
  146.4150   71.8540  217.4660 H   0  0  0  0  0  0  0  0  0  0  0  0
  145.4536   70.0477  218.5552 H   0  0  0  0  0  0  0  0  0  0  0  0
  146.4153   71.1081  219.6703 H   0  0  0  0  0  0  0  0  0  0  0  0
  143.3907   70.8209  219.4558 H   0  0  0  0  0  0  0  0  0  0  0  0
  144.4247   70.6269  220.8931 H   0  0  0  0  0  0  0  0  0  0  0  0
  139.6328   77.1020  222.3008 H   0  0  0  0  0  0  0  0  0  0  0  0
  140.8802   76.3013  223.2950 H   0  0  0  0  0  0  0  0  0  0  0  0
  1  2  2  0
  2  3  1  0
  3  4  2  0
  4  5  1  0
  5  6  2  0
  5  7  1  0
  7  8  1  0
  8  9  1  0
  9 10  1  0
 10 11  2  0
 11 12  1  0
 12 13  1  0
 13 14  1  0
 14 15  1  0
 15 16  1  0
 16 17  1  0
 17 18  1  0
 18 19  1  0
 19 20  1  0
 20 21  1  0
 12 22  2  0
 22 23  1  0
 23 24  1  0
 24 25  1  0
 25 26  1  0
 26 27  1  0
 27 28  1  0
 28 29  1  0
 23 30  2  0
  9 31  1  0
  6  1  1  0
 30 10  1  0
 31  4  1  0
 21 16  1  0
 29 24  1  0
  1 32  1  0
  2 33  1  0
  3 34  1  0
  6 35  1  0
  7 36  1  0
  7 37  1  0
  8 38  1  0
  8 39  1  0
 13 40  1  0
 14 41  1  0
 14 42  1  0
 15 43  1  0
 15 44  1  0
 16 45  1  0
 17 46  1  0
 17 47  1  0
 18 48  1  0
 18 49  1  0
 19 50  1  0
 19 51  1  0
 20 52  1  0
 20 53  1  0
 21 54  1  0
 21 55  1  0
 25 56  1  0
 25 57  1  0
 26 58  1  0
 26 59  1  0
 27 60  1  0
 28 61  1  0
 28 62  1  0
 29 63  1  0
 29 64  1  0
 31 65  1  0
 31 66  1  0
M  END
>  <smiles>  (20) 
c1ccc2c(c1)CCN(c1nc(NCCC3CCCCC3)nc(N3CCNCC3)n1)C2

>  <score_type>  (20) 
oracle

>  <origin>  (20) 
autodockgpu

>  <m_score__min__energy>  (20) 
-10.369999999999999

>  <m_primary>  (20) 
energy

>  <rmsd>  (20) 
5.097870197995958

>  <m_score__min__rmsd>  (20) 
5.097870197995958

>  <meeko>  (20) 
{"free_energy": -9.69, "intermolecular_energy": -11.48, "internal_energy": -0.96, "cluster_size": 42, "cluster_id": 1, "rank_in_cluster": 27}

>  <energy>  (20) 
-9.79

>  <cluster_rmsd>  (20) 
1.07

>  <cluster>  (20) 
1

$$$$

     RDKit          3D

 66 70  0  0  0  0  0  0  0  0999 V2000
  141.4640   81.3070  221.7940 C   0  0  0  0  0  0  0  0  0  0  0  0
  142.5720   80.6740  222.3450 C   0  0  0  0  0  0  0  0  0  0  0  0
  142.5190   79.3680  222.7800 C   0  0  0  0  0  0  0  0  0  0  0  0
  141.3160   78.7120  222.6440 C   0  0  0  0  0  0  0  0  0  0  0  0
  140.1870   79.3050  222.1020 C   0  0  0  0  0  0  0  0  0  0  0  0
  140.2810   80.6120  221.6780 C   0  0  0  0  0  0  0  0  0  0  0  0
  138.9420   78.5000  222.0050 C   0  0  0  0  0  0  0  0  0  0  0  0
  139.3050   77.1950  221.3320 C   0  0  0  0  0  0  0  0  0  0  0  0
  140.3850   76.5800  222.0370 N   0  0  0  0  0  0  0  0  0  0  0  0
  140.7620   75.2270  221.7210 C   0  0  0  0  0  0  0  0  0  0  0  0
  139.8970   74.2540  222.0630 N   0  0  0  0  0  0  0  0  0  0  0  0
  140.2380   72.9880  221.7720 C   0  0  0  0  0  0  0  0  0  0  0  0
  139.3250   71.9250  222.1300 N   0  0  0  0  0  0  0  0  0  0  0  0
  139.3070   71.5330  223.4960 C   0  0  0  0  0  0  0  0  0  0  0  0
  140.6570   71.4670  224.1190 C   0  0  0  0  0  0  0  0  0  0  0  0
  140.7850   70.9010  225.4780 C   0  0  0  0  0  0  0  0  0  0  0  0
  139.5290   70.0740  225.8480 C   0  0  0  0  0  0  0  0  0  0  0  0
  139.9810   69.0310  226.8390 C   0  0  0  0  0  0  0  0  0  0  0  0
  140.9900   69.6490  227.7840 C   0  0  0  0  0  0  0  0  0  0  0  0
  140.7330   71.1380  227.9580 C   0  0  0  0  0  0  0  0  0  0  0  0
  140.9770   71.8470  226.6150 C   0  0  0  0  0  0  0  0  0  0  0  0
  141.4110   72.7350  221.1600 N   0  0  0  0  0  0  0  0  0  0  0  0
  142.2730   73.7050  220.8190 C   0  0  0  0  0  0  0  0  0  0  0  0
  143.5050   73.4340  220.1750 N   0  0  0  0  0  0  0  0  0  0  0  0
  143.6700   72.4750  219.1040 C   0  0  0  0  0  0  0  0  0  0  0  0
  144.5680   71.3780  219.6210 C   0  0  0  0  0  0  0  0  0  0  0  0
  145.7300   71.9410  220.2180 N   0  0  0  0  0  0  0  0  0  0  0  0
  145.9190   73.3450  220.0570 C   0  0  0  0  0  0  0  0  0  0  0  0
  144.7250   74.1470  220.5820 C   0  0  0  0  0  0  0  0  0  0  0  0
  141.9420   74.9740  221.1060 N   0  0  0  0  0  0  0  0  0  0  0  0
  141.1370   77.2820  223.0830 C   0  0  0  0  0  0  0  0  0  0  0  0
  141.5314   82.3511  221.4545 H   0  0  0  0  0  0  0  0  0  0  0  0
  143.5163   81.2307  222.4361 H   0  0  0  0  0  0  0  0  0  0  0  0
  143.3982   78.8715  223.2164 H   0  0  0  0  0  0  0  0  0  0  0  0
  139.4007   81.1065  221.2415 H   0  0  0  0  0  0  0  0  0  0  0  0
  138.5390   78.3065  223.0101 H   0  0  0  0  0  0  0  0  0  0  0  0
  138.1739   79.0364  221.4286 H   0  0  0  0  0  0  0  0  0  0  0  0
  138.4333   76.5240  221.3388 H   0  0  0  0  0  0  0  0  0  0  0  0
  139.6092   77.3903  220.2931 H   0  0  0  0  0  0  0  0  0  0  0  0
  138.7810   71.5370  221.3450 H   0  0  0  0  0  0  0  0  0  0  0  0
  138.7009   72.2593  224.0574 H   0  0  0  0  0  0  0  0  0  0  0  0
  138.8869   70.5170  223.5326 H   0  0  0  0  0  0  0  0  0  0  0  0
  141.2907   70.8608  223.4549 H   0  0  0  0  0  0  0  0  0  0  0  0
  140.9466   72.5212  224.2406 H   0  0  0  0  0  0  0  0  0  0  0  0
  141.7126   70.3180  225.3796 H   0  0  0  0  0  0  0  0  0  0  0  0
  138.7659   70.7238  226.3014 H   0  0  0  0  0  0  0  0  0  0  0  0
  139.0815   69.6093  224.9570 H   0  0  0  0  0  0  0  0  0  0  0  0
  139.1150   68.6672  227.4115 H   0  0  0  0  0  0  0  0  0  0  0  0
  140.4424   68.1875  226.3045 H   0  0  0  0  0  0  0  0  0  0  0  0
  140.9155   69.1542  228.7636 H   0  0  0  0  0  0  0  0  0  0  0  0
  141.9959   69.5142  227.3597 H   0  0  0  0  0  0  0  0  0  0  0  0
  139.6923   71.2982  228.2762 H   0  0  0  0  0  0  0  0  0  0  0  0
  141.4104   71.5458  228.7227 H   0  0  0  0  0  0  0  0  0  0  0  0
  140.2686   72.6823  226.5135 H   0  0  0  0  0  0  0  0  0  0  0  0
  142.0116   72.2200  226.5944 H   0  0  0  0  0  0  0  0  0  0  0  0
  142.6931   72.0585  218.8174 H   0  0  0  0  0  0  0  0  0  0  0  0
  144.1095   72.9532  218.2162 H   0  0  0  0  0  0  0  0  0  0  0  0
  144.0240   70.7851  220.3711 H   0  0  0  0  0  0  0  0  0  0  0  0
  144.8694   70.7330  218.7825 H   0  0  0  0  0  0  0  0  0  0  0  0
  146.5860   71.4700  219.8510 H   0  0  0  0  0  0  0  0  0  0  0  0
  146.8209   73.6478  220.6091 H   0  0  0  0  0  0  0  0  0  0  0  0
  146.0228   73.5534  218.9819 H   0  0  0  0  0  0  0  0  0  0  0  0
  144.7717   74.2169  221.6788 H   0  0  0  0  0  0  0  0  0  0  0  0
  144.7330   75.1685  220.1740 H   0  0  0  0  0  0  0  0  0  0  0  0
  140.5791   77.2489  224.0305 H   0  0  0  0  0  0  0  0  0  0  0  0
  142.1152   76.8035  223.2383 H   0  0  0  0  0  0  0  0  0  0  0  0
  1  2  2  0
  2  3  1  0
  3  4  2  0
  4  5  1  0
  5  6  2  0
  5  7  1  0
  7  8  1  0
  8  9  1  0
  9 10  1  0
 10 11  2  0
 11 12  1  0
 12 13  1  0
 13 14  1  0
 14 15  1  0
 15 16  1  0
 16 17  1  0
 17 18  1  0
 18 19  1  0
 19 20  1  0
 20 21  1  0
 12 22  2  0
 22 23  1  0
 23 24  1  0
 24 25  1  0
 25 26  1  0
 26 27  1  0
 27 28  1  0
 28 29  1  0
 23 30  2  0
  9 31  1  0
  6  1  1  0
 30 10  1  0
 31  4  1  0
 21 16  1  0
 29 24  1  0
  1 32  1  0
  2 33  1  0
  3 34  1  0
  6 35  1  0
  7 36  1  0
  7 37  1  0
  8 38  1  0
  8 39  1  0
 13 40  1  0
 14 41  1  0
 14 42  1  0
 15 43  1  0
 15 44  1  0
 16 45  1  0
 17 46  1  0
 17 47  1  0
 18 48  1  0
 18 49  1  0
 19 50  1  0
 19 51  1  0
 20 52  1  0
 20 53  1  0
 21 54  1  0
 21 55  1  0
 25 56  1  0
 25 57  1  0
 26 58  1  0
 26 59  1  0
 27 60  1  0
 28 61  1  0
 28 62  1  0
 29 63  1  0
 29 64  1  0
 31 65  1  0
 31 66  1  0
M  END
>  <smiles>  (21) 
c1ccc2c(c1)CCN(c1nc(NCCC3CCCCC3)nc(N3CCNCC3)n1)C2

>  <score_type>  (21) 
oracle

>  <origin>  (21) 
autodockgpu

>  <m_score__min__energy>  (21) 
-10.369999999999999

>  <m_primary>  (21) 
energy

>  <rmsd>  (21) 
4.763440350765781

>  <m_score__min__rmsd>  (21) 
4.763440350765781

>  <meeko>  (21) 
{"free_energy": -9.15, "intermolecular_energy": -10.94, "internal_energy": -1.07, "cluster_size": 42, "cluster_id": 1, "rank_in_cluster": 41}

>  <energy>  (21) 
-9.79

>  <cluster_rmsd>  (21) 
0.65

>  <cluster>  (21) 
1

$$$$

     RDKit          3D

 66 70  0  0  0  0  0  0  0  0999 V2000
  142.5210   80.8610  222.6940 C   0  0  0  0  0  0  0  0  0  0  0  0
  142.2460   80.1550  223.8590 C   0  0  0  0  0  0  0  0  0  0  0  0
  141.5890   78.9450  223.8350 C   0  0  0  0  0  0  0  0  0  0  0  0
  141.2150   78.4600  222.6030 C   0  0  0  0  0  0  0  0  0  0  0  0
  141.4690   79.1310  221.4170 C   0  0  0  0  0  0  0  0  0  0  0  0
  142.1290   80.3380  221.4820 C   0  0  0  0  0  0  0  0  0  0  0  0
  141.0180   78.5120  220.1440 C   0  0  0  0  0  0  0  0  0  0  0  0
  141.5250   77.0860  220.1360 C   0  0  0  0  0  0  0  0  0  0  0  0
  141.1010   76.4250  221.3290 N   0  0  0  0  0  0  0  0  0  0  0  0
  141.2710   75.0000  221.4500 C   0  0  0  0  0  0  0  0  0  0  0  0
  140.3400   74.3280  222.1530 N   0  0  0  0  0  0  0  0  0  0  0  0
  140.4880   72.9990  222.2730 C   0  0  0  0  0  0  0  0  0  0  0  0
  139.5010   72.2560  223.0240 N   0  0  0  0  0  0  0  0  0  0  0  0
  139.9210   71.0160  223.5770 C   0  0  0  0  0  0  0  0  0  0  0  0
  141.0380   71.1420  224.5510 C   0  0  0  0  0  0  0  0  0  0  0  0
  140.8960   70.5110  225.8800 C   0  0  0  0  0  0  0  0  0  0  0  0
  139.7010   69.5270  225.8940 C   0  0  0  0  0  0  0  0  0  0  0  0
  140.0210   68.4820  226.9330 C   0  0  0  0  0  0  0  0  0  0  0  0
  140.6800   69.1500  228.1220 C   0  0  0  0  0  0  0  0  0  0  0  0
  140.2050   70.5860  228.2730 C   0  0  0  0  0  0  0  0  0  0  0  0
  140.6830   71.4000  227.0570 C   0  0  0  0  0  0  0  0  0  0  0  0
  141.5430   72.3900  221.6970 N   0  0  0  0  0  0  0  0  0  0  0  0
  142.4720   73.0590  220.9960 C   0  0  0  0  0  0  0  0  0  0  0  0
  143.5780   72.4150  220.3930 N   0  0  0  0  0  0  0  0  0  0  0  0
  144.9500   72.5810  220.8210 C   0  0  0  0  0  0  0  0  0  0  0  0
  145.6930   73.2530  219.6920 C   0  0  0  0  0  0  0  0  0  0  0  0
  145.4380   72.5720  218.4700 N   0  0  0  0  0  0  0  0  0  0  0  0
  144.7270   71.3390  218.5560 C   0  0  0  0  0  0  0  0  0  0  0  0
  143.3750   71.5060  219.2540 C   0  0  0  0  0  0  0  0  0  0  0  0
  142.3320   74.3890  220.8720 N   0  0  0  0  0  0  0  0  0  0  0  0
  140.4920   77.1470  222.4510 C   0  0  0  0  0  0  0  0  0  0  0  0
  143.0458   81.8266  222.7395 H   0  0  0  0  0  0  0  0  0  0  0  0
  142.5615   80.5738  224.8260 H   0  0  0  0  0  0  0  0  0  0  0  0
  141.3727   78.3906  224.7601 H   0  0  0  0  0  0  0  0  0  0  0  0
  142.3454   80.8903  220.5556 H   0  0  0  0  0  0  0  0  0  0  0  0
  139.9195   78.5218  220.0885 H   0  0  0  0  0  0  0  0  0  0  0  0
  141.4068   79.0697  219.2792 H   0  0  0  0  0  0  0  0  0  0  0  0
  141.1205   76.5576  219.2601 H   0  0  0  0  0  0  0  0  0  0  0  0
  142.6239   77.0870  220.0873 H   0  0  0  0  0  0  0  0  0  0  0  0
  138.5700   72.6960  223.0700 H   0  0  0  0  0  0  0  0  0  0  0  0
  139.0633   70.5566  224.0901 H   0  0  0  0  0  0  0  0  0  0  0  0
  140.2904   70.4013  222.7429 H   0  0  0  0  0  0  0  0  0  0  0  0
  141.9301   70.7048  224.0788 H   0  0  0  0  0  0  0  0  0  0  0  0
  141.0807   72.2191  224.7702 H   0  0  0  0  0  0  0  0  0  0  0  0
  141.8841   70.0430  226.0011 H   0  0  0  0  0  0  0  0  0  0  0  0
  138.7749   70.0573  226.1606 H   0  0  0  0  0  0  0  0  0  0  0  0
  139.5485   69.0714  224.9045 H   0  0  0  0  0  0  0  0  0  0  0  0
  139.0930   67.9876  227.2560 H   0  0  0  0  0  0  0  0  0  0  0  0
  140.7019   67.7312  226.5056 H   0  0  0  0  0  0  0  0  0  0  0  0
  140.4278   68.5899  229.0345 H   0  0  0  0  0  0  0  0  0  0  0  0
  141.7682   69.1561  227.9616 H   0  0  0  0  0  0  0  0  0  0  0  0
  139.1064   70.6081  228.3234 H   0  0  0  0  0  0  0  0  0  0  0  0
  140.6164   71.0194  229.1965 H   0  0  0  0  0  0  0  0  0  0  0  0
  139.9234   72.1552  226.8066 H   0  0  0  0  0  0  0  0  0  0  0  0
  141.6362   71.8874  227.3097 H   0  0  0  0  0  0  0  0  0  0  0  0
  144.9896   73.2081  221.7239 H   0  0  0  0  0  0  0  0  0  0  0  0
  145.4037   71.6083  221.0619 H   0  0  0  0  0  0  0  0  0  0  0  0
  145.3567   74.2967  219.6047 H   0  0  0  0  0  0  0  0  0  0  0  0
  146.7723   73.2257  219.9027 H   0  0  0  0  0  0  0  0  0  0  0  0
  146.3350   72.3770  217.9730 H   0  0  0  0  0  0  0  0  0  0  0  0
  144.5571   70.9550  217.5393 H   0  0  0  0  0  0  0  0  0  0  0  0
  145.3321   70.6377  219.1493 H   0  0  0  0  0  0  0  0  0  0  0  0
  142.6418   71.9359  218.5557 H   0  0  0  0  0  0  0  0  0  0  0  0
  142.9915   70.5335  219.5963 H   0  0  0  0  0  0  0  0  0  0  0  0
  139.4268   77.3284  222.2448 H   0  0  0  0  0  0  0  0  0  0  0  0
  140.5715   76.5562  223.3755 H   0  0  0  0  0  0  0  0  0  0  0  0
  1  2  2  0
  2  3  1  0
  3  4  2  0
  4  5  1  0
  5  6  2  0
  5  7  1  0
  7  8  1  0
  8  9  1  0
  9 10  1  0
 10 11  2  0
 11 12  1  0
 12 13  1  0
 13 14  1  0
 14 15  1  0
 15 16  1  0
 16 17  1  0
 17 18  1  0
 18 19  1  0
 19 20  1  0
 20 21  1  0
 12 22  2  0
 22 23  1  0
 23 24  1  0
 24 25  1  0
 25 26  1  0
 26 27  1  0
 27 28  1  0
 28 29  1  0
 23 30  2  0
  9 31  1  0
  6  1  1  0
 30 10  1  0
 31  4  1  0
 21 16  1  0
 29 24  1  0
  1 32  1  0
  2 33  1  0
  3 34  1  0
  6 35  1  0
  7 36  1  0
  7 37  1  0
  8 38  1  0
  8 39  1  0
 13 40  1  0
 14 41  1  0
 14 42  1  0
 15 43  1  0
 15 44  1  0
 16 45  1  0
 17 46  1  0
 17 47  1  0
 18 48  1  0
 18 49  1  0
 19 50  1  0
 19 51  1  0
 20 52  1  0
 20 53  1  0
 21 54  1  0
 21 55  1  0
 25 56  1  0
 25 57  1  0
 26 58  1  0
 26 59  1  0
 27 60  1  0
 28 61  1  0
 28 62  1  0
 29 63  1  0
 29 64  1  0
 31 65  1  0
 31 66  1  0
M  END
>  <smiles>  (22) 
c1ccc2c(c1)CCN(c1nc(NCCC3CCCCC3)nc(N3CCNCC3)n1)C2

>  <score_type>  (22) 
oracle

>  <origin>  (22) 
autodockgpu

>  <m_score__min__energy>  (22) 
-10.369999999999999

>  <m_primary>  (22) 
energy

>  <rmsd>  (22) 
4.988208417268317

>  <m_score__min__rmsd>  (22) 
4.988208417268317

>  <meeko>  (22) 
{"free_energy": -10.27, "intermolecular_energy": -12.06, "internal_energy": -1.0, "cluster_size": 42, "cluster_id": 1, "rank_in_cluster": 6}

>  <energy>  (22) 
-9.74

>  <cluster_rmsd>  (22) 
0.6

>  <cluster>  (22) 
1

$$$$

     RDKit          3D

 66 70  0  0  0  0  0  0  0  0999 V2000
  142.5210   81.0190  222.8810 C   0  0  0  0  0  0  0  0  0  0  0  0
  142.4110   80.2200  224.0120 C   0  0  0  0  0  0  0  0  0  0  0  0
  141.7990   78.9870  223.9720 C   0  0  0  0  0  0  0  0  0  0  0  0
  141.2990   78.5760  222.7570 C   0  0  0  0  0  0  0  0  0  0  0  0
  141.3870   79.3410  221.6050 C   0  0  0  0  0  0  0  0  0  0  0  0
  142.0070   80.5680  221.6860 C   0  0  0  0  0  0  0  0  0  0  0  0
  140.8110   78.7960  220.3490 C   0  0  0  0  0  0  0  0  0  0  0  0
  141.3630   77.3980  220.1730 C   0  0  0  0  0  0  0  0  0  0  0  0
  141.1070   76.6350  221.3530 N   0  0  0  0  0  0  0  0  0  0  0  0
  141.3400   75.2130  221.3440 C   0  0  0  0  0  0  0  0  0  0  0  0
  140.4810   74.4460  222.0410 N   0  0  0  0  0  0  0  0  0  0  0  0
  140.6900   73.1200  222.0400 C   0  0  0  0  0  0  0  0  0  0  0  0
  139.7800   72.2750  222.7820 N   0  0  0  0  0  0  0  0  0  0  0  0
  140.3390   71.5180  223.8470 C   0  0  0  0  0  0  0  0  0  0  0  0
  139.3820   70.5680  224.4750 C   0  0  0  0  0  0  0  0  0  0  0  0
  139.6720   70.0610  225.8330 C   0  0  0  0  0  0  0  0  0  0  0  0
  140.8380   70.8530  226.4760 C   0  0  0  0  0  0  0  0  0  0  0  0
  140.6240   70.7900  227.9670 C   0  0  0  0  0  0  0  0  0  0  0  0
  140.1320   69.4080  228.3410 C   0  0  0  0  0  0  0  0  0  0  0  0
  140.6540   68.3620  227.3690 C   0  0  0  0  0  0  0  0  0  0  0  0
  140.0490   68.6260  225.9790 C   0  0  0  0  0  0  0  0  0  0  0  0
  141.7300   72.6070  221.3550 N   0  0  0  0  0  0  0  0  0  0  0  0
  142.5870   73.3720  220.6600 C   0  0  0  0  0  0  0  0  0  0  0  0
  143.6790   72.8280  219.9420 N   0  0  0  0  0  0  0  0  0  0  0  0
  144.9560   72.4930  220.5330 C   0  0  0  0  0  0  0  0  0  0  0  0
  145.9870   73.4080  219.9190 C   0  0  0  0  0  0  0  0  0  0  0  0
  145.8660   73.3940  218.5020 N   0  0  0  0  0  0  0  0  0  0  0  0
  144.9780   72.4300  217.9410 C   0  0  0  0  0  0  0  0  0  0  0  0
  143.5590   72.5670  218.5000 C   0  0  0  0  0  0  0  0  0  0  0  0
  142.3870   74.7000  220.6560 N   0  0  0  0  0  0  0  0  0  0  0  0
  140.6100   77.2470  222.5890 C   0  0  0  0  0  0  0  0  0  0  0  0
  143.0132   82.0010  222.9395 H   0  0  0  0  0  0  0  0  0  0  0  0
  142.8238   80.5819  224.9652 H   0  0  0  0  0  0  0  0  0  0  0  0
  141.7135   78.3586  224.8708 H   0  0  0  0  0  0  0  0  0  0  0  0
  142.0925   81.1947  220.7860 H   0  0  0  0  0  0  0  0  0  0  0  0
  139.7139   78.7616  220.4214 H   0  0  0  0  0  0  0  0  0  0  0  0
  141.0753   79.4310  219.4906 H   0  0  0  0  0  0  0  0  0  0  0  0
  140.8761   76.9168  219.3120 H   0  0  0  0  0  0  0  0  0  0  0  0
  142.4476   77.4506  219.9975 H   0  0  0  0  0  0  0  0  0  0  0  0
  138.8040   72.2900  222.4500 H   0  0  0  0  0  0  0  0  0  0  0  0
  141.1908   70.9434  223.4543 H   0  0  0  0  0  0  0  0  0  0  0  0
  140.6379   72.2341  224.6267 H   0  0  0  0  0  0  0  0  0  0  0  0
  138.4063   71.0739  224.5200 H   0  0  0  0  0  0  0  0  0  0  0  0
  139.4383   69.6727  223.8384 H   0  0  0  0  0  0  0  0  0  0  0  0
  138.6956   70.1917  226.3224 H   0  0  0  0  0  0  0  0  0  0  0  0
  141.8017   70.3941  226.2103 H   0  0  0  0  0  0  0  0  0  0  0  0
  140.8578   71.8935  226.1195 H   0  0  0  0  0  0  0  0  0  0  0  0
  141.5730   70.9951  228.4839 H   0  0  0  0  0  0  0  0  0  0  0  0
  139.8780   71.5413  228.2655 H   0  0  0  0  0  0  0  0  0  0  0  0
  140.4823   69.1636  229.3547 H   0  0  0  0  0  0  0  0  0  0  0  0
  139.0327   69.4050  228.3019 H   0  0  0  0  0  0  0  0  0  0  0  0
  141.7507   68.4255  227.3123 H   0  0  0  0  0  0  0  0  0  0  0  0
  140.3687   67.3574  227.7145 H   0  0  0  0  0  0  0  0  0  0  0  0
  140.7892   68.3667  225.2077 H   0  0  0  0  0  0  0  0  0  0  0  0
  139.1456   68.0092  225.8632 H   0  0  0  0  0  0  0  0  0  0  0  0
  144.9185   72.6447  221.6218 H   0  0  0  0  0  0  0  0  0  0  0  0
  145.2084   71.4390  220.3447 H   0  0  0  0  0  0  0  0  0  0  0  0
  145.8310   74.4325  220.2880 H   0  0  0  0  0  0  0  0  0  0  0  0
  146.9921   73.0600  220.1995 H   0  0  0  0  0  0  0  0  0  0  0  0
  146.8020   73.2430  218.0630 H   0  0  0  0  0  0  0  0  0  0  0  0
  144.9454   72.5689  216.8503 H   0  0  0  0  0  0  0  0  0  0  0  0
  145.3521   71.4292  218.2025 H   0  0  0  0  0  0  0  0  0  0  0  0
  143.0401   73.4030  218.0083 H   0  0  0  0  0  0  0  0  0  0  0  0
  142.9790   71.6503  218.3177 H   0  0  0  0  0  0  0  0  0  0  0  0
  139.5222   77.3959  222.5212 H   0  0  0  0  0  0  0  0  0  0  0  0
  140.8190   76.5954  223.4502 H   0  0  0  0  0  0  0  0  0  0  0  0
  1  2  2  0
  2  3  1  0
  3  4  2  0
  4  5  1  0
  5  6  2  0
  5  7  1  0
  7  8  1  0
  8  9  1  0
  9 10  1  0
 10 11  2  0
 11 12  1  0
 12 13  1  0
 13 14  1  0
 14 15  1  0
 15 16  1  0
 16 17  1  0
 17 18  1  0
 18 19  1  0
 19 20  1  0
 20 21  1  0
 12 22  2  0
 22 23  1  0
 23 24  1  0
 24 25  1  0
 25 26  1  0
 26 27  1  0
 27 28  1  0
 28 29  1  0
 23 30  2  0
  9 31  1  0
  6  1  1  0
 30 10  1  0
 31  4  1  0
 21 16  1  0
 29 24  1  0
  1 32  1  0
  2 33  1  0
  3 34  1  0
  6 35  1  0
  7 36  1  0
  7 37  1  0
  8 38  1  0
  8 39  1  0
 13 40  1  0
 14 41  1  0
 14 42  1  0
 15 43  1  0
 15 44  1  0
 16 45  1  0
 17 46  1  0
 17 47  1  0
 18 48  1  0
 18 49  1  0
 19 50  1  0
 19 51  1  0
 20 52  1  0
 20 53  1  0
 21 54  1  0
 21 55  1  0
 25 56  1  0
 25 57  1  0
 26 58  1  0
 26 59  1  0
 27 60  1  0
 28 61  1  0
 28 62  1  0
 29 63  1  0
 29 64  1  0
 31 65  1  0
 31 66  1  0
M  END
>  <smiles>  (23) 
c1ccc2c(c1)CCN(c1nc(NCCC3CCCCC3)nc(N3CCNCC3)n1)C2

>  <score_type>  (23) 
oracle

>  <origin>  (23) 
autodockgpu

>  <m_score__min__energy>  (23) 
-10.369999999999999

>  <m_primary>  (23) 
energy

>  <rmsd>  (23) 
5.1342103377423385

>  <m_score__min__rmsd>  (23) 
5.1342103377423385

>  <meeko>  (23) 
{"free_energy": -10.04, "intermolecular_energy": -11.83, "internal_energy": -0.85, "cluster_size": 42, "cluster_id": 1, "rank_in_cluster": 14}

>  <energy>  (23) 
-9.72

>  <cluster_rmsd>  (23) 
0.84

>  <cluster>  (23) 
1

$$$$

     RDKit          3D

 66 70  0  0  0  0  0  0  0  0999 V2000
  140.7880   67.6360  227.2540 C   0  0  0  0  0  0  0  0  0  0  0  0
  140.0810   67.1640  226.1550 C   0  0  0  0  0  0  0  0  0  0  0  0
  139.5230   68.0190  225.2300 C   0  0  0  0  0  0  0  0  0  0  0  0
  139.6980   69.3680  225.4410 C   0  0  0  0  0  0  0  0  0  0  0  0
  140.3950   69.8820  226.5230 C   0  0  0  0  0  0  0  0  0  0  0  0
  140.9380   68.9940  227.4250 C   0  0  0  0  0  0  0  0  0  0  0  0
  140.5190   71.3560  226.6490 C   0  0  0  0  0  0  0  0  0  0  0  0
  141.0230   71.8780  225.3210 C   0  0  0  0  0  0  0  0  0  0  0  0
  140.1670   71.4170  224.2740 N   0  0  0  0  0  0  0  0  0  0  0  0
  140.3120   71.9600  222.9480 C   0  0  0  0  0  0  0  0  0  0  0  0
  140.6820   71.1080  221.9730 N   0  0  0  0  0  0  0  0  0  0  0  0
  140.8190   71.6030  220.7330 C   0  0  0  0  0  0  0  0  0  0  0  0
  141.2170   70.7070  219.6690 N   0  0  0  0  0  0  0  0  0  0  0  0
  141.7960   71.3040  218.5170 C   0  0  0  0  0  0  0  0  0  0  0  0
  143.2830   71.3370  218.5420 C   0  0  0  0  0  0  0  0  0  0  0  0
  143.9570   72.4700  219.2100 C   0  0  0  0  0  0  0  0  0  0  0  0
  144.0780   72.2150  220.7330 C   0  0  0  0  0  0  0  0  0  0  0  0
  145.2920   72.9790  221.1980 C   0  0  0  0  0  0  0  0  0  0  0  0
  145.3450   74.3110  220.4800 C   0  0  0  0  0  0  0  0  0  0  0  0
  143.9490   74.7920  220.1170 C   0  0  0  0  0  0  0  0  0  0  0  0
  143.3380   73.8220  219.0900 C   0  0  0  0  0  0  0  0  0  0  0  0
  140.5880   72.9100  220.5050 N   0  0  0  0  0  0  0  0  0  0  0  0
  140.2190   73.7600  221.4770 C   0  0  0  0  0  0  0  0  0  0  0  0
  139.9760   75.1330  221.2320 N   0  0  0  0  0  0  0  0  0  0  0  0
  141.0140   76.1320  221.0970 C   0  0  0  0  0  0  0  0  0  0  0  0
  140.8650   77.0900  222.2540 C   0  0  0  0  0  0  0  0  0  0  0  0
  139.5130   77.5210  222.3570 N   0  0  0  0  0  0  0  0  0  0  0  0
  138.6350   77.1460  221.2980 C   0  0  0  0  0  0  0  0  0  0  0  0
  138.5980   75.6280  221.0970 C   0  0  0  0  0  0  0  0  0  0  0  0
  140.0790   73.2740  222.7210 N   0  0  0  0  0  0  0  0  0  0  0  0
  139.1350   70.4000  224.4980 C   0  0  0  0  0  0  0  0  0  0  0  0
  141.2230   66.9327  227.9793 H   0  0  0  0  0  0  0  0  0  0  0  0
  139.9637   66.0787  226.0199 H   0  0  0  0  0  0  0  0  0  0  0  0
  138.9629   67.6408  224.3621 H   0  0  0  0  0  0  0  0  0  0  0  0
  141.4980   69.3741  228.2921 H   0  0  0  0  0  0  0  0  0  0  0  0
  139.5387   71.7982  226.8802 H   0  0  0  0  0  0  0  0  0  0  0  0
  141.2118   71.6215  227.4612 H   0  0  0  0  0  0  0  0  0  0  0  0
  141.0249   72.9779  225.3359 H   0  0  0  0  0  0  0  0  0  0  0  0
  142.0458   71.5126  225.1470 H   0  0  0  0  0  0  0  0  0  0  0  0
  141.0220   69.7100  219.8460 H   0  0  0  0  0  0  0  0  0  0  0  0
  141.4764   70.7332  217.6326 H   0  0  0  0  0  0  0  0  0  0  0  0
  141.4524   72.3486  218.4901 H   0  0  0  0  0  0  0  0  0  0  0  0
  143.6187   70.4183  219.0453 H   0  0  0  0  0  0  0  0  0  0  0  0
  143.5654   71.4445  217.4843 H   0  0  0  0  0  0  0  0  0  0  0  0
  144.9129   72.5001  218.6665 H   0  0  0  0  0  0  0  0  0  0  0  0
  143.1785   72.5777  221.2520 H   0  0  0  0  0  0  0  0  0  0  0  0
  144.1753   71.1412  220.9508 H   0  0  0  0  0  0  0  0  0  0  0  0
  145.2275   73.1479  222.2830 H   0  0  0  0  0  0  0  0  0  0  0  0
  146.2011   72.4014  220.9744 H   0  0  0  0  0  0  0  0  0  0  0  0
  145.8220   75.0541  221.1359 H   0  0  0  0  0  0  0  0  0  0  0  0
  145.9239   74.1859  219.5531 H   0  0  0  0  0  0  0  0  0  0  0  0
  143.3210   74.8175  221.0198 H   0  0  0  0  0  0  0  0  0  0  0  0
  144.0035   75.8032  219.6875 H   0  0  0  0  0  0  0  0  0  0  0  0
  142.2557   73.7410  219.2690 H   0  0  0  0  0  0  0  0  0  0  0  0
  143.5291   74.2104  218.0788 H   0  0  0  0  0  0  0  0  0  0  0  0
  142.0040   75.6535  221.1290 H   0  0  0  0  0  0  0  0  0  0  0  0
  140.9234   76.6619  220.1373 H   0  0  0  0  0  0  0  0  0  0  0  0
  141.1583   76.5844  223.1858 H   0  0  0  0  0  0  0  0  0  0  0  0
  141.5111   77.9641  222.0850 H   0  0  0  0  0  0  0  0  0  0  0  0
  139.4720   78.5610  222.4380 H   0  0  0  0  0  0  0  0  0  0  0  0
  137.6203   77.4980  221.5358 H   0  0  0  0  0  0  0  0  0  0  0  0
  139.0062   77.6039  220.3692 H   0  0  0  0  0  0  0  0  0  0  0  0
  137.9552   75.1633  221.8592 H   0  0  0  0  0  0  0  0  0  0  0  0
  138.1904   75.3771  220.1066 H   0  0  0  0  0  0  0  0  0  0  0  0
  138.2425   70.8648  224.9424 H   0  0  0  0  0  0  0  0  0  0  0  0
  138.8459   69.9314  223.5457 H   0  0  0  0  0  0  0  0  0  0  0  0
  1  2  2  0
  2  3  1  0
  3  4  2  0
  4  5  1  0
  5  6  2  0
  5  7  1  0
  7  8  1  0
  8  9  1  0
  9 10  1  0
 10 11  2  0
 11 12  1  0
 12 13  1  0
 13 14  1  0
 14 15  1  0
 15 16  1  0
 16 17  1  0
 17 18  1  0
 18 19  1  0
 19 20  1  0
 20 21  1  0
 12 22  2  0
 22 23  1  0
 23 24  1  0
 24 25  1  0
 25 26  1  0
 26 27  1  0
 27 28  1  0
 28 29  1  0
 23 30  2  0
  9 31  1  0
  6  1  1  0
 30 10  1  0
 31  4  1  0
 21 16  1  0
 29 24  1  0
  1 32  1  0
  2 33  1  0
  3 34  1  0
  6 35  1  0
  7 36  1  0
  7 37  1  0
  8 38  1  0
  8 39  1  0
 13 40  1  0
 14 41  1  0
 14 42  1  0
 15 43  1  0
 15 44  1  0
 16 45  1  0
 17 46  1  0
 17 47  1  0
 18 48  1  0
 18 49  1  0
 19 50  1  0
 19 51  1  0
 20 52  1  0
 20 53  1  0
 21 54  1  0
 21 55  1  0
 25 56  1  0
 25 57  1  0
 26 58  1  0
 26 59  1  0
 27 60  1  0
 28 61  1  0
 28 62  1  0
 29 63  1  0
 29 64  1  0
 31 65  1  0
 31 66  1  0
M  END
>  <smiles>  (24) 
c1ccc2c(c1)CCN(c1nc(NCCC3CCCCC3)nc(N3CCNCC3)n1)C2

>  <score_type>  (24) 
oracle

>  <origin>  (24) 
autodockgpu

>  <m_score__min__energy>  (24) 
-10.369999999999999

>  <m_primary>  (24) 
energy

>  <rmsd>  (24) 
11.91961861640901

>  <m_score__min__rmsd>  (24) 
11.91961861640901

>  <meeko>  (24) 
{"free_energy": -7.57, "intermolecular_energy": -9.36, "internal_energy": -1.77, "cluster_size": 1, "cluster_id": 5, "rank_in_cluster": 1}

>  <energy>  (24) 
-9.71

>  <cluster_rmsd>  (24) 
0.92

>  <cluster>  (24) 
1

$$$$

     RDKit          3D

 66 70  0  0  0  0  0  0  0  0999 V2000
  142.5570   81.0670  222.9740 C   0  0  0  0  0  0  0  0  0  0  0  0
  142.4040   80.2740  224.1050 C   0  0  0  0  0  0  0  0  0  0  0  0
  141.7710   79.0520  224.0530 C   0  0  0  0  0  0  0  0  0  0  0  0
  141.2930   78.6470  222.8270 C   0  0  0  0  0  0  0  0  0  0  0  0
  141.4240   79.4060  221.6750 C   0  0  0  0  0  0  0  0  0  0  0  0
  142.0640   80.6220  221.7680 C   0  0  0  0  0  0  0  0  0  0  0  0
  140.8690   78.8680  220.4060 C   0  0  0  0  0  0  0  0  0  0  0  0
  141.4000   77.4600  220.2480 C   0  0  0  0  0  0  0  0  0  0  0  0
  141.1010   76.7040  221.4240 N   0  0  0  0  0  0  0  0  0  0  0  0
  141.3090   75.2790  221.4240 C   0  0  0  0  0  0  0  0  0  0  0  0
  140.3760   74.5230  222.0340 N   0  0  0  0  0  0  0  0  0  0  0  0
  140.5600   73.1930  222.0410 C   0  0  0  0  0  0  0  0  0  0  0  0
  139.5720   72.3610  222.6910 N   0  0  0  0  0  0  0  0  0  0  0  0
  140.0490   71.1800  223.3220 C   0  0  0  0  0  0  0  0  0  0  0  0
  139.2220   70.7410  224.4770 C   0  0  0  0  0  0  0  0  0  0  0  0
  139.9030   70.2080  225.6760 C   0  0  0  0  0  0  0  0  0  0  0  0
  138.9810   69.2250  226.4380 C   0  0  0  0  0  0  0  0  0  0  0  0
  139.8880   68.2590  227.1570 C   0  0  0  0  0  0  0  0  0  0  0  0
  141.0830   69.0120  227.7020 C   0  0  0  0  0  0  0  0  0  0  0  0
  140.7220   70.4550  228.0170 C   0  0  0  0  0  0  0  0  0  0  0  0
  140.3720   71.1800  226.7050 C   0  0  0  0  0  0  0  0  0  0  0  0
  141.6490   72.6660  221.4490 N   0  0  0  0  0  0  0  0  0  0  0  0
  142.5790   73.4190  220.8410 C   0  0  0  0  0  0  0  0  0  0  0  0
  143.7220   72.8600  220.2200 N   0  0  0  0  0  0  0  0  0  0  0  0
  144.9790   72.6180  220.8950 C   0  0  0  0  0  0  0  0  0  0  0  0
  146.0090   73.5180  220.2570 C   0  0  0  0  0  0  0  0  0  0  0  0
  145.9580   73.3880  218.8420 N   0  0  0  0  0  0  0  0  0  0  0  0
  145.1300   72.3510  218.3200 C   0  0  0  0  0  0  0  0  0  0  0  0
  143.6810   72.4810  218.8000 C   0  0  0  0  0  0  0  0  0  0  0  0
  142.4050   74.7500  220.8300 N   0  0  0  0  0  0  0  0  0  0  0  0
  140.5850   77.3300  222.6450 C   0  0  0  0  0  0  0  0  0  0  0  0
  143.0664   82.0396  223.0416 H   0  0  0  0  0  0  0  0  0  0  0  0
  142.7990   80.6319  225.0672 H   0  0  0  0  0  0  0  0  0  0  0  0
  141.6526   78.4275  224.9508 H   0  0  0  0  0  0  0  0  0  0  0  0
  142.1825   81.2445  220.8689 H   0  0  0  0  0  0  0  0  0  0  0  0
  139.7700   78.8537  220.4512 H   0  0  0  0  0  0  0  0  0  0  0  0
  141.1654   79.4956  219.5526 H   0  0  0  0  0  0  0  0  0  0  0  0
  140.9263   76.9850  219.3763 H   0  0  0  0  0  0  0  0  0  0  0  0
  142.4895   77.4931  220.1001 H   0  0  0  0  0  0  0  0  0  0  0  0
  138.6010   72.7010  222.6160 H   0  0  0  0  0  0  0  0  0  0  0  0
  140.0626   70.3703  222.5775 H   0  0  0  0  0  0  0  0  0  0  0  0
  141.0511   71.4085  223.7139 H   0  0  0  0  0  0  0  0  0  0  0  0
  138.6302   71.6100  224.8003 H   0  0  0  0  0  0  0  0  0  0  0  0
  138.6548   69.8824  224.0883 H   0  0  0  0  0  0  0  0  0  0  0  0
  140.7983   69.7523  225.2279 H   0  0  0  0  0  0  0  0  0  0  0  0
  138.3577   69.7714  227.1612 H   0  0  0  0  0  0  0  0  0  0  0  0
  138.3044   68.6983  225.7489 H   0  0  0  0  0  0  0  0  0  0  0  0
  139.3404   67.7876  227.9864 H   0  0  0  0  0  0  0  0  0  0  0  0
  140.2282   67.4806  226.4582 H   0  0  0  0  0  0  0  0  0  0  0  0
  141.4294   68.5190  228.6223 H   0  0  0  0  0  0  0  0  0  0  0  0
  141.8763   69.0081  226.9400 H   0  0  0  0  0  0  0  0  0  0  0  0
  139.8558   70.4793  228.6946 H   0  0  0  0  0  0  0  0  0  0  0  0
  141.5733   70.9543  228.5027 H   0  0  0  0  0  0  0  0  0  0  0  0
  139.5754   71.9134  226.8989 H   0  0  0  0  0  0  0  0  0  0  0  0
  141.2731   71.6866  226.3290 H   0  0  0  0  0  0  0  0  0  0  0  0
  144.8836   72.8539  221.9652 H   0  0  0  0  0  0  0  0  0  0  0  0
  145.2737   71.5621  220.8046 H   0  0  0  0  0  0  0  0  0  0  0  0
  145.8025   74.5622  220.5347 H   0  0  0  0  0  0  0  0  0  0  0  0
  147.0098   73.2291  220.6105 H   0  0  0  0  0  0  0  0  0  0  0  0
  146.9180   73.2370  218.4600 H   0  0  0  0  0  0  0  0  0  0  0  0
  145.1466   72.4017  217.2213 H   0  0  0  0  0  0  0  0  0  0  0  0
  145.5228   71.3881  218.6784 H   0  0  0  0  0  0  0  0  0  0  0  0
  143.1602   73.2561  218.2186 H   0  0  0  0  0  0  0  0  0  0  0  0
  143.1403   71.5325  218.6660 H   0  0  0  0  0  0  0  0  0  0  0  0
  139.5022   77.4982  222.5495 H   0  0  0  0  0  0  0  0  0  0  0  0
  140.7615   76.6778  223.5131 H   0  0  0  0  0  0  0  0  0  0  0  0
  1  2  2  0
  2  3  1  0
  3  4  2  0
  4  5  1  0
  5  6  2  0
  5  7  1  0
  7  8  1  0
  8  9  1  0
  9 10  1  0
 10 11  2  0
 11 12  1  0
 12 13  1  0
 13 14  1  0
 14 15  1  0
 15 16  1  0
 16 17  1  0
 17 18  1  0
 18 19  1  0
 19 20  1  0
 20 21  1  0
 12 22  2  0
 22 23  1  0
 23 24  1  0
 24 25  1  0
 25 26  1  0
 26 27  1  0
 27 28  1  0
 28 29  1  0
 23 30  2  0
  9 31  1  0
  6  1  1  0
 30 10  1  0
 31  4  1  0
 21 16  1  0
 29 24  1  0
  1 32  1  0
  2 33  1  0
  3 34  1  0
  6 35  1  0
  7 36  1  0
  7 37  1  0
  8 38  1  0
  8 39  1  0
 13 40  1  0
 14 41  1  0
 14 42  1  0
 15 43  1  0
 15 44  1  0
 16 45  1  0
 17 46  1  0
 17 47  1  0
 18 48  1  0
 18 49  1  0
 19 50  1  0
 19 51  1  0
 20 52  1  0
 20 53  1  0
 21 54  1  0
 21 55  1  0
 25 56  1  0
 25 57  1  0
 26 58  1  0
 26 59  1  0
 27 60  1  0
 28 61  1  0
 28 62  1  0
 29 63  1  0
 29 64  1  0
 31 65  1  0
 31 66  1  0
M  END
>  <smiles>  (25) 
c1ccc2c(c1)CCN(c1nc(NCCC3CCCCC3)nc(N3CCNCC3)n1)C2

>  <score_type>  (25) 
oracle

>  <origin>  (25) 
autodockgpu

>  <m_score__min__energy>  (25) 
-10.369999999999999

>  <m_primary>  (25) 
energy

>  <rmsd>  (25) 
5.188994989765629

>  <m_score__min__rmsd>  (25) 
5.188994989765629

>  <meeko>  (25) 
{"free_energy": -10.03, "intermolecular_energy": -11.82, "internal_energy": -0.85, "cluster_size": 42, "cluster_id": 1, "rank_in_cluster": 15}

>  <energy>  (25) 
-9.7

>  <cluster_rmsd>  (25) 
0.71

>  <cluster>  (25) 
1

$$$$

     RDKit          3D

 66 70  0  0  0  0  0  0  0  0999 V2000
  142.5140   80.9020  222.7260 C   0  0  0  0  0  0  0  0  0  0  0  0
  142.1670   80.1950  223.8710 C   0  0  0  0  0  0  0  0  0  0  0  0
  141.5030   78.9910  223.8060 C   0  0  0  0  0  0  0  0  0  0  0  0
  141.1960   78.5130  222.5520 C   0  0  0  0  0  0  0  0  0  0  0  0
  141.5220   79.1840  221.3850 C   0  0  0  0  0  0  0  0  0  0  0  0
  142.1870   80.3860  221.4920 C   0  0  0  0  0  0  0  0  0  0  0  0
  141.1400   78.5740  220.0860 C   0  0  0  0  0  0  0  0  0  0  0  0
  141.6350   77.1440  220.1020 C   0  0  0  0  0  0  0  0  0  0  0  0
  141.1380   76.4820  221.2670 N   0  0  0  0  0  0  0  0  0  0  0  0
  141.2900   75.0550  221.3930 C   0  0  0  0  0  0  0  0  0  0  0  0
  140.2870   74.3820  221.9860 N   0  0  0  0  0  0  0  0  0  0  0  0
  140.4170   73.0510  222.1090 C   0  0  0  0  0  0  0  0  0  0  0  0
  139.3530   72.3060  222.7440 N   0  0  0  0  0  0  0  0  0  0  0  0
  139.7370   71.1650  223.4990 C   0  0  0  0  0  0  0  0  0  0  0  0
  140.0280   71.4610  224.9270 C   0  0  0  0  0  0  0  0  0  0  0  0
  139.9730   70.3560  225.9070 C   0  0  0  0  0  0  0  0  0  0  0  0
  141.1160   70.4850  226.9440 C   0  0  0  0  0  0  0  0  0  0  0  0
  140.6230   69.8250  228.2070 C   0  0  0  0  0  0  0  0  0  0  0  0
  139.8440   68.5780  227.8440 C   0  0  0  0  0  0  0  0  0  0  0  0
  140.3520   67.9760  226.5430 C   0  0  0  0  0  0  0  0  0  0  0  0
  140.0680   68.9590  225.3940 C   0  0  0  0  0  0  0  0  0  0  0  0
  141.5250   72.4420  221.6430 N   0  0  0  0  0  0  0  0  0  0  0  0
  142.5250   73.1140  221.0510 C   0  0  0  0  0  0  0  0  0  0  0  0
  143.6880   72.4690  220.5630 N   0  0  0  0  0  0  0  0  0  0  0  0
  145.0370   72.9380  220.7960 C   0  0  0  0  0  0  0  0  0  0  0  0
  145.6110   73.3290  219.4560 C   0  0  0  0  0  0  0  0  0  0  0  0
  145.4050   72.2830  218.5150 N   0  0  0  0  0  0  0  0  0  0  0  0
  144.8990   71.0510  219.0220 C   0  0  0  0  0  0  0  0  0  0  0  0
  143.5720   71.2410  219.7630 C   0  0  0  0  0  0  0  0  0  0  0  0
  142.4040   74.4450  220.9250 N   0  0  0  0  0  0  0  0  0  0  0  0
  140.4720   77.2060  222.3540 C   0  0  0  0  0  0  0  0  0  0  0  0
  143.0438   81.8628  222.8046 H   0  0  0  0  0  0  0  0  0  0  0  0
  142.4300   80.6087  224.8557 H   0  0  0  0  0  0  0  0  0  0  0  0
  141.2299   78.4356  224.7154 H   0  0  0  0  0  0  0  0  0  0  0  0
  142.4597   80.9396  220.5814 H   0  0  0  0  0  0  0  0  0  0  0  0
  140.0466   78.5933  219.9673 H   0  0  0  0  0  0  0  0  0  0  0  0
  141.5821   79.1315  219.2471 H   0  0  0  0  0  0  0  0  0  0  0  0
  141.2770   76.6218  219.2025 H   0  0  0  0  0  0  0  0  0  0  0  0
  142.7349   77.1363  220.1165 H   0  0  0  0  0  0  0  0  0  0  0  0
  138.4040   72.6700  222.5700 H   0  0  0  0  0  0  0  0  0  0  0  0
  138.9198   70.4299  223.4566 H   0  0  0  0  0  0  0  0  0  0  0  0
  140.6684   70.7848  223.0541 H   0  0  0  0  0  0  0  0  0  0  0  0
  141.0436   71.8814  224.9699 H   0  0  0  0  0  0  0  0  0  0  0  0
  139.2100   72.1298  225.2329 H   0  0  0  0  0  0  0  0  0  0  0  0
  138.9594   70.4839  226.3147 H   0  0  0  0  0  0  0  0  0  0  0  0
  142.0206   69.9774  226.5779 H   0  0  0  0  0  0  0  0  0  0  0  0
  141.3763   71.5390  227.1209 H   0  0  0  0  0  0  0  0  0  0  0  0
  141.4810   69.5522  228.8389 H   0  0  0  0  0  0  0  0  0  0  0  0
  139.9729   70.5202  228.7585 H   0  0  0  0  0  0  0  0  0  0  0  0
  139.9546   67.8377  228.6500 H   0  0  0  0  0  0  0  0  0  0  0  0
  138.7866   68.8515  227.7136 H   0  0  0  0  0  0  0  0  0  0  0  0
  141.4349   67.7975  226.6169 H   0  0  0  0  0  0  0  0  0  0  0  0
  139.8419   67.0206  226.3505 H   0  0  0  0  0  0  0  0  0  0  0  0
  140.8832   68.8993  224.6579 H   0  0  0  0  0  0  0  0  0  0  0  0
  139.1102   68.6883  224.9256 H   0  0  0  0  0  0  0  0  0  0  0  0
  145.0226   73.8085  221.4684 H   0  0  0  0  0  0  0  0  0  0  0  0
  145.6470   72.1539  221.2684 H   0  0  0  0  0  0  0  0  0  0  0  0
  145.1137   74.2430  219.0993 H   0  0  0  0  0  0  0  0  0  0  0  0
  146.6906   73.5099  219.5644 H   0  0  0  0  0  0  0  0  0  0  0  0
  146.2970   72.0680  218.0160 H   0  0  0  0  0  0  0  0  0  0  0  0
  144.7414   70.3585  218.1820 H   0  0  0  0  0  0  0  0  0  0  0  0
  145.6333   70.6482  219.7351 H   0  0  0  0  0  0  0  0  0  0  0  0
  142.7484   71.3392  219.0404 H   0  0  0  0  0  0  0  0  0  0  0  0
  143.3595   70.3756  220.4079 H   0  0  0  0  0  0  0  0  0  0  0  0
  139.4220   77.3970  222.0875 H   0  0  0  0  0  0  0  0  0  0  0  0
  140.4936   76.6120  223.2796 H   0  0  0  0  0  0  0  0  0  0  0  0
  1  2  2  0
  2  3  1  0
  3  4  2  0
  4  5  1  0
  5  6  2  0
  5  7  1  0
  7  8  1  0
  8  9  1  0
  9 10  1  0
 10 11  2  0
 11 12  1  0
 12 13  1  0
 13 14  1  0
 14 15  1  0
 15 16  1  0
 16 17  1  0
 17 18  1  0
 18 19  1  0
 19 20  1  0
 20 21  1  0
 12 22  2  0
 22 23  1  0
 23 24  1  0
 24 25  1  0
 25 26  1  0
 26 27  1  0
 27 28  1  0
 28 29  1  0
 23 30  2  0
  9 31  1  0
  6  1  1  0
 30 10  1  0
 31  4  1  0
 21 16  1  0
 29 24  1  0
  1 32  1  0
  2 33  1  0
  3 34  1  0
  6 35  1  0
  7 36  1  0
  7 37  1  0
  8 38  1  0
  8 39  1  0
 13 40  1  0
 14 41  1  0
 14 42  1  0
 15 43  1  0
 15 44  1  0
 16 45  1  0
 17 46  1  0
 17 47  1  0
 18 48  1  0
 18 49  1  0
 19 50  1  0
 19 51  1  0
 20 52  1  0
 20 53  1  0
 21 54  1  0
 21 55  1  0
 25 56  1  0
 25 57  1  0
 26 58  1  0
 26 59  1  0
 27 60  1  0
 28 61  1  0
 28 62  1  0
 29 63  1  0
 29 64  1  0
 31 65  1  0
 31 66  1  0
M  END
>  <smiles>  (26) 
c1ccc2c(c1)CCN(c1nc(NCCC3CCCCC3)nc(N3CCNCC3)n1)C2

>  <score_type>  (26) 
oracle

>  <origin>  (26) 
autodockgpu

>  <m_score__min__energy>  (26) 
-10.369999999999999

>  <m_primary>  (26) 
energy

>  <rmsd>  (26) 
5.000351237324487

>  <m_score__min__rmsd>  (26) 
5.000351237324487

>  <meeko>  (26) 
{"free_energy": -9.94, "intermolecular_energy": -11.73, "internal_energy": -0.92, "cluster_size": 42, "cluster_id": 1, "rank_in_cluster": 16}

>  <energy>  (26) 
-9.7

>  <cluster_rmsd>  (26) 
0.73

>  <cluster>  (26) 
1

$$$$

     RDKit          3D

 66 70  0  0  0  0  0  0  0  0999 V2000
  142.5410   81.1160  223.1320 C   0  0  0  0  0  0  0  0  0  0  0  0
  142.2630   80.3030  224.2240 C   0  0  0  0  0  0  0  0  0  0  0  0
  141.5810   79.1140  224.0880 C   0  0  0  0  0  0  0  0  0  0  0  0
  141.1850   78.7620  222.8170 C   0  0  0  0  0  0  0  0  0  0  0  0
  141.4410   79.5420  221.7010 C   0  0  0  0  0  0  0  0  0  0  0  0
  142.1260   80.7240  221.8790 C   0  0  0  0  0  0  0  0  0  0  0  0
  140.9650   79.0620  220.3790 C   0  0  0  0  0  0  0  0  0  0  0  0
  141.4430   77.6350  220.2230 C   0  0  0  0  0  0  0  0  0  0  0  0
  141.0170   76.8660  221.3500 N   0  0  0  0  0  0  0  0  0  0  0  0
  141.1590   75.4330  221.3260 C   0  0  0  0  0  0  0  0  0  0  0  0
  140.2560   74.7150  222.0210 N   0  0  0  0  0  0  0  0  0  0  0  0
  140.3790   73.3780  222.0060 C   0  0  0  0  0  0  0  0  0  0  0  0
  139.4210   72.5860  222.7450 N   0  0  0  0  0  0  0  0  0  0  0  0
  139.9290   71.4520  223.4350 C   0  0  0  0  0  0  0  0  0  0  0  0
  140.7320   71.7930  224.6400 C   0  0  0  0  0  0  0  0  0  0  0  0
  140.4390   71.0950  225.9090 C   0  0  0  0  0  0  0  0  0  0  0  0
  141.1440   71.7970  227.0960 C   0  0  0  0  0  0  0  0  0  0  0  0
  140.3070   71.5130  228.3180 C   0  0  0  0  0  0  0  0  0  0  0  0
  139.8080   70.0840  228.2560 C   0  0  0  0  0  0  0  0  0  0  0  0
  140.7790   69.2000  227.4910 C   0  0  0  0  0  0  0  0  0  0  0  0
  140.8220   69.6580  226.0230 C   0  0  0  0  0  0  0  0  0  0  0  0
  141.3820   72.8070  221.3110 N   0  0  0  0  0  0  0  0  0  0  0  0
  142.2820   73.5220  220.6190 C   0  0  0  0  0  0  0  0  0  0  0  0
  143.3330   72.9170  219.8890 N   0  0  0  0  0  0  0  0  0  0  0  0
  144.4510   72.2240  220.4940 C   0  0  0  0  0  0  0  0  0  0  0  0
  145.6950   73.0140  220.1670 C   0  0  0  0  0  0  0  0  0  0  0  0
  145.7400   73.2940  218.7730 N   0  0  0  0  0  0  0  0  0  0  0  0
  144.7640   72.6530  217.9560 C   0  0  0  0  0  0  0  0  0  0  0  0
  143.3380   72.9650  218.4190 C   0  0  0  0  0  0  0  0  0  0  0  0
  142.1680   74.8600  220.6280 N   0  0  0  0  0  0  0  0  0  0  0  0
  140.4340   77.4850  222.5440 C   0  0  0  0  0  0  0  0  0  0  0  0
  143.0863   82.0618  223.2670 H   0  0  0  0  0  0  0  0  0  0  0  0
  142.5965   80.6174  225.2240 H   0  0  0  0  0  0  0  0  0  0  0  0
  141.3625   78.4743  224.9558 H   0  0  0  0  0  0  0  0  0  0  0  0
  142.3440   81.3621  221.0099 H   0  0  0  0  0  0  0  0  0  0  0  0
  139.8664   79.0981  220.3381 H   0  0  0  0  0  0  0  0  0  0  0  0
  141.3560   79.6957  219.5694 H   0  0  0  0  0  0  0  0  0  0  0  0
  141.0194   77.2045  219.3036 H   0  0  0  0  0  0  0  0  0  0  0  0
  142.5412   77.6199  220.1617 H   0  0  0  0  0  0  0  0  0  0  0  0
  138.4460   72.9160  222.6840 H   0  0  0  0  0  0  0  0  0  0  0  0
  139.0795   70.8280  223.7494 H   0  0  0  0  0  0  0  0  0  0  0  0
  140.6012   70.9281  222.7395 H   0  0  0  0  0  0  0  0  0  0  0  0
  141.7852   71.5909  224.3950 H   0  0  0  0  0  0  0  0  0  0  0  0
  140.4721   72.8418  224.8460 H   0  0  0  0  0  0  0  0  0  0  0  0
  139.3401   71.1407  225.9283 H   0  0  0  0  0  0  0  0  0  0  0  0
  142.1588   71.3936  227.2280 H   0  0  0  0  0  0  0  0  0  0  0  0
  141.2380   72.8788  226.9202 H   0  0  0  0  0  0  0  0  0  0  0  0
  140.9173   71.6511  229.2227 H   0  0  0  0  0  0  0  0  0  0  0  0
  139.4512   72.2033  228.3495 H   0  0  0  0  0  0  0  0  0  0  0  0
  139.6989   69.6965  229.2797 H   0  0  0  0  0  0  0  0  0  0  0  0
  138.8396   70.0736  227.7344 H   0  0  0  0  0  0  0  0  0  0  0  0
  141.7825   69.2850  227.9335 H   0  0  0  0  0  0  0  0  0  0  0  0
  140.4490   68.1520  227.5442 H   0  0  0  0  0  0  0  0  0  0  0  0
  141.8415   69.5237  225.6323 H   0  0  0  0  0  0  0  0  0  0  0  0
  140.1089   69.0542  225.4425 H   0  0  0  0  0  0  0  0  0  0  0  0
  144.3151   72.1689  221.5842 H   0  0  0  0  0  0  0  0  0  0  0  0
  144.5283   71.1964  220.1091 H   0  0  0  0  0  0  0  0  0  0  0  0
  145.6842   73.9598  220.7286 H   0  0  0  0  0  0  0  0  0  0  0  0
  146.5811   72.4250  220.4462 H   0  0  0  0  0  0  0  0  0  0  0  0
  146.6780   73.0450  218.3870 H   0  0  0  0  0  0  0  0  0  0  0  0
  144.8851   72.9996  216.9191 H   0  0  0  0  0  0  0  0  0  0  0  0
  144.9169   71.5663  218.0312 H   0  0  0  0  0  0  0  0  0  0  0  0
  143.0414   73.9666  218.0744 H   0  0  0  0  0  0  0  0  0  0  0  0
  142.6264   72.2360  218.0040 H   0  0  0  0  0  0  0  0  0  0  0  0
  139.3709   77.7067  222.3688 H   0  0  0  0  0  0  0  0  0  0  0  0
  140.5102   76.8042  223.4046 H   0  0  0  0  0  0  0  0  0  0  0  0
  1  2  2  0
  2  3  1  0
  3  4  2  0
  4  5  1  0
  5  6  2  0
  5  7  1  0
  7  8  1  0
  8  9  1  0
  9 10  1  0
 10 11  2  0
 11 12  1  0
 12 13  1  0
 13 14  1  0
 14 15  1  0
 15 16  1  0
 16 17  1  0
 17 18  1  0
 18 19  1  0
 19 20  1  0
 20 21  1  0
 12 22  2  0
 22 23  1  0
 23 24  1  0
 24 25  1  0
 25 26  1  0
 26 27  1  0
 27 28  1  0
 28 29  1  0
 23 30  2  0
  9 31  1  0
  6  1  1  0
 30 10  1  0
 31  4  1  0
 21 16  1  0
 29 24  1  0
  1 32  1  0
  2 33  1  0
  3 34  1  0
  6 35  1  0
  7 36  1  0
  7 37  1  0
  8 38  1  0
  8 39  1  0
 13 40  1  0
 14 41  1  0
 14 42  1  0
 15 43  1  0
 15 44  1  0
 16 45  1  0
 17 46  1  0
 17 47  1  0
 18 48  1  0
 18 49  1  0
 19 50  1  0
 19 51  1  0
 20 52  1  0
 20 53  1  0
 21 54  1  0
 21 55  1  0
 25 56  1  0
 25 57  1  0
 26 58  1  0
 26 59  1  0
 27 60  1  0
 28 61  1  0
 28 62  1  0
 29 63  1  0
 29 64  1  0
 31 65  1  0
 31 66  1  0
M  END
>  <smiles>  (27) 
c1ccc2c(c1)CCN(c1nc(NCCC3CCCCC3)nc(N3CCNCC3)n1)C2

>  <score_type>  (27) 
oracle

>  <origin>  (27) 
autodockgpu

>  <m_score__min__energy>  (27) 
-10.369999999999999

>  <m_primary>  (27) 
energy

>  <rmsd>  (27) 
5.261575420470433

>  <m_score__min__rmsd>  (27) 
5.261575420470433

>  <meeko>  (27) 
{"free_energy": -10.13, "intermolecular_energy": -11.92, "internal_energy": -0.94, "cluster_size": 42, "cluster_id": 1, "rank_in_cluster": 9}

>  <energy>  (27) 
-9.69

>  <cluster_rmsd>  (27) 
0.92

>  <cluster>  (27) 
1

$$$$

     RDKit          3D

 66 70  0  0  0  0  0  0  0  0999 V2000
  142.5540   80.5690  222.6700 C   0  0  0  0  0  0  0  0  0  0  0  0
  142.2200   79.8580  223.8150 C   0  0  0  0  0  0  0  0  0  0  0  0
  141.5570   78.6520  223.7530 C   0  0  0  0  0  0  0  0  0  0  0  0
  141.2380   78.1780  222.5010 C   0  0  0  0  0  0  0  0  0  0  0  0
  141.5500   78.8550  221.3330 C   0  0  0  0  0  0  0  0  0  0  0  0
  142.2140   80.0570  221.4370 C   0  0  0  0  0  0  0  0  0  0  0  0
  141.1550   78.2480  220.0360 C   0  0  0  0  0  0  0  0  0  0  0  0
  141.6520   76.8190  220.0410 C   0  0  0  0  0  0  0  0  0  0  0  0
  141.1690   76.1520  221.2090 N   0  0  0  0  0  0  0  0  0  0  0  0
  141.3240   74.7250  221.3280 C   0  0  0  0  0  0  0  0  0  0  0  0
  140.5520   74.0970  222.2350 N   0  0  0  0  0  0  0  0  0  0  0  0
  140.6890   72.7670  222.3540 C   0  0  0  0  0  0  0  0  0  0  0  0
  139.8710   72.0700  223.3220 N   0  0  0  0  0  0  0  0  0  0  0  0
  139.5850   70.7050  223.0490 C   0  0  0  0  0  0  0  0  0  0  0  0
  139.3140   69.8950  224.2670 C   0  0  0  0  0  0  0  0  0  0  0  0
  139.7580   70.4120  225.5780 C   0  0  0  0  0  0  0  0  0  0  0  0
  141.2590   70.7910  225.5370 C   0  0  0  0  0  0  0  0  0  0  0  0
  141.4530   71.8790  226.5630 C   0  0  0  0  0  0  0  0  0  0  0  0
  140.6140   71.5630  227.7840 C   0  0  0  0  0  0  0  0  0  0  0  0
  140.4360   70.0630  227.9500 C   0  0  0  0  0  0  0  0  0  0  0  0
  139.6140   69.5240  226.7670 C   0  0  0  0  0  0  0  0  0  0  0  0
  141.5760   72.1140  221.5780 N   0  0  0  0  0  0  0  0  0  0  0  0
  142.3460   72.7390  220.6740 C   0  0  0  0  0  0  0  0  0  0  0  0
  143.2760   72.0480  219.8610 N   0  0  0  0  0  0  0  0  0  0  0  0
  142.9140   71.0520  218.8760 C   0  0  0  0  0  0  0  0  0  0  0  0
  143.4920   69.7360  219.3400 C   0  0  0  0  0  0  0  0  0  0  0  0
  144.8650   69.8990  219.6730 N   0  0  0  0  0  0  0  0  0  0  0  0
  145.4630   71.1510  219.3450 C   0  0  0  0  0  0  0  0  0  0  0  0
  144.7150   72.3250  219.9840 C   0  0  0  0  0  0  0  0  0  0  0  0
  142.2170   74.0700  220.5480 N   0  0  0  0  0  0  0  0  0  0  0  0
  140.5140   76.8710  222.3060 C   0  0  0  0  0  0  0  0  0  0  0  0
  143.0839   81.5299  222.7465 H   0  0  0  0  0  0  0  0  0  0  0  0
  142.4922   80.2689  224.7984 H   0  0  0  0  0  0  0  0  0  0  0  0
  141.2944   78.0930  224.6633 H   0  0  0  0  0  0  0  0  0  0  0  0
  142.4758   80.6144  220.5256 H   0  0  0  0  0  0  0  0  0  0  0  0
  140.0603   78.2659  219.9293 H   0  0  0  0  0  0  0  0  0  0  0  0
  141.5877   78.8089  219.1945 H   0  0  0  0  0  0  0  0  0  0  0  0
  141.2847   76.2996  219.1436 H   0  0  0  0  0  0  0  0  0  0  0  0
  142.7520   76.8128  220.0430 H   0  0  0  0  0  0  0  0  0  0  0  0
  139.5550   72.6450  224.1170 H   0  0  0  0  0  0  0  0  0  0  0  0
  138.6998   70.6593  222.3976 H   0  0  0  0  0  0  0  0  0  0  0  0
  140.4798   70.2785  222.5721 H   0  0  0  0  0  0  0  0  0  0  0  0
  138.2246   69.7551  224.3266 H   0  0  0  0  0  0  0  0  0  0  0  0
  139.9157   68.9857  224.1216 H   0  0  0  0  0  0  0  0  0  0  0  0
  139.0680   71.2571  225.7182 H   0  0  0  0  0  0  0  0  0  0  0  0
  141.8787   69.9174  225.7875 H   0  0  0  0  0  0  0  0  0  0  0  0
  141.5565   71.1316  224.5343 H   0  0  0  0  0  0  0  0  0  0  0  0
  142.5140   71.9314  226.8485 H   0  0  0  0  0  0  0  0  0  0  0  0
  141.1438   72.8465  226.1407 H   0  0  0  0  0  0  0  0  0  0  0  0
  141.1127   71.9670  228.6774 H   0  0  0  0  0  0  0  0  0  0  0  0
  139.6223   72.0212  227.6555 H   0  0  0  0  0  0  0  0  0  0  0  0
  141.4213   69.5742  227.9680 H   0  0  0  0  0  0  0  0  0  0  0  0
  139.9121   69.8525  228.8940 H   0  0  0  0  0  0  0  0  0  0  0  0
  139.9697   68.5154  226.5097 H   0  0  0  0  0  0  0  0  0  0  0  0
  138.5538   69.4917  227.0583 H   0  0  0  0  0  0  0  0  0  0  0  0
  141.8192   70.9772  218.8002 H   0  0  0  0  0  0  0  0  0  0  0  0
  143.3051   71.3228  217.8842 H   0  0  0  0  0  0  0  0  0  0  0  0
  142.9409   69.3882  220.2262 H   0  0  0  0  0  0  0  0  0  0  0  0
  143.4017   68.9963  218.5309 H   0  0  0  0  0  0  0  0  0  0  0  0
  145.4360   69.1550  219.2140 H   0  0  0  0  0  0  0  0  0  0  0  0
  146.5027   71.1537  219.7042 H   0  0  0  0  0  0  0  0  0  0  0  0
  145.4211   71.2735  218.2527 H   0  0  0  0  0  0  0  0  0  0  0  0
  144.9915   72.4144  221.0449 H   0  0  0  0  0  0  0  0  0  0  0  0
  144.9732   73.2695  219.4827 H   0  0  0  0  0  0  0  0  0  0  0  0
  139.4609   77.0615  222.0518 H   0  0  0  0  0  0  0  0  0  0  0  0
  140.5467   76.2736  223.2290 H   0  0  0  0  0  0  0  0  0  0  0  0
  1  2  2  0
  2  3  1  0
  3  4  2  0
  4  5  1  0
  5  6  2  0
  5  7  1  0
  7  8  1  0
  8  9  1  0
  9 10  1  0
 10 11  2  0
 11 12  1  0
 12 13  1  0
 13 14  1  0
 14 15  1  0
 15 16  1  0
 16 17  1  0
 17 18  1  0
 18 19  1  0
 19 20  1  0
 20 21  1  0
 12 22  2  0
 22 23  1  0
 23 24  1  0
 24 25  1  0
 25 26  1  0
 26 27  1  0
 27 28  1  0
 28 29  1  0
 23 30  2  0
  9 31  1  0
  6  1  1  0
 30 10  1  0
 31  4  1  0
 21 16  1  0
 29 24  1  0
  1 32  1  0
  2 33  1  0
  3 34  1  0
  6 35  1  0
  7 36  1  0
  7 37  1  0
  8 38  1  0
  8 39  1  0
 13 40  1  0
 14 41  1  0
 14 42  1  0
 15 43  1  0
 15 44  1  0
 16 45  1  0
 17 46  1  0
 17 47  1  0
 18 48  1  0
 18 49  1  0
 19 50  1  0
 19 51  1  0
 20 52  1  0
 20 53  1  0
 21 54  1  0
 21 55  1  0
 25 56  1  0
 25 57  1  0
 26 58  1  0
 26 59  1  0
 27 60  1  0
 28 61  1  0
 28 62  1  0
 29 63  1  0
 29 64  1  0
 31 65  1  0
 31 66  1  0
M  END
>  <smiles>  (28) 
c1ccc2c(c1)CCN(c1nc(NCCC3CCCCC3)nc(N3CCNCC3)n1)C2

>  <score_type>  (28) 
oracle

>  <origin>  (28) 
autodockgpu

>  <m_score__min__energy>  (28) 
-10.369999999999999

>  <m_primary>  (28) 
energy

>  <rmsd>  (28) 
4.943172992090144

>  <m_score__min__rmsd>  (28) 
4.943172992090144

>  <meeko>  (28) 
{"free_energy": -9.43, "intermolecular_energy": -11.22, "internal_energy": -1.03, "cluster_size": 42, "cluster_id": 1, "rank_in_cluster": 33}

>  <energy>  (28) 
-9.59

>  <cluster_rmsd>  (28) 
0.98

>  <cluster>  (28) 
1

$$$$

     RDKit          3D

 66 70  0  0  0  0  0  0  0  0999 V2000
  142.4270   80.9840  222.8480 C   0  0  0  0  0  0  0  0  0  0  0  0
  142.3950   80.1980  223.9920 C   0  0  0  0  0  0  0  0  0  0  0  0
  141.7910   78.9600  224.0040 C   0  0  0  0  0  0  0  0  0  0  0  0
  141.2180   78.5320  222.8280 C   0  0  0  0  0  0  0  0  0  0  0  0
  141.2280   79.2830  221.6640 C   0  0  0  0  0  0  0  0  0  0  0  0
  141.8420   80.5160  221.6930 C   0  0  0  0  0  0  0  0  0  0  0  0
  140.5780   78.7210  220.4530 C   0  0  0  0  0  0  0  0  0  0  0  0
  141.1290   77.3250  220.2580 C   0  0  0  0  0  0  0  0  0  0  0  0
  140.9530   76.5730  221.4600 N   0  0  0  0  0  0  0  0  0  0  0  0
  141.1970   75.1530  221.4520 C   0  0  0  0  0  0  0  0  0  0  0  0
  140.2410   74.3640  221.9770 N   0  0  0  0  0  0  0  0  0  0  0  0
  140.4570   73.0390  221.9750 C   0  0  0  0  0  0  0  0  0  0  0  0
  139.4450   72.1700  222.5340 N   0  0  0  0  0  0  0  0  0  0  0  0
  139.9000   71.1250  223.3830 C   0  0  0  0  0  0  0  0  0  0  0  0
  140.7470   71.5940  224.5110 C   0  0  0  0  0  0  0  0  0  0  0  0
  140.8080   70.7770  225.7420 C   0  0  0  0  0  0  0  0  0  0  0  0
  139.6510   69.7480  225.7740 C   0  0  0  0  0  0  0  0  0  0  0  0
  140.1390   68.5830  226.5970 C   0  0  0  0  0  0  0  0  0  0  0  0
  140.9400   69.1060  227.7710 C   0  0  0  0  0  0  0  0  0  0  0  0
  140.4560   70.4840  228.1910 C   0  0  0  0  0  0  0  0  0  0  0  0
  140.7390   71.4820  227.0540 C   0  0  0  0  0  0  0  0  0  0  0  0
  141.6010   72.5490  221.4580 N   0  0  0  0  0  0  0  0  0  0  0  0
  142.5540   73.3360  220.9350 C   0  0  0  0  0  0  0  0  0  0  0  0
  143.7540   72.8160  220.3920 N   0  0  0  0  0  0  0  0  0  0  0  0
  145.0190   72.7860  221.0940 C   0  0  0  0  0  0  0  0  0  0  0  0
  145.9660   73.6940  220.3480 C   0  0  0  0  0  0  0  0  0  0  0  0
  145.9480   73.3800  218.9610 N   0  0  0  0  0  0  0  0  0  0  0  0
  145.2310   72.2100  218.5740 C   0  0  0  0  0  0  0  0  0  0  0  0
  143.7700   72.2580  219.0310 C   0  0  0  0  0  0  0  0  0  0  0  0
  142.3470   74.6630  220.9330 N   0  0  0  0  0  0  0  0  0  0  0  0
  140.5300   77.1960  222.7190 C   0  0  0  0  0  0  0  0  0  0  0  0
  142.9145   81.9700  222.8643 H   0  0  0  0  0  0  0  0  0  0  0  0
  142.8644   80.5738  224.9132 H   0  0  0  0  0  0  0  0  0  0  0  0
  141.7677   78.3410  224.9130 H   0  0  0  0  0  0  0  0  0  0  0  0
  141.8651   81.1335  220.7830 H   0  0  0  0  0  0  0  0  0  0  0  0
  139.4880   78.6798  220.5948 H   0  0  0  0  0  0  0  0  0  0  0  0
  140.7821   79.3484  219.5728 H   0  0  0  0  0  0  0  0  0  0  0  0
  140.5932   76.8308  219.4342 H   0  0  0  0  0  0  0  0  0  0  0  0
  142.2002   77.3835  220.0148 H   0  0  0  0  0  0  0  0  0  0  0  0
  138.4790   72.3860  222.2440 H   0  0  0  0  0  0  0  0  0  0  0  0
  139.0220   70.6096  223.7996 H   0  0  0  0  0  0  0  0  0  0  0  0
  140.5251   70.4615  222.7674 H   0  0  0  0  0  0  0  0  0  0  0  0
  141.7749   71.6812  224.1293 H   0  0  0  0  0  0  0  0  0  0  0  0
  140.2659   72.5287  224.8349 H   0  0  0  0  0  0  0  0  0  0  0  0
  141.8148   70.3416  225.6598 H   0  0  0  0  0  0  0  0  0  0  0  0
  138.7585   70.1936  226.2375 H   0  0  0  0  0  0  0  0  0  0  0  0
  139.3727   69.4296  224.7585 H   0  0  0  0  0  0  0  0  0  0  0  0
  139.2779   68.0066  226.9662 H   0  0  0  0  0  0  0  0  0  0  0  0
  140.7725   67.9313  225.9773 H   0  0  0  0  0  0  0  0  0  0  0  0
  140.8307   68.4129  228.6181 H   0  0  0  0  0  0  0  0  0  0  0  0
  141.9949   69.1826  227.4687 H   0  0  0  0  0  0  0  0  0  0  0  0
  139.3749   70.4500  228.3914 H   0  0  0  0  0  0  0  0  0  0  0  0
  140.9823   70.8008  229.1035 H   0  0  0  0  0  0  0  0  0  0  0  0
  139.9331   72.2299  227.0206 H   0  0  0  0  0  0  0  0  0  0  0  0
  141.7052   71.9720  227.2445 H   0  0  0  0  0  0  0  0  0  0  0  0
  144.8862   73.1454  222.1251 H   0  0  0  0  0  0  0  0  0  0  0  0
  145.4158   71.7611  221.1394 H   0  0  0  0  0  0  0  0  0  0  0  0
  145.6553   74.7397  220.4890 H   0  0  0  0  0  0  0  0  0  0  0  0
  146.9849   73.5524  220.7376 H   0  0  0  0  0  0  0  0  0  0  0  0
  146.9230   73.2760  218.6030 H   0  0  0  0  0  0  0  0  0  0  0  0
  145.2580   72.1227  217.4778 H   0  0  0  0  0  0  0  0  0  0  0  0
  145.7096   71.3430  219.0528 H   0  0  0  0  0  0  0  0  0  0  0  0
  143.1852   72.8989  218.3548 H   0  0  0  0  0  0  0  0  0  0  0  0
  143.3253   71.2520  219.0180 H   0  0  0  0  0  0  0  0  0  0  0  0
  139.4390   77.3363  222.7186 H   0  0  0  0  0  0  0  0  0  0  0  0
  140.7980   76.5559  223.5725 H   0  0  0  0  0  0  0  0  0  0  0  0
  1  2  2  0
  2  3  1  0
  3  4  2  0
  4  5  1  0
  5  6  2  0
  5  7  1  0
  7  8  1  0
  8  9  1  0
  9 10  1  0
 10 11  2  0
 11 12  1  0
 12 13  1  0
 13 14  1  0
 14 15  1  0
 15 16  1  0
 16 17  1  0
 17 18  1  0
 18 19  1  0
 19 20  1  0
 20 21  1  0
 12 22  2  0
 22 23  1  0
 23 24  1  0
 24 25  1  0
 25 26  1  0
 26 27  1  0
 27 28  1  0
 28 29  1  0
 23 30  2  0
  9 31  1  0
  6  1  1  0
 30 10  1  0
 31  4  1  0
 21 16  1  0
 29 24  1  0
  1 32  1  0
  2 33  1  0
  3 34  1  0
  6 35  1  0
  7 36  1  0
  7 37  1  0
  8 38  1  0
  8 39  1  0
 13 40  1  0
 14 41  1  0
 14 42  1  0
 15 43  1  0
 15 44  1  0
 16 45  1  0
 17 46  1  0
 17 47  1  0
 18 48  1  0
 18 49  1  0
 19 50  1  0
 19 51  1  0
 20 52  1  0
 20 53  1  0
 21 54  1  0
 21 55  1  0
 25 56  1  0
 25 57  1  0
 26 58  1  0
 26 59  1  0
 27 60  1  0
 28 61  1  0
 28 62  1  0
 29 63  1  0
 29 64  1  0
 31 65  1  0
 31 66  1  0
M  END
>  <smiles>  (29) 
c1ccc2c(c1)CCN(c1nc(NCCC3CCCCC3)nc(N3CCNCC3)n1)C2

>  <score_type>  (29) 
oracle

>  <origin>  (29) 
autodockgpu

>  <m_score__min__energy>  (29) 
-10.369999999999999

>  <m_primary>  (29) 
energy

>  <rmsd>  (29) 
5.107594909570204

>  <m_score__min__rmsd>  (29) 
5.107594909570204

>  <meeko>  (29) 
{"free_energy": -10.09, "intermolecular_energy": -11.88, "internal_energy": -1.0, "cluster_size": 42, "cluster_id": 1, "rank_in_cluster": 11}

>  <energy>  (29) 
-9.49

>  <cluster_rmsd>  (29) 
1.12

>  <cluster>  (29) 
1

$$$$

     RDKit          3D

 66 70  0  0  0  0  0  0  0  0999 V2000
  142.4650   80.8990  222.7570 C   0  0  0  0  0  0  0  0  0  0  0  0
  142.2140   80.1630  223.9080 C   0  0  0  0  0  0  0  0  0  0  0  0
  141.5810   78.9400  223.8620 C   0  0  0  0  0  0  0  0  0  0  0  0
  141.2050   78.4760  222.6220 C   0  0  0  0  0  0  0  0  0  0  0  0
  141.4360   79.1770  221.4490 C   0  0  0  0  0  0  0  0  0  0  0  0
  142.0720   80.3960  221.5370 C   0  0  0  0  0  0  0  0  0  0  0  0
  140.9860   78.5790  220.1670 C   0  0  0  0  0  0  0  0  0  0  0  0
  141.5210   77.1640  220.1220 C   0  0  0  0  0  0  0  0  0  0  0  0
  141.1200   76.4670  221.3040 N   0  0  0  0  0  0  0  0  0  0  0  0
  141.3190   75.0430  221.3920 C   0  0  0  0  0  0  0  0  0  0  0  0
  140.4170   74.3400  222.1010 N   0  0  0  0  0  0  0  0  0  0  0  0
  140.5930   73.0120  222.1900 C   0  0  0  0  0  0  0  0  0  0  0  0
  139.6370   72.2350  222.9470 N   0  0  0  0  0  0  0  0  0  0  0  0
  139.8950   70.8420  223.0600 C   0  0  0  0  0  0  0  0  0  0  0  0
  139.1950   70.1930  224.2010 C   0  0  0  0  0  0  0  0  0  0  0  0
  139.6900   70.4400  225.5710 C   0  0  0  0  0  0  0  0  0  0  0  0
  141.1040   71.0700  225.5380 C   0  0  0  0  0  0  0  0  0  0  0  0
  141.2370   71.8880  226.7980 C   0  0  0  0  0  0  0  0  0  0  0  0
  140.5870   71.1420  227.9440 C   0  0  0  0  0  0  0  0  0  0  0  0
  140.6550   69.6390  227.7250 C   0  0  0  0  0  0  0  0  0  0  0  0
  139.8050   69.2750  226.4950 C   0  0  0  0  0  0  0  0  0  0  0  0
  141.6450   72.4350  221.5780 N   0  0  0  0  0  0  0  0  0  0  0  0
  142.5450   73.1360  220.8700 C   0  0  0  0  0  0  0  0  0  0  0  0
  143.6490   72.5250  220.2280 N   0  0  0  0  0  0  0  0  0  0  0  0
  145.0170   72.6270  220.6880 C   0  0  0  0  0  0  0  0  0  0  0  0
  145.7880   73.3800  219.6300 C   0  0  0  0  0  0  0  0  0  0  0  0
  145.5390   72.8120  218.3510 N   0  0  0  0  0  0  0  0  0  0  0  0
  144.8060   71.5890  218.3210 C   0  0  0  0  0  0  0  0  0  0  0  0
  143.4460   71.7210  219.0130 C   0  0  0  0  0  0  0  0  0  0  0  0
  142.3780   74.4650  220.7760 N   0  0  0  0  0  0  0  0  0  0  0  0
  140.5070   77.1530  222.4460 C   0  0  0  0  0  0  0  0  0  0  0  0
  142.9722   81.8731  222.8195 H   0  0  0  0  0  0  0  0  0  0  0  0
  142.5288   80.5670  224.8815 H   0  0  0  0  0  0  0  0  0  0  0  0
  141.3848   78.3601  224.7759 H   0  0  0  0  0  0  0  0  0  0  0  0
  142.2681   80.9741  220.6220 H   0  0  0  0  0  0  0  0  0  0  0  0
  139.8870   78.5682  220.1213 H   0  0  0  0  0  0  0  0  0  0  0  0
  141.3556   79.1639  219.3119 H   0  0  0  0  0  0  0  0  0  0  0  0
  141.1195   76.6478  219.2375 H   0  0  0  0  0  0  0  0  0  0  0  0
  142.6192   77.1880  220.0643 H   0  0  0  0  0  0  0  0  0  0  0  0
  138.8410   72.7730  223.3220 H   0  0  0  0  0  0  0  0  0  0  0  0
  139.5703   70.3525  222.1300 H   0  0  0  0  0  0  0  0  0  0  0  0
  140.9743   70.7294  223.2400 H   0  0  0  0  0  0  0  0  0  0  0  0
  138.1474   70.5270  224.1703 H   0  0  0  0  0  0  0  0  0  0  0  0
  139.3689   69.1182  224.0442 H   0  0  0  0  0  0  0  0  0  0  0  0
  138.8992   71.0934  225.9681 H   0  0  0  0  0  0  0  0  0  0  0  0
  141.8709   70.2818  225.5138 H   0  0  0  0  0  0  0  0  0  0  0  0
  141.2412   71.6935  224.6422 H   0  0  0  0  0  0  0  0  0  0  0  0
  142.3018   72.0504  227.0211 H   0  0  0  0  0  0  0  0  0  0  0  0
  140.7429   72.8613  226.6618 H   0  0  0  0  0  0  0  0  0  0  0  0
  141.1094   71.3932  228.8789 H   0  0  0  0  0  0  0  0  0  0  0  0
  139.5297   71.4401  228.0009 H   0  0  0  0  0  0  0  0  0  0  0  0
  141.6991   69.3377  227.5545 H   0  0  0  0  0  0  0  0  0  0  0  0
  140.2695   69.1155  228.6123 H   0  0  0  0  0  0  0  0  0  0  0  0
  140.2797   68.4374  225.9629 H   0  0  0  0  0  0  0  0  0  0  0  0
  138.7976   68.9903  226.8327 H   0  0  0  0  0  0  0  0  0  0  0  0
  145.0542   73.1732  221.6421 H   0  0  0  0  0  0  0  0  0  0  0  0
  145.4499   71.6290  220.8511 H   0  0  0  0  0  0  0  0  0  0  0  0
  145.4712   74.4334  219.6288 H   0  0  0  0  0  0  0  0  0  0  0  0
  146.8635   73.3143  219.8513 H   0  0  0  0  0  0  0  0  0  0  0  0
  146.4400   72.6430  217.8510 H   0  0  0  0  0  0  0  0  0  0  0  0
  144.6448   71.2967  217.2729 H   0  0  0  0  0  0  0  0  0  0  0  0
  145.3901   70.8282  218.8596 H   0  0  0  0  0  0  0  0  0  0  0  0
  142.7309   72.2230  218.3447 H   0  0  0  0  0  0  0  0  0  0  0  0
  143.0399   70.7303  219.2652 H   0  0  0  0  0  0  0  0  0  0  0  0
  139.4369   77.3181  222.2520 H   0  0  0  0  0  0  0  0  0  0  0  0
  140.6063   76.5439  223.3566 H   0  0  0  0  0  0  0  0  0  0  0  0
  1  2  2  0
  2  3  1  0
  3  4  2  0
  4  5  1  0
  5  6  2  0
  5  7  1  0
  7  8  1  0
  8  9  1  0
  9 10  1  0
 10 11  2  0
 11 12  1  0
 12 13  1  0
 13 14  1  0
 14 15  1  0
 15 16  1  0
 16 17  1  0
 17 18  1  0
 18 19  1  0
 19 20  1  0
 20 21  1  0
 12 22  2  0
 22 23  1  0
 23 24  1  0
 24 25  1  0
 25 26  1  0
 26 27  1  0
 27 28  1  0
 28 29  1  0
 23 30  2  0
  9 31  1  0
  6  1  1  0
 30 10  1  0
 31  4  1  0
 21 16  1  0
 29 24  1  0
  1 32  1  0
  2 33  1  0
  3 34  1  0
  6 35  1  0
  7 36  1  0
  7 37  1  0
  8 38  1  0
  8 39  1  0
 13 40  1  0
 14 41  1  0
 14 42  1  0
 15 43  1  0
 15 44  1  0
 16 45  1  0
 17 46  1  0
 17 47  1  0
 18 48  1  0
 18 49  1  0
 19 50  1  0
 19 51  1  0
 20 52  1  0
 20 53  1  0
 21 54  1  0
 21 55  1  0
 25 56  1  0
 25 57  1  0
 26 58  1  0
 26 59  1  0
 27 60  1  0
 28 61  1  0
 28 62  1  0
 29 63  1  0
 29 64  1  0
 31 65  1  0
 31 66  1  0
M  END
>  <smiles>  (30) 
c1ccc2c(c1)CCN(c1nc(NCCC3CCCCC3)nc(N3CCNCC3)n1)C2

>  <score_type>  (30) 
oracle

>  <origin>  (30) 
autodockgpu

>  <m_score__min__energy>  (30) 
-10.369999999999999

>  <m_primary>  (30) 
energy

>  <rmsd>  (30) 
5.019980282503646

>  <m_score__min__rmsd>  (30) 
5.019980282503646

>  <meeko>  (30) 
{"free_energy": -10.3, "intermolecular_energy": -12.09, "internal_energy": -1.03, "cluster_size": 42, "cluster_id": 1, "rank_in_cluster": 4}

>  <energy>  (30) 
-9.48

>  <cluster_rmsd>  (30) 
0.72

>  <cluster>  (30) 
1

$$$$

     RDKit          3D

 66 70  0  0  0  0  0  0  0  0999 V2000
  140.9330   81.5590  222.0030 C   0  0  0  0  0  0  0  0  0  0  0  0
  142.2080   81.0690  222.2600 C   0  0  0  0  0  0  0  0  0  0  0  0
  142.4190   79.7620  222.6390 C   0  0  0  0  0  0  0  0  0  0  0  0
  141.3080   78.9560  222.7540 C   0  0  0  0  0  0  0  0  0  0  0  0
  140.0200   79.4040  222.5090 C   0  0  0  0  0  0  0  0  0  0  0  0
  139.8510   80.7180  222.1310 C   0  0  0  0  0  0  0  0  0  0  0  0
  138.8960   78.4460  222.6650 C   0  0  0  0  0  0  0  0  0  0  0  0
  139.2520   77.2070  221.8710 C   0  0  0  0  0  0  0  0  0  0  0  0
  140.5340   76.7300  222.2850 N   0  0  0  0  0  0  0  0  0  0  0  0
  140.9910   75.4410  221.8330 C   0  0  0  0  0  0  0  0  0  0  0  0
  140.2010   74.3830  222.0950 N   0  0  0  0  0  0  0  0  0  0  0  0
  140.6170   73.1760  221.6790 C   0  0  0  0  0  0  0  0  0  0  0  0
  139.7850   72.0250  221.9490 N   0  0  0  0  0  0  0  0  0  0  0  0
  139.4670   71.7750  223.3120 C   0  0  0  0  0  0  0  0  0  0  0  0
  140.6560   71.5300  224.1700 C   0  0  0  0  0  0  0  0  0  0  0  0
  140.4460   71.0920  225.5660 C   0  0  0  0  0  0  0  0  0  0  0  0
  141.4130   71.8300  226.5240 C   0  0  0  0  0  0  0  0  0  0  0  0
  140.7270   71.8820  227.8660 C   0  0  0  0  0  0  0  0  0  0  0  0
  140.0120   70.5690  228.1090 C   0  0  0  0  0  0  0  0  0  0  0  0
  140.7170   69.4250  227.3990 C   0  0  0  0  0  0  0  0  0  0  0  0
  140.6180   69.6440  225.8790 C   0  0  0  0  0  0  0  0  0  0  0  0
  141.7900   73.0630  221.0240 N   0  0  0  0  0  0  0  0  0  0  0  0
  142.5780   74.1180  220.7630 C   0  0  0  0  0  0  0  0  0  0  0  0
  143.8080   73.9930  220.0740 N   0  0  0  0  0  0  0  0  0  0  0  0
  143.9440   74.0420  218.6340 C   0  0  0  0  0  0  0  0  0  0  0  0
  144.4250   72.6830  218.1850 C   0  0  0  0  0  0  0  0  0  0  0  0
  145.5460   72.2830  218.9630 N   0  0  0  0  0  0  0  0  0  0  0  0
  146.1020   73.2590  219.8420 C   0  0  0  0  0  0  0  0  0  0  0  0
  145.0590   73.8030  220.8230 C   0  0  0  0  0  0  0  0  0  0  0  0
  142.1700   75.3290  221.1760 N   0  0  0  0  0  0  0  0  0  0  0  0
  141.4140   77.5100  223.1600 C   0  0  0  0  0  0  0  0  0  0  0  0
  140.7903   82.6070  221.7008 H   0  0  0  0  0  0  0  0  0  0  0  0
  143.0713   81.7430  222.1579 H   0  0  0  0  0  0  0  0  0  0  0  0
  143.4301   79.3787  222.8410 H   0  0  0  0  0  0  0  0  0  0  0  0
  138.8393   81.0996  221.9291 H   0  0  0  0  0  0  0  0  0  0  0  0
  138.7643   78.1888  223.7264 H   0  0  0  0  0  0  0  0  0  0  0  0
  137.9547   78.8853  222.3030 H   0  0  0  0  0  0  0  0  0  0  0  0
  138.4959   76.4279  222.0479 H   0  0  0  0  0  0  0  0  0  0  0  0
  139.2800   77.4529  220.7992 H   0  0  0  0  0  0  0  0  0  0  0  0
  139.5150   71.4790  221.1170 H   0  0  0  0  0  0  0  0  0  0  0  0
  138.9274   72.6479  223.7080 H   0  0  0  0  0  0  0  0  0  0  0  0
  138.8597   70.8582  223.3365 H   0  0  0  0  0  0  0  0  0  0  0  0
  141.2585   70.7544  223.6745 H   0  0  0  0  0  0  0  0  0  0  0  0
  141.1230   72.5211  224.2685 H   0  0  0  0  0  0  0  0  0  0  0  0
  139.3814   71.3310  225.7059 H   0  0  0  0  0  0  0  0  0  0  0  0
  142.3626   71.2805  226.6034 H   0  0  0  0  0  0  0  0  0  0  0  0
  141.6448   72.8402  226.1557 H   0  0  0  0  0  0  0  0  0  0  0  0
  141.4750   72.0457  228.6558 H   0  0  0  0  0  0  0  0  0  0  0  0
  140.0000   72.7074  227.8786 H   0  0  0  0  0  0  0  0  0  0  0  0
  139.9930   70.3644  229.1896 H   0  0  0  0  0  0  0  0  0  0  0  0
  138.9886   70.6490  227.7137 H   0  0  0  0  0  0  0  0  0  0  0  0
  141.7747   69.3996  227.7001 H   0  0  0  0  0  0  0  0  0  0  0  0
  140.2425   68.4701  227.6693 H   0  0  0  0  0  0  0  0  0  0  0  0
  141.5383   69.2778  225.4006 H   0  0  0  0  0  0  0  0  0  0  0  0
  139.7452   69.0934  225.4981 H   0  0  0  0  0  0  0  0  0  0  0  0
  142.9725   74.2699  218.1711 H   0  0  0  0  0  0  0  0  0  0  0  0
  144.6549   74.8264  218.3352 H   0  0  0  0  0  0  0  0  0  0  0  0
  143.6144   71.9500  218.3100 H   0  0  0  0  0  0  0  0  0  0  0  0
  144.7200   72.7356  217.1266 H   0  0  0  0  0  0  0  0  0  0  0  0
  146.3170   71.9550  218.3400 H   0  0  0  0  0  0  0  0  0  0  0  0
  146.9212   72.7979  220.4132 H   0  0  0  0  0  0  0  0  0  0  0  0
  146.4677   74.0984  219.2324 H   0  0  0  0  0  0  0  0  0  0  0  0
  144.9019   73.0849  221.6413 H   0  0  0  0  0  0  0  0  0  0  0  0
  145.3971   74.7533  221.2619 H   0  0  0  0  0  0  0  0  0  0  0  0
  141.0994   77.3920  224.2074 H   0  0  0  0  0  0  0  0  0  0  0  0
  142.4532   77.1614  223.0670 H   0  0  0  0  0  0  0  0  0  0  0  0
  1  2  2  0
  2  3  1  0
  3  4  2  0
  4  5  1  0
  5  6  2  0
  5  7  1  0
  7  8  1  0
  8  9  1  0
  9 10  1  0
 10 11  2  0
 11 12  1  0
 12 13  1  0
 13 14  1  0
 14 15  1  0
 15 16  1  0
 16 17  1  0
 17 18  1  0
 18 19  1  0
 19 20  1  0
 20 21  1  0
 12 22  2  0
 22 23  1  0
 23 24  1  0
 24 25  1  0
 25 26  1  0
 26 27  1  0
 27 28  1  0
 28 29  1  0
 23 30  2  0
  9 31  1  0
  6  1  1  0
 30 10  1  0
 31  4  1  0
 21 16  1  0
 29 24  1  0
  1 32  1  0
  2 33  1  0
  3 34  1  0
  6 35  1  0
  7 36  1  0
  7 37  1  0
  8 38  1  0
  8 39  1  0
 13 40  1  0
 14 41  1  0
 14 42  1  0
 15 43  1  0
 15 44  1  0
 16 45  1  0
 17 46  1  0
 17 47  1  0
 18 48  1  0
 18 49  1  0
 19 50  1  0
 19 51  1  0
 20 52  1  0
 20 53  1  0
 21 54  1  0
 21 55  1  0
 25 56  1  0
 25 57  1  0
 26 58  1  0
 26 59  1  0
 27 60  1  0
 28 61  1  0
 28 62  1  0
 29 63  1  0
 29 64  1  0
 31 65  1  0
 31 66  1  0
M  END
>  <smiles>  (31) 
c1ccc2c(c1)CCN(c1nc(NCCC3CCCCC3)nc(N3CCNCC3)n1)C2

>  <score_type>  (31) 
oracle

>  <origin>  (31) 
autodockgpu

>  <m_score__min__energy>  (31) 
-10.369999999999999

>  <m_primary>  (31) 
energy

>  <rmsd>  (31) 
4.848414593074554

>  <m_score__min__rmsd>  (31) 
4.848414593074554

>  <meeko>  (31) 
{"free_energy": -9.49, "intermolecular_energy": -11.28, "internal_energy": -0.99, "cluster_size": 42, "cluster_id": 1, "rank_in_cluster": 29}

>  <energy>  (31) 
-9.47

>  <cluster_rmsd>  (31) 
0.7

>  <cluster>  (31) 
1

$$$$

     RDKit          3D

 66 70  0  0  0  0  0  0  0  0999 V2000
  142.5560   80.9680  222.7510 C   0  0  0  0  0  0  0  0  0  0  0  0
  142.2370   80.2380  223.8900 C   0  0  0  0  0  0  0  0  0  0  0  0
  141.5720   79.0350  223.8170 C   0  0  0  0  0  0  0  0  0  0  0  0
  141.2330   78.5820  222.5620 C   0  0  0  0  0  0  0  0  0  0  0  0
  141.5300   79.2770  221.4010 C   0  0  0  0  0  0  0  0  0  0  0  0
  142.1980   80.4770  221.5160 C   0  0  0  0  0  0  0  0  0  0  0  0
  141.1150   78.6920  220.1000 C   0  0  0  0  0  0  0  0  0  0  0  0
  141.6110   77.2630  220.0750 C   0  0  0  0  0  0  0  0  0  0  0  0
  141.1430   76.5770  221.2380 N   0  0  0  0  0  0  0  0  0  0  0  0
  141.2980   75.1480  221.3310 C   0  0  0  0  0  0  0  0  0  0  0  0
  140.3700   74.4760  222.0380 N   0  0  0  0  0  0  0  0  0  0  0  0
  140.5050   73.1430  222.1310 C   0  0  0  0  0  0  0  0  0  0  0  0
  139.5210   72.3980  222.8860 N   0  0  0  0  0  0  0  0  0  0  0  0
  139.9060   71.1060  223.3340 C   0  0  0  0  0  0  0  0  0  0  0  0
  140.6010   71.1090  224.6490 C   0  0  0  0  0  0  0  0  0  0  0  0
  140.2180   70.0990  225.6570 C   0  0  0  0  0  0  0  0  0  0  0  0
  141.4620   69.5980  226.4310 C   0  0  0  0  0  0  0  0  0  0  0  0
  140.9730   69.1660  227.7910 C   0  0  0  0  0  0  0  0  0  0  0  0
  139.6390   68.4670  227.6390 C   0  0  0  0  0  0  0  0  0  0  0  0
  139.5300   67.7870  226.2840 C   0  0  0  0  0  0  0  0  0  0  0  0
  139.5300   68.8630  225.1840 C   0  0  0  0  0  0  0  0  0  0  0  0
  141.5420   72.5320  221.5270 N   0  0  0  0  0  0  0  0  0  0  0  0
  142.4670   73.2020  220.8230 C   0  0  0  0  0  0  0  0  0  0  0  0
  143.5550   72.5550  220.1890 N   0  0  0  0  0  0  0  0  0  0  0  0
  144.9210   72.6050  220.6650 C   0  0  0  0  0  0  0  0  0  0  0  0
  145.7310   73.3360  219.6210 C   0  0  0  0  0  0  0  0  0  0  0  0
  145.4760   72.7850  218.3350 N   0  0  0  0  0  0  0  0  0  0  0  0
  144.6990   71.5900  218.2890 C   0  0  0  0  0  0  0  0  0  0  0  0
  143.3370   71.7670  218.9670 C   0  0  0  0  0  0  0  0  0  0  0  0
  142.3420   74.5360  220.7240 N   0  0  0  0  0  0  0  0  0  0  0  0
  140.5050   77.2790  222.3560 C   0  0  0  0  0  0  0  0  0  0  0  0
  143.0883   81.9269  222.8356 H   0  0  0  0  0  0  0  0  0  0  0  0
  142.5236   80.6322  224.8761 H   0  0  0  0  0  0  0  0  0  0  0  0
  141.3225   78.4610  224.7215 H   0  0  0  0  0  0  0  0  0  0  0  0
  142.4479   81.0490  220.6103 H   0  0  0  0  0  0  0  0  0  0  0  0
  140.0189   78.7124  220.0099 H   0  0  0  0  0  0  0  0  0  0  0  0
  141.5351   79.2664  219.2612 H   0  0  0  0  0  0  0  0  0  0  0  0
  141.2316   76.7587  219.1741 H   0  0  0  0  0  0  0  0  0  0  0  0
  142.7109   77.2563  220.0625 H   0  0  0  0  0  0  0  0  0  0  0  0
  138.6170   72.8780  223.0110 H   0  0  0  0  0  0  0  0  0  0  0  0
  139.0020   70.4854  223.4210 H   0  0  0  0  0  0  0  0  0  0  0  0
  140.6190   70.7102  222.5957 H   0  0  0  0  0  0  0  0  0  0  0  0
  141.6742   70.9750  224.4482 H   0  0  0  0  0  0  0  0  0  0  0  0
  140.3058   72.0657  225.1045 H   0  0  0  0  0  0  0  0  0  0  0  0
  139.4922   70.6645  226.2598 H   0  0  0  0  0  0  0  0  0  0  0  0
  141.9209   68.7483  225.9043 H   0  0  0  0  0  0  0  0  0  0  0  0
  142.2242   70.3868  226.5137 H   0  0  0  0  0  0  0  0  0  0  0  0
  141.7012   68.4758  228.2421 H   0  0  0  0  0  0  0  0  0  0  0  0
  140.8580   70.0465  228.4402 H   0  0  0  0  0  0  0  0  0  0  0  0
  139.5378   67.7097  228.4304 H   0  0  0  0  0  0  0  0  0  0  0  0
  138.8394   69.2181  227.7188 H   0  0  0  0  0  0  0  0  0  0  0  0
  140.3864   67.1118  226.1399 H   0  0  0  0  0  0  0  0  0  0  0  0
  138.5989   67.2035  226.2341 H   0  0  0  0  0  0  0  0  0  0  0  0
  140.0540   68.4743  224.2984 H   0  0  0  0  0  0  0  0  0  0  0  0
  138.4886   69.1118  224.9320 H   0  0  0  0  0  0  0  0  0  0  0  0
  144.9668   73.1437  221.6229 H   0  0  0  0  0  0  0  0  0  0  0  0
  145.3158   71.5910  220.8262 H   0  0  0  0  0  0  0  0  0  0  0  0
  145.4528   74.4002  219.6232 H   0  0  0  0  0  0  0  0  0  0  0  0
  146.8008   73.2300  219.8540 H   0  0  0  0  0  0  0  0  0  0  0  0
  146.3760   72.5860  217.8440 H   0  0  0  0  0  0  0  0  0  0  0  0
  144.5389   71.3103  217.2373 H   0  0  0  0  0  0  0  0  0  0  0  0
  145.2489   70.8052  218.8291 H   0  0  0  0  0  0  0  0  0  0  0  0
  142.6481   72.2988  218.2942 H   0  0  0  0  0  0  0  0  0  0  0  0
  142.8926   70.7901  219.2081 H   0  0  0  0  0  0  0  0  0  0  0  0
  139.4485   77.4746  222.1202 H   0  0  0  0  0  0  0  0  0  0  0  0
  140.5508   76.6666  223.2686 H   0  0  0  0  0  0  0  0  0  0  0  0
  1  2  2  0
  2  3  1  0
  3  4  2  0
  4  5  1  0
  5  6  2  0
  5  7  1  0
  7  8  1  0
  8  9  1  0
  9 10  1  0
 10 11  2  0
 11 12  1  0
 12 13  1  0
 13 14  1  0
 14 15  1  0
 15 16  1  0
 16 17  1  0
 17 18  1  0
 18 19  1  0
 19 20  1  0
 20 21  1  0
 12 22  2  0
 22 23  1  0
 23 24  1  0
 24 25  1  0
 25 26  1  0
 26 27  1  0
 27 28  1  0
 28 29  1  0
 23 30  2  0
  9 31  1  0
  6  1  1  0
 30 10  1  0
 31  4  1  0
 21 16  1  0
 29 24  1  0
  1 32  1  0
  2 33  1  0
  3 34  1  0
  6 35  1  0
  7 36  1  0
  7 37  1  0
  8 38  1  0
  8 39  1  0
 13 40  1  0
 14 41  1  0
 14 42  1  0
 15 43  1  0
 15 44  1  0
 16 45  1  0
 17 46  1  0
 17 47  1  0
 18 48  1  0
 18 49  1  0
 19 50  1  0
 19 51  1  0
 20 52  1  0
 20 53  1  0
 21 54  1  0
 21 55  1  0
 25 56  1  0
 25 57  1  0
 26 58  1  0
 26 59  1  0
 27 60  1  0
 28 61  1  0
 28 62  1  0
 29 63  1  0
 29 64  1  0
 31 65  1  0
 31 66  1  0
M  END
>  <smiles>  (32) 
c1ccc2c(c1)CCN(c1nc(NCCC3CCCCC3)nc(N3CCNCC3)n1)C2

>  <score_type>  (32) 
oracle

>  <origin>  (32) 
autodockgpu

>  <m_score__min__energy>  (32) 
-10.369999999999999

>  <m_primary>  (32) 
energy

>  <rmsd>  (32) 
5.0375241978755385

>  <m_score__min__rmsd>  (32) 
5.0375241978755385

>  <meeko>  (32) 
{"free_energy": -9.91, "intermolecular_energy": -11.7, "internal_energy": -0.91, "cluster_size": 42, "cluster_id": 1, "rank_in_cluster": 18}

>  <energy>  (32) 
-9.46

>  <cluster_rmsd>  (32) 
0.67

>  <cluster>  (32) 
1

$$$$

     RDKit          3D

 66 70  0  0  0  0  0  0  0  0999 V2000
  140.9460   81.2590  221.5750 C   0  0  0  0  0  0  0  0  0  0  0  0
  142.1710   80.6800  221.8820 C   0  0  0  0  0  0  0  0  0  0  0  0
  142.2630   79.3990  222.3800 C   0  0  0  0  0  0  0  0  0  0  0  0
  141.0840   78.7120  222.5610 C   0  0  0  0  0  0  0  0  0  0  0  0
  139.8410   79.2500  222.2680 C   0  0  0  0  0  0  0  0  0  0  0  0
  139.7920   80.5340  221.7710 C   0  0  0  0  0  0  0  0  0  0  0  0
  138.6350   78.4170  222.5030 C   0  0  0  0  0  0  0  0  0  0  0  0
  138.8750   77.0840  221.8280 C   0  0  0  0  0  0  0  0  0  0  0  0
  140.1090   76.5310  222.2910 N   0  0  0  0  0  0  0  0  0  0  0  0
  140.4460   75.1700  221.9610 C   0  0  0  0  0  0  0  0  0  0  0  0
  139.5750   74.2150  222.3360 N   0  0  0  0  0  0  0  0  0  0  0  0
  139.8800   72.9420  222.0330 C   0  0  0  0  0  0  0  0  0  0  0  0
  138.9600   71.8980  222.4250 N   0  0  0  0  0  0  0  0  0  0  0  0
  139.0350   71.4560  223.7740 C   0  0  0  0  0  0  0  0  0  0  0  0
  140.4110   71.4820  224.3380 C   0  0  0  0  0  0  0  0  0  0  0  0
  140.6460   70.8780  225.6660 C   0  0  0  0  0  0  0  0  0  0  0  0
  139.4890   69.9200  226.0450 C   0  0  0  0  0  0  0  0  0  0  0  0
  140.0780   68.8870  226.9730 C   0  0  0  0  0  0  0  0  0  0  0  0
  141.0590   69.5620  227.9080 C   0  0  0  0  0  0  0  0  0  0  0  0
  140.6700   71.0110  228.1550 C   0  0  0  0  0  0  0  0  0  0  0  0
  140.7920   71.7930  226.8350 C   0  0  0  0  0  0  0  0  0  0  0  0
  141.0240   72.6660  221.3780 N   0  0  0  0  0  0  0  0  0  0  0  0
  141.8920   73.6190  221.0050 C   0  0  0  0  0  0  0  0  0  0  0  0
  143.0930   73.3240  220.3150 N   0  0  0  0  0  0  0  0  0  0  0  0
  144.1490   72.4860  220.8420 C   0  0  0  0  0  0  0  0  0  0  0  0
  145.3630   73.3640  221.0300 C   0  0  0  0  0  0  0  0  0  0  0  0
  145.6110   74.1100  219.8450 N   0  0  0  0  0  0  0  0  0  0  0  0
  144.8340   73.7730  218.6970 C   0  0  0  0  0  0  0  0  0  0  0  0
  143.3320   73.8770  218.9740 C   0  0  0  0  0  0  0  0  0  0  0  0
  141.5970   74.8950  221.3030 N   0  0  0  0  0  0  0  0  0  0  0  0
  141.0580   77.3050  223.0980 C   0  0  0  0  0  0  0  0  0  0  0  0
  140.8986   82.2845  221.1800 H   0  0  0  0  0  0  0  0  0  0  0  0
  143.0921   81.2600  221.7232 H   0  0  0  0  0  0  0  0  0  0  0  0
  143.2353   78.9452  222.6223 H   0  0  0  0  0  0  0  0  0  0  0  0
  138.8189   80.9855  221.5277 H   0  0  0  0  0  0  0  0  0  0  0  0
  138.4820   78.2710  223.5825 H   0  0  0  0  0  0  0  0  0  0  0  0
  137.7372   78.9053  222.0962 H   0  0  0  0  0  0  0  0  0  0  0  0
  138.0512   76.3966  222.0705 H   0  0  0  0  0  0  0  0  0  0  0  0
  138.9236   77.2281  220.7386 H   0  0  0  0  0  0  0  0  0  0  0  0
  138.3420   71.5590  221.6730 H   0  0  0  0  0  0  0  0  0  0  0  0
  138.3959   72.1071  224.3884 H   0  0  0  0  0  0  0  0  0  0  0  0
  138.7030   70.4074  223.7867 H   0  0  0  0  0  0  0  0  0  0  0  0
  141.0633   70.9578  223.6241 H   0  0  0  0  0  0  0  0  0  0  0  0
  140.6161   72.5518  224.4915 H   0  0  0  0  0  0  0  0  0  0  0  0
  141.6200   70.3913  225.5097 H   0  0  0  0  0  0  0  0  0  0  0  0
  138.6868   70.4749  226.5535 H   0  0  0  0  0  0  0  0  0  0  0  0
  139.0514   69.4503  225.1518 H   0  0  0  0  0  0  0  0  0  0  0  0
  139.2742   68.4175  227.5591 H   0  0  0  0  0  0  0  0  0  0  0  0
  140.5971   68.1150  226.3861 H   0  0  0  0  0  0  0  0  0  0  0  0
  141.0694   69.0241  228.8675 H   0  0  0  0  0  0  0  0  0  0  0  0
  142.0558   69.5418  227.4432 H   0  0  0  0  0  0  0  0  0  0  0  0
  139.6324   71.0580  228.5172 H   0  0  0  0  0  0  0  0  0  0  0  0
  141.3360   71.4515  228.9115 H   0  0  0  0  0  0  0  0  0  0  0  0
  140.0038   72.5592  226.7948 H   0  0  0  0  0  0  0  0  0  0  0  0
  141.7847   72.2650  226.7935 H   0  0  0  0  0  0  0  0  0  0  0  0
  143.8424   72.0550  221.8065 H   0  0  0  0  0  0  0  0  0  0  0  0
  144.3695   71.6564  220.1542 H   0  0  0  0  0  0  0  0  0  0  0  0
  145.1860   74.0564  221.8662 H   0  0  0  0  0  0  0  0  0  0  0  0
  146.2361   72.7315  221.2483 H   0  0  0  0  0  0  0  0  0  0  0  0
  146.6160   74.0280  219.5720 H   0  0  0  0  0  0  0  0  0  0  0  0
  145.0930   74.4601  217.8780 H   0  0  0  0  0  0  0  0  0  0  0  0
  145.0595   72.7309  218.4265 H   0  0  0  0  0  0  0  0  0  0  0  0
  143.0153   74.9299  218.9396 H   0  0  0  0  0  0  0  0  0  0  0  0
  142.7581   73.3222  218.2171 H   0  0  0  0  0  0  0  0  0  0  0  0
  140.7351   77.3124  224.1495 H   0  0  0  0  0  0  0  0  0  0  0  0
  142.0609   76.8563  223.0446 H   0  0  0  0  0  0  0  0  0  0  0  0
  1  2  2  0
  2  3  1  0
  3  4  2  0
  4  5  1  0
  5  6  2  0
  5  7  1  0
  7  8  1  0
  8  9  1  0
  9 10  1  0
 10 11  2  0
 11 12  1  0
 12 13  1  0
 13 14  1  0
 14 15  1  0
 15 16  1  0
 16 17  1  0
 17 18  1  0
 18 19  1  0
 19 20  1  0
 20 21  1  0
 12 22  2  0
 22 23  1  0
 23 24  1  0
 24 25  1  0
 25 26  1  0
 26 27  1  0
 27 28  1  0
 28 29  1  0
 23 30  2  0
  9 31  1  0
  6  1  1  0
 30 10  1  0
 31  4  1  0
 21 16  1  0
 29 24  1  0
  1 32  1  0
  2 33  1  0
  3 34  1  0
  6 35  1  0
  7 36  1  0
  7 37  1  0
  8 38  1  0
  8 39  1  0
 13 40  1  0
 14 41  1  0
 14 42  1  0
 15 43  1  0
 15 44  1  0
 16 45  1  0
 17 46  1  0
 17 47  1  0
 18 48  1  0
 18 49  1  0
 19 50  1  0
 19 51  1  0
 20 52  1  0
 20 53  1  0
 21 54  1  0
 21 55  1  0
 25 56  1  0
 25 57  1  0
 26 58  1  0
 26 59  1  0
 27 60  1  0
 28 61  1  0
 28 62  1  0
 29 63  1  0
 29 64  1  0
 31 65  1  0
 31 66  1  0
M  END
>  <smiles>  (33) 
c1ccc2c(c1)CCN(c1nc(NCCC3CCCCC3)nc(N3CCNCC3)n1)C2

>  <score_type>  (33) 
oracle

>  <origin>  (33) 
autodockgpu

>  <m_score__min__energy>  (33) 
-10.369999999999999

>  <m_primary>  (33) 
energy

>  <rmsd>  (33) 
4.684346568736444

>  <m_score__min__rmsd>  (33) 
4.684346568736444

>  <meeko>  (33) 
{"free_energy": -9.05, "intermolecular_energy": -10.84, "internal_energy": -1.08, "cluster_size": 42, "cluster_id": 1, "rank_in_cluster": 42}

>  <energy>  (33) 
-9.43

>  <cluster_rmsd>  (33) 
1.35

>  <cluster>  (33) 
1

$$$$

     RDKit          3D

 66 70  0  0  0  0  0  0  0  0999 V2000
  142.5580   81.2390  223.0320 C   0  0  0  0  0  0  0  0  0  0  0  0
  142.4570   80.4180  224.1480 C   0  0  0  0  0  0  0  0  0  0  0  0
  141.8240   79.1960  224.0940 C   0  0  0  0  0  0  0  0  0  0  0  0
  141.2930   78.8200  222.8810 C   0  0  0  0  0  0  0  0  0  0  0  0
  141.3710   79.6070  221.7430 C   0  0  0  0  0  0  0  0  0  0  0  0
  142.0130   80.8220  221.8380 C   0  0  0  0  0  0  0  0  0  0  0  0
  140.7610   79.0980  220.4880 C   0  0  0  0  0  0  0  0  0  0  0  0
  141.2870   77.6960  220.2720 C   0  0  0  0  0  0  0  0  0  0  0  0
  141.0410   76.9110  221.4410 N   0  0  0  0  0  0  0  0  0  0  0  0
  141.2510   75.4870  221.3980 C   0  0  0  0  0  0  0  0  0  0  0  0
  140.3670   74.7160  222.0590 N   0  0  0  0  0  0  0  0  0  0  0  0
  140.5520   73.3870  222.0250 C   0  0  0  0  0  0  0  0  0  0  0  0
  139.6160   72.5390  222.7280 N   0  0  0  0  0  0  0  0  0  0  0  0
  140.0170   71.1930  222.9480 C   0  0  0  0  0  0  0  0  0  0  0  0
  139.2290   70.4980  224.0010 C   0  0  0  0  0  0  0  0  0  0  0  0
  139.9090   70.1060  225.2540 C   0  0  0  0  0  0  0  0  0  0  0  0
  138.9640   69.2720  226.1530 C   0  0  0  0  0  0  0  0  0  0  0  0
  139.8460   68.3770  226.9870 C   0  0  0  0  0  0  0  0  0  0  0  0
  141.0770   69.1510  227.4110 C   0  0  0  0  0  0  0  0  0  0  0  0
  140.7740   70.6360  227.5310 C   0  0  0  0  0  0  0  0  0  0  0  0
  140.4300   71.1890  226.1360 C   0  0  0  0  0  0  0  0  0  0  0  0
  141.5970   72.8750  221.3450 N   0  0  0  0  0  0  0  0  0  0  0  0
  142.4780   73.6430  220.6860 C   0  0  0  0  0  0  0  0  0  0  0  0
  143.5730   73.1000  219.9720 N   0  0  0  0  0  0  0  0  0  0  0  0
  144.5240   72.1620  220.5290 C   0  0  0  0  0  0  0  0  0  0  0  0
  145.8660   72.8530  220.5640 C   0  0  0  0  0  0  0  0  0  0  0  0
  146.1450   73.4360  219.2960 N   0  0  0  0  0  0  0  0  0  0  0  0
  145.2530   73.1160  218.2310 C   0  0  0  0  0  0  0  0  0  0  0  0
  143.8040   73.4800  218.5700 C   0  0  0  0  0  0  0  0  0  0  0  0
  142.3010   74.9740  220.7140 N   0  0  0  0  0  0  0  0  0  0  0  0
  140.5790   77.5060  222.6990 C   0  0  0  0  0  0  0  0  0  0  0  0
  143.0676   82.2114  223.1012 H   0  0  0  0  0  0  0  0  0  0  0  0
  142.8942   80.7528  225.1002 H   0  0  0  0  0  0  0  0  0  0  0  0
  141.7463   78.5494  224.9805 H   0  0  0  0  0  0  0  0  0  0  0  0
  142.0913   81.4665  220.9500 H   0  0  0  0  0  0  0  0  0  0  0  0
  139.6652   79.0792  220.5821 H   0  0  0  0  0  0  0  0  0  0  0  0
  141.0177   79.7469  219.6377 H   0  0  0  0  0  0  0  0  0  0  0  0
  140.7763   77.2412  219.4104 H   0  0  0  0  0  0  0  0  0  0  0  0
  142.3689   77.7355  220.0771 H   0  0  0  0  0  0  0  0  0  0  0  0
  138.7280   72.9940  222.9880 H   0  0  0  0  0  0  0  0  0  0  0  0
  139.9020   70.6380  222.0053 H   0  0  0  0  0  0  0  0  0  0  0  0
  141.0607   71.2214  223.2941 H   0  0  0  0  0  0  0  0  0  0  0  0
  138.3994   71.1651  224.2779 H   0  0  0  0  0  0  0  0  0  0  0  0
  138.9501   69.5402  223.5375 H   0  0  0  0  0  0  0  0  0  0  0  0
  140.7792   69.5592  224.8618 H   0  0  0  0  0  0  0  0  0  0  0  0
  138.3735   69.9353  226.8021 H   0  0  0  0  0  0  0  0  0  0  0  0
  138.2573   68.6835  225.5494 H   0  0  0  0  0  0  0  0  0  0  0  0
  139.2948   68.0440  227.8788 H   0  0  0  0  0  0  0  0  0  0  0  0
  140.1455   67.4979  226.3975 H   0  0  0  0  0  0  0  0  0  0  0  0
  141.4204   68.7743  228.3857 H   0  0  0  0  0  0  0  0  0  0  0  0
  141.8568   69.0136  226.6475 H   0  0  0  0  0  0  0  0  0  0  0  0
  139.9201   70.7851  228.2082 H   0  0  0  0  0  0  0  0  0  0  0  0
  141.6503   71.1637  227.9354 H   0  0  0  0  0  0  0  0  0  0  0  0
  139.6644   71.9724  226.2368 H   0  0  0  0  0  0  0  0  0  0  0  0
  141.3433   71.6040  225.6848 H   0  0  0  0  0  0  0  0  0  0  0  0
  144.2202   71.8774  221.5472 H   0  0  0  0  0  0  0  0  0  0  0  0
  144.5720   71.2472  219.9200 H   0  0  0  0  0  0  0  0  0  0  0  0
  145.8506   73.6405  221.3319 H   0  0  0  0  0  0  0  0  0  0  0  0
  146.6465   72.1155  220.8026 H   0  0  0  0  0  0  0  0  0  0  0  0
  147.1050   73.1720  218.9840 H   0  0  0  0  0  0  0  0  0  0  0  0
  145.5583   73.6720  217.3323 H   0  0  0  0  0  0  0  0  0  0  0  0
  145.3008   72.0302  218.0612 H   0  0  0  0  0  0  0  0  0  0  0  0
  143.6481   74.5614  218.4427 H   0  0  0  0  0  0  0  0  0  0  0  0
  143.1046   72.9534  217.9040 H   0  0  0  0  0  0  0  0  0  0  0  0
  139.4927   77.6740  222.6560 H   0  0  0  0  0  0  0  0  0  0  0  0
  140.7946   76.8334  223.5423 H   0  0  0  0  0  0  0  0  0  0  0  0
  1  2  2  0
  2  3  1  0
  3  4  2  0
  4  5  1  0
  5  6  2  0
  5  7  1  0
  7  8  1  0
  8  9  1  0
  9 10  1  0
 10 11  2  0
 11 12  1  0
 12 13  1  0
 13 14  1  0
 14 15  1  0
 15 16  1  0
 16 17  1  0
 17 18  1  0
 18 19  1  0
 19 20  1  0
 20 21  1  0
 12 22  2  0
 22 23  1  0
 23 24  1  0
 24 25  1  0
 25 26  1  0
 26 27  1  0
 27 28  1  0
 28 29  1  0
 23 30  2  0
  9 31  1  0
  6  1  1  0
 30 10  1  0
 31  4  1  0
 21 16  1  0
 29 24  1  0
  1 32  1  0
  2 33  1  0
  3 34  1  0
  6 35  1  0
  7 36  1  0
  7 37  1  0
  8 38  1  0
  8 39  1  0
 13 40  1  0
 14 41  1  0
 14 42  1  0
 15 43  1  0
 15 44  1  0
 16 45  1  0
 17 46  1  0
 17 47  1  0
 18 48  1  0
 18 49  1  0
 19 50  1  0
 19 51  1  0
 20 52  1  0
 20 53  1  0
 21 54  1  0
 21 55  1  0
 25 56  1  0
 25 57  1  0
 26 58  1  0
 26 59  1  0
 27 60  1  0
 28 61  1  0
 28 62  1  0
 29 63  1  0
 29 64  1  0
 31 65  1  0
 31 66  1  0
M  END
>  <smiles>  (34) 
c1ccc2c(c1)CCN(c1nc(NCCC3CCCCC3)nc(N3CCNCC3)n1)C2

>  <score_type>  (34) 
oracle

>  <origin>  (34) 
autodockgpu

>  <m_score__min__energy>  (34) 
-10.369999999999999

>  <m_primary>  (34) 
energy

>  <rmsd>  (34) 
5.26376430377326

>  <m_score__min__rmsd>  (34) 
5.26376430377326

>  <meeko>  (34) 
{"free_energy": -9.92, "intermolecular_energy": -11.71, "internal_energy": -0.89, "cluster_size": 42, "cluster_id": 1, "rank_in_cluster": 17}

>  <energy>  (34) 
-9.41

>  <cluster_rmsd>  (34) 
0.64

>  <cluster>  (34) 
1

$$$$

     RDKit          3D

 66 70  0  0  0  0  0  0  0  0999 V2000
  142.5930   80.7240  222.8380 C   0  0  0  0  0  0  0  0  0  0  0  0
  142.2150   79.9980  223.9610 C   0  0  0  0  0  0  0  0  0  0  0  0
  141.4770   78.8400  223.8610 C   0  0  0  0  0  0  0  0  0  0  0  0
  141.1270   78.4280  222.5940 C   0  0  0  0  0  0  0  0  0  0  0  0
  141.4820   79.1220  221.4480 C   0  0  0  0  0  0  0  0  0  0  0  0
  142.2210   80.2750  221.5910 C   0  0  0  0  0  0  0  0  0  0  0  0
  141.0480   78.5840  220.1330 C   0  0  0  0  0  0  0  0  0  0  0  0
  141.4540   77.1270  220.0900 C   0  0  0  0  0  0  0  0  0  0  0  0
  140.9290   76.4540  221.2370 N   0  0  0  0  0  0  0  0  0  0  0  0
  140.9930   75.0170  221.3080 C   0  0  0  0  0  0  0  0  0  0  0  0
  140.0810   74.4000  222.0820 N   0  0  0  0  0  0  0  0  0  0  0  0
  140.1310   73.0600  222.1560 C   0  0  0  0  0  0  0  0  0  0  0  0
  139.1620   72.3750  222.9820 N   0  0  0  0  0  0  0  0  0  0  0  0
  139.2300   70.9560  223.0010 C   0  0  0  0  0  0  0  0  0  0  0  0
  140.3170   70.4190  223.8630 C   0  0  0  0  0  0  0  0  0  0  0  0
  140.2050   70.5790  225.3280 C   0  0  0  0  0  0  0  0  0  0  0  0
  141.4850   71.2290  225.9080 C   0  0  0  0  0  0  0  0  0  0  0  0
  141.0640   71.9610  227.1580 C   0  0  0  0  0  0  0  0  0  0  0  0
  140.0360   71.1290  227.8970 C   0  0  0  0  0  0  0  0  0  0  0  0
  140.2480   69.6460  227.6390 C   0  0  0  0  0  0  0  0  0  0  0  0
  139.9830   69.3550  226.1510 C   0  0  0  0  0  0  0  0  0  0  0  0
  141.0740   72.3880  221.4680 N   0  0  0  0  0  0  0  0  0  0  0  0
  141.9830   73.0030  220.6960 C   0  0  0  0  0  0  0  0  0  0  0  0
  142.9720   72.2910  219.9740 N   0  0  0  0  0  0  0  0  0  0  0  0
  144.0760   71.5840  220.5860 C   0  0  0  0  0  0  0  0  0  0  0  0
  145.3450   72.2800  220.1550 C   0  0  0  0  0  0  0  0  0  0  0  0
  145.3470   72.4580  218.7440 N   0  0  0  0  0  0  0  0  0  0  0  0
  144.3050   71.8150  218.0130 C   0  0  0  0  0  0  0  0  0  0  0  0
  142.9180   72.2350  218.5050 C   0  0  0  0  0  0  0  0  0  0  0  0
  141.9420   74.3430  220.6160 N   0  0  0  0  0  0  0  0  0  0  0  0
  140.3210   77.1770  222.3580 C   0  0  0  0  0  0  0  0  0  0  0  0
  143.1825   81.6466  222.9443 H   0  0  0  0  0  0  0  0  0  0  0  0
  142.5134   80.3582  224.9566 H   0  0  0  0  0  0  0  0  0  0  0  0
  141.1801   78.2692  224.7532 H   0  0  0  0  0  0  0  0  0  0  0  0
  142.5177   80.8443  220.6978 H   0  0  0  0  0  0  0  0  0  0  0  0
  139.9565   78.6743  220.0304 H   0  0  0  0  0  0  0  0  0  0  0  0
  141.5141   79.1439  219.3088 H   0  0  0  0  0  0  0  0  0  0  0  0
  141.0549   76.6616  219.1767 H   0  0  0  0  0  0  0  0  0  0  0  0
  142.5514   77.0511  220.0896 H   0  0  0  0  0  0  0  0  0  0  0  0
  138.4940   72.9910  223.4700 H   0  0  0  0  0  0  0  0  0  0  0  0
  138.2698   70.5676  223.3713 H   0  0  0  0  0  0  0  0  0  0  0  0
  139.4466   70.6316  221.9725 H   0  0  0  0  0  0  0  0  0  0  0  0
  140.3887   69.3404  223.6596 H   0  0  0  0  0  0  0  0  0  0  0  0
  141.1951   71.0247  223.5943 H   0  0  0  0  0  0  0  0  0  0  0  0
  139.2958   71.1932  225.4063 H   0  0  0  0  0  0  0  0  0  0  0  0
  142.2272   70.4548  226.1526 H   0  0  0  0  0  0  0  0  0  0  0  0
  141.9476   71.9140  225.1822 H   0  0  0  0  0  0  0  0  0  0  0  0
  141.9402   72.1223  227.8032 H   0  0  0  0  0  0  0  0  0  0  0  0
  140.6286   72.9346  226.8886 H   0  0  0  0  0  0  0  0  0  0  0  0
  140.1249   71.3227  228.9762 H   0  0  0  0  0  0  0  0  0  0  0  0
  139.0348   71.4078  227.5366 H   0  0  0  0  0  0  0  0  0  0  0  0
  141.2834   69.3720  227.8900 H   0  0  0  0  0  0  0  0  0  0  0  0
  139.5585   69.0574  228.2620 H   0  0  0  0  0  0  0  0  0  0  0  0
  140.6654   68.5622  225.8108 H   0  0  0  0  0  0  0  0  0  0  0  0
  138.9374   69.0341  226.0336 H   0  0  0  0  0  0  0  0  0  0  0  0
  143.9825   71.6149  221.6816 H   0  0  0  0  0  0  0  0  0  0  0  0
  144.0844   70.5287  220.2756 H   0  0  0  0  0  0  0  0  0  0  0  0
  145.4065   73.2623  220.6462 H   0  0  0  0  0  0  0  0  0  0  0  0
  146.2100   71.6643  220.4425 H   0  0  0  0  0  0  0  0  0  0  0  0
  146.2530   72.1320  218.3420 H   0  0  0  0  0  0  0  0  0  0  0  0
  144.4005   72.0807  216.9499 H   0  0  0  0  0  0  0  0  0  0  0  0
  144.4046   70.7297  218.1616 H   0  0  0  0  0  0  0  0  0  0  0  0
  142.6589   73.2244  218.1001 H   0  0  0  0  0  0  0  0  0  0  0  0
  142.1533   71.5183  218.1710 H   0  0  0  0  0  0  0  0  0  0  0  0
  139.2822   77.4425  222.1121 H   0  0  0  0  0  0  0  0  0  0  0  0
  140.3152   76.5489  223.2610 H   0  0  0  0  0  0  0  0  0  0  0  0
  1  2  2  0
  2  3  1  0
  3  4  2  0
  4  5  1  0
  5  6  2  0
  5  7  1  0
  7  8  1  0
  8  9  1  0
  9 10  1  0
 10 11  2  0
 11 12  1  0
 12 13  1  0
 13 14  1  0
 14 15  1  0
 15 16  1  0
 16 17  1  0
 17 18  1  0
 18 19  1  0
 19 20  1  0
 20 21  1  0
 12 22  2  0
 22 23  1  0
 23 24  1  0
 24 25  1  0
 25 26  1  0
 26 27  1  0
 27 28  1  0
 28 29  1  0
 23 30  2  0
  9 31  1  0
  6  1  1  0
 30 10  1  0
 31  4  1  0
 21 16  1  0
 29 24  1  0
  1 32  1  0
  2 33  1  0
  3 34  1  0
  6 35  1  0
  7 36  1  0
  7 37  1  0
  8 38  1  0
  8 39  1  0
 13 40  1  0
 14 41  1  0
 14 42  1  0
 15 43  1  0
 15 44  1  0
 16 45  1  0
 17 46  1  0
 17 47  1  0
 18 48  1  0
 18 49  1  0
 19 50  1  0
 19 51  1  0
 20 52  1  0
 20 53  1  0
 21 54  1  0
 21 55  1  0
 25 56  1  0
 25 57  1  0
 26 58  1  0
 26 59  1  0
 27 60  1  0
 28 61  1  0
 28 62  1  0
 29 63  1  0
 29 64  1  0
 31 65  1  0
 31 66  1  0
M  END
>  <smiles>  (35) 
c1ccc2c(c1)CCN(c1nc(NCCC3CCCCC3)nc(N3CCNCC3)n1)C2

>  <score_type>  (35) 
oracle

>  <origin>  (35) 
autodockgpu

>  <m_score__min__energy>  (35) 
-10.369999999999999

>  <m_primary>  (35) 
energy

>  <rmsd>  (35) 
5.041425467280285

>  <m_score__min__rmsd>  (35) 
5.041425467280285

>  <meeko>  (35) 
{"free_energy": -9.46, "intermolecular_energy": -11.25, "internal_energy": -1.09, "cluster_size": 42, "cluster_id": 1, "rank_in_cluster": 32}

>  <energy>  (35) 
-9.39

>  <cluster_rmsd>  (35) 
0.9

>  <cluster>  (35) 
1

$$$$

     RDKit          3D

 66 70  0  0  0  0  0  0  0  0999 V2000
  145.3350   69.7910  217.6220 C   0  0  0  0  0  0  0  0  0  0  0  0
  144.5610   69.0410  218.5000 C   0  0  0  0  0  0  0  0  0  0  0  0
  144.0150   69.5930  219.6370 C   0  0  0  0  0  0  0  0  0  0  0  0
  144.2670   70.9260  219.8690 C   0  0  0  0  0  0  0  0  0  0  0  0
  145.0330   71.7110  219.0220 C   0  0  0  0  0  0  0  0  0  0  0  0
  145.5620   71.1220  217.8940 C   0  0  0  0  0  0  0  0  0  0  0  0
  145.2400   73.1380  219.3730 C   0  0  0  0  0  0  0  0  0  0  0  0
  143.8770   73.7320  219.6540 C   0  0  0  0  0  0  0  0  0  0  0  0
  143.2100   72.9420  220.6410 N   0  0  0  0  0  0  0  0  0  0  0  0
  141.9910   73.4280  221.2350 C   0  0  0  0  0  0  0  0  0  0  0  0
  141.1920   72.5200  221.8260 N   0  0  0  0  0  0  0  0  0  0  0  0
  140.0530   72.9620  222.3830 C   0  0  0  0  0  0  0  0  0  0  0  0
  139.1780   72.0060  223.0230 N   0  0  0  0  0  0  0  0  0  0  0  0
  139.5730   70.6420  222.9630 C   0  0  0  0  0  0  0  0  0  0  0  0
  139.2010   69.8560  224.1710 C   0  0  0  0  0  0  0  0  0  0  0  0
  139.7040   70.2990  225.4880 C   0  0  0  0  0  0  0  0  0  0  0  0
  141.1350   70.8770  225.3630 C   0  0  0  0  0  0  0  0  0  0  0  0
  141.2910   71.8760  226.4820 C   0  0  0  0  0  0  0  0  0  0  0  0
  140.6210   71.3350  227.7270 C   0  0  0  0  0  0  0  0  0  0  0  0
  140.6470   69.8150  227.7440 C   0  0  0  0  0  0  0  0  0  0  0  0
  139.7860   69.2880  226.5820 C   0  0  0  0  0  0  0  0  0  0  0  0
  139.7500   74.2740  222.3340 N   0  0  0  0  0  0  0  0  0  0  0  0
  140.5460   75.1800  221.7450 C   0  0  0  0  0  0  0  0  0  0  0  0
  140.2240   76.5570  221.6970 N   0  0  0  0  0  0  0  0  0  0  0  0
  141.1250   77.5880  221.2300 C   0  0  0  0  0  0  0  0  0  0  0  0
  141.4350   78.4780  222.4090 C   0  0  0  0  0  0  0  0  0  0  0  0
  140.2290   78.8680  223.0540 N   0  0  0  0  0  0  0  0  0  0  0  0
  139.0090   78.5280  222.3970 C   0  0  0  0  0  0  0  0  0  0  0  0
  138.9000   77.0230  222.1370 C   0  0  0  0  0  0  0  0  0  0  0  0
  141.6870   74.7470  221.1840 N   0  0  0  0  0  0  0  0  0  0  0  0
  143.7220   71.6400  221.0790 C   0  0  0  0  0  0  0  0  0  0  0  0
  145.7613   69.3268  216.7204 H   0  0  0  0  0  0  0  0  0  0  0  0
  144.3800   67.9784  218.2806 H   0  0  0  0  0  0  0  0  0  0  0  0
  143.4043   68.9950  220.3294 H   0  0  0  0  0  0  0  0  0  0  0  0
  146.1725   71.7217  217.2029 H   0  0  0  0  0  0  0  0  0  0  0  0
  145.8773   73.2178  220.2660 H   0  0  0  0  0  0  0  0  0  0  0  0
  145.7376   73.6740  218.5514 H   0  0  0  0  0  0  0  0  0  0  0  0
  143.9943   74.7609  220.0251 H   0  0  0  0  0  0  0  0  0  0  0  0
  143.2826   73.7429  218.7285 H   0  0  0  0  0  0  0  0  0  0  0  0
  138.3320   72.4100  223.4520 H   0  0  0  0  0  0  0  0  0  0  0  0
  139.0935   70.1801  222.0873 H   0  0  0  0  0  0  0  0  0  0  0  0
  140.6709   70.6286  222.8972 H   0  0  0  0  0  0  0  0  0  0  0  0
  138.1025   69.8513  224.2287 H   0  0  0  0  0  0  0  0  0  0  0  0
  139.6846   68.8805  224.0145 H   0  0  0  0  0  0  0  0  0  0  0  0
  138.9327   71.0285  225.7761 H   0  0  0  0  0  0  0  0  0  0  0  0
  141.8797   70.0737  225.4638 H   0  0  0  0  0  0  0  0  0  0  0  0
  141.2892   71.3503  224.3821 H   0  0  0  0  0  0  0  0  0  0  0  0
  142.3600   72.0415  226.6815 H   0  0  0  0  0  0  0  0  0  0  0  0
  140.8239   72.8296  226.1948 H   0  0  0  0  0  0  0  0  0  0  0  0
  141.1506   71.7136  228.6137 H   0  0  0  0  0  0  0  0  0  0  0  0
  139.5724   71.6673  227.7328 H   0  0  0  0  0  0  0  0  0  0  0  0
  141.6822   69.4622  227.6260 H   0  0  0  0  0  0  0  0  0  0  0  0
  140.2478   69.4463  228.7004 H   0  0  0  0  0  0  0  0  0  0  0  0
  140.2364   68.3650  226.1881 H   0  0  0  0  0  0  0  0  0  0  0  0
  138.7711   69.0871  226.9557 H   0  0  0  0  0  0  0  0  0  0  0  0
  142.0508   77.1341  220.8468 H   0  0  0  0  0  0  0  0  0  0  0  0
  140.6669   78.1664  220.4141 H   0  0  0  0  0  0  0  0  0  0  0  0
  142.0689   77.9305  223.1220 H   0  0  0  0  0  0  0  0  0  0  0  0
  141.9620   79.3762  222.0548 H   0  0  0  0  0  0  0  0  0  0  0  0
  140.2200   79.9010  223.2060 H   0  0  0  0  0  0  0  0  0  0  0  0
  138.1653   78.8416  223.0294 H   0  0  0  0  0  0  0  0  0  0  0  0
  138.9900   79.0438  221.4256 H   0  0  0  0  0  0  0  0  0  0  0  0
  138.6054   76.5021  223.0600 H   0  0  0  0  0  0  0  0  0  0  0  0
  138.1396   76.8149  221.3698 H   0  0  0  0  0  0  0  0  0  0  0  0
  144.5219   71.7831  221.8204 H   0  0  0  0  0  0  0  0  0  0  0  0
  142.9189   71.0489  221.5434 H   0  0  0  0  0  0  0  0  0  0  0  0
  1  2  2  0
  2  3  1  0
  3  4  2  0
  4  5  1  0
  5  6  2  0
  5  7  1  0
  7  8  1  0
  8  9  1  0
  9 10  1  0
 10 11  2  0
 11 12  1  0
 12 13  1  0
 13 14  1  0
 14 15  1  0
 15 16  1  0
 16 17  1  0
 17 18  1  0
 18 19  1  0
 19 20  1  0
 20 21  1  0
 12 22  2  0
 22 23  1  0
 23 24  1  0
 24 25  1  0
 25 26  1  0
 26 27  1  0
 27 28  1  0
 28 29  1  0
 23 30  2  0
  9 31  1  0
  6  1  1  0
 30 10  1  0
 31  4  1  0
 21 16  1  0
 29 24  1  0
  1 32  1  0
  2 33  1  0
  3 34  1  0
  6 35  1  0
  7 36  1  0
  7 37  1  0
  8 38  1  0
  8 39  1  0
 13 40  1  0
 14 41  1  0
 14 42  1  0
 15 43  1  0
 15 44  1  0
 16 45  1  0
 17 46  1  0
 17 47  1  0
 18 48  1  0
 18 49  1  0
 19 50  1  0
 19 51  1  0
 20 52  1  0
 20 53  1  0
 21 54  1  0
 21 55  1  0
 25 56  1  0
 25 57  1  0
 26 58  1  0
 26 59  1  0
 27 60  1  0
 28 61  1  0
 28 62  1  0
 29 63  1  0
 29 64  1  0
 31 65  1  0
 31 66  1  0
M  END
>  <smiles>  (36) 
c1ccc2c(c1)CCN(c1nc(NCCC3CCCCC3)nc(N3CCNCC3)n1)C2

>  <score_type>  (36) 
oracle

>  <origin>  (36) 
autodockgpu

>  <m_score__min__energy>  (36) 
-10.369999999999999

>  <m_primary>  (36) 
energy

>  <rmsd>  (36) 
9.268300186346536

>  <m_score__min__rmsd>  (36) 
9.268300186346536

>  <meeko>  (36) 
{"free_energy": -8.34, "intermolecular_energy": -10.13, "internal_energy": -1.21, "cluster_size": 2, "cluster_id": 3, "rank_in_cluster": 1}

>  <energy>  (36) 
-9.38

>  <cluster_rmsd>  (36) 
0.84

>  <cluster>  (36) 
1

$$$$

     RDKit          3D

 66 70  0  0  0  0  0  0  0  0999 V2000
  142.3350   80.9450  222.6580 C   0  0  0  0  0  0  0  0  0  0  0  0
  142.3480   80.1820  223.8200 C   0  0  0  0  0  0  0  0  0  0  0  0
  141.7890   78.9240  223.8670 C   0  0  0  0  0  0  0  0  0  0  0  0
  141.2150   78.4510  222.7090 C   0  0  0  0  0  0  0  0  0  0  0  0
  141.1790   79.1770  221.5300 C   0  0  0  0  0  0  0  0  0  0  0  0
  141.7480   80.4320  221.5230 C   0  0  0  0  0  0  0  0  0  0  0  0
  140.5310   78.5660  220.3420 C   0  0  0  0  0  0  0  0  0  0  0  0
  141.1290   77.1870  220.1670 C   0  0  0  0  0  0  0  0  0  0  0  0
  140.9990   76.4550  221.3870 N   0  0  0  0  0  0  0  0  0  0  0  0
  141.2940   75.0450  221.4050 C   0  0  0  0  0  0  0  0  0  0  0  0
  140.4170   74.2430  222.0380 N   0  0  0  0  0  0  0  0  0  0  0  0
  140.6810   72.9270  222.0600 C   0  0  0  0  0  0  0  0  0  0  0  0
  139.7540   72.0450  222.7340 N   0  0  0  0  0  0  0  0  0  0  0  0
  140.1340   71.5870  224.0250 C   0  0  0  0  0  0  0  0  0  0  0  0
  139.2420   70.5310  224.5740 C   0  0  0  0  0  0  0  0  0  0  0  0
  139.5700   69.9350  225.8860 C   0  0  0  0  0  0  0  0  0  0  0  0
  140.7020   70.7310  226.5820 C   0  0  0  0  0  0  0  0  0  0  0  0
  140.5060   70.5420  228.0650 C   0  0  0  0  0  0  0  0  0  0  0  0
  140.0870   69.1120  228.3310 C   0  0  0  0  0  0  0  0  0  0  0  0
  140.6510   68.1720  227.2770 C   0  0  0  0  0  0  0  0  0  0  0  0
  140.0190   68.5140  225.9160 C   0  0  0  0  0  0  0  0  0  0  0  0
  141.7930   72.4580  221.4610 N   0  0  0  0  0  0  0  0  0  0  0  0
  142.6680   73.2570  220.8300 C   0  0  0  0  0  0  0  0  0  0  0  0
  143.8340   72.7600  220.2020 N   0  0  0  0  0  0  0  0  0  0  0  0
  145.1240   72.6500  220.8490 C   0  0  0  0  0  0  0  0  0  0  0  0
  146.0620   73.5970  220.1390 C   0  0  0  0  0  0  0  0  0  0  0  0
  145.9850   73.3940  218.7340 N   0  0  0  0  0  0  0  0  0  0  0  0
  145.2280   72.2710  218.2860 C   0  0  0  0  0  0  0  0  0  0  0  0
  143.7870   72.3110  218.8020 C   0  0  0  0  0  0  0  0  0  0  0  0
  142.4120   74.5760  220.8030 N   0  0  0  0  0  0  0  0  0  0  0  0
  140.5740   77.0890  222.6390 C   0  0  0  0  0  0  0  0  0  0  0  0
  142.7885   81.9471  222.6454 H   0  0  0  0  0  0  0  0  0  0  0  0
  142.8171   80.5937  224.7258 H   0  0  0  0  0  0  0  0  0  0  0  0
  141.8008   78.3241  224.7890 H   0  0  0  0  0  0  0  0  0  0  0  0
  141.7331   81.0307  220.6003 H   0  0  0  0  0  0  0  0  0  0  0  0
  139.4455   78.4887  220.5026 H   0  0  0  0  0  0  0  0  0  0  0  0
  140.6985   79.1813  219.4457 H   0  0  0  0  0  0  0  0  0  0  0  0
  140.5987   76.6565  219.3624 H   0  0  0  0  0  0  0  0  0  0  0  0
  142.1934   77.2787  219.9052 H   0  0  0  0  0  0  0  0  0  0  0  0
  138.9040   71.8170  222.1980 H   0  0  0  0  0  0  0  0  0  0  0  0
  141.1544   71.1810  223.9625 H   0  0  0  0  0  0  0  0  0  0  0  0
  140.0649   72.4496  224.7041 H   0  0  0  0  0  0  0  0  0  0  0  0
  138.2367   70.9691  224.6599 H   0  0  0  0  0  0  0  0  0  0  0  0
  139.3513   69.6955  223.8669 H   0  0  0  0  0  0  0  0  0  0  0  0
  138.5934   69.9786  226.3903 H   0  0  0  0  0  0  0  0  0  0  0  0
  141.6843   70.3422  226.2755 H   0  0  0  0  0  0  0  0  0  0  0  0
  140.6674   71.7957  226.3078 H   0  0  0  0  0  0  0  0  0  0  0  0
  141.4486   70.7536  228.5910 H   0  0  0  0  0  0  0  0  0  0  0  0
  139.7272   71.2297  228.4265 H   0  0  0  0  0  0  0  0  0  0  0  0
  140.4583   68.8068  229.3204 H   0  0  0  0  0  0  0  0  0  0  0  0
  138.9889   69.0572  228.2968 H   0  0  0  0  0  0  0  0  0  0  0  0
  141.7426   68.2947  227.2187 H   0  0  0  0  0  0  0  0  0  0  0  0
  140.4202   67.1302  227.5443 H   0  0  0  0  0  0  0  0  0  0  0  0
  140.7630   68.3535  225.1218 H   0  0  0  0  0  0  0  0  0  0  0  0
  139.1459   67.8638  225.7580 H   0  0  0  0  0  0  0  0  0  0  0  0
  145.0386   72.9288  221.9097 H   0  0  0  0  0  0  0  0  0  0  0  0
  145.4995   71.6173  220.7982 H   0  0  0  0  0  0  0  0  0  0  0  0
  145.7794   74.6339  220.3734 H   0  0  0  0  0  0  0  0  0  0  0  0
  147.0916   73.4062  220.4759 H   0  0  0  0  0  0  0  0  0  0  0  0
  146.9430   73.3000  218.3310 H   0  0  0  0  0  0  0  0  0  0  0  0
  145.2119   72.2689  217.1861 H   0  0  0  0  0  0  0  0  0  0  0  0
  145.7050   71.3604  218.6774 H   0  0  0  0  0  0  0  0  0  0  0  0
  143.1918   73.0144  218.2012 H   0  0  0  0  0  0  0  0  0  0  0  0
  143.3200   71.3178  218.7279 H   0  0  0  0  0  0  0  0  0  0  0  0
  139.4788   77.1901  222.6538 H   0  0  0  0  0  0  0  0  0  0  0  0
  140.8785   76.4773  223.5010 H   0  0  0  0  0  0  0  0  0  0  0  0
  1  2  2  0
  2  3  1  0
  3  4  2  0
  4  5  1  0
  5  6  2  0
  5  7  1  0
  7  8  1  0
  8  9  1  0
  9 10  1  0
 10 11  2  0
 11 12  1  0
 12 13  1  0
 13 14  1  0
 14 15  1  0
 15 16  1  0
 16 17  1  0
 17 18  1  0
 18 19  1  0
 19 20  1  0
 20 21  1  0
 12 22  2  0
 22 23  1  0
 23 24  1  0
 24 25  1  0
 25 26  1  0
 26 27  1  0
 27 28  1  0
 28 29  1  0
 23 30  2  0
  9 31  1  0
  6  1  1  0
 30 10  1  0
 31  4  1  0
 21 16  1  0
 29 24  1  0
  1 32  1  0
  2 33  1  0
  3 34  1  0
  6 35  1  0
  7 36  1  0
  7 37  1  0
  8 38  1  0
  8 39  1  0
 13 40  1  0
 14 41  1  0
 14 42  1  0
 15 43  1  0
 15 44  1  0
 16 45  1  0
 17 46  1  0
 17 47  1  0
 18 48  1  0
 18 49  1  0
 19 50  1  0
 19 51  1  0
 20 52  1  0
 20 53  1  0
 21 54  1  0
 21 55  1  0
 25 56  1  0
 25 57  1  0
 26 58  1  0
 26 59  1  0
 27 60  1  0
 28 61  1  0
 28 62  1  0
 29 63  1  0
 29 64  1  0
 31 65  1  0
 31 66  1  0
M  END
>  <smiles>  (37) 
c1ccc2c(c1)CCN(c1nc(NCCC3CCCCC3)nc(N3CCNCC3)n1)C2

>  <score_type>  (37) 
oracle

>  <origin>  (37) 
autodockgpu

>  <m_score__min__energy>  (37) 
-10.369999999999999

>  <m_primary>  (37) 
energy

>  <rmsd>  (37) 
4.994486518210778

>  <m_score__min__rmsd>  (37) 
4.994486518210778

>  <meeko>  (37) 
{"free_energy": -10.06, "intermolecular_energy": -11.85, "internal_energy": -0.85, "cluster_size": 42, "cluster_id": 1, "rank_in_cluster": 12}

>  <energy>  (37) 
-9.32

>  <cluster_rmsd>  (37) 
1.36

>  <cluster>  (37) 
1

$$$$

     RDKit          3D

 66 70  0  0  0  0  0  0  0  0999 V2000
  139.6590   70.1010  228.3590 C   0  0  0  0  0  0  0  0  0  0  0  0
  140.6520   71.0690  228.2730 C   0  0  0  0  0  0  0  0  0  0  0  0
  141.1530   71.4880  227.0610 C   0  0  0  0  0  0  0  0  0  0  0  0
  140.6250   70.9040  225.9310 C   0  0  0  0  0  0  0  0  0  0  0  0
  139.6350   69.9360  225.9700 C   0  0  0  0  0  0  0  0  0  0  0  0
  139.1600   69.5440  227.2030 C   0  0  0  0  0  0  0  0  0  0  0  0
  139.1420   69.3750  224.6870 C   0  0  0  0  0  0  0  0  0  0  0  0
  138.7860   70.5460  223.7960 C   0  0  0  0  0  0  0  0  0  0  0  0
  139.9090   71.4250  223.6960 N   0  0  0  0  0  0  0  0  0  0  0  0
  139.8910   72.4930  222.7300 C   0  0  0  0  0  0  0  0  0  0  0  0
  138.6850   72.9500  222.3430 N   0  0  0  0  0  0  0  0  0  0  0  0
  138.6570   73.9460  221.4430 C   0  0  0  0  0  0  0  0  0  0  0  0
  137.3730   74.4530  221.0110 N   0  0  0  0  0  0  0  0  0  0  0  0
  136.9340   75.6670  221.6070 C   0  0  0  0  0  0  0  0  0  0  0  0
  137.8860   76.2230  222.6050 C   0  0  0  0  0  0  0  0  0  0  0  0
  138.7790   77.3280  222.1960 C   0  0  0  0  0  0  0  0  0  0  0  0
  138.9410   77.3600  220.6560 C   0  0  0  0  0  0  0  0  0  0  0  0
  139.2330   78.7930  220.2880 C   0  0  0  0  0  0  0  0  0  0  0  0
  140.1590   79.3930  221.3260 C   0  0  0  0  0  0  0  0  0  0  0  0
  141.0480   78.3260  221.9450 C   0  0  0  0  0  0  0  0  0  0  0  0
  140.1690   77.3400  222.7350 C   0  0  0  0  0  0  0  0  0  0  0  0
  139.8120   74.4470  220.9640 N   0  0  0  0  0  0  0  0  0  0  0  0
  141.0140   73.9920  221.3500 C   0  0  0  0  0  0  0  0  0  0  0  0
  142.2250   74.5230  220.8440 N   0  0  0  0  0  0  0  0  0  0  0  0
  142.3760   75.8730  220.3460 C   0  0  0  0  0  0  0  0  0  0  0  0
  142.6880   75.7730  218.8720 C   0  0  0  0  0  0  0  0  0  0  0  0
  143.7450   74.8450  218.6610 N   0  0  0  0  0  0  0  0  0  0  0  0
  144.4110   74.3530  219.8220 C   0  0  0  0  0  0  0  0  0  0  0  0
  143.4370   73.6910  220.8020 C   0  0  0  0  0  0  0  0  0  0  0  0
  141.0530   72.9960  222.2490 N   0  0  0  0  0  0  0  0  0  0  0  0
  141.0930   71.2820  224.5490 C   0  0  0  0  0  0  0  0  0  0  0  0
  139.2757   69.7832  229.3399 H   0  0  0  0  0  0  0  0  0  0  0  0
  141.0485   71.5126  229.1982 H   0  0  0  0  0  0  0  0  0  0  0  0
  141.9394   72.2545  226.9980 H   0  0  0  0  0  0  0  0  0  0  0  0
  138.3734   68.7775  227.2642 H   0  0  0  0  0  0  0  0  0  0  0  0
  139.9275   68.7667  224.2147 H   0  0  0  0  0  0  0  0  0  0  0  0
  138.2670   68.7293  224.8528 H   0  0  0  0  0  0  0  0  0  0  0  0
  138.5182   70.1773  222.7948 H   0  0  0  0  0  0  0  0  0  0  0  0
  137.9316   71.0889  224.2264 H   0  0  0  0  0  0  0  0  0  0  0  0
  136.8860   73.8670  220.3160 H   0  0  0  0  0  0  0  0  0  0  0  0
  136.7910   76.4126  220.8109 H   0  0  0  0  0  0  0  0  0  0  0  0
  136.0011   75.4416  222.1444 H   0  0  0  0  0  0  0  0  0  0  0  0
  137.2889   76.5868  223.4542 H   0  0  0  0  0  0  0  0  0  0  0  0
  138.5719   75.3886  222.8132 H   0  0  0  0  0  0  0  0  0  0  0  0
  138.2566   78.1954  222.6258 H   0  0  0  0  0  0  0  0  0  0  0  0
  139.7737   76.7108  220.3475 H   0  0  0  0  0  0  0  0  0  0  0  0
  138.0335   76.9960  220.1520 H   0  0  0  0  0  0  0  0  0  0  0  0
  139.7151   78.8286  219.2999 H   0  0  0  0  0  0  0  0  0  0  0  0
  138.2943   79.3654  220.2540 H   0  0  0  0  0  0  0  0  0  0  0  0
  140.7916   80.1545  220.8465 H   0  0  0  0  0  0  0  0  0  0  0  0
  139.5480   79.8447  222.1214 H   0  0  0  0  0  0  0  0  0  0  0  0
  141.5852   77.7869  221.1508 H   0  0  0  0  0  0  0  0  0  0  0  0
  141.7790   78.7958  222.6195 H   0  0  0  0  0  0  0  0  0  0  0  0
  140.5967   76.3298  222.6543 H   0  0  0  0  0  0  0  0  0  0  0  0
  140.1383   77.6573  223.7878 H   0  0  0  0  0  0  0  0  0  0  0  0
  141.4435   76.4367  220.4964 H   0  0  0  0  0  0  0  0  0  0  0  0
  143.1809   76.3986  220.8807 H   0  0  0  0  0  0  0  0  0  0  0  0
  141.7918   75.4335  218.3320 H   0  0  0  0  0  0  0  0  0  0  0  0
  142.9953   76.7615  218.4998 H   0  0  0  0  0  0  0  0  0  0  0  0
  144.4740   75.2650  218.0430 H   0  0  0  0  0  0  0  0  0  0  0  0
  145.1633   73.6122  219.5133 H   0  0  0  0  0  0  0  0  0  0  0  0
  144.8810   75.2064  220.3327 H   0  0  0  0  0  0  0  0  0  0  0  0
  143.1859   72.6774  220.4561 H   0  0  0  0  0  0  0  0  0  0  0  0
  143.8873   73.6084  221.8022 H   0  0  0  0  0  0  0  0  0  0  0  0
  141.7495   70.4955  224.1485 H   0  0  0  0  0  0  0  0  0  0  0  0
  141.6589   72.2247  224.5804 H   0  0  0  0  0  0  0  0  0  0  0  0
  1  2  2  0
  2  3  1  0
  3  4  2  0
  4  5  1  0
  5  6  2  0
  5  7  1  0
  7  8  1  0
  8  9  1  0
  9 10  1  0
 10 11  2  0
 11 12  1  0
 12 13  1  0
 13 14  1  0
 14 15  1  0
 15 16  1  0
 16 17  1  0
 17 18  1  0
 18 19  1  0
 19 20  1  0
 20 21  1  0
 12 22  2  0
 22 23  1  0
 23 24  1  0
 24 25  1  0
 25 26  1  0
 26 27  1  0
 27 28  1  0
 28 29  1  0
 23 30  2  0
  9 31  1  0
  6  1  1  0
 30 10  1  0
 31  4  1  0
 21 16  1  0
 29 24  1  0
  1 32  1  0
  2 33  1  0
  3 34  1  0
  6 35  1  0
  7 36  1  0
  7 37  1  0
  8 38  1  0
  8 39  1  0
 13 40  1  0
 14 41  1  0
 14 42  1  0
 15 43  1  0
 15 44  1  0
 16 45  1  0
 17 46  1  0
 17 47  1  0
 18 48  1  0
 18 49  1  0
 19 50  1  0
 19 51  1  0
 20 52  1  0
 20 53  1  0
 21 54  1  0
 21 55  1  0
 25 56  1  0
 25 57  1  0
 26 58  1  0
 26 59  1  0
 27 60  1  0
 28 61  1  0
 28 62  1  0
 29 63  1  0
 29 64  1  0
 31 65  1  0
 31 66  1  0
M  END
>  <smiles>  (38) 
c1ccc2c(c1)CCN(c1nc(NCCC3CCCCC3)nc(N3CCNCC3)n1)C2

>  <score_type>  (38) 
oracle

>  <origin>  (38) 
autodockgpu

>  <m_score__min__energy>  (38) 
-10.369999999999999

>  <m_primary>  (38) 
energy

>  <rmsd>  (38) 
10.83323158914012

>  <m_score__min__rmsd>  (38) 
10.83323158914012

>  <meeko>  (38) 
{"free_energy": -7.41, "intermolecular_energy": -9.2, "internal_energy": -1.82, "cluster_size": 4, "cluster_id": 2, "rank_in_cluster": 4}

>  <energy>  (38) 
-9.29

>  <cluster_rmsd>  (38) 
1.05

>  <cluster>  (38) 
1

$$$$

     RDKit          3D

 66 70  0  0  0  0  0  0  0  0999 V2000
  142.3380   80.8360  222.7560 C   0  0  0  0  0  0  0  0  0  0  0  0
  142.3920   80.0380  223.8920 C   0  0  0  0  0  0  0  0  0  0  0  0
  141.8270   78.7830  223.9240 C   0  0  0  0  0  0  0  0  0  0  0  0
  141.2020   78.3490  222.7760 C   0  0  0  0  0  0  0  0  0  0  0  0
  141.1240   79.1120  221.6220 C   0  0  0  0  0  0  0  0  0  0  0  0
  141.7030   80.3620  221.6300 C   0  0  0  0  0  0  0  0  0  0  0  0
  140.4240   78.5420  220.4430 C   0  0  0  0  0  0  0  0  0  0  0  0
  141.0040   77.1650  220.2020 C   0  0  0  0  0  0  0  0  0  0  0  0
  140.9180   76.3960  221.4030 N   0  0  0  0  0  0  0  0  0  0  0  0
  141.2020   74.9850  221.3650 C   0  0  0  0  0  0  0  0  0  0  0  0
  140.2250   74.1510  221.7680 N   0  0  0  0  0  0  0  0  0  0  0  0
  140.4790   72.8330  221.7360 C   0  0  0  0  0  0  0  0  0  0  0  0
  139.4440   71.9180  222.1640 N   0  0  0  0  0  0  0  0  0  0  0  0
  139.2880   71.7420  223.5660 C   0  0  0  0  0  0  0  0  0  0  0  0
  140.2650   70.7930  224.1640 C   0  0  0  0  0  0  0  0  0  0  0  0
  140.2960   70.6380  225.6330 C   0  0  0  0  0  0  0  0  0  0  0  0
  141.4060   71.5220  226.2540 C   0  0  0  0  0  0  0  0  0  0  0  0
  140.9560   71.8500  227.6550 C   0  0  0  0  0  0  0  0  0  0  0  0
  140.3020   70.6270  228.2650 C   0  0  0  0  0  0  0  0  0  0  0  0
  140.8860   69.3500  227.6830 C   0  0  0  0  0  0  0  0  0  0  0  0
  140.5300   69.2740  226.1880 C   0  0  0  0  0  0  0  0  0  0  0  0
  141.6800   72.3930  221.3120 N   0  0  0  0  0  0  0  0  0  0  0  0
  142.6540   73.2240  220.9120 C   0  0  0  0  0  0  0  0  0  0  0  0
  143.9140   72.7570  220.4660 N   0  0  0  0  0  0  0  0  0  0  0  0
  145.1340   72.8430  221.2400 C   0  0  0  0  0  0  0  0  0  0  0  0
  146.0670   73.7730  220.5010 C   0  0  0  0  0  0  0  0  0  0  0  0
  146.1510   73.3910  219.1340 N   0  0  0  0  0  0  0  0  0  0  0  0
  145.5320   72.1590  218.7700 C   0  0  0  0  0  0  0  0  0  0  0  0
  144.0460   72.1350  219.1400 C   0  0  0  0  0  0  0  0  0  0  0  0
  142.4100   74.5450  220.9400 N   0  0  0  0  0  0  0  0  0  0  0  0
  140.5480   76.9940  222.6900 C   0  0  0  0  0  0  0  0  0  0  0  0
  142.7975   81.8354  222.7561 H   0  0  0  0  0  0  0  0  0  0  0  0
  142.8999   80.4193  224.7901 H   0  0  0  0  0  0  0  0  0  0  0  0
  141.8727   78.1550  224.8260 H   0  0  0  0  0  0  0  0  0  0  0  0
  141.6575   80.9883  220.7269 H   0  0  0  0  0  0  0  0  0  0  0  0
  139.3453   78.4667  220.6449 H   0  0  0  0  0  0  0  0  0  0  0  0
  140.5600   79.1835  219.5598 H   0  0  0  0  0  0  0  0  0  0  0  0
  140.4377   76.6630  219.4037 H   0  0  0  0  0  0  0  0  0  0  0  0
  142.0578   77.2582  219.9005 H   0  0  0  0  0  0  0  0  0  0  0  0
  138.9240   71.4620  221.3990 H   0  0  0  0  0  0  0  0  0  0  0  0
  139.4110   72.7200  224.0542 H   0  0  0  0  0  0  0  0  0  0  0  0
  138.2871   71.3147  223.7260 H   0  0  0  0  0  0  0  0  0  0  0  0
  140.0547   69.8008  223.7382 H   0  0  0  0  0  0  0  0  0  0  0  0
  141.2447   71.2301  223.9210 H   0  0  0  0  0  0  0  0  0  0  0  0
  139.2684   70.9262  225.8995 H   0  0  0  0  0  0  0  0  0  0  0  0
  142.3592   70.9736  226.2793 H   0  0  0  0  0  0  0  0  0  0  0  0
  141.5653   72.4356  225.6625 H   0  0  0  0  0  0  0  0  0  0  0  0
  141.8252   72.1441  228.2617 H   0  0  0  0  0  0  0  0  0  0  0  0
  140.2354   72.6807  227.6277 H   0  0  0  0  0  0  0  0  0  0  0  0
  140.4674   70.6353  229.3525 H   0  0  0  0  0  0  0  0  0  0  0  0
  139.2259   70.6553  228.0388 H   0  0  0  0  0  0  0  0  0  0  0  0
  141.9795   69.3565  227.8021 H   0  0  0  0  0  0  0  0  0  0  0  0
  140.4714   68.4775  228.2092 H   0  0  0  0  0  0  0  0  0  0  0  0
  141.3592   68.7995  225.6428 H   0  0  0  0  0  0  0  0  0  0  0  0
  139.6100   68.6822  226.0727 H   0  0  0  0  0  0  0  0  0  0  0  0
  144.9176   73.2436  222.2413 H   0  0  0  0  0  0  0  0  0  0  0  0
  145.5895   71.8493  221.3628 H   0  0  0  0  0  0  0  0  0  0  0  0
  145.6849   74.8023  220.5690 H   0  0  0  0  0  0  0  0  0  0  0  0
  147.0677   73.7163  220.9543 H   0  0  0  0  0  0  0  0  0  0  0  0
  147.1510   73.3320  218.8380 H   0  0  0  0  0  0  0  0  0  0  0  0
  145.6302   72.0191  217.6834 H   0  0  0  0  0  0  0  0  0  0  0  0
  146.0335   71.3498  219.3210 H   0  0  0  0  0  0  0  0  0  0  0  0
  143.4645   72.7027  218.3986 H   0  0  0  0  0  0  0  0  0  0  0  0
  143.6656   71.1030  219.1550 H   0  0  0  0  0  0  0  0  0  0  0  0
  139.4550   77.1019  222.7516 H   0  0  0  0  0  0  0  0  0  0  0  0
  140.8817   76.3540  223.5201 H   0  0  0  0  0  0  0  0  0  0  0  0
  1  2  2  0
  2  3  1  0
  3  4  2  0
  4  5  1  0
  5  6  2  0
  5  7  1  0
  7  8  1  0
  8  9  1  0
  9 10  1  0
 10 11  2  0
 11 12  1  0
 12 13  1  0
 13 14  1  0
 14 15  1  0
 15 16  1  0
 16 17  1  0
 17 18  1  0
 18 19  1  0
 19 20  1  0
 20 21  1  0
 12 22  2  0
 22 23  1  0
 23 24  1  0
 24 25  1  0
 25 26  1  0
 26 27  1  0
 27 28  1  0
 28 29  1  0
 23 30  2  0
  9 31  1  0
  6  1  1  0
 30 10  1  0
 31  4  1  0
 21 16  1  0
 29 24  1  0
  1 32  1  0
  2 33  1  0
  3 34  1  0
  6 35  1  0
  7 36  1  0
  7 37  1  0
  8 38  1  0
  8 39  1  0
 13 40  1  0
 14 41  1  0
 14 42  1  0
 15 43  1  0
 15 44  1  0
 16 45  1  0
 17 46  1  0
 17 47  1  0
 18 48  1  0
 18 49  1  0
 19 50  1  0
 19 51  1  0
 20 52  1  0
 20 53  1  0
 21 54  1  0
 21 55  1  0
 25 56  1  0
 25 57  1  0
 26 58  1  0
 26 59  1  0
 27 60  1  0
 28 61  1  0
 28 62  1  0
 29 63  1  0
 29 64  1  0
 31 65  1  0
 31 66  1  0
M  END
>  <smiles>  (39) 
c1ccc2c(c1)CCN(c1nc(NCCC3CCCCC3)nc(N3CCNCC3)n1)C2

>  <score_type>  (39) 
oracle

>  <origin>  (39) 
autodockgpu

>  <m_score__min__energy>  (39) 
-10.369999999999999

>  <m_primary>  (39) 
energy

>  <rmsd>  (39) 
5.038866081040446

>  <m_score__min__rmsd>  (39) 
5.038866081040446

>  <meeko>  (39) 
{"free_energy": -9.79, "intermolecular_energy": -11.58, "internal_energy": -1.0, "cluster_size": 42, "cluster_id": 1, "rank_in_cluster": 21}

>  <energy>  (39) 
-9.25

>  <cluster_rmsd>  (39) 
1.08

>  <cluster>  (39) 
1

$$$$

     RDKit          3D

 66 70  0  0  0  0  0  0  0  0999 V2000
  142.5220   80.8450  222.6930 C   0  0  0  0  0  0  0  0  0  0  0  0
  142.1920   80.1340  223.8410 C   0  0  0  0  0  0  0  0  0  0  0  0
  141.5440   78.9210  223.7810 C   0  0  0  0  0  0  0  0  0  0  0  0
  141.2350   78.4380  222.5300 C   0  0  0  0  0  0  0  0  0  0  0  0
  141.5450   79.1130  221.3600 C   0  0  0  0  0  0  0  0  0  0  0  0
  142.1940   80.3230  221.4620 C   0  0  0  0  0  0  0  0  0  0  0  0
  141.1620   78.4950  220.0650 C   0  0  0  0  0  0  0  0  0  0  0  0
  141.6760   77.0720  220.0780 C   0  0  0  0  0  0  0  0  0  0  0  0
  141.1960   76.4050  221.2470 N   0  0  0  0  0  0  0  0  0  0  0  0
  141.3680   74.9800  221.3730 C   0  0  0  0  0  0  0  0  0  0  0  0
  140.4130   74.3040  222.0380 N   0  0  0  0  0  0  0  0  0  0  0  0
  140.5630   72.9750  222.1610 C   0  0  0  0  0  0  0  0  0  0  0  0
  139.5510   72.2260  222.8720 N   0  0  0  0  0  0  0  0  0  0  0  0
  139.6660   70.8100  222.8410 C   0  0  0  0  0  0  0  0  0  0  0  0
  139.1320   70.1380  224.0560 C   0  0  0  0  0  0  0  0  0  0  0  0
  139.6440   70.5520  225.3790 C   0  0  0  0  0  0  0  0  0  0  0  0
  141.1580   70.8690  225.3070 C   0  0  0  0  0  0  0  0  0  0  0  0
  141.4340   71.8800  226.3910 C   0  0  0  0  0  0  0  0  0  0  0  0
  140.6240   71.5230  227.6200 C   0  0  0  0  0  0  0  0  0  0  0  0
  140.3850   70.0240  227.6990 C   0  0  0  0  0  0  0  0  0  0  0  0
  139.5000   69.5960  226.5150 C   0  0  0  0  0  0  0  0  0  0  0  0
  141.6430   72.3720  221.6270 N   0  0  0  0  0  0  0  0  0  0  0  0
  142.5950   73.0460  220.9630 C   0  0  0  0  0  0  0  0  0  0  0  0
  143.7270   72.4070  220.4020 N   0  0  0  0  0  0  0  0  0  0  0  0
  145.0960   72.7770  220.6900 C   0  0  0  0  0  0  0  0  0  0  0  0
  145.6970   73.2960  219.4060 C   0  0  0  0  0  0  0  0  0  0  0  0
  145.4460   72.3800  218.3470 N   0  0  0  0  0  0  0  0  0  0  0  0
  144.8760   71.1230  218.7050 C   0  0  0  0  0  0  0  0  0  0  0  0
  143.5560   71.2890  219.4630 C   0  0  0  0  0  0  0  0  0  0  0  0
  142.4540   74.3760  220.8350 N   0  0  0  0  0  0  0  0  0  0  0  0
  140.5280   77.1210  222.3380 C   0  0  0  0  0  0  0  0  0  0  0  0
  143.0390   81.8131  222.7672 H   0  0  0  0  0  0  0  0  0  0  0  0
  142.4558   80.5519  224.8238 H   0  0  0  0  0  0  0  0  0  0  0  0
  141.2847   78.3626  224.6925 H   0  0  0  0  0  0  0  0  0  0  0  0
  142.4535   80.8792  220.5492 H   0  0  0  0  0  0  0  0  0  0  0  0
  140.0676   78.4992  219.9546 H   0  0  0  0  0  0  0  0  0  0  0  0
  141.5911   79.0571  219.2224 H   0  0  0  0  0  0  0  0  0  0  0  0
  141.3184   76.5444  219.1815 H   0  0  0  0  0  0  0  0  0  0  0  0
  142.7760   77.0785  220.0841 H   0  0  0  0  0  0  0  0  0  0  0  0
  138.8240   72.8010  223.3240 H   0  0  0  0  0  0  0  0  0  0  0  0
  139.1132   70.4361  221.9665 H   0  0  0  0  0  0  0  0  0  0  0  0
  140.7398   70.5766  222.7913 H   0  0  0  0  0  0  0  0  0  0  0  0
  138.0442   70.3009  224.0644 H   0  0  0  0  0  0  0  0  0  0  0  0
  139.4679   69.0955  223.9540 H   0  0  0  0  0  0  0  0  0  0  0  0
  138.9990   71.4161  225.5964 H   0  0  0  0  0  0  0  0  0  0  0  0
  141.7464   69.9558  225.4799 H   0  0  0  0  0  0  0  0  0  0  0  0
  141.4367   71.2599  224.3173 H   0  0  0  0  0  0  0  0  0  0  0  0
  142.5054   71.8696  226.6402 H   0  0  0  0  0  0  0  0  0  0  0  0
  141.1531   72.8843  226.0411 H   0  0  0  0  0  0  0  0  0  0  0  0
  141.1704   71.8478  228.5177 H   0  0  0  0  0  0  0  0  0  0  0  0
  139.6499   72.0301  227.5569 H   0  0  0  0  0  0  0  0  0  0  0  0
  141.3476   69.4938  227.6508 H   0  0  0  0  0  0  0  0  0  0  0  0
  139.8842   69.7764  228.6466 H   0  0  0  0  0  0  0  0  0  0  0  0
  139.8017   68.5917  226.1827 H   0  0  0  0  0  0  0  0  0  0  0  0
  138.4497   69.5893  226.8417 H   0  0  0  0  0  0  0  0  0  0  0  0
  145.1204   73.5607  221.4615 H   0  0  0  0  0  0  0  0  0  0  0  0
  145.6635   71.9129  221.0658 H   0  0  0  0  0  0  0  0  0  0  0  0
  145.2471   74.2692  219.1603 H   0  0  0  0  0  0  0  0  0  0  0  0
  146.7834   73.4097  219.5356 H   0  0  0  0  0  0  0  0  0  0  0  0
  146.3290   72.1810  217.8260 H   0  0  0  0  0  0  0  0  0  0  0  0
  144.6894   70.5434  217.7889 H   0  0  0  0  0  0  0  0  0  0  0  0
  145.5853   70.6033  219.3659 H   0  0  0  0  0  0  0  0  0  0  0  0
  142.7423   71.5118  218.7571 H   0  0  0  0  0  0  0  0  0  0  0  0
  143.2980   70.3651  220.0013 H   0  0  0  0  0  0  0  0  0  0  0  0
  139.4736   77.2973  222.0787 H   0  0  0  0  0  0  0  0  0  0  0  0
  140.5646   76.5282  223.2639 H   0  0  0  0  0  0  0  0  0  0  0  0
  1  2  2  0
  2  3  1  0
  3  4  2  0
  4  5  1  0
  5  6  2  0
  5  7  1  0
  7  8  1  0
  8  9  1  0
  9 10  1  0
 10 11  2  0
 11 12  1  0
 12 13  1  0
 13 14  1  0
 14 15  1  0
 15 16  1  0
 16 17  1  0
 17 18  1  0
 18 19  1  0
 19 20  1  0
 20 21  1  0
 12 22  2  0
 22 23  1  0
 23 24  1  0
 24 25  1  0
 25 26  1  0
 26 27  1  0
 27 28  1  0
 28 29  1  0
 23 30  2  0
  9 31  1  0
  6  1  1  0
 30 10  1  0
 31  4  1  0
 21 16  1  0
 29 24  1  0
  1 32  1  0
  2 33  1  0
  3 34  1  0
  6 35  1  0
  7 36  1  0
  7 37  1  0
  8 38  1  0
  8 39  1  0
 13 40  1  0
 14 41  1  0
 14 42  1  0
 15 43  1  0
 15 44  1  0
 16 45  1  0
 17 46  1  0
 17 47  1  0
 18 48  1  0
 18 49  1  0
 19 50  1  0
 19 51  1  0
 20 52  1  0
 20 53  1  0
 21 54  1  0
 21 55  1  0
 25 56  1  0
 25 57  1  0
 26 58  1  0
 26 59  1  0
 27 60  1  0
 28 61  1  0
 28 62  1  0
 29 63  1  0
 29 64  1  0
 31 65  1  0
 31 66  1  0
M  END
>  <smiles>  (40) 
c1ccc2c(c1)CCN(c1nc(NCCC3CCCCC3)nc(N3CCNCC3)n1)C2

>  <score_type>  (40) 
oracle

>  <origin>  (40) 
autodockgpu

>  <m_score__min__energy>  (40) 
-10.369999999999999

>  <m_primary>  (40) 
energy

>  <rmsd>  (40) 
4.980832544182793

>  <m_score__min__rmsd>  (40) 
4.980832544182793

>  <meeko>  (40) 
{"free_energy": -10.16, "intermolecular_energy": -11.95, "internal_energy": -1.11, "cluster_size": 42, "cluster_id": 1, "rank_in_cluster": 8}

>  <energy>  (40) 
-9.23

>  <cluster_rmsd>  (40) 
0.98

>  <cluster>  (40) 
1

$$$$

     RDKit          3D

 66 70  0  0  0  0  0  0  0  0999 V2000
  142.5640   80.7040  222.7120 C   0  0  0  0  0  0  0  0  0  0  0  0
  142.4750   79.9610  223.8830 C   0  0  0  0  0  0  0  0  0  0  0  0
  141.8130   78.7540  223.9270 C   0  0  0  0  0  0  0  0  0  0  0  0
  141.2400   78.3120  222.7560 C   0  0  0  0  0  0  0  0  0  0  0  0
  141.3030   79.0210  221.5670 C   0  0  0  0  0  0  0  0  0  0  0  0
  141.9750   80.2230  221.5640 C   0  0  0  0  0  0  0  0  0  0  0  0
  140.6460   78.4470  220.3650 C   0  0  0  0  0  0  0  0  0  0  0  0
  141.1330   77.0200  220.2280 C   0  0  0  0  0  0  0  0  0  0  0  0
  140.9030   76.3200  221.4530 N   0  0  0  0  0  0  0  0  0  0  0  0
  141.0790   74.8910  221.4980 C   0  0  0  0  0  0  0  0  0  0  0  0
  140.0400   74.1590  221.9410 N   0  0  0  0  0  0  0  0  0  0  0  0
  140.1920   72.8260  221.9870 C   0  0  0  0  0  0  0  0  0  0  0  0
  139.0900   72.0180  222.4600 N   0  0  0  0  0  0  0  0  0  0  0  0
  139.1770   71.5400  223.7960 C   0  0  0  0  0  0  0  0  0  0  0  0
  140.5610   71.2040  224.2230 C   0  0  0  0  0  0  0  0  0  0  0  0
  140.7920   70.7940  225.6240 C   0  0  0  0  0  0  0  0  0  0  0  0
  139.5790   70.0000  226.1700 C   0  0  0  0  0  0  0  0  0  0  0  0
  140.1170   69.0780  227.2350 C   0  0  0  0  0  0  0  0  0  0  0  0
  141.1760   69.8080  228.0340 C   0  0  0  0  0  0  0  0  0  0  0  0
  140.9050   71.3040  228.0610 C   0  0  0  0  0  0  0  0  0  0  0  0
  141.0440   71.8620  226.6330 C   0  0  0  0  0  0  0  0  0  0  0  0
  141.3570   72.2730  221.5970 N   0  0  0  0  0  0  0  0  0  0  0  0
  142.3930   73.0020  221.1560 C   0  0  0  0  0  0  0  0  0  0  0  0
  143.6150   72.4160  220.7460 N   0  0  0  0  0  0  0  0  0  0  0  0
  144.9170   73.0070  220.9690 C   0  0  0  0  0  0  0  0  0  0  0  0
  145.4960   73.3360  219.6140 C   0  0  0  0  0  0  0  0  0  0  0  0
  145.3980   72.2060  218.7570 N   0  0  0  0  0  0  0  0  0  0  0  0
  144.9750   70.9810  219.3520 C   0  0  0  0  0  0  0  0  0  0  0  0
  143.6170   71.1230  220.0470 C   0  0  0  0  0  0  0  0  0  0  0  0
  142.2510   74.3370  221.1060 N   0  0  0  0  0  0  0  0  0  0  0  0
  140.4910   77.0070  222.6810 C   0  0  0  0  0  0  0  0  0  0  0  0
  143.0987   81.6652  222.7023 H   0  0  0  0  0  0  0  0  0  0  0  0
  142.9458   80.3471  224.7991 H   0  0  0  0  0  0  0  0  0  0  0  0
  141.7452   78.1694  224.8563 H   0  0  0  0  0  0  0  0  0  0  0  0
  142.0421   80.8058  220.6335 H   0  0  0  0  0  0  0  0  0  0  0  0
  139.5531   78.4621  220.4893 H   0  0  0  0  0  0  0  0  0  0  0  0
  140.8937   79.0323  219.4672 H   0  0  0  0  0  0  0  0  0  0  0  0
  140.5869   76.5225  219.4130 H   0  0  0  0  0  0  0  0  0  0  0  0
  142.2093   77.0193  220.0010 H   0  0  0  0  0  0  0  0  0  0  0  0
  138.3460   71.8510  221.7660 H   0  0  0  0  0  0  0  0  0  0  0  0
  138.7853   72.3171  224.4688 H   0  0  0  0  0  0  0  0  0  0  0  0
  138.5920   70.6096  223.8427 H   0  0  0  0  0  0  0  0  0  0  0  0
  140.9058   70.3784  223.5831 H   0  0  0  0  0  0  0  0  0  0  0  0
  141.1073   72.1542  224.1294 H   0  0  0  0  0  0  0  0  0  0  0  0
  141.7211   70.2134  225.5259 H   0  0  0  0  0  0  0  0  0  0  0  0
  138.8374   70.6881  226.6019 H   0  0  0  0  0  0  0  0  0  0  0  0
  139.0795   69.4351  225.3692 H   0  0  0  0  0  0  0  0  0  0  0  0
  139.2991   68.7698  227.9028 H   0  0  0  0  0  0  0  0  0  0  0  0
  140.5568   68.1860  226.7651 H   0  0  0  0  0  0  0  0  0  0  0  0
  141.1769   69.4241  229.0648 H   0  0  0  0  0  0  0  0  0  0  0  0
  142.1529   69.6378  227.5580 H   0  0  0  0  0  0  0  0  0  0  0  0
  139.8858   71.4880  228.4317 H   0  0  0  0  0  0  0  0  0  0  0  0
  141.6255   71.8012  228.7271 H   0  0  0  0  0  0  0  0  0  0  0  0
  140.3154   72.6735  226.4897 H   0  0  0  0  0  0  0  0  0  0  0  0
  142.0679   72.2410  226.4991 H   0  0  0  0  0  0  0  0  0  0  0  0
  144.8171   73.9237  221.5688 H   0  0  0  0  0  0  0  0  0  0  0  0
  145.5724   72.3130  221.5156 H   0  0  0  0  0  0  0  0  0  0  0  0
  144.9392   74.1765  219.1740 H   0  0  0  0  0  0  0  0  0  0  0  0
  146.5548   73.6107  219.7303 H   0  0  0  0  0  0  0  0  0  0  0  0
  146.3170   72.0230  218.2960 H   0  0  0  0  0  0  0  0  0  0  0  0
  144.8948   70.2137  218.5679 H   0  0  0  0  0  0  0  0  0  0  0  0
  145.7184   70.6958  220.1109 H   0  0  0  0  0  0  0  0  0  0  0  0
  142.8085   71.0971  219.3016 H   0  0  0  0  0  0  0  0  0  0  0  0
  143.4549   70.2976  220.7558 H   0  0  0  0  0  0  0  0  0  0  0  0
  139.4081   77.1986  222.6565 H   0  0  0  0  0  0  0  0  0  0  0  0
  140.7150   76.3859  223.5608 H   0  0  0  0  0  0  0  0  0  0  0  0
  1  2  2  0
  2  3  1  0
  3  4  2  0
  4  5  1  0
  5  6  2  0
  5  7  1  0
  7  8  1  0
  8  9  1  0
  9 10  1  0
 10 11  2  0
 11 12  1  0
 12 13  1  0
 13 14  1  0
 14 15  1  0
 15 16  1  0
 16 17  1  0
 17 18  1  0
 18 19  1  0
 19 20  1  0
 20 21  1  0
 12 22  2  0
 22 23  1  0
 23 24  1  0
 24 25  1  0
 25 26  1  0
 26 27  1  0
 27 28  1  0
 28 29  1  0
 23 30  2  0
  9 31  1  0
  6  1  1  0
 30 10  1  0
 31  4  1  0
 21 16  1  0
 29 24  1  0
  1 32  1  0
  2 33  1  0
  3 34  1  0
  6 35  1  0
  7 36  1  0
  7 37  1  0
  8 38  1  0
  8 39  1  0
 13 40  1  0
 14 41  1  0
 14 42  1  0
 15 43  1  0
 15 44  1  0
 16 45  1  0
 17 46  1  0
 17 47  1  0
 18 48  1  0
 18 49  1  0
 19 50  1  0
 19 51  1  0
 20 52  1  0
 20 53  1  0
 21 54  1  0
 21 55  1  0
 25 56  1  0
 25 57  1  0
 26 58  1  0
 26 59  1  0
 27 60  1  0
 28 61  1  0
 28 62  1  0
 29 63  1  0
 29 64  1  0
 31 65  1  0
 31 66  1  0
M  END
>  <smiles>  (41) 
c1ccc2c(c1)CCN(c1nc(NCCC3CCCCC3)nc(N3CCNCC3)n1)C2

>  <score_type>  (41) 
oracle

>  <origin>  (41) 
autodockgpu

>  <m_score__min__energy>  (41) 
-10.369999999999999

>  <m_primary>  (41) 
energy

>  <rmsd>  (41) 
5.017950540945818

>  <m_score__min__rmsd>  (41) 
5.017950540945818

>  <meeko>  (41) 
{"free_energy": -9.72, "intermolecular_energy": -11.51, "internal_energy": -1.04, "cluster_size": 42, "cluster_id": 1, "rank_in_cluster": 23}

>  <energy>  (41) 
-9.15

>  <cluster_rmsd>  (41) 
1.11

>  <cluster>  (41) 
1

$$$$

     RDKit          3D

 66 70  0  0  0  0  0  0  0  0999 V2000
  141.0540   81.3070  221.8280 C   0  0  0  0  0  0  0  0  0  0  0  0
  142.2310   80.7730  222.3390 C   0  0  0  0  0  0  0  0  0  0  0  0
  142.3080   79.4650  222.7640 C   0  0  0  0  0  0  0  0  0  0  0  0
  141.1650   78.7050  222.6600 C   0  0  0  0  0  0  0  0  0  0  0  0
  139.9720   79.1970  222.1580 C   0  0  0  0  0  0  0  0  0  0  0  0
  139.9350   80.5100  221.7430 C   0  0  0  0  0  0  0  0  0  0  0  0
  138.8010   78.2850  222.0930 C   0  0  0  0  0  0  0  0  0  0  0  0
  139.2580   77.0210  221.3980 C   0  0  0  0  0  0  0  0  0  0  0  0
  140.4110   76.5020  222.0640 N   0  0  0  0  0  0  0  0  0  0  0  0
  140.8970   75.1890  221.7240 C   0  0  0  0  0  0  0  0  0  0  0  0
  140.1110   74.1430  222.0430 N   0  0  0  0  0  0  0  0  0  0  0  0
  140.5550   72.9140  221.7310 C   0  0  0  0  0  0  0  0  0  0  0  0
  139.7290   71.7750  222.0630 N   0  0  0  0  0  0  0  0  0  0  0  0
  139.2360   71.7120  223.3950 C   0  0  0  0  0  0  0  0  0  0  0  0
  139.8660   70.6450  224.2180 C   0  0  0  0  0  0  0  0  0  0  0  0
  140.0190   70.8660  225.6710 C   0  0  0  0  0  0  0  0  0  0  0  0
  141.4080   71.4710  225.9910 C   0  0  0  0  0  0  0  0  0  0  0  0
  141.2430   72.2700  227.2600 C   0  0  0  0  0  0  0  0  0  0  0  0
  140.3240   71.5210  228.2020 C   0  0  0  0  0  0  0  0  0  0  0  0
  140.4220   70.0200  227.9810 C   0  0  0  0  0  0  0  0  0  0  0  0
  139.8900   69.6870  226.5760 C   0  0  0  0  0  0  0  0  0  0  0  0
  141.7470   72.7690  221.1210 N   0  0  0  0  0  0  0  0  0  0  0  0
  142.5300   73.8120  220.8030 C   0  0  0  0  0  0  0  0  0  0  0  0
  143.7820   73.6530  220.1610 N   0  0  0  0  0  0  0  0  0  0  0  0
  143.9560   73.0690  218.8490 C   0  0  0  0  0  0  0  0  0  0  0  0
  144.7410   71.7920  219.0300 C   0  0  0  0  0  0  0  0  0  0  0  0
  145.8940   72.0400  219.8250 N   0  0  0  0  0  0  0  0  0  0  0  0
  146.1870   73.4020  220.1270 C   0  0  0  0  0  0  0  0  0  0  0  0
  145.0160   74.0970  220.8270 C   0  0  0  0  0  0  0  0  0  0  0  0
  142.0960   75.0440  221.1120 N   0  0  0  0  0  0  0  0  0  0  0  0
  141.1280   77.2620  223.0920 C   0  0  0  0  0  0  0  0  0  0  0  0
  141.0171   82.3548  221.4952 H   0  0  0  0  0  0  0  0  0  0  0  0
  143.1243   81.4115  222.4058 H   0  0  0  0  0  0  0  0  0  0  0  0
  143.2414   79.0464  223.1685 H   0  0  0  0  0  0  0  0  0  0  0  0
  139.0004   80.9263  221.3390 H   0  0  0  0  0  0  0  0  0  0  0  0
  138.4486   78.0507  223.1084 H   0  0  0  0  0  0  0  0  0  0  0  0
  137.9702   78.7538  221.5453 H   0  0  0  0  0  0  0  0  0  0  0  0
  138.4507   76.2743  221.4267 H   0  0  0  0  0  0  0  0  0  0  0  0
  139.5099   77.2482  220.3516 H   0  0  0  0  0  0  0  0  0  0  0  0
  139.5900   71.1000  221.2960 H   0  0  0  0  0  0  0  0  0  0  0  0
  139.4237   72.6810  223.8806 H   0  0  0  0  0  0  0  0  0  0  0  0
  138.1638   71.4751  223.3291 H   0  0  0  0  0  0  0  0  0  0  0  0
  139.2582   69.7370  224.0910 H   0  0  0  0  0  0  0  0  0  0  0  0
  140.8998   70.5960  223.8453 H   0  0  0  0  0  0  0  0  0  0  0  0
  139.1655   71.5289  225.8763 H   0  0  0  0  0  0  0  0  0  0  0  0
  142.1469   70.6697  226.1394 H   0  0  0  0  0  0  0  0  0  0  0  0
  141.7670   72.1034  225.1657 H   0  0  0  0  0  0  0  0  0  0  0  0
  142.2242   72.4104  227.7370 H   0  0  0  0  0  0  0  0  0  0  0  0
  140.8103   73.2535  227.0247 H   0  0  0  0  0  0  0  0  0  0  0  0
  140.6077   71.7510  229.2396 H   0  0  0  0  0  0  0  0  0  0  0  0
  139.2887   71.8369  228.0061 H   0  0  0  0  0  0  0  0  0  0  0  0
  141.4720   69.7025  228.0630 H   0  0  0  0  0  0  0  0  0  0  0  0
  139.8260   69.4920  228.7399 H   0  0  0  0  0  0  0  0  0  0  0  0
  140.4674   68.8479  226.1606 H   0  0  0  0  0  0  0  0  0  0  0  0
  138.8268   69.4161  226.6551 H   0  0  0  0  0  0  0  0  0  0  0  0
  142.9756   72.8487  218.4014 H   0  0  0  0  0  0  0  0  0  0  0  0
  144.4866   73.7624  218.1799 H   0  0  0  0  0  0  0  0  0  0  0  0
  144.1085   71.0429  219.5288 H   0  0  0  0  0  0  0  0  0  0  0  0
  145.0549   71.4176  218.0445 H   0  0  0  0  0  0  0  0  0  0  0  0
  146.7410   71.6370  219.3650 H   0  0  0  0  0  0  0  0  0  0  0  0
  147.0673   73.4387  220.7856 H   0  0  0  0  0  0  0  0  0  0  0  0
  146.3779   73.9275  219.1797 H   0  0  0  0  0  0  0  0  0  0  0  0
  144.9922   73.8153  221.8901 H   0  0  0  0  0  0  0  0  0  0  0  0
  145.1195   75.1904  220.7660 H   0  0  0  0  0  0  0  0  0  0  0  0
  140.6044   77.1736  224.0554 H   0  0  0  0  0  0  0  0  0  0  0  0
  142.1494   76.8723  223.2139 H   0  0  0  0  0  0  0  0  0  0  0  0
  1  2  2  0
  2  3  1  0
  3  4  2  0
  4  5  1  0
  5  6  2  0
  5  7  1  0
  7  8  1  0
  8  9  1  0
  9 10  1  0
 10 11  2  0
 11 12  1  0
 12 13  1  0
 13 14  1  0
 14 15  1  0
 15 16  1  0
 16 17  1  0
 17 18  1  0
 18 19  1  0
 19 20  1  0
 20 21  1  0
 12 22  2  0
 22 23  1  0
 23 24  1  0
 24 25  1  0
 25 26  1  0
 26 27  1  0
 27 28  1  0
 28 29  1  0
 23 30  2  0
  9 31  1  0
  6  1  1  0
 30 10  1  0
 31  4  1  0
 21 16  1  0
 29 24  1  0
  1 32  1  0
  2 33  1  0
  3 34  1  0
  6 35  1  0
  7 36  1  0
  7 37  1  0
  8 38  1  0
  8 39  1  0
 13 40  1  0
 14 41  1  0
 14 42  1  0
 15 43  1  0
 15 44  1  0
 16 45  1  0
 17 46  1  0
 17 47  1  0
 18 48  1  0
 18 49  1  0
 19 50  1  0
 19 51  1  0
 20 52  1  0
 20 53  1  0
 21 54  1  0
 21 55  1  0
 25 56  1  0
 25 57  1  0
 26 58  1  0
 26 59  1  0
 27 60  1  0
 28 61  1  0
 28 62  1  0
 29 63  1  0
 29 64  1  0
 31 65  1  0
 31 66  1  0
M  END
>  <smiles>  (42) 
c1ccc2c(c1)CCN(c1nc(NCCC3CCCCC3)nc(N3CCNCC3)n1)C2

>  <score_type>  (42) 
oracle

>  <origin>  (42) 
autodockgpu

>  <m_score__min__energy>  (42) 
-10.369999999999999

>  <m_primary>  (42) 
energy

>  <rmsd>  (42) 
4.701617997094208

>  <m_score__min__rmsd>  (42) 
4.701617997094208

>  <meeko>  (42) 
{"free_energy": -9.25, "intermolecular_energy": -11.04, "internal_energy": -1.0, "cluster_size": 42, "cluster_id": 1, "rank_in_cluster": 39}

>  <energy>  (42) 
-9.05

>  <cluster_rmsd>  (42) 
1.13

>  <cluster>  (42) 
1

$$$$

     RDKit          3D

 66 70  0  0  0  0  0  0  0  0999 V2000
  142.4040   81.1640  222.6820 C   0  0  0  0  0  0  0  0  0  0  0  0
  142.3010   80.4110  223.8450 C   0  0  0  0  0  0  0  0  0  0  0  0
  141.6810   79.1810  223.8600 C   0  0  0  0  0  0  0  0  0  0  0  0
  141.1660   78.7260  222.6670 C   0  0  0  0  0  0  0  0  0  0  0  0
  141.2450   79.4440  221.4850 C   0  0  0  0  0  0  0  0  0  0  0  0
  141.8730   80.6700  221.5110 C   0  0  0  0  0  0  0  0  0  0  0  0
  140.6520   78.8550  220.2580 C   0  0  0  0  0  0  0  0  0  0  0  0
  141.1950   77.4470  220.1310 C   0  0  0  0  0  0  0  0  0  0  0  0
  140.9470   76.7320  221.3430 N   0  0  0  0  0  0  0  0  0  0  0  0
  141.1720   75.3100  221.3870 C   0  0  0  0  0  0  0  0  0  0  0  0
  140.2670   74.5660  222.0510 N   0  0  0  0  0  0  0  0  0  0  0  0
  140.4670   73.2390  222.0980 C   0  0  0  0  0  0  0  0  0  0  0  0
  139.5090   72.4190  222.8060 N   0  0  0  0  0  0  0  0  0  0  0  0
  140.0150   71.2540  223.4440 C   0  0  0  0  0  0  0  0  0  0  0  0
  140.6730   71.5240  224.7500 C   0  0  0  0  0  0  0  0  0  0  0  0
  140.3310   70.6690  225.9070 C   0  0  0  0  0  0  0  0  0  0  0  0
  140.8970   71.2690  227.2170 C   0  0  0  0  0  0  0  0  0  0  0  0
  139.9910   70.7990  228.3280 C   0  0  0  0  0  0  0  0  0  0  0  0
  139.5930   69.3610  228.0680 C   0  0  0  0  0  0  0  0  0  0  0  0
  140.6760   68.6270  227.2940 C   0  0  0  0  0  0  0  0  0  0  0  0
  140.8000   69.2530  225.8930 C   0  0  0  0  0  0  0  0  0  0  0  0
  141.5450   72.7030  221.4940 N   0  0  0  0  0  0  0  0  0  0  0  0
  142.4470   73.4450  220.8320 C   0  0  0  0  0  0  0  0  0  0  0  0
  143.5780   72.8770  220.1980 N   0  0  0  0  0  0  0  0  0  0  0  0
  144.7900   72.4910  220.8870 C   0  0  0  0  0  0  0  0  0  0  0  0
  145.8970   73.3810  220.3770 C   0  0  0  0  0  0  0  0  0  0  0  0
  145.8960   73.3930  218.9550 N   0  0  0  0  0  0  0  0  0  0  0  0
  145.0280   72.4670  218.3050 C   0  0  0  0  0  0  0  0  0  0  0  0
  143.5720   72.6420  218.7460 C   0  0  0  0  0  0  0  0  0  0  0  0
  142.2560   74.7730  220.7800 N   0  0  0  0  0  0  0  0  0  0  0  0
  140.4670   77.3960  222.5590 C   0  0  0  0  0  0  0  0  0  0  0  0
  142.9040   82.1437  222.6962 H   0  0  0  0  0  0  0  0  0  0  0  0
  142.7259   80.8077  224.7789 H   0  0  0  0  0  0  0  0  0  0  0  0
  141.6010   78.5889  224.7836 H   0  0  0  0  0  0  0  0  0  0  0  0
  141.9512   81.2608  220.5864 H   0  0  0  0  0  0  0  0  0  0  0  0
  139.5556   78.8300  220.3436 H   0  0  0  0  0  0  0  0  0  0  0  0
  140.9096   79.4547  219.3726 H   0  0  0  0  0  0  0  0  0  0  0  0
  140.6966   76.9354  219.2944 H   0  0  0  0  0  0  0  0  0  0  0  0
  142.2780   77.4863  219.9424 H   0  0  0  0  0  0  0  0  0  0  0  0
  138.5350   72.7550  222.7630 H   0  0  0  0  0  0  0  0  0  0  0  0
  139.1784   70.5603  223.6138 H   0  0  0  0  0  0  0  0  0  0  0  0
  140.7829   70.8319  222.7790 H   0  0  0  0  0  0  0  0  0  0  0  0
  141.7577   71.4347  224.5907 H   0  0  0  0  0  0  0  0  0  0  0  0
  140.3030   72.5200  225.0349 H   0  0  0  0  0  0  0  0  0  0  0  0
  139.2331   70.6491  225.8414 H   0  0  0  0  0  0  0  0  0  0  0  0
  141.9235   70.9117  227.3865 H   0  0  0  0  0  0  0  0  0  0  0  0
  140.9324   72.3674  227.1695 H   0  0  0  0  0  0  0  0  0  0  0  0
  140.5215   70.8663  229.2893 H   0  0  0  0  0  0  0  0  0  0  0  0
  139.0918   71.4314  228.3655 H   0  0  0  0  0  0  0  0  0  0  0  0
  139.4315   68.8529  229.0302 H   0  0  0  0  0  0  0  0  0  0  0  0
  138.6701   69.3557  227.4695 H   0  0  0  0  0  0  0  0  0  0  0  0
  141.6351   68.7177  227.8250 H   0  0  0  0  0  0  0  0  0  0  0  0
  140.4132   67.5626  227.2043 H   0  0  0  0  0  0  0  0  0  0  0  0
  141.8530   69.2241  225.5761 H   0  0  0  0  0  0  0  0  0  0  0  0
  140.1756   68.6796  225.1920 H   0  0  0  0  0  0  0  0  0  0  0  0
  144.6665   72.6272  221.9715 H   0  0  0  0  0  0  0  0  0  0  0  0
  145.0239   71.4323  220.7016 H   0  0  0  0  0  0  0  0  0  0  0  0
  145.7426   74.4043  220.7499 H   0  0  0  0  0  0  0  0  0  0  0  0
  146.8634   72.9954  220.7339 H   0  0  0  0  0  0  0  0  0  0  0  0
  146.8590   73.2190  218.5930 H   0  0  0  0  0  0  0  0  0  0  0  0
  145.0914   72.6231  217.2180 H   0  0  0  0  0  0  0  0  0  0  0  0
  145.3472   71.4507  218.5793 H   0  0  0  0  0  0  0  0  0  0  0  0
  143.1228   73.5020  218.2277 H   0  0  0  0  0  0  0  0  0  0  0  0
  142.9811   71.7475  218.4995 H   0  0  0  0  0  0  0  0  0  0  0  0
  139.3795   77.5493  222.4967 H   0  0  0  0  0  0  0  0  0  0  0  0
  140.6811   76.7777  223.4432 H   0  0  0  0  0  0  0  0  0  0  0  0
  1  2  2  0
  2  3  1  0
  3  4  2  0
  4  5  1  0
  5  6  2  0
  5  7  1  0
  7  8  1  0
  8  9  1  0
  9 10  1  0
 10 11  2  0
 11 12  1  0
 12 13  1  0
 13 14  1  0
 14 15  1  0
 15 16  1  0
 16 17  1  0
 17 18  1  0
 18 19  1  0
 19 20  1  0
 20 21  1  0
 12 22  2  0
 22 23  1  0
 23 24  1  0
 24 25  1  0
 25 26  1  0
 26 27  1  0
 27 28  1  0
 28 29  1  0
 23 30  2  0
  9 31  1  0
  6  1  1  0
 30 10  1  0
 31  4  1  0
 21 16  1  0
 29 24  1  0
  1 32  1  0
  2 33  1  0
  3 34  1  0
  6 35  1  0
  7 36  1  0
  7 37  1  0
  8 38  1  0
  8 39  1  0
 13 40  1  0
 14 41  1  0
 14 42  1  0
 15 43  1  0
 15 44  1  0
 16 45  1  0
 17 46  1  0
 17 47  1  0
 18 48  1  0
 18 49  1  0
 19 50  1  0
 19 51  1  0
 20 52  1  0
 20 53  1  0
 21 54  1  0
 21 55  1  0
 25 56  1  0
 25 57  1  0
 26 58  1  0
 26 59  1  0
 27 60  1  0
 28 61  1  0
 28 62  1  0
 29 63  1  0
 29 64  1  0
 31 65  1  0
 31 66  1  0
M  END
>  <smiles>  (43) 
c1ccc2c(c1)CCN(c1nc(NCCC3CCCCC3)nc(N3CCNCC3)n1)C2

>  <score_type>  (43) 
oracle

>  <origin>  (43) 
autodockgpu

>  <m_score__min__energy>  (43) 
-10.369999999999999

>  <m_primary>  (43) 
energy

>  <rmsd>  (43) 
5.044342094581302

>  <m_score__min__rmsd>  (43) 
5.044342094581302

>  <meeko>  (43) 
{"free_energy": -10.28, "intermolecular_energy": -12.07, "internal_energy": -0.92, "cluster_size": 42, "cluster_id": 1, "rank_in_cluster": 5}

>  <energy>  (43) 
-8.73

>  <cluster_rmsd>  (43) 
0.0

>  <cluster>  (43) 
2

$$$$

     RDKit          3D

 66 70  0  0  0  0  0  0  0  0999 V2000
  145.2670   66.6390  219.3480 C   0  0  0  0  0  0  0  0  0  0  0  0
  145.9620   67.8410  219.4150 C   0  0  0  0  0  0  0  0  0  0  0  0
  145.3250   69.0550  219.2820 C   0  0  0  0  0  0  0  0  0  0  0  0
  143.9630   69.0280  219.0800 C   0  0  0  0  0  0  0  0  0  0  0  0
  143.2320   67.8530  219.0070 C   0  0  0  0  0  0  0  0  0  0  0  0
  143.9060   66.6600  219.1450 C   0  0  0  0  0  0  0  0  0  0  0  0
  141.7660   67.9450  218.7850 C   0  0  0  0  0  0  0  0  0  0  0  0
  141.2200   68.9180  219.8070 C   0  0  0  0  0  0  0  0  0  0  0  0
  141.9370   70.1510  219.7210 N   0  0  0  0  0  0  0  0  0  0  0  0
  141.4570   71.3040  220.4380 C   0  0  0  0  0  0  0  0  0  0  0  0
  140.7920   71.0780  221.5870 N   0  0  0  0  0  0  0  0  0  0  0  0
  140.3400   72.1460  222.2640 C   0  0  0  0  0  0  0  0  0  0  0  0
  139.6220   71.9290  223.5010 N   0  0  0  0  0  0  0  0  0  0  0  0
  139.0160   70.6540  223.6700 C   0  0  0  0  0  0  0  0  0  0  0  0
  139.7260   69.7770  224.6390 C   0  0  0  0  0  0  0  0  0  0  0  0
  140.0690   70.3200  225.9700 C   0  0  0  0  0  0  0  0  0  0  0  0
  141.3860   71.1320  225.9080 C   0  0  0  0  0  0  0  0  0  0  0  0
  141.3060   72.1610  227.0070 C   0  0  0  0  0  0  0  0  0  0  0  0
  140.6660   71.5330  228.2280 C   0  0  0  0  0  0  0  0  0  0  0  0
  140.9480   70.0400  228.2850 C   0  0  0  0  0  0  0  0  0  0  0  0
  140.2580   69.3560  227.0920 C   0  0  0  0  0  0  0  0  0  0  0  0
  140.5600   73.3850  221.7840 N   0  0  0  0  0  0  0  0  0  0  0  0
  141.2230   73.6100  220.6390 C   0  0  0  0  0  0  0  0  0  0  0  0
  141.4530   74.9140  220.1390 N   0  0  0  0  0  0  0  0  0  0  0  0
  141.8130   75.2090  218.7680 C   0  0  0  0  0  0  0  0  0  0  0  0
  143.2060   75.7910  218.7880 C   0  0  0  0  0  0  0  0  0  0  0  0
  143.2840   76.8330  219.7530 N   0  0  0  0  0  0  0  0  0  0  0  0
  142.0590   77.2460  220.3540 C   0  0  0  0  0  0  0  0  0  0  0  0
  141.3300   76.0800  221.0270 C   0  0  0  0  0  0  0  0  0  0  0  0
  141.6790   72.5490  219.9540 N   0  0  0  0  0  0  0  0  0  0  0  0
  143.1580   70.2910  218.9220 C   0  0  0  0  0  0  0  0  0  0  0  0
  145.7987   65.6821  219.4560 H   0  0  0  0  0  0  0  0  0  0  0  0
  147.0496   67.8222  219.5786 H   0  0  0  0  0  0  0  0  0  0  0  0
  145.8794   70.0036  219.3348 H   0  0  0  0  0  0  0  0  0  0  0  0
  143.3498   65.7124  219.0923 H   0  0  0  0  0  0  0  0  0  0  0  0
  141.5609   68.3114  217.7683 H   0  0  0  0  0  0  0  0  0  0  0  0
  141.2917   66.9583  218.8922 H   0  0  0  0  0  0  0  0  0  0  0  0
  140.1535   69.0993  219.6076 H   0  0  0  0  0  0  0  0  0  0  0  0
  141.3376   68.4950  220.8156 H   0  0  0  0  0  0  0  0  0  0  0  0
  139.6050   72.7370  224.1400 H   0  0  0  0  0  0  0  0  0  0  0  0
  137.9864   70.8037  224.0271 H   0  0  0  0  0  0  0  0  0  0  0  0
  139.0529   70.1491  222.6934 H   0  0  0  0  0  0  0  0  0  0  0  0
  139.0897   68.8950  224.8036 H   0  0  0  0  0  0  0  0  0  0  0  0
  140.7022   69.5931  224.1665 H   0  0  0  0  0  0  0  0  0  0  0  0
  139.1694   70.9109  226.1973 H   0  0  0  0  0  0  0  0  0  0  0  0
  142.2490   70.4694  226.0698 H   0  0  0  0  0  0  0  0  0  0  0  0
  141.5137   71.6087  224.9249 H   0  0  0  0  0  0  0  0  0  0  0  0
  142.3182   72.5095  227.2598 H   0  0  0  0  0  0  0  0  0  0  0  0
  140.7020   73.0166  226.6705 H   0  0  0  0  0  0  0  0  0  0  0  0
  141.0716   72.0103  229.1322 H   0  0  0  0  0  0  0  0  0  0  0  0
  139.5777   71.6817  228.1684 H   0  0  0  0  0  0  0  0  0  0  0  0
  142.0331   69.8670  228.2327 H   0  0  0  0  0  0  0  0  0  0  0  0
  140.5620   69.6238  229.2272 H   0  0  0  0  0  0  0  0  0  0  0  0
  140.8806   68.5174  226.7468 H   0  0  0  0  0  0  0  0  0  0  0  0
  139.2719   68.9909  227.4150 H   0  0  0  0  0  0  0  0  0  0  0  0
  141.7981   74.2874  218.1677 H   0  0  0  0  0  0  0  0  0  0  0  0
  141.1001   75.9173  218.3206 H   0  0  0  0  0  0  0  0  0  0  0  0
  143.9271   75.0013  219.0455 H   0  0  0  0  0  0  0  0  0  0  0  0
  143.4405   76.2007  217.7944 H   0  0  0  0  0  0  0  0  0  0  0  0
  143.7220   77.6810  219.3310 H   0  0  0  0  0  0  0  0  0  0  0  0
  142.2758   78.0140  221.1111 H   0  0  0  0  0  0  0  0  0  0  0  0
  141.4077   77.6424  219.5612 H   0  0  0  0  0  0  0  0  0  0  0  0
  141.7905   75.8608  222.0016 H   0  0  0  0  0  0  0  0  0  0  0  0
  140.2722   76.3292  221.1971 H   0  0  0  0  0  0  0  0  0  0  0  0
  142.8971   70.4377  217.8635 H   0  0  0  0  0  0  0  0  0  0  0  0
  143.7398   71.1607  219.2612 H   0  0  0  0  0  0  0  0  0  0  0  0
  1  2  2  0
  2  3  1  0
  3  4  2  0
  4  5  1  0
  5  6  2  0
  5  7  1  0
  7  8  1  0
  8  9  1  0
  9 10  1  0
 10 11  2  0
 11 12  1  0
 12 13  1  0
 13 14  1  0
 14 15  1  0
 15 16  1  0
 16 17  1  0
 17 18  1  0
 18 19  1  0
 19 20  1  0
 20 21  1  0
 12 22  2  0
 22 23  1  0
 23 24  1  0
 24 25  1  0
 25 26  1  0
 26 27  1  0
 27 28  1  0
 28 29  1  0
 23 30  2  0
  9 31  1  0
  6  1  1  0
 30 10  1  0
 31  4  1  0
 21 16  1  0
 29 24  1  0
  1 32  1  0
  2 33  1  0
  3 34  1  0
  6 35  1  0
  7 36  1  0
  7 37  1  0
  8 38  1  0
  8 39  1  0
 13 40  1  0
 14 41  1  0
 14 42  1  0
 15 43  1  0
 15 44  1  0
 16 45  1  0
 17 46  1  0
 17 47  1  0
 18 48  1  0
 18 49  1  0
 19 50  1  0
 19 51  1  0
 20 52  1  0
 20 53  1  0
 21 54  1  0
 21 55  1  0
 25 56  1  0
 25 57  1  0
 26 58  1  0
 26 59  1  0
 27 60  1  0
 28 61  1  0
 28 62  1  0
 29 63  1  0
 29 64  1  0
 31 65  1  0
 31 66  1  0
M  END
>  <smiles>  (44) 
c1ccc2c(c1)CCN(c1nc(NCCC3CCCCC3)nc(N3CCNCC3)n1)C2

>  <score_type>  (44) 
oracle

>  <origin>  (44) 
autodockgpu

>  <m_score__min__energy>  (44) 
-10.369999999999999

>  <m_primary>  (44) 
energy

>  <rmsd>  (44) 
11.167405136189394

>  <m_score__min__rmsd>  (44) 
11.167405136189394

>  <meeko>  (44) 
{"free_energy": -8.28, "intermolecular_energy": -10.07, "internal_energy": -1.11, "cluster_size": 1, "cluster_id": 4, "rank_in_cluster": 1}

>  <energy>  (44) 
-8.26

>  <cluster_rmsd>  (44) 
1.14

>  <cluster>  (44) 
2

$$$$

     RDKit          3D

 66 70  0  0  0  0  0  0  0  0999 V2000
  141.8390   81.5670  221.8860 C   0  0  0  0  0  0  0  0  0  0  0  0
  142.6190   80.8940  222.8180 C   0  0  0  0  0  0  0  0  0  0  0  0
  142.3180   79.6140  223.2260 C   0  0  0  0  0  0  0  0  0  0  0  0
  141.2050   79.0250  222.6690 C   0  0  0  0  0  0  0  0  0  0  0  0
  140.4000   79.6590  221.7370 C   0  0  0  0  0  0  0  0  0  0  0  0
  140.7350   80.9390  221.3540 C   0  0  0  0  0  0  0  0  0  0  0  0
  139.2230   78.9260  221.2030 C   0  0  0  0  0  0  0  0  0  0  0  0
  139.7140   77.5730  220.7350 C   0  0  0  0  0  0  0  0  0  0  0  0
  140.4140   76.9270  221.8010 N   0  0  0  0  0  0  0  0  0  0  0  0
  140.7840   75.5410  221.6700 C   0  0  0  0  0  0  0  0  0  0  0  0
  139.9700   74.6330  222.2420 N   0  0  0  0  0  0  0  0  0  0  0  0
  140.3050   73.3380  222.1270 C   0  0  0  0  0  0  0  0  0  0  0  0
  139.4470   72.3440  222.7330 N   0  0  0  0  0  0  0  0  0  0  0  0
  140.0900   71.2230  223.3240 C   0  0  0  0  0  0  0  0  0  0  0  0
  140.6220   71.4870  224.6880 C   0  0  0  0  0  0  0  0  0  0  0  0
  140.6730   70.3740  225.6580 C   0  0  0  0  0  0  0  0  0  0  0  0
  139.3510   69.5670  225.6360 C   0  0  0  0  0  0  0  0  0  0  0  0
  139.7010   68.1630  226.0630 C   0  0  0  0  0  0  0  0  0  0  0  0
  140.7250   68.2240  227.1770 C   0  0  0  0  0  0  0  0  0  0  0  0
  140.5720   69.4990  227.9900 C   0  0  0  0  0  0  0  0  0  0  0  0
  140.9020   70.7060  227.0940 C   0  0  0  0  0  0  0  0  0  0  0  0
  141.4220   72.9930  221.4560 N   0  0  0  0  0  0  0  0  0  0  0  0
  142.2320   73.8980  220.8860 C   0  0  0  0  0  0  0  0  0  0  0  0
  143.4040   73.5310  220.1820 N   0  0  0  0  0  0  0  0  0  0  0  0
  143.4600   72.4860  219.1830 C   0  0  0  0  0  0  0  0  0  0  0  0
  144.3560   71.3980  219.7240 C   0  0  0  0  0  0  0  0  0  0  0  0
  145.5760   71.9610  220.1900 N   0  0  0  0  0  0  0  0  0  0  0  0
  145.8000   73.3400  219.9040 C   0  0  0  0  0  0  0  0  0  0  0  0
  144.6740   74.2260  220.4450 C   0  0  0  0  0  0  0  0  0  0  0  0
  141.9070   75.1970  220.9970 N   0  0  0  0  0  0  0  0  0  0  0  0
  140.7770   77.6280  223.0370 C   0  0  0  0  0  0  0  0  0  0  0  0
  142.1003   82.5897  221.5766 H   0  0  0  0  0  0  0  0  0  0  0  0
  143.5008   81.3973  223.2413 H   0  0  0  0  0  0  0  0  0  0  0  0
  142.9390   79.0854  223.9641 H   0  0  0  0  0  0  0  0  0  0  0  0
  140.1135   81.4656  220.6147 H   0  0  0  0  0  0  0  0  0  0  0  0
  138.4672   78.8005  221.9923 H   0  0  0  0  0  0  0  0  0  0  0  0
  138.7595   79.4816  220.3744 H   0  0  0  0  0  0  0  0  0  0  0  0
  138.8554   76.9555  220.4325 H   0  0  0  0  0  0  0  0  0  0  0  0
  140.3905   77.7041  219.8776 H   0  0  0  0  0  0  0  0  0  0  0  0
  138.4380   72.5400  222.6610 H   0  0  0  0  0  0  0  0  0  0  0  0
  139.3629   70.4001  223.3885 H   0  0  0  0  0  0  0  0  0  0  0  0
  140.9512   70.9744  222.6865 H   0  0  0  0  0  0  0  0  0  0  0  0
  141.6502   71.8590  224.5679 H   0  0  0  0  0  0  0  0  0  0  0  0
  139.8972   72.1893  225.1257 H   0  0  0  0  0  0  0  0  0  0  0  0
  141.5589   69.8252  225.3059 H   0  0  0  0  0  0  0  0  0  0  0  0
  138.6250   70.0073  226.3353 H   0  0  0  0  0  0  0  0  0  0  0  0
  138.8946   69.5770  224.6352 H   0  0  0  0  0  0  0  0  0  0  0  0
  138.7961   67.6510  226.4222 H   0  0  0  0  0  0  0  0  0  0  0  0
  140.1161   67.6086  225.2084 H   0  0  0  0  0  0  0  0  0  0  0  0
  140.5877   67.3566  227.8394 H   0  0  0  0  0  0  0  0  0  0  0  0
  141.7298   68.2128  226.7296 H   0  0  0  0  0  0  0  0  0  0  0  0
  139.5376   69.5821  228.3548 H   0  0  0  0  0  0  0  0  0  0  0  0
  141.2570   69.4761  228.8504 H   0  0  0  0  0  0  0  0  0  0  0  0
  140.2582   71.5521  227.3762 H   0  0  0  0  0  0  0  0  0  0  0  0
  141.9609   70.9700  227.2317 H   0  0  0  0  0  0  0  0  0  0  0  0
  142.4518   72.0867  218.9985 H   0  0  0  0  0  0  0  0  0  0  0  0
  143.8507   72.8762  218.2316 H   0  0  0  0  0  0  0  0  0  0  0  0
  143.8485   70.8881  220.5562 H   0  0  0  0  0  0  0  0  0  0  0  0
  144.5735   70.6768  218.9224 H   0  0  0  0  0  0  0  0  0  0  0  0
  146.3880   71.4300  219.8040 H   0  0  0  0  0  0  0  0  0  0  0  0
  146.7491   73.6494  220.3661 H   0  0  0  0  0  0  0  0  0  0  0  0
  145.8331   73.4604  218.8111 H   0  0  0  0  0  0  0  0  0  0  0  0
  144.8022   74.3788  221.5268 H   0  0  0  0  0  0  0  0  0  0  0  0
  144.6862   75.2118  219.9570 H   0  0  0  0  0  0  0  0  0  0  0  0
  139.9095   77.6686  223.7121 H   0  0  0  0  0  0  0  0  0  0  0  0
  141.5938   77.1001  223.5510 H   0  0  0  0  0  0  0  0  0  0  0  0
  1  2  2  0
  2  3  1  0
  3  4  2  0
  4  5  1  0
  5  6  2  0
  5  7  1  0
  7  8  1  0
  8  9  1  0
  9 10  1  0
 10 11  2  0
 11 12  1  0
 12 13  1  0
 13 14  1  0
 14 15  1  0
 15 16  1  0
 16 17  1  0
 17 18  1  0
 18 19  1  0
 19 20  1  0
 20 21  1  0
 12 22  2  0
 22 23  1  0
 23 24  1  0
 24 25  1  0
 25 26  1  0
 26 27  1  0
 27 28  1  0
 28 29  1  0
 23 30  2  0
  9 31  1  0
  6  1  1  0
 30 10  1  0
 31  4  1  0
 21 16  1  0
 29 24  1  0
  1 32  1  0
  2 33  1  0
  3 34  1  0
  6 35  1  0
  7 36  1  0
  7 37  1  0
  8 38  1  0
  8 39  1  0
 13 40  1  0
 14 41  1  0
 14 42  1  0
 15 43  1  0
 15 44  1  0
 16 45  1  0
 17 46  1  0
 17 47  1  0
 18 48  1  0
 18 49  1  0
 19 50  1  0
 19 51  1  0
 20 52  1  0
 20 53  1  0
 21 54  1  0
 21 55  1  0
 25 56  1  0
 25 57  1  0
 26 58  1  0
 26 59  1  0
 27 60  1  0
 28 61  1  0
 28 62  1  0
 29 63  1  0
 29 64  1  0
 31 65  1  0
 31 66  1  0
M  END
>  <smiles>  (45) 
c1ccc2c(c1)CCN(c1nc(NCCC3CCCCC3)nc(N3CCNCC3)n1)C2

>  <score_type>  (45) 
oracle

>  <origin>  (45) 
autodockgpu

>  <m_score__min__energy>  (45) 
-10.369999999999999

>  <m_primary>  (45) 
energy

>  <rmsd>  (45) 
4.843946948880254

>  <m_score__min__rmsd>  (45) 
4.843946948880254

>  <meeko>  (45) 
{"free_energy": -9.29, "intermolecular_energy": -11.08, "internal_energy": -0.94, "cluster_size": 42, "cluster_id": 1, "rank_in_cluster": 38}

>  <energy>  (45) 
-8.03

>  <cluster_rmsd>  (45) 
1.15

>  <cluster>  (45) 
2

$$$$

     RDKit          3D

 66 70  0  0  0  0  0  0  0  0999 V2000
  142.3060   80.9390  222.7020 C   0  0  0  0  0  0  0  0  0  0  0  0
  142.3270   80.1700  223.8590 C   0  0  0  0  0  0  0  0  0  0  0  0
  141.7710   78.9110  223.9030 C   0  0  0  0  0  0  0  0  0  0  0  0
  141.1910   78.4420  222.7460 C   0  0  0  0  0  0  0  0  0  0  0  0
  141.1470   79.1750  221.5700 C   0  0  0  0  0  0  0  0  0  0  0  0
  141.7150   80.4300  221.5670 C   0  0  0  0  0  0  0  0  0  0  0  0
  140.4940   78.5690  220.3830 C   0  0  0  0  0  0  0  0  0  0  0  0
  141.0940   77.1920  220.1970 C   0  0  0  0  0  0  0  0  0  0  0  0
  140.9720   76.4530  221.4140 N   0  0  0  0  0  0  0  0  0  0  0  0
  141.2690   75.0430  221.4230 C   0  0  0  0  0  0  0  0  0  0  0  0
  140.3960   74.2360  222.0540 N   0  0  0  0  0  0  0  0  0  0  0  0
  140.6630   72.9200  222.0680 C   0  0  0  0  0  0  0  0  0  0  0  0
  139.7400   72.0330  222.7400 N   0  0  0  0  0  0  0  0  0  0  0  0
  140.1140   71.5880  224.0360 C   0  0  0  0  0  0  0  0  0  0  0  0
  139.2180   70.5380  224.5920 C   0  0  0  0  0  0  0  0  0  0  0  0
  139.5550   69.9350  225.8990 C   0  0  0  0  0  0  0  0  0  0  0  0
  140.7410   70.6830  226.5570 C   0  0  0  0  0  0  0  0  0  0  0  0
  140.5780   70.5120  228.0470 C   0  0  0  0  0  0  0  0  0  0  0  0
  140.1010   69.1040  228.3350 C   0  0  0  0  0  0  0  0  0  0  0  0
  140.5910   68.1330  227.2730 C   0  0  0  0  0  0  0  0  0  0  0  0
  139.9390   68.4950  225.9270 C   0  0  0  0  0  0  0  0  0  0  0  0
  141.7740   72.4570  221.4620 N   0  0  0  0  0  0  0  0  0  0  0  0
  142.6440   73.2620  220.8330 C   0  0  0  0  0  0  0  0  0  0  0  0
  143.8100   72.7700  220.1980 N   0  0  0  0  0  0  0  0  0  0  0  0
  145.0990   72.6470  220.8440 C   0  0  0  0  0  0  0  0  0  0  0  0
  146.0400   73.6010  220.1490 C   0  0  0  0  0  0  0  0  0  0  0  0
  145.9630   73.4190  218.7400 N   0  0  0  0  0  0  0  0  0  0  0  0
  145.2030   72.3060  218.2750 C   0  0  0  0  0  0  0  0  0  0  0  0
  143.7620   72.3420  218.7920 C   0  0  0  0  0  0  0  0  0  0  0  0
  142.3860   74.5800  220.8140 N   0  0  0  0  0  0  0  0  0  0  0  0
  140.5520   77.0800  222.6720 C   0  0  0  0  0  0  0  0  0  0  0  0
  142.7562   81.9426  222.6927 H   0  0  0  0  0  0  0  0  0  0  0  0
  142.8005   80.5779  224.7642 H   0  0  0  0  0  0  0  0  0  0  0  0
  141.7895   78.3068  224.8220 H   0  0  0  0  0  0  0  0  0  0  0  0
  141.6963   81.0328  220.6470 H   0  0  0  0  0  0  0  0  0  0  0  0
  139.4096   78.4884  220.5494 H   0  0  0  0  0  0  0  0  0  0  0  0
  140.6552   79.1894  219.4891 H   0  0  0  0  0  0  0  0  0  0  0  0
  140.5605   76.6648  219.3924 H   0  0  0  0  0  0  0  0  0  0  0  0
  142.1568   77.2872  219.9298 H   0  0  0  0  0  0  0  0  0  0  0  0
  138.8960   71.7930  222.1980 H   0  0  0  0  0  0  0  0  0  0  0  0
  141.1342   71.1803  223.9817 H   0  0  0  0  0  0  0  0  0  0  0  0
  140.0433   72.4574  224.7062 H   0  0  0  0  0  0  0  0  0  0  0  0
  138.2177   70.9850  224.6902 H   0  0  0  0  0  0  0  0  0  0  0  0
  139.3120   69.7037  223.8813 H   0  0  0  0  0  0  0  0  0  0  0  0
  138.5960   70.0257  226.4301 H   0  0  0  0  0  0  0  0  0  0  0  0
  141.6957   70.2481  226.2263 H   0  0  0  0  0  0  0  0  0  0  0  0
  140.7473   71.7464  226.2758 H   0  0  0  0  0  0  0  0  0  0  0  0
  141.5437   70.6829  228.5452 H   0  0  0  0  0  0  0  0  0  0  0  0
  139.8422   71.2371  228.4249 H   0  0  0  0  0  0  0  0  0  0  0  0
  140.4855   68.7879  229.3159 H   0  0  0  0  0  0  0  0  0  0  0  0
  139.0010   69.0999  228.3318 H   0  0  0  0  0  0  0  0  0  0  0  0
  141.6851   68.2043  227.1842 H   0  0  0  0  0  0  0  0  0  0  0  0
  140.3188   67.1050  227.5542 H   0  0  0  0  0  0  0  0  0  0  0  0
  140.6532   68.2957  225.1144 H   0  0  0  0  0  0  0  0  0  0  0  0
  139.0333   67.8845  225.7968 H   0  0  0  0  0  0  0  0  0  0  0  0
  145.0136   72.9106  221.9085 H   0  0  0  0  0  0  0  0  0  0  0  0
  145.4715   71.6141  220.7782 H   0  0  0  0  0  0  0  0  0  0  0  0
  145.7606   74.6352  220.3987 H   0  0  0  0  0  0  0  0  0  0  0  0
  147.0688   73.4019  220.4835 H   0  0  0  0  0  0  0  0  0  0  0  0
  146.9210   73.3280  218.3370 H   0  0  0  0  0  0  0  0  0  0  0  0
  145.1866   72.3212  217.1752 H   0  0  0  0  0  0  0  0  0  0  0  0
  145.6775   71.3880  218.6521 H   0  0  0  0  0  0  0  0  0  0  0  0
  143.1685   73.0557  218.2018 H   0  0  0  0  0  0  0  0  0  0  0  0
  143.2926   71.3511  218.7034 H   0  0  0  0  0  0  0  0  0  0  0  0
  139.4567   77.1794  222.6927 H   0  0  0  0  0  0  0  0  0  0  0  0
  140.8617   76.4642  223.5293 H   0  0  0  0  0  0  0  0  0  0  0  0
  1  2  2  0
  2  3  1  0
  3  4  2  0
  4  5  1  0
  5  6  2  0
  5  7  1  0
  7  8  1  0
  8  9  1  0
  9 10  1  0
 10 11  2  0
 11 12  1  0
 12 13  1  0
 13 14  1  0
 14 15  1  0
 15 16  1  0
 16 17  1  0
 17 18  1  0
 18 19  1  0
 19 20  1  0
 20 21  1  0
 12 22  2  0
 22 23  1  0
 23 24  1  0
 24 25  1  0
 25 26  1  0
 26 27  1  0
 27 28  1  0
 28 29  1  0
 23 30  2  0
  9 31  1  0
  6  1  1  0
 30 10  1  0
 31  4  1  0
 21 16  1  0
 29 24  1  0
  1 32  1  0
  2 33  1  0
  3 34  1  0
  6 35  1  0
  7 36  1  0
  7 37  1  0
  8 38  1  0
  8 39  1  0
 13 40  1  0
 14 41  1  0
 14 42  1  0
 15 43  1  0
 15 44  1  0
 16 45  1  0
 17 46  1  0
 17 47  1  0
 18 48  1  0
 18 49  1  0
 19 50  1  0
 19 51  1  0
 20 52  1  0
 20 53  1  0
 21 54  1  0
 21 55  1  0
 25 56  1  0
 25 57  1  0
 26 58  1  0
 26 59  1  0
 27 60  1  0
 28 61  1  0
 28 62  1  0
 29 63  1  0
 29 64  1  0
 31 65  1  0
 31 66  1  0
M  END
>  <smiles>  (46) 
c1ccc2c(c1)CCN(c1nc(NCCC3CCCCC3)nc(N3CCNCC3)n1)C2

>  <score_type>  (46) 
oracle

>  <origin>  (46) 
autodockgpu

>  <m_score__min__energy>  (46) 
-10.369999999999999

>  <m_primary>  (46) 
energy

>  <rmsd>  (46) 
5.011522623053257

>  <m_score__min__rmsd>  (46) 
5.011522623053257

>  <meeko>  (46) 
{"free_energy": -10.05, "intermolecular_energy": -11.84, "internal_energy": -0.85, "cluster_size": 42, "cluster_id": 1, "rank_in_cluster": 13}

>  <energy>  (46) 
-7.41

>  <cluster_rmsd>  (46) 
1.43

>  <cluster>  (46) 
2

$$$$

     RDKit          3D

 66 70  0  0  0  0  0  0  0  0999 V2000
  142.5710   81.1590  223.0640 C   0  0  0  0  0  0  0  0  0  0  0  0
  142.4010   80.3580  224.1860 C   0  0  0  0  0  0  0  0  0  0  0  0
  141.7190   79.1630  224.1290 C   0  0  0  0  0  0  0  0  0  0  0  0
  141.2100   78.7920  222.9050 C   0  0  0  0  0  0  0  0  0  0  0  0
  141.3550   79.5600  221.7600 C   0  0  0  0  0  0  0  0  0  0  0  0
  142.0440   80.7480  221.8590 C   0  0  0  0  0  0  0  0  0  0  0  0
  140.7620   79.0600  220.4930 C   0  0  0  0  0  0  0  0  0  0  0  0
  141.2350   77.6340  220.3110 C   0  0  0  0  0  0  0  0  0  0  0  0
  140.9210   76.8770  221.4810 N   0  0  0  0  0  0  0  0  0  0  0  0
  141.0720   75.4440  221.4620 C   0  0  0  0  0  0  0  0  0  0  0  0
  140.1150   74.7190  222.0710 N   0  0  0  0  0  0  0  0  0  0  0  0
  140.2450   73.3820  222.0590 C   0  0  0  0  0  0  0  0  0  0  0  0
  139.2310   72.5810  222.7080 N   0  0  0  0  0  0  0  0  0  0  0  0
  139.6360   71.3080  223.1900 C   0  0  0  0  0  0  0  0  0  0  0  0
  140.7550   71.3650  224.1690 C   0  0  0  0  0  0  0  0  0  0  0  0
  140.5010   70.9440  225.5630 C   0  0  0  0  0  0  0  0  0  0  0  0
  141.4310   71.7020  226.5420 C   0  0  0  0  0  0  0  0  0  0  0  0
  140.7010   71.7670  227.8600 C   0  0  0  0  0  0  0  0  0  0  0  0
  139.9870   70.4530  228.0970 C   0  0  0  0  0  0  0  0  0  0  0  0
  140.7230   69.3040  227.4260 C   0  0  0  0  0  0  0  0  0  0  0  0
  140.6720   69.5020  225.9000 C   0  0  0  0  0  0  0  0  0  0  0  0
  141.3080   72.8190  221.4510 N   0  0  0  0  0  0  0  0  0  0  0  0
  142.2610   73.5430  220.8440 C   0  0  0  0  0  0  0  0  0  0  0  0
  143.3750   72.9470  220.2050 N   0  0  0  0  0  0  0  0  0  0  0  0
  144.4670   72.3040  220.9050 C   0  0  0  0  0  0  0  0  0  0  0  0
  145.7100   73.1190  220.6370 C   0  0  0  0  0  0  0  0  0  0  0  0
  145.8410   73.3600  219.2410 N   0  0  0  0  0  0  0  0  0  0  0  0
  144.9390   72.6670  218.3810 C   0  0  0  0  0  0  0  0  0  0  0  0
  143.4770   72.9510  218.7380 C   0  0  0  0  0  0  0  0  0  0  0  0
  142.1400   74.8800  220.8510 N   0  0  0  0  0  0  0  0  0  0  0  0
  140.4470   77.5070  222.7170 C   0  0  0  0  0  0  0  0  0  0  0  0
  143.1196   82.1097  223.1365 H   0  0  0  0  0  0  0  0  0  0  0  0
  142.8230   80.6874  225.1470 H   0  0  0  0  0  0  0  0  0  0  0  0
  141.5869   78.5334  225.0213 H   0  0  0  0  0  0  0  0  0  0  0  0
  142.1753   81.3763  220.9657 H   0  0  0  0  0  0  0  0  0  0  0  0
  139.6640   79.0883  220.5536 H   0  0  0  0  0  0  0  0  0  0  0  0
  141.0711   79.6859  219.6429 H   0  0  0  0  0  0  0  0  0  0  0  0
  140.7320   77.1888  219.4399 H   0  0  0  0  0  0  0  0  0  0  0  0
  142.3230   77.6256  220.1490 H   0  0  0  0  0  0  0  0  0  0  0  0
  138.2940   73.0120  222.7410 H   0  0  0  0  0  0  0  0  0  0  0  0
  138.7729   70.8309  223.6772 H   0  0  0  0  0  0  0  0  0  0  0  0
  139.9981   70.7371  222.3223 H   0  0  0  0  0  0  0  0  0  0  0  0
  141.5595   70.7242  223.7788 H   0  0  0  0  0  0  0  0  0  0  0  0
  140.9831   72.4379  224.2515 H   0  0  0  0  0  0  0  0  0  0  0  0
  139.4308   71.1769  225.6653 H   0  0  0  0  0  0  0  0  0  0  0  0
  142.3813   71.1607  226.6599 H   0  0  0  0  0  0  0  0  0  0  0  0
  141.6678   72.7089  226.1677 H   0  0  0  0  0  0  0  0  0  0  0  0
  141.4216   71.9461  228.6716 H   0  0  0  0  0  0  0  0  0  0  0  0
  139.9688   72.5876  227.8377 H   0  0  0  0  0  0  0  0  0  0  0  0
  139.9335   70.2628  229.1791 H   0  0  0  0  0  0  0  0  0  0  0  0
  138.9767   70.5206  227.6671 H   0  0  0  0  0  0  0  0  0  0  0  0
  141.7704   69.2903  227.7617 H   0  0  0  0  0  0  0  0  0  0  0  0
  140.2466   68.3494  227.6939 H   0  0  0  0  0  0  0  0  0  0  0  0
  141.6097   69.1359  225.4565 H   0  0  0  0  0  0  0  0  0  0  0  0
  139.8159   68.9402  225.4981 H   0  0  0  0  0  0  0  0  0  0  0  0
  144.2590   72.2776  221.9848 H   0  0  0  0  0  0  0  0  0  0  0  0
  144.5969   71.2680  220.5588 H   0  0  0  0  0  0  0  0  0  0  0  0
  145.6372   74.0799  221.1675 H   0  0  0  0  0  0  0  0  0  0  0  0
  146.5903   72.5632  220.9921 H   0  0  0  0  0  0  0  0  0  0  0  0
  146.8080   73.1260  218.9260 H   0  0  0  0  0  0  0  0  0  0  0  0
  145.1203   72.9862  217.3441 H   0  0  0  0  0  0  0  0  0  0  0  0
  145.1155   71.5878  218.5005 H   0  0  0  0  0  0  0  0  0  0  0  0
  143.1771   73.9327  218.3427 H   0  0  0  0  0  0  0  0  0  0  0  0
  142.8148   72.1896  218.3001 H   0  0  0  0  0  0  0  0  0  0  0  0
  139.3706   77.7197  222.6389 H   0  0  0  0  0  0  0  0  0  0  0  0
  140.6085   76.8371  223.5744 H   0  0  0  0  0  0  0  0  0  0  0  0
  1  2  2  0
  2  3  1  0
  3  4  2  0
  4  5  1  0
  5  6  2  0
  5  7  1  0
  7  8  1  0
  8  9  1  0
  9 10  1  0
 10 11  2  0
 11 12  1  0
 12 13  1  0
 13 14  1  0
 14 15  1  0
 15 16  1  0
 16 17  1  0
 17 18  1  0
 18 19  1  0
 19 20  1  0
 20 21  1  0
 12 22  2  0
 22 23  1  0
 23 24  1  0
 24 25  1  0
 25 26  1  0
 26 27  1  0
 27 28  1  0
 28 29  1  0
 23 30  2  0
  9 31  1  0
  6  1  1  0
 30 10  1  0
 31  4  1  0
 21 16  1  0
 29 24  1  0
  1 32  1  0
  2 33  1  0
  3 34  1  0
  6 35  1  0
  7 36  1  0
  7 37  1  0
  8 38  1  0
  8 39  1  0
 13 40  1  0
 14 41  1  0
 14 42  1  0
 15 43  1  0
 15 44  1  0
 16 45  1  0
 17 46  1  0
 17 47  1  0
 18 48  1  0
 18 49  1  0
 19 50  1  0
 19 51  1  0
 20 52  1  0
 20 53  1  0
 21 54  1  0
 21 55  1  0
 25 56  1  0
 25 57  1  0
 26 58  1  0
 26 59  1  0
 27 60  1  0
 28 61  1  0
 28 62  1  0
 29 63  1  0
 29 64  1  0
 31 65  1  0
 31 66  1  0
M  END
>  <smiles>  (47) 
c1ccc2c(c1)CCN(c1nc(NCCC3CCCCC3)nc(N3CCNCC3)n1)C2

>  <score_type>  (47) 
oracle

>  <origin>  (47) 
autodockgpu

>  <m_score__min__energy>  (47) 
-10.369999999999999

>  <m_primary>  (47) 
energy

>  <rmsd>  (47) 
5.258868863560723

>  <m_score__min__rmsd>  (47) 
5.258868863560723

>  <meeko>  (47) 
{"free_energy": -10.31, "intermolecular_energy": -12.1, "internal_energy": -1.01, "cluster_size": 42, "cluster_id": 1, "rank_in_cluster": 3}

>  <energy>  (47) 
-8.34

>  <cluster_rmsd>  (47) 
0.0

>  <cluster>  (47) 
3

$$$$

     RDKit          3D

 66 70  0  0  0  0  0  0  0  0999 V2000
  139.5290   69.7970  228.0180 C   0  0  0  0  0  0  0  0  0  0  0  0
  140.6220   70.6560  228.0130 C   0  0  0  0  0  0  0  0  0  0  0  0
  141.1690   71.1260  226.8400 C   0  0  0  0  0  0  0  0  0  0  0  0
  140.5850   70.7090  225.6660 C   0  0  0  0  0  0  0  0  0  0  0  0
  139.4950   69.8540  225.6240 C   0  0  0  0  0  0  0  0  0  0  0  0
  138.9760   69.4060  226.8190 C   0  0  0  0  0  0  0  0  0  0  0  0
  138.9470   69.4700  224.2980 C   0  0  0  0  0  0  0  0  0  0  0  0
  138.7240   70.7490  223.5200 C   0  0  0  0  0  0  0  0  0  0  0  0
  139.9360   71.5060  223.4920 N   0  0  0  0  0  0  0  0  0  0  0  0
  140.0370   72.6530  222.6280 C   0  0  0  0  0  0  0  0  0  0  0  0
  138.9030   73.3320  222.3740 N   0  0  0  0  0  0  0  0  0  0  0  0
  138.9850   74.4040  221.5690 C   0  0  0  0  0  0  0  0  0  0  0  0
  137.7800   75.1490  221.2820 N   0  0  0  0  0  0  0  0  0  0  0  0
  137.9480   76.5000  220.8730 C   0  0  0  0  0  0  0  0  0  0  0  0
  138.1110   77.4530  222.0030 C   0  0  0  0  0  0  0  0  0  0  0  0
  139.4750   77.8770  222.3840 C   0  0  0  0  0  0  0  0  0  0  0  0
  139.4650   79.3240  222.9340 C   0  0  0  0  0  0  0  0  0  0  0  0
  140.6300   79.4260  223.8870 C   0  0  0  0  0  0  0  0  0  0  0  0
  141.8070   78.6650  223.3140 C   0  0  0  0  0  0  0  0  0  0  0  0
  141.7660   78.6590  221.7940 C   0  0  0  0  0  0  0  0  0  0  0  0
  140.5300   77.8670  221.3310 C   0  0  0  0  0  0  0  0  0  0  0  0
  140.1770   74.7600  221.0500 N   0  0  0  0  0  0  0  0  0  0  0  0
  141.3080   74.0830  221.3030 C   0  0  0  0  0  0  0  0  0  0  0  0
  142.5570   74.4620  220.7560 N   0  0  0  0  0  0  0  0  0  0  0  0
  142.8200   75.7420  220.1360 C   0  0  0  0  0  0  0  0  0  0  0  0
  143.1180   75.4800  218.6790 C   0  0  0  0  0  0  0  0  0  0  0  0
  144.0930   74.4520  218.5600 N   0  0  0  0  0  0  0  0  0  0  0  0
  144.7180   74.0150  219.7650 C   0  0  0  0  0  0  0  0  0  0  0  0
  143.6950   73.5310  220.7970 C   0  0  0  0  0  0  0  0  0  0  0  0
  141.2350   73.0090  222.1070 N   0  0  0  0  0  0  0  0  0  0  0  0
  141.0940   71.1580  224.3210 C   0  0  0  0  0  0  0  0  0  0  0  0
  139.1109   69.4339  228.9684 H   0  0  0  0  0  0  0  0  0  0  0  0
  141.0616   70.9686  228.9717 H   0  0  0  0  0  0  0  0  0  0  0  0
  142.0346   71.8048  226.8414 H   0  0  0  0  0  0  0  0  0  0  0  0
  138.1098   68.7281  226.8153 H   0  0  0  0  0  0  0  0  0  0  0  0
  139.6625   68.8252  223.7666 H   0  0  0  0  0  0  0  0  0  0  0  0
  138.0060   68.9116  224.4106 H   0  0  0  0  0  0  0  0  0  0  0  0
  138.4203   70.5045  222.4914 H   0  0  0  0  0  0  0  0  0  0  0  0
  137.9330   71.3402  224.0046 H   0  0  0  0  0  0  0  0  0  0  0  0
  136.9030   74.6260  221.4200 H   0  0  0  0  0  0  0  0  0  0  0  0
  138.8428   76.5609  220.2361 H   0  0  0  0  0  0  0  0  0  0  0  0
  137.0309   76.7897  220.3391 H   0  0  0  0  0  0  0  0  0  0  0  0
  137.5502   78.3628  221.7425 H   0  0  0  0  0  0  0  0  0  0  0  0
  137.7516   76.8925  222.8786 H   0  0  0  0  0  0  0  0  0  0  0  0
  139.7422   77.1032  223.1188 H   0  0  0  0  0  0  0  0  0  0  0  0
  139.5825   80.0445  222.1111 H   0  0  0  0  0  0  0  0  0  0  0  0
  138.5151   79.5515  223.4399 H   0  0  0  0  0  0  0  0  0  0  0  0
  140.9047   80.4827  224.0212 H   0  0  0  0  0  0  0  0  0  0  0  0
  140.3506   78.9979  224.8610 H   0  0  0  0  0  0  0  0  0  0  0  0
  142.7403   79.1429  223.6465 H   0  0  0  0  0  0  0  0  0  0  0  0
  141.7578   77.6252  223.6694 H   0  0  0  0  0  0  0  0  0  0  0  0
  141.7027   79.6924  221.4224 H   0  0  0  0  0  0  0  0  0  0  0  0
  142.6788   78.1894  221.3987 H   0  0  0  0  0  0  0  0  0  0  0  0
  140.1300   78.3248  220.4143 H   0  0  0  0  0  0  0  0  0  0  0  0
  140.8281   76.8259  221.1379 H   0  0  0  0  0  0  0  0  0  0  0  0
  141.9389   76.3939  220.2291 H   0  0  0  0  0  0  0  0  0  0  0  0
  143.6681   76.2450  220.6236 H   0  0  0  0  0  0  0  0  0  0  0  0
  142.1949   75.1676  218.1687 H   0  0  0  0  0  0  0  0  0  0  0  0
  143.5054   76.4006  218.2181 H   0  0  0  0  0  0  0  0  0  0  0  0
  144.8530   74.7500  217.9090 H   0  0  0  0  0  0  0  0  0  0  0  0
  145.4042   73.1881  219.5299 H   0  0  0  0  0  0  0  0  0  0  0  0
  145.2594   74.8695  220.1971 H   0  0  0  0  0  0  0  0  0  0  0  0
  143.3587   72.5144  220.5453 H   0  0  0  0  0  0  0  0  0  0  0  0
  144.1398   73.5042  221.8027 H   0  0  0  0  0  0  0  0  0  0  0  0
  141.6621   70.3445  223.8462 H   0  0  0  0  0  0  0  0  0  0  0  0
  141.7582   72.0275  224.4344 H   0  0  0  0  0  0  0  0  0  0  0  0
  1  2  2  0
  2  3  1  0
  3  4  2  0
  4  5  1  0
  5  6  2  0
  5  7  1  0
  7  8  1  0
  8  9  1  0
  9 10  1  0
 10 11  2  0
 11 12  1  0
 12 13  1  0
 13 14  1  0
 14 15  1  0
 15 16  1  0
 16 17  1  0
 17 18  1  0
 18 19  1  0
 19 20  1  0
 20 21  1  0
 12 22  2  0
 22 23  1  0
 23 24  1  0
 24 25  1  0
 25 26  1  0
 26 27  1  0
 27 28  1  0
 28 29  1  0
 23 30  2  0
  9 31  1  0
  6  1  1  0
 30 10  1  0
 31  4  1  0
 21 16  1  0
 29 24  1  0
  1 32  1  0
  2 33  1  0
  3 34  1  0
  6 35  1  0
  7 36  1  0
  7 37  1  0
  8 38  1  0
  8 39  1  0
 13 40  1  0
 14 41  1  0
 14 42  1  0
 15 43  1  0
 15 44  1  0
 16 45  1  0
 17 46  1  0
 17 47  1  0
 18 48  1  0
 18 49  1  0
 19 50  1  0
 19 51  1  0
 20 52  1  0
 20 53  1  0
 21 54  1  0
 21 55  1  0
 25 56  1  0
 25 57  1  0
 26 58  1  0
 26 59  1  0
 27 60  1  0
 28 61  1  0
 28 62  1  0
 29 63  1  0
 29 64  1  0
 31 65  1  0
 31 66  1  0
M  END
>  <smiles>  (48) 
c1ccc2c(c1)CCN(c1nc(NCCC3CCCCC3)nc(N3CCNCC3)n1)C2

>  <score_type>  (48) 
oracle

>  <origin>  (48) 
autodockgpu

>  <m_score__min__energy>  (48) 
-10.369999999999999

>  <m_primary>  (48) 
energy

>  <rmsd>  (48) 
10.802728053008595

>  <m_score__min__rmsd>  (48) 
10.802728053008595

>  <meeko>  (48) 
{"free_energy": -8.03, "intermolecular_energy": -9.82, "internal_energy": -1.54, "cluster_size": 4, "cluster_id": 2, "rank_in_cluster": 3}

>  <energy>  (48) 
-8.12

>  <cluster_rmsd>  (48) 
0.94

>  <cluster>  (48) 
3

$$$$

     RDKit          3D

 66 70  0  0  0  0  0  0  0  0999 V2000
  142.6340   80.8650  223.0890 C   0  0  0  0  0  0  0  0  0  0  0  0
  142.1880   80.0810  224.1460 C   0  0  0  0  0  0  0  0  0  0  0  0
  141.5020   78.9050  223.9380 C   0  0  0  0  0  0  0  0  0  0  0  0
  141.2740   78.5360  222.6320 C   0  0  0  0  0  0  0  0  0  0  0  0
  141.7000   79.2880  221.5480 C   0  0  0  0  0  0  0  0  0  0  0  0
  142.3840   80.4570  221.7980 C   0  0  0  0  0  0  0  0  0  0  0  0
  141.3970   78.7920  220.1810 C   0  0  0  0  0  0  0  0  0  0  0  0
  141.8550   77.3510  220.1160 C   0  0  0  0  0  0  0  0  0  0  0  0
  141.2600   76.6150  221.1870 N   0  0  0  0  0  0  0  0  0  0  0  0
  141.3680   75.1790  221.2070 C   0  0  0  0  0  0  0  0  0  0  0  0
  140.4910   74.5090  221.9780 N   0  0  0  0  0  0  0  0  0  0  0  0
  140.5820   73.1700  222.0050 C   0  0  0  0  0  0  0  0  0  0  0  0
  139.6510   72.4280  222.8260 N   0  0  0  0  0  0  0  0  0  0  0  0
  140.0120   71.0930  223.1510 C   0  0  0  0  0  0  0  0  0  0  0  0
  139.1790   70.4910  224.2270 C   0  0  0  0  0  0  0  0  0  0  0  0
  139.6650   70.5560  225.6210 C   0  0  0  0  0  0  0  0  0  0  0  0
  141.0110   71.3190  225.6980 C   0  0  0  0  0  0  0  0  0  0  0  0
  141.0780   71.9270  227.0770 C   0  0  0  0  0  0  0  0  0  0  0  0
  140.5190   70.9420  228.0810 C   0  0  0  0  0  0  0  0  0  0  0  0
  140.7300   69.5100  227.6170 C   0  0  0  0  0  0  0  0  0  0  0  0
  139.9040   69.2720  226.3400 C   0  0  0  0  0  0  0  0  0  0  0  0
  141.5300   72.5500  221.2750 N   0  0  0  0  0  0  0  0  0  0  0  0
  142.4040   73.2170  220.5060 C   0  0  0  0  0  0  0  0  0  0  0  0
  143.3970   72.5610  219.7410 N   0  0  0  0  0  0  0  0  0  0  0  0
  143.1180   71.7020  218.6100 C   0  0  0  0  0  0  0  0  0  0  0  0
  143.5650   70.3100  218.9860 C   0  0  0  0  0  0  0  0  0  0  0  0
  144.8890   70.3480  219.5030 N   0  0  0  0  0  0  0  0  0  0  0  0
  145.5860   71.5880  219.4000 C   0  0  0  0  0  0  0  0  0  0  0  0
  144.8200   72.7310  220.0720 C   0  0  0  0  0  0  0  0  0  0  0  0
  142.3210   74.5570  220.4740 N   0  0  0  0  0  0  0  0  0  0  0  0
  140.5360   77.2710  222.2800 C   0  0  0  0  0  0  0  0  0  0  0  0
  143.1802   81.8002  223.2814 H   0  0  0  0  0  0  0  0  0  0  0  0
  142.3883   80.4085  225.1768 H   0  0  0  0  0  0  0  0  0  0  0  0
  141.1518   78.2880  224.7786 H   0  0  0  0  0  0  0  0  0  0  0  0
  142.7348   81.0720  220.9562 H   0  0  0  0  0  0  0  0  0  0  0  0
  140.3156   78.8528  219.9891 H   0  0  0  0  0  0  0  0  0  0  0  0
  141.9115   79.3998  219.4221 H   0  0  0  0  0  0  0  0  0  0  0  0
  141.5496   76.9119  219.1548 H   0  0  0  0  0  0  0  0  0  0  0  0
  142.9505   77.3093  220.2056 H   0  0  0  0  0  0  0  0  0  0  0  0
  138.7950   72.9420  223.0840 H   0  0  0  0  0  0  0  0  0  0  0  0
  139.9090   70.4758  222.2463 H   0  0  0  0  0  0  0  0  0  0  0  0
  141.0461   71.1226  223.5248 H   0  0  0  0  0  0  0  0  0  0  0  0
  138.2021   70.9959  224.2009 H   0  0  0  0  0  0  0  0  0  0  0  0
  139.1783   69.4159  223.9943 H   0  0  0  0  0  0  0  0  0  0  0  0
  138.8194   71.0543  226.1177 H   0  0  0  0  0  0  0  0  0  0  0  0
  141.8509   70.6249  225.5471 H   0  0  0  0  0  0  0  0  0  0  0  0
  141.0763   72.0918  224.9180 H   0  0  0  0  0  0  0  0  0  0  0  0
  142.1243   72.1552  227.3284 H   0  0  0  0  0  0  0  0  0  0  0  0
  140.4885   72.8554  227.1014 H   0  0  0  0  0  0  0  0  0  0  0  0
  141.0266   71.0856  229.0463 H   0  0  0  0  0  0  0  0  0  0  0  0
  139.4384   71.1212  228.1825 H   0  0  0  0  0  0  0  0  0  0  0  0
  141.7962   69.3446  227.4031 H   0  0  0  0  0  0  0  0  0  0  0  0
  140.4081   68.8123  228.4041 H   0  0  0  0  0  0  0  0  0  0  0  0
  140.4513   68.5842  225.6787 H   0  0  0  0  0  0  0  0  0  0  0  0
  138.9333   68.8382  226.6220 H   0  0  0  0  0  0  0  0  0  0  0  0
  142.0400   71.7054  218.3910 H   0  0  0  0  0  0  0  0  0  0  0  0
  143.6481   72.0534  217.7125 H   0  0  0  0  0  0  0  0  0  0  0  0
  142.8867   69.9036  219.7507 H   0  0  0  0  0  0  0  0  0  0  0  0
  143.5446   69.6700  218.0916 H   0  0  0  0  0  0  0  0  0  0  0  0
  145.4780   69.6230  219.0360 H   0  0  0  0  0  0  0  0  0  0  0  0
  146.5683   71.4851  219.8843 H   0  0  0  0  0  0  0  0  0  0  0  0
  145.6936   71.8310  218.3326 H   0  0  0  0  0  0  0  0  0  0  0  0
  144.9602   72.6878  221.1622 H   0  0  0  0  0  0  0  0  0  0  0  0
  145.1874   73.7056  219.7182 H   0  0  0  0  0  0  0  0  0  0  0  0
  139.5125   77.5130  221.9578 H   0  0  0  0  0  0  0  0  0  0  0  0
  140.4781   76.6058  223.1542 H   0  0  0  0  0  0  0  0  0  0  0  0
  1  2  2  0
  2  3  1  0
  3  4  2  0
  4  5  1  0
  5  6  2  0
  5  7  1  0
  7  8  1  0
  8  9  1  0
  9 10  1  0
 10 11  2  0
 11 12  1  0
 12 13  1  0
 13 14  1  0
 14 15  1  0
 15 16  1  0
 16 17  1  0
 17 18  1  0
 18 19  1  0
 19 20  1  0
 20 21  1  0
 12 22  2  0
 22 23  1  0
 23 24  1  0
 24 25  1  0
 25 26  1  0
 26 27  1  0
 27 28  1  0
 28 29  1  0
 23 30  2  0
  9 31  1  0
  6  1  1  0
 30 10  1  0
 31  4  1  0
 21 16  1  0
 29 24  1  0
  1 32  1  0
  2 33  1  0
  3 34  1  0
  6 35  1  0
  7 36  1  0
  7 37  1  0
  8 38  1  0
  8 39  1  0
 13 40  1  0
 14 41  1  0
 14 42  1  0
 15 43  1  0
 15 44  1  0
 16 45  1  0
 17 46  1  0
 17 47  1  0
 18 48  1  0
 18 49  1  0
 19 50  1  0
 19 51  1  0
 20 52  1  0
 20 53  1  0
 21 54  1  0
 21 55  1  0
 25 56  1  0
 25 57  1  0
 26 58  1  0
 26 59  1  0
 27 60  1  0
 28 61  1  0
 28 62  1  0
 29 63  1  0
 29 64  1  0
 31 65  1  0
 31 66  1  0
M  END
>  <smiles>  (49) 
c1ccc2c(c1)CCN(c1nc(NCCC3CCCCC3)nc(N3CCNCC3)n1)C2

>  <score_type>  (49) 
oracle

>  <origin>  (49) 
autodockgpu

>  <m_score__min__energy>  (49) 
-10.369999999999999

>  <m_primary>  (49) 
energy

>  <rmsd>  (49) 
5.18810403555067

>  <m_score__min__rmsd>  (49) 
5.18810403555067

>  <meeko>  (49) 
{"free_energy": -9.79, "intermolecular_energy": -11.58, "internal_energy": -0.97, "cluster_size": 42, "cluster_id": 1, "rank_in_cluster": 20}

>  <energy>  (49) 
-8.28

>  <cluster_rmsd>  (49) 
0.0

>  <cluster>  (49) 
4

$$$$

     RDKit          3D

 66 70  0  0  0  0  0  0  0  0999 V2000
  142.4490   80.7610  222.6430 C   0  0  0  0  0  0  0  0  0  0  0  0
  142.1900   80.0720  223.8210 C   0  0  0  0  0  0  0  0  0  0  0  0
  141.5520   78.8510  223.8220 C   0  0  0  0  0  0  0  0  0  0  0  0
  141.1800   78.3390  222.6000 C   0  0  0  0  0  0  0  0  0  0  0  0
  141.4170   78.9920  221.4010 C   0  0  0  0  0  0  0  0  0  0  0  0
  142.0580   80.2110  221.4420 C   0  0  0  0  0  0  0  0  0  0  0  0
  140.9700   78.3450  220.1420 C   0  0  0  0  0  0  0  0  0  0  0  0
  141.4990   76.9270  220.1560 C   0  0  0  0  0  0  0  0  0  0  0  0
  141.0910   76.2800  221.3630 N   0  0  0  0  0  0  0  0  0  0  0  0
  141.2840   74.8600  221.5080 C   0  0  0  0  0  0  0  0  0  0  0  0
  140.3330   74.1760  222.1710 N   0  0  0  0  0  0  0  0  0  0  0  0
  140.5020   72.8520  222.3120 C   0  0  0  0  0  0  0  0  0  0  0  0
  139.4940   72.0960  223.0220 N   0  0  0  0  0  0  0  0  0  0  0  0
  139.3860   70.7160  222.6970 C   0  0  0  0  0  0  0  0  0  0  0  0
  139.7250   69.8070  223.8240 C   0  0  0  0  0  0  0  0  0  0  0  0
  139.9300   70.3860  225.1680 C   0  0  0  0  0  0  0  0  0  0  0  0
  141.4190   70.7530  225.3850 C   0  0  0  0  0  0  0  0  0  0  0  0
  141.4380   71.8900  226.3760 C   0  0  0  0  0  0  0  0  0  0  0  0
  140.3850   71.6420  227.4360 C   0  0  0  0  0  0  0  0  0  0  0  0
  140.1560   70.1530  227.6390 C   0  0  0  0  0  0  0  0  0  0  0  0
  139.5560   69.5600  226.3510 C   0  0  0  0  0  0  0  0  0  0  0  0
  141.5970   72.2590  221.7970 N   0  0  0  0  0  0  0  0  0  0  0  0
  142.5450   72.9410  221.1350 C   0  0  0  0  0  0  0  0  0  0  0  0
  143.6930   72.3130  220.5940 N   0  0  0  0  0  0  0  0  0  0  0  0
  145.0530   72.7140  220.8840 C   0  0  0  0  0  0  0  0  0  0  0  0
  145.6540   73.2200  219.5950 C   0  0  0  0  0  0  0  0  0  0  0  0
  145.4270   72.2800  218.5520 N   0  0  0  0  0  0  0  0  0  0  0  0
  144.8790   71.0190  218.9290 C   0  0  0  0  0  0  0  0  0  0  0  0
  143.5500   71.1750  219.6740 C   0  0  0  0  0  0  0  0  0  0  0  0
  142.3850   74.2660  220.9890 N   0  0  0  0  0  0  0  0  0  0  0  0
  140.4760   77.0130  222.4740 C   0  0  0  0  0  0  0  0  0  0  0  0
  142.9604   81.7345  222.6688 H   0  0  0  0  0  0  0  0  0  0  0  0
  142.5028   80.5132  224.7789 H   0  0  0  0  0  0  0  0  0  0  0  0
  141.3490   78.3095  224.7577 H   0  0  0  0  0  0  0  0  0  0  0  0
  142.2598   80.7511  220.5052 H   0  0  0  0  0  0  0  0  0  0  0  0
  139.8712   78.3370  220.0918 H   0  0  0  0  0  0  0  0  0  0  0  0
  141.3459   78.8937  219.2658 H   0  0  0  0  0  0  0  0  0  0  0  0
  141.0984   76.3773  219.2915 H   0  0  0  0  0  0  0  0  0  0  0  0
  142.5975   76.9442  220.1016 H   0  0  0  0  0  0  0  0  0  0  0  0
  138.9320   72.6430  223.6910 H   0  0  0  0  0  0  0  0  0  0  0  0
  138.3505   70.5126  222.3865 H   0  0  0  0  0  0  0  0  0  0  0  0
  140.1121   70.5174  221.8949 H   0  0  0  0  0  0  0  0  0  0  0  0
  138.9067   69.0767  223.9079 H   0  0  0  0  0  0  0  0  0  0  0  0
  140.7126   69.4049  223.5539 H   0  0  0  0  0  0  0  0  0  0  0  0
  139.2398   71.2420  225.1387 H   0  0  0  0  0  0  0  0  0  0  0  0
  141.9690   69.8892  225.7867 H   0  0  0  0  0  0  0  0  0  0  0  0
  141.9004   71.0410  224.4388 H   0  0  0  0  0  0  0  0  0  0  0  0
  142.4294   71.9499  226.8488 H   0  0  0  0  0  0  0  0  0  0  0  0
  141.2258   72.8367  225.8576 H   0  0  0  0  0  0  0  0  0  0  0  0
  140.7182   72.0873  228.3851 H   0  0  0  0  0  0  0  0  0  0  0  0
  139.4409   72.0998  227.1058 H   0  0  0  0  0  0  0  0  0  0  0  0
  141.1134   69.6592  227.8616 H   0  0  0  0  0  0  0  0  0  0  0  0
  139.4647   69.9937  228.4797 H   0  0  0  0  0  0  0  0  0  0  0  0
  139.9368   68.5373  226.2125 H   0  0  0  0  0  0  0  0  0  0  0  0
  138.4599   69.5493  226.4432 H   0  0  0  0  0  0  0  0  0  0  0  0
  145.0572   73.5124  221.6407 H   0  0  0  0  0  0  0  0  0  0  0  0
  145.6336   71.8676  221.2796 H   0  0  0  0  0  0  0  0  0  0  0  0
  145.1885   74.1802  219.3280 H   0  0  0  0  0  0  0  0  0  0  0  0
  146.7372   73.3560  219.7299 H   0  0  0  0  0  0  0  0  0  0  0  0
  146.3180   72.0890  218.0410 H   0  0  0  0  0  0  0  0  0  0  0  0
  144.7106   70.4189  218.0226 H   0  0  0  0  0  0  0  0  0  0  0  0
  145.5929   70.5246  219.6042 H   0  0  0  0  0  0  0  0  0  0  0  0
  142.7381   71.3701  218.9579 H   0  0  0  0  0  0  0  0  0  0  0  0
  143.3046   70.2565  220.2273 H   0  0  0  0  0  0  0  0  0  0  0  0
  139.4075   77.1751  222.2688 H   0  0  0  0  0  0  0  0  0  0  0  0
  140.5679   76.4401  223.4085 H   0  0  0  0  0  0  0  0  0  0  0  0
  1  2  2  0
  2  3  1  0
  3  4  2  0
  4  5  1  0
  5  6  2  0
  5  7  1  0
  7  8  1  0
  8  9  1  0
  9 10  1  0
 10 11  2  0
 11 12  1  0
 12 13  1  0
 13 14  1  0
 14 15  1  0
 15 16  1  0
 16 17  1  0
 17 18  1  0
 18 19  1  0
 19 20  1  0
 20 21  1  0
 12 22  2  0
 22 23  1  0
 23 24  1  0
 24 25  1  0
 25 26  1  0
 26 27  1  0
 27 28  1  0
 28 29  1  0
 23 30  2  0
  9 31  1  0
  6  1  1  0
 30 10  1  0
 31  4  1  0
 21 16  1  0
 29 24  1  0
  1 32  1  0
  2 33  1  0
  3 34  1  0
  6 35  1  0
  7 36  1  0
  7 37  1  0
  8 38  1  0
  8 39  1  0
 13 40  1  0
 14 41  1  0
 14 42  1  0
 15 43  1  0
 15 44  1  0
 16 45  1  0
 17 46  1  0
 17 47  1  0
 18 48  1  0
 18 49  1  0
 19 50  1  0
 19 51  1  0
 20 52  1  0
 20 53  1  0
 21 54  1  0
 21 55  1  0
 25 56  1  0
 25 57  1  0
 26 58  1  0
 26 59  1  0
 27 60  1  0
 28 61  1  0
 28 62  1  0
 29 63  1  0
 29 64  1  0
 31 65  1  0
 31 66  1  0
M  END
>  <smiles>  (50) 
c1ccc2c(c1)CCN(c1nc(NCCC3CCCCC3)nc(N3CCNCC3)n1)C2

>  <score_type>  (50) 
oracle

>  <origin>  (50) 
autodockgpu

>  <m_score__min__energy>  (50) 
-10.369999999999999

>  <m_primary>  (50) 
energy

>  <rmsd>  (50) 
4.937255192429912

>  <m_score__min__rmsd>  (50) 
4.937255192429912

>  <meeko>  (50) 
{"free_energy": -9.7, "intermolecular_energy": -11.49, "internal_energy": -1.21, "cluster_size": 42, "cluster_id": 1, "rank_in_cluster": 26}

>  <energy>  (50) 
-7.57

>  <cluster_rmsd>  (50) 
0.0

>  <cluster>  (50) 
5

$$$$
