
     RDKit          3D

 43 45  0  0  0  0  0  0  0  0999 V2000
  139.9000   73.8110  222.3380 O   0  0  0  0  0  0  0  0  0  0  0  0
  140.4190   72.6690  222.2300 C   0  0  0  0  0  0  0  0  0  0  0  0
  141.1080   72.2760  221.0500 N   0  0  0  0  0  0  0  0  0  0  0  0
  141.2680   73.1370  219.8950 C   0  0  0  0  0  0  0  0  0  0  0  0
  142.4840   73.9590  220.1210 C   0  0  0  0  0  0  0  0  0  0  0  0
  142.3070   75.2020  220.3590 O   0  0  0  0  0  0  0  0  0  0  0  0
  143.7950   73.4090  220.0760 N   0  0  0  0  0  0  0  0  0  0  0  0
  144.8360   73.7590  221.0180 C   0  0  0  0  0  0  0  0  0  0  0  0
  146.0560   72.9600  220.6040 C   0  0  2  0  0  0  0  0  0  0  0  0
  146.9780   73.7600  219.9010 O   0  0  0  0  0  0  0  0  0  0  0  0
  145.4820   71.8750  219.7390 C   0  0  0  0  0  0  0  0  0  0  0  0
  144.2570   72.4480  219.1090 C   0  0  2  0  0  0  0  0  0  0  0  0
  144.5270   73.0450  217.7450 C   0  0  0  0  0  0  0  0  0  0  0  0
  145.9200   73.2440  217.6010 O   0  0  0  0  0  0  0  0  0  0  0  0
  140.3090   71.7240  223.3510 C   0  0  0  0  0  0  0  0  0  0  0  0
  139.7500   70.4800  223.1510 C   0  0  0  0  0  0  0  0  0  0  0  0
  139.6230   69.5520  224.1740 C   0  0  0  0  0  0  0  0  0  0  0  0
  140.0820   69.9320  225.4110 C   0  0  0  0  0  0  0  0  0  0  0  0
  139.9780   69.0400  226.4620 C   0  0  0  0  0  0  0  0  0  0  0  0
  140.4300   69.3790  227.7360 C   0  0  0  0  0  0  0  0  0  0  0  0
  140.3380   68.5240  228.7830 F   0  0  0  0  0  0  0  0  0  0  0  0
  140.9880   70.6510  227.8900 C   0  0  0  0  0  0  0  0  0  0  0  0
  141.0830   71.5290  226.8150 C   0  0  0  0  0  0  0  0  0  0  0  0
  140.6300   71.1770  225.5610 C   0  0  0  0  0  0  0  0  0  0  0  0
  140.7540   72.0780  224.5700 N   0  0  0  0  0  0  0  0  0  0  0  0
  141.5150   71.2920  221.0460 H   0  0  0  0  0  0  0  0  0  0  0  0
  141.3884   72.5290  218.9862 H   0  0  0  0  0  0  0  0  0  0  0  0
  140.3841   73.7781  219.7622 H   0  0  0  0  0  0  0  0  0  0  0  0
  145.0498   74.8369  220.9691 H   0  0  0  0  0  0  0  0  0  0  0  0
  144.5373   73.5337  222.0524 H   0  0  0  0  0  0  0  0  0  0  0  0
  146.6235   72.5631  221.4587 H   0  0  0  0  0  0  0  0  0  0  0  0
  146.4250   74.3870  219.3590 H   0  0  0  0  0  0  0  0  0  0  0  0
  146.2066   71.5810  218.9653 H   0  0  0  0  0  0  0  0  0  0  0  0
  145.2465   70.9761  220.3276 H   0  0  0  0  0  0  0  0  0  0  0  0
  143.4941   71.6857  218.8924 H   0  0  0  0  0  0  0  0  0  0  0  0
  144.1691   72.3583  216.9637 H   0  0  0  0  0  0  0  0  0  0  0  0
  144.0006   74.0059  217.6472 H   0  0  0  0  0  0  0  0  0  0  0  0
  146.1690   74.1570  217.9300 H   0  0  0  0  0  0  0  0  0  0  0  0
  139.3923   70.2140  222.1454 H   0  0  0  0  0  0  0  0  0  0  0  0
  139.1769   68.5612  224.0029 H   0  0  0  0  0  0  0  0  0  0  0  0
  139.5324   68.0491  226.2904 H   0  0  0  0  0  0  0  0  0  0  0  0
  141.3583   70.9632  228.8776 H   0  0  0  0  0  0  0  0  0  0  0  0
  141.5280   72.5232  226.9683 H   0  0  0  0  0  0  0  0  0  0  0  0
  1  2  2  0
  2  3  1  0
  3  4  1  0
  4  5  1  0
  5  6  2  0
  5  7  1  0
  7  8  1  0
  8  9  1  0
  9 10  1  0
  9 11  1  0
 11 12  1  0
 12 13  1  0
 13 14  1  0
  2 15  1  0
 15 16  2  0
 16 17  1  0
 17 18  2  0
 18 19  1  0
 19 20  2  0
 20 21  1  0
 20 22  1  0
 22 23  2  0
 23 24  1  0
 24 25  2  0
 12  7  1  0
 25 15  1  0
 24 18  1  0
  3 26  1  0
  4 27  1  0
  4 28  1  0
  8 29  1  0
  8 30  1  0
  9 31  1  1
 10 32  1  0
 11 33  1  0
 11 34  1  0
 12 35  1  6
 13 36  1  0
 13 37  1  0
 14 38  1  0
 16 39  1  0
 17 40  1  0
 19 41  1  0
 22 42  1  0
 23 43  1  0
M  END
>  <smiles>  (1) 
O=C(NCC(=O)N1C[C@H](O)C[C@@H]1CO)c1ccc2cc(F)ccc2n1

>  <score_type>  (1) 
oracle

>  <origin>  (1) 
autodockgpu

>  <m_score__min__energy>  (1) 
-7.5599999999999996

>  <m_primary>  (1) 
energy

>  <rmsd>  (1) 
4.25682853748839

>  <m_score__min__rmsd>  (1) 
4.25682853748839

>  <meeko>  (1) 
{"free_energy": -7.56, "intermolecular_energy": -9.64, "internal_energy": -2.07, "cluster_size": 13, "cluster_id": 1, "rank_in_cluster": 1}

>  <energy>  (1) 
-7.56

>  <cluster_rmsd>  (1) 
0.0

>  <cluster>  (1) 
1

$$$$

     RDKit          3D

 43 45  0  0  0  0  0  0  0  0999 V2000
  137.7000   70.3200  221.1800 O   0  0  0  0  0  0  0  0  0  0  0  0
  137.9190   71.1880  222.0660 C   0  0  0  0  0  0  0  0  0  0  0  0
  137.6250   72.5610  221.8490 N   0  0  0  0  0  0  0  0  0  0  0  0
  137.0600   73.0700  220.6160 C   0  0  0  0  0  0  0  0  0  0  0  0
  138.1850   73.5800  219.7900 C   0  0  0  0  0  0  0  0  0  0  0  0
  137.8800   74.2780  218.7650 O   0  0  0  0  0  0  0  0  0  0  0  0
  139.5450   73.3140  220.1070 N   0  0  0  0  0  0  0  0  0  0  0  0
  140.1160   71.9850  220.1110 C   0  0  0  0  0  0  0  0  0  0  0  0
  141.5690   72.1570  220.5070 C   0  0  2  0  0  0  0  0  0  0  0  0
  141.7750   71.8140  221.8580 O   0  0  0  0  0  0  0  0  0  0  0  0
  141.8260   73.6140  220.2540 C   0  0  0  0  0  0  0  0  0  0  0  0
  140.5230   74.3100  220.4610 C   0  0  2  0  0  0  0  0  0  0  0  0
  140.3620   74.8420  221.8680 C   0  0  0  0  0  0  0  0  0  0  0  0
  139.9270   73.7900  222.7070 O   0  0  0  0  0  0  0  0  0  0  0  0
  138.4920   70.7660  223.3540 C   0  0  0  0  0  0  0  0  0  0  0  0
  138.0570   69.6030  223.9530 C   0  0  0  0  0  0  0  0  0  0  0  0
  138.5660   69.1610  225.1660 C   0  0  0  0  0  0  0  0  0  0  0  0
  139.5320   69.9410  225.7510 C   0  0  0  0  0  0  0  0  0  0  0  0
  140.0680   69.5410  226.9600 C   0  0  0  0  0  0  0  0  0  0  0  0
  141.0510   70.2980  227.5930 C   0  0  0  0  0  0  0  0  0  0  0  0
  141.5930   69.9290  228.7790 F   0  0  0  0  0  0  0  0  0  0  0  0
  141.4600   71.4690  226.9470 C   0  0  0  0  0  0  0  0  0  0  0  0
  140.9040   71.8490  225.7300 C   0  0  0  0  0  0  0  0  0  0  0  0
  139.9320   71.0870  225.1180 C   0  0  0  0  0  0  0  0  0  0  0  0
  139.4400   71.5170  223.9430 N   0  0  0  0  0  0  0  0  0  0  0  0
  137.8430   73.2230  222.6540 H   0  0  0  0  0  0  0  0  0  0  0  0
  136.5361   72.2640  220.0814 H   0  0  0  0  0  0  0  0  0  0  0  0
  136.3348   73.8710  220.8222 H   0  0  0  0  0  0  0  0  0  0  0  0
  139.5941   71.3468  220.8392 H   0  0  0  0  0  0  0  0  0  0  0  0
  140.0205   71.5020  219.1274 H   0  0  0  0  0  0  0  0  0  0  0  0
  142.2515   71.5036  219.9438 H   0  0  0  0  0  0  0  0  0  0  0  0
  140.8780   71.8820  222.2880 H   0  0  0  0  0  0  0  0  0  0  0  0
  142.5785   73.9963  220.9594 H   0  0  0  0  0  0  0  0  0  0  0  0
  142.2123   73.7817  219.2378 H   0  0  0  0  0  0  0  0  0  0  0  0
  140.4240   75.2175  219.8473 H   0  0  0  0  0  0  0  0  0  0  0  0
  141.3264   75.2283  222.2296 H   0  0  0  0  0  0  0  0  0  0  0  0
  139.6228   75.6565  221.8768 H   0  0  0  0  0  0  0  0  0  0  0  0
  139.9560   72.9220  222.2070 H   0  0  0  0  0  0  0  0  0  0  0  0
  137.2806   69.0055  223.4528 H   0  0  0  0  0  0  0  0  0  0  0  0
  138.2126   68.2312  225.6356 H   0  0  0  0  0  0  0  0  0  0  0  0
  139.7134   68.6115  227.4293 H   0  0  0  0  0  0  0  0  0  0  0  0
  142.2339   72.0997  227.4088 H   0  0  0  0  0  0  0  0  0  0  0  0
  141.2467   72.7757  225.2465 H   0  0  0  0  0  0  0  0  0  0  0  0
  1  2  2  0
  2  3  1  0
  3  4  1  0
  4  5  1  0
  5  6  2  0
  5  7  1  0
  7  8  1  0
  8  9  1  0
  9 10  1  0
  9 11  1  0
 11 12  1  0
 12 13  1  0
 13 14  1  0
  2 15  1  0
 15 16  2  0
 16 17  1  0
 17 18  2  0
 18 19  1  0
 19 20  2  0
 20 21  1  0
 20 22  1  0
 22 23  2  0
 23 24  1  0
 24 25  2  0
 12  7  1  0
 25 15  1  0
 24 18  1  0
  3 26  1  0
  4 27  1  0
  4 28  1  0
  8 29  1  0
  8 30  1  0
  9 31  1  6
 10 32  1  0
 11 33  1  0
 11 34  1  0
 12 35  1  6
 13 36  1  0
 13 37  1  0
 14 38  1  0
 16 39  1  0
 17 40  1  0
 19 41  1  0
 22 42  1  0
 23 43  1  0
M  END
>  <smiles>  (2) 
O=C(NCC(=O)N1C[C@H](O)C[C@@H]1CO)c1ccc2cc(F)ccc2n1

>  <score_type>  (2) 
oracle

>  <origin>  (2) 
autodockgpu

>  <m_score__min__energy>  (2) 
-7.5599999999999996

>  <m_primary>  (2) 
energy

>  <rmsd>  (2) 
2.5710416081757317

>  <m_score__min__rmsd>  (2) 
2.5710416081757317

>  <meeko>  (2) 
{"free_energy": -4.05, "intermolecular_energy": -6.14, "internal_energy": -4.66, "cluster_size": 8, "cluster_id": 5, "rank_in_cluster": 8}

>  <energy>  (2) 
-7.22

>  <cluster_rmsd>  (2) 
0.69

>  <cluster>  (2) 
1

$$$$

     RDKit          3D

 43 45  0  0  0  0  0  0  0  0999 V2000
  140.0670   71.7200  220.5160 O   0  0  0  0  0  0  0  0  0  0  0  0
  140.4460   72.2420  221.5980 C   0  0  0  0  0  0  0  0  0  0  0  0
  141.1160   73.4950  221.6230 N   0  0  0  0  0  0  0  0  0  0  0  0
  141.4130   74.2650  220.4320 C   0  0  0  0  0  0  0  0  0  0  0  0
  142.2070   73.3940  219.5280 C   0  0  0  0  0  0  0  0  0  0  0  0
  141.6010   72.9050  218.5150 O   0  0  0  0  0  0  0  0  0  0  0  0
  143.5790   73.1030  219.7610 N   0  0  0  0  0  0  0  0  0  0  0  0
  144.3400   73.6750  220.8510 C   0  0  0  0  0  0  0  0  0  0  0  0
  145.7410   73.1110  220.7220 C   0  0  2  0  0  0  0  0  0  0  0  0
  146.6200   74.0480  220.1460 O   0  0  0  0  0  0  0  0  0  0  0  0
  145.5500   71.9090  219.8420 C   0  0  0  0  0  0  0  0  0  0  0  0
  144.3850   72.2170  218.9620 C   0  0  2  0  0  0  0  0  0  0  0  0
  144.7990   72.8100  217.6330 C   0  0  0  0  0  0  0  0  0  0  0  0
  146.1580   73.1960  217.7090 O   0  0  0  0  0  0  0  0  0  0  0  0
  140.1880   71.5340  222.8610 C   0  0  0  0  0  0  0  0  0  0  0  0
  139.4190   70.3910  222.8660 C   0  0  0  0  0  0  0  0  0  0  0  0
  139.1470   69.6860  224.0290 C   0  0  0  0  0  0  0  0  0  0  0  0
  139.6820   70.1840  225.1910 C   0  0  0  0  0  0  0  0  0  0  0  0
  139.4390   69.5160  226.3760 C   0  0  0  0  0  0  0  0  0  0  0  0
  139.9600   69.9810  227.5810 C   0  0  0  0  0  0  0  0  0  0  0  0
  139.7360   69.3450  228.7570 F   0  0  0  0  0  0  0  0  0  0  0  0
  140.7340   71.1450  227.5270 C   0  0  0  0  0  0  0  0  0  0  0  0
  140.9650   71.7980  226.3210 C   0  0  0  0  0  0  0  0  0  0  0  0
  140.4400   71.3230  225.1370 C   0  0  0  0  0  0  0  0  0  0  0  0
  140.7050   72.0070  224.0100 N   0  0  0  0  0  0  0  0  0  0  0  0
  141.4000   73.8590  222.5830 H   0  0  0  0  0  0  0  0  0  0  0  0
  140.4785   74.5681  219.9373 H   0  0  0  0  0  0  0  0  0  0  0  0
  141.9751   75.1754  220.6876 H   0  0  0  0  0  0  0  0  0  0  0  0
  144.3602   74.7718  220.7690 H   0  0  0  0  0  0  0  0  0  0  0  0
  143.8946   73.4295  221.8264 H   0  0  0  0  0  0  0  0  0  0  0  0
  146.1959   72.8583  221.6911 H   0  0  0  0  0  0  0  0  0  0  0  0
  146.0950   74.4960  219.4270 H   0  0  0  0  0  0  0  0  0  0  0  0
  146.4505   71.7341  219.2349 H   0  0  0  0  0  0  0  0  0  0  0  0
  145.3732   71.0010  220.4372 H   0  0  0  0  0  0  0  0  0  0  0  0
  143.8288   71.3164  218.6625 H   0  0  0  0  0  0  0  0  0  0  0  0
  144.6716   72.0604  216.8381 H   0  0  0  0  0  0  0  0  0  0  0  0
  144.1742   73.6858  217.4039 H   0  0  0  0  0  0  0  0  0  0  0  0
  146.2250   74.1450  218.0230 H   0  0  0  0  0  0  0  0  0  0  0  0
  139.0063   70.0247  221.9144 H   0  0  0  0  0  0  0  0  0  0  0  0
  138.5331   68.7733  224.0207 H   0  0  0  0  0  0  0  0  0  0  0  0
  138.8249   68.6034  226.3675 H   0  0  0  0  0  0  0  0  0  0  0  0
  141.1669   71.5504  228.4534 H   0  0  0  0  0  0  0  0  0  0  0  0
  141.5783   72.7111  226.3110 H   0  0  0  0  0  0  0  0  0  0  0  0
  1  2  2  0
  2  3  1  0
  3  4  1  0
  4  5  1  0
  5  6  2  0
  5  7  1  0
  7  8  1  0
  8  9  1  0
  9 10  1  0
  9 11  1  0
 11 12  1  0
 12 13  1  0
 13 14  1  0
  2 15  1  0
 15 16  2  0
 16 17  1  0
 17 18  2  0
 18 19  1  0
 19 20  2  0
 20 21  1  0
 20 22  1  0
 22 23  2  0
 23 24  1  0
 24 25  2  0
 12  7  1  0
 25 15  1  0
 24 18  1  0
  3 26  1  0
  4 27  1  0
  4 28  1  0
  8 29  1  0
  8 30  1  0
  9 31  1  1
 10 32  1  0
 11 33  1  0
 11 34  1  0
 12 35  1  6
 13 36  1  0
 13 37  1  0
 14 38  1  0
 16 39  1  0
 17 40  1  0
 19 41  1  0
 22 42  1  0
 23 43  1  0
M  END
>  <smiles>  (3) 
O=C(NCC(=O)N1C[C@H](O)C[C@@H]1CO)c1ccc2cc(F)ccc2n1

>  <score_type>  (3) 
oracle

>  <origin>  (3) 
autodockgpu

>  <m_score__min__energy>  (3) 
-7.5599999999999996

>  <m_primary>  (3) 
energy

>  <rmsd>  (3) 
4.228014700868991

>  <m_score__min__rmsd>  (3) 
4.228014700868991

>  <meeko>  (3) 
{"free_energy": -6.46, "intermolecular_energy": -8.55, "internal_energy": -2.46, "cluster_size": 13, "cluster_id": 1, "rank_in_cluster": 7}

>  <energy>  (3) 
-6.95

>  <cluster_rmsd>  (3) 
1.43

>  <cluster>  (3) 
1

$$$$

     RDKit          3D

 43 45  0  0  0  0  0  0  0  0999 V2000
  141.2020   72.1600  221.5450 O   0  0  0  0  0  0  0  0  0  0  0  0
  140.3290   72.4160  222.4170 C   0  0  0  0  0  0  0  0  0  0  0  0
  139.4830   73.5520  222.3080 N   0  0  0  0  0  0  0  0  0  0  0  0
  139.5490   74.4940  221.2090 C   0  0  0  0  0  0  0  0  0  0  0  0
  138.1680   74.9820  220.9600 C   0  0  0  0  0  0  0  0  0  0  0  0
  138.0060   75.7820  219.9770 O   0  0  0  0  0  0  0  0  0  0  0  0
  137.0640   74.5910  221.7660 N   0  0  0  0  0  0  0  0  0  0  0  0
  136.6640   75.2980  222.9630 C   0  0  0  0  0  0  0  0  0  0  0  0
  135.4650   74.5480  223.5080 C   0  0  2  0  0  0  0  0  0  0  0  0
  135.8250   73.7280  224.5950 O   0  0  0  0  0  0  0  0  0  0  0  0
  134.9970   73.7420  222.3300 C   0  0  0  0  0  0  0  0  0  0  0  0
  136.2090   73.4620  221.5070 C   0  0  2  0  0  0  0  0  0  0  0  0
  136.8470   72.1320  221.8430 C   0  0  0  0  0  0  0  0  0  0  0  0
  137.2540   72.1490  223.1980 O   0  0  0  0  0  0  0  0  0  0  0  0
  140.1870   71.5150  223.5700 C   0  0  0  0  0  0  0  0  0  0  0  0
  139.5490   70.3030  223.4240 C   0  0  0  0  0  0  0  0  0  0  0  0
  139.3900   69.4180  224.4800 C   0  0  0  0  0  0  0  0  0  0  0  0
  139.9000   69.8070  225.6930 C   0  0  0  0  0  0  0  0  0  0  0  0
  139.7650   68.9570  226.7750 C   0  0  0  0  0  0  0  0  0  0  0  0
  140.2670   69.3070  228.0270 C   0  0  0  0  0  0  0  0  0  0  0  0
  140.1480   68.4930  229.1040 F   0  0  0  0  0  0  0  0  0  0  0  0
  140.9060   70.5470  228.1270 C   0  0  0  0  0  0  0  0  0  0  0  0
  141.0290   71.3830  227.0220 C   0  0  0  0  0  0  0  0  0  0  0  0
  140.5260   71.0200  225.7910 C   0  0  0  0  0  0  0  0  0  0  0  0
  140.6810   71.8790  224.7680 N   0  0  0  0  0  0  0  0  0  0  0  0
  138.7740   73.6890  223.0910 H   0  0  0  0  0  0  0  0  0  0  0  0
  140.2036   75.3370  221.4750 H   0  0  0  0  0  0  0  0  0  0  0  0
  139.9597   74.0132  220.3089 H   0  0  0  0  0  0  0  0  0  0  0  0
  137.4819   75.2980  223.6986 H   0  0  0  0  0  0  0  0  0  0  0  0
  136.4194   76.3488  222.7484 H   0  0  0  0  0  0  0  0  0  0  0  0
  134.6826   75.2121  223.9039 H   0  0  0  0  0  0  0  0  0  0  0  0
  136.6190   73.2110  224.2850 H   0  0  0  0  0  0  0  0  0  0  0  0
  134.5412   72.8002  222.6696 H   0  0  0  0  0  0  0  0  0  0  0  0
  134.2365   74.2855  221.7501 H   0  0  0  0  0  0  0  0  0  0  0  0
  135.9810   73.3578  220.4359 H   0  0  0  0  0  0  0  0  0  0  0  0
  136.1186   71.3228  221.6862 H   0  0  0  0  0  0  0  0  0  0  0  0
  137.7186   71.9618  221.1939 H   0  0  0  0  0  0  0  0  0  0  0  0
  137.5630   73.0690  223.4470 H   0  0  0  0  0  0  0  0  0  0  0  0
  139.1519   70.0275  222.4358 H   0  0  0  0  0  0  0  0  0  0  0  0
  138.8801   68.4518  224.3514 H   0  0  0  0  0  0  0  0  0  0  0  0
  139.2544   67.9913  226.6458 H   0  0  0  0  0  0  0  0  0  0  0  0
  141.3182   70.8665  229.0955 H   0  0  0  0  0  0  0  0  0  0  0  0
  141.5373   72.3522  227.1326 H   0  0  0  0  0  0  0  0  0  0  0  0
  1  2  2  0
  2  3  1  0
  3  4  1  0
  4  5  1  0
  5  6  2  0
  5  7  1  0
  7  8  1  0
  8  9  1  0
  9 10  1  0
  9 11  1  0
 11 12  1  0
 12 13  1  0
 13 14  1  0
  2 15  1  0
 15 16  2  0
 16 17  1  0
 17 18  2  0
 18 19  1  0
 19 20  2  0
 20 21  1  0
 20 22  1  0
 22 23  2  0
 23 24  1  0
 24 25  2  0
 12  7  1  0
 25 15  1  0
 24 18  1  0
  3 26  1  0
  4 27  1  0
  4 28  1  0
  8 29  1  0
  8 30  1  0
  9 31  1  1
 10 32  1  0
 11 33  1  0
 11 34  1  0
 12 35  1  6
 13 36  1  0
 13 37  1  0
 14 38  1  0
 16 39  1  0
 17 40  1  0
 19 41  1  0
 22 42  1  0
 23 43  1  0
M  END
>  <smiles>  (4) 
O=C(NCC(=O)N1C[C@H](O)C[C@@H]1CO)c1ccc2cc(F)ccc2n1

>  <score_type>  (4) 
oracle

>  <origin>  (4) 
autodockgpu

>  <m_score__min__energy>  (4) 
-7.5599999999999996

>  <m_primary>  (4) 
energy

>  <rmsd>  (4) 
4.10170187685573

>  <m_score__min__rmsd>  (4) 
4.10170187685573

>  <meeko>  (4) 
{"free_energy": -5.98, "intermolecular_energy": -8.07, "internal_energy": -3.02, "cluster_size": 8, "cluster_id": 5, "rank_in_cluster": 3}

>  <energy>  (4) 
-6.72

>  <cluster_rmsd>  (4) 
1.42

>  <cluster>  (4) 
1

$$$$

     RDKit          3D

 43 45  0  0  0  0  0  0  0  0999 V2000
  139.4310   71.6280  220.7120 O   0  0  0  0  0  0  0  0  0  0  0  0
  140.0980   72.0700  221.6850 C   0  0  0  0  0  0  0  0  0  0  0  0
  140.9070   73.2320  221.5640 N   0  0  0  0  0  0  0  0  0  0  0  0
  141.0310   73.9930  220.3370 C   0  0  0  0  0  0  0  0  0  0  0  0
  142.4110   74.5400  220.2920 C   0  0  0  0  0  0  0  0  0  0  0  0
  142.5380   75.8040  220.4260 O   0  0  0  0  0  0  0  0  0  0  0  0
  143.5530   73.7120  220.1080 N   0  0  0  0  0  0  0  0  0  0  0  0
  144.7300   73.7830  220.9460 C   0  0  0  0  0  0  0  0  0  0  0  0
  145.6930   72.7470  220.4000 C   0  0  2  0  0  0  0  0  0  0  0  0
  146.7020   73.3470  219.6220 O   0  0  0  0  0  0  0  0  0  0  0  0
  144.8090   71.8540  219.5780 C   0  0  0  0  0  0  0  0  0  0  0  0
  143.6930   72.7100  219.0830 C   0  0  2  0  0  0  0  0  0  0  0  0
  143.9630   73.2840  217.7100 C   0  0  0  0  0  0  0  0  0  0  0  0
  145.3600   73.3130  217.4930 O   0  0  0  0  0  0  0  0  0  0  0  0
  140.0350   71.3640  222.9740 C   0  0  0  0  0  0  0  0  0  0  0  0
  139.4180   70.1340  223.0560 C   0  0  0  0  0  0  0  0  0  0  0  0
  139.3330   69.4280  224.2470 C   0  0  0  0  0  0  0  0  0  0  0  0
  139.8960   70.0130  225.3530 C   0  0  0  0  0  0  0  0  0  0  0  0
  139.8360   69.3450  226.5620 C   0  0  0  0  0  0  0  0  0  0  0  0
  140.3930   69.8980  227.7130 C   0  0  0  0  0  0  0  0  0  0  0  0
  140.3470   69.2650  228.9110 F   0  0  0  0  0  0  0  0  0  0  0  0
  141.0080   71.1460  227.5810 C   0  0  0  0  0  0  0  0  0  0  0  0
  141.0550   71.7960  226.3520 C   0  0  0  0  0  0  0  0  0  0  0  0
  140.4980   71.2350  225.2230 C   0  0  0  0  0  0  0  0  0  0  0  0
  140.5820   71.9210  224.0690 N   0  0  0  0  0  0  0  0  0  0  0  0
  141.4350   73.5330  222.4380 H   0  0  0  0  0  0  0  0  0  0  0  0
  140.8572   73.3391  219.4697 H   0  0  0  0  0  0  0  0  0  0  0  0
  140.2898   74.8052  220.3068 H   0  0  0  0  0  0  0  0  0  0  0  0
  145.1773   74.7865  220.8929 H   0  0  0  0  0  0  0  0  0  0  0  0
  144.4862   73.5908  222.0013 H   0  0  0  0  0  0  0  0  0  0  0  0
  146.2327   72.1996  221.1868 H   0  0  0  0  0  0  0  0  0  0  0  0
  146.2910   74.1740  219.2480 H   0  0  0  0  0  0  0  0  0  0  0  0
  145.3725   71.4355  218.7310 H   0  0  0  0  0  0  0  0  0  0  0  0
  144.4312   71.0090  220.1723 H   0  0  0  0  0  0  0  0  0  0  0  0
  142.7605   72.1468  218.9303 H   0  0  0  0  0  0  0  0  0  0  0  0
  143.4835   72.6547  216.9457 H   0  0  0  0  0  0  0  0  0  0  0  0
  143.5542   74.3031  217.6448 H   0  0  0  0  0  0  0  0  0  0  0  0
  145.7430   74.1640  217.8610 H   0  0  0  0  0  0  0  0  0  0  0  0
  138.9785   69.6979  222.1468 H   0  0  0  0  0  0  0  0  0  0  0  0
  138.8384   68.4470  224.3020 H   0  0  0  0  0  0  0  0  0  0  0  0
  139.3418   68.3637  226.6158 H   0  0  0  0  0  0  0  0  0  0  0  0
  141.4620   71.6218  228.4628 H   0  0  0  0  0  0  0  0  0  0  0  0
  141.5466   72.7774  226.2798 H   0  0  0  0  0  0  0  0  0  0  0  0
  1  2  2  0
  2  3  1  0
  3  4  1  0
  4  5  1  0
  5  6  2  0
  5  7  1  0
  7  8  1  0
  8  9  1  0
  9 10  1  0
  9 11  1  0
 11 12  1  0
 12 13  1  0
 13 14  1  0
  2 15  1  0
 15 16  2  0
 16 17  1  0
 17 18  2  0
 18 19  1  0
 19 20  2  0
 20 21  1  0
 20 22  1  0
 22 23  2  0
 23 24  1  0
 24 25  2  0
 12  7  1  0
 25 15  1  0
 24 18  1  0
  3 26  1  0
  4 27  1  0
  4 28  1  0
  8 29  1  0
  8 30  1  0
  9 31  1  1
 10 32  1  0
 11 33  1  0
 11 34  1  0
 12 35  1  6
 13 36  1  0
 13 37  1  0
 14 38  1  0
 16 39  1  0
 17 40  1  0
 19 41  1  0
 22 42  1  0
 23 43  1  0
M  END
>  <smiles>  (5) 
O=C(NCC(=O)N1C[C@H](O)C[C@@H]1CO)c1ccc2cc(F)ccc2n1

>  <score_type>  (5) 
oracle

>  <origin>  (5) 
autodockgpu

>  <m_score__min__energy>  (5) 
-7.5599999999999996

>  <m_primary>  (5) 
energy

>  <rmsd>  (5) 
3.983001684142321

>  <m_score__min__rmsd>  (5) 
3.983001684142321

>  <meeko>  (5) 
{"free_energy": -6.63, "intermolecular_energy": -8.72, "internal_energy": -2.43, "cluster_size": 13, "cluster_id": 1, "rank_in_cluster": 5}

>  <energy>  (5) 
-6.63

>  <cluster_rmsd>  (5) 
0.92

>  <cluster>  (5) 
1

$$$$

     RDKit          3D

 43 45  0  0  0  0  0  0  0  0999 V2000
  139.3040   71.1060  221.1280 O   0  0  0  0  0  0  0  0  0  0  0  0
  139.4460   71.6820  222.2400 C   0  0  0  0  0  0  0  0  0  0  0  0
  139.4850   73.0990  222.3410 N   0  0  0  0  0  0  0  0  0  0  0  0
  139.3680   73.9840  221.2000 C   0  0  0  0  0  0  0  0  0  0  0  0
  140.2290   75.1650  221.4640 C   0  0  0  0  0  0  0  0  0  0  0  0
  140.1000   75.7330  222.6010 O   0  0  0  0  0  0  0  0  0  0  0  0
  141.1590   75.6590  220.5090 N   0  0  0  0  0  0  0  0  0  0  0  0
  142.4470   75.0490  220.2640 C   0  0  0  0  0  0  0  0  0  0  0  0
  143.1090   75.8900  219.1910 C   0  0  2  0  0  0  0  0  0  0  0  0
  144.0740   76.7570  219.7410 O   0  0  0  0  0  0  0  0  0  0  0  0
  141.9600   76.6430  218.5850 C   0  0  0  0  0  0  0  0  0  0  0  0
  140.9520   76.8120  219.6710 C   0  0  2  0  0  0  0  0  0  0  0  0
  141.0990   78.1270  220.4040 C   0  0  0  0  0  0  0  0  0  0  0  0
  141.8710   77.9160  221.5700 O   0  0  0  0  0  0  0  0  0  0  0  0
  139.5740   70.8660  223.4570 C   0  0  0  0  0  0  0  0  0  0  0  0
  139.1530   69.5540  223.4530 C   0  0  0  0  0  0  0  0  0  0  0  0
  139.2520   68.7420  224.5740 C   0  0  0  0  0  0  0  0  0  0  0  0
  139.7920   69.3090  225.7010 C   0  0  0  0  0  0  0  0  0  0  0  0
  139.9120   68.5390  226.8420 C   0  0  0  0  0  0  0  0  0  0  0  0
  140.4540   69.0690  228.0110 C   0  0  0  0  0  0  0  0  0  0  0  0
  140.5820   68.3360  229.1430 F   0  0  0  0  0  0  0  0  0  0  0  0
  140.8660   70.4050  227.9660 C   0  0  0  0  0  0  0  0  0  0  0  0
  140.7360   71.1580  226.8040 C   0  0  0  0  0  0  0  0  0  0  0  0
  140.1960   70.6170  225.6560 C   0  0  0  0  0  0  0  0  0  0  0  0
  140.1010   71.4050  224.5710 N   0  0  0  0  0  0  0  0  0  0  0  0
  139.6080   73.4990  223.3200 H   0  0  0  0  0  0  0  0  0  0  0  0
  139.7054   73.4689  220.2885 H   0  0  0  0  0  0  0  0  0  0  0  0
  138.3221   74.2910  221.0522 H   0  0  0  0  0  0  0  0  0  0  0  0
  143.0532   75.0538  221.1819 H   0  0  0  0  0  0  0  0  0  0  0  0
  142.3432   74.0005  219.9479 H   0  0  0  0  0  0  0  0  0  0  0  0
  143.6600   75.2913  218.4508 H   0  0  0  0  0  0  0  0  0  0  0  0
  143.6130   77.2200  220.4940 H   0  0  0  0  0  0  0  0  0  0  0  0
  142.2972   77.6251  218.2220 H   0  0  0  0  0  0  0  0  0  0  0  0
  141.5359   76.1024  217.7260 H   0  0  0  0  0  0  0  0  0  0  0  0
  139.9210   76.8620  219.2907 H   0  0  0  0  0  0  0  0  0  0  0  0
  141.6029   78.8578  219.7544 H   0  0  0  0  0  0  0  0  0  0  0  0
  140.1067   78.5145  220.6783 H   0  0  0  0  0  0  0  0  0  0  0  0
  141.7710   76.9670  221.8770 H   0  0  0  0  0  0  0  0  0  0  0  0
  138.7240   69.1362  222.5303 H   0  0  0  0  0  0  0  0  0  0  0  0
  138.9142   67.6952  224.5599 H   0  0  0  0  0  0  0  0  0  0  0  0
  139.5746   67.4921  226.8272 H   0  0  0  0  0  0  0  0  0  0  0  0
  141.3000   70.8677  228.8646 H   0  0  0  0  0  0  0  0  0  0  0  0
  141.0705   72.2059  226.8005 H   0  0  0  0  0  0  0  0  0  0  0  0
  1  2  2  0
  2  3  1  0
  3  4  1  0
  4  5  1  0
  5  6  2  0
  5  7  1  0
  7  8  1  0
  8  9  1  0
  9 10  1  0
  9 11  1  0
 11 12  1  0
 12 13  1  0
 13 14  1  0
  2 15  1  0
 15 16  2  0
 16 17  1  0
 17 18  2  0
 18 19  1  0
 19 20  2  0
 20 21  1  0
 20 22  1  0
 22 23  2  0
 23 24  1  0
 24 25  2  0
 12  7  1  0
 25 15  1  0
 24 18  1  0
  3 26  1  0
  4 27  1  0
  4 28  1  0
  8 29  1  0
  8 30  1  0
  9 31  1  6
 10 32  1  0
 11 33  1  0
 11 34  1  0
 12 35  1  6
 13 36  1  0
 13 37  1  0
 14 38  1  0
 16 39  1  0
 17 40  1  0
 19 41  1  0
 22 42  1  0
 23 43  1  0
M  END
>  <smiles>  (6) 
O=C(NCC(=O)N1C[C@H](O)C[C@@H]1CO)c1ccc2cc(F)ccc2n1

>  <score_type>  (6) 
oracle

>  <origin>  (6) 
autodockgpu

>  <m_score__min__energy>  (6) 
-7.5599999999999996

>  <m_primary>  (6) 
energy

>  <rmsd>  (6) 
1.717003872493615

>  <m_score__min__rmsd>  (6) 
1.717003872493615

>  <meeko>  (6) 
{"free_energy": -6.46, "intermolecular_energy": -8.54, "internal_energy": -2.9, "cluster_size": 18, "cluster_id": 3, "rank_in_cluster": 9}

>  <energy>  (6) 
-6.51

>  <cluster_rmsd>  (6) 
1.69

>  <cluster>  (6) 
1

$$$$

     RDKit          3D

 43 45  0  0  0  0  0  0  0  0999 V2000
  140.9040   71.9060  221.2530 O   0  0  0  0  0  0  0  0  0  0  0  0
  140.3350   72.3480  222.2870 C   0  0  0  0  0  0  0  0  0  0  0  0
  139.8180   73.6710  222.3410 N   0  0  0  0  0  0  0  0  0  0  0  0
  139.8990   74.6050  221.2360 C   0  0  0  0  0  0  0  0  0  0  0  0
  139.5710   75.9520  221.7690 C   0  0  0  0  0  0  0  0  0  0  0  0
  138.8150   75.9990  222.7970 O   0  0  0  0  0  0  0  0  0  0  0  0
  140.0640   77.1470  221.1770 N   0  0  0  0  0  0  0  0  0  0  0  0
  140.4520   77.2440  219.7860 C   0  0  0  0  0  0  0  0  0  0  0  0
  140.9200   78.6720  219.5840 C   0  0  2  0  0  0  0  0  0  0  0  0
  142.3270   78.7520  219.5660 O   0  0  0  0  0  0  0  0  0  0  0  0
  140.3330   79.3980  220.7590 C   0  0  0  0  0  0  0  0  0  0  0  0
  140.2420   78.3990  221.8640 C   0  0  2  0  0  0  0  0  0  0  0  0
  141.4500   78.4240  222.7740 C   0  0  0  0  0  0  0  0  0  0  0  0
  142.3800   79.3650  222.2730 O   0  0  0  0  0  0  0  0  0  0  0  0
  140.2060   71.4730  223.4610 C   0  0  0  0  0  0  0  0  0  0  0  0
  139.6330   70.2260  223.3310 C   0  0  0  0  0  0  0  0  0  0  0  0
  139.4880   69.3620  224.4070 C   0  0  0  0  0  0  0  0  0  0  0  0
  139.9450   69.8080  225.6220 C   0  0  0  0  0  0  0  0  0  0  0  0
  139.8220   68.9820  226.7230 C   0  0  0  0  0  0  0  0  0  0  0  0
  140.2710   69.3890  227.9780 C   0  0  0  0  0  0  0  0  0  0  0  0
  140.1630   68.5990  229.0730 F   0  0  0  0  0  0  0  0  0  0  0  0
  140.8450   70.6610  228.0600 C   0  0  0  0  0  0  0  0  0  0  0  0
  140.9570   71.4730  226.9360 C   0  0  0  0  0  0  0  0  0  0  0  0
  140.5070   71.0540  225.7020 C   0  0  0  0  0  0  0  0  0  0  0  0
  140.6480   71.8920  224.6610 N   0  0  0  0  0  0  0  0  0  0  0  0
  139.3540   73.9590  223.2550 H   0  0  0  0  0  0  0  0  0  0  0  0
  140.9158   74.6039  220.8164 H   0  0  0  0  0  0  0  0  0  0  0  0
  139.1988   74.3224  220.4361 H   0  0  0  0  0  0  0  0  0  0  0  0
  141.2675   76.5393  219.5662 H   0  0  0  0  0  0  0  0  0  0  0  0
  139.6168   76.9939  219.1153 H   0  0  0  0  0  0  0  0  0  0  0  0
  140.6020   79.0995  218.6216 H   0  0  0  0  0  0  0  0  0  0  0  0
  142.6270   78.3040  220.4040 H   0  0  0  0  0  0  0  0  0  0  0  0
  140.9836   80.2344  221.0540 H   0  0  0  0  0  0  0  0  0  0  0  0
  139.3458   79.8187  220.5173 H   0  0  0  0  0  0  0  0  0  0  0  0
  139.4137   78.6062  222.5575 H   0  0  0  0  0  0  0  0  0  0  0  0
  141.1418   78.7137  223.7894 H   0  0  0  0  0  0  0  0  0  0  0  0
  141.9112   77.4260  222.8097 H   0  0  0  0  0  0  0  0  0  0  0  0
  142.9970   78.9190  221.6220 H   0  0  0  0  0  0  0  0  0  0  0  0
  139.2786   69.9049  222.3404 H   0  0  0  0  0  0  0  0  0  0  0  0
  139.0295   68.3688  224.2920 H   0  0  0  0  0  0  0  0  0  0  0  0
  139.3631   67.9890  226.6072 H   0  0  0  0  0  0  0  0  0  0  0  0
  141.2144   71.0260  229.0297 H   0  0  0  0  0  0  0  0  0  0  0  0
  141.4136   72.4690  227.0337 H   0  0  0  0  0  0  0  0  0  0  0  0
  1  2  2  0
  2  3  1  0
  3  4  1  0
  4  5  1  0
  5  6  2  0
  5  7  1  0
  7  8  1  0
  8  9  1  0
  9 10  1  0
  9 11  1  0
 11 12  1  0
 12 13  1  0
 13 14  1  0
  2 15  1  0
 15 16  2  0
 16 17  1  0
 17 18  2  0
 18 19  1  0
 19 20  2  0
 20 21  1  0
 20 22  1  0
 22 23  2  0
 23 24  1  0
 24 25  2  0
 12  7  1  0
 25 15  1  0
 24 18  1  0
  3 26  1  0
  4 27  1  0
  4 28  1  0
  8 29  1  0
  8 30  1  0
  9 31  1  6
 10 32  1  0
 11 33  1  0
 11 34  1  0
 12 35  1  1
 13 36  1  0
 13 37  1  0
 14 38  1  0
 16 39  1  0
 17 40  1  0
 19 41  1  0
 22 42  1  0
 23 43  1  0
M  END
>  <smiles>  (7) 
O=C(NCC(=O)N1C[C@H](O)C[C@@H]1CO)c1ccc2cc(F)ccc2n1

>  <score_type>  (7) 
oracle

>  <origin>  (7) 
autodockgpu

>  <m_score__min__energy>  (7) 
-7.5599999999999996

>  <m_primary>  (7) 
energy

>  <rmsd>  (7) 
2.164503279967806

>  <m_score__min__rmsd>  (7) 
2.164503279967806

>  <meeko>  (7) 
{"free_energy": -6.57, "intermolecular_energy": -8.66, "internal_energy": -2.68, "cluster_size": 18, "cluster_id": 3, "rank_in_cluster": 3}

>  <energy>  (7) 
-6.46

>  <cluster_rmsd>  (7) 
1.14

>  <cluster>  (7) 
1

$$$$

     RDKit          3D

 43 45  0  0  0  0  0  0  0  0999 V2000
  139.3740   71.2110  221.0040 O   0  0  0  0  0  0  0  0  0  0  0  0
  139.4860   71.8090  222.1070 C   0  0  0  0  0  0  0  0  0  0  0  0
  139.5040   73.2280  222.1830 N   0  0  0  0  0  0  0  0  0  0  0  0
  139.3970   74.0900  221.0240 C   0  0  0  0  0  0  0  0  0  0  0  0
  140.1980   75.3090  221.3020 C   0  0  0  0  0  0  0  0  0  0  0  0
  140.3310   75.6470  222.5270 O   0  0  0  0  0  0  0  0  0  0  0  0
  140.7980   76.0800  220.2690 N   0  0  0  0  0  0  0  0  0  0  0  0
  141.9140   75.6130  219.4750 C   0  0  0  0  0  0  0  0  0  0  0  0
  142.2370   76.7380  218.5110 C   0  0  2  0  0  0  0  0  0  0  0  0
  143.3630   77.4700  218.9360 O   0  0  0  0  0  0  0  0  0  0  0  0
  140.9900   77.5730  218.5230 C   0  0  0  0  0  0  0  0  0  0  0  0
  140.3860   77.4020  219.8770 C   0  0  2  0  0  0  0  0  0  0  0  0
  140.8160   78.4810  220.8470 C   0  0  0  0  0  0  0  0  0  0  0  0
  141.9660   78.0390  221.5420 O   0  0  0  0  0  0  0  0  0  0  0  0
  139.6000   71.0170  223.3410 C   0  0  0  0  0  0  0  0  0  0  0  0
  139.1480   69.7150  223.3690 C   0  0  0  0  0  0  0  0  0  0  0  0
  139.2340   68.9260  224.5060 C   0  0  0  0  0  0  0  0  0  0  0  0
  139.7940   69.5050  225.6180 C   0  0  0  0  0  0  0  0  0  0  0  0
  139.9010   68.7570  226.7750 C   0  0  0  0  0  0  0  0  0  0  0  0
  140.4620   69.3000  227.9290 C   0  0  0  0  0  0  0  0  0  0  0  0
  140.5780   68.5890  229.0770 F   0  0  0  0  0  0  0  0  0  0  0  0
  140.9060   70.6230  227.8530 C   0  0  0  0  0  0  0  0  0  0  0  0
  140.7880   71.3540  226.6750 C   0  0  0  0  0  0  0  0  0  0  0  0
  140.2290   70.8000  225.5420 C   0  0  0  0  0  0  0  0  0  0  0  0
  140.1470   71.5670  224.4410 N   0  0  0  0  0  0  0  0  0  0  0  0
  139.6020   73.6470  223.1570 H   0  0  0  0  0  0  0  0  0  0  0  0
  139.7912   73.5756  220.1352 H   0  0  0  0  0  0  0  0  0  0  0  0
  138.3463   74.3515  220.8300 H   0  0  0  0  0  0  0  0  0  0  0  0
  142.7799   75.4007  220.1194 H   0  0  0  0  0  0  0  0  0  0  0  0
  141.6695   74.6821  218.9424 H   0  0  0  0  0  0  0  0  0  0  0  0
  142.4976   76.3819  217.5034 H   0  0  0  0  0  0  0  0  0  0  0  0
  143.2840   77.5240  219.9280 H   0  0  0  0  0  0  0  0  0  0  0  0
  141.2376   78.6302  218.3469 H   0  0  0  0  0  0  0  0  0  0  0  0
  140.2924   77.2622  217.7313 H   0  0  0  0  0  0  0  0  0  0  0  0
  139.2908   77.5042  219.8701 H   0  0  0  0  0  0  0  0  0  0  0  0
  141.0499   79.4028  220.2943 H   0  0  0  0  0  0  0  0  0  0  0  0
  140.0045   78.6862  221.5607 H   0  0  0  0  0  0  0  0  0  0  0  0
  141.8160   77.1110  221.8900 H   0  0  0  0  0  0  0  0  0  0  0  0
  138.7038   69.2873  222.4581 H   0  0  0  0  0  0  0  0  0  0  0  0
  138.8715   67.8875  224.5166 H   0  0  0  0  0  0  0  0  0  0  0  0
  139.5383   67.7186  226.7850 H   0  0  0  0  0  0  0  0  0  0  0  0
  141.3562   71.0942  228.7392 H   0  0  0  0  0  0  0  0  0  0  0  0
  141.1472   72.3933  226.6466 H   0  0  0  0  0  0  0  0  0  0  0  0
  1  2  2  0
  2  3  1  0
  3  4  1  0
  4  5  1  0
  5  6  2  0
  5  7  1  0
  7  8  1  0
  8  9  1  0
  9 10  1  0
  9 11  1  0
 11 12  1  0
 12 13  1  0
 13 14  1  0
  2 15  1  0
 15 16  2  0
 16 17  1  0
 17 18  2  0
 18 19  1  0
 19 20  2  0
 20 21  1  0
 20 22  1  0
 22 23  2  0
 23 24  1  0
 24 25  2  0
 12  7  1  0
 25 15  1  0
 24 18  1  0
  3 26  1  0
  4 27  1  0
  4 28  1  0
  8 29  1  0
  8 30  1  0
  9 31  1  6
 10 32  1  0
 11 33  1  0
 11 34  1  0
 12 35  1  6
 13 36  1  0
 13 37  1  0
 14 38  1  0
 16 39  1  0
 17 40  1  0
 19 41  1  0
 22 42  1  0
 23 43  1  0
M  END
>  <smiles>  (8) 
O=C(NCC(=O)N1C[C@H](O)C[C@@H]1CO)c1ccc2cc(F)ccc2n1

>  <score_type>  (8) 
oracle

>  <origin>  (8) 
autodockgpu

>  <m_score__min__energy>  (8) 
-7.5599999999999996

>  <m_primary>  (8) 
energy

>  <rmsd>  (8) 
1.4323058074271604

>  <m_score__min__rmsd>  (8) 
1.4323058074271604

>  <meeko>  (8) 
{"free_energy": -6.07, "intermolecular_energy": -8.16, "internal_energy": -3.13, "cluster_size": 18, "cluster_id": 3, "rank_in_cluster": 17}

>  <energy>  (8) 
-6.42

>  <cluster_rmsd>  (8) 
0.94

>  <cluster>  (8) 
1

$$$$

     RDKit          3D

 43 45  0  0  0  0  0  0  0  0999 V2000
  138.5500   74.9940  220.4210 O   0  0  0  0  0  0  0  0  0  0  0  0
  139.4750   75.0500  221.2750 C   0  0  0  0  0  0  0  0  0  0  0  0
  139.3590   75.8530  222.4420 N   0  0  0  0  0  0  0  0  0  0  0  0
  138.1930   76.6590  222.7430 C   0  0  0  0  0  0  0  0  0  0  0  0
  138.4560   78.0280  222.2300 C   0  0  0  0  0  0  0  0  0  0  0  0
  137.4950   78.8670  222.2990 O   0  0  0  0  0  0  0  0  0  0  0  0
  139.7120   78.4080  221.6810 N   0  0  0  0  0  0  0  0  0  0  0  0
  140.1250   78.0760  220.3350 C   0  0  0  0  0  0  0  0  0  0  0  0
  141.5150   78.6600  220.1710 C   0  0  2  0  0  0  0  0  0  0  0  0
  142.5060   77.6660  220.2910 O   0  0  0  0  0  0  0  0  0  0  0  0
  141.5980   79.6700  221.2780 C   0  0  0  0  0  0  0  0  0  0  0  0
  140.7240   79.1620  222.3750 C   0  0  2  0  0  0  0  0  0  0  0  0
  141.4860   78.3500  223.3990 C   0  0  0  0  0  0  0  0  0  0  0  0
  141.4420   76.9860  223.0260 O   0  0  0  0  0  0  0  0  0  0  0  0
  140.6980   74.2640  221.0560 C   0  0  0  0  0  0  0  0  0  0  0  0
  140.6410   72.8870  221.0450 C   0  0  0  0  0  0  0  0  0  0  0  0
  141.7650   72.1010  220.8420 C   0  0  0  0  0  0  0  0  0  0  0  0
  142.9540   72.7610  220.6520 C   0  0  0  0  0  0  0  0  0  0  0  0
  144.1020   72.0200  220.4450 C   0  0  0  0  0  0  0  0  0  0  0  0
  145.3310   72.6440  220.2470 C   0  0  0  0  0  0  0  0  0  0  0  0
  146.4710   71.9410  220.0420 F   0  0  0  0  0  0  0  0  0  0  0  0
  145.3400   74.0420  220.2670 C   0  0  0  0  0  0  0  0  0  0  0  0
  144.1700   74.7650  220.4760 C   0  0  0  0  0  0  0  0  0  0  0  0
  142.9620   74.1300  220.6710 C   0  0  0  0  0  0  0  0  0  0  0  0
  141.8720   74.8940  220.8680 N   0  0  0  0  0  0  0  0  0  0  0  0
  140.1890   75.8390  223.1080 H   0  0  0  0  0  0  0  0  0  0  0  0
  137.3057   76.2362  222.2490 H   0  0  0  0  0  0  0  0  0  0  0  0
  138.0037   76.6795  223.8264 H   0  0  0  0  0  0  0  0  0  0  0  0
  140.1502   76.9845  220.2007 H   0  0  0  0  0  0  0  0  0  0  0  0
  139.4265   78.4794  219.5871 H   0  0  0  0  0  0  0  0  0  0  0  0
  141.6831   79.1050  219.1792 H   0  0  0  0  0  0  0  0  0  0  0  0
  142.1710   77.0430  220.9930 H   0  0  0  0  0  0  0  0  0  0  0  0
  142.6357   79.7642  221.6305 H   0  0  0  0  0  0  0  0  0  0  0  0
  141.2742   80.6644  220.9369 H   0  0  0  0  0  0  0  0  0  0  0  0
  140.2895   79.9702  222.9817 H   0  0  0  0  0  0  0  0  0  0  0  0
  142.5317   78.6894  223.4357 H   0  0  0  0  0  0  0  0  0  0  0  0
  141.0308   78.4801  224.3919 H   0  0  0  0  0  0  0  0  0  0  0  0
  142.0620   76.8240  222.2560 H   0  0  0  0  0  0  0  0  0  0  0  0
  139.6701   72.3945  221.2027 H   0  0  0  0  0  0  0  0  0  0  0  0
  141.7071   71.0026  220.8336 H   0  0  0  0  0  0  0  0  0  0  0  0
  144.0441   70.9216  220.4366 H   0  0  0  0  0  0  0  0  0  0  0  0
  146.2879   74.5791  220.1150 H   0  0  0  0  0  0  0  0  0  0  0  0
  144.2095   75.8642  220.4858 H   0  0  0  0  0  0  0  0  0  0  0  0
  1  2  2  0
  2  3  1  0
  3  4  1  0
  4  5  1  0
  5  6  2  0
  5  7  1  0
  7  8  1  0
  8  9  1  0
  9 10  1  0
  9 11  1  0
 11 12  1  0
 12 13  1  0
 13 14  1  0
  2 15  1  0
 15 16  2  0
 16 17  1  0
 17 18  2  0
 18 19  1  0
 19 20  2  0
 20 21  1  0
 20 22  1  0
 22 23  2  0
 23 24  1  0
 24 25  2  0
 12  7  1  0
 25 15  1  0
 24 18  1  0
  3 26  1  0
  4 27  1  0
  4 28  1  0
  8 29  1  0
  8 30  1  0
  9 31  1  6
 10 32  1  0
 11 33  1  0
 11 34  1  0
 12 35  1  1
 13 36  1  0
 13 37  1  0
 14 38  1  0
 16 39  1  0
 17 40  1  0
 19 41  1  0
 22 42  1  0
 23 43  1  0
M  END
>  <smiles>  (9) 
O=C(NCC(=O)N1C[C@H](O)C[C@@H]1CO)c1ccc2cc(F)ccc2n1

>  <score_type>  (9) 
oracle

>  <origin>  (9) 
autodockgpu

>  <m_score__min__energy>  (9) 
-7.5599999999999996

>  <m_primary>  (9) 
energy

>  <rmsd>  (9) 
5.77688558357069

>  <m_score__min__rmsd>  (9) 
5.77688558357069

>  <meeko>  (9) 
{"free_energy": -4.47, "intermolecular_energy": -6.55, "internal_energy": -4.41, "cluster_size": 2, "cluster_id": 6, "rank_in_cluster": 2}

>  <energy>  (9) 
-6.34

>  <cluster_rmsd>  (9) 
1.07

>  <cluster>  (9) 
1

$$$$

     RDKit          3D

 43 45  0  0  0  0  0  0  0  0999 V2000
  140.9160   71.8900  221.2400 O   0  0  0  0  0  0  0  0  0  0  0  0
  140.3710   72.3480  222.2790 C   0  0  0  0  0  0  0  0  0  0  0  0
  139.9010   73.6880  222.3410 N   0  0  0  0  0  0  0  0  0  0  0  0
  140.0070   74.6220  221.2390 C   0  0  0  0  0  0  0  0  0  0  0  0
  139.5980   75.9560  221.7480 C   0  0  0  0  0  0  0  0  0  0  0  0
  138.7990   75.9750  222.7450 O   0  0  0  0  0  0  0  0  0  0  0  0
  140.0600   77.1690  221.1660 N   0  0  0  0  0  0  0  0  0  0  0  0
  140.4340   77.2910  219.7740 C   0  0  0  0  0  0  0  0  0  0  0  0
  140.8690   78.7310  219.5850 C   0  0  2  0  0  0  0  0  0  0  0  0
  142.2730   78.8420  219.5570 O   0  0  0  0  0  0  0  0  0  0  0  0
  140.2760   79.4300  220.7740 C   0  0  0  0  0  0  0  0  0  0  0  0
  140.2150   78.4160  221.8670 C   0  0  2  0  0  0  0  0  0  0  0  0
  141.4300   78.4570  222.7670 C   0  0  0  0  0  0  0  0  0  0  0  0
  142.3660   79.3720  222.2320 O   0  0  0  0  0  0  0  0  0  0  0  0
  140.2190   71.4730  223.4510 C   0  0  0  0  0  0  0  0  0  0  0  0
  139.6110   70.2430  223.3190 C   0  0  0  0  0  0  0  0  0  0  0  0
  139.4440   69.3800  224.3920 C   0  0  0  0  0  0  0  0  0  0  0  0
  139.9140   69.8100  225.6080 C   0  0  0  0  0  0  0  0  0  0  0  0
  139.7700   68.9850  226.7070 C   0  0  0  0  0  0  0  0  0  0  0  0
  140.2310   69.3760  227.9620 C   0  0  0  0  0  0  0  0  0  0  0  0
  140.1020   68.5860  229.0550 F   0  0  0  0  0  0  0  0  0  0  0  0
  140.8400   70.6320  228.0470 C   0  0  0  0  0  0  0  0  0  0  0  0
  140.9730   71.4430  226.9250 C   0  0  0  0  0  0  0  0  0  0  0  0
  140.5100   71.0400  225.6910 C   0  0  0  0  0  0  0  0  0  0  0  0
  140.6730   71.8770  224.6510 N   0  0  0  0  0  0  0  0  0  0  0  0
  139.4540   73.9880  223.2590 H   0  0  0  0  0  0  0  0  0  0  0  0
  141.0448   74.6597  220.8764 H   0  0  0  0  0  0  0  0  0  0  0  0
  139.3639   74.3111  220.4025 H   0  0  0  0  0  0  0  0  0  0  0  0
  141.2629   76.6070  219.5392 H   0  0  0  0  0  0  0  0  0  0  0  0
  139.5988   77.0307  219.1072 H   0  0  0  0  0  0  0  0  0  0  0  0
  140.5339   79.1626  218.6303 H   0  0  0  0  0  0  0  0  0  0  0  0
  142.5940   78.3320  220.3510 H   0  0  0  0  0  0  0  0  0  0  0  0
  140.9111   80.2764  221.0744 H   0  0  0  0  0  0  0  0  0  0  0  0
  139.2782   79.8325  220.5452 H   0  0  0  0  0  0  0  0  0  0  0  0
  139.3874   78.5958  222.5690 H   0  0  0  0  0  0  0  0  0  0  0  0
  141.1319   78.7808  223.7751 H   0  0  0  0  0  0  0  0  0  0  0  0
  141.8814   77.4558  222.8293 H   0  0  0  0  0  0  0  0  0  0  0  0
  142.9860   78.8960  221.6050 H   0  0  0  0  0  0  0  0  0  0  0  0
  139.2455   69.9351  222.3282 H   0  0  0  0  0  0  0  0  0  0  0  0
  138.9590   68.3997  224.2744 H   0  0  0  0  0  0  0  0  0  0  0  0
  139.2842   68.0051  226.5892 H   0  0  0  0  0  0  0  0  0  0  0  0
  141.2201   70.9843  229.0173 H   0  0  0  0  0  0  0  0  0  0  0  0
  141.4574   72.4256  227.0245 H   0  0  0  0  0  0  0  0  0  0  0  0
  1  2  2  0
  2  3  1  0
  3  4  1  0
  4  5  1  0
  5  6  2  0
  5  7  1  0
  7  8  1  0
  8  9  1  0
  9 10  1  0
  9 11  1  0
 11 12  1  0
 12 13  1  0
 13 14  1  0
  2 15  1  0
 15 16  2  0
 16 17  1  0
 17 18  2  0
 18 19  1  0
 19 20  2  0
 20 21  1  0
 20 22  1  0
 22 23  2  0
 23 24  1  0
 24 25  2  0
 12  7  1  0
 25 15  1  0
 24 18  1  0
  3 26  1  0
  4 27  1  0
  4 28  1  0
  8 29  1  0
  8 30  1  0
  9 31  1  6
 10 32  1  0
 11 33  1  0
 11 34  1  0
 12 35  1  1
 13 36  1  0
 13 37  1  0
 14 38  1  0
 16 39  1  0
 17 40  1  0
 19 41  1  0
 22 42  1  0
 23 43  1  0
M  END
>  <smiles>  (10) 
O=C(NCC(=O)N1C[C@H](O)C[C@@H]1CO)c1ccc2cc(F)ccc2n1

>  <score_type>  (10) 
oracle

>  <origin>  (10) 
autodockgpu

>  <m_score__min__energy>  (10) 
-7.5599999999999996

>  <m_primary>  (10) 
energy

>  <rmsd>  (10) 
2.1954241040392226

>  <m_score__min__rmsd>  (10) 
2.1954241040392226

>  <meeko>  (10) 
{"free_energy": -6.58, "intermolecular_energy": -8.66, "internal_energy": -2.68, "cluster_size": 18, "cluster_id": 3, "rank_in_cluster": 2}

>  <energy>  (10) 
-6.34

>  <cluster_rmsd>  (10) 
1.97

>  <cluster>  (10) 
1

$$$$

     RDKit          3D

 43 45  0  0  0  0  0  0  0  0999 V2000
  141.2430   72.3580  221.7530 O   0  0  0  0  0  0  0  0  0  0  0  0
  140.2600   72.4220  222.5390 C   0  0  0  0  0  0  0  0  0  0  0  0
  139.2250   73.3790  222.3550 N   0  0  0  0  0  0  0  0  0  0  0  0
  139.2110   74.3420  221.2720 C   0  0  0  0  0  0  0  0  0  0  0  0
  137.7910   74.5930  220.9200 C   0  0  0  0  0  0  0  0  0  0  0  0
  137.4970   74.6120  219.6770 O   0  0  0  0  0  0  0  0  0  0  0  0
  136.7870   74.8070  221.9050 N   0  0  0  0  0  0  0  0  0  0  0  0
  136.9320   75.7450  222.9960 C   0  0  0  0  0  0  0  0  0  0  0  0
  135.6500   75.6480  223.8000 C   0  0  2  0  0  0  0  0  0  0  0  0
  135.8330   74.8800  224.9660 O   0  0  0  0  0  0  0  0  0  0  0  0
  134.6910   74.9970  222.8450 C   0  0  0  0  0  0  0  0  0  0  0  0
  135.5160   74.1340  221.9500 C   0  0  2  0  0  0  0  0  0  0  0  0
  135.6050   72.7050  222.4390 C   0  0  0  0  0  0  0  0  0  0  0  0
  136.5680   72.6350  223.4730 O   0  0  0  0  0  0  0  0  0  0  0  0
  140.1860   71.4850  223.6690 C   0  0  0  0  0  0  0  0  0  0  0  0
  139.6170   70.2410  223.4970 C   0  0  0  0  0  0  0  0  0  0  0  0
  139.5240   69.3210  224.5310 C   0  0  0  0  0  0  0  0  0  0  0  0
  140.0270   69.7070  225.7480 C   0  0  0  0  0  0  0  0  0  0  0  0
  139.9570   68.8230  226.8080 C   0  0  0  0  0  0  0  0  0  0  0  0
  140.4540   69.1680  228.0620 C   0  0  0  0  0  0  0  0  0  0  0  0
  140.3970   68.3200  229.1180 F   0  0  0  0  0  0  0  0  0  0  0  0
  141.0210   70.4390  228.1890 C   0  0  0  0  0  0  0  0  0  0  0  0
  141.0800   71.3100  227.1060 C   0  0  0  0  0  0  0  0  0  0  0  0
  140.5820   70.9520  225.8710 C   0  0  0  0  0  0  0  0  0  0  0  0
  140.6740   71.8450  224.8700 N   0  0  0  0  0  0  0  0  0  0  0  0
  138.4340   73.3610  223.0670 H   0  0  0  0  0  0  0  0  0  0  0  0
  139.6895   75.2783  221.5951 H   0  0  0  0  0  0  0  0  0  0  0  0
  139.7646   73.9573  220.4028 H   0  0  0  0  0  0  0  0  0  0  0  0
  137.7966   75.4752  223.6203 H   0  0  0  0  0  0  0  0  0  0  0  0
  137.1026   76.7680  222.6294 H   0  0  0  0  0  0  0  0  0  0  0  0
  135.2909   76.6233  224.1604 H   0  0  0  0  0  0  0  0  0  0  0  0
  136.3700   74.0900  224.6800 H   0  0  0  0  0  0  0  0  0  0  0  0
  133.9600   74.3866  223.3955 H   0  0  0  0  0  0  0  0  0  0  0  0
  134.1267   75.7464  222.2705 H   0  0  0  0  0  0  0  0  0  0  0  0
  135.0783   74.0198  220.9473 H   0  0  0  0  0  0  0  0  0  0  0  0
  134.6256   72.3845  222.8239 H   0  0  0  0  0  0  0  0  0  0  0  0
  135.8988   72.0444  221.6100 H   0  0  0  0  0  0  0  0  0  0  0  0
  136.9520   73.5450  223.6410 H   0  0  0  0  0  0  0  0  0  0  0  0
  139.2235   69.9689  222.5065 H   0  0  0  0  0  0  0  0  0  0  0  0
  139.0693   68.3304  224.3827 H   0  0  0  0  0  0  0  0  0  0  0  0
  139.5021   67.8326  226.6588 H   0  0  0  0  0  0  0  0  0  0  0  0
  141.4271   70.7557  229.1610 H   0  0  0  0  0  0  0  0  0  0  0  0
  141.5328   72.3038  227.2374 H   0  0  0  0  0  0  0  0  0  0  0  0
  1  2  2  0
  2  3  1  0
  3  4  1  0
  4  5  1  0
  5  6  2  0
  5  7  1  0
  7  8  1  0
  8  9  1  0
  9 10  1  0
  9 11  1  0
 11 12  1  0
 12 13  1  0
 13 14  1  0
  2 15  1  0
 15 16  2  0
 16 17  1  0
 17 18  2  0
 18 19  1  0
 19 20  2  0
 20 21  1  0
 20 22  1  0
 22 23  2  0
 23 24  1  0
 24 25  2  0
 12  7  1  0
 25 15  1  0
 24 18  1  0
  3 26  1  0
  4 27  1  0
  4 28  1  0
  8 29  1  0
  8 30  1  0
  9 31  1  1
 10 32  1  0
 11 33  1  0
 11 34  1  0
 12 35  1  6
 13 36  1  0
 13 37  1  0
 14 38  1  0
 16 39  1  0
 17 40  1  0
 19 41  1  0
 22 42  1  0
 23 43  1  0
M  END
>  <smiles>  (11) 
O=C(NCC(=O)N1C[C@H](O)C[C@@H]1CO)c1ccc2cc(F)ccc2n1

>  <score_type>  (11) 
oracle

>  <origin>  (11) 
autodockgpu

>  <m_score__min__energy>  (11) 
-7.5599999999999996

>  <m_primary>  (11) 
energy

>  <rmsd>  (11) 
4.151813833050778

>  <m_score__min__rmsd>  (11) 
4.151813833050778

>  <meeko>  (11) 
{"free_energy": -6.09, "intermolecular_energy": -8.18, "internal_energy": -2.95, "cluster_size": 8, "cluster_id": 5, "rank_in_cluster": 1}

>  <energy>  (11) 
-6.07

>  <cluster_rmsd>  (11) 
1.59

>  <cluster>  (11) 
1

$$$$

     RDKit          3D

 43 45  0  0  0  0  0  0  0  0999 V2000
  140.0850   71.4190  220.8610 O   0  0  0  0  0  0  0  0  0  0  0  0
  140.3460   72.0000  221.9490 C   0  0  0  0  0  0  0  0  0  0  0  0
  140.7770   73.3530  221.9820 N   0  0  0  0  0  0  0  0  0  0  0  0
  140.9500   74.1650  220.7950 C   0  0  0  0  0  0  0  0  0  0  0  0
  141.8630   73.4300  219.8840 C   0  0  0  0  0  0  0  0  0  0  0  0
  141.3410   72.8960  218.8470 O   0  0  0  0  0  0  0  0  0  0  0  0
  143.2580   73.3110  220.1340 N   0  0  0  0  0  0  0  0  0  0  0  0
  144.2290   74.2980  219.7130 C   0  0  0  0  0  0  0  0  0  0  0  0
  145.5770   73.7770  220.1710 C   0  0  2  0  0  0  0  0  0  0  0  0
  146.2940   73.2020  219.1040 O   0  0  0  0  0  0  0  0  0  0  0  0
  145.2180   72.7610  221.2170 C   0  0  0  0  0  0  0  0  0  0  0  0
  143.8840   72.2160  220.8290 C   0  0  2  0  0  0  0  0  0  0  0  0
  143.9880   70.9550  219.9990 C   0  0  0  0  0  0  0  0  0  0  0  0
  142.6960   70.3990  219.8490 O   0  0  0  0  0  0  0  0  0  0  0  0
  140.2000   71.2560  223.2090 C   0  0  0  0  0  0  0  0  0  0  0  0
  139.5790   70.0250  223.2140 C   0  0  0  0  0  0  0  0  0  0  0  0
  139.4170   69.2830  224.3750 C   0  0  0  0  0  0  0  0  0  0  0  0
  139.9050   69.8350  225.5330 C   0  0  0  0  0  0  0  0  0  0  0  0
  139.7670   69.1320  226.7160 C   0  0  0  0  0  0  0  0  0  0  0  0
  140.2460   69.6500  227.9160 C   0  0  0  0  0  0  0  0  0  0  0  0
  140.1230   68.9820  229.0890 F   0  0  0  0  0  0  0  0  0  0  0  0
  140.8670   70.9020  227.8610 C   0  0  0  0  0  0  0  0  0  0  0  0
  140.9950   71.5880  226.6580 C   0  0  0  0  0  0  0  0  0  0  0  0
  140.5140   71.0600  225.4790 C   0  0  0  0  0  0  0  0  0  0  0  0
  140.6720   71.7800  224.3540 N   0  0  0  0  0  0  0  0  0  0  0  0
  140.9750   73.7620  222.9450 H   0  0  0  0  0  0  0  0  0  0  0  0
  139.9786   74.3258  220.3045 H   0  0  0  0  0  0  0  0  0  0  0  0
  141.3690   75.1484  221.0546 H   0  0  0  0  0  0  0  0  0  0  0  0
  144.2130   74.4078  218.6186 H   0  0  0  0  0  0  0  0  0  0  0  0
  144.0114   75.2871  220.1423 H   0  0  0  0  0  0  0  0  0  0  0  0
  146.2370   74.5672  220.5583 H   0  0  0  0  0  0  0  0  0  0  0  0
  146.4240   73.9390  218.4460 H   0  0  0  0  0  0  0  0  0  0  0  0
  145.9670   71.9557  221.2390 H   0  0  0  0  0  0  0  0  0  0  0  0
  145.1901   73.2117  222.2201 H   0  0  0  0  0  0  0  0  0  0  0  0
  143.2909   71.8877  221.6953 H   0  0  0  0  0  0  0  0  0  0  0  0
  144.4033   71.1971  219.0096 H   0  0  0  0  0  0  0  0  0  0  0  0
  144.6496   70.2324  220.4991 H   0  0  0  0  0  0  0  0  0  0  0  0
  142.0070   71.1240  219.8970 H   0  0  0  0  0  0  0  0  0  0  0  0
  139.1992   69.6175  222.2655 H   0  0  0  0  0  0  0  0  0  0  0  0
  138.9219   68.3007  224.3678 H   0  0  0  0  0  0  0  0  0  0  0  0
  139.2718   68.1498  226.7086 H   0  0  0  0  0  0  0  0  0  0  0  0
  141.2607   71.3515  228.7845 H   0  0  0  0  0  0  0  0  0  0  0  0
  141.4894   72.5706  226.6471 H   0  0  0  0  0  0  0  0  0  0  0  0
  1  2  2  0
  2  3  1  0
  3  4  1  0
  4  5  1  0
  5  6  2  0
  5  7  1  0
  7  8  1  0
  8  9  1  0
  9 10  1  0
  9 11  1  0
 11 12  1  0
 12 13  1  0
 13 14  1  0
  2 15  1  0
 15 16  2  0
 16 17  1  0
 17 18  2  0
 18 19  1  0
 19 20  2  0
 20 21  1  0
 20 22  1  0
 22 23  2  0
 23 24  1  0
 24 25  2  0
 12  7  1  0
 25 15  1  0
 24 18  1  0
  3 26  1  0
  4 27  1  0
  4 28  1  0
  8 29  1  0
  8 30  1  0
  9 31  1  1
 10 32  1  0
 11 33  1  0
 11 34  1  0
 12 35  1  1
 13 36  1  0
 13 37  1  0
 14 38  1  0
 16 39  1  0
 17 40  1  0
 19 41  1  0
 22 42  1  0
 23 43  1  0
M  END
>  <smiles>  (12) 
O=C(NCC(=O)N1C[C@H](O)C[C@@H]1CO)c1ccc2cc(F)ccc2n1

>  <score_type>  (12) 
oracle

>  <origin>  (12) 
autodockgpu

>  <m_score__min__energy>  (12) 
-7.5599999999999996

>  <m_primary>  (12) 
energy

>  <rmsd>  (12) 
3.8612555395303705

>  <m_score__min__rmsd>  (12) 
3.8612555395303705

>  <meeko>  (12) 
{"free_energy": -6.07, "intermolecular_energy": -8.15, "internal_energy": -2.82, "cluster_size": 13, "cluster_id": 1, "rank_in_cluster": 11}

>  <energy>  (12) 
-6.06

>  <cluster_rmsd>  (12) 
1.6

>  <cluster>  (12) 
1

$$$$

     RDKit          3D

 43 45  0  0  0  0  0  0  0  0999 V2000
  141.1420   72.9500  220.9130 O   0  0  0  0  0  0  0  0  0  0  0  0
  140.4420   73.1740  221.9370 C   0  0  0  0  0  0  0  0  0  0  0  0
  139.8960   74.4610  222.1950 N   0  0  0  0  0  0  0  0  0  0  0  0
  140.0920   75.6010  221.3220 C   0  0  0  0  0  0  0  0  0  0  0  0
  139.5570   76.7940  222.0240 C   0  0  0  0  0  0  0  0  0  0  0  0
  138.5770   76.6060  222.8220 O   0  0  0  0  0  0  0  0  0  0  0  0
  140.0940   78.0970  221.8320 N   0  0  0  0  0  0  0  0  0  0  0  0
  140.2520   78.7080  220.5310 C   0  0  0  0  0  0  0  0  0  0  0  0
  140.8600   80.0730  220.7830 C   0  0  2  0  0  0  0  0  0  0  0  0
  142.2420   80.0770  220.5080 O   0  0  0  0  0  0  0  0  0  0  0  0
  140.5790   80.3140  222.2380 C   0  0  0  0  0  0  0  0  0  0  0  0
  140.5460   78.9690  222.8850 C   0  0  2  0  0  0  0  0  0  0  0  0
  141.8830   78.5700  223.4690 C   0  0  0  0  0  0  0  0  0  0  0  0
  142.8800   79.4350  222.9600 O   0  0  0  0  0  0  0  0  0  0  0  0
  140.1880   72.0770  222.8830 C   0  0  0  0  0  0  0  0  0  0  0  0
  139.4550   70.9800  222.4840 C   0  0  0  0  0  0  0  0  0  0  0  0
  139.1890   69.9190  223.3370 C   0  0  0  0  0  0  0  0  0  0  0  0
  139.6900   70.0110  224.6110 C   0  0  0  0  0  0  0  0  0  0  0  0
  139.4500   68.9770  225.4970 C   0  0  0  0  0  0  0  0  0  0  0  0
  139.9380   69.0240  226.8010 C   0  0  0  0  0  0  0  0  0  0  0  0
  139.7170   68.0250  227.6890 F   0  0  0  0  0  0  0  0  0  0  0  0
  140.6750   70.1570  227.1590 C   0  0  0  0  0  0  0  0  0  0  0  0
  140.9030   71.1830  226.2480 C   0  0  0  0  0  0  0  0  0  0  0  0
  140.4120   71.1200  224.9620 C   0  0  0  0  0  0  0  0  0  0  0  0
  140.6720   72.1490  224.1360 N   0  0  0  0  0  0  0  0  0  0  0  0
  139.3180   74.5580  223.0830 H   0  0  0  0  0  0  0  0  0  0  0  0
  141.1638   75.7359  221.1145 H   0  0  0  0  0  0  0  0  0  0  0  0
  139.5745   75.4497  220.3632 H   0  0  0  0  0  0  0  0  0  0  0  0
  140.9207   78.1016  219.9024 H   0  0  0  0  0  0  0  0  0  0  0  0
  139.2904   78.7860  220.0025 H   0  0  0  0  0  0  0  0  0  0  0  0
  140.4421   80.8583  220.1359 H   0  0  0  0  0  0  0  0  0  0  0  0
  142.5800   79.2010  220.8430 H   0  0  0  0  0  0  0  0  0  0  0  0
  141.3735   80.9314  222.6825 H   0  0  0  0  0  0  0  0  0  0  0  0
  139.6287   80.8497  222.3790 H   0  0  0  0  0  0  0  0  0  0  0  0
  139.8805   78.9335  223.7601 H   0  0  0  0  0  0  0  0  0  0  0  0
  141.8468   78.6524  224.5653 H   0  0  0  0  0  0  0  0  0  0  0  0
  142.1150   77.5304  223.1946 H   0  0  0  0  0  0  0  0  0  0  0  0
  143.2680   79.0490  222.1210 H   0  0  0  0  0  0  0  0  0  0  0  0
  139.0681   70.9448  221.4549 H   0  0  0  0  0  0  0  0  0  0  0  0
  138.6051   69.0467  223.0082 H   0  0  0  0  0  0  0  0  0  0  0  0
  138.8656   68.1052  225.1677 H   0  0  0  0  0  0  0  0  0  0  0  0
  141.0812   70.2383  228.1780 H   0  0  0  0  0  0  0  0  0  0  0  0
  141.4865   72.0617  226.5601 H   0  0  0  0  0  0  0  0  0  0  0  0
  1  2  2  0
  2  3  1  0
  3  4  1  0
  4  5  1  0
  5  6  2  0
  5  7  1  0
  7  8  1  0
  8  9  1  0
  9 10  1  0
  9 11  1  0
 11 12  1  0
 12 13  1  0
 13 14  1  0
  2 15  1  0
 15 16  2  0
 16 17  1  0
 17 18  2  0
 18 19  1  0
 19 20  2  0
 20 21  1  0
 20 22  1  0
 22 23  2  0
 23 24  1  0
 24 25  2  0
 12  7  1  0
 25 15  1  0
 24 18  1  0
  3 26  1  0
  4 27  1  0
  4 28  1  0
  8 29  1  0
  8 30  1  0
  9 31  1  6
 10 32  1  0
 11 33  1  0
 11 34  1  0
 12 35  1  1
 13 36  1  0
 13 37  1  0
 14 38  1  0
 16 39  1  0
 17 40  1  0
 19 41  1  0
 22 42  1  0
 23 43  1  0
M  END
>  <smiles>  (13) 
O=C(NCC(=O)N1C[C@H](O)C[C@@H]1CO)c1ccc2cc(F)ccc2n1

>  <score_type>  (13) 
oracle

>  <origin>  (13) 
autodockgpu

>  <m_score__min__energy>  (13) 
-7.5599999999999996

>  <m_primary>  (13) 
energy

>  <rmsd>  (13) 
3.156966491808648

>  <m_score__min__rmsd>  (13) 
3.156966491808648

>  <meeko>  (13) 
{"free_energy": -6.42, "intermolecular_energy": -8.5, "internal_energy": -2.6, "cluster_size": 18, "cluster_id": 3, "rank_in_cluster": 11}

>  <energy>  (13) 
-6.05

>  <cluster_rmsd>  (13) 
1.59

>  <cluster>  (13) 
1

$$$$

     RDKit          3D

 43 45  0  0  0  0  0  0  0  0999 V2000
  138.3990   72.4010  222.7350 O   0  0  0  0  0  0  0  0  0  0  0  0
  139.0830   71.3440  222.7920 C   0  0  0  0  0  0  0  0  0  0  0  0
  139.3170   70.5490  221.6380 N   0  0  0  0  0  0  0  0  0  0  0  0
  138.8020   70.8770  220.3240 C   0  0  0  0  0  0  0  0  0  0  0  0
  139.6340   71.9830  219.7850 C   0  0  0  0  0  0  0  0  0  0  0  0
  140.4140   71.6990  218.8140 O   0  0  0  0  0  0  0  0  0  0  0  0
  139.5810   73.3030  220.3100 N   0  0  0  0  0  0  0  0  0  0  0  0
  140.5850   73.8460  221.1990 C   0  0  0  0  0  0  0  0  0  0  0  0
  140.1380   75.2600  221.5170 C   0  0  2  0  0  0  0  0  0  0  0  0
  139.5450   75.3340  222.7920 O   0  0  0  0  0  0  0  0  0  0  0  0
  139.1550   75.5660  220.4240 C   0  0  0  0  0  0  0  0  0  0  0  0
  138.5420   74.2620  220.0360 C   0  0  2  0  0  0  0  0  0  0  0  0
  137.2510   73.9830  220.7740 C   0  0  0  0  0  0  0  0  0  0  0  0
  137.2530   74.7070  221.9880 O   0  0  0  0  0  0  0  0  0  0  0  0
  139.6490   70.9290  224.0840 C   0  0  0  0  0  0  0  0  0  0  0  0
  140.5200   71.7600  224.7540 C   0  0  0  0  0  0  0  0  0  0  0  0
  141.0810   71.4160  225.9750 C   0  0  0  0  0  0  0  0  0  0  0  0
  140.7280   70.1950  226.4940 C   0  0  0  0  0  0  0  0  0  0  0  0
  141.2610   69.8090  227.7090 C   0  0  0  0  0  0  0  0  0  0  0  0
  140.9330   68.5800  228.2770 C   0  0  0  0  0  0  0  0  0  0  0  0
  141.4420   68.1760  229.4660 F   0  0  0  0  0  0  0  0  0  0  0  0
  140.0460   67.7700  227.5600 C   0  0  0  0  0  0  0  0  0  0  0  0
  139.5230   68.1830  226.3390 C   0  0  0  0  0  0  0  0  0  0  0  0
  139.8590   69.4030  225.7920 C   0  0  0  0  0  0  0  0  0  0  0  0
  139.3150   69.7360  224.6090 N   0  0  0  0  0  0  0  0  0  0  0  0
  139.9060   69.6730  221.7800 H   0  0  0  0  0  0  0  0  0  0  0  0
  138.8693   69.9996  219.6639 H   0  0  0  0  0  0  0  0  0  0  0  0
  137.7460   71.1790  220.3847 H   0  0  0  0  0  0  0  0  0  0  0  0
  140.6446   73.2474  222.1199 H   0  0  0  0  0  0  0  0  0  0  0  0
  141.5832   73.8323  220.7371 H   0  0  0  0  0  0  0  0  0  0  0  0
  140.9694   75.9795  221.5512 H   0  0  0  0  0  0  0  0  0  0  0  0
  139.1560   74.4310  222.9560 H   0  0  0  0  0  0  0  0  0  0  0  0
  138.3812   76.2569  220.7899 H   0  0  0  0  0  0  0  0  0  0  0  0
  139.6474   76.0476  219.5663 H   0  0  0  0  0  0  0  0  0  0  0  0
  138.2286   74.2355  218.9819 H   0  0  0  0  0  0  0  0  0  0  0  0
  136.3970   74.2989  220.1569 H   0  0  0  0  0  0  0  0  0  0  0  0
  137.1653   72.9062  220.9819 H   0  0  0  0  0  0  0  0  0  0  0  0
  137.7220   74.1780  222.6990 H   0  0  0  0  0  0  0  0  0  0  0  0
  140.7796   72.7301  224.3050 H   0  0  0  0  0  0  0  0  0  0  0  0
  141.7745   72.0883  226.5015 H   0  0  0  0  0  0  0  0  0  0  0  0
  141.9542   70.4817  228.2352 H   0  0  0  0  0  0  0  0  0  0  0  0
  139.7574   66.7903  227.9685 H   0  0  0  0  0  0  0  0  0  0  0  0
  138.8277   67.5232  225.7993 H   0  0  0  0  0  0  0  0  0  0  0  0
  1  2  2  0
  2  3  1  0
  3  4  1  0
  4  5  1  0
  5  6  2  0
  5  7  1  0
  7  8  1  0
  8  9  1  0
  9 10  1  0
  9 11  1  0
 11 12  1  0
 12 13  1  0
 13 14  1  0
  2 15  1  0
 15 16  2  0
 16 17  1  0
 17 18  2  0
 18 19  1  0
 19 20  2  0
 20 21  1  0
 20 22  1  0
 22 23  2  0
 23 24  1  0
 24 25  2  0
 12  7  1  0
 25 15  1  0
 24 18  1  0
  3 26  1  0
  4 27  1  0
  4 28  1  0
  8 29  1  0
  8 30  1  0
  9 31  1  1
 10 32  1  0
 11 33  1  0
 11 34  1  0
 12 35  1  6
 13 36  1  0
 13 37  1  0
 14 38  1  0
 16 39  1  0
 17 40  1  0
 19 41  1  0
 22 42  1  0
 23 43  1  0
M  END
>  <smiles>  (14) 
O=C(NCC(=O)N1C[C@H](O)C[C@@H]1CO)c1ccc2cc(F)ccc2n1

>  <score_type>  (14) 
oracle

>  <origin>  (14) 
autodockgpu

>  <m_score__min__energy>  (14) 
-7.5599999999999996

>  <m_primary>  (14) 
energy

>  <rmsd>  (14) 
3.4231357614034836

>  <m_score__min__rmsd>  (14) 
3.4231357614034836

>  <meeko>  (14) 
{"free_energy": -5.16, "intermolecular_energy": -7.25, "internal_energy": -3.68, "cluster_size": 8, "cluster_id": 5, "rank_in_cluster": 5}

>  <energy>  (14) 
-6.67

>  <cluster_rmsd>  (14) 
0.0

>  <cluster>  (14) 
2

$$$$

     RDKit          3D

 43 45  0  0  0  0  0  0  0  0999 V2000
  140.8950   71.5440  221.2430 O   0  0  0  0  0  0  0  0  0  0  0  0
  140.3100   72.0430  222.2410 C   0  0  0  0  0  0  0  0  0  0  0  0
  139.8070   73.3720  222.2180 N   0  0  0  0  0  0  0  0  0  0  0  0
  139.9220   74.2490  221.0700 C   0  0  0  0  0  0  0  0  0  0  0  0
  141.2800   74.8480  221.1030 C   0  0  0  0  0  0  0  0  0  0  0  0
  141.4470   75.8620  221.8620 O   0  0  0  0  0  0  0  0  0  0  0  0
  142.3590   74.3330  220.3340 N   0  0  0  0  0  0  0  0  0  0  0  0
  143.2960   73.3520  220.8350 C   0  0  0  0  0  0  0  0  0  0  0  0
  144.2750   73.0960  219.7060 C   0  0  2  0  0  0  0  0  0  0  0  0
  145.4900   73.7750  219.9170 O   0  0  0  0  0  0  0  0  0  0  0  0
  143.5480   73.6100  218.4960 C   0  0  0  0  0  0  0  0  0  0  0  0
  142.6620   74.7100  218.9780 C   0  0  2  0  0  0  0  0  0  0  0  0
  143.3070   76.0730  218.8580 C   0  0  0  0  0  0  0  0  0  0  0  0
  143.9490   76.3830  220.0800 O   0  0  0  0  0  0  0  0  0  0  0  0
  140.1460   71.2280  223.4540 C   0  0  0  0  0  0  0  0  0  0  0  0
  139.5210   70.0020  223.3820 C   0  0  0  0  0  0  0  0  0  0  0  0
  139.3420   69.1950  224.4960 C   0  0  0  0  0  0  0  0  0  0  0  0
  139.8180   69.6770  225.6890 C   0  0  0  0  0  0  0  0  0  0  0  0
  139.6630   68.9080  226.8270 C   0  0  0  0  0  0  0  0  0  0  0  0
  140.1300   69.3540  228.0620 C   0  0  0  0  0  0  0  0  0  0  0  0
  139.9900   68.6200  229.1930 F   0  0  0  0  0  0  0  0  0  0  0  0
  140.7560   70.6040  228.0860 C   0  0  0  0  0  0  0  0  0  0  0  0
  140.9010   71.3580  226.9260 C   0  0  0  0  0  0  0  0  0  0  0  0
  140.4320   70.9010  225.7130 C   0  0  0  0  0  0  0  0  0  0  0  0
  140.6060   71.6840  224.6340 N   0  0  0  0  0  0  0  0  0  0  0  0
  139.3270   73.7100  223.1060 H   0  0  0  0  0  0  0  0  0  0  0  0
  139.7874   73.6735  220.1423 H   0  0  0  0  0  0  0  0  0  0  0  0
  139.1509   75.0329  221.1014 H   0  0  0  0  0  0  0  0  0  0  0  0
  143.8237   73.7430  221.7174 H   0  0  0  0  0  0  0  0  0  0  0  0
  142.7857   72.4277  221.1437 H   0  0  0  0  0  0  0  0  0  0  0  0
  144.5590   72.0376  219.6110 H   0  0  0  0  0  0  0  0  0  0  0  0
  145.2990   74.7300  219.7040 H   0  0  0  0  0  0  0  0  0  0  0  0
  144.2647   73.9946  217.7554 H   0  0  0  0  0  0  0  0  0  0  0  0
  142.9678   72.8127  218.0086 H   0  0  0  0  0  0  0  0  0  0  0  0
  141.7513   74.8201  218.3710 H   0  0  0  0  0  0  0  0  0  0  0  0
  144.0470   76.0614  218.0442 H   0  0  0  0  0  0  0  0  0  0  0  0
  142.5411   76.8306  218.6356 H   0  0  0  0  0  0  0  0  0  0  0  0
  143.2750   76.4070  220.8210 H   0  0  0  0  0  0  0  0  0  0  0  0
  139.1512   69.6511  222.4073 H   0  0  0  0  0  0  0  0  0  0  0  0
  138.8431   68.2171  224.4263 H   0  0  0  0  0  0  0  0  0  0  0  0
  139.1640   67.9302  226.7569 H   0  0  0  0  0  0  0  0  0  0  0  0
  141.1404   70.9979  229.0384 H   0  0  0  0  0  0  0  0  0  0  0  0
  141.3993   72.3373  226.9777 H   0  0  0  0  0  0  0  0  0  0  0  0
  1  2  2  0
  2  3  1  0
  3  4  1  0
  4  5  1  0
  5  6  2  0
  5  7  1  0
  7  8  1  0
  8  9  1  0
  9 10  1  0
  9 11  1  0
 11 12  1  0
 12 13  1  0
 13 14  1  0
  2 15  1  0
 15 16  2  0
 16 17  1  0
 17 18  2  0
 18 19  1  0
 19 20  2  0
 20 21  1  0
 20 22  1  0
 22 23  2  0
 23 24  1  0
 24 25  2  0
 12  7  1  0
 25 15  1  0
 24 18  1  0
  3 26  1  0
  4 27  1  0
  4 28  1  0
  8 29  1  0
  8 30  1  0
  9 31  1  6
 10 32  1  0
 11 33  1  0
 11 34  1  0
 12 35  1  6
 13 36  1  0
 13 37  1  0
 14 38  1  0
 16 39  1  0
 17 40  1  0
 19 41  1  0
 22 42  1  0
 23 43  1  0
M  END
>  <smiles>  (15) 
O=C(NCC(=O)N1C[C@H](O)C[C@@H]1CO)c1ccc2cc(F)ccc2n1

>  <score_type>  (15) 
oracle

>  <origin>  (15) 
autodockgpu

>  <m_score__min__energy>  (15) 
-7.5599999999999996

>  <m_primary>  (15) 
energy

>  <rmsd>  (15) 
2.86517135807187

>  <m_score__min__rmsd>  (15) 
2.86517135807187

>  <meeko>  (15) 
{"free_energy": -6.51, "intermolecular_energy": -8.6, "internal_energy": -2.59, "cluster_size": 13, "cluster_id": 1, "rank_in_cluster": 6}

>  <energy>  (15) 
-6.56

>  <cluster_rmsd>  (15) 
0.67

>  <cluster>  (15) 
2

$$$$

     RDKit          3D

 43 45  0  0  0  0  0  0  0  0999 V2000
  140.2850   71.4940  221.1140 O   0  0  0  0  0  0  0  0  0  0  0  0
  140.0290   72.0250  222.2280 C   0  0  0  0  0  0  0  0  0  0  0  0
  139.7690   73.4170  222.3430 N   0  0  0  0  0  0  0  0  0  0  0  0
  139.7750   74.3260  221.2140 C   0  0  0  0  0  0  0  0  0  0  0  0
  139.6180   75.7020  221.7520 C   0  0  0  0  0  0  0  0  0  0  0  0
  138.9710   75.8250  222.8460 O   0  0  0  0  0  0  0  0  0  0  0  0
  140.1540   76.8430  221.0950 N   0  0  0  0  0  0  0  0  0  0  0  0
  140.6420   76.8200  219.7330 C   0  0  0  0  0  0  0  0  0  0  0  0
  141.1250   78.2280  219.4410 C   0  0  2  0  0  0  0  0  0  0  0  0
  142.5280   78.3140  219.5180 O   0  0  0  0  0  0  0  0  0  0  0  0
  140.4540   79.0500  220.5020 C   0  0  0  0  0  0  0  0  0  0  0  0
  140.2810   78.1520  221.6810 C   0  0  2  0  0  0  0  0  0  0  0  0
  141.4200   78.2630  222.6700 C   0  0  0  0  0  0  0  0  0  0  0  0
  142.4710   79.0000  222.0760 O   0  0  0  0  0  0  0  0  0  0  0  0
  139.9990   71.1810  223.4320 C   0  0  0  0  0  0  0  0  0  0  0  0
  139.5250   69.8900  223.3570 C   0  0  0  0  0  0  0  0  0  0  0  0
  139.4770   69.0540  224.4630 C   0  0  0  0  0  0  0  0  0  0  0  0
  139.9270   69.5750  225.6500 C   0  0  0  0  0  0  0  0  0  0  0  0
  139.8980   68.7790  226.7800 C   0  0  0  0  0  0  0  0  0  0  0  0
  140.3440   69.2620  228.0080 C   0  0  0  0  0  0  0  0  0  0  0  0
  140.3270   68.5030  229.1300 F   0  0  0  0  0  0  0  0  0  0  0  0
  140.8150   70.5780  228.0350 C   0  0  0  0  0  0  0  0  0  0  0  0
  140.8340   71.3580  226.8830 C   0  0  0  0  0  0  0  0  0  0  0  0
  140.3880   70.8630  225.6760 C   0  0  0  0  0  0  0  0  0  0  0  0
  140.4360   71.6750  224.6050 N   0  0  0  0  0  0  0  0  0  0  0  0
  139.5620   73.7790  223.3230 H   0  0  0  0  0  0  0  0  0  0  0  0
  140.7263   74.2417  220.6683 H   0  0  0  0  0  0  0  0  0  0  0  0
  138.9588   74.0856  220.5169 H   0  0  0  0  0  0  0  0  0  0  0  0
  141.4707   76.1032  219.6355 H   0  0  0  0  0  0  0  0  0  0  0  0
  139.8575   76.5076  219.0280 H   0  0  0  0  0  0  0  0  0  0  0  0
  140.8788   78.5682  218.4243 H   0  0  0  0  0  0  0  0  0  0  0  0
  142.7150   78.8490  220.3380 H   0  0  0  0  0  0  0  0  0  0  0  0
  141.0819   79.9127  220.7693 H   0  0  0  0  0  0  0  0  0  0  0  0
  139.4873   79.4415  220.1525 H   0  0  0  0  0  0  0  0  0  0  0  0
  139.4042   78.4147  222.2911 H   0  0  0  0  0  0  0  0  0  0  0  0
  141.0728   78.7799  223.5768 H   0  0  0  0  0  0  0  0  0  0  0  0
  141.7763   77.2588  222.9430 H   0  0  0  0  0  0  0  0  0  0  0  0
  143.1040   78.3760  221.6130 H   0  0  0  0  0  0  0  0  0  0  0  0
  139.1725   69.5089  222.3872 H   0  0  0  0  0  0  0  0  0  0  0  0
  139.0969   68.0242  224.3919 H   0  0  0  0  0  0  0  0  0  0  0  0
  139.5173   67.7495  226.7083 H   0  0  0  0  0  0  0  0  0  0  0  0
  141.1765   71.0038  228.9826 H   0  0  0  0  0  0  0  0  0  0  0  0
  141.2122   72.3896  226.9363 H   0  0  0  0  0  0  0  0  0  0  0  0
  1  2  2  0
  2  3  1  0
  3  4  1  0
  4  5  1  0
  5  6  2  0
  5  7  1  0
  7  8  1  0
  8  9  1  0
  9 10  1  0
  9 11  1  0
 11 12  1  0
 12 13  1  0
 13 14  1  0
  2 15  1  0
 15 16  2  0
 16 17  1  0
 17 18  2  0
 18 19  1  0
 19 20  2  0
 20 21  1  0
 20 22  1  0
 22 23  2  0
 23 24  1  0
 24 25  2  0
 12  7  1  0
 25 15  1  0
 24 18  1  0
  3 26  1  0
  4 27  1  0
  4 28  1  0
  8 29  1  0
  8 30  1  0
  9 31  1  6
 10 32  1  0
 11 33  1  0
 11 34  1  0
 12 35  1  1
 13 36  1  0
 13 37  1  0
 14 38  1  0
 16 39  1  0
 17 40  1  0
 19 41  1  0
 22 42  1  0
 23 43  1  0
M  END
>  <smiles>  (16) 
O=C(NCC(=O)N1C[C@H](O)C[C@@H]1CO)c1ccc2cc(F)ccc2n1

>  <score_type>  (16) 
oracle

>  <origin>  (16) 
autodockgpu

>  <m_score__min__energy>  (16) 
-7.5599999999999996

>  <m_primary>  (16) 
energy

>  <rmsd>  (16) 
1.9039549268588107

>  <m_score__min__rmsd>  (16) 
1.9039549268588107

>  <meeko>  (16) 
{"free_energy": -6.4, "intermolecular_energy": -8.49, "internal_energy": -2.84, "cluster_size": 18, "cluster_id": 3, "rank_in_cluster": 12}

>  <energy>  (16) 
-6.53

>  <cluster_rmsd>  (16) 
0.74

>  <cluster>  (16) 
2

$$$$

     RDKit          3D

 43 45  0  0  0  0  0  0  0  0999 V2000
  140.4660   74.6470  222.0690 O   0  0  0  0  0  0  0  0  0  0  0  0
  140.5120   75.7360  221.4380 C   0  0  0  0  0  0  0  0  0  0  0  0
  140.9010   75.7870  220.0720 N   0  0  0  0  0  0  0  0  0  0  0  0
  141.2700   74.6150  219.3040 C   0  0  0  0  0  0  0  0  0  0  0  0
  142.6820   74.7900  218.8800 C   0  0  0  0  0  0  0  0  0  0  0  0
  142.9020   75.5970  217.9150 O   0  0  0  0  0  0  0  0  0  0  0  0
  143.7570   74.0990  219.5050 N   0  0  0  0  0  0  0  0  0  0  0  0
  144.6440   74.7140  220.4680 C   0  0  0  0  0  0  0  0  0  0  0  0
  145.6350   73.6380  220.8670 C   0  0  2  0  0  0  0  0  0  0  0  0
  146.8710   73.8140  220.2160 O   0  0  0  0  0  0  0  0  0  0  0  0
  144.9550   72.3680  220.4440 C   0  0  0  0  0  0  0  0  0  0  0  0
  144.1020   72.7210  219.2720 C   0  0  2  0  0  0  0  0  0  0  0  0
  144.8030   72.4890  217.9510 C   0  0  0  0  0  0  0  0  0  0  0  0
  145.9860   73.2630  217.9190 O   0  0  0  0  0  0  0  0  0  0  0  0
  140.1550   76.9810  222.1350 C   0  0  0  0  0  0  0  0  0  0  0  0
  141.1410   77.7690  222.6890 C   0  0  0  0  0  0  0  0  0  0  0  0
  140.8560   78.9510  223.3550 C   0  0  0  0  0  0  0  0  0  0  0  0
  139.5340   79.3080  223.4430 C   0  0  0  0  0  0  0  0  0  0  0  0
  139.2020   80.4790  224.0970 C   0  0  0  0  0  0  0  0  0  0  0  0
  137.8740   80.8830  224.2120 C   0  0  0  0  0  0  0  0  0  0  0  0
  137.5210   82.0260  224.8480 F   0  0  0  0  0  0  0  0  0  0  0  0
  136.9090   80.0520  223.6350 C   0  0  0  0  0  0  0  0  0  0  0  0
  137.2700   78.8790  222.9800 C   0  0  0  0  0  0  0  0  0  0  0  0
  138.5890   78.4940  222.8770 C   0  0  0  0  0  0  0  0  0  0  0  0
  138.8630   77.3470  222.2310 N   0  0  0  0  0  0  0  0  0  0  0  0
  140.9100   76.7510  219.6200 H   0  0  0  0  0  0  0  0  0  0  0  0
  141.1728   73.7123  219.9251 H   0  0  0  0  0  0  0  0  0  0  0  0
  140.6127   74.5003  218.4295 H   0  0  0  0  0  0  0  0  0  0  0  0
  145.1684   75.5679  220.0143 H   0  0  0  0  0  0  0  0  0  0  0  0
  144.0916   75.0970  221.3387 H   0  0  0  0  0  0  0  0  0  0  0  0
  145.8785   73.6500  221.9397 H   0  0  0  0  0  0  0  0  0  0  0  0
  146.7020   74.4930  219.5070 H   0  0  0  0  0  0  0  0  0  0  0  0
  145.7020   71.6129  220.1579 H   0  0  0  0  0  0  0  0  0  0  0  0
  144.3548   71.9437  221.2624 H   0  0  0  0  0  0  0  0  0  0  0  0
  143.2091   72.0840  219.1883 H   0  0  0  0  0  0  0  0  0  0  0  0
  145.0559   71.4233  217.8492 H   0  0  0  0  0  0  0  0  0  0  0  0
  144.1426   72.7825  217.1217 H   0  0  0  0  0  0  0  0  0  0  0  0
  145.8200   74.1560  218.3420 H   0  0  0  0  0  0  0  0  0  0  0  0
  142.1897   77.4491  222.5996 H   0  0  0  0  0  0  0  0  0  0  0  0
  141.6513   79.5727  223.7919 H   0  0  0  0  0  0  0  0  0  0  0  0
  139.9977   81.1009  224.5330 H   0  0  0  0  0  0  0  0  0  0  0  0
  135.8468   80.3303  223.7000 H   0  0  0  0  0  0  0  0  0  0  0  0
  136.4873   78.2466  222.5357 H   0  0  0  0  0  0  0  0  0  0  0  0
  1  2  2  0
  2  3  1  0
  3  4  1  0
  4  5  1  0
  5  6  2  0
  5  7  1  0
  7  8  1  0
  8  9  1  0
  9 10  1  0
  9 11  1  0
 11 12  1  0
 12 13  1  0
 13 14  1  0
  2 15  1  0
 15 16  2  0
 16 17  1  0
 17 18  2  0
 18 19  1  0
 19 20  2  0
 20 21  1  0
 20 22  1  0
 22 23  2  0
 23 24  1  0
 24 25  2  0
 12  7  1  0
 25 15  1  0
 24 18  1  0
  3 26  1  0
  4 27  1  0
  4 28  1  0
  8 29  1  0
  8 30  1  0
  9 31  1  1
 10 32  1  0
 11 33  1  0
 11 34  1  0
 12 35  1  6
 13 36  1  0
 13 37  1  0
 14 38  1  0
 16 39  1  0
 17 40  1  0
 19 41  1  0
 22 42  1  0
 23 43  1  0
M  END
>  <smiles>  (17) 
O=C(NCC(=O)N1C[C@H](O)C[C@@H]1CO)c1ccc2cc(F)ccc2n1

>  <score_type>  (17) 
oracle

>  <origin>  (17) 
autodockgpu

>  <m_score__min__energy>  (17) 
-7.5599999999999996

>  <m_primary>  (17) 
energy

>  <rmsd>  (17) 
8.216382925475553

>  <m_score__min__rmsd>  (17) 
8.216382925475553

>  <meeko>  (17) 
{"free_energy": -6.4, "intermolecular_energy": -8.49, "internal_energy": -2.21, "cluster_size": 2, "cluster_id": 4, "rank_in_cluster": 2}

>  <energy>  (17) 
-6.39

>  <cluster_rmsd>  (17) 
0.72

>  <cluster>  (17) 
2

$$$$

     RDKit          3D

 43 45  0  0  0  0  0  0  0  0999 V2000
  141.0680   71.6770  220.8190 O   0  0  0  0  0  0  0  0  0  0  0  0
  140.7640   72.5820  221.6420 C   0  0  0  0  0  0  0  0  0  0  0  0
  140.1390   72.2770  222.8820 N   0  0  0  0  0  0  0  0  0  0  0  0
  139.8050   70.9300  223.2970 C   0  0  0  0  0  0  0  0  0  0  0  0
  140.0940   70.8300  224.7510 C   0  0  0  0  0  0  0  0  0  0  0  0
  140.2570   71.9270  225.3850 O   0  0  0  0  0  0  0  0  0  0  0  0
  140.1890   69.5820  225.4250 N   0  0  0  0  0  0  0  0  0  0  0  0
  139.5400   68.3760  224.9600 C   0  0  0  0  0  0  0  0  0  0  0  0
  139.8930   67.2990  225.9670 C   0  0  2  0  0  0  0  0  0  0  0  0
  138.8240   67.0540  226.8520 O   0  0  0  0  0  0  0  0  0  0  0  0
  141.0880   67.8680  226.6770 C   0  0  0  0  0  0  0  0  0  0  0  0
  140.9300   69.3510  226.6380 C   0  0  2  0  0  0  0  0  0  0  0  0
  140.2510   69.8970  227.8740 C   0  0  0  0  0  0  0  0  0  0  0  0
  139.7680   68.8150  228.6470 O   0  0  0  0  0  0  0  0  0  0  0  0
  141.0650   73.9820  221.3080 C   0  0  0  0  0  0  0  0  0  0  0  0
  141.8820   74.2750  220.2370 C   0  0  0  0  0  0  0  0  0  0  0  0
  142.1950   75.5780  219.8800 C   0  0  0  0  0  0  0  0  0  0  0  0
  141.6510   76.5760  220.6490 C   0  0  0  0  0  0  0  0  0  0  0  0
  141.9350   77.8910  220.3310 C   0  0  0  0  0  0  0  0  0  0  0  0
  141.4070   78.9390  221.0810 C   0  0  0  0  0  0  0  0  0  0  0  0
  141.6700   80.2370  220.7920 F   0  0  0  0  0  0  0  0  0  0  0  0
  140.5840   78.5930  222.1580 C   0  0  0  0  0  0  0  0  0  0  0  0
  140.3140   77.2620  222.4560 C   0  0  0  0  0  0  0  0  0  0  0  0
  140.8460   76.2370  221.7020 C   0  0  0  0  0  0  0  0  0  0  0  0
  140.5410   74.9740  222.0500 N   0  0  0  0  0  0  0  0  0  0  0  0
  139.9190   73.1050  223.5140 H   0  0  0  0  0  0  0  0  0  0  0  0
  138.7390   70.7324  223.1108 H   0  0  0  0  0  0  0  0  0  0  0  0
  140.3930   70.1918  222.7319 H   0  0  0  0  0  0  0  0  0  0  0  0
  138.4501   68.5194  224.9194 H   0  0  0  0  0  0  0  0  0  0  0  0
  139.8703   68.1049  223.9464 H   0  0  0  0  0  0  0  0  0  0  0  0
  140.1015   66.3241  225.5021 H   0  0  0  0  0  0  0  0  0  0  0  0
  139.2460   66.9200  227.7450 H   0  0  0  0  0  0  0  0  0  0  0  0
  141.1162   67.5150  227.7185 H   0  0  0  0  0  0  0  0  0  0  0  0
  142.0263   67.5527  226.1972 H   0  0  0  0  0  0  0  0  0  0  0  0
  141.8934   69.8818  226.6367 H   0  0  0  0  0  0  0  0  0  0  0  0
  140.9729   70.4798  228.4649 H   0  0  0  0  0  0  0  0  0  0  0  0
  139.4148   70.5495  227.5825 H   0  0  0  0  0  0  0  0  0  0  0  0
  138.9730   68.4040  228.1960 H   0  0  0  0  0  0  0  0  0  0  0  0
  142.2999   73.4471  219.6454 H   0  0  0  0  0  0  0  0  0  0  0  0
  142.8472   75.8006  219.0227 H   0  0  0  0  0  0  0  0  0  0  0  0
  142.5872   78.1128  219.4734 H   0  0  0  0  0  0  0  0  0  0  0  0
  140.1434   79.3867  222.7792 H   0  0  0  0  0  0  0  0  0  0  0  0
  139.6634   77.0218  223.3098 H   0  0  0  0  0  0  0  0  0  0  0  0
  1  2  2  0
  2  3  1  0
  3  4  1  0
  4  5  1  0
  5  6  2  0
  5  7  1  0
  7  8  1  0
  8  9  1  0
  9 10  1  0
  9 11  1  0
 11 12  1  0
 12 13  1  0
 13 14  1  0
  2 15  1  0
 15 16  2  0
 16 17  1  0
 17 18  2  0
 18 19  1  0
 19 20  2  0
 20 21  1  0
 20 22  1  0
 22 23  2  0
 23 24  1  0
 24 25  2  0
 12  7  1  0
 25 15  1  0
 24 18  1  0
  3 26  1  0
  4 27  1  0
  4 28  1  0
  8 29  1  0
  8 30  1  0
  9 31  1  6
 10 32  1  0
 11 33  1  0
 11 34  1  0
 12 35  1  6
 13 36  1  0
 13 37  1  0
 14 38  1  0
 16 39  1  0
 17 40  1  0
 19 41  1  0
 22 42  1  0
 23 43  1  0
M  END
>  <smiles>  (18) 
O=C(NCC(=O)N1C[C@H](O)C[C@@H]1CO)c1ccc2cc(F)ccc2n1

>  <score_type>  (18) 
oracle

>  <origin>  (18) 
autodockgpu

>  <m_score__min__energy>  (18) 
-7.5599999999999996

>  <m_primary>  (18) 
energy

>  <rmsd>  (18) 
8.899508262876791

>  <m_score__min__rmsd>  (18) 
8.899508262876791

>  <meeko>  (18) 
{"free_energy": -6.39, "intermolecular_energy": -8.48, "internal_energy": -2.97, "cluster_size": 5, "cluster_id": 2, "rank_in_cluster": 4}

>  <energy>  (18) 
-6.05

>  <cluster_rmsd>  (18) 
0.83

>  <cluster>  (18) 
2

$$$$

     RDKit          3D

 43 45  0  0  0  0  0  0  0  0999 V2000
  139.2840   71.1310  221.0940 O   0  0  0  0  0  0  0  0  0  0  0  0
  139.4350   71.7280  222.1930 C   0  0  0  0  0  0  0  0  0  0  0  0
  139.4770   73.1470  222.2660 N   0  0  0  0  0  0  0  0  0  0  0  0
  139.3520   74.0100  221.1090 C   0  0  0  0  0  0  0  0  0  0  0  0
  140.1360   75.2410  221.3870 C   0  0  0  0  0  0  0  0  0  0  0  0
  140.0820   75.7050  222.5760 O   0  0  0  0  0  0  0  0  0  0  0  0
  140.9150   75.8900  220.3900 N   0  0  0  0  0  0  0  0  0  0  0  0
  142.1300   75.3300  219.8400 C   0  0  0  0  0  0  0  0  0  0  0  0
  142.6340   76.3410  218.8300 C   0  0  2  0  0  0  0  0  0  0  0  0
  143.6980   77.1020  219.3540 O   0  0  0  0  0  0  0  0  0  0  0  0
  141.4250   77.1870  218.5530 C   0  0  0  0  0  0  0  0  0  0  0  0
  140.6080   77.1680  219.8020 C   0  0  2  0  0  0  0  0  0  0  0  0
  140.9070   78.3390  220.7110 C   0  0  0  0  0  0  0  0  0  0  0  0
  142.1850   78.1560  221.2880 O   0  0  0  0  0  0  0  0  0  0  0  0
  139.5710   70.9360  223.4240 C   0  0  0  0  0  0  0  0  0  0  0  0
  139.1470   69.6250  223.4500 C   0  0  0  0  0  0  0  0  0  0  0  0
  139.2540   68.8350  224.5850 C   0  0  0  0  0  0  0  0  0  0  0  0
  139.8050   69.4230  225.6960 C   0  0  0  0  0  0  0  0  0  0  0  0
  139.9320   68.6740  226.8510 C   0  0  0  0  0  0  0  0  0  0  0  0
  140.4850   69.2260  228.0050 C   0  0  0  0  0  0  0  0  0  0  0  0
  140.6210   68.5150  229.1500 F   0  0  0  0  0  0  0  0  0  0  0  0
  140.9000   70.5590  227.9310 C   0  0  0  0  0  0  0  0  0  0  0  0
  140.7620   71.2900  226.7550 C   0  0  0  0  0  0  0  0  0  0  0  0
  140.2110   70.7280  225.6230 C   0  0  0  0  0  0  0  0  0  0  0  0
  140.1090   71.4950  224.5230 N   0  0  0  0  0  0  0  0  0  0  0  0
  139.6090   73.5650  223.2360 H   0  0  0  0  0  0  0  0  0  0  0  0
  139.7504   73.5037  220.2174 H   0  0  0  0  0  0  0  0  0  0  0  0
  138.2967   74.2558  220.9196 H   0  0  0  0  0  0  0  0  0  0  0  0
  142.8755   75.1789  220.6346 H   0  0  0  0  0  0  0  0  0  0  0  0
  141.9480   74.3503  219.3741 H   0  0  0  0  0  0  0  0  0  0  0  0
  143.0419   75.8761  217.9203 H   0  0  0  0  0  0  0  0  0  0  0  0
  143.5190   77.1670  220.3320 H   0  0  0  0  0  0  0  0  0  0  0  0
  141.7274   78.2165  218.3109 H   0  0  0  0  0  0  0  0  0  0  0  0
  140.8544   76.8018  217.6951 H   0  0  0  0  0  0  0  0  0  0  0  0
  139.5312   77.2809  219.6080 H   0  0  0  0  0  0  0  0  0  0  0  0
  140.8952   79.2716  220.1278 H   0  0  0  0  0  0  0  0  0  0  0  0
  140.1458   78.4002  221.5027 H   0  0  0  0  0  0  0  0  0  0  0  0
  142.8850   78.5700  220.7020 H   0  0  0  0  0  0  0  0  0  0  0  0
  138.7088   69.1903  222.5395 H   0  0  0  0  0  0  0  0  0  0  0  0
  138.9140   67.7889  224.5943 H   0  0  0  0  0  0  0  0  0  0  0  0
  139.5919   67.6279  226.8593 H   0  0  0  0  0  0  0  0  0  0  0  0
  141.3428   71.0378  228.8168 H   0  0  0  0  0  0  0  0  0  0  0  0
  141.0991   72.3367  226.7280 H   0  0  0  0  0  0  0  0  0  0  0  0
  1  2  2  0
  2  3  1  0
  3  4  1  0
  4  5  1  0
  5  6  2  0
  5  7  1  0
  7  8  1  0
  8  9  1  0
  9 10  1  0
  9 11  1  0
 11 12  1  0
 12 13  1  0
 13 14  1  0
  2 15  1  0
 15 16  2  0
 16 17  1  0
 17 18  2  0
 18 19  1  0
 19 20  2  0
 20 21  1  0
 20 22  1  0
 22 23  2  0
 23 24  1  0
 24 25  2  0
 12  7  1  0
 25 15  1  0
 24 18  1  0
  3 26  1  0
  4 27  1  0
  4 28  1  0
  8 29  1  0
  8 30  1  0
  9 31  1  6
 10 32  1  0
 11 33  1  0
 11 34  1  0
 12 35  1  6
 13 36  1  0
 13 37  1  0
 14 38  1  0
 16 39  1  0
 17 40  1  0
 19 41  1  0
 22 42  1  0
 23 43  1  0
M  END
>  <smiles>  (19) 
O=C(NCC(=O)N1C[C@H](O)C[C@@H]1CO)c1ccc2cc(F)ccc2n1

>  <score_type>  (19) 
oracle

>  <origin>  (19) 
autodockgpu

>  <m_score__min__energy>  (19) 
-7.5599999999999996

>  <m_primary>  (19) 
energy

>  <rmsd>  (19) 
1.5205499059183958

>  <m_score__min__rmsd>  (19) 
1.5205499059183958

>  <meeko>  (19) 
{"free_energy": -6.2, "intermolecular_energy": -8.29, "internal_energy": -2.94, "cluster_size": 18, "cluster_id": 3, "rank_in_cluster": 13}

>  <energy>  (19) 
-6.62

>  <cluster_rmsd>  (19) 
0.0

>  <cluster>  (19) 
3

$$$$

     RDKit          3D

 43 45  0  0  0  0  0  0  0  0999 V2000
  139.2350   71.1720  221.1960 O   0  0  0  0  0  0  0  0  0  0  0  0
  139.3970   71.7540  222.3020 C   0  0  0  0  0  0  0  0  0  0  0  0
  139.4360   73.1720  222.3950 N   0  0  0  0  0  0  0  0  0  0  0  0
  139.2970   74.0510  221.2520 C   0  0  0  0  0  0  0  0  0  0  0  0
  140.1660   75.2310  221.4920 C   0  0  0  0  0  0  0  0  0  0  0  0
  140.0190   75.8420  222.6040 O   0  0  0  0  0  0  0  0  0  0  0  0
  141.1220   75.6800  220.5400 N   0  0  0  0  0  0  0  0  0  0  0  0
  142.3970   75.0300  220.3270 C   0  0  0  0  0  0  0  0  0  0  0  0
  143.0960   75.8290  219.2460 C   0  0  2  0  0  0  0  0  0  0  0  0
  144.0760   76.6820  219.7910 O   0  0  0  0  0  0  0  0  0  0  0  0
  141.9770   76.6000  218.6070 C   0  0  0  0  0  0  0  0  0  0  0  0
  140.9580   76.8190  219.6750 C   0  0  2  0  0  0  0  0  0  0  0  0
  141.1300   78.1450  220.3820 C   0  0  0  0  0  0  0  0  0  0  0  0
  141.8860   77.9400  221.5600 O   0  0  0  0  0  0  0  0  0  0  0  0
  139.5480   70.9450  223.5200 C   0  0  0  0  0  0  0  0  0  0  0  0
  139.1380   69.6290  223.5280 C   0  0  0  0  0  0  0  0  0  0  0  0
  139.2590   68.8230  224.6500 C   0  0  0  0  0  0  0  0  0  0  0  0
  139.8100   69.3990  225.7670 C   0  0  0  0  0  0  0  0  0  0  0  0
  139.9510   68.6350  226.9100 C   0  0  0  0  0  0  0  0  0  0  0  0
  140.5040   69.1740  228.0690 C   0  0  0  0  0  0  0  0  0  0  0  0
  140.6540   68.4470  229.2030 F   0  0  0  0  0  0  0  0  0  0  0  0
  140.9050   70.5130  228.0130 C   0  0  0  0  0  0  0  0  0  0  0  0
  140.7530   71.2600  226.8500 C   0  0  0  0  0  0  0  0  0  0  0  0
  140.2020   70.7090  225.7120 C   0  0  0  0  0  0  0  0  0  0  0  0
  140.0860   71.4920  224.6250 N   0  0  0  0  0  0  0  0  0  0  0  0
  139.5760   73.5770  223.3700 H   0  0  0  0  0  0  0  0  0  0  0  0
  139.6141   73.5304  220.3364 H   0  0  0  0  0  0  0  0  0  0  0  0
  138.2490   74.3596  221.1241 H   0  0  0  0  0  0  0  0  0  0  0  0
  142.9903   75.0389  221.2532 H   0  0  0  0  0  0  0  0  0  0  0  0
  142.2693   73.9779  220.0323 H   0  0  0  0  0  0  0  0  0  0  0  0
  143.6403   75.1989  218.5272 H   0  0  0  0  0  0  0  0  0  0  0  0
  143.6220   77.1630  220.5370 H   0  0  0  0  0  0  0  0  0  0  0  0
  142.3462   77.5647  218.2288 H   0  0  0  0  0  0  0  0  0  0  0  0
  141.5508   76.0534  217.7529 H   0  0  0  0  0  0  0  0  0  0  0  0
  139.9342   76.8879  219.2785 H   0  0  0  0  0  0  0  0  0  0  0  0
  141.6575   78.8497  219.7224 H   0  0  0  0  0  0  0  0  0  0  0  0
  140.1449   78.5618  220.6385 H   0  0  0  0  0  0  0  0  0  0  0  0
  141.7490   77.0050  221.8920 H   0  0  0  0  0  0  0  0  0  0  0  0
  138.6998   69.2036  222.6131 H   0  0  0  0  0  0  0  0  0  0  0  0
  138.9295   67.7735  224.6448 H   0  0  0  0  0  0  0  0  0  0  0  0
  139.6215   67.5855  226.9042 H   0  0  0  0  0  0  0  0  0  0  0  0
  141.3479   70.9827  228.9036 H   0  0  0  0  0  0  0  0  0  0  0  0
  141.0785   72.3107  226.8374 H   0  0  0  0  0  0  0  0  0  0  0  0
  1  2  2  0
  2  3  1  0
  3  4  1  0
  4  5  1  0
  5  6  2  0
  5  7  1  0
  7  8  1  0
  8  9  1  0
  9 10  1  0
  9 11  1  0
 11 12  1  0
 12 13  1  0
 13 14  1  0
  2 15  1  0
 15 16  2  0
 16 17  1  0
 17 18  2  0
 18 19  1  0
 19 20  2  0
 20 21  1  0
 20 22  1  0
 22 23  2  0
 23 24  1  0
 24 25  2  0
 12  7  1  0
 25 15  1  0
 24 18  1  0
  3 26  1  0
  4 27  1  0
  4 28  1  0
  8 29  1  0
  8 30  1  0
  9 31  1  6
 10 32  1  0
 11 33  1  0
 11 34  1  0
 12 35  1  6
 13 36  1  0
 13 37  1  0
 14 38  1  0
 16 39  1  0
 17 40  1  0
 19 41  1  0
 22 42  1  0
 23 43  1  0
M  END
>  <smiles>  (20) 
O=C(NCC(=O)N1C[C@H](O)C[C@@H]1CO)c1ccc2cc(F)ccc2n1

>  <score_type>  (20) 
oracle

>  <origin>  (20) 
autodockgpu

>  <m_score__min__energy>  (20) 
-7.5599999999999996

>  <m_primary>  (20) 
energy

>  <rmsd>  (20) 
1.7265701801980264

>  <m_score__min__rmsd>  (20) 
1.7265701801980264

>  <meeko>  (20) 
{"free_energy": -6.44, "intermolecular_energy": -8.53, "internal_energy": -2.87, "cluster_size": 18, "cluster_id": 3, "rank_in_cluster": 10}

>  <energy>  (20) 
-6.58

>  <cluster_rmsd>  (20) 
0.46

>  <cluster>  (20) 
3

$$$$

     RDKit          3D

 43 45  0  0  0  0  0  0  0  0999 V2000
  139.3200   71.0690  220.9550 O   0  0  0  0  0  0  0  0  0  0  0  0
  139.8610   71.5950  221.9640 C   0  0  0  0  0  0  0  0  0  0  0  0
  140.4880   72.8680  221.8910 N   0  0  0  0  0  0  0  0  0  0  0  0
  140.5580   73.6550  220.6760 C   0  0  0  0  0  0  0  0  0  0  0  0
  140.7440   75.0730  221.0760 C   0  0  0  0  0  0  0  0  0  0  0  0
  140.6790   75.3360  222.3250 O   0  0  0  0  0  0  0  0  0  0  0  0
  140.9840   76.1070  220.1300 N   0  0  0  0  0  0  0  0  0  0  0  0
  142.0420   76.0530  219.1440 C   0  0  0  0  0  0  0  0  0  0  0  0
  141.9460   77.3460  218.3590 C   0  0  2  0  0  0  0  0  0  0  0  0
  142.9240   78.2710  218.7720 O   0  0  0  0  0  0  0  0  0  0  0  0
  140.5560   77.8290  218.6590 C   0  0  0  0  0  0  0  0  0  0  0  0
  140.2240   77.3240  220.0230 C   0  0  2  0  0  0  0  0  0  0  0  0
  140.5370   78.3300  221.1090 C   0  0  0  0  0  0  0  0  0  0  0  0
  141.8260   78.0610  221.6230 O   0  0  0  0  0  0  0  0  0  0  0  0
  139.8410   70.8710  223.2440 C   0  0  0  0  0  0  0  0  0  0  0  0
  139.2120   69.6480  223.3340 C   0  0  0  0  0  0  0  0  0  0  0  0
  139.1660   68.9250  224.5170 C   0  0  0  0  0  0  0  0  0  0  0  0
  139.7800   69.4870  225.6080 C   0  0  0  0  0  0  0  0  0  0  0  0
  139.7600   68.8030  226.8090 C   0  0  0  0  0  0  0  0  0  0  0  0
  140.3690   69.3330  227.9450 C   0  0  0  0  0  0  0  0  0  0  0  0
  140.3640   68.6830  229.1340 F   0  0  0  0  0  0  0  0  0  0  0  0
  140.9940   70.5750  227.8050 C   0  0  0  0  0  0  0  0  0  0  0  0
  141.0010   71.2430  226.5840 C   0  0  0  0  0  0  0  0  0  0  0  0
  140.3920   70.7040  225.4710 C   0  0  0  0  0  0  0  0  0  0  0  0
  140.4380   71.4060  224.3250 N   0  0  0  0  0  0  0  0  0  0  0  0
  140.9190   73.2340  222.7930 H   0  0  0  0  0  0  0  0  0  0  0  0
  141.4077   73.3231  220.0614 H   0  0  0  0  0  0  0  0  0  0  0  0
  139.6395   73.5360  220.0825 H   0  0  0  0  0  0  0  0  0  0  0  0
  143.0218   75.9775  219.6382 H   0  0  0  0  0  0  0  0  0  0  0  0
  141.9390   75.1750  218.4894 H   0  0  0  0  0  0  0  0  0  0  0  0
  142.1246   77.2123  217.2819 H   0  0  0  0  0  0  0  0  0  0  0  0
  142.9640   78.1870  219.7650 H   0  0  0  0  0  0  0  0  0  0  0  0
  140.5223   78.9283  218.6410 H   0  0  0  0  0  0  0  0  0  0  0  0
  139.8358   77.4656  217.9112 H   0  0  0  0  0  0  0  0  0  0  0  0
  139.1471   77.1468  220.1604 H   0  0  0  0  0  0  0  0  0  0  0  0
  140.5113   79.3466  220.6895 H   0  0  0  0  0  0  0  0  0  0  0  0
  139.7910   78.2545  221.9139 H   0  0  0  0  0  0  0  0  0  0  0  0
  141.8640   77.1220  221.9720 H   0  0  0  0  0  0  0  0  0  0  0  0
  138.7301   69.2311  222.4374 H   0  0  0  0  0  0  0  0  0  0  0  0
  138.6621   67.9491  224.5776 H   0  0  0  0  0  0  0  0  0  0  0  0
  139.2564   67.8269  226.8690 H   0  0  0  0  0  0  0  0  0  0  0  0
  141.4888   71.0324  228.6744 H   0  0  0  0  0  0  0  0  0  0  0  0
  141.5018   72.2192  226.5057 H   0  0  0  0  0  0  0  0  0  0  0  0
  1  2  2  0
  2  3  1  0
  3  4  1  0
  4  5  1  0
  5  6  2  0
  5  7  1  0
  7  8  1  0
  8  9  1  0
  9 10  1  0
  9 11  1  0
 11 12  1  0
 12 13  1  0
 13 14  1  0
  2 15  1  0
 15 16  2  0
 16 17  1  0
 17 18  2  0
 18 19  1  0
 19 20  2  0
 20 21  1  0
 20 22  1  0
 22 23  2  0
 23 24  1  0
 24 25  2  0
 12  7  1  0
 25 15  1  0
 24 18  1  0
  3 26  1  0
  4 27  1  0
  4 28  1  0
  8 29  1  0
  8 30  1  0
  9 31  1  6
 10 32  1  0
 11 33  1  0
 11 34  1  0
 12 35  1  6
 13 36  1  0
 13 37  1  0
 14 38  1  0
 16 39  1  0
 17 40  1  0
 19 41  1  0
 22 42  1  0
 23 43  1  0
M  END
>  <smiles>  (21) 
O=C(NCC(=O)N1C[C@H](O)C[C@@H]1CO)c1ccc2cc(F)ccc2n1

>  <score_type>  (21) 
oracle

>  <origin>  (21) 
autodockgpu

>  <m_score__min__energy>  (21) 
-7.5599999999999996

>  <m_primary>  (21) 
energy

>  <rmsd>  (21) 
1.6863732797836521

>  <m_score__min__rmsd>  (21) 
1.6863732797836521

>  <meeko>  (21) 
{"free_energy": -5.52, "intermolecular_energy": -7.61, "internal_energy": -3.22, "cluster_size": 18, "cluster_id": 3, "rank_in_cluster": 18}

>  <energy>  (21) 
-6.57

>  <cluster_rmsd>  (21) 
0.46

>  <cluster>  (21) 
3

$$$$

     RDKit          3D

 43 45  0  0  0  0  0  0  0  0999 V2000
  140.8580   72.1100  221.3630 O   0  0  0  0  0  0  0  0  0  0  0  0
  140.0370   72.3340  222.2920 C   0  0  0  0  0  0  0  0  0  0  0  0
  139.1250   73.4230  222.2280 N   0  0  0  0  0  0  0  0  0  0  0  0
  139.0640   74.3480  221.1150 C   0  0  0  0  0  0  0  0  0  0  0  0
  140.1130   75.3760  221.3340 C   0  0  0  0  0  0  0  0  0  0  0  0
  139.9280   76.1960  222.2960 O   0  0  0  0  0  0  0  0  0  0  0  0
  141.2770   75.4630  220.5220 N   0  0  0  0  0  0  0  0  0  0  0  0
  142.4730   74.6850  220.7610 C   0  0  0  0  0  0  0  0  0  0  0  0
  143.4560   75.0900  219.6790 C   0  0  2  0  0  0  0  0  0  0  0  0
  144.4230   75.9860  220.1760 O   0  0  0  0  0  0  0  0  0  0  0  0
  142.5810   75.7300  218.6400 C   0  0  0  0  0  0  0  0  0  0  0  0
  141.4230   76.3190  219.3730 C   0  0  2  0  0  0  0  0  0  0  0  0
  141.6360   77.7740  219.7270 C   0  0  0  0  0  0  0  0  0  0  0  0
  142.1220   77.8560  221.0530 O   0  0  0  0  0  0  0  0  0  0  0  0
  140.0240   71.4480  223.4650 C   0  0  0  0  0  0  0  0  0  0  0  0
  139.5110   70.1730  223.3590 C   0  0  0  0  0  0  0  0  0  0  0  0
  139.4770   69.2980  224.4340 C   0  0  0  0  0  0  0  0  0  0  0  0
  139.9790   69.7620  225.6240 C   0  0  0  0  0  0  0  0  0  0  0  0
  139.9670   68.9250  226.7240 C   0  0  0  0  0  0  0  0  0  0  0  0
  140.4660   69.3500  227.9530 C   0  0  0  0  0  0  0  0  0  0  0  0
  140.4650   68.5510  229.0470 F   0  0  0  0  0  0  0  0  0  0  0  0
  140.9750   70.6510  228.0120 C   0  0  0  0  0  0  0  0  0  0  0  0
  140.9770   71.4730  226.8900 C   0  0  0  0  0  0  0  0  0  0  0  0
  140.4780   71.0350  225.6810 C   0  0  0  0  0  0  0  0  0  0  0  0
  140.5120   71.8850  224.6390 N   0  0  0  0  0  0  0  0  0  0  0  0
  138.4670   73.5360  223.0570 H   0  0  0  0  0  0  0  0  0  0  0  0
  139.2518   73.8142  220.1717 H   0  0  0  0  0  0  0  0  0  0  0  0
  138.0699   74.8148  221.0519 H   0  0  0  0  0  0  0  0  0  0  0  0
  142.8843   74.9115  221.7558 H   0  0  0  0  0  0  0  0  0  0  0  0
  142.2645   73.6053  220.7334 H   0  0  0  0  0  0  0  0  0  0  0  0
  144.0352   74.2438  219.2809 H   0  0  0  0  0  0  0  0  0  0  0  0
  143.9160   76.8050  220.4340 H   0  0  0  0  0  0  0  0  0  0  0  0
  143.1351   76.5172  218.1078 H   0  0  0  0  0  0  0  0  0  0  0  0
  142.2486   74.9967  217.8904 H   0  0  0  0  0  0  0  0  0  0  0  0
  140.5064   76.3496  218.7657 H   0  0  0  0  0  0  0  0  0  0  0  0
  142.3683   78.2186  219.0371 H   0  0  0  0  0  0  0  0  0  0  0  0
  140.6853   78.3211  219.6437 H   0  0  0  0  0  0  0  0  0  0  0  0
  141.7970   77.0700  221.5830 H   0  0  0  0  0  0  0  0  0  0  0  0
  139.1152   69.8384  222.3887 H   0  0  0  0  0  0  0  0  0  0  0  0
  139.0677   68.2815  224.3378 H   0  0  0  0  0  0  0  0  0  0  0  0
  139.5575   67.9087  226.6274 H   0  0  0  0  0  0  0  0  0  0  0  0
  141.3805   71.0307  228.9614 H   0  0  0  0  0  0  0  0  0  0  0  0
  141.3843   72.4918  226.9683 H   0  0  0  0  0  0  0  0  0  0  0  0
  1  2  2  0
  2  3  1  0
  3  4  1  0
  4  5  1  0
  5  6  2  0
  5  7  1  0
  7  8  1  0
  8  9  1  0
  9 10  1  0
  9 11  1  0
 11 12  1  0
 12 13  1  0
 13 14  1  0
  2 15  1  0
 15 16  2  0
 16 17  1  0
 17 18  2  0
 18 19  1  0
 19 20  2  0
 20 21  1  0
 20 22  1  0
 22 23  2  0
 23 24  1  0
 24 25  2  0
 12  7  1  0
 25 15  1  0
 24 18  1  0
  3 26  1  0
  4 27  1  0
  4 28  1  0
  8 29  1  0
  8 30  1  0
  9 31  1  6
 10 32  1  0
 11 33  1  0
 11 34  1  0
 12 35  1  6
 13 36  1  0
 13 37  1  0
 14 38  1  0
 16 39  1  0
 17 40  1  0
 19 41  1  0
 22 42  1  0
 23 43  1  0
M  END
>  <smiles>  (22) 
O=C(NCC(=O)N1C[C@H](O)C[C@@H]1CO)c1ccc2cc(F)ccc2n1

>  <score_type>  (22) 
oracle

>  <origin>  (22) 
autodockgpu

>  <m_score__min__energy>  (22) 
-7.5599999999999996

>  <m_primary>  (22) 
energy

>  <rmsd>  (22) 
2.0711950011359566

>  <m_score__min__rmsd>  (22) 
2.0711950011359566

>  <meeko>  (22) 
{"free_energy": -6.51, "intermolecular_energy": -8.6, "internal_energy": -2.47, "cluster_size": 18, "cluster_id": 3, "rank_in_cluster": 6}

>  <energy>  (22) 
-6.55

>  <cluster_rmsd>  (22) 
0.68

>  <cluster>  (22) 
3

$$$$

     RDKit          3D

 43 45  0  0  0  0  0  0  0  0999 V2000
  141.2160   72.7020  221.9860 O   0  0  0  0  0  0  0  0  0  0  0  0
  140.1260   72.6350  222.6140 C   0  0  0  0  0  0  0  0  0  0  0  0
  139.0220   73.4650  222.2740 N   0  0  0  0  0  0  0  0  0  0  0  0
  139.0560   74.4380  221.2010 C   0  0  0  0  0  0  0  0  0  0  0  0
  137.9650   75.4130  221.4520 C   0  0  0  0  0  0  0  0  0  0  0  0
  138.0980   76.5750  220.9390 O   0  0  0  0  0  0  0  0  0  0  0  0
  136.8170   75.0900  222.2270 N   0  0  0  0  0  0  0  0  0  0  0  0
  136.5600   75.6460  223.5380 C   0  0  0  0  0  0  0  0  0  0  0  0
  135.2520   75.0340  224.0000 C   0  0  2  0  0  0  0  0  0  0  0  0
  135.4720   73.9950  224.9250 O   0  0  0  0  0  0  0  0  0  0  0  0
  134.6370   74.5300  222.7260 C   0  0  0  0  0  0  0  0  0  0  0  0
  135.7730   74.1850  221.8220 C   0  0  2  0  0  0  0  0  0  0  0  0
  136.1690   72.7270  221.9130 C   0  0  0  0  0  0  0  0  0  0  0  0
  136.6500   72.4650  223.2170 O   0  0  0  0  0  0  0  0  0  0  0  0
  139.9960   71.6760  223.7210 C   0  0  0  0  0  0  0  0  0  0  0  0
  139.2350   70.5380  223.5610 C   0  0  0  0  0  0  0  0  0  0  0  0
  139.0810   69.6030  224.5740 C   0  0  0  0  0  0  0  0  0  0  0  0
  139.7270   69.8620  225.7570 C   0  0  0  0  0  0  0  0  0  0  0  0
  139.6040   68.9580  226.7950 C   0  0  0  0  0  0  0  0  0  0  0  0
  140.2400   69.1770  228.0150 C   0  0  0  0  0  0  0  0  0  0  0  0
  140.1350   68.3070  229.0480 F   0  0  0  0  0  0  0  0  0  0  0  0
  141.0000   70.3450  228.1290 C   0  0  0  0  0  0  0  0  0  0  0  0
  141.1090   71.2380  227.0690 C   0  0  0  0  0  0  0  0  0  0  0  0
  140.4720   71.0060  225.8690 C   0  0  0  0  0  0  0  0  0  0  0  0
  140.6220   71.9140  224.8880 N   0  0  0  0  0  0  0  0  0  0  0  0
  138.1410   73.3400  222.8590 H   0  0  0  0  0  0  0  0  0  0  0  0
  140.0272   74.9544  221.1922 H   0  0  0  0  0  0  0  0  0  0  0  0
  138.9213   73.9465  220.2262 H   0  0  0  0  0  0  0  0  0  0  0  0
  137.3720   75.3819  224.2315 H   0  0  0  0  0  0  0  0  0  0  0  0
  136.5033   76.7441  223.5068 H   0  0  0  0  0  0  0  0  0  0  0  0
  134.6028   75.7474  224.5287 H   0  0  0  0  0  0  0  0  0  0  0  0
  136.4500   73.8100  224.8870 H   0  0  0  0  0  0  0  0  0  0  0  0
  134.0242   73.6385  222.9252 H   0  0  0  0  0  0  0  0  0  0  0  0
  133.9796   75.2863  222.2722 H   0  0  0  0  0  0  0  0  0  0  0  0
  135.5197   74.3013  220.7579 H   0  0  0  0  0  0  0  0  0  0  0  0
  135.2940   72.0929  221.7075 H   0  0  0  0  0  0  0  0  0  0  0  0
  136.9536   72.5064  221.1743 H   0  0  0  0  0  0  0  0  0  0  0  0
  136.9680   73.3160  223.6390 H   0  0  0  0  0  0  0  0  0  0  0  0
  138.7329   70.3655  222.5976 H   0  0  0  0  0  0  0  0  0  0  0  0
  138.4709   68.6981  224.4360 H   0  0  0  0  0  0  0  0  0  0  0  0
  138.9952   68.0525  226.6559 H   0  0  0  0  0  0  0  0  0  0  0  0
  141.5206   70.5611  229.0736 H   0  0  0  0  0  0  0  0  0  0  0  0
  141.7155   72.1476  227.1905 H   0  0  0  0  0  0  0  0  0  0  0  0
  1  2  2  0
  2  3  1  0
  3  4  1  0
  4  5  1  0
  5  6  2  0
  5  7  1  0
  7  8  1  0
  8  9  1  0
  9 10  1  0
  9 11  1  0
 11 12  1  0
 12 13  1  0
 13 14  1  0
  2 15  1  0
 15 16  2  0
 16 17  1  0
 17 18  2  0
 18 19  1  0
 19 20  2  0
 20 21  1  0
 20 22  1  0
 22 23  2  0
 23 24  1  0
 24 25  2  0
 12  7  1  0
 25 15  1  0
 24 18  1  0
  3 26  1  0
  4 27  1  0
  4 28  1  0
  8 29  1  0
  8 30  1  0
  9 31  1  1
 10 32  1  0
 11 33  1  0
 11 34  1  0
 12 35  1  6
 13 36  1  0
 13 37  1  0
 14 38  1  0
 16 39  1  0
 17 40  1  0
 19 41  1  0
 22 42  1  0
 23 43  1  0
M  END
>  <smiles>  (23) 
O=C(NCC(=O)N1C[C@H](O)C[C@@H]1CO)c1ccc2cc(F)ccc2n1

>  <score_type>  (23) 
oracle

>  <origin>  (23) 
autodockgpu

>  <m_score__min__energy>  (23) 
-7.5599999999999996

>  <m_primary>  (23) 
energy

>  <rmsd>  (23) 
4.250645808976945

>  <m_score__min__rmsd>  (23) 
4.250645808976945

>  <meeko>  (23) 
{"free_energy": -6.01, "intermolecular_energy": -8.1, "internal_energy": -2.89, "cluster_size": 8, "cluster_id": 5, "rank_in_cluster": 2}

>  <energy>  (23) 
-6.54

>  <cluster_rmsd>  (23) 
1.66

>  <cluster>  (23) 
3

$$$$

     RDKit          3D

 43 45  0  0  0  0  0  0  0  0999 V2000
  141.3180   71.8480  220.7890 O   0  0  0  0  0  0  0  0  0  0  0  0
  140.8800   72.6830  221.6250 C   0  0  0  0  0  0  0  0  0  0  0  0
  140.2020   72.2680  222.8030 N   0  0  0  0  0  0  0  0  0  0  0  0
  139.9600   70.8790  223.1360 C   0  0  0  0  0  0  0  0  0  0  0  0
  139.8940   70.7830  224.6170 C   0  0  0  0  0  0  0  0  0  0  0  0
  139.6760   71.8670  225.2580 O   0  0  0  0  0  0  0  0  0  0  0  0
  140.0640   69.5530  225.3100 N   0  0  0  0  0  0  0  0  0  0  0  0
  139.4540   68.3120  224.8880 C   0  0  0  0  0  0  0  0  0  0  0  0
  139.8850   67.2700  225.9020 C   0  0  2  0  0  0  0  0  0  0  0  0
  138.8550   66.9970  226.8240 O   0  0  0  0  0  0  0  0  0  0  0  0
  141.0750   67.9040  226.5640 C   0  0  0  0  0  0  0  0  0  0  0  0
  140.8510   69.3780  226.5030 C   0  0  2  0  0  0  0  0  0  0  0  0
  140.1870   69.9180  227.7500 C   0  0  0  0  0  0  0  0  0  0  0  0
  139.6980   68.8340  228.5140 O   0  0  0  0  0  0  0  0  0  0  0  0
  141.0780   74.1180  221.3720 C   0  0  0  0  0  0  0  0  0  0  0  0
  141.8900   74.5300  220.3370 C   0  0  0  0  0  0  0  0  0  0  0  0
  142.1080   75.8700  220.0560 C   0  0  0  0  0  0  0  0  0  0  0  0
  141.4750   76.7810  220.8650 C   0  0  0  0  0  0  0  0  0  0  0  0
  141.6630   78.1290  220.6230 C   0  0  0  0  0  0  0  0  0  0  0  0
  141.0410   79.0920  221.4160 C   0  0  0  0  0  0  0  0  0  0  0  0
  141.2090   80.4190  221.2010 F   0  0  0  0  0  0  0  0  0  0  0  0
  140.2280   78.6260  222.4530 C   0  0  0  0  0  0  0  0  0  0  0  0
  140.0550   77.2640  222.6740 C   0  0  0  0  0  0  0  0  0  0  0  0
  140.6790   76.3250  221.8800 C   0  0  0  0  0  0  0  0  0  0  0  0
  140.4650   75.0260  222.1540 N   0  0  0  0  0  0  0  0  0  0  0  0
  139.8670   73.0420  223.4520 H   0  0  0  0  0  0  0  0  0  0  0  0
  139.0088   70.5467  222.6948 H   0  0  0  0  0  0  0  0  0  0  0  0
  140.7624   70.2389  222.7404 H   0  0  0  0  0  0  0  0  0  0  0  0
  138.3582   68.4077  224.8802 H   0  0  0  0  0  0  0  0  0  0  0  0
  139.7639   68.0360  223.8693 H   0  0  0  0  0  0  0  0  0  0  0  0
  140.1221   66.2963  225.4485 H   0  0  0  0  0  0  0  0  0  0  0  0
  139.3120   66.8700  227.7010 H   0  0  0  0  0  0  0  0  0  0  0  0
  141.1503   67.5730  227.6103 H   0  0  0  0  0  0  0  0  0  0  0  0
  142.0112   67.6203  226.0609 H   0  0  0  0  0  0  0  0  0  0  0  0
  141.7896   69.9501  226.4616 H   0  0  0  0  0  0  0  0  0  0  0  0
  140.9196   70.4863  228.3419 H   0  0  0  0  0  0  0  0  0  0  0  0
  139.3560   70.5829  227.4718 H   0  0  0  0  0  0  0  0  0  0  0  0
  138.9680   68.3660  228.0110 H   0  0  0  0  0  0  0  0  0  0  0  0
  142.3818   73.7695  219.7127 H   0  0  0  0  0  0  0  0  0  0  0  0
  142.7561   76.1876  219.2259 H   0  0  0  0  0  0  0  0  0  0  0  0
  142.3122   78.4460  219.7935 H   0  0  0  0  0  0  0  0  0  0  0  0
  139.7163   79.3489  223.1054 H   0  0  0  0  0  0  0  0  0  0  0  0
  139.4079   76.9292  223.4981 H   0  0  0  0  0  0  0  0  0  0  0  0
  1  2  2  0
  2  3  1  0
  3  4  1  0
  4  5  1  0
  5  6  2  0
  5  7  1  0
  7  8  1  0
  8  9  1  0
  9 10  1  0
  9 11  1  0
 11 12  1  0
 12 13  1  0
 13 14  1  0
  2 15  1  0
 15 16  2  0
 16 17  1  0
 17 18  2  0
 18 19  1  0
 19 20  2  0
 20 21  1  0
 20 22  1  0
 22 23  2  0
 23 24  1  0
 24 25  2  0
 12  7  1  0
 25 15  1  0
 24 18  1  0
  3 26  1  0
  4 27  1  0
  4 28  1  0
  8 29  1  0
  8 30  1  0
  9 31  1  6
 10 32  1  0
 11 33  1  0
 11 34  1  0
 12 35  1  6
 13 36  1  0
 13 37  1  0
 14 38  1  0
 16 39  1  0
 17 40  1  0
 19 41  1  0
 22 42  1  0
 23 43  1  0
M  END
>  <smiles>  (24) 
O=C(NCC(=O)N1C[C@H](O)C[C@@H]1CO)c1ccc2cc(F)ccc2n1

>  <score_type>  (24) 
oracle

>  <origin>  (24) 
autodockgpu

>  <m_score__min__energy>  (24) 
-7.5599999999999996

>  <m_primary>  (24) 
energy

>  <rmsd>  (24) 
8.875329265580568

>  <m_score__min__rmsd>  (24) 
8.875329265580568

>  <meeko>  (24) 
{"free_energy": -6.05, "intermolecular_energy": -8.14, "internal_energy": -3.02, "cluster_size": 5, "cluster_id": 2, "rank_in_cluster": 5}

>  <energy>  (24) 
-6.51

>  <cluster_rmsd>  (24) 
1.68

>  <cluster>  (24) 
3

$$$$

     RDKit          3D

 43 45  0  0  0  0  0  0  0  0999 V2000
  140.8740   71.5290  220.8620 O   0  0  0  0  0  0  0  0  0  0  0  0
  140.6650   72.4870  221.6540 C   0  0  0  0  0  0  0  0  0  0  0  0
  140.0570   72.2820  222.9220 N   0  0  0  0  0  0  0  0  0  0  0  0
  139.6340   70.9820  223.4030 C   0  0  0  0  0  0  0  0  0  0  0  0
  140.1320   70.8410  224.7950 C   0  0  0  0  0  0  0  0  0  0  0  0
  140.4860   71.9120  225.3950 O   0  0  0  0  0  0  0  0  0  0  0  0
  140.2220   69.5810  225.4490 N   0  0  0  0  0  0  0  0  0  0  0  0
  139.5610   68.3870  224.9690 C   0  0  0  0  0  0  0  0  0  0  0  0
  139.9120   67.2920  225.9560 C   0  0  2  0  0  0  0  0  0  0  0  0
  138.8470   67.0410  226.8430 O   0  0  0  0  0  0  0  0  0  0  0  0
  141.1150   67.8400  226.6670 C   0  0  0  0  0  0  0  0  0  0  0  0
  140.9690   69.3250  226.6530 C   0  0  2  0  0  0  0  0  0  0  0  0
  140.3020   69.8560  227.9020 C   0  0  0  0  0  0  0  0  0  0  0  0
  139.8980   68.7640  228.7050 O   0  0  0  0  0  0  0  0  0  0  0  0
  141.0610   73.8450  221.2530 C   0  0  0  0  0  0  0  0  0  0  0  0
  141.8140   74.0360  220.1150 C   0  0  0  0  0  0  0  0  0  0  0  0
  142.2130   75.2950  219.6930 C   0  0  0  0  0  0  0  0  0  0  0  0
  141.8210   76.3580  220.4680 C   0  0  0  0  0  0  0  0  0  0  0  0
  142.1940   77.6330  220.0870 C   0  0  0  0  0  0  0  0  0  0  0  0
  141.8210   78.7440  220.8410 C   0  0  0  0  0  0  0  0  0  0  0  0
  142.1740   80.0040  220.4900 F   0  0  0  0  0  0  0  0  0  0  0  0
  141.0580   78.5010  221.9870 C   0  0  0  0  0  0  0  0  0  0  0  0
  140.6940   77.2080  222.3480 C   0  0  0  0  0  0  0  0  0  0  0  0
  141.0730   76.1200  221.5900 C   0  0  0  0  0  0  0  0  0  0  0  0
  140.6860   74.9000  222.0000 N   0  0  0  0  0  0  0  0  0  0  0  0
  139.9200   73.1490  223.5250 H   0  0  0  0  0  0  0  0  0  0  0  0
  138.5362   70.9142  223.3876 H   0  0  0  0  0  0  0  0  0  0  0  0
  140.0348   70.1816  222.7637 H   0  0  0  0  0  0  0  0  0  0  0  0
  138.4720   68.5390  224.9376 H   0  0  0  0  0  0  0  0  0  0  0  0
  139.8831   68.1296  223.9492 H   0  0  0  0  0  0  0  0  0  0  0  0
  140.1104   66.3231  225.4744 H   0  0  0  0  0  0  0  0  0  0  0  0
  139.2690   66.9370  227.7400 H   0  0  0  0  0  0  0  0  0  0  0  0
  141.1468   67.4701  227.7025 H   0  0  0  0  0  0  0  0  0  0  0  0
  142.0476   67.5252  226.1760 H   0  0  0  0  0  0  0  0  0  0  0  0
  141.9366   69.8483  226.6540 H   0  0  0  0  0  0  0  0  0  0  0  0
  141.0117   70.4832  228.4615 H   0  0  0  0  0  0  0  0  0  0  0  0
  139.4255   70.4615  227.6278 H   0  0  0  0  0  0  0  0  0  0  0  0
  139.0560   68.3650  228.3350 H   0  0  0  0  0  0  0  0  0  0  0  0
  142.1089   73.1588  219.5204 H   0  0  0  0  0  0  0  0  0  0  0  0
  142.8139   75.4351  218.7823 H   0  0  0  0  0  0  0  0  0  0  0  0
  142.7938   77.7729  219.1756 H   0  0  0  0  0  0  0  0  0  0  0  0
  140.7400   79.3470  222.6140 H   0  0  0  0  0  0  0  0  0  0  0  0
  140.0924   77.0503  223.2553 H   0  0  0  0  0  0  0  0  0  0  0  0
  1  2  2  0
  2  3  1  0
  3  4  1  0
  4  5  1  0
  5  6  2  0
  5  7  1  0
  7  8  1  0
  8  9  1  0
  9 10  1  0
  9 11  1  0
 11 12  1  0
 12 13  1  0
 13 14  1  0
  2 15  1  0
 15 16  2  0
 16 17  1  0
 17 18  2  0
 18 19  1  0
 19 20  2  0
 20 21  1  0
 20 22  1  0
 22 23  2  0
 23 24  1  0
 24 25  2  0
 12  7  1  0
 25 15  1  0
 24 18  1  0
  3 26  1  0
  4 27  1  0
  4 28  1  0
  8 29  1  0
  8 30  1  0
  9 31  1  6
 10 32  1  0
 11 33  1  0
 11 34  1  0
 12 35  1  6
 13 36  1  0
 13 37  1  0
 14 38  1  0
 16 39  1  0
 17 40  1  0
 19 41  1  0
 22 42  1  0
 23 43  1  0
M  END
>  <smiles>  (25) 
O=C(NCC(=O)N1C[C@H](O)C[C@@H]1CO)c1ccc2cc(F)ccc2n1

>  <score_type>  (25) 
oracle

>  <origin>  (25) 
autodockgpu

>  <m_score__min__energy>  (25) 
-7.5599999999999996

>  <m_primary>  (25) 
energy

>  <rmsd>  (25) 
8.880681310077048

>  <m_score__min__rmsd>  (25) 
8.880681310077048

>  <meeko>  (25) 
{"free_energy": -6.56, "intermolecular_energy": -8.64, "internal_energy": -2.89, "cluster_size": 5, "cluster_id": 2, "rank_in_cluster": 2}

>  <energy>  (25) 
-6.49

>  <cluster_rmsd>  (25) 
0.74

>  <cluster>  (25) 
3

$$$$

     RDKit          3D

 43 45  0  0  0  0  0  0  0  0999 V2000
  140.1110   71.3790  220.8410 O   0  0  0  0  0  0  0  0  0  0  0  0
  140.3550   71.9680  221.9280 C   0  0  0  0  0  0  0  0  0  0  0  0
  140.7660   73.3280  221.9590 N   0  0  0  0  0  0  0  0  0  0  0  0
  140.9370   74.1370  220.7690 C   0  0  0  0  0  0  0  0  0  0  0  0
  141.8600   73.4060  219.8640 C   0  0  0  0  0  0  0  0  0  0  0  0
  141.3470   72.8680  218.8250 O   0  0  0  0  0  0  0  0  0  0  0  0
  143.2540   73.2950  220.1240 N   0  0  0  0  0  0  0  0  0  0  0  0
  144.2210   74.2910  219.7140 C   0  0  0  0  0  0  0  0  0  0  0  0
  145.5690   73.7770  220.1780 C   0  0  2  0  0  0  0  0  0  0  0  0
  146.2970   73.2120  219.1130 O   0  0  0  0  0  0  0  0  0  0  0  0
  145.2100   72.7530  221.2160 C   0  0  0  0  0  0  0  0  0  0  0  0
  143.8830   72.2010  220.8170 C   0  0  2  0  0  0  0  0  0  0  0  0
  144.0010   70.9450  219.9820 C   0  0  0  0  0  0  0  0  0  0  0  0
  142.7170   70.3680  219.8390 O   0  0  0  0  0  0  0  0  0  0  0  0
  140.2080   71.2280  223.1900 C   0  0  0  0  0  0  0  0  0  0  0  0
  139.5930   69.9950  223.1990 C   0  0  0  0  0  0  0  0  0  0  0  0
  139.4310   69.2560  224.3610 C   0  0  0  0  0  0  0  0  0  0  0  0
  139.9150   69.8130  225.5190 C   0  0  0  0  0  0  0  0  0  0  0  0
  139.7770   69.1140  226.7030 C   0  0  0  0  0  0  0  0  0  0  0  0
  140.2520   69.6370  227.9030 C   0  0  0  0  0  0  0  0  0  0  0  0
  140.1290   68.9730  229.0780 F   0  0  0  0  0  0  0  0  0  0  0  0
  140.8680   70.8910  227.8450 C   0  0  0  0  0  0  0  0  0  0  0  0
  140.9960   71.5740  226.6400 C   0  0  0  0  0  0  0  0  0  0  0  0
  140.5190   71.0400  225.4610 C   0  0  0  0  0  0  0  0  0  0  0  0
  140.6770   71.7580  224.3350 N   0  0  0  0  0  0  0  0  0  0  0  0
  140.9500   73.7430  222.9220 H   0  0  0  0  0  0  0  0  0  0  0  0
  139.9662   74.2877  220.2741 H   0  0  0  0  0  0  0  0  0  0  0  0
  141.3468   75.1248  221.0264 H   0  0  0  0  0  0  0  0  0  0  0  0
  144.2113   74.4061  218.6201 H   0  0  0  0  0  0  0  0  0  0  0  0
  143.9939   75.2765  220.1467 H   0  0  0  0  0  0  0  0  0  0  0  0
  146.2209   74.5699  220.5735 H   0  0  0  0  0  0  0  0  0  0  0  0
  146.4890   73.9690  218.4930 H   0  0  0  0  0  0  0  0  0  0  0  0
  145.9644   71.9527  221.2386 H   0  0  0  0  0  0  0  0  0  0  0  0
  145.1723   73.1983  222.2211 H   0  0  0  0  0  0  0  0  0  0  0  0
  143.2865   71.8641  221.6776 H   0  0  0  0  0  0  0  0  0  0  0  0
  144.4051   71.1973  218.9905 H   0  0  0  0  0  0  0  0  0  0  0  0
  144.6776   70.2316  220.4751 H   0  0  0  0  0  0  0  0  0  0  0  0
  142.0190   71.0870  219.8550 H   0  0  0  0  0  0  0  0  0  0  0  0
  139.2173   69.5824  222.2510 H   0  0  0  0  0  0  0  0  0  0  0  0
  138.9391   68.2721  224.3554 H   0  0  0  0  0  0  0  0  0  0  0  0
  139.2848   68.1303  226.6975 H   0  0  0  0  0  0  0  0  0  0  0  0
  141.2580   71.3450  228.7679 H   0  0  0  0  0  0  0  0  0  0  0  0
  141.4868   72.5584  226.6270 H   0  0  0  0  0  0  0  0  0  0  0  0
  1  2  2  0
  2  3  1  0
  3  4  1  0
  4  5  1  0
  5  6  2  0
  5  7  1  0
  7  8  1  0
  8  9  1  0
  9 10  1  0
  9 11  1  0
 11 12  1  0
 12 13  1  0
 13 14  1  0
  2 15  1  0
 15 16  2  0
 16 17  1  0
 17 18  2  0
 18 19  1  0
 19 20  2  0
 20 21  1  0
 20 22  1  0
 22 23  2  0
 23 24  1  0
 24 25  2  0
 12  7  1  0
 25 15  1  0
 24 18  1  0
  3 26  1  0
  4 27  1  0
  4 28  1  0
  8 29  1  0
  8 30  1  0
  9 31  1  1
 10 32  1  0
 11 33  1  0
 11 34  1  0
 12 35  1  1
 13 36  1  0
 13 37  1  0
 14 38  1  0
 16 39  1  0
 17 40  1  0
 19 41  1  0
 22 42  1  0
 23 43  1  0
M  END
>  <smiles>  (26) 
O=C(NCC(=O)N1C[C@H](O)C[C@@H]1CO)c1ccc2cc(F)ccc2n1

>  <score_type>  (26) 
oracle

>  <origin>  (26) 
autodockgpu

>  <m_score__min__energy>  (26) 
-7.5599999999999996

>  <m_primary>  (26) 
energy

>  <rmsd>  (26) 
3.8593152468613856

>  <m_score__min__rmsd>  (26) 
3.8593152468613856

>  <meeko>  (26) 
{"free_energy": -6.06, "intermolecular_energy": -8.15, "internal_energy": -2.82, "cluster_size": 13, "cluster_id": 1, "rank_in_cluster": 12}

>  <energy>  (26) 
-6.47

>  <cluster_rmsd>  (26) 
1.15

>  <cluster>  (26) 
3

$$$$

     RDKit          3D

 43 45  0  0  0  0  0  0  0  0999 V2000
  140.2360   71.6130  220.9900 O   0  0  0  0  0  0  0  0  0  0  0  0
  139.9830   72.1860  222.0830 C   0  0  0  0  0  0  0  0  0  0  0  0
  139.7730   73.5900  222.1530 N   0  0  0  0  0  0  0  0  0  0  0  0
  139.8320   74.4640  221.0000 C   0  0  0  0  0  0  0  0  0  0  0  0
  140.3420   75.7790  221.4650 C   0  0  0  0  0  0  0  0  0  0  0  0
  140.5290   75.9150  222.7210 O   0  0  0  0  0  0  0  0  0  0  0  0
  140.6140   76.8510  220.5710 N   0  0  0  0  0  0  0  0  0  0  0  0
  141.2980   76.6780  219.3080 C   0  0  0  0  0  0  0  0  0  0  0  0
  141.3830   78.0600  218.6900 C   0  0  2  0  0  0  0  0  0  0  0  0
  142.6680   78.6150  218.8510 O   0  0  0  0  0  0  0  0  0  0  0  0
  140.3390   78.8390  219.4370 C   0  0  0  0  0  0  0  0  0  0  0  0
  140.2550   78.2270  220.7950 C   0  0  2  0  0  0  0  0  0  0  0  0
  141.1380   78.9260  221.8050 C   0  0  0  0  0  0  0  0  0  0  0  0
  142.1000   79.6990  221.1140 O   0  0  0  0  0  0  0  0  0  0  0  0
  139.9030   71.3800  223.3100 C   0  0  0  0  0  0  0  0  0  0  0  0
  139.3430   70.1210  223.2730 C   0  0  0  0  0  0  0  0  0  0  0  0
  139.2440   69.3210  224.4020 C   0  0  0  0  0  0  0  0  0  0  0  0
  139.7330   69.8440  225.5730 C   0  0  0  0  0  0  0  0  0  0  0  0
  139.6560   69.0830  226.7250 C   0  0  0  0  0  0  0  0  0  0  0  0
  140.1390   69.5690  227.9370 C   0  0  0  0  0  0  0  0  0  0  0  0
  140.0760   68.8450  229.0810 F   0  0  0  0  0  0  0  0  0  0  0  0
  140.6970   70.8510  227.9260 C   0  0  0  0  0  0  0  0  0  0  0  0
  140.7630   71.5960  226.7530 C   0  0  0  0  0  0  0  0  0  0  0  0
  140.2800   71.0980  225.5620 C   0  0  0  0  0  0  0  0  0  0  0  0
  140.3760   71.8750  224.4680 N   0  0  0  0  0  0  0  0  0  0  0  0
  139.5640   73.9870  223.1190 H   0  0  0  0  0  0  0  0  0  0  0  0
  140.5112   74.0434  220.2438 H   0  0  0  0  0  0  0  0  0  0  0  0
  138.8370   74.5727  220.5437 H   0  0  0  0  0  0  0  0  0  0  0  0
  142.3060   76.2691  219.4714 H   0  0  0  0  0  0  0  0  0  0  0  0
  140.7645   75.9740  218.6524 H   0  0  0  0  0  0  0  0  0  0  0  0
  141.2117   78.0587  217.6034 H   0  0  0  0  0  0  0  0  0  0  0  0
  142.9890   78.2830  219.7350 H   0  0  0  0  0  0  0  0  0  0  0  0
  140.6336   79.8961  219.5127 H   0  0  0  0  0  0  0  0  0  0  0  0
  139.3680   78.8047  218.9212 H   0  0  0  0  0  0  0  0  0  0  0  0
  139.2547   78.3209  221.2428 H   0  0  0  0  0  0  0  0  0  0  0  0
  140.5247   79.5816  222.4407 H   0  0  0  0  0  0  0  0  0  0  0  0
  141.6426   78.1812  222.4380 H   0  0  0  0  0  0  0  0  0  0  0  0
  142.9150   79.1450  220.9350 H   0  0  0  0  0  0  0  0  0  0  0  0
  138.9615   69.7374  222.3152 H   0  0  0  0  0  0  0  0  0  0  0  0
  138.7958   68.3173  224.3608 H   0  0  0  0  0  0  0  0  0  0  0  0
  139.2069   68.0797  226.6833 H   0  0  0  0  0  0  0  0  0  0  0  0
  141.0904   71.2776  228.8605 H   0  0  0  0  0  0  0  0  0  0  0  0
  141.2090   72.6013  226.7764 H   0  0  0  0  0  0  0  0  0  0  0  0
  1  2  2  0
  2  3  1  0
  3  4  1  0
  4  5  1  0
  5  6  2  0
  5  7  1  0
  7  8  1  0
  8  9  1  0
  9 10  1  0
  9 11  1  0
 11 12  1  0
 12 13  1  0
 13 14  1  0
  2 15  1  0
 15 16  2  0
 16 17  1  0
 17 18  2  0
 18 19  1  0
 19 20  2  0
 20 21  1  0
 20 22  1  0
 22 23  2  0
 23 24  1  0
 24 25  2  0
 12  7  1  0
 25 15  1  0
 24 18  1  0
  3 26  1  0
  4 27  1  0
  4 28  1  0
  8 29  1  0
  8 30  1  0
  9 31  1  6
 10 32  1  0
 11 33  1  0
 11 34  1  0
 12 35  1  1
 13 36  1  0
 13 37  1  0
 14 38  1  0
 16 39  1  0
 17 40  1  0
 19 41  1  0
 22 42  1  0
 23 43  1  0
M  END
>  <smiles>  (27) 
O=C(NCC(=O)N1C[C@H](O)C[C@@H]1CO)c1ccc2cc(F)ccc2n1

>  <score_type>  (27) 
oracle

>  <origin>  (27) 
autodockgpu

>  <m_score__min__energy>  (27) 
-7.5599999999999996

>  <m_primary>  (27) 
energy

>  <rmsd>  (27) 
1.7571057179302842

>  <m_score__min__rmsd>  (27) 
1.7571057179302842

>  <meeko>  (27) 
{"free_energy": -6.17, "intermolecular_energy": -8.26, "internal_energy": -2.75, "cluster_size": 18, "cluster_id": 3, "rank_in_cluster": 14}

>  <energy>  (27) 
-6.46

>  <cluster_rmsd>  (27) 
1.58

>  <cluster>  (27) 
3

$$$$

     RDKit          3D

 43 45  0  0  0  0  0  0  0  0999 V2000
  140.3300   73.2410  222.6960 O   0  0  0  0  0  0  0  0  0  0  0  0
  140.2120   71.9940  222.5660 C   0  0  0  0  0  0  0  0  0  0  0  0
  140.2090   71.3780  221.2850 N   0  0  0  0  0  0  0  0  0  0  0  0
  140.3380   72.1170  220.0450 C   0  0  0  0  0  0  0  0  0  0  0  0
  141.7570   72.0210  219.6180 C   0  0  0  0  0  0  0  0  0  0  0  0
  142.1910   70.8610  219.3060 O   0  0  0  0  0  0  0  0  0  0  0  0
  142.6110   73.1560  219.5530 N   0  0  0  0  0  0  0  0  0  0  0  0
  142.1650   74.4630  219.1220 C   0  0  0  0  0  0  0  0  0  0  0  0
  143.3840   75.3630  219.1950 C   0  0  2  0  0  0  0  0  0  0  0  0
  143.9410   75.5750  217.9190 O   0  0  0  0  0  0  0  0  0  0  0  0
  144.3180   74.6070  220.0960 C   0  0  0  0  0  0  0  0  0  0  0  0
  144.0080   73.1610  219.9000 C   0  0  2  0  0  0  0  0  0  0  0  0
  144.8920   72.5120  218.8580 C   0  0  0  0  0  0  0  0  0  0  0  0
  145.9570   73.3910  218.5490 O   0  0  0  0  0  0  0  0  0  0  0  0
  140.0750   71.1600  223.7700 C   0  0  0  0  0  0  0  0  0  0  0  0
  139.3950   69.9630  223.7050 C   0  0  0  0  0  0  0  0  0  0  0  0
  139.2390   69.1400  224.8110 C   0  0  0  0  0  0  0  0  0  0  0  0
  139.7960   69.5750  225.9870 C   0  0  0  0  0  0  0  0  0  0  0  0
  139.6670   68.7880  227.1160 C   0  0  0  0  0  0  0  0  0  0  0  0
  140.2150   69.1850  228.3330 C   0  0  0  0  0  0  0  0  0  0  0  0
  140.1030   68.4330  229.4550 F   0  0  0  0  0  0  0  0  0  0  0  0
  140.8960   70.4070  228.3500 C   0  0  0  0  0  0  0  0  0  0  0  0
  141.0130   71.1790  227.1990 C   0  0  0  0  0  0  0  0  0  0  0  0
  140.4630   70.7700  226.0030 C   0  0  0  0  0  0  0  0  0  0  0  0
  140.6150   71.5690  224.9320 N   0  0  0  0  0  0  0  0  0  0  0  0
  140.1040   70.3190  221.2710 H   0  0  0  0  0  0  0  0  0  0  0  0
  139.6835   71.6797  219.2766 H   0  0  0  0  0  0  0  0  0  0  0  0
  140.0445   73.1677  220.1860 H   0  0  0  0  0  0  0  0  0  0  0  0
  141.7847   74.4168  218.0909 H   0  0  0  0  0  0  0  0  0  0  0  0
  141.3467   74.8392  219.7536 H   0  0  0  0  0  0  0  0  0  0  0  0
  143.1562   76.3708  219.5724 H   0  0  0  0  0  0  0  0  0  0  0  0
  144.8560   75.1810  217.9620 H   0  0  0  0  0  0  0  0  0  0  0  0
  145.3629   74.8134  219.8212 H   0  0  0  0  0  0  0  0  0  0  0  0
  144.1892   74.9051  221.1470 H   0  0  0  0  0  0  0  0  0  0  0  0
  144.2085   72.5576  220.7976 H   0  0  0  0  0  0  0  0  0  0  0  0
  145.2952   71.5675  219.2522 H   0  0  0  0  0  0  0  0  0  0  0  0
  144.3065   72.3023  217.9507 H   0  0  0  0  0  0  0  0  0  0  0  0
  145.6120   74.1700  218.0210 H   0  0  0  0  0  0  0  0  0  0  0  0
  138.9614   69.6496  222.7439 H   0  0  0  0  0  0  0  0  0  0  0  0
  138.6955   68.1857  224.7481 H   0  0  0  0  0  0  0  0  0  0  0  0
  139.1234   67.8339  227.0521 H   0  0  0  0  0  0  0  0  0  0  0  0
  141.3460   70.7629  229.2885 H   0  0  0  0  0  0  0  0  0  0  0  0
  141.5552   72.1350  227.2440 H   0  0  0  0  0  0  0  0  0  0  0  0
  1  2  2  0
  2  3  1  0
  3  4  1  0
  4  5  1  0
  5  6  2  0
  5  7  1  0
  7  8  1  0
  8  9  1  0
  9 10  1  0
  9 11  1  0
 11 12  1  0
 12 13  1  0
 13 14  1  0
  2 15  1  0
 15 16  2  0
 16 17  1  0
 17 18  2  0
 18 19  1  0
 19 20  2  0
 20 21  1  0
 20 22  1  0
 22 23  2  0
 23 24  1  0
 24 25  2  0
 12  7  1  0
 25 15  1  0
 24 18  1  0
  3 26  1  0
  4 27  1  0
  4 28  1  0
  8 29  1  0
  8 30  1  0
  9 31  1  1
 10 32  1  0
 11 33  1  0
 11 34  1  0
 12 35  1  1
 13 36  1  0
 13 37  1  0
 14 38  1  0
 16 39  1  0
 17 40  1  0
 19 41  1  0
 22 42  1  0
 23 43  1  0
M  END
>  <smiles>  (28) 
O=C(NCC(=O)N1C[C@H](O)C[C@@H]1CO)c1ccc2cc(F)ccc2n1

>  <score_type>  (28) 
oracle

>  <origin>  (28) 
autodockgpu

>  <m_score__min__energy>  (28) 
-7.5599999999999996

>  <m_primary>  (28) 
energy

>  <rmsd>  (28) 
3.058273857479326

>  <m_score__min__rmsd>  (28) 
3.058273857479326

>  <meeko>  (28) 
{"free_energy": -6.95, "intermolecular_energy": -9.04, "internal_energy": -2.04, "cluster_size": 13, "cluster_id": 1, "rank_in_cluster": 3}

>  <energy>  (28) 
-6.44

>  <cluster_rmsd>  (28) 
1.58

>  <cluster>  (28) 
3

$$$$

     RDKit          3D

 43 45  0  0  0  0  0  0  0  0999 V2000
  141.1890   71.8660  221.4220 O   0  0  0  0  0  0  0  0  0  0  0  0
  140.4430   72.2760  222.3500 C   0  0  0  0  0  0  0  0  0  0  0  0
  139.7910   73.5370  222.2750 N   0  0  0  0  0  0  0  0  0  0  0  0
  139.9250   74.4390  221.1500 C   0  0  0  0  0  0  0  0  0  0  0  0
  139.9010   75.8240  221.6860 C   0  0  0  0  0  0  0  0  0  0  0  0
  139.4840   75.9730  222.8840 O   0  0  0  0  0  0  0  0  0  0  0  0
  140.3160   76.9460  220.9180 N   0  0  0  0  0  0  0  0  0  0  0  0
  140.8510   76.8390  219.5780 C   0  0  0  0  0  0  0  0  0  0  0  0
  141.1680   78.2550  219.1420 C   0  0  2  0  0  0  0  0  0  0  0  0
  142.5470   78.5240  219.2390 O   0  0  0  0  0  0  0  0  0  0  0  0
  140.3650   79.0970  220.0910 C   0  0  0  0  0  0  0  0  0  0  0  0
  140.2620   78.3160  221.3580 C   0  0  2  0  0  0  0  0  0  0  0  0
  141.3440   78.6740  222.3530 C   0  0  0  0  0  0  0  0  0  0  0  0
  142.2160   79.6180  221.7610 O   0  0  0  0  0  0  0  0  0  0  0  0
  140.2450   71.4290  223.5360 C   0  0  0  0  0  0  0  0  0  0  0  0
  139.5780   70.2280  223.4210 C   0  0  0  0  0  0  0  0  0  0  0  0
  139.3660   69.3930  224.5070 C   0  0  0  0  0  0  0  0  0  0  0  0
  139.8550   69.8180  225.7180 C   0  0  0  0  0  0  0  0  0  0  0  0
  139.6680   69.0180  226.8290 C   0  0  0  0  0  0  0  0  0  0  0  0
  140.1450   69.4070  228.0790 C   0  0  0  0  0  0  0  0  0  0  0  0
  139.9750   68.6420  229.1850 F   0  0  0  0  0  0  0  0  0  0  0  0
  140.8150   70.6320  228.1460 C   0  0  0  0  0  0  0  0  0  0  0  0
  140.9910   71.4180  227.0120 C   0  0  0  0  0  0  0  0  0  0  0  0
  140.5110   71.0180  225.7830 C   0  0  0  0  0  0  0  0  0  0  0  0
  140.7170   71.8290  224.7300 N   0  0  0  0  0  0  0  0  0  0  0  0
  139.1800   73.8010  223.1060 H   0  0  0  0  0  0  0  0  0  0  0  0
  140.8766   74.2533  220.6305 H   0  0  0  0  0  0  0  0  0  0  0  0
  139.1070   74.2867  220.4304 H   0  0  0  0  0  0  0  0  0  0  0  0
  141.7641   76.2256  219.5786 H   0  0  0  0  0  0  0  0  0  0  0  0
  140.1356   76.3572  218.8953 H   0  0  0  0  0  0  0  0  0  0  0  0
  140.9175   78.4497  218.0887 H   0  0  0  0  0  0  0  0  0  0  0  0
  142.8030   78.2600  220.1650 H   0  0  0  0  0  0  0  0  0  0  0  0
  140.8736   80.0550  220.2742 H   0  0  0  0  0  0  0  0  0  0  0  0
  139.3707   79.3256  219.6799 H   0  0  0  0  0  0  0  0  0  0  0  0
  139.3390   78.5309  221.9164 H   0  0  0  0  0  0  0  0  0  0  0  0
  140.8875   79.1077  223.2550 H   0  0  0  0  0  0  0  0  0  0  0  0
  141.9064   77.7712  222.6333 H   0  0  0  0  0  0  0  0  0  0  0  0
  142.9480   79.1420  221.2690 H   0  0  0  0  0  0  0  0  0  0  0  0
  139.2012   69.9219  222.4339 H   0  0  0  0  0  0  0  0  0  0  0  0
  138.8322   68.4367  224.4039 H   0  0  0  0  0  0  0  0  0  0  0  0
  139.1354   68.0612  226.7252 H   0  0  0  0  0  0  0  0  0  0  0  0
  141.2097   70.9803  229.1119 H   0  0  0  0  0  0  0  0  0  0  0  0
  141.5232   72.3769  227.0974 H   0  0  0  0  0  0  0  0  0  0  0  0
  1  2  2  0
  2  3  1  0
  3  4  1  0
  4  5  1  0
  5  6  2  0
  5  7  1  0
  7  8  1  0
  8  9  1  0
  9 10  1  0
  9 11  1  0
 11 12  1  0
 12 13  1  0
 13 14  1  0
  2 15  1  0
 15 16  2  0
 16 17  1  0
 17 18  2  0
 18 19  1  0
 19 20  2  0
 20 21  1  0
 20 22  1  0
 22 23  2  0
 23 24  1  0
 24 25  2  0
 12  7  1  0
 25 15  1  0
 24 18  1  0
  3 26  1  0
  4 27  1  0
  4 28  1  0
  8 29  1  0
  8 30  1  0
  9 31  1  6
 10 32  1  0
 11 33  1  0
 11 34  1  0
 12 35  1  1
 13 36  1  0
 13 37  1  0
 14 38  1  0
 16 39  1  0
 17 40  1  0
 19 41  1  0
 22 42  1  0
 23 43  1  0
M  END
>  <smiles>  (29) 
O=C(NCC(=O)N1C[C@H](O)C[C@@H]1CO)c1ccc2cc(F)ccc2n1

>  <score_type>  (29) 
oracle

>  <origin>  (29) 
autodockgpu

>  <m_score__min__energy>  (29) 
-7.5599999999999996

>  <m_primary>  (29) 
energy

>  <rmsd>  (29) 
1.9525224318564767

>  <m_score__min__rmsd>  (29) 
1.9525224318564767

>  <meeko>  (29) 
{"free_energy": -6.55, "intermolecular_energy": -8.64, "internal_energy": -2.62, "cluster_size": 18, "cluster_id": 3, "rank_in_cluster": 4}

>  <energy>  (29) 
-6.42

>  <cluster_rmsd>  (29) 
0.79

>  <cluster>  (29) 
3

$$$$

     RDKit          3D

 43 45  0  0  0  0  0  0  0  0999 V2000
  139.9200   73.5490  222.7190 O   0  0  0  0  0  0  0  0  0  0  0  0
  140.3000   72.3500  222.6450 C   0  0  0  0  0  0  0  0  0  0  0  0
  140.8930   71.8310  221.4620 N   0  0  0  0  0  0  0  0  0  0  0  0
  141.1080   72.6190  220.2650 C   0  0  0  0  0  0  0  0  0  0  0  0
  142.3640   73.3870  220.4600 C   0  0  0  0  0  0  0  0  0  0  0  0
  142.2780   74.4830  221.1110 O   0  0  0  0  0  0  0  0  0  0  0  0
  143.6160   72.9430  219.9520 N   0  0  0  0  0  0  0  0  0  0  0  0
  144.8310   72.9280  220.7360 C   0  0  0  0  0  0  0  0  0  0  0  0
  145.9130   72.3970  219.8160 C   0  0  2  0  0  0  0  0  0  0  0  0
  146.7210   73.4390  219.3210 O   0  0  0  0  0  0  0  0  0  0  0  0
  145.1360   71.7230  218.7220 C   0  0  0  0  0  0  0  0  0  0  0  0
  143.8420   72.4570  218.6160 C   0  0  2  0  0  0  0  0  0  0  0  0
  143.8760   73.5520  217.5720 C   0  0  0  0  0  0  0  0  0  0  0  0
  145.2160   73.7570  217.1700 O   0  0  0  0  0  0  0  0  0  0  0  0
  140.1230   71.4710  223.8110 C   0  0  0  0  0  0  0  0  0  0  0  0
  139.3720   70.3210  223.6990 C   0  0  0  0  0  0  0  0  0  0  0  0
  139.1760   69.4590  224.7680 C   0  0  0  0  0  0  0  0  0  0  0  0
  139.7680   69.8050  225.9570 C   0  0  0  0  0  0  0  0  0  0  0  0
  139.6010   68.9760  227.0510 C   0  0  0  0  0  0  0  0  0  0  0  0
  140.1820   69.2850  228.2780 C   0  0  0  0  0  0  0  0  0  0  0  0
  140.0330   68.4900  229.3660 F   0  0  0  0  0  0  0  0  0  0  0  0
  140.9340   70.4620  228.3430 C   0  0  0  0  0  0  0  0  0  0  0  0
  141.0870   71.2780  227.2270 C   0  0  0  0  0  0  0  0  0  0  0  0
  140.5040   70.9570  226.0200 C   0  0  0  0  0  0  0  0  0  0  0  0
  140.6960   71.7940  224.9850 N   0  0  0  0  0  0  0  0  0  0  0  0
  141.1840   70.8070  221.4900 H   0  0  0  0  0  0  0  0  0  0  0  0
  141.2033   71.9576  219.3913 H   0  0  0  0  0  0  0  0  0  0  0  0
  140.2605   73.2978  220.0888 H   0  0  0  0  0  0  0  0  0  0  0  0
  145.0809   73.9446  221.0737 H   0  0  0  0  0  0  0  0  0  0  0  0
  144.7235   72.3038  221.6353 H   0  0  0  0  0  0  0  0  0  0  0  0
  146.6129   71.7143  220.3199 H   0  0  0  0  0  0  0  0  0  0  0  0
  146.0920   74.1790  219.1010 H   0  0  0  0  0  0  0  0  0  0  0  0
  145.6866   71.7820  217.7715 H   0  0  0  0  0  0  0  0  0  0  0  0
  144.9750   70.6576  218.9433 H   0  0  0  0  0  0  0  0  0  0  0  0
  143.0176   71.8171  218.2682 H   0  0  0  0  0  0  0  0  0  0  0  0
  143.2710   73.2534  216.7032 H   0  0  0  0  0  0  0  0  0  0  0  0
  143.4655   74.4820  217.9924 H   0  0  0  0  0  0  0  0  0  0  0  0
  145.6400   74.4610  217.7440 H   0  0  0  0  0  0  0  0  0  0  0  0
  138.9126   70.0785  222.7294 H   0  0  0  0  0  0  0  0  0  0  0  0
  138.5754   68.5429  224.6677 H   0  0  0  0  0  0  0  0  0  0  0  0
  139.0008   68.0597  226.9505 H   0  0  0  0  0  0  0  0  0  0  0  0
  141.4122   70.7471  229.2917 H   0  0  0  0  0  0  0  0  0  0  0  0
  141.6850   72.1976  227.3093 H   0  0  0  0  0  0  0  0  0  0  0  0
  1  2  2  0
  2  3  1  0
  3  4  1  0
  4  5  1  0
  5  6  2  0
  5  7  1  0
  7  8  1  0
  8  9  1  0
  9 10  1  0
  9 11  1  0
 11 12  1  0
 12 13  1  0
 13 14  1  0
  2 15  1  0
 15 16  2  0
 16 17  1  0
 17 18  2  0
 18 19  1  0
 19 20  2  0
 20 21  1  0
 20 22  1  0
 22 23  2  0
 23 24  1  0
 24 25  2  0
 12  7  1  0
 25 15  1  0
 24 18  1  0
  3 26  1  0
  4 27  1  0
  4 28  1  0
  8 29  1  0
  8 30  1  0
  9 31  1  1
 10 32  1  0
 11 33  1  0
 11 34  1  0
 12 35  1  6
 13 36  1  0
 13 37  1  0
 14 38  1  0
 16 39  1  0
 17 40  1  0
 19 41  1  0
 22 42  1  0
 23 43  1  0
M  END
>  <smiles>  (30) 
O=C(NCC(=O)N1C[C@H](O)C[C@@H]1CO)c1ccc2cc(F)ccc2n1

>  <score_type>  (30) 
oracle

>  <origin>  (30) 
autodockgpu

>  <m_score__min__energy>  (30) 
-7.5599999999999996

>  <m_primary>  (30) 
energy

>  <rmsd>  (30) 
4.160439556944009

>  <m_score__min__rmsd>  (30) 
4.160439556944009

>  <meeko>  (30) 
{"free_energy": -7.22, "intermolecular_energy": -9.31, "internal_energy": -2.01, "cluster_size": 13, "cluster_id": 1, "rank_in_cluster": 2}

>  <energy>  (30) 
-6.4

>  <cluster_rmsd>  (30) 
0.65

>  <cluster>  (30) 
3

$$$$

     RDKit          3D

 43 45  0  0  0  0  0  0  0  0999 V2000
  139.2040   71.6350  220.8840 O   0  0  0  0  0  0  0  0  0  0  0  0
  139.9980   71.9830  221.7980 C   0  0  0  0  0  0  0  0  0  0  0  0
  140.9300   73.0400  221.6080 N   0  0  0  0  0  0  0  0  0  0  0  0
  141.0440   73.7910  220.3750 C   0  0  0  0  0  0  0  0  0  0  0  0
  142.4070   74.3780  220.3370 C   0  0  0  0  0  0  0  0  0  0  0  0
  142.4990   75.6390  220.5190 O   0  0  0  0  0  0  0  0  0  0  0  0
  143.5700   73.5920  220.1110 N   0  0  0  0  0  0  0  0  0  0  0  0
  144.8060   73.7710  220.8420 C   0  0  0  0  0  0  0  0  0  0  0  0
  145.7720   72.7450  220.2830 C   0  0  2  0  0  0  0  0  0  0  0  0
  146.6850   73.3360  219.3880 O   0  0  0  0  0  0  0  0  0  0  0  0
  144.8710   71.7600  219.5950 C   0  0  0  0  0  0  0  0  0  0  0  0
  143.6770   72.5320  219.1430 C   0  0  2  0  0  0  0  0  0  0  0  0
  143.8070   73.0250  217.7180 C   0  0  0  0  0  0  0  0  0  0  0  0
  144.4580   74.2800  217.7270 O   0  0  0  0  0  0  0  0  0  0  0  0
  139.9570   71.2780  223.0880 C   0  0  0  0  0  0  0  0  0  0  0  0
  139.3220   70.0590  223.1870 C   0  0  0  0  0  0  0  0  0  0  0  0
  139.2560   69.3540  224.3790 C   0  0  0  0  0  0  0  0  0  0  0  0
  139.8560   69.9300  225.4710 C   0  0  0  0  0  0  0  0  0  0  0  0
  139.8160   69.2640  226.6820 C   0  0  0  0  0  0  0  0  0  0  0  0
  140.4110   69.8070  227.8180 C   0  0  0  0  0  0  0  0  0  0  0  0
  140.3860   69.1750  229.0160 F   0  0  0  0  0  0  0  0  0  0  0  0
  141.0420   71.0450  227.6690 C   0  0  0  0  0  0  0  0  0  0  0  0
  141.0690   71.6950  226.4390 C   0  0  0  0  0  0  0  0  0  0  0  0
  140.4750   71.1420  225.3250 C   0  0  0  0  0  0  0  0  0  0  0  0
  140.5400   71.8270  224.1690 N   0  0  0  0  0  0  0  0  0  0  0  0
  141.5620   73.2650  222.4350 H   0  0  0  0  0  0  0  0  0  0  0  0
  140.8981   73.1232  219.5132 H   0  0  0  0  0  0  0  0  0  0  0  0
  140.2797   74.5807  220.3292 H   0  0  0  0  0  0  0  0  0  0  0  0
  145.1970   74.7877  220.6892 H   0  0  0  0  0  0  0  0  0  0  0  0
  144.6580   73.6387  221.9239 H   0  0  0  0  0  0  0  0  0  0  0  0
  146.3994   72.2758  221.0551 H   0  0  0  0  0  0  0  0  0  0  0  0
  146.2110   74.1290  219.0130 H   0  0  0  0  0  0  0  0  0  0  0  0
  145.3846   71.3122  218.7315 H   0  0  0  0  0  0  0  0  0  0  0  0
  144.5855   70.9394  220.2696 H   0  0  0  0  0  0  0  0  0  0  0  0
  142.7641   71.9195  219.1049 H   0  0  0  0  0  0  0  0  0  0  0  0
  144.3977   72.3065  217.1308 H   0  0  0  0  0  0  0  0  0  0  0  0
  142.8096   73.1249  217.2649 H   0  0  0  0  0  0  0  0  0  0  0  0
  145.4470   74.1490  217.8190 H   0  0  0  0  0  0  0  0  0  0  0  0
  138.8515   69.6307  222.2897 H   0  0  0  0  0  0  0  0  0  0  0  0
  138.7477   68.3808  224.4463 H   0  0  0  0  0  0  0  0  0  0  0  0
  139.3069   68.2912  226.7491 H   0  0  0  0  0  0  0  0  0  0  0  0
  141.5256   71.5135  228.5389 H   0  0  0  0  0  0  0  0  0  0  0  0
  141.5739   72.6686  226.3541 H   0  0  0  0  0  0  0  0  0  0  0  0
  1  2  2  0
  2  3  1  0
  3  4  1  0
  4  5  1  0
  5  6  2  0
  5  7  1  0
  7  8  1  0
  8  9  1  0
  9 10  1  0
  9 11  1  0
 11 12  1  0
 12 13  1  0
 13 14  1  0
  2 15  1  0
 15 16  2  0
 16 17  1  0
 17 18  2  0
 18 19  1  0
 19 20  2  0
 20 21  1  0
 20 22  1  0
 22 23  2  0
 23 24  1  0
 24 25  2  0
 12  7  1  0
 25 15  1  0
 24 18  1  0
  3 26  1  0
  4 27  1  0
  4 28  1  0
  8 29  1  0
  8 30  1  0
  9 31  1  1
 10 32  1  0
 11 33  1  0
 11 34  1  0
 12 35  1  6
 13 36  1  0
 13 37  1  0
 14 38  1  0
 16 39  1  0
 17 40  1  0
 19 41  1  0
 22 42  1  0
 23 43  1  0
M  END
>  <smiles>  (31) 
O=C(NCC(=O)N1C[C@H](O)C[C@@H]1CO)c1ccc2cc(F)ccc2n1

>  <score_type>  (31) 
oracle

>  <origin>  (31) 
autodockgpu

>  <m_score__min__energy>  (31) 
-7.5599999999999996

>  <m_primary>  (31) 
energy

>  <rmsd>  (31) 
4.009525731014009

>  <m_score__min__rmsd>  (31) 
4.009525731014009

>  <meeko>  (31) 
{"free_energy": -6.42, "intermolecular_energy": -8.51, "internal_energy": -2.55, "cluster_size": 13, "cluster_id": 1, "rank_in_cluster": 8}

>  <energy>  (31) 
-6.2

>  <cluster_rmsd>  (31) 
1.43

>  <cluster>  (31) 
3

$$$$

     RDKit          3D

 43 45  0  0  0  0  0  0  0  0999 V2000
  139.2210   70.0780  220.5370 O   0  0  0  0  0  0  0  0  0  0  0  0
  138.4520   70.3270  221.5040 C   0  0  0  0  0  0  0  0  0  0  0  0
  137.1440   70.8420  221.2970 N   0  0  0  0  0  0  0  0  0  0  0  0
  136.5930   71.1190  219.9860 C   0  0  0  0  0  0  0  0  0  0  0  0
  136.7800   72.5680  219.7230 C   0  0  0  0  0  0  0  0  0  0  0  0
  136.1380   73.0660  218.7370 O   0  0  0  0  0  0  0  0  0  0  0  0
  137.6320   73.3840  220.5180 N   0  0  0  0  0  0  0  0  0  0  0  0
  139.0740   73.2770  220.5050 C   0  0  0  0  0  0  0  0  0  0  0  0
  139.5770   74.3110  221.4920 C   0  0  2  0  0  0  0  0  0  0  0  0
  139.9450   73.7160  222.7150 O   0  0  0  0  0  0  0  0  0  0  0  0
  138.4050   75.2370  221.6500 C   0  0  0  0  0  0  0  0  0  0  0  0
  137.1850   74.4070  221.4270 C   0  0  2  0  0  0  0  0  0  0  0  0
  136.6070   73.8630  222.7140 C   0  0  0  0  0  0  0  0  0  0  0  0
  137.2260   72.6250  223.0060 O   0  0  0  0  0  0  0  0  0  0  0  0
  138.9240   70.0780  222.8740 C   0  0  0  0  0  0  0  0  0  0  0  0
  138.7490   68.8380  223.4480 C   0  0  0  0  0  0  0  0  0  0  0  0
  139.1760   68.5520  224.7360 C   0  0  0  0  0  0  0  0  0  0  0  0
  139.7870   69.5700  225.4240 C   0  0  0  0  0  0  0  0  0  0  0  0
  140.2300   69.3320  226.7120 C   0  0  0  0  0  0  0  0  0  0  0  0
  140.8560   70.3330  227.4500 C   0  0  0  0  0  0  0  0  0  0  0  0
  141.2990   70.1270  228.7140 F   0  0  0  0  0  0  0  0  0  0  0  0
  141.0110   71.5750  226.8260 C   0  0  0  0  0  0  0  0  0  0  0  0
  140.5570   71.7880  225.5290 C   0  0  0  0  0  0  0  0  0  0  0  0
  139.9390   70.7850  224.8130 C   0  0  0  0  0  0  0  0  0  0  0  0
  139.5250   71.0640  223.5640 N   0  0  0  0  0  0  0  0  0  0  0  0
  136.5650   71.0230  222.1720 H   0  0  0  0  0  0  0  0  0  0  0  0
  137.1209   70.5273  219.2236 H   0  0  0  0  0  0  0  0  0  0  0  0
  135.5266   70.8519  219.9485 H   0  0  0  0  0  0  0  0  0  0  0  0
  139.3855   72.2687  220.8154 H   0  0  0  0  0  0  0  0  0  0  0  0
  139.4823   73.4483  219.4980 H   0  0  0  0  0  0  0  0  0  0  0  0
  140.4836   74.8310  221.1491 H   0  0  0  0  0  0  0  0  0  0  0  0
  139.1950   73.1020  222.9460 H   0  0  0  0  0  0  0  0  0  0  0  0
  138.3932   75.6678  222.6620 H   0  0  0  0  0  0  0  0  0  0  0  0
  138.4563   76.0734  220.9374 H   0  0  0  0  0  0  0  0  0  0  0  0
  136.3464   74.9852  221.0118 H   0  0  0  0  0  0  0  0  0  0  0  0
  136.7959   74.5727  223.5329 H   0  0  0  0  0  0  0  0  0  0  0  0
  135.5217   73.7209  222.6049 H   0  0  0  0  0  0  0  0  0  0  0  0
  138.1010   72.7840  223.4670 H   0  0  0  0  0  0  0  0  0  0  0  0
  138.2536   68.0478  222.8648 H   0  0  0  0  0  0  0  0  0  0  0  0
  139.0320   67.5578  225.1842 H   0  0  0  0  0  0  0  0  0  0  0  0
  140.0858   68.3377  227.1600 H   0  0  0  0  0  0  0  0  0  0  0  0
  141.4999   72.3966  227.3700 H   0  0  0  0  0  0  0  0  0  0  0  0
  140.6937   72.7761  225.0653 H   0  0  0  0  0  0  0  0  0  0  0  0
  1  2  2  0
  2  3  1  0
  3  4  1  0
  4  5  1  0
  5  6  2  0
  5  7  1  0
  7  8  1  0
  8  9  1  0
  9 10  1  0
  9 11  1  0
 11 12  1  0
 12 13  1  0
 13 14  1  0
  2 15  1  0
 15 16  2  0
 16 17  1  0
 17 18  2  0
 18 19  1  0
 19 20  2  0
 20 21  1  0
 20 22  1  0
 22 23  2  0
 23 24  1  0
 24 25  2  0
 12  7  1  0
 25 15  1  0
 24 18  1  0
  3 26  1  0
  4 27  1  0
  4 28  1  0
  8 29  1  0
  8 30  1  0
  9 31  1  6
 10 32  1  0
 11 33  1  0
 11 34  1  0
 12 35  1  6
 13 36  1  0
 13 37  1  0
 14 38  1  0
 16 39  1  0
 17 40  1  0
 19 41  1  0
 22 42  1  0
 23 43  1  0
M  END
>  <smiles>  (32) 
O=C(NCC(=O)N1C[C@H](O)C[C@@H]1CO)c1ccc2cc(F)ccc2n1

>  <score_type>  (32) 
oracle

>  <origin>  (32) 
autodockgpu

>  <m_score__min__energy>  (32) 
-7.5599999999999996

>  <m_primary>  (32) 
energy

>  <rmsd>  (32) 
3.0297249126128545

>  <m_score__min__rmsd>  (32) 
3.0297249126128545

>  <meeko>  (32) 
{"free_energy": -4.46, "intermolecular_energy": -6.54, "internal_energy": -4.51, "cluster_size": 8, "cluster_id": 5, "rank_in_cluster": 7}

>  <energy>  (32) 
-6.17

>  <cluster_rmsd>  (32) 
0.99

>  <cluster>  (32) 
3

$$$$

     RDKit          3D

 43 45  0  0  0  0  0  0  0  0999 V2000
  139.8770   72.8880  222.6410 O   0  0  0  0  0  0  0  0  0  0  0  0
  140.0610   71.6500  222.7850 C   0  0  0  0  0  0  0  0  0  0  0  0
  140.0780   70.7680  221.6700 N   0  0  0  0  0  0  0  0  0  0  0  0
  139.8890   71.2070  220.3030 C   0  0  0  0  0  0  0  0  0  0  0  0
  138.4270   71.3330  220.0750 C   0  0  0  0  0  0  0  0  0  0  0  0
  137.8780   70.4470  219.3370 O   0  0  0  0  0  0  0  0  0  0  0  0
  137.6550   72.3840  220.6420 N   0  0  0  0  0  0  0  0  0  0  0  0
  138.0940   73.7620  220.6810 C   0  0  0  0  0  0  0  0  0  0  0  0
  136.9850   74.5330  221.3700 C   0  0  2  0  0  0  0  0  0  0  0  0
  137.3120   74.8100  222.7120 O   0  0  0  0  0  0  0  0  0  0  0  0
  135.8040   73.6120  221.2600 C   0  0  0  0  0  0  0  0  0  0  0  0
  136.3560   72.2250  221.2420 C   0  0  2  0  0  0  0  0  0  0  0  0
  136.3990   71.5970  222.6180 C   0  0  0  0  0  0  0  0  0  0  0  0
  136.9290   72.5370  223.5330 O   0  0  0  0  0  0  0  0  0  0  0  0
  140.2630   71.1100  224.1380 C   0  0  0  0  0  0  0  0  0  0  0  0
  140.7070   71.9330  225.1500 C   0  0  0  0  0  0  0  0  0  0  0  0
  140.9120   71.4740  226.4420 C   0  0  0  0  0  0  0  0  0  0  0  0
  140.6530   70.1460  226.6730 C   0  0  0  0  0  0  0  0  0  0  0  0
  140.8430   69.6420  227.9460 C   0  0  0  0  0  0  0  0  0  0  0  0
  140.5930   68.3010  228.2300 C   0  0  0  0  0  0  0  0  0  0  0  0
  140.7710   67.7810  229.4680 F   0  0  0  0  0  0  0  0  0  0  0  0
  140.1450   67.5040  227.1720 C   0  0  0  0  0  0  0  0  0  0  0  0
  139.9620   68.0360  225.9000 C   0  0  0  0  0  0  0  0  0  0  0  0
  140.2140   69.3660  225.6360 C   0  0  0  0  0  0  0  0  0  0  0  0
  140.0140   69.8100  224.3830 N   0  0  0  0  0  0  0  0  0  0  0  0
  140.2410   69.7380  221.8860 H   0  0  0  0  0  0  0  0  0  0  0  0
  140.3787   72.1800  220.1495 H   0  0  0  0  0  0  0  0  0  0  0  0
  140.3311   70.4865  219.5991 H   0  0  0  0  0  0  0  0  0  0  0  0
  139.0311   73.8489  221.2504 H   0  0  0  0  0  0  0  0  0  0  0  0
  138.2894   74.1520  219.6712 H   0  0  0  0  0  0  0  0  0  0  0  0
  136.7965   75.5178  220.9176 H   0  0  0  0  0  0  0  0  0  0  0  0
  138.1040   74.2400  222.9140 H   0  0  0  0  0  0  0  0  0  0  0  0
  135.1354   73.7449  222.1233 H   0  0  0  0  0  0  0  0  0  0  0  0
  135.2166   73.8208  220.3537 H   0  0  0  0  0  0  0  0  0  0  0  0
  135.7260   71.5237  220.6752 H   0  0  0  0  0  0  0  0  0  0  0  0
  135.3820   71.3137  222.9268 H   0  0  0  0  0  0  0  0  0  0  0  0
  137.0320   70.6976  222.5982 H   0  0  0  0  0  0  0  0  0  0  0  0
  137.8540   72.7990  223.2520 H   0  0  0  0  0  0  0  0  0  0  0  0
  140.9057   72.9912  224.9249 H   0  0  0  0  0  0  0  0  0  0  0  0
  141.2648   72.1410  227.2424 H   0  0  0  0  0  0  0  0  0  0  0  0
  141.1965   70.3090  228.7461 H   0  0  0  0  0  0  0  0  0  0  0  0
  139.9339   66.4390  227.3486 H   0  0  0  0  0  0  0  0  0  0  0  0
  139.6092   67.3828  225.0883 H   0  0  0  0  0  0  0  0  0  0  0  0
  1  2  2  0
  2  3  1  0
  3  4  1  0
  4  5  1  0
  5  6  2  0
  5  7  1  0
  7  8  1  0
  8  9  1  0
  9 10  1  0
  9 11  1  0
 11 12  1  0
 12 13  1  0
 13 14  1  0
  2 15  1  0
 15 16  2  0
 16 17  1  0
 17 18  2  0
 18 19  1  0
 19 20  2  0
 20 21  1  0
 20 22  1  0
 22 23  2  0
 23 24  1  0
 24 25  2  0
 12  7  1  0
 25 15  1  0
 24 18  1  0
  3 26  1  0
  4 27  1  0
  4 28  1  0
  8 29  1  0
  8 30  1  0
  9 31  1  6
 10 32  1  0
 11 33  1  0
 11 34  1  0
 12 35  1  6
 13 36  1  0
 13 37  1  0
 14 38  1  0
 16 39  1  0
 17 40  1  0
 19 41  1  0
 22 42  1  0
 23 43  1  0
M  END
>  <smiles>  (33) 
O=C(NCC(=O)N1C[C@H](O)C[C@@H]1CO)c1ccc2cc(F)ccc2n1

>  <score_type>  (33) 
oracle

>  <origin>  (33) 
autodockgpu

>  <m_score__min__energy>  (33) 
-7.5599999999999996

>  <m_primary>  (33) 
energy

>  <rmsd>  (33) 
4.387580171843143

>  <m_score__min__rmsd>  (33) 
4.387580171843143

>  <meeko>  (33) 
{"free_energy": -4.91, "intermolecular_energy": -6.99, "internal_energy": -3.95, "cluster_size": 8, "cluster_id": 5, "rank_in_cluster": 6}

>  <energy>  (33) 
-6.16

>  <cluster_rmsd>  (33) 
1.5

>  <cluster>  (33) 
3

$$$$

     RDKit          3D

 43 45  0  0  0  0  0  0  0  0999 V2000
  139.4520   71.1610  221.0100 O   0  0  0  0  0  0  0  0  0  0  0  0
  139.5290   71.7730  222.1090 C   0  0  0  0  0  0  0  0  0  0  0  0
  139.5300   73.1930  222.1680 N   0  0  0  0  0  0  0  0  0  0  0  0
  139.4450   74.0410  220.9960 C   0  0  0  0  0  0  0  0  0  0  0  0
  140.3250   75.2140  221.2310 C   0  0  0  0  0  0  0  0  0  0  0  0
  140.4340   75.6230  222.4360 O   0  0  0  0  0  0  0  0  0  0  0  0
  141.0210   75.8670  220.1780 N   0  0  0  0  0  0  0  0  0  0  0  0
  142.2320   75.3460  219.5820 C   0  0  0  0  0  0  0  0  0  0  0  0
  142.6380   76.3490  218.5190 C   0  0  2  0  0  0  0  0  0  0  0  0
  143.6900   77.1720  218.9670 O   0  0  0  0  0  0  0  0  0  0  0  0
  141.3780   77.1300  218.2820 C   0  0  0  0  0  0  0  0  0  0  0  0
  140.6260   77.1120  219.5710 C   0  0  2  0  0  0  0  0  0  0  0  0
  140.9160   78.3220  220.4320 C   0  0  0  0  0  0  0  0  0  0  0  0
  142.1150   78.0990  221.1470 O   0  0  0  0  0  0  0  0  0  0  0  0
  139.6200   70.9970  223.3550 C   0  0  0  0  0  0  0  0  0  0  0  0
  139.1640   69.6970  223.3920 C   0  0  0  0  0  0  0  0  0  0  0  0
  139.2280   68.9230  224.5410 C   0  0  0  0  0  0  0  0  0  0  0  0
  139.7700   69.5150  225.6540 C   0  0  0  0  0  0  0  0  0  0  0  0
  139.8540   68.7820  226.8230 C   0  0  0  0  0  0  0  0  0  0  0  0
  140.3960   69.3390  227.9800 C   0  0  0  0  0  0  0  0  0  0  0  0
  140.4900   68.6430  229.1380 F   0  0  0  0  0  0  0  0  0  0  0  0
  140.8440   70.6610  227.8940 C   0  0  0  0  0  0  0  0  0  0  0  0
  140.7480   71.3760  226.7050 C   0  0  0  0  0  0  0  0  0  0  0  0
  140.2090   70.8090  225.5700 C   0  0  0  0  0  0  0  0  0  0  0  0
  140.1480   71.5610  224.4570 N   0  0  0  0  0  0  0  0  0  0  0  0
  139.5990   73.6250  223.1390 H   0  0  0  0  0  0  0  0  0  0  0  0
  139.7841   73.4888  220.1071 H   0  0  0  0  0  0  0  0  0  0  0  0
  138.4072   74.3626  220.8241 H   0  0  0  0  0  0  0  0  0  0  0  0
  143.0224   75.2524  220.3413 H   0  0  0  0  0  0  0  0  0  0  0  0
  142.0726   74.3457  219.1531 H   0  0  0  0  0  0  0  0  0  0  0  0
  143.0216   75.8771  217.6024 H   0  0  0  0  0  0  0  0  0  0  0  0
  143.6410   77.1450  219.9620 H   0  0  0  0  0  0  0  0  0  0  0  0
  141.6191   78.1644  217.9960 H   0  0  0  0  0  0  0  0  0  0  0  0
  140.7838   76.6927  217.4661 H   0  0  0  0  0  0  0  0  0  0  0  0
  139.5369   77.1712  219.4286 H   0  0  0  0  0  0  0  0  0  0  0  0
  141.0266   79.2112  219.7939 H   0  0  0  0  0  0  0  0  0  0  0  0
  140.0871   78.4852  221.1364 H   0  0  0  0  0  0  0  0  0  0  0  0
  142.9010   78.3650  220.5840 H   0  0  0  0  0  0  0  0  0  0  0  0
  138.7347   69.2584  222.4792 H   0  0  0  0  0  0  0  0  0  0  0  0
  138.8623   67.8857  224.5592 H   0  0  0  0  0  0  0  0  0  0  0  0
  139.4880   67.7448  226.8403 H   0  0  0  0  0  0  0  0  0  0  0  0
  141.2795   71.1433  228.7815 H   0  0  0  0  0  0  0  0  0  0  0  0
  141.1093   72.4144  226.6696 H   0  0  0  0  0  0  0  0  0  0  0  0
  1  2  2  0
  2  3  1  0
  3  4  1  0
  4  5  1  0
  5  6  2  0
  5  7  1  0
  7  8  1  0
  8  9  1  0
  9 10  1  0
  9 11  1  0
 11 12  1  0
 12 13  1  0
 13 14  1  0
  2 15  1  0
 15 16  2  0
 16 17  1  0
 17 18  2  0
 18 19  1  0
 19 20  2  0
 20 21  1  0
 20 22  1  0
 22 23  2  0
 23 24  1  0
 24 25  2  0
 12  7  1  0
 25 15  1  0
 24 18  1  0
  3 26  1  0
  4 27  1  0
  4 28  1  0
  8 29  1  0
  8 30  1  0
  9 31  1  6
 10 32  1  0
 11 33  1  0
 11 34  1  0
 12 35  1  6
 13 36  1  0
 13 37  1  0
 14 38  1  0
 16 39  1  0
 17 40  1  0
 19 41  1  0
 22 42  1  0
 23 43  1  0
M  END
>  <smiles>  (34) 
O=C(NCC(=O)N1C[C@H](O)C[C@@H]1CO)c1ccc2cc(F)ccc2n1

>  <score_type>  (34) 
oracle

>  <origin>  (34) 
autodockgpu

>  <m_score__min__energy>  (34) 
-7.5599999999999996

>  <m_primary>  (34) 
energy

>  <rmsd>  (34) 
1.5270617147366299

>  <m_score__min__rmsd>  (34) 
1.5270617147366299

>  <meeko>  (34) 
{"free_energy": -6.16, "intermolecular_energy": -8.25, "internal_energy": -2.94, "cluster_size": 18, "cluster_id": 3, "rank_in_cluster": 15}

>  <energy>  (34) 
-6.13

>  <cluster_rmsd>  (34) 
1.35

>  <cluster>  (34) 
3

$$$$

     RDKit          3D

 43 45  0  0  0  0  0  0  0  0999 V2000
  141.4280   72.3970  221.5520 O   0  0  0  0  0  0  0  0  0  0  0  0
  140.5230   72.6270  222.3990 C   0  0  0  0  0  0  0  0  0  0  0  0
  139.7220   73.7990  222.3280 N   0  0  0  0  0  0  0  0  0  0  0  0
  139.8730   74.8080  221.2990 C   0  0  0  0  0  0  0  0  0  0  0  0
  139.4200   76.0990  221.8760 C   0  0  0  0  0  0  0  0  0  0  0  0
  138.5140   76.0470  222.7740 O   0  0  0  0  0  0  0  0  0  0  0  0
  139.9560   77.3490  221.4600 N   0  0  0  0  0  0  0  0  0  0  0  0
  140.2660   77.6630  220.0820 C   0  0  0  0  0  0  0  0  0  0  0  0
  140.8160   79.0760  220.0910 C   0  0  2  0  0  0  0  0  0  0  0  0
  142.2210   79.0780  219.9870 O   0  0  0  0  0  0  0  0  0  0  0  0
  140.3510   79.6200  221.4110 C   0  0  0  0  0  0  0  0  0  0  0  0
  140.2590   78.4520  222.3350 C   0  0  2  0  0  0  0  0  0  0  0  0
  141.5190   78.2510  223.1470 C   0  0  0  0  0  0  0  0  0  0  0  0
  142.5640   79.0050  222.5640 O   0  0  0  0  0  0  0  0  0  0  0  0
  140.2950   71.6580  223.4820 C   0  0  0  0  0  0  0  0  0  0  0  0
  139.5930   70.4990  223.2330 C   0  0  0  0  0  0  0  0  0  0  0  0
  139.3520   69.5540  224.2190 C   0  0  0  0  0  0  0  0  0  0  0  0
  139.8470   69.8270  225.4700 C   0  0  0  0  0  0  0  0  0  0  0  0
  139.6310   68.9140  226.4850 C   0  0  0  0  0  0  0  0  0  0  0  0
  140.1140   69.1460  227.7710 C   0  0  0  0  0  0  0  0  0  0  0  0
  139.9170   68.2670  228.7840 F   0  0  0  0  0  0  0  0  0  0  0  0
  140.8190   70.3350  227.9750 C   0  0  0  0  0  0  0  0  0  0  0  0
  141.0230   71.2370  226.9360 C   0  0  0  0  0  0  0  0  0  0  0  0
  140.5380   70.9910  225.6690 C   0  0  0  0  0  0  0  0  0  0  0  0
  140.7730   71.9090  224.7150 N   0  0  0  0  0  0  0  0  0  0  0  0
  138.9820   73.9100  223.0860 H   0  0  0  0  0  0  0  0  0  0  0  0
  140.9277   74.8810  220.9953 H   0  0  0  0  0  0  0  0  0  0  0  0
  139.2791   74.5492  220.4100 H   0  0  0  0  0  0  0  0  0  0  0  0
  141.0178   76.9623  219.6898 H   0  0  0  0  0  0  0  0  0  0  0  0
  139.3773   77.5798  219.4392 H   0  0  0  0  0  0  0  0  0  0  0  0
  140.4701   79.6809  219.2399 H   0  0  0  0  0  0  0  0  0  0  0  0
  142.5510   79.3620  220.8840 H   0  0  0  0  0  0  0  0  0  0  0  0
  141.0734   80.3547  221.7962 H   0  0  0  0  0  0  0  0  0  0  0  0
  139.3818   80.1312  221.3142 H   0  0  0  0  0  0  0  0  0  0  0  0
  139.4898   78.5824  223.1105 H   0  0  0  0  0  0  0  0  0  0  0  0
  141.3508   78.5899  224.1799 H   0  0  0  0  0  0  0  0  0  0  0  0
  141.7895   77.1848  223.1581 H   0  0  0  0  0  0  0  0  0  0  0  0
  143.0530   78.4450  221.8920 H   0  0  0  0  0  0  0  0  0  0  0  0
  139.2107   70.3170  222.2177 H   0  0  0  0  0  0  0  0  0  0  0  0
  138.7917   68.6310  224.0090 H   0  0  0  0  0  0  0  0  0  0  0  0
  139.0700   67.9915  226.2745 H   0  0  0  0  0  0  0  0  0  0  0  0
  141.2195   70.5615  228.9742 H   0  0  0  0  0  0  0  0  0  0  0  0
  141.5821   72.1645  227.1289 H   0  0  0  0  0  0  0  0  0  0  0  0
  1  2  2  0
  2  3  1  0
  3  4  1  0
  4  5  1  0
  5  6  2  0
  5  7  1  0
  7  8  1  0
  8  9  1  0
  9 10  1  0
  9 11  1  0
 11 12  1  0
 12 13  1  0
 13 14  1  0
  2 15  1  0
 15 16  2  0
 16 17  1  0
 17 18  2  0
 18 19  1  0
 19 20  2  0
 20 21  1  0
 20 22  1  0
 22 23  2  0
 23 24  1  0
 24 25  2  0
 12  7  1  0
 25 15  1  0
 24 18  1  0
  3 26  1  0
  4 27  1  0
  4 28  1  0
  8 29  1  0
  8 30  1  0
  9 31  1  6
 10 32  1  0
 11 33  1  0
 11 34  1  0
 12 35  1  1
 13 36  1  0
 13 37  1  0
 14 38  1  0
 16 39  1  0
 17 40  1  0
 19 41  1  0
 22 42  1  0
 23 43  1  0
M  END
>  <smiles>  (35) 
O=C(NCC(=O)N1C[C@H](O)C[C@@H]1CO)c1ccc2cc(F)ccc2n1

>  <score_type>  (35) 
oracle

>  <origin>  (35) 
autodockgpu

>  <m_score__min__energy>  (35) 
-7.5599999999999996

>  <m_primary>  (35) 
energy

>  <rmsd>  (35) 
2.4804265066732936

>  <m_score__min__rmsd>  (35) 
2.4804265066732936

>  <meeko>  (35) 
{"free_energy": -6.62, "intermolecular_energy": -8.71, "internal_energy": -2.65, "cluster_size": 18, "cluster_id": 3, "rank_in_cluster": 1}

>  <energy>  (35) 
-6.07

>  <cluster_rmsd>  (35) 
1.4

>  <cluster>  (35) 
3

$$$$

     RDKit          3D

 43 45  0  0  0  0  0  0  0  0999 V2000
  140.1030   77.8700  217.8930 O   0  0  0  0  0  0  0  0  0  0  0  0
  141.2440   78.0220  218.4050 C   0  0  0  0  0  0  0  0  0  0  0  0
  142.3720   77.2960  217.9340 N   0  0  0  0  0  0  0  0  0  0  0  0
  142.3080   76.3400  216.8470 C   0  0  0  0  0  0  0  0  0  0  0  0
  142.1270   74.9950  217.4500 C   0  0  0  0  0  0  0  0  0  0  0  0
  142.1250   73.9980  216.6520 O   0  0  0  0  0  0  0  0  0  0  0  0
  141.9600   74.8030  218.8490 N   0  0  0  0  0  0  0  0  0  0  0  0
  140.7420   75.1290  219.5580 C   0  0  0  0  0  0  0  0  0  0  0  0
  140.9990   74.7790  221.0100 C   0  0  2  0  0  0  0  0  0  0  0  0
  141.2760   75.9300  221.7730 O   0  0  0  0  0  0  0  0  0  0  0  0
  142.1810   73.8560  220.9390 C   0  0  0  0  0  0  0  0  0  0  0  0
  142.9600   74.2670  219.7360 C   0  0  2  0  0  0  0  0  0  0  0  0
  144.0650   75.2470  220.0640 C   0  0  0  0  0  0  0  0  0  0  0  0
  143.5490   76.5610  219.9820 O   0  0  0  0  0  0  0  0  0  0  0  0
  141.4080   78.9720  219.5150 C   0  0  0  0  0  0  0  0  0  0  0  0
  141.3000   80.3270  219.2850 C   0  0  0  0  0  0  0  0  0  0  0  0
  141.4450   81.2640  220.2970 C   0  0  0  0  0  0  0  0  0  0  0  0
  141.7070   80.7790  221.5540 C   0  0  0  0  0  0  0  0  0  0  0  0
  141.8590   81.6750  222.5950 C   0  0  0  0  0  0  0  0  0  0  0  0
  142.1260   81.2320  223.8880 C   0  0  0  0  0  0  0  0  0  0  0  0
  142.2800   82.0890  224.9260 F   0  0  0  0  0  0  0  0  0  0  0  0
  142.2280   79.8500  224.0730 C   0  0  0  0  0  0  0  0  0  0  0  0
  142.0690   78.9690  223.0090 C   0  0  0  0  0  0  0  0  0  0  0  0
  141.8060   79.4260  221.7350 C   0  0  0  0  0  0  0  0  0  0  0  0
  141.6650   78.5160  220.7550 N   0  0  0  0  0  0  0  0  0  0  0  0
  143.2960   77.4890  218.4260 H   0  0  0  0  0  0  0  0  0  0  0  0
  141.4582   76.5747  216.1891 H   0  0  0  0  0  0  0  0  0  0  0  0
  143.2271   76.3751  216.2436 H   0  0  0  0  0  0  0  0  0  0  0  0
  140.5160   76.2008  219.4572 H   0  0  0  0  0  0  0  0  0  0  0  0
  139.8807   74.5754  219.1559 H   0  0  0  0  0  0  0  0  0  0  0  0
  140.1313   74.3173  221.5039 H   0  0  0  0  0  0  0  0  0  0  0  0
  141.9660   76.4310  221.2550 H   0  0  0  0  0  0  0  0  0  0  0  0
  142.7974   73.9559  221.8446 H   0  0  0  0  0  0  0  0  0  0  0  0
  141.8643   72.8048  220.8708 H   0  0  0  0  0  0  0  0  0  0  0  0
  143.5071   73.4301  219.2775 H   0  0  0  0  0  0  0  0  0  0  0  0
  144.4359   75.0585  221.0823 H   0  0  0  0  0  0  0  0  0  0  0  0
  144.8945   75.1265  219.3517 H   0  0  0  0  0  0  0  0  0  0  0  0
  143.0810   76.7960  220.8370 H   0  0  0  0  0  0  0  0  0  0  0  0
  141.0916   80.6771  218.2632 H   0  0  0  0  0  0  0  0  0  0  0  0
  141.3545   82.3428  220.1019 H   0  0  0  0  0  0  0  0  0  0  0  0
  141.7678   82.7536  222.3995 H   0  0  0  0  0  0  0  0  0  0  0  0
  142.4376   79.4529  225.0772 H   0  0  0  0  0  0  0  0  0  0  0  0
  142.1547   77.8869  223.1871 H   0  0  0  0  0  0  0  0  0  0  0  0
  1  2  2  0
  2  3  1  0
  3  4  1  0
  4  5  1  0
  5  6  2  0
  5  7  1  0
  7  8  1  0
  8  9  1  0
  9 10  1  0
  9 11  1  0
 11 12  1  0
 12 13  1  0
 13 14  1  0
  2 15  1  0
 15 16  2  0
 16 17  1  0
 17 18  2  0
 18 19  1  0
 19 20  2  0
 20 21  1  0
 20 22  1  0
 22 23  2  0
 23 24  1  0
 24 25  2  0
 12  7  1  0
 25 15  1  0
 24 18  1  0
  3 26  1  0
  4 27  1  0
  4 28  1  0
  8 29  1  0
  8 30  1  0
  9 31  1  1
 10 32  1  0
 11 33  1  0
 11 34  1  0
 12 35  1  6
 13 36  1  0
 13 37  1  0
 14 38  1  0
 16 39  1  0
 17 40  1  0
 19 41  1  0
 22 42  1  0
 23 43  1  0
M  END
>  <smiles>  (36) 
O=C(NCC(=O)N1C[C@H](O)C[C@@H]1CO)c1ccc2cc(F)ccc2n1

>  <score_type>  (36) 
oracle

>  <origin>  (36) 
autodockgpu

>  <m_score__min__energy>  (36) 
-7.5599999999999996

>  <m_primary>  (36) 
energy

>  <rmsd>  (36) 
8.826914536106566

>  <m_score__min__rmsd>  (36) 
8.826914536106566

>  <meeko>  (36) 
{"free_energy": -4.43, "intermolecular_energy": -6.52, "internal_energy": -4.54, "cluster_size": 2, "cluster_id": 7, "rank_in_cluster": 2}

>  <energy>  (36) 
-5.52

>  <cluster_rmsd>  (36) 
1.43

>  <cluster>  (36) 
3

$$$$

     RDKit          3D

 43 45  0  0  0  0  0  0  0  0999 V2000
  140.8760   76.8380  217.7010 O   0  0  0  0  0  0  0  0  0  0  0  0
  141.9800   77.1660  218.2110 C   0  0  0  0  0  0  0  0  0  0  0  0
  143.2000   76.5720  217.7860 N   0  0  0  0  0  0  0  0  0  0  0  0
  143.2760   75.5590  216.7530 C   0  0  0  0  0  0  0  0  0  0  0  0
  143.3680   74.2410  217.4300 C   0  0  0  0  0  0  0  0  0  0  0  0
  143.8930   73.2840  216.7650 O   0  0  0  0  0  0  0  0  0  0  0  0
  142.9000   74.0300  218.7560 N   0  0  0  0  0  0  0  0  0  0  0  0
  141.5260   74.2410  219.1570 C   0  0  0  0  0  0  0  0  0  0  0  0
  141.4690   73.9120  220.6350 C   0  0  2  0  0  0  0  0  0  0  0  0
  141.4560   75.0820  221.4200 O   0  0  0  0  0  0  0  0  0  0  0  0
  142.7140   73.1020  220.8580 C   0  0  0  0  0  0  0  0  0  0  0  0
  143.7110   73.5870  219.8600 C   0  0  2  0  0  0  0  0  0  0  0  0
  144.6160   74.6650  220.4160 C   0  0  0  0  0  0  0  0  0  0  0  0
  144.0670   75.9300  220.1000 O   0  0  0  0  0  0  0  0  0  0  0  0
  142.0040   78.1880  219.2690 C   0  0  0  0  0  0  0  0  0  0  0  0
  142.1450   79.5180  218.9390 C   0  0  0  0  0  0  0  0  0  0  0  0
  142.1720   80.5200  219.8980 C   0  0  0  0  0  0  0  0  0  0  0  0
  142.0520   80.1240  221.2070 C   0  0  0  0  0  0  0  0  0  0  0  0
  142.0730   81.0870  222.1980 C   0  0  0  0  0  0  0  0  0  0  0  0
  141.9540   80.7360  223.5410 C   0  0  0  0  0  0  0  0  0  0  0  0
  141.9720   81.6590  224.5320 F   0  0  0  0  0  0  0  0  0  0  0  0
  141.8120   79.3740  223.8260 C   0  0  0  0  0  0  0  0  0  0  0  0
  141.7930   78.4250  222.8100 C   0  0  0  0  0  0  0  0  0  0  0  0
  141.9130   78.7910  221.4860 C   0  0  0  0  0  0  0  0  0  0  0  0
  141.8870   77.8190  220.5580 N   0  0  0  0  0  0  0  0  0  0  0  0
  144.0840   76.9110  218.2730 H   0  0  0  0  0  0  0  0  0  0  0  0
  142.3751   75.5961  216.1230 H   0  0  0  0  0  0  0  0  0  0  0  0
  144.1513   75.7265  216.1083 H   0  0  0  0  0  0  0  0  0  0  0  0
  141.2342   75.2878  218.9866 H   0  0  0  0  0  0  0  0  0  0  0  0
  140.8350   73.6121  218.5765 H   0  0  0  0  0  0  0  0  0  0  0  0
  140.5556   73.3706  220.9224 H   0  0  0  0  0  0  0  0  0  0  0  0
  142.1020   75.7010  220.9820 H   0  0  0  0  0  0  0  0  0  0  0  0
  143.0913   73.2563  221.8797 H   0  0  0  0  0  0  0  0  0  0  0  0
  142.5187   72.0261  220.7388 H   0  0  0  0  0  0  0  0  0  0  0  0
  144.4235   72.8057  219.5569 H   0  0  0  0  0  0  0  0  0  0  0  0
  144.6914   74.5572  221.5081 H   0  0  0  0  0  0  0  0  0  0  0  0
  145.6200   74.5732  219.9760 H   0  0  0  0  0  0  0  0  0  0  0  0
  143.2940   76.1250  220.7070 H   0  0  0  0  0  0  0  0  0  0  0  0
  142.2394   79.7950  217.8786 H   0  0  0  0  0  0  0  0  0  0  0  0
  142.2840   81.5792  219.6232 H   0  0  0  0  0  0  0  0  0  0  0  0
  142.1853   82.1460  221.9224 H   0  0  0  0  0  0  0  0  0  0  0  0
  141.7137   79.0480  224.8720 H   0  0  0  0  0  0  0  0  0  0  0  0
  141.6800   77.3615  223.0674 H   0  0  0  0  0  0  0  0  0  0  0  0
  1  2  2  0
  2  3  1  0
  3  4  1  0
  4  5  1  0
  5  6  2  0
  5  7  1  0
  7  8  1  0
  8  9  1  0
  9 10  1  0
  9 11  1  0
 11 12  1  0
 12 13  1  0
 13 14  1  0
  2 15  1  0
 15 16  2  0
 16 17  1  0
 17 18  2  0
 18 19  1  0
 19 20  2  0
 20 21  1  0
 20 22  1  0
 22 23  2  0
 23 24  1  0
 24 25  2  0
 12  7  1  0
 25 15  1  0
 24 18  1  0
  3 26  1  0
  4 27  1  0
  4 28  1  0
  8 29  1  0
  8 30  1  0
  9 31  1  6
 10 32  1  0
 11 33  1  0
 11 34  1  0
 12 35  1  6
 13 36  1  0
 13 37  1  0
 14 38  1  0
 16 39  1  0
 17 40  1  0
 19 41  1  0
 22 42  1  0
 23 43  1  0
M  END
>  <smiles>  (37) 
O=C(NCC(=O)N1C[C@H](O)C[C@@H]1CO)c1ccc2cc(F)ccc2n1

>  <score_type>  (37) 
oracle

>  <origin>  (37) 
autodockgpu

>  <m_score__min__energy>  (37) 
-7.5599999999999996

>  <m_primary>  (37) 
energy

>  <rmsd>  (37) 
8.732154552057263

>  <m_score__min__rmsd>  (37) 
8.732154552057263

>  <meeko>  (37) 
{"free_energy": -4.5, "intermolecular_energy": -6.58, "internal_energy": -4.56, "cluster_size": 2, "cluster_id": 7, "rank_in_cluster": 1}

>  <energy>  (37) 
-6.45

>  <cluster_rmsd>  (37) 
0.0

>  <cluster>  (37) 
4

$$$$

     RDKit          3D

 43 45  0  0  0  0  0  0  0  0999 V2000
  140.5820   74.7970  222.1210 O   0  0  0  0  0  0  0  0  0  0  0  0
  140.5840   75.8830  221.4820 C   0  0  0  0  0  0  0  0  0  0  0  0
  140.9630   75.9380  220.1140 N   0  0  0  0  0  0  0  0  0  0  0  0
  141.3720   74.7760  219.3510 C   0  0  0  0  0  0  0  0  0  0  0  0
  142.7910   74.9770  218.9640 C   0  0  0  0  0  0  0  0  0  0  0  0
  143.0300   75.8710  218.0830 O   0  0  0  0  0  0  0  0  0  0  0  0
  143.8520   74.2190  219.5330 N   0  0  0  0  0  0  0  0  0  0  0  0
  144.8120   74.7700  220.4640 C   0  0  0  0  0  0  0  0  0  0  0  0
  145.7580   73.6360  220.8060 C   0  0  2  0  0  0  0  0  0  0  0  0
  146.9740   73.7540  220.1040 O   0  0  0  0  0  0  0  0  0  0  0  0
  144.9920   72.4120  220.3960 C   0  0  0  0  0  0  0  0  0  0  0  0
  144.1110   72.8280  219.2660 C   0  0  2  0  0  0  0  0  0  0  0  0
  144.7410   72.5790  217.9140 C   0  0  0  0  0  0  0  0  0  0  0  0
  146.0040   73.2140  217.8740 O   0  0  0  0  0  0  0  0  0  0  0  0
  140.1830   77.1180  222.1730 C   0  0  0  0  0  0  0  0  0  0  0  0
  141.1410   77.9410  222.7250 C   0  0  0  0  0  0  0  0  0  0  0  0
  140.8160   79.1160  223.3850 C   0  0  0  0  0  0  0  0  0  0  0  0
  139.4820   79.4290  223.4680 C   0  0  0  0  0  0  0  0  0  0  0  0
  139.1090   80.5910  224.1170 C   0  0  0  0  0  0  0  0  0  0  0  0
  137.7680   80.9510  224.2260 C   0  0  0  0  0  0  0  0  0  0  0  0
  137.3760   82.0840  224.8570 F   0  0  0  0  0  0  0  0  0  0  0  0
  136.8330   80.0850  223.6510 C   0  0  0  0  0  0  0  0  0  0  0  0
  137.2350   78.9220  223.0030 C   0  0  0  0  0  0  0  0  0  0  0  0
  138.5670   78.5810  222.9040 C   0  0  0  0  0  0  0  0  0  0  0  0
  138.8800   77.4410  222.2640 N   0  0  0  0  0  0  0  0  0  0  0  0
  140.9340   76.8990  219.6550 H   0  0  0  0  0  0  0  0  0  0  0  0
  141.2746   73.8690  219.9658 H   0  0  0  0  0  0  0  0  0  0  0  0
  140.7394   74.6541  218.4594 H   0  0  0  0  0  0  0  0  0  0  0  0
  145.3629   75.6006  219.9986 H   0  0  0  0  0  0  0  0  0  0  0  0
  144.3193   75.1695  221.3627 H   0  0  0  0  0  0  0  0  0  0  0  0
  146.0469   73.6186  221.8672 H   0  0  0  0  0  0  0  0  0  0  0  0
  146.8190   74.4680  219.4260 H   0  0  0  0  0  0  0  0  0  0  0  0
  145.6837   71.6218  220.0687 H   0  0  0  0  0  0  0  0  0  0  0  0
  144.4040   72.0092  221.2339 H   0  0  0  0  0  0  0  0  0  0  0  0
  143.1822   72.2412  219.2113 H   0  0  0  0  0  0  0  0  0  0  0  0
  144.8663   71.4973  217.7585 H   0  0  0  0  0  0  0  0  0  0  0  0
  144.0948   72.9837  217.1211 H   0  0  0  0  0  0  0  0  0  0  0  0
  145.9290   74.1440  218.2380 H   0  0  0  0  0  0  0  0  0  0  0  0
  142.1999   77.6557  222.6389 H   0  0  0  0  0  0  0  0  0  0  0  0
  141.5892   79.7657  223.8208 H   0  0  0  0  0  0  0  0  0  0  0  0
  139.8821   81.2405  224.5535 H   0  0  0  0  0  0  0  0  0  0  0  0
  135.7618   80.3275  223.7122 H   0  0  0  0  0  0  0  0  0  0  0  0
  136.4750   78.2611  222.5607 H   0  0  0  0  0  0  0  0  0  0  0  0
  1  2  2  0
  2  3  1  0
  3  4  1  0
  4  5  1  0
  5  6  2  0
  5  7  1  0
  7  8  1  0
  8  9  1  0
  9 10  1  0
  9 11  1  0
 11 12  1  0
 12 13  1  0
 13 14  1  0
  2 15  1  0
 15 16  2  0
 16 17  1  0
 17 18  2  0
 18 19  1  0
 19 20  2  0
 20 21  1  0
 20 22  1  0
 22 23  2  0
 23 24  1  0
 24 25  2  0
 12  7  1  0
 25 15  1  0
 24 18  1  0
  3 26  1  0
  4 27  1  0
  4 28  1  0
  8 29  1  0
  8 30  1  0
  9 31  1  1
 10 32  1  0
 11 33  1  0
 11 34  1  0
 12 35  1  6
 13 36  1  0
 13 37  1  0
 14 38  1  0
 16 39  1  0
 17 40  1  0
 19 41  1  0
 22 42  1  0
 23 43  1  0
M  END
>  <smiles>  (38) 
O=C(NCC(=O)N1C[C@H](O)C[C@@H]1CO)c1ccc2cc(F)ccc2n1

>  <score_type>  (38) 
oracle

>  <origin>  (38) 
autodockgpu

>  <m_score__min__energy>  (38) 
-7.5599999999999996

>  <m_primary>  (38) 
energy

>  <rmsd>  (38) 
8.29299536529774

>  <m_score__min__rmsd>  (38) 
8.29299536529774

>  <meeko>  (38) 
{"free_energy": -6.45, "intermolecular_energy": -8.54, "internal_energy": -2.19, "cluster_size": 2, "cluster_id": 4, "rank_in_cluster": 1}

>  <energy>  (38) 
-6.4

>  <cluster_rmsd>  (38) 
0.16

>  <cluster>  (38) 
4

$$$$

     RDKit          3D

 43 45  0  0  0  0  0  0  0  0999 V2000
  139.9980   73.5860  222.5400 O   0  0  0  0  0  0  0  0  0  0  0  0
  139.9480   72.3410  222.3580 C   0  0  0  0  0  0  0  0  0  0  0  0
  139.9020   71.7840  221.0510 N   0  0  0  0  0  0  0  0  0  0  0  0
  139.9070   72.5820  219.8430 C   0  0  0  0  0  0  0  0  0  0  0  0
  138.5300   73.1040  219.6500 C   0  0  0  0  0  0  0  0  0  0  0  0
  137.8180   72.5410  218.7520 O   0  0  0  0  0  0  0  0  0  0  0  0
  138.0090   74.1820  220.4170 N   0  0  0  0  0  0  0  0  0  0  0  0
  138.8210   75.2720  220.9120 C   0  0  0  0  0  0  0  0  0  0  0  0
  137.8770   76.1800  221.6760 C   0  0  2  0  0  0  0  0  0  0  0  0
  137.9970   75.9900  223.0670 O   0  0  0  0  0  0  0  0  0  0  0  0
  136.5230   75.7750  221.1710 C   0  0  0  0  0  0  0  0  0  0  0  0
  136.6290   74.3340  220.8000 C   0  0  2  0  0  0  0  0  0  0  0  0
  136.2080   73.4110  221.9220 C   0  0  0  0  0  0  0  0  0  0  0  0
  137.3370   73.1170  222.7210 O   0  0  0  0  0  0  0  0  0  0  0  0
  139.9390   71.4470  223.5260 C   0  0  0  0  0  0  0  0  0  0  0  0
  139.3730   70.1940  223.4310 C   0  0  0  0  0  0  0  0  0  0  0  0
  139.3390   69.3140  224.5020 C   0  0  0  0  0  0  0  0  0  0  0  0
  139.8990   69.7500  225.6770 C   0  0  0  0  0  0  0  0  0  0  0  0
  139.8890   68.9080  226.7730 C   0  0  0  0  0  0  0  0  0  0  0  0
  140.4450   69.3050  227.9870 C   0  0  0  0  0  0  0  0  0  0  0  0
  140.4480   68.4990  229.0760 F   0  0  0  0  0  0  0  0  0  0  0  0
  141.0060   70.5840  228.0350 C   0  0  0  0  0  0  0  0  0  0  0  0
  141.0040   71.4130  226.9180 C   0  0  0  0  0  0  0  0  0  0  0  0
  140.4490   71.0030  225.7240 C   0  0  0  0  0  0  0  0  0  0  0  0
  140.4830   71.8580  224.6860 N   0  0  0  0  0  0  0  0  0  0  0  0
  139.8610   70.7210  220.9930 H   0  0  0  0  0  0  0  0  0  0  0  0
  140.6147   73.4176  219.9473 H   0  0  0  0  0  0  0  0  0  0  0  0
  140.2176   71.9765  218.9788 H   0  0  0  0  0  0  0  0  0  0  0  0
  139.6082   74.8905  221.5788 H   0  0  0  0  0  0  0  0  0  0  0  0
  139.3211   75.8078  220.0918 H   0  0  0  0  0  0  0  0  0  0  0  0
  138.0842   77.2489  221.5195 H   0  0  0  0  0  0  0  0  0  0  0  0
  138.4140   75.0910  223.1750 H   0  0  0  0  0  0  0  0  0  0  0  0
  135.7665   75.9112  221.9579 H   0  0  0  0  0  0  0  0  0  0  0  0
  136.2171   76.3882  220.3105 H   0  0  0  0  0  0  0  0  0  0  0  0
  135.9449   74.0528  219.9858 H   0  0  0  0  0  0  0  0  0  0  0  0
  135.4391   73.9028  222.5359 H   0  0  0  0  0  0  0  0  0  0  0  0
  135.7945   72.4811  221.5045 H   0  0  0  0  0  0  0  0  0  0  0  0
  137.9060   73.9370  222.8200 H   0  0  0  0  0  0  0  0  0  0  0  0
  138.9331   69.8813  222.4725 H   0  0  0  0  0  0  0  0  0  0  0  0
  138.8856   68.3156  224.4144 H   0  0  0  0  0  0  0  0  0  0  0  0
  139.4354   67.9097  226.6854 H   0  0  0  0  0  0  0  0  0  0  0  0
  141.4570   70.9414  228.9725 H   0  0  0  0  0  0  0  0  0  0  0  0
  141.4536   72.4145  226.9884 H   0  0  0  0  0  0  0  0  0  0  0  0
  1  2  2  0
  2  3  1  0
  3  4  1  0
  4  5  1  0
  5  6  2  0
  5  7  1  0
  7  8  1  0
  8  9  1  0
  9 10  1  0
  9 11  1  0
 11 12  1  0
 12 13  1  0
 13 14  1  0
  2 15  1  0
 15 16  2  0
 16 17  1  0
 17 18  2  0
 18 19  1  0
 19 20  2  0
 20 21  1  0
 20 22  1  0
 22 23  2  0
 23 24  1  0
 24 25  2  0
 12  7  1  0
 25 15  1  0
 24 18  1  0
  3 26  1  0
  4 27  1  0
  4 28  1  0
  8 29  1  0
  8 30  1  0
  9 31  1  1
 10 32  1  0
 11 33  1  0
 11 34  1  0
 12 35  1  6
 13 36  1  0
 13 37  1  0
 14 38  1  0
 16 39  1  0
 17 40  1  0
 19 41  1  0
 22 42  1  0
 23 43  1  0
M  END
>  <smiles>  (39) 
O=C(NCC(=O)N1C[C@H](O)C[C@@H]1CO)c1ccc2cc(F)ccc2n1

>  <score_type>  (39) 
oracle

>  <origin>  (39) 
autodockgpu

>  <m_score__min__energy>  (39) 
-7.5599999999999996

>  <m_primary>  (39) 
energy

>  <rmsd>  (39) 
3.142393076456996

>  <m_score__min__rmsd>  (39) 
3.142393076456996

>  <meeko>  (39) 
{"free_energy": -5.44, "intermolecular_energy": -7.53, "internal_energy": -3.37, "cluster_size": 8, "cluster_id": 5, "rank_in_cluster": 4}

>  <energy>  (39) 
-6.09

>  <cluster_rmsd>  (39) 
0.0

>  <cluster>  (39) 
5

$$$$

     RDKit          3D

 43 45  0  0  0  0  0  0  0  0999 V2000
  139.8350   70.9640  221.0830 O   0  0  0  0  0  0  0  0  0  0  0  0
  139.7500   71.5660  222.1860 C   0  0  0  0  0  0  0  0  0  0  0  0
  139.6420   72.9810  222.2530 N   0  0  0  0  0  0  0  0  0  0  0  0
  139.6210   73.8360  221.0840 C   0  0  0  0  0  0  0  0  0  0  0  0
  139.9050   75.2200  221.5410 C   0  0  0  0  0  0  0  0  0  0  0  0
  139.5630   75.5170  222.7360 O   0  0  0  0  0  0  0  0  0  0  0  0
  140.5270   76.1870  220.7040 N   0  0  0  0  0  0  0  0  0  0  0  0
  141.3590   75.8410  219.5720 C   0  0  0  0  0  0  0  0  0  0  0  0
  141.8180   77.1570  218.9750 C   0  0  2  0  0  0  0  0  0  0  0  0
  143.1430   77.4550  219.3480 O   0  0  0  0  0  0  0  0  0  0  0  0
  140.8410   78.1500  219.5380 C   0  0  0  0  0  0  0  0  0  0  0  0
  140.4160   77.6130  220.8630 C   0  0  2  0  0  0  0  0  0  0  0  0
  141.2440   78.1600  222.0060 C   0  0  0  0  0  0  0  0  0  0  0  0
  142.1880   79.0770  221.4880 O   0  0  0  0  0  0  0  0  0  0  0  0
  139.7640   70.7810  223.4300 C   0  0  0  0  0  0  0  0  0  0  0  0
  139.2300   69.5110  223.4500 C   0  0  0  0  0  0  0  0  0  0  0  0
  139.2190   68.7300  224.5960 C   0  0  0  0  0  0  0  0  0  0  0  0
  139.7680   69.2850  225.7260 C   0  0  0  0  0  0  0  0  0  0  0  0
  139.7800   68.5440  226.8930 C   0  0  0  0  0  0  0  0  0  0  0  0
  140.3260   69.0630  228.0640 C   0  0  0  0  0  0  0  0  0  0  0  0
  140.3500   68.3590  229.2220 F   0  0  0  0  0  0  0  0  0  0  0  0
  140.8550   70.3550  227.9960 C   0  0  0  0  0  0  0  0  0  0  0  0
  140.8310   71.0790  226.8080 C   0  0  0  0  0  0  0  0  0  0  0  0
  140.2860   70.5500  225.6580 C   0  0  0  0  0  0  0  0  0  0  0  0
  140.2980   71.3080  224.5480 N   0  0  0  0  0  0  0  0  0  0  0  0
  139.5750   73.4030  223.2290 H   0  0  0  0  0  0  0  0  0  0  0  0
  140.3896   73.5116  220.3671 H   0  0  0  0  0  0  0  0  0  0  0  0
  138.6429   73.7853  220.5832 H   0  0  0  0  0  0  0  0  0  0  0  0
  142.2248   75.2475  219.9009 H   0  0  0  0  0  0  0  0  0  0  0  0
  140.8090   75.2346  218.8373 H   0  0  0  0  0  0  0  0  0  0  0  0
  141.8310   77.1522  217.8751 H   0  0  0  0  0  0  0  0  0  0  0  0
  143.1310   77.5090  220.3440 H   0  0  0  0  0  0  0  0  0  0  0  0
  141.3232   79.1310  219.6613 H   0  0  0  0  0  0  0  0  0  0  0  0
  139.9800   78.2884  218.8675 H   0  0  0  0  0  0  0  0  0  0  0  0
  139.3946   77.9158  221.1369 H   0  0  0  0  0  0  0  0  0  0  0  0
  140.5881   78.6718  222.7256 H   0  0  0  0  0  0  0  0  0  0  0  0
  141.7647   77.3369  222.5172 H   0  0  0  0  0  0  0  0  0  0  0  0
  143.0130   78.5870  221.1970 H   0  0  0  0  0  0  0  0  0  0  0  0
  138.7974   69.1024  222.5249 H   0  0  0  0  0  0  0  0  0  0  0  0
  138.7918   67.7164  224.5997 H   0  0  0  0  0  0  0  0  0  0  0  0
  139.3524   67.5305  226.8965 H   0  0  0  0  0  0  0  0  0  0  0  0
  141.2974   70.8067  228.8962 H   0  0  0  0  0  0  0  0  0  0  0  0
  141.2554   72.0936  226.7863 H   0  0  0  0  0  0  0  0  0  0  0  0
  1  2  2  0
  2  3  1  0
  3  4  1  0
  4  5  1  0
  5  6  2  0
  5  7  1  0
  7  8  1  0
  8  9  1  0
  9 10  1  0
  9 11  1  0
 11 12  1  0
 12 13  1  0
 13 14  1  0
  2 15  1  0
 15 16  2  0
 16 17  1  0
 17 18  2  0
 18 19  1  0
 19 20  2  0
 20 21  1  0
 20 22  1  0
 22 23  2  0
 23 24  1  0
 24 25  2  0
 12  7  1  0
 25 15  1  0
 24 18  1  0
  3 26  1  0
  4 27  1  0
  4 28  1  0
  8 29  1  0
  8 30  1  0
  9 31  1  6
 10 32  1  0
 11 33  1  0
 11 34  1  0
 12 35  1  1
 13 36  1  0
 13 37  1  0
 14 38  1  0
 16 39  1  0
 17 40  1  0
 19 41  1  0
 22 42  1  0
 23 43  1  0
M  END
>  <smiles>  (40) 
O=C(NCC(=O)N1C[C@H](O)C[C@@H]1CO)c1ccc2cc(F)ccc2n1

>  <score_type>  (40) 
oracle

>  <origin>  (40) 
autodockgpu

>  <m_score__min__energy>  (40) 
-7.5599999999999996

>  <m_primary>  (40) 
energy

>  <rmsd>  (40) 
1.4722520954184783

>  <m_score__min__rmsd>  (40) 
1.4722520954184783

>  <meeko>  (40) 
{"free_energy": -6.47, "intermolecular_energy": -8.56, "internal_energy": -2.8, "cluster_size": 18, "cluster_id": 3, "rank_in_cluster": 8}

>  <energy>  (40) 
-6.01

>  <cluster_rmsd>  (40) 
0.64

>  <cluster>  (40) 
5

$$$$

     RDKit          3D

 43 45  0  0  0  0  0  0  0  0999 V2000
  140.3180   73.2940  222.6540 O   0  0  0  0  0  0  0  0  0  0  0  0
  140.3740   72.0400  222.5480 C   0  0  0  0  0  0  0  0  0  0  0  0
  140.6250   71.4110  221.2970 N   0  0  0  0  0  0  0  0  0  0  0  0
  140.8330   72.1430  220.0640 C   0  0  0  0  0  0  0  0  0  0  0  0
  142.2900   72.4040  219.9440 C   0  0  0  0  0  0  0  0  0  0  0  0
  143.0780   71.4990  220.3810 O   0  0  0  0  0  0  0  0  0  0  0  0
  142.8050   73.5990  219.3720 N   0  0  0  0  0  0  0  0  0  0  0  0
  142.4950   74.0360  218.0280 C   0  0  0  0  0  0  0  0  0  0  0  0
  143.2520   75.3350  217.8280 C   0  0  2  0  0  0  0  0  0  0  0  0
  144.4180   75.1350  217.0640 O   0  0  0  0  0  0  0  0  0  0  0  0
  143.5690   75.7690  219.2300 C   0  0  0  0  0  0  0  0  0  0  0  0
  143.6890   74.5210  220.0380 C   0  0  2  0  0  0  0  0  0  0  0  0
  145.1150   74.0260  220.1380 C   0  0  0  0  0  0  0  0  0  0  0  0
  145.4780   73.4270  218.9090 O   0  0  0  0  0  0  0  0  0  0  0  0
  140.1760   71.2120  223.7470 C   0  0  0  0  0  0  0  0  0  0  0  0
  139.4360   70.0520  223.6680 C   0  0  0  0  0  0  0  0  0  0  0  0
  139.2200   69.2360  224.7690 C   0  0  0  0  0  0  0  0  0  0  0  0
  139.7800   69.6390  225.9550 C   0  0  0  0  0  0  0  0  0  0  0  0
  139.5920   68.8580  227.0800 C   0  0  0  0  0  0  0  0  0  0  0  0
  140.1420   69.2240  228.3060 C   0  0  0  0  0  0  0  0  0  0  0  0
  139.9720   68.4770  229.4240 F   0  0  0  0  0  0  0  0  0  0  0  0
  140.8840   70.4090  228.3370 C   0  0  0  0  0  0  0  0  0  0  0  0
  141.0590   71.1770  227.1900 C   0  0  0  0  0  0  0  0  0  0  0  0
  140.5070   70.7990  225.9840 C   0  0  0  0  0  0  0  0  0  0  0  0
  140.7180   71.5910  224.9180 N   0  0  0  0  0  0  0  0  0  0  0  0
  140.6550   70.3470  221.3020 H   0  0  0  0  0  0  0  0  0  0  0  0
  140.4863   71.5449  219.2084 H   0  0  0  0  0  0  0  0  0  0  0  0
  140.2683   73.0870  220.0723 H   0  0  0  0  0  0  0  0  0  0  0  0
  142.8248   73.2844  217.2957 H   0  0  0  0  0  0  0  0  0  0  0  0
  141.4127   74.1737  217.8877 H   0  0  0  0  0  0  0  0  0  0  0  0
  142.6774   76.0899  217.2713 H   0  0  0  0  0  0  0  0  0  0  0  0
  145.1730   75.2010  217.7120 H   0  0  0  0  0  0  0  0  0  0  0  0
  144.5159   76.3285  219.2505 H   0  0  0  0  0  0  0  0  0  0  0  0
  142.7865   76.4304  219.6302 H   0  0  0  0  0  0  0  0  0  0  0  0
  143.4098   74.6677  221.0918 H   0  0  0  0  0  0  0  0  0  0  0  0
  145.7858   74.8718  220.3492 H   0  0  0  0  0  0  0  0  0  0  0  0
  145.1984   73.2898  220.9511 H   0  0  0  0  0  0  0  0  0  0  0  0
  145.8670   74.1180  218.2970 H   0  0  0  0  0  0  0  0  0  0  0  0
  139.0020   69.7634  222.6993 H   0  0  0  0  0  0  0  0  0  0  0  0
  138.6288   68.3113  224.6948 H   0  0  0  0  0  0  0  0  0  0  0  0
  138.9995   67.9342  227.0058 H   0  0  0  0  0  0  0  0  0  0  0  0
  141.3367   70.7393  229.2836 H   0  0  0  0  0  0  0  0  0  0  0  0
  141.6491   72.1036  227.2462 H   0  0  0  0  0  0  0  0  0  0  0  0
  1  2  2  0
  2  3  1  0
  3  4  1  0
  4  5  1  0
  5  6  2  0
  5  7  1  0
  7  8  1  0
  8  9  1  0
  9 10  1  0
  9 11  1  0
 11 12  1  0
 12 13  1  0
 13 14  1  0
  2 15  1  0
 15 16  2  0
 16 17  1  0
 17 18  2  0
 18 19  1  0
 19 20  2  0
 20 21  1  0
 20 22  1  0
 22 23  2  0
 23 24  1  0
 24 25  2  0
 12  7  1  0
 25 15  1  0
 24 18  1  0
  3 26  1  0
  4 27  1  0
  4 28  1  0
  8 29  1  0
  8 30  1  0
  9 31  1  6
 10 32  1  0
 11 33  1  0
 11 34  1  0
 12 35  1  1
 13 36  1  0
 13 37  1  0
 14 38  1  0
 16 39  1  0
 17 40  1  0
 19 41  1  0
 22 42  1  0
 23 43  1  0
M  END
>  <smiles>  (41) 
O=C(NCC(=O)N1C[C@H](O)C[C@@H]1CO)c1ccc2cc(F)ccc2n1

>  <score_type>  (41) 
oracle

>  <origin>  (41) 
autodockgpu

>  <m_score__min__energy>  (41) 
-7.5599999999999996

>  <m_primary>  (41) 
energy

>  <rmsd>  (41) 
2.679716438729492

>  <m_score__min__rmsd>  (41) 
2.679716438729492

>  <meeko>  (41) 
{"free_energy": -6.72, "intermolecular_energy": -8.81, "internal_energy": -2.18, "cluster_size": 13, "cluster_id": 1, "rank_in_cluster": 4}

>  <energy>  (41) 
-5.98

>  <cluster_rmsd>  (41) 
0.66

>  <cluster>  (41) 
5

$$$$

     RDKit          3D

 43 45  0  0  0  0  0  0  0  0999 V2000
  138.7910   70.6480  221.5180 O   0  0  0  0  0  0  0  0  0  0  0  0
  139.1910   71.2380  222.5570 C   0  0  0  0  0  0  0  0  0  0  0  0
  139.4180   72.6410  222.5710 N   0  0  0  0  0  0  0  0  0  0  0  0
  139.2140   73.4950  221.4190 C   0  0  0  0  0  0  0  0  0  0  0  0
  140.2200   74.5850  221.4910 C   0  0  0  0  0  0  0  0  0  0  0  0
  140.0400   75.4800  222.3840 O   0  0  0  0  0  0  0  0  0  0  0  0
  141.3380   74.6500  220.6150 N   0  0  0  0  0  0  0  0  0  0  0  0
  142.5300   73.8480  220.7850 C   0  0  0  0  0  0  0  0  0  0  0  0
  143.4580   74.2360  219.6510 C   0  0  2  0  0  0  0  0  0  0  0  0
  144.4690   75.1110  220.0930 O   0  0  0  0  0  0  0  0  0  0  0  0
  142.5400   74.8950  218.6630 C   0  0  0  0  0  0  0  0  0  0  0  0
  141.4360   75.5050  219.4600 C   0  0  2  0  0  0  0  0  0  0  0  0
  141.6980   76.9550  219.8030 C   0  0  0  0  0  0  0  0  0  0  0  0
  142.9990   77.3000  219.3690 O   0  0  0  0  0  0  0  0  0  0  0  0
  139.4260   70.4540  223.7780 C   0  0  0  0  0  0  0  0  0  0  0  0
  139.0350   69.1340  223.8360 C   0  0  0  0  0  0  0  0  0  0  0  0
  139.2350   68.3510  224.9630 C   0  0  0  0  0  0  0  0  0  0  0  0
  139.8440   68.9560  226.0340 C   0  0  0  0  0  0  0  0  0  0  0  0
  140.0640   68.2160  227.1800 C   0  0  0  0  0  0  0  0  0  0  0  0
  140.6800   68.7850  228.2930 C   0  0  0  0  0  0  0  0  0  0  0  0
  140.9070   68.0820  229.4290 F   0  0  0  0  0  0  0  0  0  0  0  0
  141.0580   70.1270  228.1880 C   0  0  0  0  0  0  0  0  0  0  0  0
  140.8250   70.8490  227.0220 C   0  0  0  0  0  0  0  0  0  0  0  0
  140.2150   70.2700  225.9310 C   0  0  0  0  0  0  0  0  0  0  0  0
  140.0220   71.0300  224.8380 N   0  0  0  0  0  0  0  0  0  0  0  0
  139.7550   73.0540  223.4930 H   0  0  0  0  0  0  0  0  0  0  0  0
  139.3515   72.9169  220.4933 H   0  0  0  0  0  0  0  0  0  0  0  0
  138.1941   73.9071  221.4166 H   0  0  0  0  0  0  0  0  0  0  0  0
  143.0009   74.0637  221.7554 H   0  0  0  0  0  0  0  0  0  0  0  0
  142.2988   72.7727  220.7673 H   0  0  0  0  0  0  0  0  0  0  0  0
  143.9969   73.3790  219.2208 H   0  0  0  0  0  0  0  0  0  0  0  0
  144.5550   75.7990  219.3770 H   0  0  0  0  0  0  0  0  0  0  0  0
  143.0792   75.6724  218.1018 H   0  0  0  0  0  0  0  0  0  0  0  0
  142.1523   74.1701  217.9321 H   0  0  0  0  0  0  0  0  0  0  0  0
  140.4875   75.5544  218.9051 H   0  0  0  0  0  0  0  0  0  0  0  0
  140.9586   77.5935  219.2975 H   0  0  0  0  0  0  0  0  0  0  0  0
  141.6164   77.1017  220.8901 H   0  0  0  0  0  0  0  0  0  0  0  0
  143.6590   77.1230  220.1020 H   0  0  0  0  0  0  0  0  0  0  0  0
  138.5473   68.6857  222.9578 H   0  0  0  0  0  0  0  0  0  0  0  0
  138.9211   67.2973  224.9969 H   0  0  0  0  0  0  0  0  0  0  0  0
  139.7484   67.1628  227.2142 H   0  0  0  0  0  0  0  0  0  0  0  0
  141.5474   70.6198  229.0410 H   0  0  0  0  0  0  0  0  0  0  0  0
  141.1340   71.9034  226.9701 H   0  0  0  0  0  0  0  0  0  0  0  0
  1  2  2  0
  2  3  1  0
  3  4  1  0
  4  5  1  0
  5  6  2  0
  5  7  1  0
  7  8  1  0
  8  9  1  0
  9 10  1  0
  9 11  1  0
 11 12  1  0
 12 13  1  0
 13 14  1  0
  2 15  1  0
 15 16  2  0
 16 17  1  0
 17 18  2  0
 18 19  1  0
 19 20  2  0
 20 21  1  0
 20 22  1  0
 22 23  2  0
 23 24  1  0
 24 25  2  0
 12  7  1  0
 25 15  1  0
 24 18  1  0
  3 26  1  0
  4 27  1  0
  4 28  1  0
  8 29  1  0
  8 30  1  0
  9 31  1  6
 10 32  1  0
 11 33  1  0
 11 34  1  0
 12 35  1  6
 13 36  1  0
 13 37  1  0
 14 38  1  0
 16 39  1  0
 17 40  1  0
 19 41  1  0
 22 42  1  0
 23 43  1  0
M  END
>  <smiles>  (42) 
O=C(NCC(=O)N1C[C@H](O)C[C@@H]1CO)c1ccc2cc(F)ccc2n1

>  <score_type>  (42) 
oracle

>  <origin>  (42) 
autodockgpu

>  <m_score__min__energy>  (42) 
-7.5599999999999996

>  <m_primary>  (42) 
energy

>  <rmsd>  (42) 
2.1527248322279684

>  <m_score__min__rmsd>  (42) 
2.1527248322279684

>  <meeko>  (42) 
{"free_energy": -6.34, "intermolecular_energy": -8.42, "internal_energy": -2.59, "cluster_size": 13, "cluster_id": 1, "rank_in_cluster": 10}

>  <energy>  (42) 
-5.44

>  <cluster_rmsd>  (42) 
1.53

>  <cluster>  (42) 
5

$$$$

     RDKit          3D

 43 45  0  0  0  0  0  0  0  0999 V2000
  140.7420   71.8270  220.9320 O   0  0  0  0  0  0  0  0  0  0  0  0
  140.5190   72.7530  221.7570 C   0  0  0  0  0  0  0  0  0  0  0  0
  139.9420   72.4890  223.0290 N   0  0  0  0  0  0  0  0  0  0  0  0
  139.5700   71.1630  223.4780 C   0  0  0  0  0  0  0  0  0  0  0  0
  140.1690   70.9650  224.8220 C   0  0  0  0  0  0  0  0  0  0  0  0
  140.6220   72.0030  225.4130 O   0  0  0  0  0  0  0  0  0  0  0  0
  140.2460   69.6870  225.4420 N   0  0  0  0  0  0  0  0  0  0  0  0
  139.5810   68.5110  224.9240 C   0  0  0  0  0  0  0  0  0  0  0  0
  139.9180   67.3870  225.8840 C   0  0  2  0  0  0  0  0  0  0  0  0
  138.8440   67.1180  226.7550 O   0  0  0  0  0  0  0  0  0  0  0  0
  141.1190   67.9080  226.6190 C   0  0  0  0  0  0  0  0  0  0  0  0
  140.9810   69.3940  226.6440 C   0  0  2  0  0  0  0  0  0  0  0  0
  140.3060   69.8950  227.9020 C   0  0  0  0  0  0  0  0  0  0  0  0
  139.7000   68.8010  228.5630 O   0  0  0  0  0  0  0  0  0  0  0  0
  140.8640   74.1340  221.3910 C   0  0  0  0  0  0  0  0  0  0  0  0
  141.4580   74.3970  220.1760 C   0  0  0  0  0  0  0  0  0  0  0  0
  141.8020   75.6820  219.7830 C   0  0  0  0  0  0  0  0  0  0  0  0
  141.5240   76.6930  220.6680 C   0  0  0  0  0  0  0  0  0  0  0  0
  141.8500   77.9910  220.3200 C   0  0  0  0  0  0  0  0  0  0  0  0
  141.5870   79.0510  221.1850 C   0  0  0  0  0  0  0  0  0  0  0  0
  141.8960   80.3320  220.8690 F   0  0  0  0  0  0  0  0  0  0  0  0
  140.9850   78.7360  222.4060 C   0  0  0  0  0  0  0  0  0  0  0  0
  140.6670   77.4210  222.7320 C   0  0  0  0  0  0  0  0  0  0  0  0
  140.9340   76.3840  221.8640 C   0  0  0  0  0  0  0  0  0  0  0  0
  140.6000   75.1390  222.2460 N   0  0  0  0  0  0  0  0  0  0  0  0
  139.7900   73.3330  223.6610 H   0  0  0  0  0  0  0  0  0  0  0  0
  138.4748   71.0800  223.5385 H   0  0  0  0  0  0  0  0  0  0  0  0
  139.9327   70.3989  222.7747 H   0  0  0  0  0  0  0  0  0  0  0  0
  138.4932   68.6708  224.8886 H   0  0  0  0  0  0  0  0  0  0  0  0
  139.9088   68.2796  223.8998 H   0  0  0  0  0  0  0  0  0  0  0  0
  140.1149   66.4303  225.3780 H   0  0  0  0  0  0  0  0  0  0  0  0
  139.2640   66.8990  227.6320 H   0  0  0  0  0  0  0  0  0  0  0  0
  141.1407   67.5099  227.6442 H   0  0  0  0  0  0  0  0  0  0  0  0
  142.0538   67.6009  226.1271 H   0  0  0  0  0  0  0  0  0  0  0  0
  141.9515   69.9114  226.6671 H   0  0  0  0  0  0  0  0  0  0  0  0
  141.0536   70.3579  228.5630 H   0  0  0  0  0  0  0  0  0  0  0  0
  139.5427   70.6434  227.6428 H   0  0  0  0  0  0  0  0  0  0  0  0
  138.9920   68.4020  227.9780 H   0  0  0  0  0  0  0  0  0  0  0  0
  141.6666   73.5593  219.4943 H   0  0  0  0  0  0  0  0  0  0  0  0
  142.2745   75.8807  218.8097 H   0  0  0  0  0  0  0  0  0  0  0  0
  142.3234   78.1893  219.3471 H   0  0  0  0  0  0  0  0  0  0  0  0
  140.7588   79.5406  223.1212 H   0  0  0  0  0  0  0  0  0  0  0  0
  140.1934   77.2049  223.7010 H   0  0  0  0  0  0  0  0  0  0  0  0
  1  2  2  0
  2  3  1  0
  3  4  1  0
  4  5  1  0
  5  6  2  0
  5  7  1  0
  7  8  1  0
  8  9  1  0
  9 10  1  0
  9 11  1  0
 11 12  1  0
 12 13  1  0
 13 14  1  0
  2 15  1  0
 15 16  2  0
 16 17  1  0
 17 18  2  0
 18 19  1  0
 19 20  2  0
 20 21  1  0
 20 22  1  0
 22 23  2  0
 23 24  1  0
 24 25  2  0
 12  7  1  0
 25 15  1  0
 24 18  1  0
  3 26  1  0
  4 27  1  0
  4 28  1  0
  8 29  1  0
  8 30  1  0
  9 31  1  6
 10 32  1  0
 11 33  1  0
 11 34  1  0
 12 35  1  6
 13 36  1  0
 13 37  1  0
 14 38  1  0
 16 39  1  0
 17 40  1  0
 19 41  1  0
 22 42  1  0
 23 43  1  0
M  END
>  <smiles>  (43) 
O=C(NCC(=O)N1C[C@H](O)C[C@@H]1CO)c1ccc2cc(F)ccc2n1

>  <score_type>  (43) 
oracle

>  <origin>  (43) 
autodockgpu

>  <m_score__min__energy>  (43) 
-7.5599999999999996

>  <m_primary>  (43) 
energy

>  <rmsd>  (43) 
8.86003142620623

>  <m_score__min__rmsd>  (43) 
8.86003142620623

>  <meeko>  (43) 
{"free_energy": -6.53, "intermolecular_energy": -8.62, "internal_energy": -2.87, "cluster_size": 5, "cluster_id": 2, "rank_in_cluster": 3}

>  <energy>  (43) 
-5.16

>  <cluster_rmsd>  (43) 
1.97

>  <cluster>  (43) 
5

$$$$

     RDKit          3D

 43 45  0  0  0  0  0  0  0  0999 V2000
  140.9240   71.4870  220.9260 O   0  0  0  0  0  0  0  0  0  0  0  0
  140.6770   72.4560  221.6930 C   0  0  0  0  0  0  0  0  0  0  0  0
  140.0290   72.2650  222.9440 N   0  0  0  0  0  0  0  0  0  0  0  0
  139.6070   70.9690  223.4340 C   0  0  0  0  0  0  0  0  0  0  0  0
  140.0430   70.8670  224.8500 C   0  0  0  0  0  0  0  0  0  0  0  0
  140.3050   71.9610  225.4560 O   0  0  0  0  0  0  0  0  0  0  0  0
  140.1710   69.6190  225.5200 N   0  0  0  0  0  0  0  0  0  0  0  0
  139.6010   68.3870  225.0220 C   0  0  0  0  0  0  0  0  0  0  0  0
  139.9640   67.3200  226.0360 C   0  0  2  0  0  0  0  0  0  0  0  0
  138.8740   67.0170  226.8740 O   0  0  0  0  0  0  0  0  0  0  0  0
  141.1010   67.9400  226.7970 C   0  0  0  0  0  0  0  0  0  0  0  0
  140.8730   69.4140  226.7610 C   0  0  2  0  0  0  0  0  0  0  0  0
  140.1190   69.9180  227.9720 C   0  0  0  0  0  0  0  0  0  0  0  0
  140.3480   71.3070  228.1080 O   0  0  0  0  0  0  0  0  0  0  0  0
  141.0690   73.8120  221.2810 C   0  0  0  0  0  0  0  0  0  0  0  0
  141.8220   73.9950  220.1410 C   0  0  0  0  0  0  0  0  0  0  0  0
  142.2170   75.2520  219.7080 C   0  0  0  0  0  0  0  0  0  0  0  0
  141.8230   76.3200  220.4750 C   0  0  0  0  0  0  0  0  0  0  0  0
  142.1930   77.5930  220.0840 C   0  0  0  0  0  0  0  0  0  0  0  0
  141.8170   78.7090  220.8290 C   0  0  0  0  0  0  0  0  0  0  0  0
  142.1670   79.9670  220.4680 F   0  0  0  0  0  0  0  0  0  0  0  0
  141.0550   78.4740  221.9770 C   0  0  0  0  0  0  0  0  0  0  0  0
  140.6950   77.1820  222.3480 C   0  0  0  0  0  0  0  0  0  0  0  0
  141.0770   76.0890  221.5990 C   0  0  0  0  0  0  0  0  0  0  0  0
  140.6930   74.8710  222.0200 N   0  0  0  0  0  0  0  0  0  0  0  0
  139.8620   73.1410  223.5260 H   0  0  0  0  0  0  0  0  0  0  0  0
  138.5124   70.8810  223.3702 H   0  0  0  0  0  0  0  0  0  0  0  0
  140.0504   70.1624  222.8317 H   0  0  0  0  0  0  0  0  0  0  0  0
  138.5080   68.4781  224.9374 H   0  0  0  0  0  0  0  0  0  0  0  0
  139.9856   68.1401  224.0215 H   0  0  0  0  0  0  0  0  0  0  0  0
  140.2375   66.3596  225.5746 H   0  0  0  0  0  0  0  0  0  0  0  0
  139.1990   66.2940  227.4790 H   0  0  0  0  0  0  0  0  0  0  0  0
  141.1049   67.5803  227.8365 H   0  0  0  0  0  0  0  0  0  0  0  0
  142.0718   67.6742  226.3532 H   0  0  0  0  0  0  0  0  0  0  0  0
  141.8092   69.9901  226.8026 H   0  0  0  0  0  0  0  0  0  0  0  0
  139.0428   69.7322  227.8407 H   0  0  0  0  0  0  0  0  0  0  0  0
  140.4672   69.3925  228.8735 H   0  0  0  0  0  0  0  0  0  0  0  0
  140.2440   71.7570  227.2190 H   0  0  0  0  0  0  0  0  0  0  0  0
  142.1200   73.1135  219.5544 H   0  0  0  0  0  0  0  0  0  0  0  0
  142.8162   75.3864  218.7953 H   0  0  0  0  0  0  0  0  0  0  0  0
  142.7928   77.7271  219.1717 H   0  0  0  0  0  0  0  0  0  0  0  0
  140.7347   79.3241  222.5972 H   0  0  0  0  0  0  0  0  0  0  0  0
  140.0939   77.0296  223.2566 H   0  0  0  0  0  0  0  0  0  0  0  0
  1  2  2  0
  2  3  1  0
  3  4  1  0
  4  5  1  0
  5  6  2  0
  5  7  1  0
  7  8  1  0
  8  9  1  0
  9 10  1  0
  9 11  1  0
 11 12  1  0
 12 13  1  0
 13 14  1  0
  2 15  1  0
 15 16  2  0
 16 17  1  0
 17 18  2  0
 18 19  1  0
 19 20  2  0
 20 21  1  0
 20 22  1  0
 22 23  2  0
 23 24  1  0
 24 25  2  0
 12  7  1  0
 25 15  1  0
 24 18  1  0
  3 26  1  0
  4 27  1  0
  4 28  1  0
  8 29  1  0
  8 30  1  0
  9 31  1  6
 10 32  1  0
 11 33  1  0
 11 34  1  0
 12 35  1  6
 13 36  1  0
 13 37  1  0
 14 38  1  0
 16 39  1  0
 17 40  1  0
 19 41  1  0
 22 42  1  0
 23 43  1  0
M  END
>  <smiles>  (44) 
O=C(NCC(=O)N1C[C@H](O)C[C@@H]1CO)c1ccc2cc(F)ccc2n1

>  <score_type>  (44) 
oracle

>  <origin>  (44) 
autodockgpu

>  <m_score__min__energy>  (44) 
-7.5599999999999996

>  <m_primary>  (44) 
energy

>  <rmsd>  (44) 
8.878281236794804

>  <m_score__min__rmsd>  (44) 
8.878281236794804

>  <meeko>  (44) 
{"free_energy": -6.67, "intermolecular_energy": -8.76, "internal_energy": -2.36, "cluster_size": 5, "cluster_id": 2, "rank_in_cluster": 1}

>  <energy>  (44) 
-4.91

>  <cluster_rmsd>  (44) 
1.88

>  <cluster>  (44) 
5

$$$$

     RDKit          3D

 43 45  0  0  0  0  0  0  0  0999 V2000
  140.0670   71.4100  220.8680 O   0  0  0  0  0  0  0  0  0  0  0  0
  140.3420   71.9820  221.9560 C   0  0  0  0  0  0  0  0  0  0  0  0
  140.7810   73.3330  221.9930 N   0  0  0  0  0  0  0  0  0  0  0  0
  140.9470   74.1510  220.8090 C   0  0  0  0  0  0  0  0  0  0  0  0
  141.8590   73.4230  219.8910 C   0  0  0  0  0  0  0  0  0  0  0  0
  141.3350   72.8990  218.8500 O   0  0  0  0  0  0  0  0  0  0  0  0
  143.2530   73.3010  220.1400 N   0  0  0  0  0  0  0  0  0  0  0  0
  144.2270   74.2810  219.7080 C   0  0  0  0  0  0  0  0  0  0  0  0
  145.5740   73.7590  220.1680 C   0  0  2  0  0  0  0  0  0  0  0  0
  146.2860   73.1720  219.1040 O   0  0  0  0  0  0  0  0  0  0  0  0
  145.2130   72.7520  221.2220 C   0  0  0  0  0  0  0  0  0  0  0  0
  143.8760   72.2090  220.8410 C   0  0  2  0  0  0  0  0  0  0  0  0
  143.9740   70.9410  220.0220 C   0  0  0  0  0  0  0  0  0  0  0  0
  142.6770   70.4020  219.8570 O   0  0  0  0  0  0  0  0  0  0  0  0
  140.2040   71.2310  223.2130 C   0  0  0  0  0  0  0  0  0  0  0  0
  139.5920   69.9960  223.2140 C   0  0  0  0  0  0  0  0  0  0  0  0
  139.4380   69.2480  224.3720 C   0  0  0  0  0  0  0  0  0  0  0  0
  139.9250   69.7980  225.5310 C   0  0  0  0  0  0  0  0  0  0  0  0
  139.7950   69.0890  226.7110 C   0  0  0  0  0  0  0  0  0  0  0  0
  140.2740   69.6040  227.9130 C   0  0  0  0  0  0  0  0  0  0  0  0
  140.1580   68.9300  229.0830 F   0  0  0  0  0  0  0  0  0  0  0  0
  140.8860   70.8600  227.8620 C   0  0  0  0  0  0  0  0  0  0  0  0
  141.0060   71.5530  226.6610 C   0  0  0  0  0  0  0  0  0  0  0  0
  140.5250   71.0270  225.4810 C   0  0  0  0  0  0  0  0  0  0  0  0
  140.6760   71.7540  224.3590 N   0  0  0  0  0  0  0  0  0  0  0  0
  140.9910   73.7350  222.9570 H   0  0  0  0  0  0  0  0  0  0  0  0
  139.9733   74.3110  220.3229 H   0  0  0  0  0  0  0  0  0  0  0  0
  141.3639   75.1345  221.0716 H   0  0  0  0  0  0  0  0  0  0  0  0
  144.2092   74.3810  218.6127 H   0  0  0  0  0  0  0  0  0  0  0  0
  144.0139   75.2748  220.1287 H   0  0  0  0  0  0  0  0  0  0  0  0
  146.2374   74.5498  220.5480 H   0  0  0  0  0  0  0  0  0  0  0  0
  146.4180   73.9040  218.4390 H   0  0  0  0  0  0  0  0  0  0  0  0
  145.9590   71.9440  221.2484 H   0  0  0  0  0  0  0  0  0  0  0  0
  145.1887   73.2103  222.2217 H   0  0  0  0  0  0  0  0  0  0  0  0
  143.2826   71.8895  221.7103 H   0  0  0  0  0  0  0  0  0  0  0  0
  144.4070   71.1699  219.0371 H   0  0  0  0  0  0  0  0  0  0  0  0
  144.6179   70.2129  220.5371 H   0  0  0  0  0  0  0  0  0  0  0  0
  141.9950   71.1340  219.9170 H   0  0  0  0  0  0  0  0  0  0  0  0
  139.2129   69.5899  222.2646 H   0  0  0  0  0  0  0  0  0  0  0  0
  138.9495   68.2625  224.3617 H   0  0  0  0  0  0  0  0  0  0  0  0
  139.3060   68.1037  226.7001 H   0  0  0  0  0  0  0  0  0  0  0  0
  141.2792   71.3080  228.7865 H   0  0  0  0  0  0  0  0  0  0  0  0
  141.4938   72.5389  226.6532 H   0  0  0  0  0  0  0  0  0  0  0  0
  1  2  2  0
  2  3  1  0
  3  4  1  0
  4  5  1  0
  5  6  2  0
  5  7  1  0
  7  8  1  0
  8  9  1  0
  9 10  1  0
  9 11  1  0
 11 12  1  0
 12 13  1  0
 13 14  1  0
  2 15  1  0
 15 16  2  0
 16 17  1  0
 17 18  2  0
 18 19  1  0
 19 20  2  0
 20 21  1  0
 20 22  1  0
 22 23  2  0
 23 24  1  0
 24 25  2  0
 12  7  1  0
 25 15  1  0
 24 18  1  0
  3 26  1  0
  4 27  1  0
  4 28  1  0
  8 29  1  0
  8 30  1  0
  9 31  1  1
 10 32  1  0
 11 33  1  0
 11 34  1  0
 12 35  1  1
 13 36  1  0
 13 37  1  0
 14 38  1  0
 16 39  1  0
 17 40  1  0
 19 41  1  0
 22 42  1  0
 23 43  1  0
M  END
>  <smiles>  (45) 
O=C(NCC(=O)N1C[C@H](O)C[C@@H]1CO)c1ccc2cc(F)ccc2n1

>  <score_type>  (45) 
oracle

>  <origin>  (45) 
autodockgpu

>  <m_score__min__energy>  (45) 
-7.5599999999999996

>  <m_primary>  (45) 
energy

>  <rmsd>  (45) 
3.8586769403122205

>  <m_score__min__rmsd>  (45) 
3.8586769403122205

>  <meeko>  (45) 
{"free_energy": -6.05, "intermolecular_energy": -8.14, "internal_energy": -2.82, "cluster_size": 13, "cluster_id": 1, "rank_in_cluster": 13}

>  <energy>  (45) 
-4.46

>  <cluster_rmsd>  (45) 
1.82

>  <cluster>  (45) 
5

$$$$

     RDKit          3D

 43 45  0  0  0  0  0  0  0  0999 V2000
  138.8590   75.9270  220.1190 O   0  0  0  0  0  0  0  0  0  0  0  0
  139.5210   75.6080  221.1420 C   0  0  0  0  0  0  0  0  0  0  0  0
  139.1670   76.0840  222.4340 N   0  0  0  0  0  0  0  0  0  0  0  0
  138.0370   76.9580  222.6790 C   0  0  0  0  0  0  0  0  0  0  0  0
  138.5410   78.3550  222.6400 C   0  0  0  0  0  0  0  0  0  0  0  0
  137.8070   79.2500  223.1810 O   0  0  0  0  0  0  0  0  0  0  0  0
  139.7790   78.7020  222.0340 N   0  0  0  0  0  0  0  0  0  0  0  0
  140.0550   78.5160  220.6260 C   0  0  0  0  0  0  0  0  0  0  0  0
  141.4750   79.0040  220.4130 C   0  0  2  0  0  0  0  0  0  0  0  0
  142.3790   77.9270  220.3220 O   0  0  0  0  0  0  0  0  0  0  0  0
  141.7350   79.8520  221.6240 C   0  0  0  0  0  0  0  0  0  0  0  0
  140.9060   79.2760  222.7230 C   0  0  2  0  0  0  0  0  0  0  0  0
  141.6690   78.2810  223.5680 C   0  0  0  0  0  0  0  0  0  0  0  0
  141.4150   76.9770  223.0800 O   0  0  0  0  0  0  0  0  0  0  0  0
  140.6860   74.7230  220.9920 C   0  0  0  0  0  0  0  0  0  0  0  0
  140.5410   73.3610  221.1410 C   0  0  0  0  0  0  0  0  0  0  0  0
  141.6070   72.4840  221.0090 C   0  0  0  0  0  0  0  0  0  0  0  0
  142.8300   73.0380  220.7210 C   0  0  0  0  0  0  0  0  0  0  0  0
  143.9220   72.2030  220.5800 C   0  0  0  0  0  0  0  0  0  0  0  0
  145.1830   72.7180  220.2880 C   0  0  0  0  0  0  0  0  0  0  0  0
  146.2710   71.9220  220.1450 F   0  0  0  0  0  0  0  0  0  0  0  0
  145.2820   74.1050  220.1470 C   0  0  0  0  0  0  0  0  0  0  0  0
  144.1660   74.9230  220.2940 C   0  0  0  0  0  0  0  0  0  0  0  0
  142.9260   74.3960  220.5830 C   0  0  0  0  0  0  0  0  0  0  0  0
  141.8930   75.2480  220.7110 N   0  0  0  0  0  0  0  0  0  0  0  0
  139.7830   75.7630  223.2400 H   0  0  0  0  0  0  0  0  0  0  0  0
  137.2728   76.8119  221.9014 H   0  0  0  0  0  0  0  0  0  0  0  0
  137.5785   76.7370  223.6542 H   0  0  0  0  0  0  0  0  0  0  0  0
  139.9714   77.4527  220.3569 H   0  0  0  0  0  0  0  0  0  0  0  0
  139.3399   79.0674  219.9979 H   0  0  0  0  0  0  0  0  0  0  0  0
  141.6046   79.5594  219.4724 H   0  0  0  0  0  0  0  0  0  0  0  0
  142.2120   77.3730  221.1340 H   0  0  0  0  0  0  0  0  0  0  0  0
  142.8012   79.8166  221.8922 H   0  0  0  0  0  0  0  0  0  0  0  0
  141.4773   80.9051  221.4380 H   0  0  0  0  0  0  0  0  0  0  0  0
  140.5938   80.0300  223.4606 H   0  0  0  0  0  0  0  0  0  0  0  0
  142.7464   78.4946  223.5079 H   0  0  0  0  0  0  0  0  0  0  0  0
  141.3458   78.3566  224.6167 H   0  0  0  0  0  0  0  0  0  0  0  0
  141.8380   76.8640  222.1790 H   0  0  0  0  0  0  0  0  0  0  0  0
  139.5452   72.9552  221.3727 H   0  0  0  0  0  0  0  0  0  0  0  0
  141.4792   71.3981  221.1291 H   0  0  0  0  0  0  0  0  0  0  0  0
  143.7938   71.1171  220.7000 H   0  0  0  0  0  0  0  0  0  0  0  0
  146.2578   74.5572  219.9161 H   0  0  0  0  0  0  0  0  0  0  0  0
  144.2757   76.0113  220.1773 H   0  0  0  0  0  0  0  0  0  0  0  0
  1  2  2  0
  2  3  1  0
  3  4  1  0
  4  5  1  0
  5  6  2  0
  5  7  1  0
  7  8  1  0
  8  9  1  0
  9 10  1  0
  9 11  1  0
 11 12  1  0
 12 13  1  0
 13 14  1  0
  2 15  1  0
 15 16  2  0
 16 17  1  0
 17 18  2  0
 18 19  1  0
 19 20  2  0
 20 21  1  0
 20 22  1  0
 22 23  2  0
 23 24  1  0
 24 25  2  0
 12  7  1  0
 25 15  1  0
 24 18  1  0
  3 26  1  0
  4 27  1  0
  4 28  1  0
  8 29  1  0
  8 30  1  0
  9 31  1  6
 10 32  1  0
 11 33  1  0
 11 34  1  0
 12 35  1  1
 13 36  1  0
 13 37  1  0
 14 38  1  0
 16 39  1  0
 17 40  1  0
 19 41  1  0
 22 42  1  0
 23 43  1  0
M  END
>  <smiles>  (46) 
O=C(NCC(=O)N1C[C@H](O)C[C@@H]1CO)c1ccc2cc(F)ccc2n1

>  <score_type>  (46) 
oracle

>  <origin>  (46) 
autodockgpu

>  <m_score__min__energy>  (46) 
-7.5599999999999996

>  <m_primary>  (46) 
energy

>  <rmsd>  (46) 
5.967382817795416

>  <m_score__min__rmsd>  (46) 
5.967382817795416

>  <meeko>  (46) 
{"free_energy": -4.71, "intermolecular_energy": -6.8, "internal_energy": -4.38, "cluster_size": 2, "cluster_id": 6, "rank_in_cluster": 1}

>  <energy>  (46) 
-4.05

>  <cluster_rmsd>  (46) 
1.82

>  <cluster>  (46) 
5

$$$$

     RDKit          3D

 43 45  0  0  0  0  0  0  0  0999 V2000
  139.3170   70.9830  221.1390 O   0  0  0  0  0  0  0  0  0  0  0  0
  139.4400   71.5660  222.2490 C   0  0  0  0  0  0  0  0  0  0  0  0
  139.4700   72.9840  222.3430 N   0  0  0  0  0  0  0  0  0  0  0  0
  139.3630   73.8620  221.1950 C   0  0  0  0  0  0  0  0  0  0  0  0
  140.1960   75.0600  221.4740 C   0  0  0  0  0  0  0  0  0  0  0  0
  139.9510   75.6970  222.5540 O   0  0  0  0  0  0  0  0  0  0  0  0
  141.2230   75.4950  220.5920 N   0  0  0  0  0  0  0  0  0  0  0  0
  142.5250   74.8700  220.5180 C   0  0  0  0  0  0  0  0  0  0  0  0
  143.3000   75.6450  219.4710 C   0  0  2  0  0  0  0  0  0  0  0  0
  144.2090   76.5420  220.0660 O   0  0  0  0  0  0  0  0  0  0  0  0
  142.2250   76.3630  218.7060 C   0  0  0  0  0  0  0  0  0  0  0  0
  141.1110   76.5960  219.6710 C   0  0  2  0  0  0  0  0  0  0  0  0
  141.1920   77.9520  220.3370 C   0  0  0  0  0  0  0  0  0  0  0  0
  141.8190   77.8070  221.5960 O   0  0  0  0  0  0  0  0  0  0  0  0
  139.5560   70.7580  223.4720 C   0  0  0  0  0  0  0  0  0  0  0  0
  139.1180   69.4510  223.4780 C   0  0  0  0  0  0  0  0  0  0  0  0
  139.2060   68.6470  224.6050 C   0  0  0  0  0  0  0  0  0  0  0  0
  139.7520   69.2150  225.7280 C   0  0  0  0  0  0  0  0  0  0  0  0
  139.8610   68.4520  226.8750 C   0  0  0  0  0  0  0  0  0  0  0  0
  140.4090   68.9840  228.0400 C   0  0  0  0  0  0  0  0  0  0  0  0
  140.5260   68.2580  229.1780 F   0  0  0  0  0  0  0  0  0  0  0  0
  140.8390   70.3130  227.9860 C   0  0  0  0  0  0  0  0  0  0  0  0
  140.7190   71.0590  226.8180 C   0  0  0  0  0  0  0  0  0  0  0  0
  140.1730   70.5170  225.6740 C   0  0  0  0  0  0  0  0  0  0  0  0
  140.0900   71.2980  224.5830 N   0  0  0  0  0  0  0  0  0  0  0  0
  139.5770   73.3900  223.3210 H   0  0  0  0  0  0  0  0  0  0  0  0
  139.7310   73.3495  220.2939 H   0  0  0  0  0  0  0  0  0  0  0  0
  138.3154   74.1488  221.0212 H   0  0  0  0  0  0  0  0  0  0  0  0
  143.0334   74.9290  221.4917 H   0  0  0  0  0  0  0  0  0  0  0  0
  142.4468   73.8046  220.2556 H   0  0  0  0  0  0  0  0  0  0  0  0
  143.9195   75.0025  218.8280 H   0  0  0  0  0  0  0  0  0  0  0  0
  143.6500   77.1610  220.6110 H   0  0  0  0  0  0  0  0  0  0  0  0
  142.6049   77.3219  218.3237 H   0  0  0  0  0  0  0  0  0  0  0  0
  141.8882   75.7741  217.8401 H   0  0  0  0  0  0  0  0  0  0  0  0
  140.1248   76.6236  219.1844 H   0  0  0  0  0  0  0  0  0  0  0  0
  141.7795   78.6375  219.7086 H   0  0  0  0  0  0  0  0  0  0  0  0
  140.1804   78.3632  220.4695 H   0  0  0  0  0  0  0  0  0  0  0  0
  141.7230   76.8620  221.9160 H   0  0  0  0  0  0  0  0  0  0  0  0
  138.6842   69.0315  222.5583 H   0  0  0  0  0  0  0  0  0  0  0  0
  138.8550   67.6045  224.5985 H   0  0  0  0  0  0  0  0  0  0  0  0
  139.5100   67.4095  226.8680 H   0  0  0  0  0  0  0  0  0  0  0  0
  141.2793   70.7763  228.8813 H   0  0  0  0  0  0  0  0  0  0  0  0
  141.0668   72.1025  226.8070 H   0  0  0  0  0  0  0  0  0  0  0  0
  1  2  2  0
  2  3  1  0
  3  4  1  0
  4  5  1  0
  5  6  2  0
  5  7  1  0
  7  8  1  0
  8  9  1  0
  9 10  1  0
  9 11  1  0
 11 12  1  0
 12 13  1  0
 13 14  1  0
  2 15  1  0
 15 16  2  0
 16 17  1  0
 17 18  2  0
 18 19  1  0
 19 20  2  0
 20 21  1  0
 20 22  1  0
 22 23  2  0
 23 24  1  0
 24 25  2  0
 12  7  1  0
 25 15  1  0
 24 18  1  0
  3 26  1  0
  4 27  1  0
  4 28  1  0
  8 29  1  0
  8 30  1  0
  9 31  1  6
 10 32  1  0
 11 33  1  0
 11 34  1  0
 12 35  1  6
 13 36  1  0
 13 37  1  0
 14 38  1  0
 16 39  1  0
 17 40  1  0
 19 41  1  0
 22 42  1  0
 23 43  1  0
M  END
>  <smiles>  (47) 
O=C(NCC(=O)N1C[C@H](O)C[C@@H]1CO)c1ccc2cc(F)ccc2n1

>  <score_type>  (47) 
oracle

>  <origin>  (47) 
autodockgpu

>  <m_score__min__energy>  (47) 
-7.5599999999999996

>  <m_primary>  (47) 
energy

>  <rmsd>  (47) 
1.8231615702181991

>  <m_score__min__rmsd>  (47) 
1.8231615702181991

>  <meeko>  (47) 
{"free_energy": -6.54, "intermolecular_energy": -8.63, "internal_energy": -2.8, "cluster_size": 18, "cluster_id": 3, "rank_in_cluster": 5}

>  <energy>  (47) 
-4.71

>  <cluster_rmsd>  (47) 
0.0

>  <cluster>  (47) 
6

$$$$

     RDKit          3D

 43 45  0  0  0  0  0  0  0  0999 V2000
  140.3190   71.4610  221.1340 O   0  0  0  0  0  0  0  0  0  0  0  0
  140.0520   71.9940  222.2440 C   0  0  0  0  0  0  0  0  0  0  0  0
  139.7840   73.3860  222.3520 N   0  0  0  0  0  0  0  0  0  0  0  0
  139.7960   74.2910  221.2210 C   0  0  0  0  0  0  0  0  0  0  0  0
  139.7070   75.6730  221.7580 C   0  0  0  0  0  0  0  0  0  0  0  0
  139.1410   75.8170  222.8940 O   0  0  0  0  0  0  0  0  0  0  0  0
  140.2190   76.7980  221.0570 N   0  0  0  0  0  0  0  0  0  0  0  0
  140.7150   76.7310  219.6990 C   0  0  0  0  0  0  0  0  0  0  0  0
  141.1660   78.1360  219.3510 C   0  0  2  0  0  0  0  0  0  0  0  0
  142.5670   78.2580  219.4310 O   0  0  0  0  0  0  0  0  0  0  0  0
  140.4710   78.9860  220.3750 C   0  0  0  0  0  0  0  0  0  0  0  0
  140.3130   78.1330  221.5880 C   0  0  2  0  0  0  0  0  0  0  0  0
  141.4440   78.3110  222.5770 C   0  0  0  0  0  0  0  0  0  0  0  0
  142.3960   79.2010  222.0270 O   0  0  0  0  0  0  0  0  0  0  0  0
  140.0160   71.1540  223.4510 C   0  0  0  0  0  0  0  0  0  0  0  0
  139.5280   69.8670  223.3800 C   0  0  0  0  0  0  0  0  0  0  0  0
  139.4740   69.0350  224.4880 C   0  0  0  0  0  0  0  0  0  0  0  0
  139.9310   69.5550  225.6740 C   0  0  0  0  0  0  0  0  0  0  0  0
  139.8970   68.7620  226.8050 C   0  0  0  0  0  0  0  0  0  0  0  0
  140.3500   69.2440  228.0310 C   0  0  0  0  0  0  0  0  0  0  0  0
  140.3280   68.4880  229.1560 F   0  0  0  0  0  0  0  0  0  0  0  0
  140.8360   70.5550  228.0530 C   0  0  0  0  0  0  0  0  0  0  0  0
  140.8600   71.3320  226.8990 C   0  0  0  0  0  0  0  0  0  0  0  0
  140.4070   70.8380  225.6950 C   0  0  0  0  0  0  0  0  0  0  0  0
  140.4600   71.6460  224.6210 N   0  0  0  0  0  0  0  0  0  0  0  0
  139.5680   73.7490  223.3290 H   0  0  0  0  0  0  0  0  0  0  0  0
  140.7288   74.1683  220.6510 H   0  0  0  0  0  0  0  0  0  0  0  0
  138.9530   74.0811  220.5462 H   0  0  0  0  0  0  0  0  0  0  0  0
  141.5609   76.0308  219.6348 H   0  0  0  0  0  0  0  0  0  0  0  0
  139.9417   76.3715  219.0041 H   0  0  0  0  0  0  0  0  0  0  0  0
  140.9166   78.4277  218.3201 H   0  0  0  0  0  0  0  0  0  0  0  0
  142.8110   77.9210  220.3370 H   0  0  0  0  0  0  0  0  0  0  0  0
  141.0779   79.8730  220.6093 H   0  0  0  0  0  0  0  0  0  0  0  0
  139.4975   79.3414  220.0061 H   0  0  0  0  0  0  0  0  0  0  0  0
  139.4267   78.4001  222.1822 H   0  0  0  0  0  0  0  0  0  0  0  0
  141.0510   78.7252  223.5172 H   0  0  0  0  0  0  0  0  0  0  0  0
  141.9166   77.3392  222.7825 H   0  0  0  0  0  0  0  0  0  0  0  0
  143.0750   78.6880  221.4980 H   0  0  0  0  0  0  0  0  0  0  0  0
  139.1693   69.4871  222.4120 H   0  0  0  0  0  0  0  0  0  0  0  0
  139.0841   68.0086  224.4203 H   0  0  0  0  0  0  0  0  0  0  0  0
  139.5068   67.7358  226.7363 H   0  0  0  0  0  0  0  0  0  0  0  0
  141.2055   70.9791  228.9983 H   0  0  0  0  0  0  0  0  0  0  0  0
  141.2479   72.3601  226.9487 H   0  0  0  0  0  0  0  0  0  0  0  0
  1  2  2  0
  2  3  1  0
  3  4  1  0
  4  5  1  0
  5  6  2  0
  5  7  1  0
  7  8  1  0
  8  9  1  0
  9 10  1  0
  9 11  1  0
 11 12  1  0
 12 13  1  0
 13 14  1  0
  2 15  1  0
 15 16  2  0
 16 17  1  0
 17 18  2  0
 18 19  1  0
 19 20  2  0
 20 21  1  0
 20 22  1  0
 22 23  2  0
 23 24  1  0
 24 25  2  0
 12  7  1  0
 25 15  1  0
 24 18  1  0
  3 26  1  0
  4 27  1  0
  4 28  1  0
  8 29  1  0
  8 30  1  0
  9 31  1  6
 10 32  1  0
 11 33  1  0
 11 34  1  0
 12 35  1  1
 13 36  1  0
 13 37  1  0
 14 38  1  0
 16 39  1  0
 17 40  1  0
 19 41  1  0
 22 42  1  0
 23 43  1  0
M  END
>  <smiles>  (48) 
O=C(NCC(=O)N1C[C@H](O)C[C@@H]1CO)c1ccc2cc(F)ccc2n1

>  <score_type>  (48) 
oracle

>  <origin>  (48) 
autodockgpu

>  <m_score__min__energy>  (48) 
-7.5599999999999996

>  <m_primary>  (48) 
energy

>  <rmsd>  (48) 
1.8561954541320873

>  <m_score__min__rmsd>  (48) 
1.8561954541320873

>  <meeko>  (48) 
{"free_energy": -6.49, "intermolecular_energy": -8.58, "internal_energy": -2.78, "cluster_size": 18, "cluster_id": 3, "rank_in_cluster": 7}

>  <energy>  (48) 
-4.47

>  <cluster_rmsd>  (48) 
0.45

>  <cluster>  (48) 
6

$$$$

     RDKit          3D

 43 45  0  0  0  0  0  0  0  0999 V2000
  139.6400   72.0220  220.4010 O   0  0  0  0  0  0  0  0  0  0  0  0
  140.2520   72.4310  221.4230 C   0  0  0  0  0  0  0  0  0  0  0  0
  141.0080   73.6350  221.4020 N   0  0  0  0  0  0  0  0  0  0  0  0
  141.1350   74.4770  220.2300 C   0  0  0  0  0  0  0  0  0  0  0  0
  142.5560   74.9010  220.1410 C   0  0  0  0  0  0  0  0  0  0  0  0
  142.7830   76.1570  220.0770 O   0  0  0  0  0  0  0  0  0  0  0  0
  143.6300   73.9690  220.1250 N   0  0  0  0  0  0  0  0  0  0  0  0
  144.8730   74.1760  220.8350 C   0  0  0  0  0  0  0  0  0  0  0  0
  145.7280   72.9590  220.5410 C   0  0  2  0  0  0  0  0  0  0  0  0
  146.7030   73.2420  219.5640 O   0  0  0  0  0  0  0  0  0  0  0  0
  144.7310   71.9450  220.0590 C   0  0  0  0  0  0  0  0  0  0  0  0
  143.6280   72.7170  219.4150 C   0  0  2  0  0  0  0  0  0  0  0  0
  143.8180   72.8680  217.9210 C   0  0  0  0  0  0  0  0  0  0  0  0
  144.9620   73.6660  217.6840 O   0  0  0  0  0  0  0  0  0  0  0  0
  140.1810   71.6430  222.6620 C   0  0  0  0  0  0  0  0  0  0  0  0
  139.5920   70.3970  222.6530 C   0  0  0  0  0  0  0  0  0  0  0  0
  139.5010   69.6140  223.7940 C   0  0  0  0  0  0  0  0  0  0  0  0
  140.0270   70.1390  224.9470 C   0  0  0  0  0  0  0  0  0  0  0  0
  139.9600   69.3950  226.1100 C   0  0  0  0  0  0  0  0  0  0  0  0
  140.4800   69.8850  227.3060 C   0  0  0  0  0  0  0  0  0  0  0  0
  140.4260   69.1760  228.4590 F   0  0  0  0  0  0  0  0  0  0  0  0
  141.0670   71.1540  227.2650 C   0  0  0  0  0  0  0  0  0  0  0  0
  141.1230   71.8820  226.0820 C   0  0  0  0  0  0  0  0  0  0  0  0
  140.6020   71.3810  224.9080 C   0  0  0  0  0  0  0  0  0  0  0  0
  140.6920   72.1420  223.8020 N   0  0  0  0  0  0  0  0  0  0  0  0
  141.4920   73.9040  222.3120 H   0  0  0  0  0  0  0  0  0  0  0  0
  140.8537   73.9124  219.3288 H   0  0  0  0  0  0  0  0  0  0  0  0
  140.4722   75.3516  220.3058 H   0  0  0  0  0  0  0  0  0  0  0  0
  145.3709   75.0889  220.4763 H   0  0  0  0  0  0  0  0  0  0  0  0
  144.7050   74.2998  221.9150 H   0  0  0  0  0  0  0  0  0  0  0  0
  146.2984   72.6096  221.4143 H   0  0  0  0  0  0  0  0  0  0  0  0
  146.4470   74.1270  219.1840 H   0  0  0  0  0  0  0  0  0  0  0  0
  145.1987   71.2678  219.3292 H   0  0  0  0  0  0  0  0  0  0  0  0
  144.3559   71.3270  220.8881 H   0  0  0  0  0  0  0  0  0  0  0  0
  142.6550   72.2087  219.4849 H   0  0  0  0  0  0  0  0  0  0  0  0
  143.9577   71.8771  217.4643 H   0  0  0  0  0  0  0  0  0  0  0  0
  142.9315   73.3458  217.4785 H   0  0  0  0  0  0  0  0  0  0  0  0
  145.1310   74.2590  218.4740 H   0  0  0  0  0  0  0  0  0  0  0  0
  139.1802   70.0106  221.7090 H   0  0  0  0  0  0  0  0  0  0  0  0
  139.0299   68.6202  223.7754 H   0  0  0  0  0  0  0  0  0  0  0  0
  139.4891   68.4011  226.0909 H   0  0  0  0  0  0  0  0  0  0  0  0
  141.4916   71.5832  228.1845 H   0  0  0  0  0  0  0  0  0  0  0  0
  141.5921   72.8770  226.0827 H   0  0  0  0  0  0  0  0  0  0  0  0
  1  2  2  0
  2  3  1  0
  3  4  1  0
  4  5  1  0
  5  6  2  0
  5  7  1  0
  7  8  1  0
  8  9  1  0
  9 10  1  0
  9 11  1  0
 11 12  1  0
 12 13  1  0
 13 14  1  0
  2 15  1  0
 15 16  2  0
 16 17  1  0
 17 18  2  0
 18 19  1  0
 19 20  2  0
 20 21  1  0
 20 22  1  0
 22 23  2  0
 23 24  1  0
 24 25  2  0
 12  7  1  0
 25 15  1  0
 24 18  1  0
  3 26  1  0
  4 27  1  0
  4 28  1  0
  8 29  1  0
  8 30  1  0
  9 31  1  1
 10 32  1  0
 11 33  1  0
 11 34  1  0
 12 35  1  6
 13 36  1  0
 13 37  1  0
 14 38  1  0
 16 39  1  0
 17 40  1  0
 19 41  1  0
 22 42  1  0
 23 43  1  0
M  END
>  <smiles>  (49) 
O=C(NCC(=O)N1C[C@H](O)C[C@@H]1CO)c1ccc2cc(F)ccc2n1

>  <score_type>  (49) 
oracle

>  <origin>  (49) 
autodockgpu

>  <m_score__min__energy>  (49) 
-7.5599999999999996

>  <m_primary>  (49) 
energy

>  <rmsd>  (49) 
4.05645269913176

>  <m_score__min__rmsd>  (49) 
4.05645269913176

>  <meeko>  (49) 
{"free_energy": -6.34, "intermolecular_energy": -8.43, "internal_energy": -2.64, "cluster_size": 13, "cluster_id": 1, "rank_in_cluster": 9}

>  <energy>  (49) 
-4.5

>  <cluster_rmsd>  (49) 
0.0

>  <cluster>  (49) 
7

$$$$

     RDKit          3D

 43 45  0  0  0  0  0  0  0  0999 V2000
  139.7060   71.4680  220.9490 O   0  0  0  0  0  0  0  0  0  0  0  0
  139.6860   72.0780  222.0520 C   0  0  0  0  0  0  0  0  0  0  0  0
  139.6010   73.4950  222.1150 N   0  0  0  0  0  0  0  0  0  0  0  0
  139.5310   74.3430  220.9420 C   0  0  0  0  0  0  0  0  0  0  0  0
  140.4160   75.5100  221.1860 C   0  0  0  0  0  0  0  0  0  0  0  0
  140.7350   75.7520  222.3990 O   0  0  0  0  0  0  0  0  0  0  0  0
  140.8980   76.3350  220.1320 N   0  0  0  0  0  0  0  0  0  0  0  0
  141.9250   75.9180  219.2030 C   0  0  0  0  0  0  0  0  0  0  0  0
  142.1370   77.0900  218.2640 C   0  0  2  0  0  0  0  0  0  0  0  0
  143.2970   77.8130  218.6010 O   0  0  0  0  0  0  0  0  0  0  0  0
  140.8930   77.9100  218.4490 C   0  0  0  0  0  0  0  0  0  0  0  0
  140.4380   77.6690  219.8500 C   0  0  2  0  0  0  0  0  0  0  0  0
  140.9630   78.7070  220.8180 C   0  0  0  0  0  0  0  0  0  0  0  0
  142.1870   78.2500  221.3590 O   0  0  0  0  0  0  0  0  0  0  0  0
  139.7530   71.3010  223.2990 C   0  0  0  0  0  0  0  0  0  0  0  0
  139.2490   70.0190  223.3400 C   0  0  0  0  0  0  0  0  0  0  0  0
  139.2880   69.2440  224.4900 C   0  0  0  0  0  0  0  0  0  0  0  0
  139.8560   69.8170  225.6000 C   0  0  0  0  0  0  0  0  0  0  0  0
  139.9180   69.0840  226.7700 C   0  0  0  0  0  0  0  0  0  0  0  0
  140.4840   69.6210  227.9230 C   0  0  0  0  0  0  0  0  0  0  0  0
  140.5570   68.9240  229.0830 F   0  0  0  0  0  0  0  0  0  0  0  0
  140.9820   70.9250  227.8340 C   0  0  0  0  0  0  0  0  0  0  0  0
  140.9080   71.6410  226.6440 C   0  0  0  0  0  0  0  0  0  0  0  0
  140.3430   71.0930  225.5120 C   0  0  0  0  0  0  0  0  0  0  0  0
  140.3060   71.8460  224.3980 N   0  0  0  0  0  0  0  0  0  0  0  0
  139.5890   73.9240  223.0890 H   0  0  0  0  0  0  0  0  0  0  0  0
  139.8747   73.7889  220.0561 H   0  0  0  0  0  0  0  0  0  0  0  0
  138.4968   74.6705  220.7599 H   0  0  0  0  0  0  0  0  0  0  0  0
  142.8559   75.6854  219.7409 H   0  0  0  0  0  0  0  0  0  0  0  0
  141.6302   75.0104  218.6559 H   0  0  0  0  0  0  0  0  0  0  0  0
  142.2907   76.7844  217.2186 H   0  0  0  0  0  0  0  0  0  0  0  0
  143.3380   77.7980  219.5970 H   0  0  0  0  0  0  0  0  0  0  0  0
  141.1141   78.9770  218.2984 H   0  0  0  0  0  0  0  0  0  0  0  0
  140.1167   77.6289  217.7222 H   0  0  0  0  0  0  0  0  0  0  0  0
  139.3478   77.7584  219.9656 H   0  0  0  0  0  0  0  0  0  0  0  0
  141.1251   79.6574  220.2884 H   0  0  0  0  0  0  0  0  0  0  0  0
  140.2340   78.8658  221.6263 H   0  0  0  0  0  0  0  0  0  0  0  0
  142.0450   77.3780  221.8320 H   0  0  0  0  0  0  0  0  0  0  0  0
  138.8002   69.5955  222.4293 H   0  0  0  0  0  0  0  0  0  0  0  0
  138.8838   68.2212  224.5110 H   0  0  0  0  0  0  0  0  0  0  0  0
  139.5141   68.0610  226.7905 H   0  0  0  0  0  0  0  0  0  0  0  0
  141.4393   71.3915  228.7190 H   0  0  0  0  0  0  0  0  0  0  0  0
  141.3082   72.6649  226.6052 H   0  0  0  0  0  0  0  0  0  0  0  0
  1  2  2  0
  2  3  1  0
  3  4  1  0
  4  5  1  0
  5  6  2  0
  5  7  1  0
  7  8  1  0
  8  9  1  0
  9 10  1  0
  9 11  1  0
 11 12  1  0
 12 13  1  0
 13 14  1  0
  2 15  1  0
 15 16  2  0
 16 17  1  0
 17 18  2  0
 18 19  1  0
 19 20  2  0
 20 21  1  0
 20 22  1  0
 22 23  2  0
 23 24  1  0
 24 25  2  0
 12  7  1  0
 25 15  1  0
 24 18  1  0
  3 26  1  0
  4 27  1  0
  4 28  1  0
  8 29  1  0
  8 30  1  0
  9 31  1  6
 10 32  1  0
 11 33  1  0
 11 34  1  0
 12 35  1  6
 13 36  1  0
 13 37  1  0
 14 38  1  0
 16 39  1  0
 17 40  1  0
 19 41  1  0
 22 42  1  0
 23 43  1  0
M  END
>  <smiles>  (50) 
O=C(NCC(=O)N1C[C@H](O)C[C@@H]1CO)c1ccc2cc(F)ccc2n1

>  <score_type>  (50) 
oracle

>  <origin>  (50) 
autodockgpu

>  <m_score__min__energy>  (50) 
-7.5599999999999996

>  <m_primary>  (50) 
energy

>  <rmsd>  (50) 
1.5352722780005146

>  <m_score__min__rmsd>  (50) 
1.5352722780005146

>  <meeko>  (50) 
{"free_energy": -6.13, "intermolecular_energy": -8.22, "internal_energy": -3.04, "cluster_size": 18, "cluster_id": 3, "rank_in_cluster": 16}

>  <energy>  (50) 
-4.43

>  <cluster_rmsd>  (50) 
1.02

>  <cluster>  (50) 
7

$$$$
