
     RDKit          3D

 54 58  0  0  0  0  0  0  0  0999 V2000
  141.0660   78.4520  217.6040 O   0  0  0  0  0  0  0  0  0  0  0  0
  141.9140   78.1040  218.4600 C   0  0  0  0  0  0  0  0  0  0  0  0
  142.2070   79.0320  219.5040 N   0  0  0  0  0  0  0  0  0  0  0  0
  141.6380   80.3060  219.6720 C   0  0  0  0  0  0  0  0  0  0  0  0
  140.8520   80.6550  220.8470 C   0  0  0  0  0  0  0  0  0  0  0  0
  139.8060   81.3780  220.5550 O   0  0  0  0  0  0  0  0  0  0  0  0
  141.0040   80.3710  222.1980 N   0  0  0  0  0  0  0  0  0  0  0  0
  141.3680   81.1810  223.3710 C   0  0  0  0  0  0  0  0  0  0  0  0
  142.5400   80.3310  223.8710 C   0  0  0  0  0  0  0  0  0  0  0  0
  142.2380   78.9040  223.4180 C   0  0  0  0  0  0  0  0  0  0  0  0
  140.8680   79.0450  222.8550 C   0  0  2  0  0  0  0  0  0  0  0  0
  140.4220   77.9560  222.1130 C   0  0  0  0  0  0  0  0  0  0  0  0
  140.8080   76.6470  222.1240 C   0  0  0  0  0  0  0  0  0  0  0  0
  140.2100   75.7600  221.3510 C   0  0  0  0  0  0  0  0  0  0  0  0
  140.5720   74.3150  221.3040 C   0  0  0  0  0  0  0  0  0  0  0  0
  141.1810   73.7600  220.2090 C   0  0  0  0  0  0  0  0  0  0  0  0
  141.5110   72.4300  220.1720 C   0  0  0  0  0  0  0  0  0  0  0  0
  141.2460   71.6100  221.2300 C   0  0  0  0  0  0  0  0  0  0  0  0
  140.6250   72.2020  222.3330 C   0  0  0  0  0  0  0  0  0  0  0  0
  140.3120   73.5070  222.3430 N   0  0  0  0  0  0  0  0  0  0  0  0
  139.1690   76.2050  220.5240 C   0  0  0  0  0  0  0  0  0  0  0  0
  139.0790   78.0240  220.9150 S   0  0  0  0  0  0  0  0  0  0  0  0
  142.5860   76.7990  218.4060 C   0  0  0  0  0  0  0  0  0  0  0  0
  142.4130   76.0340  217.2720 C   0  0  0  0  0  0  0  0  0  0  0  0
  143.0400   74.7980  217.2020 C   0  0  0  0  0  0  0  0  0  0  0  0
  143.8150   74.3660  218.2580 C   0  0  0  0  0  0  0  0  0  0  0  0
  144.4680   73.1330  218.2440 C   0  0  0  0  0  0  0  0  0  0  0  0
  145.2380   72.7390  219.3260 C   0  0  0  0  0  0  0  0  0  0  0  0
  145.8660   71.5320  219.2920 F   0  0  0  0  0  0  0  0  0  0  0  0
  145.3410   73.5860  220.4110 C   0  0  0  0  0  0  0  0  0  0  0  0
  144.7130   74.8130  220.4700 C   0  0  0  0  0  0  0  0  0  0  0  0
  143.9440   75.1900  219.3670 C   0  0  0  0  0  0  0  0  0  0  0  0
  143.3430   76.3920  219.4540 N   0  0  0  0  0  0  0  0  0  0  0  0
  142.9270   78.6980  220.2040 H   0  0  0  0  0  0  0  0  0  0  0  0
  142.4723   81.0220  219.6368 H   0  0  0  0  0  0  0  0  0  0  0  0
  140.8799   80.3253  218.8752 H   0  0  0  0  0  0  0  0  0  0  0  0
  141.6814   82.1980  223.0926 H   0  0  0  0  0  0  0  0  0  0  0  0
  140.5624   81.3626  224.0976 H   0  0  0  0  0  0  0  0  0  0  0  0
  143.4843   80.6820  223.4293 H   0  0  0  0  0  0  0  0  0  0  0  0
  142.6513   80.3953  224.9635 H   0  0  0  0  0  0  0  0  0  0  0  0
  142.9526   78.5674  222.6525 H   0  0  0  0  0  0  0  0  0  0  0  0
  142.3139   78.1568  224.2217 H   0  0  0  0  0  0  0  0  0  0  0  0
  140.0354   79.0273  223.5737 H   0  0  0  0  0  0  0  0  0  0  0  0
  141.6272   76.3275  222.7849 H   0  0  0  0  0  0  0  0  0  0  0  0
  141.4100   74.3955  219.3409 H   0  0  0  0  0  0  0  0  0  0  0  0
  141.9969   72.0174  219.2755 H   0  0  0  0  0  0  0  0  0  0  0  0
  141.5069   70.5415  221.2154 H   0  0  0  0  0  0  0  0  0  0  0  0
  140.3876   71.5850  223.2121 H   0  0  0  0  0  0  0  0  0  0  0  0
  138.5568   75.6238  219.8187 H   0  0  0  0  0  0  0  0  0  0  0  0
  141.7909   76.3959  216.4401 H   0  0  0  0  0  0  0  0  0  0  0  0
  142.9196   74.1664  216.3095 H   0  0  0  0  0  0  0  0  0  0  0  0
  144.3710   72.4714  217.3706 H   0  0  0  0  0  0  0  0  0  0  0  0
  145.9522   73.2679  221.2685 H   0  0  0  0  0  0  0  0  0  0  0  0
  144.8138   75.4668  221.3489 H   0  0  0  0  0  0  0  0  0  0  0  0
  1  2  2  0
  2  3  1  0
  3  4  1  0
  4  5  1  0
  5  6  2  0
  5  7  1  0
  7  8  1  0
  8  9  1  0
  9 10  1  0
 10 11  1  0
 11 12  1  0
 12 13  2  0
 13 14  1  0
 14 15  1  0
 15 16  2  0
 16 17  1  0
 17 18  2  0
 18 19  1  0
 19 20  2  0
 14 21  2  0
 21 22  1  0
  2 23  1  0
 23 24  2  0
 24 25  1  0
 25 26  2  0
 26 27  1  0
 27 28  2  0
 28 29  1  0
 28 30  1  0
 30 31  2  0
 31 32  1  0
 32 33  2  0
 11  7  1  0
 22 12  1  0
 33 23  1  0
 20 15  1  0
 32 26  1  0
  3 34  1  0
  4 35  1  0
  4 36  1  0
  8 37  1  0
  8 38  1  0
  9 39  1  0
  9 40  1  0
 10 41  1  0
 10 42  1  0
 11 43  1  1
 13 44  1  0
 16 45  1  0
 17 46  1  0
 18 47  1  0
 19 48  1  0
 21 49  1  0
 24 50  1  0
 25 51  1  0
 27 52  1  0
 30 53  1  0
 31 54  1  0
M  END
>  <smiles>  (1) 
O=C(NCC(=O)N1CCC[C@@H]1c1cc(-c2ccccn2)cs1)c1ccc2cc(F)ccc2n1

>  <score_type>  (1) 
oracle

>  <origin>  (1) 
autodockgpu

>  <m_score__min__energy>  (1) 
-9.3699999999999992

>  <m_primary>  (1) 
energy

>  <rmsd>  (1) 
8.182835159846546

>  <m_score__min__rmsd>  (1) 
8.182835159846546

>  <meeko>  (1) 
{"free_energy": -7.41, "intermolecular_energy": -9.2, "internal_energy": -3.59, "cluster_size": 30, "cluster_id": 6, "rank_in_cluster": 21}

>  <energy>  (1) 
-9.37

>  <cluster_rmsd>  (1) 
0.0

>  <cluster>  (1) 
1

$$$$

     RDKit          3D

 54 58  0  0  0  0  0  0  0  0999 V2000
  139.5780   74.5120  220.7170 O   0  0  0  0  0  0  0  0  0  0  0  0
  140.0520   75.5240  221.2880 C   0  0  0  0  0  0  0  0  0  0  0  0
  141.4740   75.6250  221.3620 N   0  0  0  0  0  0  0  0  0  0  0  0
  142.4040   74.7000  220.8570 C   0  0  0  0  0  0  0  0  0  0  0  0
  143.2970   75.0230  219.7530 C   0  0  0  0  0  0  0  0  0  0  0  0
  144.5310   75.1950  220.1390 O   0  0  0  0  0  0  0  0  0  0  0  0
  143.0860   75.1810  218.3890 N   0  0  0  0  0  0  0  0  0  0  0  0
  143.4710   74.3980  217.2040 C   0  0  0  0  0  0  0  0  0  0  0  0
  144.1730   75.5110  216.4230 C   0  0  0  0  0  0  0  0  0  0  0  0
  143.5020   76.8110  216.8620 C   0  0  0  0  0  0  0  0  0  0  0  0
  142.3920   76.3090  217.7160 C   0  0  2  0  0  0  0  0  0  0  0  0
  141.7560   77.2790  218.4840 C   0  0  0  0  0  0  0  0  0  0  0  0
  142.1700   77.9540  219.5950 C   0  0  0  0  0  0  0  0  0  0  0  0
  141.4070   78.8790  220.1470 C   0  0  0  0  0  0  0  0  0  0  0  0
  141.7850   79.6590  221.3590 C   0  0  0  0  0  0  0  0  0  0  0  0
  141.4750   80.9880  221.4870 C   0  0  0  0  0  0  0  0  0  0  0  0
  141.8260   81.7010  222.6040 C   0  0  0  0  0  0  0  0  0  0  0  0
  142.4980   81.1080  223.6330 C   0  0  0  0  0  0  0  0  0  0  0  0
  142.8020   79.7530  223.4760 C   0  0  0  0  0  0  0  0  0  0  0  0
  142.4460   79.0790  222.3710 N   0  0  0  0  0  0  0  0  0  0  0  0
  140.1630   79.1440  219.5550 C   0  0  0  0  0  0  0  0  0  0  0  0
  140.1310   77.9630  218.1150 S   0  0  0  0  0  0  0  0  0  0  0  0
  139.1950   76.5700  221.8600 C   0  0  0  0  0  0  0  0  0  0  0  0
  137.8370   76.4820  221.6350 C   0  0  0  0  0  0  0  0  0  0  0  0
  137.0110   77.4610  222.1680 C   0  0  0  0  0  0  0  0  0  0  0  0
  137.5600   78.4900  222.9040 C   0  0  0  0  0  0  0  0  0  0  0  0
  136.7790   79.5030  223.4630 C   0  0  0  0  0  0  0  0  0  0  0  0
  137.3720   80.5180  224.1960 C   0  0  0  0  0  0  0  0  0  0  0  0
  136.5910   81.4950  224.7330 F   0  0  0  0  0  0  0  0  0  0  0  0
  138.7420   80.5060  224.3580 C   0  0  0  0  0  0  0  0  0  0  0  0
  139.5550   79.5270  223.8240 C   0  0  0  0  0  0  0  0  0  0  0  0
  138.9350   78.5140  223.0900 C   0  0  0  0  0  0  0  0  0  0  0  0
  139.7530   77.5740  222.5810 N   0  0  0  0  0  0  0  0  0  0  0  0
  141.8310   76.4930  221.8510 H   0  0  0  0  0  0  0  0  0  0  0  0
  143.0496   74.4207  221.7027 H   0  0  0  0  0  0  0  0  0  0  0  0
  141.7494   73.9390  220.4072 H   0  0  0  0  0  0  0  0  0  0  0  0
  144.1534   73.5726  217.4551 H   0  0  0  0  0  0  0  0  0  0  0  0
  142.6505   73.8871  216.6789 H   0  0  0  0  0  0  0  0  0  0  0  0
  145.2456   75.5321  216.6659 H   0  0  0  0  0  0  0  0  0  0  0  0
  144.0908   75.3586  215.3367 H   0  0  0  0  0  0  0  0  0  0  0  0
  144.1939   77.4445  217.4364 H   0  0  0  0  0  0  0  0  0  0  0  0
  143.1690   77.4440  216.0263 H   0  0  0  0  0  0  0  0  0  0  0  0
  141.4809   75.9771  217.1966 H   0  0  0  0  0  0  0  0  0  0  0  0
  143.1513   77.7247  220.0360 H   0  0  0  0  0  0  0  0  0  0  0  0
  140.9322   81.4939  220.6750 H   0  0  0  0  0  0  0  0  0  0  0  0
  141.5621   82.7667  222.6718 H   0  0  0  0  0  0  0  0  0  0  0  0
  142.7847   81.6660  224.5366 H   0  0  0  0  0  0  0  0  0  0  0  0
  143.3449   79.2273  224.2753 H   0  0  0  0  0  0  0  0  0  0  0  0
  139.3964   79.8696  219.8646 H   0  0  0  0  0  0  0  0  0  0  0  0
  137.4178   75.6533  221.0455 H   0  0  0  0  0  0  0  0  0  0  0  0
  135.9241   77.4167  222.0044 H   0  0  0  0  0  0  0  0  0  0  0  0
  135.6883   79.4953  223.3209 H   0  0  0  0  0  0  0  0  0  0  0  0
  139.2082   81.3146  224.9401 H   0  0  0  0  0  0  0  0  0  0  0  0
  140.6451   79.5440  223.9704 H   0  0  0  0  0  0  0  0  0  0  0  0
  1  2  2  0
  2  3  1  0
  3  4  1  0
  4  5  1  0
  5  6  2  0
  5  7  1  0
  7  8  1  0
  8  9  1  0
  9 10  1  0
 10 11  1  0
 11 12  1  0
 12 13  2  0
 13 14  1  0
 14 15  1  0
 15 16  2  0
 16 17  1  0
 17 18  2  0
 18 19  1  0
 19 20  2  0
 14 21  2  0
 21 22  1  0
  2 23  1  0
 23 24  2  0
 24 25  1  0
 25 26  2  0
 26 27  1  0
 27 28  2  0
 28 29  1  0
 28 30  1  0
 30 31  2  0
 31 32  1  0
 32 33  2  0
 11  7  1  0
 22 12  1  0
 33 23  1  0
 20 15  1  0
 32 26  1  0
  3 34  1  0
  4 35  1  0
  4 36  1  0
  8 37  1  0
  8 38  1  0
  9 39  1  0
  9 40  1  0
 10 41  1  0
 10 42  1  0
 11 43  1  6
 13 44  1  0
 16 45  1  0
 17 46  1  0
 18 47  1  0
 19 48  1  0
 21 49  1  0
 24 50  1  0
 25 51  1  0
 27 52  1  0
 30 53  1  0
 31 54  1  0
M  END
>  <smiles>  (2) 
O=C(NCC(=O)N1CCC[C@@H]1c1cc(-c2ccccn2)cs1)c1ccc2cc(F)ccc2n1

>  <score_type>  (2) 
oracle

>  <origin>  (2) 
autodockgpu

>  <m_score__min__energy>  (2) 
-9.3699999999999992

>  <m_primary>  (2) 
energy

>  <rmsd>  (2) 
6.806823390932259

>  <m_score__min__rmsd>  (2) 
6.806823390932259

>  <meeko>  (2) 
{"free_energy": -6.62, "intermolecular_energy": -8.41, "internal_energy": -3.74, "cluster_size": 2, "cluster_id": 8, "rank_in_cluster": 1}

>  <energy>  (2) 
-9.13

>  <cluster_rmsd>  (2) 
1.6

>  <cluster>  (2) 
1

$$$$

     RDKit          3D

 54 58  0  0  0  0  0  0  0  0999 V2000
  141.4580   79.1240  217.3800 O   0  0  0  0  0  0  0  0  0  0  0  0
  142.0330   78.5940  218.3610 C   0  0  0  0  0  0  0  0  0  0  0  0
  142.0990   79.3540  219.5680 N   0  0  0  0  0  0  0  0  0  0  0  0
  141.5800   80.6440  219.7710 C   0  0  0  0  0  0  0  0  0  0  0  0
  140.9690   81.0440  221.0310 C   0  0  0  0  0  0  0  0  0  0  0  0
  139.9800   81.8790  220.8670 O   0  0  0  0  0  0  0  0  0  0  0  0
  141.2370   80.7120  222.3530 N   0  0  0  0  0  0  0  0  0  0  0  0
  141.7990   81.4560  223.4920 C   0  0  0  0  0  0  0  0  0  0  0  0
  142.9330   80.4900  223.8480 C   0  0  0  0  0  0  0  0  0  0  0  0
  142.4530   79.1090  223.4080 C   0  0  0  0  0  0  0  0  0  0  0  0
  141.0490   79.3880  222.9990 C   0  0  2  0  0  0  0  0  0  0  0  0
  140.4270   78.3630  222.2930 C   0  0  0  0  0  0  0  0  0  0  0  0
  140.8940   77.1500  221.8790 C   0  0  0  0  0  0  0  0  0  0  0  0
  140.1040   76.3010  221.2490 C   0  0  0  0  0  0  0  0  0  0  0  0
  140.5370   74.9600  220.7650 C   0  0  0  0  0  0  0  0  0  0  0  0
  141.1000   74.0370  221.6070 C   0  0  0  0  0  0  0  0  0  0  0  0
  141.4960   72.8050  221.1550 C   0  0  0  0  0  0  0  0  0  0  0  0
  141.3420   72.4530  219.8460 C   0  0  0  0  0  0  0  0  0  0  0  0
  140.7650   73.4130  219.0100 C   0  0  0  0  0  0  0  0  0  0  0  0
  140.3870   74.6120  219.4780 N   0  0  0  0  0  0  0  0  0  0  0  0
  138.7750   76.6860  221.0210 C   0  0  0  0  0  0  0  0  0  0  0  0
  138.7010   78.3860  221.7800 S   0  0  0  0  0  0  0  0  0  0  0  0
  142.6210   77.2500  218.2880 C   0  0  0  0  0  0  0  0  0  0  0  0
  142.5790   76.5960  217.0740 C   0  0  0  0  0  0  0  0  0  0  0  0
  143.1280   75.3250  216.9850 C   0  0  0  0  0  0  0  0  0  0  0  0
  143.6980   74.7490  218.1010 C   0  0  0  0  0  0  0  0  0  0  0  0
  144.2650   73.4740  218.0720 C   0  0  0  0  0  0  0  0  0  0  0  0
  144.8290   72.9340  219.2160 C   0  0  0  0  0  0  0  0  0  0  0  0
  145.3760   71.6890  219.1650 F   0  0  0  0  0  0  0  0  0  0  0  0
  144.8140   73.6790  220.3780 C   0  0  0  0  0  0  0  0  0  0  0  0
  144.2650   74.9420  220.4550 C   0  0  0  0  0  0  0  0  0  0  0  0
  143.7040   75.4670  219.2890 C   0  0  0  0  0  0  0  0  0  0  0  0
  143.1760   76.7010  219.3960 N   0  0  0  0  0  0  0  0  0  0  0  0
  142.5930   78.8690  220.3690 H   0  0  0  0  0  0  0  0  0  0  0  0
  142.4134   81.3410  219.5988 H   0  0  0  0  0  0  0  0  0  0  0  0
  140.7201   80.6558  219.0852 H   0  0  0  0  0  0  0  0  0  0  0  0
  142.1745   82.4468  223.1965 H   0  0  0  0  0  0  0  0  0  0  0  0
  141.0965   81.6923  224.3048 H   0  0  0  0  0  0  0  0  0  0  0  0
  143.8534   80.7649  223.3120 H   0  0  0  0  0  0  0  0  0  0  0  0
  143.1655   80.5155  224.9228 H   0  0  0  0  0  0  0  0  0  0  0  0
  143.0475   78.7288  222.5642 H   0  0  0  0  0  0  0  0  0  0  0  0
  142.5442   78.3377  224.1869 H   0  0  0  0  0  0  0  0  0  0  0  0
  140.2992   79.4272  223.8029 H   0  0  0  0  0  0  0  0  0  0  0  0
  141.9416   76.8762  222.0726 H   0  0  0  0  0  0  0  0  0  0  0  0
  141.2371   74.2903  222.6686 H   0  0  0  0  0  0  0  0  0  0  0  0
  141.9451   72.0888  221.8589 H   0  0  0  0  0  0  0  0  0  0  0  0
  141.6547   71.4680  219.4693 H   0  0  0  0  0  0  0  0  0  0  0  0
  140.6176   73.1803  217.9450 H   0  0  0  0  0  0  0  0  0  0  0  0
  137.9743   76.1235  220.5184 H   0  0  0  0  0  0  0  0  0  0  0  0
  142.1199   77.0722  216.1951 H   0  0  0  0  0  0  0  0  0  0  0  0
  143.1088   74.7798  216.0298 H   0  0  0  0  0  0  0  0  0  0  0  0
  144.2640   72.8954  217.1365 H   0  0  0  0  0  0  0  0  0  0  0  0
  145.2607   73.2452  221.2848 H   0  0  0  0  0  0  0  0  0  0  0  0
  144.2689   75.5120  221.3958 H   0  0  0  0  0  0  0  0  0  0  0  0
  1  2  2  0
  2  3  1  0
  3  4  1  0
  4  5  1  0
  5  6  2  0
  5  7  1  0
  7  8  1  0
  8  9  1  0
  9 10  1  0
 10 11  1  0
 11 12  1  0
 12 13  2  0
 13 14  1  0
 14 15  1  0
 15 16  2  0
 16 17  1  0
 17 18  2  0
 18 19  1  0
 19 20  2  0
 14 21  2  0
 21 22  1  0
  2 23  1  0
 23 24  2  0
 24 25  1  0
 25 26  2  0
 26 27  1  0
 27 28  2  0
 28 29  1  0
 28 30  1  0
 30 31  2  0
 31 32  1  0
 32 33  2  0
 11  7  1  0
 22 12  1  0
 33 23  1  0
 20 15  1  0
 32 26  1  0
  3 34  1  0
  4 35  1  0
  4 36  1  0
  8 37  1  0
  8 38  1  0
  9 39  1  0
  9 40  1  0
 10 41  1  0
 10 42  1  0
 11 43  1  1
 13 44  1  0
 16 45  1  0
 17 46  1  0
 18 47  1  0
 19 48  1  0
 21 49  1  0
 24 50  1  0
 25 51  1  0
 27 52  1  0
 30 53  1  0
 31 54  1  0
M  END
>  <smiles>  (3) 
O=C(NCC(=O)N1CCC[C@@H]1c1cc(-c2ccccn2)cs1)c1ccc2cc(F)ccc2n1

>  <score_type>  (3) 
oracle

>  <origin>  (3) 
autodockgpu

>  <m_score__min__energy>  (3) 
-9.3699999999999992

>  <m_primary>  (3) 
energy

>  <rmsd>  (3) 
8.340866313150725

>  <m_score__min__rmsd>  (3) 
8.340866313150725

>  <meeko>  (3) 
{"free_energy": -6.65, "intermolecular_energy": -8.44, "internal_energy": -3.93, "cluster_size": 30, "cluster_id": 6, "rank_in_cluster": 30}

>  <energy>  (3) 
-9.05

>  <cluster_rmsd>  (3) 
0.77

>  <cluster>  (3) 
1

$$$$

     RDKit          3D

 54 58  0  0  0  0  0  0  0  0999 V2000
  140.8410   77.1740  217.8540 O   0  0  0  0  0  0  0  0  0  0  0  0
  141.7690   77.0320  218.6870 C   0  0  0  0  0  0  0  0  0  0  0  0
  141.9210   78.0510  219.6740 N   0  0  0  0  0  0  0  0  0  0  0  0
  141.1320   79.2060  219.8110 C   0  0  0  0  0  0  0  0  0  0  0  0
  141.5040   80.2990  220.6980 C   0  0  0  0  0  0  0  0  0  0  0  0
  141.9260   81.3500  220.0500 O   0  0  0  0  0  0  0  0  0  0  0  0
  141.4980   80.4320  222.0810 N   0  0  0  0  0  0  0  0  0  0  0  0
  142.0140   81.4540  223.0050 C   0  0  0  0  0  0  0  0  0  0  0  0
  142.8690   80.5410  223.8880 C   0  0  0  0  0  0  0  0  0  0  0  0
  142.2010   79.1690  223.8340 C   0  0  0  0  0  0  0  0  0  0  0  0
  140.9580   79.4640  223.0700 C   0  0  2  0  0  0  0  0  0  0  0  0
  140.2630   78.3440  222.6240 C   0  0  0  0  0  0  0  0  0  0  0  0
  140.7050   77.1220  222.2080 C   0  0  0  0  0  0  0  0  0  0  0  0
  139.8510   76.1770  221.8630 C   0  0  0  0  0  0  0  0  0  0  0  0
  140.2530   74.8190  221.3980 C   0  0  0  0  0  0  0  0  0  0  0  0
  140.1870   74.4600  220.0770 C   0  0  0  0  0  0  0  0  0  0  0  0
  140.5580   73.2100  219.6560 C   0  0  0  0  0  0  0  0  0  0  0  0
  141.0100   72.2750  220.5420 C   0  0  0  0  0  0  0  0  0  0  0  0
  141.0670   72.6670  221.8820 C   0  0  0  0  0  0  0  0  0  0  0  0
  140.6970   73.8980  222.2670 N   0  0  0  0  0  0  0  0  0  0  0  0
  138.4820   76.4680  221.9380 C   0  0  0  0  0  0  0  0  0  0  0  0
  138.4660   78.2270  222.5500 S   0  0  0  0  0  0  0  0  0  0  0  0
  142.6690   75.8720  218.6610 C   0  0  0  0  0  0  0  0  0  0  0  0
  142.7570   75.1530  217.4870 C   0  0  0  0  0  0  0  0  0  0  0  0
  143.6020   74.0540  217.4430 C   0  0  0  0  0  0  0  0  0  0  0  0
  144.3280   73.7060  218.5620 C   0  0  0  0  0  0  0  0  0  0  0  0
  145.1930   72.6110  218.5770 C   0  0  0  0  0  0  0  0  0  0  0  0
  145.9040   72.2980  219.7240 C   0  0  0  0  0  0  0  0  0  0  0  0
  146.7410   71.2250  219.7160 F   0  0  0  0  0  0  0  0  0  0  0  0
  145.7370   73.0870  220.8440 C   0  0  0  0  0  0  0  0  0  0  0  0
  144.8940   74.1790  220.8770 C   0  0  0  0  0  0  0  0  0  0  0  0
  144.1890   74.4760  219.7090 C   0  0  0  0  0  0  0  0  0  0  0  0
  143.3740   75.5460  219.7720 N   0  0  0  0  0  0  0  0  0  0  0  0
  142.7150   77.8910  220.3560 H   0  0  0  0  0  0  0  0  0  0  0  0
  141.0490   79.6421  218.8046 H   0  0  0  0  0  0  0  0  0  0  0  0
  140.2304   78.8103  220.3013 H   0  0  0  0  0  0  0  0  0  0  0  0
  142.6167   82.2153  222.4881 H   0  0  0  0  0  0  0  0  0  0  0  0
  141.2557   82.0551  223.5282 H   0  0  0  0  0  0  0  0  0  0  0  0
  143.8960   80.4830  223.4984 H   0  0  0  0  0  0  0  0  0  0  0  0
  142.9354   80.9196  224.9187 H   0  0  0  0  0  0  0  0  0  0  0  0
  142.8309   78.4375  223.3066 H   0  0  0  0  0  0  0  0  0  0  0  0
  142.0201   78.7229  224.8231 H   0  0  0  0  0  0  0  0  0  0  0  0
  140.1169   79.8868  223.6391 H   0  0  0  0  0  0  0  0  0  0  0  0
  141.7856   76.9223  222.1596 H   0  0  0  0  0  0  0  0  0  0  0  0
  139.8282   75.1917  219.3382 H   0  0  0  0  0  0  0  0  0  0  0  0
  140.4906   72.9560  218.5878 H   0  0  0  0  0  0  0  0  0  0  0  0
  141.3128   71.2681  220.2188 H   0  0  0  0  0  0  0  0  0  0  0  0
  141.4228   71.9510  222.6375 H   0  0  0  0  0  0  0  0  0  0  0  0
  137.6282   75.8182  221.6954 H   0  0  0  0  0  0  0  0  0  0  0  0
  142.1693   75.4451  216.6042 H   0  0  0  0  0  0  0  0  0  0  0  0
  143.6924   73.4630  216.5197 H   0  0  0  0  0  0  0  0  0  0  0  0
  145.3108   71.9937  217.6742 H   0  0  0  0  0  0  0  0  0  0  0  0
  146.3024   72.8335  221.7529 H   0  0  0  0  0  0  0  0  0  0  0  0
  144.7822   74.7897  221.7851 H   0  0  0  0  0  0  0  0  0  0  0  0
  1  2  2  0
  2  3  1  0
  3  4  1  0
  4  5  1  0
  5  6  2  0
  5  7  1  0
  7  8  1  0
  8  9  1  0
  9 10  1  0
 10 11  1  0
 11 12  1  0
 12 13  2  0
 13 14  1  0
 14 15  1  0
 15 16  2  0
 16 17  1  0
 17 18  2  0
 18 19  1  0
 19 20  2  0
 14 21  2  0
 21 22  1  0
  2 23  1  0
 23 24  2  0
 24 25  1  0
 25 26  2  0
 26 27  1  0
 27 28  2  0
 28 29  1  0
 28 30  1  0
 30 31  2  0
 31 32  1  0
 32 33  2  0
 11  7  1  0
 22 12  1  0
 33 23  1  0
 20 15  1  0
 32 26  1  0
  3 34  1  0
  4 35  1  0
  4 36  1  0
  8 37  1  0
  8 38  1  0
  9 39  1  0
  9 40  1  0
 10 41  1  0
 10 42  1  0
 11 43  1  1
 13 44  1  0
 16 45  1  0
 17 46  1  0
 18 47  1  0
 19 48  1  0
 21 49  1  0
 24 50  1  0
 25 51  1  0
 27 52  1  0
 30 53  1  0
 31 54  1  0
M  END
>  <smiles>  (4) 
O=C(NCC(=O)N1CCC[C@@H]1c1cc(-c2ccccn2)cs1)c1ccc2cc(F)ccc2n1

>  <score_type>  (4) 
oracle

>  <origin>  (4) 
autodockgpu

>  <m_score__min__energy>  (4) 
-9.3699999999999992

>  <m_primary>  (4) 
energy

>  <rmsd>  (4) 
7.729977694560837

>  <m_score__min__rmsd>  (4) 
7.729977694560837

>  <meeko>  (4) 
{"free_energy": -7.83, "intermolecular_energy": -9.62, "internal_energy": -3.2, "cluster_size": 30, "cluster_id": 6, "rank_in_cluster": 7}

>  <energy>  (4) 
-8.98

>  <cluster_rmsd>  (4) 
1.17

>  <cluster>  (4) 
1

$$$$

     RDKit          3D

 54 58  0  0  0  0  0  0  0  0999 V2000
  140.7830   73.2250  222.4450 O   0  0  0  0  0  0  0  0  0  0  0  0
  139.8420   72.4130  222.6210 C   0  0  0  0  0  0  0  0  0  0  0  0
  138.7930   72.4110  221.6530 N   0  0  0  0  0  0  0  0  0  0  0  0
  138.7050   73.2300  220.5150 C   0  0  0  0  0  0  0  0  0  0  0  0
  138.5140   74.6710  220.6090 C   0  0  0  0  0  0  0  0  0  0  0  0
  138.1840   75.2090  219.4670 O   0  0  0  0  0  0  0  0  0  0  0  0
  138.6170   75.5660  221.6660 N   0  0  0  0  0  0  0  0  0  0  0  0
  137.6960   75.9850  222.7350 C   0  0  0  0  0  0  0  0  0  0  0  0
  137.7440   77.4950  222.4870 C   0  0  0  0  0  0  0  0  0  0  0  0
  139.1190   77.7710  221.8820 C   0  0  0  0  0  0  0  0  0  0  0  0
  139.7730   76.4390  221.9900 C   0  0  2  0  0  0  0  0  0  0  0  0
  140.9560   76.3060  221.2690 C   0  0  0  0  0  0  0  0  0  0  0  0
  141.8590   75.2850  221.2120 C   0  0  0  0  0  0  0  0  0  0  0  0
  142.9080   75.3550  220.4140 C   0  0  0  0  0  0  0  0  0  0  0  0
  143.9380   74.2850  220.2940 C   0  0  0  0  0  0  0  0  0  0  0  0
  143.6010   72.9900  219.9980 C   0  0  0  0  0  0  0  0  0  0  0  0
  144.5530   72.0090  219.8890 C   0  0  0  0  0  0  0  0  0  0  0  0
  145.8760   72.2910  220.0710 C   0  0  0  0  0  0  0  0  0  0  0  0
  146.1920   73.6190  220.3710 C   0  0  0  0  0  0  0  0  0  0  0  0
  145.2390   74.5590  220.4720 N   0  0  0  0  0  0  0  0  0  0  0  0
  143.0630   76.5080  219.6310 C   0  0  0  0  0  0  0  0  0  0  0  0
  141.5800   77.5310  220.1050 S   0  0  0  0  0  0  0  0  0  0  0  0
  139.8070   71.4970  223.7680 C   0  0  0  0  0  0  0  0  0  0  0  0
  139.1050   70.3190  223.6280 C   0  0  0  0  0  0  0  0  0  0  0  0
  139.0610   69.4400  224.7010 C   0  0  0  0  0  0  0  0  0  0  0  0
  139.7130   69.7610  225.8720 C   0  0  0  0  0  0  0  0  0  0  0  0
  139.7020   68.9180  226.9840 C   0  0  0  0  0  0  0  0  0  0  0  0
  140.3720   69.2800  228.1410 C   0  0  0  0  0  0  0  0  0  0  0  0
  140.3480   68.4420  229.2140 F   0  0  0  0  0  0  0  0  0  0  0  0
  141.0430   70.4850  228.1710 C   0  0  0  0  0  0  0  0  0  0  0  0
  141.0810   71.3520  227.0970 C   0  0  0  0  0  0  0  0  0  0  0  0
  140.4000   70.9650  225.9410 C   0  0  0  0  0  0  0  0  0  0  0  0
  140.4540   71.8310  224.9110 N   0  0  0  0  0  0  0  0  0  0  0  0
  138.0210   71.7110  221.8400 H   0  0  0  0  0  0  0  0  0  0  0  0
  139.6403   73.0801  219.9558 H   0  0  0  0  0  0  0  0  0  0  0  0
  137.7543   72.9017  220.0696 H   0  0  0  0  0  0  0  0  0  0  0  0
  136.6852   75.5732  222.5978 H   0  0  0  0  0  0  0  0  0  0  0  0
  137.9587   75.6566  223.7514 H   0  0  0  0  0  0  0  0  0  0  0  0
  136.9499   77.7941  221.7870 H   0  0  0  0  0  0  0  0  0  0  0  0
  137.5872   78.0641  223.4152 H   0  0  0  0  0  0  0  0  0  0  0  0
  139.0377   78.0932  220.8334 H   0  0  0  0  0  0  0  0  0  0  0  0
  139.6713   78.5799  222.3826 H   0  0  0  0  0  0  0  0  0  0  0  0
  140.2164   76.1843  222.9639 H   0  0  0  0  0  0  0  0  0  0  0  0
  141.7111   74.3930  221.8384 H   0  0  0  0  0  0  0  0  0  0  0  0
  142.5429   72.7316  219.8444 H   0  0  0  0  0  0  0  0  0  0  0  0
  144.2459   70.9798  219.6514 H   0  0  0  0  0  0  0  0  0  0  0  0
  146.6513   71.5153  219.9862 H   0  0  0  0  0  0  0  0  0  0  0  0
  147.2439   73.8999  220.5277 H   0  0  0  0  0  0  0  0  0  0  0  0
  143.8622   76.7487  218.9145 H   0  0  0  0  0  0  0  0  0  0  0  0
  138.5904   70.0807  222.6855 H   0  0  0  0  0  0  0  0  0  0  0  0
  138.5088   68.4923  224.6173 H   0  0  0  0  0  0  0  0  0  0  0  0
  139.1591   67.9622  226.9415 H   0  0  0  0  0  0  0  0  0  0  0  0
  141.5721   70.7682  229.0929 H   0  0  0  0  0  0  0  0  0  0  0  0
  141.6246   72.3069  227.1498 H   0  0  0  0  0  0  0  0  0  0  0  0
  1  2  2  0
  2  3  1  0
  3  4  1  0
  4  5  1  0
  5  6  2  0
  5  7  1  0
  7  8  1  0
  8  9  1  0
  9 10  1  0
 10 11  1  0
 11 12  1  0
 12 13  2  0
 13 14  1  0
 14 15  1  0
 15 16  2  0
 16 17  1  0
 17 18  2  0
 18 19  1  0
 19 20  2  0
 14 21  2  0
 21 22  1  0
  2 23  1  0
 23 24  2  0
 24 25  1  0
 25 26  2  0
 26 27  1  0
 27 28  2  0
 28 29  1  0
 28 30  1  0
 30 31  2  0
 31 32  1  0
 32 33  2  0
 11  7  1  0
 22 12  1  0
 33 23  1  0
 20 15  1  0
 32 26  1  0
  3 34  1  0
  4 35  1  0
  4 36  1  0
  8 37  1  0
  8 38  1  0
  9 39  1  0
  9 40  1  0
 10 41  1  0
 10 42  1  0
 11 43  1  1
 13 44  1  0
 16 45  1  0
 17 46  1  0
 18 47  1  0
 19 48  1  0
 21 49  1  0
 24 50  1  0
 25 51  1  0
 27 52  1  0
 30 53  1  0
 31 54  1  0
M  END
>  <smiles>  (5) 
O=C(NCC(=O)N1CCC[C@@H]1c1cc(-c2ccccn2)cs1)c1ccc2cc(F)ccc2n1

>  <score_type>  (5) 
oracle

>  <origin>  (5) 
autodockgpu

>  <m_score__min__energy>  (5) 
-9.3699999999999992

>  <m_primary>  (5) 
energy

>  <rmsd>  (5) 
4.571848613003288

>  <m_score__min__rmsd>  (5) 
4.571848613003288

>  <meeko>  (5) 
{"free_energy": -8.67, "intermolecular_energy": -10.46, "internal_energy": -1.82, "cluster_size": 2, "cluster_id": 3, "rank_in_cluster": 2}

>  <energy>  (5) 
-8.74

>  <cluster_rmsd>  (5) 
1.09

>  <cluster>  (5) 
1

$$$$

     RDKit          3D

 54 58  0  0  0  0  0  0  0  0999 V2000
  141.0550   78.6180  217.6210 O   0  0  0  0  0  0  0  0  0  0  0  0
  141.8910   78.2430  218.4780 C   0  0  0  0  0  0  0  0  0  0  0  0
  142.1770   79.1440  219.5480 N   0  0  0  0  0  0  0  0  0  0  0  0
  141.6130   80.4160  219.7420 C   0  0  0  0  0  0  0  0  0  0  0  0
  140.8520   80.7530  220.9370 C   0  0  0  0  0  0  0  0  0  0  0  0
  139.7280   81.3560  220.6620 O   0  0  0  0  0  0  0  0  0  0  0  0
  141.0930   80.5590  222.2910 N   0  0  0  0  0  0  0  0  0  0  0  0
  141.6290   81.4170  223.3600 C   0  0  0  0  0  0  0  0  0  0  0  0
  142.7560   80.4970  223.8350 C   0  0  0  0  0  0  0  0  0  0  0  0
  142.2880   79.0760  223.5290 C   0  0  0  0  0  0  0  0  0  0  0  0
  140.8930   79.3070  223.0650 C   0  0  2  0  0  0  0  0  0  0  0  0
  140.2880   78.2130  222.4540 C   0  0  0  0  0  0  0  0  0  0  0  0
  140.7440   76.9460  222.2320 C   0  0  0  0  0  0  0  0  0  0  0  0
  139.9710   76.0400  221.6620 C   0  0  0  0  0  0  0  0  0  0  0  0
  140.3930   74.6380  221.3860 C   0  0  0  0  0  0  0  0  0  0  0  0
  140.8430   74.2510  220.1500 C   0  0  0  0  0  0  0  0  0  0  0  0
  141.2290   72.9600  219.9010 C   0  0  0  0  0  0  0  0  0  0  0  0
  141.1820   72.0110  220.8810 C   0  0  0  0  0  0  0  0  0  0  0  0
  140.7200   72.4330  222.1310 C   0  0  0  0  0  0  0  0  0  0  0  0
  140.3470   73.7040  222.3460 N   0  0  0  0  0  0  0  0  0  0  0  0
  138.6720   76.4210  221.2950 C   0  0  0  0  0  0  0  0  0  0  0  0
  138.6010   78.2070  221.8230 S   0  0  0  0  0  0  0  0  0  0  0  0
  142.5570   76.9370  218.3990 C   0  0  0  0  0  0  0  0  0  0  0  0
  142.4250   76.2180  217.2300 C   0  0  0  0  0  0  0  0  0  0  0  0
  143.0460   74.9810  217.1360 C   0  0  0  0  0  0  0  0  0  0  0  0
  143.7760   74.5020  218.2030 C   0  0  0  0  0  0  0  0  0  0  0  0
  144.4220   73.2660  218.1660 C   0  0  0  0  0  0  0  0  0  0  0  0
  145.1460   72.8230  219.2620 C   0  0  0  0  0  0  0  0  0  0  0  0
  145.7670   71.6140  219.2040 F   0  0  0  0  0  0  0  0  0  0  0  0
  145.2110   73.6260  220.3820 C   0  0  0  0  0  0  0  0  0  0  0  0
  144.5880   74.8550  220.4650 C   0  0  0  0  0  0  0  0  0  0  0  0
  143.8660   75.2810  219.3490 C   0  0  0  0  0  0  0  0  0  0  0  0
  143.2700   76.4830  219.4590 N   0  0  0  0  0  0  0  0  0  0  0  0
  142.8880   78.7880  220.2480 H   0  0  0  0  0  0  0  0  0  0  0  0
  142.4471   81.1317  219.6972 H   0  0  0  0  0  0  0  0  0  0  0  0
  140.8383   80.4444  218.9616 H   0  0  0  0  0  0  0  0  0  0  0  0
  142.0088   82.3743  222.9735 H   0  0  0  0  0  0  0  0  0  0  0  0
  140.9091   81.7319  224.1298 H   0  0  0  0  0  0  0  0  0  0  0  0
  143.6866   80.7193  223.2923 H   0  0  0  0  0  0  0  0  0  0  0  0
  142.9660   80.6329  224.9062 H   0  0  0  0  0  0  0  0  0  0  0  0
  142.9006   78.6137  222.7410 H   0  0  0  0  0  0  0  0  0  0  0  0
  142.3644   78.3884  224.3842 H   0  0  0  0  0  0  0  0  0  0  0  0
  140.1265   79.4256  223.8450 H   0  0  0  0  0  0  0  0  0  0  0  0
  141.7676   76.6764  222.5314 H   0  0  0  0  0  0  0  0  0  0  0  0
  140.8953   74.9935  219.3401 H   0  0  0  0  0  0  0  0  0  0  0  0
  141.5820   72.6843  218.8963 H   0  0  0  0  0  0  0  0  0  0  0  0
  141.4907   70.9713  220.6972 H   0  0  0  0  0  0  0  0  0  0  0  0
  140.6609   71.7078  222.9560 H   0  0  0  0  0  0  0  0  0  0  0  0
  137.8892   75.8157  220.8146 H   0  0  0  0  0  0  0  0  0  0  0  0
  141.8391   76.6171  216.3889 H   0  0  0  0  0  0  0  0  0  0  0  0
  142.9565   74.3857  216.2153 H   0  0  0  0  0  0  0  0  0  0  0  0
  144.3566   72.6405  217.2635 H   0  0  0  0  0  0  0  0  0  0  0  0
  145.7862   73.2702  221.2495 H   0  0  0  0  0  0  0  0  0  0  0  0
  144.6576   75.4727  221.3725 H   0  0  0  0  0  0  0  0  0  0  0  0
  1  2  2  0
  2  3  1  0
  3  4  1  0
  4  5  1  0
  5  6  2  0
  5  7  1  0
  7  8  1  0
  8  9  1  0
  9 10  1  0
 10 11  1  0
 11 12  1  0
 12 13  2  0
 13 14  1  0
 14 15  1  0
 15 16  2  0
 16 17  1  0
 17 18  2  0
 18 19  1  0
 19 20  2  0
 14 21  2  0
 21 22  1  0
  2 23  1  0
 23 24  2  0
 24 25  1  0
 25 26  2  0
 26 27  1  0
 27 28  2  0
 28 29  1  0
 28 30  1  0
 30 31  2  0
 31 32  1  0
 32 33  2  0
 11  7  1  0
 22 12  1  0
 33 23  1  0
 20 15  1  0
 32 26  1  0
  3 34  1  0
  4 35  1  0
  4 36  1  0
  8 37  1  0
  8 38  1  0
  9 39  1  0
  9 40  1  0
 10 41  1  0
 10 42  1  0
 11 43  1  1
 13 44  1  0
 16 45  1  0
 17 46  1  0
 18 47  1  0
 19 48  1  0
 21 49  1  0
 24 50  1  0
 25 51  1  0
 27 52  1  0
 30 53  1  0
 31 54  1  0
M  END
>  <smiles>  (6) 
O=C(NCC(=O)N1CCC[C@@H]1c1cc(-c2ccccn2)cs1)c1ccc2cc(F)ccc2n1

>  <score_type>  (6) 
oracle

>  <origin>  (6) 
autodockgpu

>  <m_score__min__energy>  (6) 
-9.3699999999999992

>  <m_primary>  (6) 
energy

>  <rmsd>  (6) 
8.177530188944544

>  <m_score__min__rmsd>  (6) 
8.177530188944544

>  <meeko>  (6) 
{"free_energy": -7.62, "intermolecular_energy": -9.41, "internal_energy": -3.51, "cluster_size": 30, "cluster_id": 6, "rank_in_cluster": 13}

>  <energy>  (6) 
-8.73

>  <cluster_rmsd>  (6) 
1.2

>  <cluster>  (6) 
1

$$$$

     RDKit          3D

 54 58  0  0  0  0  0  0  0  0999 V2000
  141.0670   78.7460  217.6110 O   0  0  0  0  0  0  0  0  0  0  0  0
  141.8920   78.3520  218.4700 C   0  0  0  0  0  0  0  0  0  0  0  0
  142.1940   79.2450  219.5420 N   0  0  0  0  0  0  0  0  0  0  0  0
  141.6570   80.5290  219.7360 C   0  0  0  0  0  0  0  0  0  0  0  0
  140.8980   80.8810  220.9280 C   0  0  0  0  0  0  0  0  0  0  0  0
  139.8680   81.6370  220.6620 O   0  0  0  0  0  0  0  0  0  0  0  0
  141.0610   80.5710  222.2720 N   0  0  0  0  0  0  0  0  0  0  0  0
  141.4720   81.3500  223.4500 C   0  0  0  0  0  0  0  0  0  0  0  0
  142.6200   80.4530  223.9180 C   0  0  0  0  0  0  0  0  0  0  0  0
  142.2620   79.0440  223.4500 C   0  0  0  0  0  0  0  0  0  0  0  0
  140.8890   79.2410  222.9100 C   0  0  2  0  0  0  0  0  0  0  0  0
  140.3950   78.1790  222.1600 C   0  0  0  0  0  0  0  0  0  0  0  0
  140.7650   76.8670  222.1130 C   0  0  0  0  0  0  0  0  0  0  0  0
  140.1190   76.0090  221.3450 C   0  0  0  0  0  0  0  0  0  0  0  0
  140.4610   74.5630  221.2370 C   0  0  0  0  0  0  0  0  0  0  0  0
  140.8790   74.0070  220.0560 C   0  0  0  0  0  0  0  0  0  0  0  0
  141.1930   72.6760  219.9630 C   0  0  0  0  0  0  0  0  0  0  0  0
  141.1010   71.8550  221.0500 C   0  0  0  0  0  0  0  0  0  0  0  0
  140.6730   72.4480  222.2410 C   0  0  0  0  0  0  0  0  0  0  0  0
  140.3720   73.7540  222.3030 N   0  0  0  0  0  0  0  0  0  0  0  0
  139.0430   76.4890  220.5850 C   0  0  0  0  0  0  0  0  0  0  0  0
  138.9940   78.2970  221.0340 S   0  0  0  0  0  0  0  0  0  0  0  0
  142.5300   77.0310  218.3920 C   0  0  0  0  0  0  0  0  0  0  0  0
  142.4030   76.3260  217.2140 C   0  0  0  0  0  0  0  0  0  0  0  0
  142.9980   75.0760  217.1200 C   0  0  0  0  0  0  0  0  0  0  0  0
  143.6960   74.5710  218.1970 C   0  0  0  0  0  0  0  0  0  0  0  0
  144.3150   73.3210  218.1610 C   0  0  0  0  0  0  0  0  0  0  0  0
  145.0070   72.8530  219.2660 C   0  0  0  0  0  0  0  0  0  0  0  0
  145.6030   71.6300  219.2090 F   0  0  0  0  0  0  0  0  0  0  0  0
  145.0700   73.6440  220.3940 C   0  0  0  0  0  0  0  0  0  0  0  0
  144.4740   74.8860  220.4770 C   0  0  0  0  0  0  0  0  0  0  0  0
  143.7820   75.3380  219.3510 C   0  0  0  0  0  0  0  0  0  0  0  0
  143.2110   76.5520  219.4610 N   0  0  0  0  0  0  0  0  0  0  0  0
  142.8940   78.8730  220.2440 H   0  0  0  0  0  0  0  0  0  0  0  0
  142.5068   81.2263  219.6963 H   0  0  0  0  0  0  0  0  0  0  0  0
  140.8865   80.5754  218.9523 H   0  0  0  0  0  0  0  0  0  0  0  0
  141.8166   82.3594  223.1810 H   0  0  0  0  0  0  0  0  0  0  0  0
  140.6850   81.5489  224.1923 H   0  0  0  0  0  0  0  0  0  0  0  0
  143.5689   80.7776  223.4660 H   0  0  0  0  0  0  0  0  0  0  0  0
  142.7502   80.4971  225.0094 H   0  0  0  0  0  0  0  0  0  0  0  0
  142.9530   78.6939  222.6690 H   0  0  0  0  0  0  0  0  0  0  0  0
  142.3238   78.2829  224.2418 H   0  0  0  0  0  0  0  0  0  0  0  0
  140.0662   79.2414  223.6401 H   0  0  0  0  0  0  0  0  0  0  0  0
  141.6121   76.5194  222.7225 H   0  0  0  0  0  0  0  0  0  0  0  0
  140.9644   74.6432  219.1627 H   0  0  0  0  0  0  0  0  0  0  0  0
  141.5239   72.2633  218.9985 H   0  0  0  0  0  0  0  0  0  0  0  0
  141.3501   70.7852  220.9916 H   0  0  0  0  0  0  0  0  0  0  0  0
  140.5810   71.8308  223.1469 H   0  0  0  0  0  0  0  0  0  0  0  0
  138.3895   75.9354  219.8947 H   0  0  0  0  0  0  0  0  0  0  0  0
  141.8416   76.7457  216.3663 H   0  0  0  0  0  0  0  0  0  0  0  0
  142.9135   74.4913  216.1921 H   0  0  0  0  0  0  0  0  0  0  0  0
  144.2533   72.7049  217.2518 H   0  0  0  0  0  0  0  0  0  0  0  0
  145.6210   73.2674  221.2684 H   0  0  0  0  0  0  0  0  0  0  0  0
  144.5411   75.4942  221.3911 H   0  0  0  0  0  0  0  0  0  0  0  0
  1  2  2  0
  2  3  1  0
  3  4  1  0
  4  5  1  0
  5  6  2  0
  5  7  1  0
  7  8  1  0
  8  9  1  0
  9 10  1  0
 10 11  1  0
 11 12  1  0
 12 13  2  0
 13 14  1  0
 14 15  1  0
 15 16  2  0
 16 17  1  0
 17 18  2  0
 18 19  1  0
 19 20  2  0
 14 21  2  0
 21 22  1  0
  2 23  1  0
 23 24  2  0
 24 25  1  0
 25 26  2  0
 26 27  1  0
 27 28  2  0
 28 29  1  0
 28 30  1  0
 30 31  2  0
 31 32  1  0
 32 33  2  0
 11  7  1  0
 22 12  1  0
 33 23  1  0
 20 15  1  0
 32 26  1  0
  3 34  1  0
  4 35  1  0
  4 36  1  0
  8 37  1  0
  8 38  1  0
  9 39  1  0
  9 40  1  0
 10 41  1  0
 10 42  1  0
 11 43  1  1
 13 44  1  0
 16 45  1  0
 17 46  1  0
 18 47  1  0
 19 48  1  0
 21 49  1  0
 24 50  1  0
 25 51  1  0
 27 52  1  0
 30 53  1  0
 31 54  1  0
M  END
>  <smiles>  (7) 
O=C(NCC(=O)N1CCC[C@@H]1c1cc(-c2ccccn2)cs1)c1ccc2cc(F)ccc2n1

>  <score_type>  (7) 
oracle

>  <origin>  (7) 
autodockgpu

>  <m_score__min__energy>  (7) 
-9.3699999999999992

>  <m_primary>  (7) 
energy

>  <rmsd>  (7) 
8.220429860219966

>  <m_score__min__rmsd>  (7) 
8.220429860219966

>  <meeko>  (7) 
{"free_energy": -7.37, "intermolecular_energy": -9.16, "internal_energy": -3.66, "cluster_size": 30, "cluster_id": 6, "rank_in_cluster": 22}

>  <energy>  (7) 
-8.57

>  <cluster_rmsd>  (7) 
1.13

>  <cluster>  (7) 
1

$$$$

     RDKit          3D

 54 58  0  0  0  0  0  0  0  0999 V2000
  139.7640   77.8300  219.1950 O   0  0  0  0  0  0  0  0  0  0  0  0
  141.0000   77.7120  219.3740 C   0  0  0  0  0  0  0  0  0  0  0  0
  141.7360   78.9050  219.6450 N   0  0  0  0  0  0  0  0  0  0  0  0
  141.2140   80.2060  219.7340 C   0  0  0  0  0  0  0  0  0  0  0  0
  140.8970   80.8300  221.0110 C   0  0  0  0  0  0  0  0  0  0  0  0
  139.9970   81.7690  220.9020 O   0  0  0  0  0  0  0  0  0  0  0  0
  141.3650   80.6190  222.3020 N   0  0  0  0  0  0  0  0  0  0  0  0
  142.1980   81.4100  223.2210 C   0  0  0  0  0  0  0  0  0  0  0  0
  143.2710   80.3570  223.5080 C   0  0  0  0  0  0  0  0  0  0  0  0
  142.5790   79.0060  223.3430 C   0  0  0  0  0  0  0  0  0  0  0  0
  141.1620   79.4110  223.1410 C   0  0  2  0  0  0  0  0  0  0  0  0
  140.3190   78.3980  222.6920 C   0  0  0  0  0  0  0  0  0  0  0  0
  140.5290   77.0580  222.5450 C   0  0  0  0  0  0  0  0  0  0  0  0
  139.5590   76.2640  222.1350 C   0  0  0  0  0  0  0  0  0  0  0  0
  139.7080   74.7930  221.9480 C   0  0  0  0  0  0  0  0  0  0  0  0
  138.6270   73.9820  221.7160 C   0  0  0  0  0  0  0  0  0  0  0  0
  138.7700   72.6300  221.5450 C   0  0  0  0  0  0  0  0  0  0  0  0
  140.0010   72.0410  221.5990 C   0  0  0  0  0  0  0  0  0  0  0  0
  141.0850   72.8910  221.8380 C   0  0  0  0  0  0  0  0  0  0  0  0
  140.9150   74.2110  222.0020 N   0  0  0  0  0  0  0  0  0  0  0  0
  138.3100   76.8390  221.8590 C   0  0  0  0  0  0  0  0  0  0  0  0
  138.5960   78.6430  222.2260 S   0  0  0  0  0  0  0  0  0  0  0  0
  141.6770   76.4110  219.3110 C   0  0  0  0  0  0  0  0  0  0  0  0
  141.0530   75.3950  218.6180 C   0  0  0  0  0  0  0  0  0  0  0  0
  141.6770   74.1580  218.5480 C   0  0  0  0  0  0  0  0  0  0  0  0
  142.8960   73.9720  219.1650 C   0  0  0  0  0  0  0  0  0  0  0  0
  143.5700   72.7510  219.1280 C   0  0  0  0  0  0  0  0  0  0  0  0
  144.7940   72.6090  219.7620 C   0  0  0  0  0  0  0  0  0  0  0  0
  145.4330   71.4090  219.7130 F   0  0  0  0  0  0  0  0  0  0  0  0
  145.3260   73.6950  220.4270 C   0  0  0  0  0  0  0  0  0  0  0  0
  144.6970   74.9210  220.4910 C   0  0  0  0  0  0  0  0  0  0  0  0
  143.4650   75.0410  219.8440 C   0  0  0  0  0  0  0  0  0  0  0  0
  142.8750   76.2490  219.9250 N   0  0  0  0  0  0  0  0  0  0  0  0
  142.7750   78.7600  219.7900 H   0  0  0  0  0  0  0  0  0  0  0  0
  141.9464   80.8646  219.2442 H   0  0  0  0  0  0  0  0  0  0  0  0
  140.2169   80.0832  219.2860 H   0  0  0  0  0  0  0  0  0  0  0  0
  142.6142   82.3061  222.7375 H   0  0  0  0  0  0  0  0  0  0  0  0
  141.6829   81.8226  224.1010 H   0  0  0  0  0  0  0  0  0  0  0  0
  144.1022   80.4519  222.7938 H   0  0  0  0  0  0  0  0  0  0  0  0
  143.6961   80.4749  224.5156 H   0  0  0  0  0  0  0  0  0  0  0  0
  142.9679   78.4610  222.4702 H   0  0  0  0  0  0  0  0  0  0  0  0
  142.7297   78.3223  224.1915 H   0  0  0  0  0  0  0  0  0  0  0  0
  140.5792   79.6353  224.0466 H   0  0  0  0  0  0  0  0  0  0  0  0
  141.5189   76.6349  222.7711 H   0  0  0  0  0  0  0  0  0  0  0  0
  137.6222   74.4268  221.6660 H   0  0  0  0  0  0  0  0  0  0  0  0
  137.8802   72.0099  221.3615 H   0  0  0  0  0  0  0  0  0  0  0  0
  140.1324   70.9575  221.4620 H   0  0  0  0  0  0  0  0  0  0  0  0
  142.0989   72.4680  221.8927 H   0  0  0  0  0  0  0  0  0  0  0  0
  137.3895   76.3468  221.5118 H   0  0  0  0  0  0  0  0  0  0  0  0
  140.0809   75.5620  218.1310 H   0  0  0  0  0  0  0  0  0  0  0  0
  141.2015   73.3293  218.0028 H   0  0  0  0  0  0  0  0  0  0  0  0
  143.1279   71.8974  218.5933 H   0  0  0  0  0  0  0  0  0  0  0  0
  146.2973   73.5774  220.9297 H   0  0  0  0  0  0  0  0  0  0  0  0
  145.1468   75.7685  221.0290 H   0  0  0  0  0  0  0  0  0  0  0  0
  1  2  2  0
  2  3  1  0
  3  4  1  0
  4  5  1  0
  5  6  2  0
  5  7  1  0
  7  8  1  0
  8  9  1  0
  9 10  1  0
 10 11  1  0
 11 12  1  0
 12 13  2  0
 13 14  1  0
 14 15  1  0
 15 16  2  0
 16 17  1  0
 17 18  2  0
 18 19  1  0
 19 20  2  0
 14 21  2  0
 21 22  1  0
  2 23  1  0
 23 24  2  0
 24 25  1  0
 25 26  2  0
 26 27  1  0
 27 28  2  0
 28 29  1  0
 28 30  1  0
 30 31  2  0
 31 32  1  0
 32 33  2  0
 11  7  1  0
 22 12  1  0
 33 23  1  0
 20 15  1  0
 32 26  1  0
  3 34  1  0
  4 35  1  0
  4 36  1  0
  8 37  1  0
  8 38  1  0
  9 39  1  0
  9 40  1  0
 10 41  1  0
 10 42  1  0
 11 43  1  1
 13 44  1  0
 16 45  1  0
 17 46  1  0
 18 47  1  0
 19 48  1  0
 21 49  1  0
 24 50  1  0
 25 51  1  0
 27 52  1  0
 30 53  1  0
 31 54  1  0
M  END
>  <smiles>  (8) 
O=C(NCC(=O)N1CCC[C@@H]1c1cc(-c2ccccn2)cs1)c1ccc2cc(F)ccc2n1

>  <score_type>  (8) 
oracle

>  <origin>  (8) 
autodockgpu

>  <m_score__min__energy>  (8) 
-9.3699999999999992

>  <m_primary>  (8) 
energy

>  <rmsd>  (8) 
7.732020474232608

>  <m_score__min__rmsd>  (8) 
7.732020474232608

>  <meeko>  (8) 
{"free_energy": -7.01, "intermolecular_energy": -8.8, "internal_energy": -3.8, "cluster_size": 30, "cluster_id": 6, "rank_in_cluster": 26}

>  <energy>  (8) 
-8.44

>  <cluster_rmsd>  (8) 
1.24

>  <cluster>  (8) 
1

$$$$

     RDKit          3D

 54 58  0  0  0  0  0  0  0  0999 V2000
  140.0410   70.9010  221.4120 O   0  0  0  0  0  0  0  0  0  0  0  0
  139.7690   71.5660  222.4410 C   0  0  0  0  0  0  0  0  0  0  0  0
  139.1840   72.8540  222.2490 N   0  0  0  0  0  0  0  0  0  0  0  0
  138.8790   73.4580  221.0180 C   0  0  0  0  0  0  0  0  0  0  0  0
  139.8840   74.1500  220.2240 C   0  0  0  0  0  0  0  0  0  0  0  0
  139.4970   75.3390  219.8500 O   0  0  0  0  0  0  0  0  0  0  0  0
  141.1550   73.7900  219.7940 N   0  0  0  0  0  0  0  0  0  0  0  0
  141.8080   72.4980  219.5270 C   0  0  0  0  0  0  0  0  0  0  0  0
  143.0270   72.6760  220.4360 C   0  0  0  0  0  0  0  0  0  0  0  0
  143.2780   74.1810  220.5020 C   0  0  0  0  0  0  0  0  0  0  0  0
  142.2950   74.6980  219.5120 C   0  0  2  0  0  0  0  0  0  0  0  0
  142.0980   76.0760  219.5440 C   0  0  0  0  0  0  0  0  0  0  0  0
  141.9960   76.9410  220.5930 C   0  0  0  0  0  0  0  0  0  0  0  0
  141.8510   78.2370  220.3880 C   0  0  0  0  0  0  0  0  0  0  0  0
  141.7320   79.2460  221.4780 C   0  0  0  0  0  0  0  0  0  0  0  0
  141.7980   78.8900  222.8000 C   0  0  0  0  0  0  0  0  0  0  0  0
  141.6870   79.8230  223.7990 C   0  0  0  0  0  0  0  0  0  0  0  0
  141.5080   81.1440  223.5090 C   0  0  0  0  0  0  0  0  0  0  0  0
  141.4450   81.4790  222.1540 C   0  0  0  0  0  0  0  0  0  0  0  0
  141.5560   80.5450  221.1970 N   0  0  0  0  0  0  0  0  0  0  0  0
  141.8050   78.6920  219.0620 C   0  0  0  0  0  0  0  0  0  0  0  0
  141.9880   77.1200  218.0800 S   0  0  0  0  0  0  0  0  0  0  0  0
  140.0340   71.0550  223.7920 C   0  0  0  0  0  0  0  0  0  0  0  0
  140.6960   71.8830  224.6730 C   0  0  0  0  0  0  0  0  0  0  0  0
  140.9550   71.4190  225.9550 C   0  0  0  0  0  0  0  0  0  0  0  0
  140.5500   70.1510  226.3160 C   0  0  0  0  0  0  0  0  0  0  0  0
  140.7830   69.6300  227.5890 C   0  0  0  0  0  0  0  0  0  0  0  0
  140.3570   68.3520  227.9090 C   0  0  0  0  0  0  0  0  0  0  0  0
  140.5960   67.8640  229.1570 F   0  0  0  0  0  0  0  0  0  0  0  0
  139.7020   67.6100  226.9470 C   0  0  0  0  0  0  0  0  0  0  0  0
  139.4500   68.0820  225.6750 C   0  0  0  0  0  0  0  0  0  0  0  0
  139.8870   69.3740  225.3760 C   0  0  0  0  0  0  0  0  0  0  0  0
  139.6270   69.8060  224.1280 N   0  0  0  0  0  0  0  0  0  0  0  0
  138.9700   73.3800  223.1430 H   0  0  0  0  0  0  0  0  0  0  0  0
  138.4762   72.6606  220.3762 H   0  0  0  0  0  0  0  0  0  0  0  0
  138.2209   74.2842  221.3251 H   0  0  0  0  0  0  0  0  0  0  0  0
  141.1831   71.6456  219.8319 H   0  0  0  0  0  0  0  0  0  0  0  0
  142.0242   72.2782  218.4711 H   0  0  0  0  0  0  0  0  0  0  0  0
  142.8181   72.2778  221.4399 H   0  0  0  0  0  0  0  0  0  0  0  0
  143.9035   72.1351  220.0498 H   0  0  0  0  0  0  0  0  0  0  0  0
  143.0781   74.5765  221.5088 H   0  0  0  0  0  0  0  0  0  0  0  0
  144.3180   74.4686  220.2885 H   0  0  0  0  0  0  0  0  0  0  0  0
  142.5946   74.6612  218.4542 H   0  0  0  0  0  0  0  0  0  0  0  0
  142.0350   76.5544  221.6221 H   0  0  0  0  0  0  0  0  0  0  0  0
  141.9432   77.8325  223.0656 H   0  0  0  0  0  0  0  0  0  0  0  0
  141.7431   79.5015  224.8495 H   0  0  0  0  0  0  0  0  0  0  0  0
  141.4181   81.9041  224.2990 H   0  0  0  0  0  0  0  0  0  0  0  0
  141.3014   82.5308  221.8656 H   0  0  0  0  0  0  0  0  0  0  0  0
  141.6895   79.7220  218.6934 H   0  0  0  0  0  0  0  0  0  0  0  0
  141.0125   72.8908  224.3662 H   0  0  0  0  0  0  0  0  0  0  0  0
  141.4804   72.0589  226.6792 H   0  0  0  0  0  0  0  0  0  0  0  0
  141.3074   70.2370  228.3417 H   0  0  0  0  0  0  0  0  0  0  0  0
  139.3653   66.5954  227.2063 H   0  0  0  0  0  0  0  0  0  0  0  0
  138.9270   67.4665  224.9283 H   0  0  0  0  0  0  0  0  0  0  0  0
  1  2  2  0
  2  3  1  0
  3  4  1  0
  4  5  1  0
  5  6  2  0
  5  7  1  0
  7  8  1  0
  8  9  1  0
  9 10  1  0
 10 11  1  0
 11 12  1  0
 12 13  2  0
 13 14  1  0
 14 15  1  0
 15 16  2  0
 16 17  1  0
 17 18  2  0
 18 19  1  0
 19 20  2  0
 14 21  2  0
 21 22  1  0
  2 23  1  0
 23 24  2  0
 24 25  1  0
 25 26  2  0
 26 27  1  0
 27 28  2  0
 28 29  1  0
 28 30  1  0
 30 31  2  0
 31 32  1  0
 32 33  2  0
 11  7  1  0
 22 12  1  0
 33 23  1  0
 20 15  1  0
 32 26  1  0
  3 34  1  0
  4 35  1  0
  4 36  1  0
  8 37  1  0
  8 38  1  0
  9 39  1  0
  9 40  1  0
 10 41  1  0
 10 42  1  0
 11 43  1  6
 13 44  1  0
 16 45  1  0
 17 46  1  0
 18 47  1  0
 19 48  1  0
 21 49  1  0
 24 50  1  0
 25 51  1  0
 27 52  1  0
 30 53  1  0
 31 54  1  0
M  END
>  <smiles>  (9) 
O=C(NCC(=O)N1CCC[C@@H]1c1cc(-c2ccccn2)cs1)c1ccc2cc(F)ccc2n1

>  <score_type>  (9) 
oracle

>  <origin>  (9) 
autodockgpu

>  <m_score__min__energy>  (9) 
-9.3699999999999992

>  <m_primary>  (9) 
energy

>  <rmsd>  (9) 
3.0797179593511568

>  <m_score__min__rmsd>  (9) 
3.0797179593511568

>  <meeko>  (9) 
{"free_energy": -8.74, "intermolecular_energy": -10.53, "internal_energy": -1.59, "cluster_size": 8, "cluster_id": 1, "rank_in_cluster": 5}

>  <energy>  (9) 
-9.11

>  <cluster_rmsd>  (9) 
0.0

>  <cluster>  (9) 
2

$$$$

     RDKit          3D

 54 58  0  0  0  0  0  0  0  0999 V2000
  140.1630   77.5710  219.3070 O   0  0  0  0  0  0  0  0  0  0  0  0
  141.4090   77.4470  219.3860 C   0  0  0  0  0  0  0  0  0  0  0  0
  142.1750   78.6430  219.5350 N   0  0  0  0  0  0  0  0  0  0  0  0
  141.6730   79.9530  219.6030 C   0  0  0  0  0  0  0  0  0  0  0  0
  140.9450   80.4460  220.7640 C   0  0  0  0  0  0  0  0  0  0  0  0
  139.8240   81.0310  220.4430 O   0  0  0  0  0  0  0  0  0  0  0  0
  141.2160   80.4130  222.1260 N   0  0  0  0  0  0  0  0  0  0  0  0
  141.9380   81.3120  223.0400 C   0  0  0  0  0  0  0  0  0  0  0  0
  142.9180   80.2920  223.6240 C   0  0  0  0  0  0  0  0  0  0  0  0
  142.2050   78.9430  223.5490 C   0  0  0  0  0  0  0  0  0  0  0  0
  140.8480   79.3400  223.0860 C   0  0  2  0  0  0  0  0  0  0  0  0
  140.0400   78.2890  222.6630 C   0  0  0  0  0  0  0  0  0  0  0  0
  140.3260   76.9740  222.4420 C   0  0  0  0  0  0  0  0  0  0  0  0
  139.3790   76.1290  222.0770 C   0  0  0  0  0  0  0  0  0  0  0  0
  139.6090   74.6800  221.8160 C   0  0  0  0  0  0  0  0  0  0  0  0
  138.5960   73.8510  221.4110 C   0  0  0  0  0  0  0  0  0  0  0  0
  138.8140   72.5180  221.1740 C   0  0  0  0  0  0  0  0  0  0  0  0
  140.0530   71.9700  221.3310 C   0  0  0  0  0  0  0  0  0  0  0  0
  141.0680   72.8380  221.7440 C   0  0  0  0  0  0  0  0  0  0  0  0
  140.8260   74.1380  221.9710 N   0  0  0  0  0  0  0  0  0  0  0  0
  138.0770   76.6270  221.9260 C   0  0  0  0  0  0  0  0  0  0  0  0
  138.2730   78.4310  222.3460 S   0  0  0  0  0  0  0  0  0  0  0  0
  142.0680   76.1360  219.3310 C   0  0  0  0  0  0  0  0  0  0  0  0
  141.4150   75.1170  218.6710 C   0  0  0  0  0  0  0  0  0  0  0  0
  142.0210   73.8700  218.6070 C   0  0  0  0  0  0  0  0  0  0  0  0
  143.2510   73.6800  219.2000 C   0  0  0  0  0  0  0  0  0  0  0  0
  143.9080   72.4490  219.1690 C   0  0  0  0  0  0  0  0  0  0  0  0
  145.1450   72.3020  219.7770 C   0  0  0  0  0  0  0  0  0  0  0  0
  145.7680   71.0930  219.7350 F   0  0  0  0  0  0  0  0  0  0  0  0
  145.7060   73.3920  220.4110 C   0  0  0  0  0  0  0  0  0  0  0  0
  145.0940   74.6270  220.4680 C   0  0  0  0  0  0  0  0  0  0  0  0
  143.8500   74.7520  219.8470 C   0  0  0  0  0  0  0  0  0  0  0  0
  143.2770   75.9690  219.9200 N   0  0  0  0  0  0  0  0  0  0  0  0
  143.2220   78.4920  219.5980 H   0  0  0  0  0  0  0  0  0  0  0  0
  142.5385   80.6202  219.4774 H   0  0  0  0  0  0  0  0  0  0  0  0
  140.8894   79.9379  218.8312 H   0  0  0  0  0  0  0  0  0  0  0  0
  142.4528   82.1232  222.5043 H   0  0  0  0  0  0  0  0  0  0  0  0
  141.3181   81.8541  223.7693 H   0  0  0  0  0  0  0  0  0  0  0  0
  143.8452   80.2690  223.0326 H   0  0  0  0  0  0  0  0  0  0  0  0
  143.1997   80.5452  224.6567 H   0  0  0  0  0  0  0  0  0  0  0  0
  142.6936   78.2715  222.8276 H   0  0  0  0  0  0  0  0  0  0  0  0
  142.2063   78.3857  224.4973 H   0  0  0  0  0  0  0  0  0  0  0  0
  140.1502   79.7015  223.8557 H   0  0  0  0  0  0  0  0  0  0  0  0
  141.3573   76.6130  222.5692 H   0  0  0  0  0  0  0  0  0  0  0  0
  137.5858   74.2638  221.2729 H   0  0  0  0  0  0  0  0  0  0  0  0
  137.9768   71.8811  220.8524 H   0  0  0  0  0  0  0  0  0  0  0  0
  140.2433   70.9030  221.1429 H   0  0  0  0  0  0  0  0  0  0  0  0
  142.0863   72.4470  221.8858 H   0  0  0  0  0  0  0  0  0  0  0  0
  137.1653   76.0861  221.6322 H   0  0  0  0  0  0  0  0  0  0  0  0
  140.4337   75.2887  218.2046 H   0  0  0  0  0  0  0  0  0  0  0  0
  141.5231   73.0387  218.0865 H   0  0  0  0  0  0  0  0  0  0  0  0
  143.4424   71.5921  218.6601 H   0  0  0  0  0  0  0  0  0  0  0  0
  146.6870   73.2703  220.8934 H   0  0  0  0  0  0  0  0  0  0  0  0
  145.5664   75.4776  220.9812 H   0  0  0  0  0  0  0  0  0  0  0  0
  1  2  2  0
  2  3  1  0
  3  4  1  0
  4  5  1  0
  5  6  2  0
  5  7  1  0
  7  8  1  0
  8  9  1  0
  9 10  1  0
 10 11  1  0
 11 12  1  0
 12 13  2  0
 13 14  1  0
 14 15  1  0
 15 16  2  0
 16 17  1  0
 17 18  2  0
 18 19  1  0
 19 20  2  0
 14 21  2  0
 21 22  1  0
  2 23  1  0
 23 24  2  0
 24 25  1  0
 25 26  2  0
 26 27  1  0
 27 28  2  0
 28 29  1  0
 28 30  1  0
 30 31  2  0
 31 32  1  0
 32 33  2  0
 11  7  1  0
 22 12  1  0
 33 23  1  0
 20 15  1  0
 32 26  1  0
  3 34  1  0
  4 35  1  0
  4 36  1  0
  8 37  1  0
  8 38  1  0
  9 39  1  0
  9 40  1  0
 10 41  1  0
 10 42  1  0
 11 43  1  1
 13 44  1  0
 16 45  1  0
 17 46  1  0
 18 47  1  0
 19 48  1  0
 21 49  1  0
 24 50  1  0
 25 51  1  0
 27 52  1  0
 30 53  1  0
 31 54  1  0
M  END
>  <smiles>  (10) 
O=C(NCC(=O)N1CCC[C@@H]1c1cc(-c2ccccn2)cs1)c1ccc2cc(F)ccc2n1

>  <score_type>  (10) 
oracle

>  <origin>  (10) 
autodockgpu

>  <m_score__min__energy>  (10) 
-9.3699999999999992

>  <m_primary>  (10) 
energy

>  <rmsd>  (10) 
7.706596907948588

>  <m_score__min__rmsd>  (10) 
7.706596907948588

>  <meeko>  (10) 
{"free_energy": -7.53, "intermolecular_energy": -9.32, "internal_energy": -3.61, "cluster_size": 30, "cluster_id": 6, "rank_in_cluster": 15}

>  <energy>  (10) 
-8.88

>  <cluster_rmsd>  (10) 
0.0

>  <cluster>  (10) 
3

$$$$

     RDKit          3D

 54 58  0  0  0  0  0  0  0  0999 V2000
  139.6340   71.6290  221.0450 O   0  0  0  0  0  0  0  0  0  0  0  0
  139.6650   72.1380  222.1910 C   0  0  0  0  0  0  0  0  0  0  0  0
  139.5450   73.5580  222.2770 N   0  0  0  0  0  0  0  0  0  0  0  0
  139.3950   74.4500  221.2010 C   0  0  0  0  0  0  0  0  0  0  0  0
  140.0940   74.2660  219.9370 C   0  0  0  0  0  0  0  0  0  0  0  0
  139.3360   74.5080  218.9040 O   0  0  0  0  0  0  0  0  0  0  0  0
  141.3940   73.8850  219.6290 N   0  0  0  0  0  0  0  0  0  0  0  0
  142.0520   72.5830  219.4370 C   0  0  0  0  0  0  0  0  0  0  0  0
  143.1860   72.7580  220.4510 C   0  0  0  0  0  0  0  0  0  0  0  0
  143.4490   74.2610  220.5220 C   0  0  0  0  0  0  0  0  0  0  0  0
  142.5670   74.7770  219.4410 C   0  0  2  0  0  0  0  0  0  0  0  0
  142.3860   76.1570  219.4400 C   0  0  0  0  0  0  0  0  0  0  0  0
  142.2000   77.0370  220.4660 C   0  0  0  0  0  0  0  0  0  0  0  0
  142.0900   78.3310  220.2340 C   0  0  0  0  0  0  0  0  0  0  0  0
  141.8850   79.3550  221.2980 C   0  0  0  0  0  0  0  0  0  0  0  0
  141.9490   79.0340  222.6290 C   0  0  0  0  0  0  0  0  0  0  0  0
  141.7590   79.9800  223.6030 C   0  0  0  0  0  0  0  0  0  0  0  0
  141.5020   81.2800  223.2780 C   0  0  0  0  0  0  0  0  0  0  0  0
  141.4430   81.5800  221.9150 C   0  0  0  0  0  0  0  0  0  0  0  0
  141.6320   80.6340  220.9820 N   0  0  0  0  0  0  0  0  0  0  0  0
  142.1700   78.7700  218.9050 C   0  0  0  0  0  0  0  0  0  0  0  0
  142.4210   77.1840  217.9600 S   0  0  0  0  0  0  0  0  0  0  0  0
  139.8170   71.3230  223.4030 C   0  0  0  0  0  0  0  0  0  0  0  0
  139.4460   69.9970  223.3360 C   0  0  0  0  0  0  0  0  0  0  0  0
  139.5820   69.2110  224.4710 C   0  0  0  0  0  0  0  0  0  0  0  0
  140.0790   69.7670  225.6300 C   0  0  0  0  0  0  0  0  0  0  0  0
  140.2380   69.0260  226.8010 C   0  0  0  0  0  0  0  0  0  0  0  0
  140.7430   69.6250  227.9440 C   0  0  0  0  0  0  0  0  0  0  0  0
  140.8880   68.8830  229.0760 F   0  0  0  0  0  0  0  0  0  0  0  0
  141.0820   70.9620  227.8980 C   0  0  0  0  0  0  0  0  0  0  0  0
  140.9420   71.7350  226.7630 C   0  0  0  0  0  0  0  0  0  0  0  0
  140.4330   71.1090  225.6240 C   0  0  0  0  0  0  0  0  0  0  0  0
  140.3080   71.8890  224.5330 N   0  0  0  0  0  0  0  0  0  0  0  0
  139.5760   73.9460  223.2620 H   0  0  0  0  0  0  0  0  0  0  0  0
  138.3219   74.4617  220.9594 H   0  0  0  0  0  0  0  0  0  0  0  0
  139.8678   75.3626  221.5930 H   0  0  0  0  0  0  0  0  0  0  0  0
  141.3914   71.7417  219.6934 H   0  0  0  0  0  0  0  0  0  0  0  0
  142.3603   72.3479  218.4076 H   0  0  0  0  0  0  0  0  0  0  0  0
  142.8819   72.3749  221.4363 H   0  0  0  0  0  0  0  0  0  0  0  0
  144.0869   72.2019  220.1524 H   0  0  0  0  0  0  0  0  0  0  0  0
  143.1634   74.6715  221.5018 H   0  0  0  0  0  0  0  0  0  0  0  0
  144.5077   74.5337  220.4006 H   0  0  0  0  0  0  0  0  0  0  0  0
  142.9602   74.7238  218.4150 H   0  0  0  0  0  0  0  0  0  0  0  0
  142.1411   76.6631  221.4988 H   0  0  0  0  0  0  0  0  0  0  0  0
  142.1574   77.9945  222.9222 H   0  0  0  0  0  0  0  0  0  0  0  0
  141.8146   79.6867  224.6617 H   0  0  0  0  0  0  0  0  0  0  0  0
  141.3494   82.0505  224.0481 H   0  0  0  0  0  0  0  0  0  0  0  0
  141.2372   82.6136  221.5997 H   0  0  0  0  0  0  0  0  0  0  0  0
  142.1015   79.7968  218.5163 H   0  0  0  0  0  0  0  0  0  0  0  0
  139.0504   69.5711  222.4021 H   0  0  0  0  0  0  0  0  0  0  0  0
  139.2947   68.1495  224.4460 H   0  0  0  0  0  0  0  0  0  0  0  0
  139.9613   67.9615  226.8172 H   0  0  0  0  0  0  0  0  0  0  0  0
  141.4822   71.4334  228.8077 H   0  0  0  0  0  0  0  0  0  0  0  0
  141.2198   72.7993  226.7564 H   0  0  0  0  0  0  0  0  0  0  0  0
  1  2  2  0
  2  3  1  0
  3  4  1  0
  4  5  1  0
  5  6  2  0
  5  7  1  0
  7  8  1  0
  8  9  1  0
  9 10  1  0
 10 11  1  0
 11 12  1  0
 12 13  2  0
 13 14  1  0
 14 15  1  0
 15 16  2  0
 16 17  1  0
 17 18  2  0
 18 19  1  0
 19 20  2  0
 14 21  2  0
 21 22  1  0
  2 23  1  0
 23 24  2  0
 24 25  1  0
 25 26  2  0
 26 27  1  0
 27 28  2  0
 28 29  1  0
 28 30  1  0
 30 31  2  0
 31 32  1  0
 32 33  2  0
 11  7  1  0
 22 12  1  0
 33 23  1  0
 20 15  1  0
 32 26  1  0
  3 34  1  0
  4 35  1  0
  4 36  1  0
  8 37  1  0
  8 38  1  0
  9 39  1  0
  9 40  1  0
 10 41  1  0
 10 42  1  0
 11 43  1  6
 13 44  1  0
 16 45  1  0
 17 46  1  0
 18 47  1  0
 19 48  1  0
 21 49  1  0
 24 50  1  0
 25 51  1  0
 27 52  1  0
 30 53  1  0
 31 54  1  0
M  END
>  <smiles>  (11) 
O=C(NCC(=O)N1CCC[C@@H]1c1cc(-c2ccccn2)cs1)c1ccc2cc(F)ccc2n1

>  <score_type>  (11) 
oracle

>  <origin>  (11) 
autodockgpu

>  <m_score__min__energy>  (11) 
-9.3699999999999992

>  <m_primary>  (11) 
energy

>  <rmsd>  (11) 
2.3698884667335096

>  <m_score__min__rmsd>  (11) 
2.3698884667335096

>  <meeko>  (11) 
{"free_energy": -8.73, "intermolecular_energy": -10.52, "internal_energy": -2.01, "cluster_size": 8, "cluster_id": 1, "rank_in_cluster": 6}

>  <energy>  (11) 
-8.67

>  <cluster_rmsd>  (11) 
0.58

>  <cluster>  (11) 
3

$$$$

     RDKit          3D

 54 58  0  0  0  0  0  0  0  0999 V2000
  141.9520   78.5390  217.2780 O   0  0  0  0  0  0  0  0  0  0  0  0
  142.3770   78.0280  218.3430 C   0  0  0  0  0  0  0  0  0  0  0  0
  142.2440   78.8020  219.5350 N   0  0  0  0  0  0  0  0  0  0  0  0
  141.6820   80.0850  219.6390 C   0  0  0  0  0  0  0  0  0  0  0  0
  140.9000   80.4980  220.7960 C   0  0  0  0  0  0  0  0  0  0  0  0
  139.7150   80.9380  220.4710 O   0  0  0  0  0  0  0  0  0  0  0  0
  141.1720   80.5130  222.1580 N   0  0  0  0  0  0  0  0  0  0  0  0
  141.7760   81.5050  223.0620 C   0  0  0  0  0  0  0  0  0  0  0  0
  142.8770   80.6220  223.6550 C   0  0  0  0  0  0  0  0  0  0  0  0
  142.3390   79.1940  223.5940 C   0  0  0  0  0  0  0  0  0  0  0  0
  140.9420   79.4130  223.1290 C   0  0  2  0  0  0  0  0  0  0  0  0
  140.2720   78.2640  222.7180 C   0  0  0  0  0  0  0  0  0  0  0  0
  140.7440   77.0550  222.2980 C   0  0  0  0  0  0  0  0  0  0  0  0
  139.9140   76.0760  221.9900 C   0  0  0  0  0  0  0  0  0  0  0  0
  140.3480   74.7290  221.5240 C   0  0  0  0  0  0  0  0  0  0  0  0
  140.8160   74.5220  220.2530 C   0  0  0  0  0  0  0  0  0  0  0  0
  141.2140   73.2810  219.8300 C   0  0  0  0  0  0  0  0  0  0  0  0
  141.1600   72.2030  220.6650 C   0  0  0  0  0  0  0  0  0  0  0  0
  140.6790   72.4420  221.9560 C   0  0  0  0  0  0  0  0  0  0  0  0
  140.2960   73.6680  222.3430 N   0  0  0  0  0  0  0  0  0  0  0  0
  138.5380   76.3190  222.1100 C   0  0  0  0  0  0  0  0  0  0  0  0
  138.4800   78.0830  222.7070 S   0  0  0  0  0  0  0  0  0  0  0  0
  142.9870   76.6930  218.3780 C   0  0  0  0  0  0  0  0  0  0  0  0
  143.0010   75.9620  217.2090 C   0  0  0  0  0  0  0  0  0  0  0  0
  143.5730   74.6980  217.2230 C   0  0  0  0  0  0  0  0  0  0  0  0
  144.1090   74.2040  218.3940 C   0  0  0  0  0  0  0  0  0  0  0  0
  144.6960   72.9410  218.4680 C   0  0  0  0  0  0  0  0  0  0  0  0
  145.2230   72.4850  219.6650 C   0  0  0  0  0  0  0  0  0  0  0  0
  145.7910   71.2490  219.7150 F   0  0  0  0  0  0  0  0  0  0  0  0
  145.1540   73.3020  220.7750 C   0  0  0  0  0  0  0  0  0  0  0  0
  144.5820   74.5580  220.7500 C   0  0  0  0  0  0  0  0  0  0  0  0
  144.0590   74.9970  219.5330 C   0  0  0  0  0  0  0  0  0  0  0  0
  143.5080   76.2260  219.5390 N   0  0  0  0  0  0  0  0  0  0  0  0
  142.6150   78.3330  220.4100 H   0  0  0  0  0  0  0  0  0  0  0  0
  142.5199   80.7940  219.5659 H   0  0  0  0  0  0  0  0  0  0  0  0
  140.9222   80.0672  218.8438 H   0  0  0  0  0  0  0  0  0  0  0  0
  142.1846   82.3689  222.5173 H   0  0  0  0  0  0  0  0  0  0  0  0
  141.0931   81.9722  223.7868 H   0  0  0  0  0  0  0  0  0  0  0  0
  143.7998   80.7099  223.0627 H   0  0  0  0  0  0  0  0  0  0  0  0
  143.1250   80.9188  224.6847 H   0  0  0  0  0  0  0  0  0  0  0  0
  142.9078   78.5822  222.8783 H   0  0  0  0  0  0  0  0  0  0  0  0
  142.4104   78.6505  224.5477 H   0  0  0  0  0  0  0  0  0  0  0  0
  140.2046   79.6923  223.8960 H   0  0  0  0  0  0  0  0  0  0  0  0
  141.8290   76.8941  222.2150 H   0  0  0  0  0  0  0  0  0  0  0  0
  140.8735   75.3714  219.5564 H   0  0  0  0  0  0  0  0  0  0  0  0
  141.5827   73.1517  218.8017 H   0  0  0  0  0  0  0  0  0  0  0  0
  141.4774   71.2011  220.3403 H   0  0  0  0  0  0  0  0  0  0  0  0
  140.6133   71.6072  222.6692 H   0  0  0  0  0  0  0  0  0  0  0  0
  137.7002   75.6369  221.9029 H   0  0  0  0  0  0  0  0  0  0  0  0
  142.5679   76.3722  216.2848 H   0  0  0  0  0  0  0  0  0  0  0  0
  143.5989   74.0928  216.3048 H   0  0  0  0  0  0  0  0  0  0  0  0
  144.7406   72.3044  217.5720 H   0  0  0  0  0  0  0  0  0  0  0  0
  145.5741   72.9355  221.7232 H   0  0  0  0  0  0  0  0  0  0  0  0
  144.5402   75.1866  221.6517 H   0  0  0  0  0  0  0  0  0  0  0  0
  1  2  2  0
  2  3  1  0
  3  4  1  0
  4  5  1  0
  5  6  2  0
  5  7  1  0
  7  8  1  0
  8  9  1  0
  9 10  1  0
 10 11  1  0
 11 12  1  0
 12 13  2  0
 13 14  1  0
 14 15  1  0
 15 16  2  0
 16 17  1  0
 17 18  2  0
 18 19  1  0
 19 20  2  0
 14 21  2  0
 21 22  1  0
  2 23  1  0
 23 24  2  0
 24 25  1  0
 25 26  2  0
 26 27  1  0
 27 28  2  0
 28 29  1  0
 28 30  1  0
 30 31  2  0
 31 32  1  0
 32 33  2  0
 11  7  1  0
 22 12  1  0
 33 23  1  0
 20 15  1  0
 32 26  1  0
  3 34  1  0
  4 35  1  0
  4 36  1  0
  8 37  1  0
  8 38  1  0
  9 39  1  0
  9 40  1  0
 10 41  1  0
 10 42  1  0
 11 43  1  1
 13 44  1  0
 16 45  1  0
 17 46  1  0
 18 47  1  0
 19 48  1  0
 21 49  1  0
 24 50  1  0
 25 51  1  0
 27 52  1  0
 30 53  1  0
 31 54  1  0
M  END
>  <smiles>  (12) 
O=C(NCC(=O)N1CCC[C@@H]1c1cc(-c2ccccn2)cs1)c1ccc2cc(F)ccc2n1

>  <score_type>  (12) 
oracle

>  <origin>  (12) 
autodockgpu

>  <m_score__min__energy>  (12) 
-9.3699999999999992

>  <m_primary>  (12) 
energy

>  <rmsd>  (12) 
8.018927934534508

>  <m_score__min__rmsd>  (12) 
8.018927934534508

>  <meeko>  (12) 
{"free_energy": -7.96, "intermolecular_energy": -9.75, "internal_energy": -3.29, "cluster_size": 30, "cluster_id": 6, "rank_in_cluster": 4}

>  <energy>  (12) 
-8.41

>  <cluster_rmsd>  (12) 
0.0

>  <cluster>  (12) 
4

$$$$

     RDKit          3D

 54 58  0  0  0  0  0  0  0  0999 V2000
  142.4570   77.1810  217.5840 O   0  0  0  0  0  0  0  0  0  0  0  0
  142.5240   77.7810  218.6840 C   0  0  0  0  0  0  0  0  0  0  0  0
  142.9370   77.0180  219.8180 N   0  0  0  0  0  0  0  0  0  0  0  0
  143.2810   75.6560  219.8280 C   0  0  0  0  0  0  0  0  0  0  0  0
  142.2850   74.6040  219.6760 C   0  0  0  0  0  0  0  0  0  0  0  0
  141.8200   74.5250  218.4600 O   0  0  0  0  0  0  0  0  0  0  0  0
  141.7450   73.6860  220.5670 N   0  0  0  0  0  0  0  0  0  0  0  0
  141.9080   72.2350  220.7530 C   0  0  0  0  0  0  0  0  0  0  0  0
  140.4320   71.8360  220.6740 C   0  0  0  0  0  0  0  0  0  0  0  0
  139.6480   73.0500  221.1680 C   0  0  0  0  0  0  0  0  0  0  0  0
  140.7380   73.9530  221.6270 C   0  0  2  0  0  0  0  0  0  0  0  0
  140.3470   75.2630  221.8860 C   0  0  0  0  0  0  0  0  0  0  0  0
  141.0770   76.3660  222.2200 C   0  0  0  0  0  0  0  0  0  0  0  0
  140.4930   77.5380  222.3820 C   0  0  0  0  0  0  0  0  0  0  0  0
  141.2190   78.7880  222.7460 C   0  0  0  0  0  0  0  0  0  0  0  0
  140.6460   79.7500  223.5360 C   0  0  0  0  0  0  0  0  0  0  0  0
  141.3180   80.8980  223.8680 C   0  0  0  0  0  0  0  0  0  0  0  0
  142.5880   81.1220  223.4210 C   0  0  0  0  0  0  0  0  0  0  0  0
  143.1480   80.1250  222.6180 C   0  0  0  0  0  0  0  0  0  0  0  0
  142.4670   79.0110  222.3080 N   0  0  0  0  0  0  0  0  0  0  0  0
  139.1050   77.6120  222.2000 C   0  0  0  0  0  0  0  0  0  0  0  0
  138.6510   75.8580  221.7680 S   0  0  0  0  0  0  0  0  0  0  0  0
  142.1940   79.2060  218.8170 C   0  0  0  0  0  0  0  0  0  0  0  0
  142.8440   80.0950  217.9880 C   0  0  0  0  0  0  0  0  0  0  0  0
  142.5460   81.4460  218.0990 C   0  0  0  0  0  0  0  0  0  0  0  0
  141.6160   81.8650  219.0270 C   0  0  0  0  0  0  0  0  0  0  0  0
  141.2770   83.2090  219.1830 C   0  0  0  0  0  0  0  0  0  0  0  0
  140.3360   83.5860  220.1280 C   0  0  0  0  0  0  0  0  0  0  0  0
  140.0200   84.9030  220.2640 F   0  0  0  0  0  0  0  0  0  0  0  0
  139.7480   82.6100  220.9060 C   0  0  0  0  0  0  0  0  0  0  0  0
  140.0520   81.2690  220.7870 C   0  0  0  0  0  0  0  0  0  0  0  0
  141.0020   80.9120  219.8280 C   0  0  0  0  0  0  0  0  0  0  0  0
  141.2780   79.5980  219.7360 N   0  0  0  0  0  0  0  0  0  0  0  0
  142.9800   77.5630  220.7250 H   0  0  0  0  0  0  0  0  0  0  0  0
  144.0034   75.5156  219.0104 H   0  0  0  0  0  0  0  0  0  0  0  0
  143.6116   75.5105  220.8670 H   0  0  0  0  0  0  0  0  0  0  0  0
  142.5056   71.7777  219.9507 H   0  0  0  0  0  0  0  0  0  0  0  0
  142.4414   71.9245  221.6635 H   0  0  0  0  0  0  0  0  0  0  0  0
  140.1546   71.5965  219.6369 H   0  0  0  0  0  0  0  0  0  0  0  0
  140.2203   70.9424  221.2796 H   0  0  0  0  0  0  0  0  0  0  0  0
  139.0650   73.5076  220.3552 H   0  0  0  0  0  0  0  0  0  0  0  0
  138.9082   72.8144  221.9472 H   0  0  0  0  0  0  0  0  0  0  0  0
  141.1425   73.7664  222.6328 H   0  0  0  0  0  0  0  0  0  0  0  0
  142.1650   76.2773  222.3558 H   0  0  0  0  0  0  0  0  0  0  0  0
  139.6237   79.5977  223.9123 H   0  0  0  0  0  0  0  0  0  0  0  0
  140.8266   81.6493  224.5037 H   0  0  0  0  0  0  0  0  0  0  0  0
  143.1406   82.0375  223.6789 H   0  0  0  0  0  0  0  0  0  0  0  0
  144.1695   80.2561  222.2315 H   0  0  0  0  0  0  0  0  0  0  0  0
  138.4469   78.4888  222.2900 H   0  0  0  0  0  0  0  0  0  0  0  0
  143.5831   79.7412  217.2541 H   0  0  0  0  0  0  0  0  0  0  0  0
  143.0489   82.1784  217.4504 H   0  0  0  0  0  0  0  0  0  0  0  0
  141.7582   83.9723  218.5538 H   0  0  0  0  0  0  0  0  0  0  0  0
  139.0027   82.9146  221.6555 H   0  0  0  0  0  0  0  0  0  0  0  0
  139.5661   80.5129  221.4213 H   0  0  0  0  0  0  0  0  0  0  0  0
  1  2  2  0
  2  3  1  0
  3  4  1  0
  4  5  1  0
  5  6  2  0
  5  7  1  0
  7  8  1  0
  8  9  1  0
  9 10  1  0
 10 11  1  0
 11 12  1  0
 12 13  2  0
 13 14  1  0
 14 15  1  0
 15 16  2  0
 16 17  1  0
 17 18  2  0
 18 19  1  0
 19 20  2  0
 14 21  2  0
 21 22  1  0
  2 23  1  0
 23 24  2  0
 24 25  1  0
 25 26  2  0
 26 27  1  0
 27 28  2  0
 28 29  1  0
 28 30  1  0
 30 31  2  0
 31 32  1  0
 32 33  2  0
 11  7  1  0
 22 12  1  0
 33 23  1  0
 20 15  1  0
 32 26  1  0
  3 34  1  0
  4 35  1  0
  4 36  1  0
  8 37  1  0
  8 38  1  0
  9 39  1  0
  9 40  1  0
 10 41  1  0
 10 42  1  0
 11 43  1  1
 13 44  1  0
 16 45  1  0
 17 46  1  0
 18 47  1  0
 19 48  1  0
 21 49  1  0
 24 50  1  0
 25 51  1  0
 27 52  1  0
 30 53  1  0
 31 54  1  0
M  END
>  <smiles>  (13) 
O=C(NCC(=O)N1CCC[C@@H]1c1cc(-c2ccccn2)cs1)c1ccc2cc(F)ccc2n1

>  <score_type>  (13) 
oracle

>  <origin>  (13) 
autodockgpu

>  <m_score__min__energy>  (13) 
-9.3699999999999992

>  <m_primary>  (13) 
energy

>  <rmsd>  (13) 
9.62552828547422

>  <m_score__min__rmsd>  (13) 
9.62552828547422

>  <meeko>  (13) 
{"free_energy": -6.93, "intermolecular_energy": -8.72, "internal_energy": -3.76, "cluster_size": 5, "cluster_id": 7, "rank_in_cluster": 3}

>  <energy>  (13) 
-8.29

>  <cluster_rmsd>  (13) 
0.0

>  <cluster>  (13) 
5

$$$$

     RDKit          3D

 54 58  0  0  0  0  0  0  0  0999 V2000
  139.2920   71.1870  221.2170 O   0  0  0  0  0  0  0  0  0  0  0  0
  139.5480   71.6580  222.3510 C   0  0  0  0  0  0  0  0  0  0  0  0
  139.7240   73.0720  222.4460 N   0  0  0  0  0  0  0  0  0  0  0  0
  139.6370   73.9960  221.3910 C   0  0  0  0  0  0  0  0  0  0  0  0
  140.2270   73.7390  220.0850 C   0  0  0  0  0  0  0  0  0  0  0  0
  139.3610   73.8420  219.1140 O   0  0  0  0  0  0  0  0  0  0  0  0
  141.5150   73.4090  219.6830 N   0  0  0  0  0  0  0  0  0  0  0  0
  142.2060   72.1330  219.4360 C   0  0  0  0  0  0  0  0  0  0  0  0
  143.4010   72.3450  220.3700 C   0  0  0  0  0  0  0  0  0  0  0  0
  143.6130   73.8570  220.4330 C   0  0  0  0  0  0  0  0  0  0  0  0
  142.6380   74.3450  219.4200 C   0  0  2  0  0  0  0  0  0  0  0  0
  142.4060   75.7170  219.4410 C   0  0  0  0  0  0  0  0  0  0  0  0
  142.2190   76.5770  220.4830 C   0  0  0  0  0  0  0  0  0  0  0  0
  142.0540   77.8700  220.2710 C   0  0  0  0  0  0  0  0  0  0  0  0
  141.8430   78.8730  221.3530 C   0  0  0  0  0  0  0  0  0  0  0  0
  141.4750   78.5010  222.6190 C   0  0  0  0  0  0  0  0  0  0  0  0
  141.2820   79.4280  223.6100 C   0  0  0  0  0  0  0  0  0  0  0  0
  141.4530   80.7600  223.3680 C   0  0  0  0  0  0  0  0  0  0  0  0
  141.8290   81.1120  222.0690 C   0  0  0  0  0  0  0  0  0  0  0  0
  142.0110   80.1830  221.1180 N   0  0  0  0  0  0  0  0  0  0  0  0
  142.0800   78.3270  218.9450 C   0  0  0  0  0  0  0  0  0  0  0  0
  142.3610   76.7620  217.9740 S   0  0  0  0  0  0  0  0  0  0  0  0
  139.6660   70.8060  223.5420 C   0  0  0  0  0  0  0  0  0  0  0  0
  139.1850   69.5160  223.4590 C   0  0  0  0  0  0  0  0  0  0  0  0
  139.2880   68.6960  224.5730 C   0  0  0  0  0  0  0  0  0  0  0  0
  139.8620   69.1830  225.7280 C   0  0  0  0  0  0  0  0  0  0  0  0
  139.9910   68.4050  226.8790 C   0  0  0  0  0  0  0  0  0  0  0  0
  140.5760   68.9350  228.0180 C   0  0  0  0  0  0  0  0  0  0  0  0
  140.6910   68.1580  229.1290 F   0  0  0  0  0  0  0  0  0  0  0  0
  141.0230   70.2400  227.9890 C   0  0  0  0  0  0  0  0  0  0  0  0
  140.9150   71.0480  226.8750 C   0  0  0  0  0  0  0  0  0  0  0  0
  140.3240   70.4920  225.7380 C   0  0  0  0  0  0  0  0  0  0  0  0
  140.2340   71.3040  224.6680 N   0  0  0  0  0  0  0  0  0  0  0  0
  139.9380   73.4260  223.4200 H   0  0  0  0  0  0  0  0  0  0  0  0
  138.5638   74.1620  221.2159 H   0  0  0  0  0  0  0  0  0  0  0  0
  140.2552   74.8266  221.7623 H   0  0  0  0  0  0  0  0  0  0  0  0
  141.5964   71.2664  219.7315 H   0  0  0  0  0  0  0  0  0  0  0  0
  142.4502   71.9147  218.3859 H   0  0  0  0  0  0  0  0  0  0  0  0
  143.1807   71.9465  221.3713 H   0  0  0  0  0  0  0  0  0  0  0  0
  144.2986   71.8239  220.0057 H   0  0  0  0  0  0  0  0  0  0  0  0
  143.3825   74.2522  221.4333 H   0  0  0  0  0  0  0  0  0  0  0  0
  144.6498   74.1694  220.2393 H   0  0  0  0  0  0  0  0  0  0  0  0
  142.9603   74.3115  218.3688 H   0  0  0  0  0  0  0  0  0  0  0  0
  142.2054   76.1890  221.5122 H   0  0  0  0  0  0  0  0  0  0  0  0
  141.3312   77.4342  222.8454 H   0  0  0  0  0  0  0  0  0  0  0  0
  140.9850   79.0934  224.6149 H   0  0  0  0  0  0  0  0  0  0  0  0
  141.3030   81.5158  224.1530 H   0  0  0  0  0  0  0  0  0  0  0  0
  141.9789   82.1731  221.8208 H   0  0  0  0  0  0  0  0  0  0  0  0
  141.9634   79.3549  218.5711 H   0  0  0  0  0  0  0  0  0  0  0  0
  138.7293   69.1453  222.5290 H   0  0  0  0  0  0  0  0  0  0  0  0
  138.9136   67.6624  224.5351 H   0  0  0  0  0  0  0  0  0  0  0  0
  139.6270   67.3670  226.8823 H   0  0  0  0  0  0  0  0  0  0  0  0
  141.4869   70.6558  228.8956 H   0  0  0  0  0  0  0  0  0  0  0  0
  141.2790   72.0860  226.8824 H   0  0  0  0  0  0  0  0  0  0  0  0
  1  2  2  0
  2  3  1  0
  3  4  1  0
  4  5  1  0
  5  6  2  0
  5  7  1  0
  7  8  1  0
  8  9  1  0
  9 10  1  0
 10 11  1  0
 11 12  1  0
 12 13  2  0
 13 14  1  0
 14 15  1  0
 15 16  2  0
 16 17  1  0
 17 18  2  0
 18 19  1  0
 19 20  2  0
 14 21  2  0
 21 22  1  0
  2 23  1  0
 23 24  2  0
 24 25  1  0
 25 26  2  0
 26 27  1  0
 27 28  2  0
 28 29  1  0
 28 30  1  0
 30 31  2  0
 31 32  1  0
 32 33  2  0
 11  7  1  0
 22 12  1  0
 33 23  1  0
 20 15  1  0
 32 26  1  0
  3 34  1  0
  4 35  1  0
  4 36  1  0
  8 37  1  0
  8 38  1  0
  9 39  1  0
  9 40  1  0
 10 41  1  0
 10 42  1  0
 11 43  1  6
 13 44  1  0
 16 45  1  0
 17 46  1  0
 18 47  1  0
 19 48  1  0
 21 49  1  0
 24 50  1  0
 25 51  1  0
 27 52  1  0
 30 53  1  0
 31 54  1  0
M  END
>  <smiles>  (14) 
O=C(NCC(=O)N1CCC[C@@H]1c1cc(-c2ccccn2)cs1)c1ccc2cc(F)ccc2n1

>  <score_type>  (14) 
oracle

>  <origin>  (14) 
autodockgpu

>  <m_score__min__energy>  (14) 
-9.3699999999999992

>  <m_primary>  (14) 
energy

>  <rmsd>  (14) 
2.3643529844779883

>  <m_score__min__rmsd>  (14) 
2.3643529844779883

>  <meeko>  (14) 
{"free_energy": -8.57, "intermolecular_energy": -10.36, "internal_energy": -2.0, "cluster_size": 8, "cluster_id": 1, "rank_in_cluster": 7}

>  <energy>  (14) 
-8.04

>  <cluster_rmsd>  (14) 
0.0

>  <cluster>  (14) 
6

$$$$

     RDKit          3D

 54 58  0  0  0  0  0  0  0  0999 V2000
  140.3220   77.8600  219.2790 O   0  0  0  0  0  0  0  0  0  0  0  0
  141.5750   77.8950  219.2260 C   0  0  0  0  0  0  0  0  0  0  0  0
  142.2010   79.1620  219.4240 N   0  0  0  0  0  0  0  0  0  0  0  0
  141.5530   80.3830  219.6750 C   0  0  0  0  0  0  0  0  0  0  0  0
  140.7950   80.6220  220.8950 C   0  0  0  0  0  0  0  0  0  0  0  0
  139.5770   81.0260  220.6570 O   0  0  0  0  0  0  0  0  0  0  0  0
  141.1170   80.5060  222.2410 N   0  0  0  0  0  0  0  0  0  0  0  0
  141.7550   81.4070  223.2130 C   0  0  0  0  0  0  0  0  0  0  0  0
  142.8760   80.4730  223.6770 C   0  0  0  0  0  0  0  0  0  0  0  0
  142.3350   79.0560  223.4970 C   0  0  0  0  0  0  0  0  0  0  0  0
  140.9220   79.3160  223.1080 C   0  0  2  0  0  0  0  0  0  0  0  0
  140.2370   78.2110  222.6120 C   0  0  0  0  0  0  0  0  0  0  0  0
  140.6790   76.9740  222.2460 C   0  0  0  0  0  0  0  0  0  0  0  0
  139.8320   76.0480  221.8340 C   0  0  0  0  0  0  0  0  0  0  0  0
  140.2350   74.6750  221.4170 C   0  0  0  0  0  0  0  0  0  0  0  0
  140.2530   74.2980  220.1000 C   0  0  0  0  0  0  0  0  0  0  0  0
  140.6240   73.0330  219.7230 C   0  0  0  0  0  0  0  0  0  0  0  0
  140.9910   72.1030  220.6510 C   0  0  0  0  0  0  0  0  0  0  0  0
  140.9640   72.5140  221.9860 C   0  0  0  0  0  0  0  0  0  0  0  0
  140.5960   73.7580  222.3270 N   0  0  0  0  0  0  0  0  0  0  0  0
  138.4700   76.3780  221.7870 C   0  0  0  0  0  0  0  0  0  0  0  0
  138.4510   78.1430  222.3820 S   0  0  0  0  0  0  0  0  0  0  0  0
  142.3780   76.6920  218.9720 C   0  0  0  0  0  0  0  0  0  0  0  0
  142.5200   76.2790  217.6640 C   0  0  0  0  0  0  0  0  0  0  0  0
  143.2760   75.1440  217.4040 C   0  0  0  0  0  0  0  0  0  0  0  0
  143.8620   74.4610  218.4480 C   0  0  0  0  0  0  0  0  0  0  0  0
  144.6310   73.3150  218.2480 C   0  0  0  0  0  0  0  0  0  0  0  0
  145.2030   72.6590  219.3270 C   0  0  0  0  0  0  0  0  0  0  0  0
  145.9490   71.5430  219.1080 F   0  0  0  0  0  0  0  0  0  0  0  0
  144.9940   73.1620  220.5950 C   0  0  0  0  0  0  0  0  0  0  0  0
  144.2400   74.2910  220.8420 C   0  0  0  0  0  0  0  0  0  0  0  0
  143.6750   74.9350  219.7400 C   0  0  0  0  0  0  0  0  0  0  0  0
  142.9460   76.0340  220.0120 N   0  0  0  0  0  0  0  0  0  0  0  0
  143.2590   79.1460  219.3710 H   0  0  0  0  0  0  0  0  0  0  0  0
  142.3335   81.1574  219.6418 H   0  0  0  0  0  0  0  0  0  0  0  0
  140.7624   80.3842  218.9102 H   0  0  0  0  0  0  0  0  0  0  0  0
  142.1445   82.3203  222.7395 H   0  0  0  0  0  0  0  0  0  0  0  0
  141.1001   81.8008  224.0042 H   0  0  0  0  0  0  0  0  0  0  0  0
  143.7767   80.6204  223.0630 H   0  0  0  0  0  0  0  0  0  0  0  0
  143.1613   80.6689  224.7211 H   0  0  0  0  0  0  0  0  0  0  0  0
  142.8761   78.5185  222.7043 H   0  0  0  0  0  0  0  0  0  0  0  0
  142.4416   78.4220  224.3896 H   0  0  0  0  0  0  0  0  0  0  0  0
  140.2138   79.5177  223.9252 H   0  0  0  0  0  0  0  0  0  0  0  0
  141.7537   76.7446  222.2945 H   0  0  0  0  0  0  0  0  0  0  0  0
  139.9635   75.0262  219.3280 H   0  0  0  0  0  0  0  0  0  0  0  0
  140.6257   72.7641  218.6564 H   0  0  0  0  0  0  0  0  0  0  0  0
  141.2919   71.0847  220.3638 H   0  0  0  0  0  0  0  0  0  0  0  0
  141.2506   71.8023  222.7742 H   0  0  0  0  0  0  0  0  0  0  0  0
  137.6223   75.7499  221.4757 H   0  0  0  0  0  0  0  0  0  0  0  0
  142.0444   76.8370  216.8440 H   0  0  0  0  0  0  0  0  0  0  0  0
  143.4067   74.7916  216.3702 H   0  0  0  0  0  0  0  0  0  0  0  0
  144.7844   72.9297  217.2292 H   0  0  0  0  0  0  0  0  0  0  0  0
  145.4497   72.6386  221.4485 H   0  0  0  0  0  0  0  0  0  0  0  0
  144.0905   74.6677  221.8646 H   0  0  0  0  0  0  0  0  0  0  0  0
  1  2  2  0
  2  3  1  0
  3  4  1  0
  4  5  1  0
  5  6  2  0
  5  7  1  0
  7  8  1  0
  8  9  1  0
  9 10  1  0
 10 11  1  0
 11 12  1  0
 12 13  2  0
 13 14  1  0
 14 15  1  0
 15 16  2  0
 16 17  1  0
 17 18  2  0
 18 19  1  0
 19 20  2  0
 14 21  2  0
 21 22  1  0
  2 23  1  0
 23 24  2  0
 24 25  1  0
 25 26  2  0
 26 27  1  0
 27 28  2  0
 28 29  1  0
 28 30  1  0
 30 31  2  0
 31 32  1  0
 32 33  2  0
 11  7  1  0
 22 12  1  0
 33 23  1  0
 20 15  1  0
 32 26  1  0
  3 34  1  0
  4 35  1  0
  4 36  1  0
  8 37  1  0
  8 38  1  0
  9 39  1  0
  9 40  1  0
 10 41  1  0
 10 42  1  0
 11 43  1  1
 13 44  1  0
 16 45  1  0
 17 46  1  0
 18 47  1  0
 19 48  1  0
 21 49  1  0
 24 50  1  0
 25 51  1  0
 27 52  1  0
 30 53  1  0
 31 54  1  0
M  END
>  <smiles>  (15) 
O=C(NCC(=O)N1CCC[C@@H]1c1cc(-c2ccccn2)cs1)c1ccc2cc(F)ccc2n1

>  <score_type>  (15) 
oracle

>  <origin>  (15) 
autodockgpu

>  <m_score__min__energy>  (15) 
-9.3699999999999992

>  <m_primary>  (15) 
energy

>  <rmsd>  (15) 
8.0428804068532

>  <m_score__min__rmsd>  (15) 
8.0428804068532

>  <meeko>  (15) 
{"free_energy": -7.48, "intermolecular_energy": -9.27, "internal_energy": -3.56, "cluster_size": 30, "cluster_id": 6, "rank_in_cluster": 18}

>  <energy>  (15) 
-7.97

>  <cluster_rmsd>  (15) 
0.98

>  <cluster>  (15) 
6

$$$$

     RDKit          3D

 54 58  0  0  0  0  0  0  0  0999 V2000
  140.5000   76.8350  218.3740 O   0  0  0  0  0  0  0  0  0  0  0  0
  141.6230   76.8340  218.9330 C   0  0  0  0  0  0  0  0  0  0  0  0
  142.0070   78.0190  219.6300 N   0  0  0  0  0  0  0  0  0  0  0  0
  141.2500   79.1950  219.7560 C   0  0  0  0  0  0  0  0  0  0  0  0
  141.6180   80.2590  220.6800 C   0  0  0  0  0  0  0  0  0  0  0  0
  142.0790   81.3170  220.0700 O   0  0  0  0  0  0  0  0  0  0  0  0
  141.5740   80.3590  222.0640 N   0  0  0  0  0  0  0  0  0  0  0  0
  142.0970   81.3400  223.0290 C   0  0  0  0  0  0  0  0  0  0  0  0
  142.8920   80.3750  223.9140 C   0  0  0  0  0  0  0  0  0  0  0  0
  142.1760   79.0300  223.8060 C   0  0  0  0  0  0  0  0  0  0  0  0
  140.9690   79.3890  223.0120 C   0  0  2  0  0  0  0  0  0  0  0  0
  140.2480   78.3060  222.5190 C   0  0  0  0  0  0  0  0  0  0  0  0
  140.6410   77.0400  222.1980 C   0  0  0  0  0  0  0  0  0  0  0  0
  139.7650   76.1460  221.7780 C   0  0  0  0  0  0  0  0  0  0  0  0
  140.1140   74.7450  221.4080 C   0  0  0  0  0  0  0  0  0  0  0  0
  139.8130   74.2290  220.1750 C   0  0  0  0  0  0  0  0  0  0  0  0
  140.1360   72.9400  219.8400 C   0  0  0  0  0  0  0  0  0  0  0  0
  140.7730   72.1220  220.7280 C   0  0  0  0  0  0  0  0  0  0  0  0
  141.0680   72.6740  221.9780 C   0  0  0  0  0  0  0  0  0  0  0  0
  140.7390   73.9390  222.2790 N   0  0  0  0  0  0  0  0  0  0  0  0
  138.4230   76.5390  221.6750 C   0  0  0  0  0  0  0  0  0  0  0  0
  138.4700   78.3180  222.2270 S   0  0  0  0  0  0  0  0  0  0  0  0
  142.5170   75.6700  218.8820 C   0  0  0  0  0  0  0  0  0  0  0  0
  142.4160   74.8290  217.7940 C   0  0  0  0  0  0  0  0  0  0  0  0
  143.2520   73.7240  217.7280 C   0  0  0  0  0  0  0  0  0  0  0  0
  144.1580   73.4930  218.7420 C   0  0  0  0  0  0  0  0  0  0  0  0
  145.0230   72.3980  218.7300 C   0  0  0  0  0  0  0  0  0  0  0  0
  145.9180   72.2040  219.7690 C   0  0  0  0  0  0  0  0  0  0  0  0
  146.7530   71.1300  219.7370 F   0  0  0  0  0  0  0  0  0  0  0  0
  145.9330   73.1110  220.8100 C   0  0  0  0  0  0  0  0  0  0  0  0
  145.0960   74.2070  220.8660 C   0  0  0  0  0  0  0  0  0  0  0  0
  144.2040   74.3820  219.8060 C   0  0  0  0  0  0  0  0  0  0  0  0
  143.4000   75.4590  219.8890 N   0  0  0  0  0  0  0  0  0  0  0  0
  142.9610   77.9740  220.0860 H   0  0  0  0  0  0  0  0  0  0  0  0
  141.2242   79.6522  218.7558 H   0  0  0  0  0  0  0  0  0  0  0  0
  140.3158   78.8197  220.1993 H   0  0  0  0  0  0  0  0  0  0  0  0
  142.7417   82.0914  222.5498 H   0  0  0  0  0  0  0  0  0  0  0  0
  141.3446   81.9553  223.5442 H   0  0  0  0  0  0  0  0  0  0  0  0
  143.9275   80.2883  223.5531 H   0  0  0  0  0  0  0  0  0  0  0  0
  142.9414   80.7262  224.9553 H   0  0  0  0  0  0  0  0  0  0  0  0
  142.7949   78.2881  223.2802 H   0  0  0  0  0  0  0  0  0  0  0  0
  141.9480   78.5680  224.7779 H   0  0  0  0  0  0  0  0  0  0  0  0
  140.1265   79.8300  223.5648 H   0  0  0  0  0  0  0  0  0  0  0  0
  141.7009   76.7604  222.2902 H   0  0  0  0  0  0  0  0  0  0  0  0
  139.3004   74.8638  219.4372 H   0  0  0  0  0  0  0  0  0  0  0  0
  139.8782   72.5589  218.8408 H   0  0  0  0  0  0  0  0  0  0  0  0
  141.0395   71.0855  220.4739 H   0  0  0  0  0  0  0  0  0  0  0  0
  141.5810   72.0576  222.7310 H   0  0  0  0  0  0  0  0  0  0  0  0
  137.5569   75.9443  221.3490 H   0  0  0  0  0  0  0  0  0  0  0  0
  141.6875   75.0302  216.9948 H   0  0  0  0  0  0  0  0  0  0  0  0
  143.1927   73.0359  216.8718 H   0  0  0  0  0  0  0  0  0  0  0  0
  144.9939   71.6861  217.8920 H   0  0  0  0  0  0  0  0  0  0  0  0
  146.6453   72.9527  221.6331 H   0  0  0  0  0  0  0  0  0  0  0  0
  145.1301   74.9123  221.7094 H   0  0  0  0  0  0  0  0  0  0  0  0
  1  2  2  0
  2  3  1  0
  3  4  1  0
  4  5  1  0
  5  6  2  0
  5  7  1  0
  7  8  1  0
  8  9  1  0
  9 10  1  0
 10 11  1  0
 11 12  1  0
 12 13  2  0
 13 14  1  0
 14 15  1  0
 15 16  2  0
 16 17  1  0
 17 18  2  0
 18 19  1  0
 19 20  2  0
 14 21  2  0
 21 22  1  0
  2 23  1  0
 23 24  2  0
 24 25  1  0
 25 26  2  0
 26 27  1  0
 27 28  2  0
 28 29  1  0
 28 30  1  0
 30 31  2  0
 31 32  1  0
 32 33  2  0
 11  7  1  0
 22 12  1  0
 33 23  1  0
 20 15  1  0
 32 26  1  0
  3 34  1  0
  4 35  1  0
  4 36  1  0
  8 37  1  0
  8 38  1  0
  9 39  1  0
  9 40  1  0
 10 41  1  0
 10 42  1  0
 11 43  1  1
 13 44  1  0
 16 45  1  0
 17 46  1  0
 18 47  1  0
 19 48  1  0
 21 49  1  0
 24 50  1  0
 25 51  1  0
 27 52  1  0
 30 53  1  0
 31 54  1  0
M  END
>  <smiles>  (16) 
O=C(NCC(=O)N1CCC[C@@H]1c1cc(-c2ccccn2)cs1)c1ccc2cc(F)ccc2n1

>  <score_type>  (16) 
oracle

>  <origin>  (16) 
autodockgpu

>  <m_score__min__energy>  (16) 
-9.3699999999999992

>  <m_primary>  (16) 
energy

>  <rmsd>  (16) 
7.648304094365307

>  <m_score__min__rmsd>  (16) 
7.648304094365307

>  <meeko>  (16) 
{"free_energy": -7.69, "intermolecular_energy": -9.48, "internal_energy": -3.32, "cluster_size": 30, "cluster_id": 6, "rank_in_cluster": 12}

>  <energy>  (16) 
-7.96

>  <cluster_rmsd>  (16) 
0.67

>  <cluster>  (16) 
6

$$$$

     RDKit          3D

 54 58  0  0  0  0  0  0  0  0999 V2000
  141.1250   79.1140  217.4530 O   0  0  0  0  0  0  0  0  0  0  0  0
  141.8030   78.6540  218.4040 C   0  0  0  0  0  0  0  0  0  0  0  0
  141.8980   79.4520  219.5830 N   0  0  0  0  0  0  0  0  0  0  0  0
  141.3060   80.7090  219.7910 C   0  0  0  0  0  0  0  0  0  0  0  0
  140.9330   81.1800  221.1170 C   0  0  0  0  0  0  0  0  0  0  0  0
  140.0640   82.1530  221.0770 O   0  0  0  0  0  0  0  0  0  0  0  0
  141.3210   80.7990  222.3950 N   0  0  0  0  0  0  0  0  0  0  0  0
  141.9480   81.5100  223.5200 C   0  0  0  0  0  0  0  0  0  0  0  0
  143.1410   80.5750  223.7340 C   0  0  0  0  0  0  0  0  0  0  0  0
  142.6760   79.1970  223.2670 C   0  0  0  0  0  0  0  0  0  0  0  0
  141.2350   79.4390  222.9870 C   0  0  2  0  0  0  0  0  0  0  0  0
  140.5940   78.4240  222.2840 C   0  0  0  0  0  0  0  0  0  0  0  0
  140.9590   77.1310  222.0460 C   0  0  0  0  0  0  0  0  0  0  0  0
  140.1630   76.3170  221.3780 C   0  0  0  0  0  0  0  0  0  0  0  0
  140.4880   74.8940  221.0770 C   0  0  0  0  0  0  0  0  0  0  0  0
  140.6300   74.4430  219.7900 C   0  0  0  0  0  0  0  0  0  0  0  0
  140.9290   73.1330  219.5200 C   0  0  0  0  0  0  0  0  0  0  0  0
  141.0980   72.2290  220.5280 C   0  0  0  0  0  0  0  0  0  0  0  0
  140.9490   72.7150  221.8290 C   0  0  0  0  0  0  0  0  0  0  0  0
  140.6550   74.0030  222.0650 N   0  0  0  0  0  0  0  0  0  0  0  0
  138.9370   76.8230  220.9230 C   0  0  0  0  0  0  0  0  0  0  0  0
  138.9720   78.5870  221.5170 S   0  0  0  0  0  0  0  0  0  0  0  0
  142.4760   77.3500  218.3220 C   0  0  0  0  0  0  0  0  0  0  0  0
  142.4710   76.7000  217.1070 C   0  0  0  0  0  0  0  0  0  0  0  0
  143.1020   75.4680  217.0100 C   0  0  0  0  0  0  0  0  0  0  0  0
  143.7130   74.9250  218.1210 C   0  0  0  0  0  0  0  0  0  0  0  0
  144.3610   73.6910  218.0840 C   0  0  0  0  0  0  0  0  0  0  0  0
  144.9630   73.1830  219.2240 C   0  0  0  0  0  0  0  0  0  0  0  0
  145.5900   71.9760  219.1650 F   0  0  0  0  0  0  0  0  0  0  0  0
  144.9060   73.9210  220.3890 C   0  0  0  0  0  0  0  0  0  0  0  0
  144.2760   75.1460  220.4740 C   0  0  0  0  0  0  0  0  0  0  0  0
  143.6770   75.6380  219.3120 C   0  0  0  0  0  0  0  0  0  0  0  0
  143.0700   76.8340  219.4260 N   0  0  0  0  0  0  0  0  0  0  0  0
  142.4790   79.0250  220.3600 H   0  0  0  0  0  0  0  0  0  0  0  0
  142.0114   81.4510  219.3887 H   0  0  0  0  0  0  0  0  0  0  0  0
  140.3256   80.5833  219.3083 H   0  0  0  0  0  0  0  0  0  0  0  0
  142.2618   82.5278  223.2452 H   0  0  0  0  0  0  0  0  0  0  0  0
  141.3072   81.6794  224.3979 H   0  0  0  0  0  0  0  0  0  0  0  0
  144.0030   80.9108  223.1388 H   0  0  0  0  0  0  0  0  0  0  0  0
  143.4612   80.5601  224.7863 H   0  0  0  0  0  0  0  0  0  0  0  0
  143.2121   78.8797  222.3604 H   0  0  0  0  0  0  0  0  0  0  0  0
  142.8587   78.3948  223.9972 H   0  0  0  0  0  0  0  0  0  0  0  0
  140.5531   79.4112  223.8497 H   0  0  0  0  0  0  0  0  0  0  0  0
  141.9276   76.7627  222.4150 H   0  0  0  0  0  0  0  0  0  0  0  0
  140.5011   75.1482  218.9557 H   0  0  0  0  0  0  0  0  0  0  0  0
  141.0343   72.8055  218.4752 H   0  0  0  0  0  0  0  0  0  0  0  0
  141.3386   71.1746  220.3269 H   0  0  0  0  0  0  0  0  0  0  0  0
  141.0753   72.0274  222.6782 H   0  0  0  0  0  0  0  0  0  0  0  0
  138.1494   76.3057  220.3555 H   0  0  0  0  0  0  0  0  0  0  0  0
  141.9771   77.1484  216.2323 H   0  0  0  0  0  0  0  0  0  0  0  0
  143.1149   74.9273  216.0522 H   0  0  0  0  0  0  0  0  0  0  0  0
  144.3945   73.1181  217.1456 H   0  0  0  0  0  0  0  0  0  0  0  0
  145.3850   73.5139  221.2917 H   0  0  0  0  0  0  0  0  0  0  0  0
  144.2468   75.7112  221.4172 H   0  0  0  0  0  0  0  0  0  0  0  0
  1  2  2  0
  2  3  1  0
  3  4  1  0
  4  5  1  0
  5  6  2  0
  5  7  1  0
  7  8  1  0
  8  9  1  0
  9 10  1  0
 10 11  1  0
 11 12  1  0
 12 13  2  0
 13 14  1  0
 14 15  1  0
 15 16  2  0
 16 17  1  0
 17 18  2  0
 18 19  1  0
 19 20  2  0
 14 21  2  0
 21 22  1  0
  2 23  1  0
 23 24  2  0
 24 25  1  0
 25 26  2  0
 26 27  1  0
 27 28  2  0
 28 29  1  0
 28 30  1  0
 30 31  2  0
 31 32  1  0
 32 33  2  0
 11  7  1  0
 22 12  1  0
 33 23  1  0
 20 15  1  0
 32 26  1  0
  3 34  1  0
  4 35  1  0
  4 36  1  0
  8 37  1  0
  8 38  1  0
  9 39  1  0
  9 40  1  0
 10 41  1  0
 10 42  1  0
 11 43  1  1
 13 44  1  0
 16 45  1  0
 17 46  1  0
 18 47  1  0
 19 48  1  0
 21 49  1  0
 24 50  1  0
 25 51  1  0
 27 52  1  0
 30 53  1  0
 31 54  1  0
M  END
>  <smiles>  (17) 
O=C(NCC(=O)N1CCC[C@@H]1c1cc(-c2ccccn2)cs1)c1ccc2cc(F)ccc2n1

>  <score_type>  (17) 
oracle

>  <origin>  (17) 
autodockgpu

>  <m_score__min__energy>  (17) 
-9.3699999999999992

>  <m_primary>  (17) 
energy

>  <rmsd>  (17) 
8.291974027331884

>  <m_score__min__rmsd>  (17) 
8.291974027331884

>  <meeko>  (17) 
{"free_energy": -7.06, "intermolecular_energy": -8.85, "internal_energy": -3.81, "cluster_size": 30, "cluster_id": 6, "rank_in_cluster": 25}

>  <energy>  (17) 
-7.96

>  <cluster_rmsd>  (17) 
0.88

>  <cluster>  (17) 
6

$$$$

     RDKit          3D

 54 58  0  0  0  0  0  0  0  0999 V2000
  140.9630   78.2110  217.6090 O   0  0  0  0  0  0  0  0  0  0  0  0
  141.7650   77.9370  218.5350 C   0  0  0  0  0  0  0  0  0  0  0  0
  141.8400   78.8550  219.6250 N   0  0  0  0  0  0  0  0  0  0  0  0
  141.1020   80.0420  219.7700 C   0  0  0  0  0  0  0  0  0  0  0  0
  141.2830   80.9340  220.9070 C   0  0  0  0  0  0  0  0  0  0  0  0
  141.2350   82.1930  220.5690 O   0  0  0  0  0  0  0  0  0  0  0  0
  141.4960   80.7020  222.2600 N   0  0  0  0  0  0  0  0  0  0  0  0
  142.0850   81.5000  223.3460 C   0  0  0  0  0  0  0  0  0  0  0  0
  143.1350   80.4910  223.8170 C   0  0  0  0  0  0  0  0  0  0  0  0
  142.5640   79.1140  223.4840 C   0  0  0  0  0  0  0  0  0  0  0  0
  141.1950   79.4570  223.0120 C   0  0  2  0  0  0  0  0  0  0  0  0
  140.5150   78.4210  222.3790 C   0  0  0  0  0  0  0  0  0  0  0  0
  140.9000   77.1460  222.0830 C   0  0  0  0  0  0  0  0  0  0  0  0
  140.0640   76.3040  221.5060 C   0  0  0  0  0  0  0  0  0  0  0  0
  140.4070   74.8980  221.1510 C   0  0  0  0  0  0  0  0  0  0  0  0
  140.4310   74.4680  219.8500 C   0  0  0  0  0  0  0  0  0  0  0  0
  140.7470   73.1740  219.5290 C   0  0  0  0  0  0  0  0  0  0  0  0
  141.0530   72.2640  220.5000 C   0  0  0  0  0  0  0  0  0  0  0  0
  141.0220   72.7290  221.8170 C   0  0  0  0  0  0  0  0  0  0  0  0
  140.7080   74.0020  222.1030 N   0  0  0  0  0  0  0  0  0  0  0  0
  138.7710   76.7610  221.2090 C   0  0  0  0  0  0  0  0  0  0  0  0
  138.8060   78.5220  221.8170 S   0  0  0  0  0  0  0  0  0  0  0  0
  142.5980   76.7280  218.5130 C   0  0  0  0  0  0  0  0  0  0  0  0
  142.9310   76.2000  217.2830 C   0  0  0  0  0  0  0  0  0  0  0  0
  143.7180   75.0580  217.2420 C   0  0  0  0  0  0  0  0  0  0  0  0
  144.1450   74.4810  218.4190 C   0  0  0  0  0  0  0  0  0  0  0  0
  144.9360   73.3320  218.4400 C   0  0  0  0  0  0  0  0  0  0  0  0
  145.3440   72.7860  219.6460 C   0  0  0  0  0  0  0  0  0  0  0  0
  146.1150   71.6650  219.6420 F   0  0  0  0  0  0  0  0  0  0  0  0
  144.9500   73.3980  220.8180 C   0  0  0  0  0  0  0  0  0  0  0  0
  144.1670   74.5340  220.8480 C   0  0  0  0  0  0  0  0  0  0  0  0
  143.7700   75.0680  219.6200 C   0  0  0  0  0  0  0  0  0  0  0  0
  143.0070   76.1750  219.6810 N   0  0  0  0  0  0  0  0  0  0  0  0
  142.5280   78.5860  220.3840 H   0  0  0  0  0  0  0  0  0  0  0  0
  141.3081   80.6433  218.8722 H   0  0  0  0  0  0  0  0  0  0  0  0
  140.0844   79.6598  219.9386 H   0  0  0  0  0  0  0  0  0  0  0  0
  142.5398   82.4314  222.9776 H   0  0  0  0  0  0  0  0  0  0  0  0
  141.3834   81.8565  224.1145 H   0  0  0  0  0  0  0  0  0  0  0  0
  144.0853   80.6506  223.2865 H   0  0  0  0  0  0  0  0  0  0  0  0
  143.3440   80.5946  224.8920 H   0  0  0  0  0  0  0  0  0  0  0  0
  143.1476   78.6190  222.6938 H   0  0  0  0  0  0  0  0  0  0  0  0
  142.5801   78.4094  224.3286 H   0  0  0  0  0  0  0  0  0  0  0  0
  140.4320   79.6216  223.7871 H   0  0  0  0  0  0  0  0  0  0  0  0
  141.9202   76.8159  222.3285 H   0  0  0  0  0  0  0  0  0  0  0  0
  140.1910   75.1781  219.0449 H   0  0  0  0  0  0  0  0  0  0  0  0
  140.7543   72.8637  218.4737 H   0  0  0  0  0  0  0  0  0  0  0  0
  141.3098   71.2220  220.2585 H   0  0  0  0  0  0  0  0  0  0  0  0
  141.2602   72.0364  222.6377 H   0  0  0  0  0  0  0  0  0  0  0  0
  137.9421   76.2150  220.7348 H   0  0  0  0  0  0  0  0  0  0  0  0
  142.5802   76.6741  216.3545 H   0  0  0  0  0  0  0  0  0  0  0  0
  143.9998   74.6153  216.2753 H   0  0  0  0  0  0  0  0  0  0  0  0
  145.2371   72.8574  217.4945 H   0  0  0  0  0  0  0  0  0  0  0  0
  145.2752   72.9600  221.7732 H   0  0  0  0  0  0  0  0  0  0  0  0
  143.8682   74.9993  221.7989 H   0  0  0  0  0  0  0  0  0  0  0  0
  1  2  2  0
  2  3  1  0
  3  4  1  0
  4  5  1  0
  5  6  2  0
  5  7  1  0
  7  8  1  0
  8  9  1  0
  9 10  1  0
 10 11  1  0
 11 12  1  0
 12 13  2  0
 13 14  1  0
 14 15  1  0
 15 16  2  0
 16 17  1  0
 17 18  2  0
 18 19  1  0
 19 20  2  0
 14 21  2  0
 21 22  1  0
  2 23  1  0
 23 24  2  0
 24 25  1  0
 25 26  2  0
 26 27  1  0
 27 28  2  0
 28 29  1  0
 28 30  1  0
 30 31  2  0
 31 32  1  0
 32 33  2  0
 11  7  1  0
 22 12  1  0
 33 23  1  0
 20 15  1  0
 32 26  1  0
  3 34  1  0
  4 35  1  0
  4 36  1  0
  8 37  1  0
  8 38  1  0
  9 39  1  0
  9 40  1  0
 10 41  1  0
 10 42  1  0
 11 43  1  1
 13 44  1  0
 16 45  1  0
 17 46  1  0
 18 47  1  0
 19 48  1  0
 21 49  1  0
 24 50  1  0
 25 51  1  0
 27 52  1  0
 30 53  1  0
 31 54  1  0
M  END
>  <smiles>  (18) 
O=C(NCC(=O)N1CCC[C@@H]1c1cc(-c2ccccn2)cs1)c1ccc2cc(F)ccc2n1

>  <score_type>  (18) 
oracle

>  <origin>  (18) 
autodockgpu

>  <m_score__min__energy>  (18) 
-9.3699999999999992

>  <m_primary>  (18) 
energy

>  <rmsd>  (18) 
8.01563885565995

>  <m_score__min__rmsd>  (18) 
8.01563885565995

>  <meeko>  (18) 
{"free_energy": -7.34, "intermolecular_energy": -9.13, "internal_energy": -3.55, "cluster_size": 30, "cluster_id": 6, "rank_in_cluster": 23}

>  <energy>  (18) 
-7.89

>  <cluster_rmsd>  (18) 
0.96

>  <cluster>  (18) 
6

$$$$

     RDKit          3D

 54 58  0  0  0  0  0  0  0  0999 V2000
  141.2200   78.3210  217.3410 O   0  0  0  0  0  0  0  0  0  0  0  0
  141.9240   78.0050  218.3310 C   0  0  0  0  0  0  0  0  0  0  0  0
  141.9640   78.9240  219.4230 N   0  0  0  0  0  0  0  0  0  0  0  0
  141.2900   80.1540  219.5040 C   0  0  0  0  0  0  0  0  0  0  0  0
  141.2020   80.9100  220.7460 C   0  0  0  0  0  0  0  0  0  0  0  0
  140.7010   82.1020  220.5740 O   0  0  0  0  0  0  0  0  0  0  0  0
  141.5470   80.6070  222.0570 N   0  0  0  0  0  0  0  0  0  0  0  0
  142.1790   81.3730  223.1430 C   0  0  0  0  0  0  0  0  0  0  0  0
  143.3280   80.4090  223.4520 C   0  0  0  0  0  0  0  0  0  0  0  0
  142.8160   79.0200  223.0750 C   0  0  0  0  0  0  0  0  0  0  0  0
  141.3920   79.2990  222.7440 C   0  0  2  0  0  0  0  0  0  0  0  0
  140.7240   78.2620  222.1000 C   0  0  0  0  0  0  0  0  0  0  0  0
  141.0810   76.9620  221.8890 C   0  0  0  0  0  0  0  0  0  0  0  0
  140.2610   76.1270  221.2800 C   0  0  0  0  0  0  0  0  0  0  0  0
  140.5760   74.6950  221.0120 C   0  0  0  0  0  0  0  0  0  0  0  0
  140.7720   74.2260  219.7390 C   0  0  0  0  0  0  0  0  0  0  0  0
  141.0610   72.9080  219.4990 C   0  0  0  0  0  0  0  0  0  0  0  0
  141.1650   72.0130  220.5240 C   0  0  0  0  0  0  0  0  0  0  0  0
  140.9610   72.5180  221.8110 C   0  0  0  0  0  0  0  0  0  0  0  0
  140.6790   73.8130  222.0180 N   0  0  0  0  0  0  0  0  0  0  0  0
  139.0160   76.6170  220.8610 C   0  0  0  0  0  0  0  0  0  0  0  0
  139.0720   78.4000  221.3970 S   0  0  0  0  0  0  0  0  0  0  0  0
  142.6800   76.7480  218.3790 C   0  0  0  0  0  0  0  0  0  0  0  0
  142.7170   75.9750  217.2380 C   0  0  0  0  0  0  0  0  0  0  0  0
  143.4270   74.7830  217.2650 C   0  0  0  0  0  0  0  0  0  0  0  0
  144.0740   74.4010  218.4210 C   0  0  0  0  0  0  0  0  0  0  0  0
  144.8020   73.2140  218.5070 C   0  0  0  0  0  0  0  0  0  0  0  0
  145.4380   72.8680  219.6880 C   0  0  0  0  0  0  0  0  0  0  0  0
  146.1420   71.7050  219.7500 F   0  0  0  0  0  0  0  0  0  0  0  0
  145.3340   73.7180  220.7700 C   0  0  0  0  0  0  0  0  0  0  0  0
  144.6250   74.9010  220.7330 C   0  0  0  0  0  0  0  0  0  0  0  0
  143.9940   75.2290  219.5320 C   0  0  0  0  0  0  0  0  0  0  0  0
  143.3100   76.3890  219.5260 N   0  0  0  0  0  0  0  0  0  0  0  0
  142.5690   78.6180  220.2360 H   0  0  0  0  0  0  0  0  0  0  0  0
  141.7749   80.8185  218.7738 H   0  0  0  0  0  0  0  0  0  0  0  0
  140.2441   79.8529  219.3446 H   0  0  0  0  0  0  0  0  0  0  0  0
  142.5402   82.3549  222.8034 H   0  0  0  0  0  0  0  0  0  0  0  0
  141.5275   81.6313  223.9909 H   0  0  0  0  0  0  0  0  0  0  0  0
  144.2151   80.6658  222.8545 H   0  0  0  0  0  0  0  0  0  0  0  0
  143.6256   80.4583  224.5098 H   0  0  0  0  0  0  0  0  0  0  0  0
  143.3571   78.6159  222.2067 H   0  0  0  0  0  0  0  0  0  0  0  0
  142.9500   78.2666  223.8652 H   0  0  0  0  0  0  0  0  0  0  0  0
  140.6923   79.3619  223.5904 H   0  0  0  0  0  0  0  0  0  0  0  0
  142.0641   76.6060  222.2307 H   0  0  0  0  0  0  0  0  0  0  0  0
  140.6956   74.9229  218.8913 H   0  0  0  0  0  0  0  0  0  0  0  0
  141.2115   72.5663  218.4643 H   0  0  0  0  0  0  0  0  0  0  0  0
  141.3967   70.9524  220.3469 H   0  0  0  0  0  0  0  0  0  0  0  0
  141.0333   71.8387  222.6732 H   0  0  0  0  0  0  0  0  0  0  0  0
  138.2065   76.0811  220.3437 H   0  0  0  0  0  0  0  0  0  0  0  0
  142.1944   76.2965  216.3250 H   0  0  0  0  0  0  0  0  0  0  0  0
  143.4733   74.1464  216.3691 H   0  0  0  0  0  0  0  0  0  0  0  0
  144.8713   72.5497  217.6330 H   0  0  0  0  0  0  0  0  0  0  0  0
  145.8401   73.4393  221.7060 H   0  0  0  0  0  0  0  0  0  0  0  0
  144.5598   75.5580  221.6129 H   0  0  0  0  0  0  0  0  0  0  0  0
  1  2  2  0
  2  3  1  0
  3  4  1  0
  4  5  1  0
  5  6  2  0
  5  7  1  0
  7  8  1  0
  8  9  1  0
  9 10  1  0
 10 11  1  0
 11 12  1  0
 12 13  2  0
 13 14  1  0
 14 15  1  0
 15 16  2  0
 16 17  1  0
 17 18  2  0
 18 19  1  0
 19 20  2  0
 14 21  2  0
 21 22  1  0
  2 23  1  0
 23 24  2  0
 24 25  1  0
 25 26  2  0
 26 27  1  0
 27 28  2  0
 28 29  1  0
 28 30  1  0
 30 31  2  0
 31 32  1  0
 32 33  2  0
 11  7  1  0
 22 12  1  0
 33 23  1  0
 20 15  1  0
 32 26  1  0
  3 34  1  0
  4 35  1  0
  4 36  1  0
  8 37  1  0
  8 38  1  0
  9 39  1  0
  9 40  1  0
 10 41  1  0
 10 42  1  0
 11 43  1  1
 13 44  1  0
 16 45  1  0
 17 46  1  0
 18 47  1  0
 19 48  1  0
 21 49  1  0
 24 50  1  0
 25 51  1  0
 27 52  1  0
 30 53  1  0
 31 54  1  0
M  END
>  <smiles>  (19) 
O=C(NCC(=O)N1CCC[C@@H]1c1cc(-c2ccccn2)cs1)c1ccc2cc(F)ccc2n1

>  <score_type>  (19) 
oracle

>  <origin>  (19) 
autodockgpu

>  <m_score__min__energy>  (19) 
-9.3699999999999992

>  <m_primary>  (19) 
energy

>  <rmsd>  (19) 
8.065945194006297

>  <m_score__min__rmsd>  (19) 
8.065945194006297

>  <meeko>  (19) 
{"free_energy": -6.77, "intermolecular_energy": -8.55, "internal_energy": -3.78, "cluster_size": 30, "cluster_id": 6, "rank_in_cluster": 28}

>  <energy>  (19) 
-7.88

>  <cluster_rmsd>  (19) 
0.27

>  <cluster>  (19) 
6

$$$$

     RDKit          3D

 54 58  0  0  0  0  0  0  0  0999 V2000
  138.7190   75.1450  221.5390 O   0  0  0  0  0  0  0  0  0  0  0  0
  139.8790   75.5540  221.7830 C   0  0  0  0  0  0  0  0  0  0  0  0
  140.9570   74.6560  221.5190 N   0  0  0  0  0  0  0  0  0  0  0  0
  140.8500   73.3510  221.0090 C   0  0  0  0  0  0  0  0  0  0  0  0
  141.8910   72.7530  220.1850 C   0  0  0  0  0  0  0  0  0  0  0  0
  141.5120   71.6330  219.6320 O   0  0  0  0  0  0  0  0  0  0  0  0
  143.1900   73.1410  219.8830 N   0  0  0  0  0  0  0  0  0  0  0  0
  144.4990   72.4770  219.9930 C   0  0  0  0  0  0  0  0  0  0  0  0
  145.2160   73.5430  220.8260 C   0  0  0  0  0  0  0  0  0  0  0  0
  144.5440   74.8680  220.4700 C   0  0  0  0  0  0  0  0  0  0  0  0
  143.6320   74.4610  219.3670 C   0  0  2  0  0  0  0  0  0  0  0  0
  142.6800   75.4120  219.0100 C   0  0  0  0  0  0  0  0  0  0  0  0
  142.4310   76.6580  219.5060 C   0  0  0  0  0  0  0  0  0  0  0  0
  141.4880   77.4180  218.9800 C   0  0  0  0  0  0  0  0  0  0  0  0
  141.1550   78.7870  219.4620 C   0  0  0  0  0  0  0  0  0  0  0  0
  139.8610   79.1740  219.6980 C   0  0  0  0  0  0  0  0  0  0  0  0
  139.5600   80.4350  220.1420 C   0  0  0  0  0  0  0  0  0  0  0  0
  140.5440   81.3540  220.3660 C   0  0  0  0  0  0  0  0  0  0  0  0
  141.8540   80.9340  220.1190 C   0  0  0  0  0  0  0  0  0  0  0  0
  142.1190   79.6930  219.6840 N   0  0  0  0  0  0  0  0  0  0  0  0
  140.7560   76.9040  217.9000 C   0  0  0  0  0  0  0  0  0  0  0  0
  141.5050   75.2150  217.6590 S   0  0  0  0  0  0  0  0  0  0  0  0
  140.1360   76.8980  222.3180 C   0  0  0  0  0  0  0  0  0  0  0  0
  139.0540   77.6320  222.7560 C   0  0  0  0  0  0  0  0  0  0  0  0
  139.2770   78.9040  223.2650 C   0  0  0  0  0  0  0  0  0  0  0  0
  140.5620   79.4010  223.3210 C   0  0  0  0  0  0  0  0  0  0  0  0
  140.8460   80.6710  223.8210 C   0  0  0  0  0  0  0  0  0  0  0  0
  142.1530   81.1310  223.8600 C   0  0  0  0  0  0  0  0  0  0  0  0
  142.4070   82.3740  224.3520 F   0  0  0  0  0  0  0  0  0  0  0  0
  143.1590   80.3090  223.3950 C   0  0  0  0  0  0  0  0  0  0  0  0
  142.9260   79.0460  222.8900 C   0  0  0  0  0  0  0  0  0  0  0  0
  141.6020   78.6040  222.8620 C   0  0  0  0  0  0  0  0  0  0  0  0
  141.4070   77.3680  222.3650 N   0  0  0  0  0  0  0  0  0  0  0  0
  141.9180   75.0410  221.7400 H   0  0  0  0  0  0  0  0  0  0  0  0
  140.7300   72.6898  221.8799 H   0  0  0  0  0  0  0  0  0  0  0  0
  140.0209   73.4520  220.2932 H   0  0  0  0  0  0  0  0  0  0  0  0
  144.4333   71.5131  220.5189 H   0  0  0  0  0  0  0  0  0  0  0  0
  144.9813   72.2050  219.0425 H   0  0  0  0  0  0  0  0  0  0  0  0
  145.1020   73.3315  221.8995 H   0  0  0  0  0  0  0  0  0  0  0  0
  146.2951   73.5656  220.6140 H   0  0  0  0  0  0  0  0  0  0  0  0
  143.9827   75.2745  221.3242 H   0  0  0  0  0  0  0  0  0  0  0  0
  145.2499   75.6648  220.1928 H   0  0  0  0  0  0  0  0  0  0  0  0
  144.0762   74.3797  218.3640 H   0  0  0  0  0  0  0  0  0  0  0  0
  143.0225   77.0340  220.3538 H   0  0  0  0  0  0  0  0  0  0  0  0
  139.0457   78.4557  219.5270 H   0  0  0  0  0  0  0  0  0  0  0  0
  138.5101   80.7106  220.3205 H   0  0  0  0  0  0  0  0  0  0  0  0
  140.3183   82.3701  220.7216 H   0  0  0  0  0  0  0  0  0  0  0  0
  142.6849   81.6356  220.2847 H   0  0  0  0  0  0  0  0  0  0  0  0
  139.9412   77.3801  217.3349 H   0  0  0  0  0  0  0  0  0  0  0  0
  138.0361   77.2185  222.7032 H   0  0  0  0  0  0  0  0  0  0  0  0
  138.4329   79.5124  223.6219 H   0  0  0  0  0  0  0  0  0  0  0  0
  140.0292   81.3109  224.1862 H   0  0  0  0  0  0  0  0  0  0  0  0
  144.1949   80.6776  223.4284 H   0  0  0  0  0  0  0  0  0  0  0  0
  143.7490   78.4140  222.5248 H   0  0  0  0  0  0  0  0  0  0  0  0
  1  2  2  0
  2  3  1  0
  3  4  1  0
  4  5  1  0
  5  6  2  0
  5  7  1  0
  7  8  1  0
  8  9  1  0
  9 10  1  0
 10 11  1  0
 11 12  1  0
 12 13  2  0
 13 14  1  0
 14 15  1  0
 15 16  2  0
 16 17  1  0
 17 18  2  0
 18 19  1  0
 19 20  2  0
 14 21  2  0
 21 22  1  0
  2 23  1  0
 23 24  2  0
 24 25  1  0
 25 26  2  0
 26 27  1  0
 27 28  2  0
 28 29  1  0
 28 30  1  0
 30 31  2  0
 31 32  1  0
 32 33  2  0
 11  7  1  0
 22 12  1  0
 33 23  1  0
 20 15  1  0
 32 26  1  0
  3 34  1  0
  4 35  1  0
  4 36  1  0
  8 37  1  0
  8 38  1  0
  9 39  1  0
  9 40  1  0
 10 41  1  0
 10 42  1  0
 11 43  1  6
 13 44  1  0
 16 45  1  0
 17 46  1  0
 18 47  1  0
 19 48  1  0
 21 49  1  0
 24 50  1  0
 25 51  1  0
 27 52  1  0
 30 53  1  0
 31 54  1  0
M  END
>  <smiles>  (20) 
O=C(NCC(=O)N1CCC[C@@H]1c1cc(-c2ccccn2)cs1)c1ccc2cc(F)ccc2n1

>  <score_type>  (20) 
oracle

>  <origin>  (20) 
autodockgpu

>  <m_score__min__energy>  (20) 
-9.3699999999999992

>  <m_primary>  (20) 
energy

>  <rmsd>  (20) 
7.108123889806277

>  <m_score__min__rmsd>  (20) 
7.108123889806277

>  <meeko>  (20) 
{"free_energy": -6.45, "intermolecular_energy": -8.24, "internal_energy": -4.07, "cluster_size": 2, "cluster_id": 8, "rank_in_cluster": 2}

>  <energy>  (20) 
-7.83

>  <cluster_rmsd>  (20) 
0.77

>  <cluster>  (20) 
6

$$$$

     RDKit          3D

 54 58  0  0  0  0  0  0  0  0999 V2000
  141.1950   78.4380  217.4630 O   0  0  0  0  0  0  0  0  0  0  0  0
  141.9670   78.0780  218.3840 C   0  0  0  0  0  0  0  0  0  0  0  0
  142.2040   79.0100  219.4390 N   0  0  0  0  0  0  0  0  0  0  0  0
  141.6570   80.2990  219.5530 C   0  0  0  0  0  0  0  0  0  0  0  0
  141.0000   80.7590  220.7690 C   0  0  0  0  0  0  0  0  0  0  0  0
  139.9960   81.5550  220.5260 O   0  0  0  0  0  0  0  0  0  0  0  0
  141.2390   80.5160  222.1150 N   0  0  0  0  0  0  0  0  0  0  0  0
  141.6910   81.3580  223.2340 C   0  0  0  0  0  0  0  0  0  0  0  0
  142.8830   80.5080  223.6820 C   0  0  0  0  0  0  0  0  0  0  0  0
  142.5350   79.0710  223.2980 C   0  0  0  0  0  0  0  0  0  0  0  0
  141.1320   79.2140  222.8220 C   0  0  2  0  0  0  0  0  0  0  0  0
  140.6250   78.1070  222.1480 C   0  0  0  0  0  0  0  0  0  0  0  0
  140.9480   76.7840  222.2280 C   0  0  0  0  0  0  0  0  0  0  0  0
  140.2970   75.8850  221.5130 C   0  0  0  0  0  0  0  0  0  0  0  0
  140.5890   74.4250  221.5440 C   0  0  0  0  0  0  0  0  0  0  0  0
  141.5690   73.8680  220.7640 C   0  0  0  0  0  0  0  0  0  0  0  0
  141.8330   72.5240  220.7960 C   0  0  0  0  0  0  0  0  0  0  0  0
  141.1260   71.6890  221.6120 C   0  0  0  0  0  0  0  0  0  0  0  0
  140.1340   72.2820  222.3970 C   0  0  0  0  0  0  0  0  0  0  0  0
  139.8960   73.6010  222.3450 N   0  0  0  0  0  0  0  0  0  0  0  0
  139.2670   76.3330  220.6740 C   0  0  0  0  0  0  0  0  0  0  0  0
  139.2700   78.1730  220.9620 S   0  0  0  0  0  0  0  0  0  0  0  0
  142.6070   76.7560  218.3930 C   0  0  0  0  0  0  0  0  0  0  0  0
  142.3430   75.9070  217.3390 C   0  0  0  0  0  0  0  0  0  0  0  0
  142.9390   74.6540  217.3290 C   0  0  0  0  0  0  0  0  0  0  0  0
  143.7740   74.2880  218.3630 C   0  0  0  0  0  0  0  0  0  0  0  0
  144.4000   73.0420  218.4070 C   0  0  0  0  0  0  0  0  0  0  0  0
  145.2330   72.7160  219.4650 C   0  0  0  0  0  0  0  0  0  0  0  0
  145.8330   71.4950  219.4880 F   0  0  0  0  0  0  0  0  0  0  0  0
  145.4260   73.6440  220.4680 C   0  0  0  0  0  0  0  0  0  0  0  0
  144.8280   74.8880  220.4680 C   0  0  0  0  0  0  0  0  0  0  0  0
  143.9950   75.1950  219.3910 C   0  0  0  0  0  0  0  0  0  0  0  0
  143.4250   76.4150  219.4190 N   0  0  0  0  0  0  0  0  0  0  0  0
  142.8610   78.6650  220.1950 H   0  0  0  0  0  0  0  0  0  0  0  0
  142.4834   81.0006  219.3665 H   0  0  0  0  0  0  0  0  0  0  0  0
  140.8183   80.2551  218.8426 H   0  0  0  0  0  0  0  0  0  0  0  0
  141.9973   82.3610  222.9020 H   0  0  0  0  0  0  0  0  0  0  0  0
  140.9384   81.5744  224.0065 H   0  0  0  0  0  0  0  0  0  0  0  0
  143.7995   80.8312  223.1667 H   0  0  0  0  0  0  0  0  0  0  0  0
  143.0677   80.6058  224.7620 H   0  0  0  0  0  0  0  0  0  0  0  0
  143.1932   78.6995  222.4988 H   0  0  0  0  0  0  0  0  0  0  0  0
  142.6553   78.3490  224.1191 H   0  0  0  0  0  0  0  0  0  0  0  0
  140.3484   79.2321  223.5938 H   0  0  0  0  0  0  0  0  0  0  0  0
  141.7605   76.4624  222.8961 H   0  0  0  0  0  0  0  0  0  0  0  0
  142.1572   74.5152  220.0968 H   0  0  0  0  0  0  0  0  0  0  0  0
  142.6262   72.1119  220.1548 H   0  0  0  0  0  0  0  0  0  0  0  0
  141.3263   70.6081  221.6495 H   0  0  0  0  0  0  0  0  0  0  0  0
  139.5351   71.6535  223.0725 H   0  0  0  0  0  0  0  0  0  0  0  0
  138.6177   75.7436  220.0099 H   0  0  0  0  0  0  0  0  0  0  0  0
  141.6737   76.2167  216.5229 H   0  0  0  0  0  0  0  0  0  0  0  0
  142.7462   73.9565  216.5005 H   0  0  0  0  0  0  0  0  0  0  0  0
  144.2315   72.3155  217.5984 H   0  0  0  0  0  0  0  0  0  0  0  0
  146.0872   73.3800  221.3065 H   0  0  0  0  0  0  0  0  0  0  0  0
  145.0006   75.6070  221.2824 H   0  0  0  0  0  0  0  0  0  0  0  0
  1  2  2  0
  2  3  1  0
  3  4  1  0
  4  5  1  0
  5  6  2  0
  5  7  1  0
  7  8  1  0
  8  9  1  0
  9 10  1  0
 10 11  1  0
 11 12  1  0
 12 13  2  0
 13 14  1  0
 14 15  1  0
 15 16  2  0
 16 17  1  0
 17 18  2  0
 18 19  1  0
 19 20  2  0
 14 21  2  0
 21 22  1  0
  2 23  1  0
 23 24  2  0
 24 25  1  0
 25 26  2  0
 26 27  1  0
 27 28  2  0
 28 29  1  0
 28 30  1  0
 30 31  2  0
 31 32  1  0
 32 33  2  0
 11  7  1  0
 22 12  1  0
 33 23  1  0
 20 15  1  0
 32 26  1  0
  3 34  1  0
  4 35  1  0
  4 36  1  0
  8 37  1  0
  8 38  1  0
  9 39  1  0
  9 40  1  0
 10 41  1  0
 10 42  1  0
 11 43  1  1
 13 44  1  0
 16 45  1  0
 17 46  1  0
 18 47  1  0
 19 48  1  0
 21 49  1  0
 24 50  1  0
 25 51  1  0
 27 52  1  0
 30 53  1  0
 31 54  1  0
M  END
>  <smiles>  (21) 
O=C(NCC(=O)N1CCC[C@@H]1c1cc(-c2ccccn2)cs1)c1ccc2cc(F)ccc2n1

>  <score_type>  (21) 
oracle

>  <origin>  (21) 
autodockgpu

>  <m_score__min__energy>  (21) 
-9.3699999999999992

>  <m_primary>  (21) 
energy

>  <rmsd>  (21) 
8.147331056051431

>  <m_score__min__rmsd>  (21) 
8.147331056051431

>  <meeko>  (21) 
{"free_energy": -7.71, "intermolecular_energy": -9.5, "internal_energy": -3.42, "cluster_size": 30, "cluster_id": 6, "rank_in_cluster": 11}

>  <energy>  (21) 
-7.8

>  <cluster_rmsd>  (21) 
0.91

>  <cluster>  (21) 
6

$$$$

     RDKit          3D

 54 58  0  0  0  0  0  0  0  0999 V2000
  143.0340   78.6420  218.0700 O   0  0  0  0  0  0  0  0  0  0  0  0
  142.6130   77.6950  218.7770 C   0  0  0  0  0  0  0  0  0  0  0  0
  141.5090   77.9660  219.6410 N   0  0  0  0  0  0  0  0  0  0  0  0
  140.8400   79.1930  219.7800 C   0  0  0  0  0  0  0  0  0  0  0  0
  141.2860   80.2180  220.7140 C   0  0  0  0  0  0  0  0  0  0  0  0
  141.7650   81.2720  220.1110 O   0  0  0  0  0  0  0  0  0  0  0  0
  141.3000   80.2840  222.1010 N   0  0  0  0  0  0  0  0  0  0  0  0
  141.7290   81.3110  223.0640 C   0  0  0  0  0  0  0  0  0  0  0  0
  142.6970   80.4530  223.8840 C   0  0  0  0  0  0  0  0  0  0  0  0
  142.1750   79.0220  223.7760 C   0  0  0  0  0  0  0  0  0  0  0  0
  140.8900   79.2200  223.0520 C   0  0  2  0  0  0  0  0  0  0  0  0
  140.3040   78.0550  222.5650 C   0  0  0  0  0  0  0  0  0  0  0  0
  140.8200   76.8060  222.3730 C   0  0  0  0  0  0  0  0  0  0  0  0
  140.0590   75.8220  221.9320 C   0  0  0  0  0  0  0  0  0  0  0  0
  140.5460   74.4330  221.6960 C   0  0  0  0  0  0  0  0  0  0  0  0
  141.3730   74.1280  220.6460 C   0  0  0  0  0  0  0  0  0  0  0  0
  141.8170   72.8490  220.4340 C   0  0  0  0  0  0  0  0  0  0  0  0
  141.4500   71.8300  221.2650 C   0  0  0  0  0  0  0  0  0  0  0  0
  140.6070   72.1700  222.3270 C   0  0  0  0  0  0  0  0  0  0  0  0
  140.1870   73.4310  222.5110 N   0  0  0  0  0  0  0  0  0  0  0  0
  138.7100   76.1000  221.6710 C   0  0  0  0  0  0  0  0  0  0  0  0
  138.5700   77.9070  222.1000 S   0  0  0  0  0  0  0  0  0  0  0  0
  143.2190   76.3580  218.7310 C   0  0  0  0  0  0  0  0  0  0  0  0
  143.0570   75.6190  217.5780 C   0  0  0  0  0  0  0  0  0  0  0  0
  143.6230   74.3540  217.5150 C   0  0  0  0  0  0  0  0  0  0  0  0
  144.3260   73.8660  218.5960 C   0  0  0  0  0  0  0  0  0  0  0  0
  144.9150   72.6020  218.5900 C   0  0  0  0  0  0  0  0  0  0  0  0
  145.6140   72.1520  219.6990 C   0  0  0  0  0  0  0  0  0  0  0  0
  146.1810   70.9150  219.6710 F   0  0  0  0  0  0  0  0  0  0  0  0
  145.7120   72.9760  220.8010 C   0  0  0  0  0  0  0  0  0  0  0  0
  145.1460   74.2340  220.8530 C   0  0  0  0  0  0  0  0  0  0  0  0
  144.4480   74.6660  219.7240 C   0  0  0  0  0  0  0  0  0  0  0  0
  143.9060   75.8960  219.8040 N   0  0  0  0  0  0  0  0  0  0  0  0
  141.1860   77.1390  220.2190 H   0  0  0  0  0  0  0  0  0  0  0  0
  140.8466   79.6609  218.7845 H   0  0  0  0  0  0  0  0  0  0  0  0
  139.8813   78.8826  220.2211 H   0  0  0  0  0  0  0  0  0  0  0  0
  142.2355   82.1552  222.5732 H   0  0  0  0  0  0  0  0  0  0  0  0
  140.9252   81.8033  223.6310 H   0  0  0  0  0  0  0  0  0  0  0  0
  143.7144   80.5222  223.4715 H   0  0  0  0  0  0  0  0  0  0  0  0
  142.7493   80.7879  224.9305 H   0  0  0  0  0  0  0  0  0  0  0  0
  142.8647   78.3865  223.2012 H   0  0  0  0  0  0  0  0  0  0  0  0
  142.0662   78.5134  224.7453 H   0  0  0  0  0  0  0  0  0  0  0  0
  140.0246   79.5251  223.6587 H   0  0  0  0  0  0  0  0  0  0  0  0
  141.8821   76.6174  222.5883 H   0  0  0  0  0  0  0  0  0  0  0  0
  141.6870   74.9274  219.9587 H   0  0  0  0  0  0  0  0  0  0  0  0
  142.4794   72.6402  219.5810 H   0  0  0  0  0  0  0  0  0  0  0  0
  141.7983   70.7985  221.1076 H   0  0  0  0  0  0  0  0  0  0  0  0
  140.2809   71.3867  223.0271 H   0  0  0  0  0  0  0  0  0  0  0  0
  137.9278   75.4194  221.3037 H   0  0  0  0  0  0  0  0  0  0  0  0
  142.4909   76.0240  216.7262 H   0  0  0  0  0  0  0  0  0  0  0  0
  143.5114   73.7432  216.6070 H   0  0  0  0  0  0  0  0  0  0  0  0
  144.8245   71.9596  217.7017 H   0  0  0  0  0  0  0  0  0  0  0  0
  146.2669   72.6138  221.6790 H   0  0  0  0  0  0  0  0  0  0  0  0
  145.2410   74.8690  221.7462 H   0  0  0  0  0  0  0  0  0  0  0  0
  1  2  2  0
  2  3  1  0
  3  4  1  0
  4  5  1  0
  5  6  2  0
  5  7  1  0
  7  8  1  0
  8  9  1  0
  9 10  1  0
 10 11  1  0
 11 12  1  0
 12 13  2  0
 13 14  1  0
 14 15  1  0
 15 16  2  0
 16 17  1  0
 17 18  2  0
 18 19  1  0
 19 20  2  0
 14 21  2  0
 21 22  1  0
  2 23  1  0
 23 24  2  0
 24 25  1  0
 25 26  2  0
 26 27  1  0
 27 28  2  0
 28 29  1  0
 28 30  1  0
 30 31  2  0
 31 32  1  0
 32 33  2  0
 11  7  1  0
 22 12  1  0
 33 23  1  0
 20 15  1  0
 32 26  1  0
  3 34  1  0
  4 35  1  0
  4 36  1  0
  8 37  1  0
  8 38  1  0
  9 39  1  0
  9 40  1  0
 10 41  1  0
 10 42  1  0
 11 43  1  1
 13 44  1  0
 16 45  1  0
 17 46  1  0
 18 47  1  0
 19 48  1  0
 21 49  1  0
 24 50  1  0
 25 51  1  0
 27 52  1  0
 30 53  1  0
 31 54  1  0
M  END
>  <smiles>  (22) 
O=C(NCC(=O)N1CCC[C@@H]1c1cc(-c2ccccn2)cs1)c1ccc2cc(F)ccc2n1

>  <score_type>  (22) 
oracle

>  <origin>  (22) 
autodockgpu

>  <m_score__min__energy>  (22) 
-9.3699999999999992

>  <m_primary>  (22) 
energy

>  <rmsd>  (22) 
7.87256531351006

>  <m_score__min__rmsd>  (22) 
7.87256531351006

>  <meeko>  (22) 
{"free_energy": -7.97, "intermolecular_energy": -9.76, "internal_energy": -2.77, "cluster_size": 30, "cluster_id": 6, "rank_in_cluster": 2}

>  <energy>  (22) 
-7.77

>  <cluster_rmsd>  (22) 
0.94

>  <cluster>  (22) 
6

$$$$

     RDKit          3D

 54 58  0  0  0  0  0  0  0  0999 V2000
  141.4250   72.1640  221.6200 O   0  0  0  0  0  0  0  0  0  0  0  0
  140.5620   72.4310  222.4900 C   0  0  0  0  0  0  0  0  0  0  0  0
  139.8280   73.6450  222.3300 N   0  0  0  0  0  0  0  0  0  0  0  0
  139.9740   74.5780  221.2890 C   0  0  0  0  0  0  0  0  0  0  0  0
  140.3540   74.1820  219.9400 C   0  0  0  0  0  0  0  0  0  0  0  0
  139.3230   73.9410  219.1780 O   0  0  0  0  0  0  0  0  0  0  0  0
  141.5870   74.0120  219.3230 N   0  0  0  0  0  0  0  0  0  0  0  0
  142.3220   72.8370  218.8300 C   0  0  0  0  0  0  0  0  0  0  0  0
  143.6270   73.0550  219.6010 C   0  0  0  0  0  0  0  0  0  0  0  0
  143.7360   74.5640  219.8120 C   0  0  0  0  0  0  0  0  0  0  0  0
  142.5850   75.0680  219.0140 C   0  0  2  0  0  0  0  0  0  0  0  0
  142.2600   76.4040  219.2300 C   0  0  0  0  0  0  0  0  0  0  0  0
  142.1570   77.1250  220.3840 C   0  0  0  0  0  0  0  0  0  0  0  0
  141.8720   78.4130  220.3520 C   0  0  0  0  0  0  0  0  0  0  0  0
  141.7420   79.2690  221.5640 C   0  0  0  0  0  0  0  0  0  0  0  0
  141.7970   80.6360  221.4910 C   0  0  0  0  0  0  0  0  0  0  0  0
  141.6770   81.4190  222.6110 C   0  0  0  0  0  0  0  0  0  0  0  0
  141.4960   80.8590  223.8420 C   0  0  0  0  0  0  0  0  0  0  0  0
  141.4430   79.4640  223.8880 C   0  0  0  0  0  0  0  0  0  0  0  0
  141.5640   78.7220  222.7760 N   0  0  0  0  0  0  0  0  0  0  0  0
  141.6800   79.0130  219.0990 C   0  0  0  0  0  0  0  0  0  0  0  0
  141.9360   77.5950  217.9180 S   0  0  0  0  0  0  0  0  0  0  0  0
  140.3040   71.5430  223.6310 C   0  0  0  0  0  0  0  0  0  0  0  0
  139.5820   70.3920  223.4000 C   0  0  0  0  0  0  0  0  0  0  0  0
  139.3290   69.5410  224.4660 C   0  0  0  0  0  0  0  0  0  0  0  0
  139.8000   69.8610  225.7210 C   0  0  0  0  0  0  0  0  0  0  0  0
  139.5750   69.0450  226.8300 C   0  0  0  0  0  0  0  0  0  0  0  0
  140.0680   69.4050  228.0740 C   0  0  0  0  0  0  0  0  0  0  0  0
  139.8370   68.5930  229.1420 F   0  0  0  0  0  0  0  0  0  0  0  0
  140.7780   70.5820  228.1910 C   0  0  0  0  0  0  0  0  0  0  0  0
  141.0240   71.4220  227.1240 C   0  0  0  0  0  0  0  0  0  0  0  0
  140.5200   71.0380  225.8800 C   0  0  0  0  0  0  0  0  0  0  0  0
  140.7750   71.8770  224.8580 N   0  0  0  0  0  0  0  0  0  0  0  0
  139.1100   73.8310  223.0860 H   0  0  0  0  0  0  0  0  0  0  0  0
  139.0046   75.0897  221.1972 H   0  0  0  0  0  0  0  0  0  0  0  0
  140.8546   75.1502  221.6162 H   0  0  0  0  0  0  0  0  0  0  0  0
  141.8293   71.8929  219.1054 H   0  0  0  0  0  0  0  0  0  0  0  0
  142.4177   72.7539  217.7373 H   0  0  0  0  0  0  0  0  0  0  0  0
  143.5920   72.5340  220.5692 H   0  0  0  0  0  0  0  0  0  0  0  0
  144.4938   72.6584  219.0520 H   0  0  0  0  0  0  0  0  0  0  0  0
  143.6325   74.8281  220.8748 H   0  0  0  0  0  0  0  0  0  0  0  0
  144.7057   74.9867  219.5104 H   0  0  0  0  0  0  0  0  0  0  0  0
  142.7441   75.1759  217.9309 H   0  0  0  0  0  0  0  0  0  0  0  0
  142.3134   76.6267  221.3521 H   0  0  0  0  0  0  0  0  0  0  0  0
  141.9406   81.1166  220.5120 H   0  0  0  0  0  0  0  0  0  0  0  0
  141.7274   82.5137  222.5153 H   0  0  0  0  0  0  0  0  0  0  0  0
  141.3972   81.4731  224.7493 H   0  0  0  0  0  0  0  0  0  0  0  0
  141.2990   78.9626  224.8564 H   0  0  0  0  0  0  0  0  0  0  0  0
  141.4381   80.0614  218.8701 H   0  0  0  0  0  0  0  0  0  0  0  0
  139.2140   70.1531  222.3913 H   0  0  0  0  0  0  0  0  0  0  0  0
  138.7553   68.6155  224.3103 H   0  0  0  0  0  0  0  0  0  0  0  0
  139.0038   68.1118  226.7164 H   0  0  0  0  0  0  0  0  0  0  0  0
  141.1661   70.8641  229.1808 H   0  0  0  0  0  0  0  0  0  0  0  0
  141.5933   72.3549  227.2485 H   0  0  0  0  0  0  0  0  0  0  0  0
  1  2  2  0
  2  3  1  0
  3  4  1  0
  4  5  1  0
  5  6  2  0
  5  7  1  0
  7  8  1  0
  8  9  1  0
  9 10  1  0
 10 11  1  0
 11 12  1  0
 12 13  2  0
 13 14  1  0
 14 15  1  0
 15 16  2  0
 16 17  1  0
 17 18  2  0
 18 19  1  0
 19 20  2  0
 14 21  2  0
 21 22  1  0
  2 23  1  0
 23 24  2  0
 24 25  1  0
 25 26  2  0
 26 27  1  0
 27 28  2  0
 28 29  1  0
 28 30  1  0
 30 31  2  0
 31 32  1  0
 32 33  2  0
 11  7  1  0
 22 12  1  0
 33 23  1  0
 20 15  1  0
 32 26  1  0
  3 34  1  0
  4 35  1  0
  4 36  1  0
  8 37  1  0
  8 38  1  0
  9 39  1  0
  9 40  1  0
 10 41  1  0
 10 42  1  0
 11 43  1  6
 13 44  1  0
 16 45  1  0
 17 46  1  0
 18 47  1  0
 19 48  1  0
 21 49  1  0
 24 50  1  0
 25 51  1  0
 27 52  1  0
 30 53  1  0
 31 54  1  0
M  END
>  <smiles>  (23) 
O=C(NCC(=O)N1CCC[C@@H]1c1cc(-c2ccccn2)cs1)c1ccc2cc(F)ccc2n1

>  <score_type>  (23) 
oracle

>  <origin>  (23) 
autodockgpu

>  <m_score__min__energy>  (23) 
-9.3699999999999992

>  <m_primary>  (23) 
energy

>  <rmsd>  (23) 
2.049242178058342

>  <m_score__min__rmsd>  (23) 
2.049242178058342

>  <meeko>  (23) 
{"free_energy": -8.98, "intermolecular_energy": -10.77, "internal_energy": -1.69, "cluster_size": 8, "cluster_id": 1, "rank_in_cluster": 4}

>  <energy>  (23) 
-7.77

>  <cluster_rmsd>  (23) 
0.91

>  <cluster>  (23) 
6

$$$$

     RDKit          3D

 54 58  0  0  0  0  0  0  0  0999 V2000
  141.0250   77.7870  217.6260 O   0  0  0  0  0  0  0  0  0  0  0  0
  141.8570   77.5510  218.5340 C   0  0  0  0  0  0  0  0  0  0  0  0
  141.9770   78.5180  219.5770 N   0  0  0  0  0  0  0  0  0  0  0  0
  141.2520   79.7160  219.6920 C   0  0  0  0  0  0  0  0  0  0  0  0
  141.4870   80.6640  220.7720 C   0  0  0  0  0  0  0  0  0  0  0  0
  141.8110   81.8510  220.3360 O   0  0  0  0  0  0  0  0  0  0  0  0
  141.4360   80.5460  222.1550 N   0  0  0  0  0  0  0  0  0  0  0  0
  141.8400   81.4240  223.2650 C   0  0  0  0  0  0  0  0  0  0  0  0
  142.7470   80.4380  224.0060 C   0  0  0  0  0  0  0  0  0  0  0  0
  142.2000   79.0490  223.6840 C   0  0  0  0  0  0  0  0  0  0  0  0
  140.9560   79.3770  222.9350 C   0  0  2  0  0  0  0  0  0  0  0  0
  140.3700   78.3030  222.2720 C   0  0  0  0  0  0  0  0  0  0  0  0
  140.7780   77.0100  222.1260 C   0  0  0  0  0  0  0  0  0  0  0  0
  140.0310   76.1340  221.4790 C   0  0  0  0  0  0  0  0  0  0  0  0
  140.4060   74.7070  221.2770 C   0  0  0  0  0  0  0  0  0  0  0  0
  140.7110   74.2100  220.0360 C   0  0  0  0  0  0  0  0  0  0  0  0
  141.0550   72.8950  219.8560 C   0  0  0  0  0  0  0  0  0  0  0  0
  141.1060   72.0320  220.9120 C   0  0  0  0  0  0  0  0  0  0  0  0
  140.7900   72.5640  222.1650 C   0  0  0  0  0  0  0  0  0  0  0  0
  140.4570   73.8550  222.3120 N   0  0  0  0  0  0  0  0  0  0  0  0
  138.8090   76.5760  220.9510 C   0  0  0  0  0  0  0  0  0  0  0  0
  138.7740   78.3730  221.4390 S   0  0  0  0  0  0  0  0  0  0  0  0
  142.6810   76.3350  218.5400 C   0  0  0  0  0  0  0  0  0  0  0  0
  142.7770   75.6190  217.3660 C   0  0  0  0  0  0  0  0  0  0  0  0
  143.5510   74.4670  217.3510 C   0  0  0  0  0  0  0  0  0  0  0  0
  144.2010   74.0680  218.4990 C   0  0  0  0  0  0  0  0  0  0  0  0
  144.9920   72.9190  218.5440 C   0  0  0  0  0  0  0  0  0  0  0  0
  145.6280   72.5550  219.7200 C   0  0  0  0  0  0  0  0  0  0  0  0
  146.3950   71.4310  219.7410 F   0  0  0  0  0  0  0  0  0  0  0  0
  145.4620   73.3480  220.8370 C   0  0  0  0  0  0  0  0  0  0  0  0
  144.6890   74.4910  220.8410 C   0  0  0  0  0  0  0  0  0  0  0  0
  144.0590   74.8390  219.6450 C   0  0  0  0  0  0  0  0  0  0  0  0
  143.3120   75.9590  219.6790 N   0  0  0  0  0  0  0  0  0  0  0  0
  142.6910   78.2790  220.3220 H   0  0  0  0  0  0  0  0  0  0  0  0
  141.4216   80.2686  218.7561 H   0  0  0  0  0  0  0  0  0  0  0  0
  140.2409   79.3504  219.9242 H   0  0  0  0  0  0  0  0  0  0  0  0
  142.3886   82.3109  222.9149 H   0  0  0  0  0  0  0  0  0  0  0  0
  141.0206   81.8598  223.8554 H   0  0  0  0  0  0  0  0  0  0  0  0
  143.7847   80.5325  223.6535 H   0  0  0  0  0  0  0  0  0  0  0  0
  142.7547   80.6296  225.0892 H   0  0  0  0  0  0  0  0  0  0  0  0
  142.9030   78.4762  223.0614 H   0  0  0  0  0  0  0  0  0  0  0  0
  142.0330   78.4197  224.5707 H   0  0  0  0  0  0  0  0  0  0  0  0
  140.0678   79.6237  223.5352 H   0  0  0  0  0  0  0  0  0  0  0  0
  141.7411   76.6928  222.5524 H   0  0  0  0  0  0  0  0  0  0  0  0
  140.6790   74.8814  219.1652 H   0  0  0  0  0  0  0  0  0  0  0  0
  141.2933   72.5304  218.8459 H   0  0  0  0  0  0  0  0  0  0  0  0
  141.3810   70.9747  220.7838 H   0  0  0  0  0  0  0  0  0  0  0  0
  140.8149   71.9103  223.0493 H   0  0  0  0  0  0  0  0  0  0  0  0
  138.0574   76.0031  220.3881 H   0  0  0  0  0  0  0  0  0  0  0  0
  142.2510   75.9537  216.4597 H   0  0  0  0  0  0  0  0  0  0  0  0
  143.6451   73.8758  216.4282 H   0  0  0  0  0  0  0  0  0  0  0  0
  145.1110   72.3000  217.6425 H   0  0  0  0  0  0  0  0  0  0  0  0
  145.9697   73.0552  221.7679 H   0  0  0  0  0  0  0  0  0  0  0  0
  144.5741   75.1021  221.7484 H   0  0  0  0  0  0  0  0  0  0  0  0
  1  2  2  0
  2  3  1  0
  3  4  1  0
  4  5  1  0
  5  6  2  0
  5  7  1  0
  7  8  1  0
  8  9  1  0
  9 10  1  0
 10 11  1  0
 11 12  1  0
 12 13  2  0
 13 14  1  0
 14 15  1  0
 15 16  2  0
 16 17  1  0
 17 18  2  0
 18 19  1  0
 19 20  2  0
 14 21  2  0
 21 22  1  0
  2 23  1  0
 23 24  2  0
 24 25  1  0
 25 26  2  0
 26 27  1  0
 27 28  2  0
 28 29  1  0
 28 30  1  0
 30 31  2  0
 31 32  1  0
 32 33  2  0
 11  7  1  0
 22 12  1  0
 33 23  1  0
 20 15  1  0
 32 26  1  0
  3 34  1  0
  4 35  1  0
  4 36  1  0
  8 37  1  0
  8 38  1  0
  9 39  1  0
  9 40  1  0
 10 41  1  0
 10 42  1  0
 11 43  1  1
 13 44  1  0
 16 45  1  0
 17 46  1  0
 18 47  1  0
 19 48  1  0
 21 49  1  0
 24 50  1  0
 25 51  1  0
 27 52  1  0
 30 53  1  0
 31 54  1  0
M  END
>  <smiles>  (24) 
O=C(NCC(=O)N1CCC[C@@H]1c1cc(-c2ccccn2)cs1)c1ccc2cc(F)ccc2n1

>  <score_type>  (24) 
oracle

>  <origin>  (24) 
autodockgpu

>  <m_score__min__energy>  (24) 
-9.3699999999999992

>  <m_primary>  (24) 
energy

>  <rmsd>  (24) 
7.913235418445034

>  <m_score__min__rmsd>  (24) 
7.913235418445034

>  <meeko>  (24) 
{"free_energy": -7.77, "intermolecular_energy": -9.56, "internal_energy": -3.41, "cluster_size": 30, "cluster_id": 6, "rank_in_cluster": 10}

>  <energy>  (24) 
-7.71

>  <cluster_rmsd>  (24) 
0.99

>  <cluster>  (24) 
6

$$$$

     RDKit          3D

 54 58  0  0  0  0  0  0  0  0999 V2000
  140.6860   78.1830  218.0050 O   0  0  0  0  0  0  0  0  0  0  0  0
  141.6500   77.9110  218.7610 C   0  0  0  0  0  0  0  0  0  0  0  0
  142.1130   78.9470  219.6270 N   0  0  0  0  0  0  0  0  0  0  0  0
  141.5970   80.2500  219.7200 C   0  0  0  0  0  0  0  0  0  0  0  0
  140.8690   80.7140  220.8920 C   0  0  0  0  0  0  0  0  0  0  0  0
  139.7940   81.3860  220.5820 O   0  0  0  0  0  0  0  0  0  0  0  0
  141.0990   80.5800  222.2560 N   0  0  0  0  0  0  0  0  0  0  0  0
  141.6190   81.4870  223.2910 C   0  0  0  0  0  0  0  0  0  0  0  0
  142.7490   80.5970  223.8160 C   0  0  0  0  0  0  0  0  0  0  0  0
  142.2940   79.1610  223.5670 C   0  0  0  0  0  0  0  0  0  0  0  0
  140.9010   79.3610  223.0810 C   0  0  2  0  0  0  0  0  0  0  0  0
  140.3090   78.2370  222.5130 C   0  0  0  0  0  0  0  0  0  0  0  0
  140.6970   76.9290  222.5040 C   0  0  0  0  0  0  0  0  0  0  0  0
  139.9480   76.0070  221.9310 C   0  0  0  0  0  0  0  0  0  0  0  0
  140.3000   74.5600  221.8780 C   0  0  0  0  0  0  0  0  0  0  0  0
  141.4800   74.1250  221.3320 C   0  0  0  0  0  0  0  0  0  0  0  0
  141.7990   72.7920  221.2860 C   0  0  0  0  0  0  0  0  0  0  0  0
  140.9490   71.8490  221.7860 C   0  0  0  0  0  0  0  0  0  0  0  0
  139.7540   72.3200  222.3360 C   0  0  0  0  0  0  0  0  0  0  0  0
  139.4670   73.6300  222.3680 N   0  0  0  0  0  0  0  0  0  0  0  0
  138.7450   76.4130  221.3350 C   0  0  0  0  0  0  0  0  0  0  0  0
  138.7320   78.2500  221.6430 S   0  0  0  0  0  0  0  0  0  0  0  0
  142.2850   76.5860  218.7680 C   0  0  0  0  0  0  0  0  0  0  0  0
  141.8270   75.6490  217.8660 C   0  0  0  0  0  0  0  0  0  0  0  0
  142.4140   74.3920  217.8580 C   0  0  0  0  0  0  0  0  0  0  0  0
  143.4330   74.1100  218.7430 C   0  0  0  0  0  0  0  0  0  0  0  0
  144.0610   72.8650  218.7800 C   0  0  0  0  0  0  0  0  0  0  0  0
  145.0820   72.6240  219.6860 C   0  0  0  0  0  0  0  0  0  0  0  0
  145.6800   71.4010  219.7050 F   0  0  0  0  0  0  0  0  0  0  0  0
  145.4600   73.6360  220.5440 C   0  0  0  0  0  0  0  0  0  0  0  0
  144.8680   74.8830  220.5440 C   0  0  0  0  0  0  0  0  0  0  0  0
  143.8430   75.1030  219.6220 C   0  0  0  0  0  0  0  0  0  0  0  0
  143.2850   76.3280  219.6460 N   0  0  0  0  0  0  0  0  0  0  0  0
  142.9270   78.6740  220.2470 H   0  0  0  0  0  0  0  0  0  0  0  0
  142.4545   80.9289  219.6027 H   0  0  0  0  0  0  0  0  0  0  0  0
  140.8104   80.2400  218.9511 H   0  0  0  0  0  0  0  0  0  0  0  0
  141.9954   82.4295  222.8667 H   0  0  0  0  0  0  0  0  0  0  0  0
  140.8898   81.8292  224.0401 H   0  0  0  0  0  0  0  0  0  0  0  0
  143.6831   80.8029  223.2729 H   0  0  0  0  0  0  0  0  0  0  0  0
  142.9482   80.7805  224.8821 H   0  0  0  0  0  0  0  0  0  0  0  0
  142.9172   78.6702  222.8049 H   0  0  0  0  0  0  0  0  0  0  0  0
  142.3675   78.5114  224.4517 H   0  0  0  0  0  0  0  0  0  0  0  0
  140.1263   79.5070  223.8481 H   0  0  0  0  0  0  0  0  0  0  0  0
  141.6456   76.6401  222.9802 H   0  0  0  0  0  0  0  0  0  0  0  0
  142.1865   74.8615  220.9217 H   0  0  0  0  0  0  0  0  0  0  0  0
  142.7541   72.4784  220.8395 H   0  0  0  0  0  0  0  0  0  0  0  0
  141.1913   70.7764  221.7576 H   0  0  0  0  0  0  0  0  0  0  0  0
  139.0329   71.6009  222.7518 H   0  0  0  0  0  0  0  0  0  0  0  0
  137.9952   75.7989  220.8147 H   0  0  0  0  0  0  0  0  0  0  0  0
  141.0132   75.8931  217.1673 H   0  0  0  0  0  0  0  0  0  0  0  0
  142.0684   73.6247  217.1496 H   0  0  0  0  0  0  0  0  0  0  0  0
  143.7447   72.0712  218.0873 H   0  0  0  0  0  0  0  0  0  0  0  0
  146.2706   73.4402  221.2613 H   0  0  0  0  0  0  0  0  0  0  0  0
  145.1903   75.6704  221.2412 H   0  0  0  0  0  0  0  0  0  0  0  0
  1  2  2  0
  2  3  1  0
  3  4  1  0
  4  5  1  0
  5  6  2  0
  5  7  1  0
  7  8  1  0
  8  9  1  0
  9 10  1  0
 10 11  1  0
 11 12  1  0
 12 13  2  0
 13 14  1  0
 14 15  1  0
 15 16  2  0
 16 17  1  0
 17 18  2  0
 18 19  1  0
 19 20  2  0
 14 21  2  0
 21 22  1  0
  2 23  1  0
 23 24  2  0
 24 25  1  0
 25 26  2  0
 26 27  1  0
 27 28  2  0
 28 29  1  0
 28 30  1  0
 30 31  2  0
 31 32  1  0
 32 33  2  0
 11  7  1  0
 22 12  1  0
 33 23  1  0
 20 15  1  0
 32 26  1  0
  3 34  1  0
  4 35  1  0
  4 36  1  0
  8 37  1  0
  8 38  1  0
  9 39  1  0
  9 40  1  0
 10 41  1  0
 10 42  1  0
 11 43  1  1
 13 44  1  0
 16 45  1  0
 17 46  1  0
 18 47  1  0
 19 48  1  0
 21 49  1  0
 24 50  1  0
 25 51  1  0
 27 52  1  0
 30 53  1  0
 31 54  1  0
M  END
>  <smiles>  (25) 
O=C(NCC(=O)N1CCC[C@@H]1c1cc(-c2ccccn2)cs1)c1ccc2cc(F)ccc2n1

>  <score_type>  (25) 
oracle

>  <origin>  (25) 
autodockgpu

>  <m_score__min__energy>  (25) 
-9.3699999999999992

>  <m_primary>  (25) 
energy

>  <rmsd>  (25) 
7.928510033484344

>  <m_score__min__rmsd>  (25) 
7.928510033484344

>  <meeko>  (25) 
{"free_energy": -7.5, "intermolecular_energy": -9.29, "internal_energy": -3.44, "cluster_size": 30, "cluster_id": 6, "rank_in_cluster": 17}

>  <energy>  (25) 
-7.69

>  <cluster_rmsd>  (25) 
0.75

>  <cluster>  (25) 
6

$$$$

     RDKit          3D

 54 58  0  0  0  0  0  0  0  0999 V2000
  142.5470   77.1780  217.5830 O   0  0  0  0  0  0  0  0  0  0  0  0
  142.5730   77.7970  218.6740 C   0  0  0  0  0  0  0  0  0  0  0  0
  142.9500   77.0570  219.8350 N   0  0  0  0  0  0  0  0  0  0  0  0
  143.3000   75.6960  219.8810 C   0  0  0  0  0  0  0  0  0  0  0  0
  142.3170   74.6370  219.7010 C   0  0  0  0  0  0  0  0  0  0  0  0
  141.9010   74.5430  218.4680 O   0  0  0  0  0  0  0  0  0  0  0  0
  141.7480   73.7240  220.5790 N   0  0  0  0  0  0  0  0  0  0  0  0
  141.8910   72.2720  220.7680 C   0  0  0  0  0  0  0  0  0  0  0  0
  140.4130   71.8880  220.6560 C   0  0  0  0  0  0  0  0  0  0  0  0
  139.6310   73.1110  221.1330 C   0  0  0  0  0  0  0  0  0  0  0  0
  140.7210   74.0010  221.6160 C   0  0  2  0  0  0  0  0  0  0  0  0
  140.3390   75.3150  221.8680 C   0  0  0  0  0  0  0  0  0  0  0  0
  141.0710   76.4080  222.2290 C   0  0  0  0  0  0  0  0  0  0  0  0
  140.4980   77.5870  222.3770 C   0  0  0  0  0  0  0  0  0  0  0  0
  141.2270   78.8260  222.7690 C   0  0  0  0  0  0  0  0  0  0  0  0
  140.6410   79.7930  223.5430 C   0  0  0  0  0  0  0  0  0  0  0  0
  141.3160   80.9310  223.9000 C   0  0  0  0  0  0  0  0  0  0  0  0
  142.6030   81.1400  223.4960 C   0  0  0  0  0  0  0  0  0  0  0  0
  143.1760   80.1380  222.7080 C   0  0  0  0  0  0  0  0  0  0  0  0
  142.4910   79.0340  222.3730 N   0  0  0  0  0  0  0  0  0  0  0  0
  139.1170   77.6800  222.1500 C   0  0  0  0  0  0  0  0  0  0  0  0
  138.6550   75.9330  221.6980 S   0  0  0  0  0  0  0  0  0  0  0  0
  142.2320   79.2220  218.7700 C   0  0  0  0  0  0  0  0  0  0  0  0
  142.8080   80.0830  217.8610 C   0  0  0  0  0  0  0  0  0  0  0  0
  142.4980   81.4340  217.9360 C   0  0  0  0  0  0  0  0  0  0  0  0
  141.6300   81.8810  218.9090 C   0  0  0  0  0  0  0  0  0  0  0  0
  141.2820   83.2260  219.0330 C   0  0  0  0  0  0  0  0  0  0  0  0
  140.4040   83.6320  220.0260 C   0  0  0  0  0  0  0  0  0  0  0  0
  140.0790   84.9490  220.1290 F   0  0  0  0  0  0  0  0  0  0  0  0
  139.8870   82.6820  220.8830 C   0  0  0  0  0  0  0  0  0  0  0  0
  140.2020   81.3410  220.8000 C   0  0  0  0  0  0  0  0  0  0  0  0
  141.0870   80.9560  219.7910 C   0  0  0  0  0  0  0  0  0  0  0  0
  141.3760   79.6420  219.7350 N   0  0  0  0  0  0  0  0  0  0  0  0
  142.9590   77.6170  220.7330 H   0  0  0  0  0  0  0  0  0  0  0  0
  144.0587   75.5472  219.0985 H   0  0  0  0  0  0  0  0  0  0  0  0
  143.5849   75.5678  220.9357 H   0  0  0  0  0  0  0  0  0  0  0  0
  142.5016   71.8085  219.9791 H   0  0  0  0  0  0  0  0  0  0  0  0
  142.4004   71.9560  221.6903 H   0  0  0  0  0  0  0  0  0  0  0  0
  140.1561   71.6514  219.6129 H   0  0  0  0  0  0  0  0  0  0  0  0
  140.1784   70.9966  221.2563 H   0  0  0  0  0  0  0  0  0  0  0  0
  139.0712   73.5752  220.3076 H   0  0  0  0  0  0  0  0  0  0  0  0
  138.8711   72.8839  221.8952 H   0  0  0  0  0  0  0  0  0  0  0  0
  141.1015   73.8086  222.6300 H   0  0  0  0  0  0  0  0  0  0  0  0
  142.1529   76.3050  222.3989 H   0  0  0  0  0  0  0  0  0  0  0  0
  139.6052   79.6527  223.8856 H   0  0  0  0  0  0  0  0  0  0  0  0
  140.8133   81.6870  224.5211 H   0  0  0  0  0  0  0  0  0  0  0  0
  143.1587   82.0473  223.7753 H   0  0  0  0  0  0  0  0  0  0  0  0
  144.2109   80.2570  222.3548 H   0  0  0  0  0  0  0  0  0  0  0  0
  138.4678   78.5651  222.2212 H   0  0  0  0  0  0  0  0  0  0  0  0
  143.4991   79.7074  217.0920 H   0  0  0  0  0  0  0  0  0  0  0  0
  142.9426   82.1439  217.2230 H   0  0  0  0  0  0  0  0  0  0  0  0
  141.7060   83.9676  218.3400 H   0  0  0  0  0  0  0  0  0  0  0  0
  139.1909   83.0091  221.6694 H   0  0  0  0  0  0  0  0  0  0  0  0
  139.7742   80.6070  221.4987 H   0  0  0  0  0  0  0  0  0  0  0  0
  1  2  2  0
  2  3  1  0
  3  4  1  0
  4  5  1  0
  5  6  2  0
  5  7  1  0
  7  8  1  0
  8  9  1  0
  9 10  1  0
 10 11  1  0
 11 12  1  0
 12 13  2  0
 13 14  1  0
 14 15  1  0
 15 16  2  0
 16 17  1  0
 17 18  2  0
 18 19  1  0
 19 20  2  0
 14 21  2  0
 21 22  1  0
  2 23  1  0
 23 24  2  0
 24 25  1  0
 25 26  2  0
 26 27  1  0
 27 28  2  0
 28 29  1  0
 28 30  1  0
 30 31  2  0
 31 32  1  0
 32 33  2  0
 11  7  1  0
 22 12  1  0
 33 23  1  0
 20 15  1  0
 32 26  1  0
  3 34  1  0
  4 35  1  0
  4 36  1  0
  8 37  1  0
  8 38  1  0
  9 39  1  0
  9 40  1  0
 10 41  1  0
 10 42  1  0
 11 43  1  1
 13 44  1  0
 16 45  1  0
 17 46  1  0
 18 47  1  0
 19 48  1  0
 21 49  1  0
 24 50  1  0
 25 51  1  0
 27 52  1  0
 30 53  1  0
 31 54  1  0
M  END
>  <smiles>  (26) 
O=C(NCC(=O)N1CCC[C@@H]1c1cc(-c2ccccn2)cs1)c1ccc2cc(F)ccc2n1

>  <score_type>  (26) 
oracle

>  <origin>  (26) 
autodockgpu

>  <m_score__min__energy>  (26) 
-9.3699999999999992

>  <m_primary>  (26) 
energy

>  <rmsd>  (26) 
9.662636965634672

>  <m_score__min__rmsd>  (26) 
9.662636965634672

>  <meeko>  (26) 
{"free_energy": -7.03, "intermolecular_energy": -8.82, "internal_energy": -3.71, "cluster_size": 5, "cluster_id": 7, "rank_in_cluster": 2}

>  <energy>  (26) 
-7.62

>  <cluster_rmsd>  (26) 
0.94

>  <cluster>  (26) 
6

$$$$

     RDKit          3D

 54 58  0  0  0  0  0  0  0  0999 V2000
  141.0080   78.7260  217.4140 O   0  0  0  0  0  0  0  0  0  0  0  0
  141.7130   78.3270  218.3720 C   0  0  0  0  0  0  0  0  0  0  0  0
  141.7380   79.1390  219.5460 N   0  0  0  0  0  0  0  0  0  0  0  0
  141.0490   80.3480  219.7400 C   0  0  0  0  0  0  0  0  0  0  0  0
  140.6350   80.8010  221.0600 C   0  0  0  0  0  0  0  0  0  0  0  0
  139.5770   81.5630  221.0200 O   0  0  0  0  0  0  0  0  0  0  0  0
  141.1470   80.5820  222.3330 N   0  0  0  0  0  0  0  0  0  0  0  0
  141.8840   81.4230  223.2890 C   0  0  0  0  0  0  0  0  0  0  0  0
  143.0900   80.5050  223.5060 C   0  0  0  0  0  0  0  0  0  0  0  0
  142.5770   79.0850  223.2700 C   0  0  0  0  0  0  0  0  0  0  0  0
  141.1160   79.3120  223.1030 C   0  0  2  0  0  0  0  0  0  0  0  0
  140.4050   78.2250  222.6030 C   0  0  0  0  0  0  0  0  0  0  0  0
  140.8210   76.9830  222.2220 C   0  0  0  0  0  0  0  0  0  0  0  0
  139.9540   76.0770  221.8110 C   0  0  0  0  0  0  0  0  0  0  0  0
  140.3270   74.7010  221.3780 C   0  0  0  0  0  0  0  0  0  0  0  0
  140.6440   74.4150  220.0760 C   0  0  0  0  0  0  0  0  0  0  0  0
  140.9860   73.1470  219.6830 C   0  0  0  0  0  0  0  0  0  0  0  0
  141.0240   72.1210  220.5810 C   0  0  0  0  0  0  0  0  0  0  0  0
  140.6970   72.4390  221.9020 C   0  0  0  0  0  0  0  0  0  0  0  0
  140.3650   73.6890  222.2580 N   0  0  0  0  0  0  0  0  0  0  0  0
  138.5970   76.4320  221.7790 C   0  0  0  0  0  0  0  0  0  0  0  0
  138.6170   78.1920  222.3890 S   0  0  0  0  0  0  0  0  0  0  0  0
  142.4850   77.0800  218.3050 C   0  0  0  0  0  0  0  0  0  0  0  0
  142.6670   76.5020  217.0660 C   0  0  0  0  0  0  0  0  0  0  0  0
  143.3940   75.3230  216.9830 C   0  0  0  0  0  0  0  0  0  0  0  0
  143.9130   74.7600  218.1290 C   0  0  0  0  0  0  0  0  0  0  0  0
  144.6520   73.5760  218.1070 C   0  0  0  0  0  0  0  0  0  0  0  0
  145.1560   73.0460  219.2830 C   0  0  0  0  0  0  0  0  0  0  0  0
  145.8730   71.8890  219.2380 F   0  0  0  0  0  0  0  0  0  0  0  0
  144.9120   73.7090  220.4690 C   0  0  0  0  0  0  0  0  0  0  0  0
  144.1870   74.8810  220.5400 C   0  0  0  0  0  0  0  0  0  0  0  0
  143.6900   75.3980  219.3420 C   0  0  0  0  0  0  0  0  0  0  0  0
  142.9870   76.5410  219.4440 N   0  0  0  0  0  0  0  0  0  0  0  0
  142.3450   78.7650  220.3290 H   0  0  0  0  0  0  0  0  0  0  0  0
  141.6961   81.1389  219.3329 H   0  0  0  0  0  0  0  0  0  0  0  0
  140.0833   80.1416  219.2554 H   0  0  0  0  0  0  0  0  0  0  0  0
  142.1720   82.3916  222.8543 H   0  0  0  0  0  0  0  0  0  0  0  0
  141.3335   81.7148  224.1955 H   0  0  0  0  0  0  0  0  0  0  0  0
  143.8900   80.7475  222.7911 H   0  0  0  0  0  0  0  0  0  0  0  0
  143.5124   80.6215  224.5150 H   0  0  0  0  0  0  0  0  0  0  0  0
  143.0198   78.6447  222.3645 H   0  0  0  0  0  0  0  0  0  0  0  0
  142.8287   78.3810  224.0769 H   0  0  0  0  0  0  0  0  0  0  0  0
  140.5234   79.4067  224.0249 H   0  0  0  0  0  0  0  0  0  0  0  0
  141.8918   76.7337  222.2578 H   0  0  0  0  0  0  0  0  0  0  0  0
  140.6236   75.2218  219.3286 H   0  0  0  0  0  0  0  0  0  0  0  0
  141.2332   72.9542  218.6286 H   0  0  0  0  0  0  0  0  0  0  0  0
  141.2973   71.0984  220.2816 H   0  0  0  0  0  0  0  0  0  0  0  0
  140.7122   71.6477  222.6659 H   0  0  0  0  0  0  0  0  0  0  0  0
  137.7351   75.8223  221.4703 H   0  0  0  0  0  0  0  0  0  0  0  0
  142.2447   76.9660  216.1625 H   0  0  0  0  0  0  0  0  0  0  0  0
  143.5552   74.8403  216.0078 H   0  0  0  0  0  0  0  0  0  0  0  0
  144.8347   73.0619  217.1518 H   0  0  0  0  0  0  0  0  0  0  0  0
  145.3140   73.2835  221.4003 H   0  0  0  0  0  0  0  0  0  0  0  0
  144.0081   75.3868  221.5003 H   0  0  0  0  0  0  0  0  0  0  0  0
  1  2  2  0
  2  3  1  0
  3  4  1  0
  4  5  1  0
  5  6  2  0
  5  7  1  0
  7  8  1  0
  8  9  1  0
  9 10  1  0
 10 11  1  0
 11 12  1  0
 12 13  2  0
 13 14  1  0
 14 15  1  0
 15 16  2  0
 16 17  1  0
 17 18  2  0
 18 19  1  0
 19 20  2  0
 14 21  2  0
 21 22  1  0
  2 23  1  0
 23 24  2  0
 24 25  1  0
 25 26  2  0
 26 27  1  0
 27 28  2  0
 28 29  1  0
 28 30  1  0
 30 31  2  0
 31 32  1  0
 32 33  2  0
 11  7  1  0
 22 12  1  0
 33 23  1  0
 20 15  1  0
 32 26  1  0
  3 34  1  0
  4 35  1  0
  4 36  1  0
  8 37  1  0
  8 38  1  0
  9 39  1  0
  9 40  1  0
 10 41  1  0
 10 42  1  0
 11 43  1  1
 13 44  1  0
 16 45  1  0
 17 46  1  0
 18 47  1  0
 19 48  1  0
 21 49  1  0
 24 50  1  0
 25 51  1  0
 27 52  1  0
 30 53  1  0
 31 54  1  0
M  END
>  <smiles>  (27) 
O=C(NCC(=O)N1CCC[C@@H]1c1cc(-c2ccccn2)cs1)c1ccc2cc(F)ccc2n1

>  <score_type>  (27) 
oracle

>  <origin>  (27) 
autodockgpu

>  <m_score__min__energy>  (27) 
-9.3699999999999992

>  <m_primary>  (27) 
energy

>  <rmsd>  (27) 
8.209484169360778

>  <m_score__min__rmsd>  (27) 
8.209484169360778

>  <meeko>  (27) 
{"free_energy": -7.44, "intermolecular_energy": -9.23, "internal_energy": -3.5, "cluster_size": 30, "cluster_id": 6, "rank_in_cluster": 20}

>  <energy>  (27) 
-7.56

>  <cluster_rmsd>  (27) 
0.98

>  <cluster>  (27) 
6

$$$$

     RDKit          3D

 54 58  0  0  0  0  0  0  0  0999 V2000
  139.8230   77.9120  218.6240 O   0  0  0  0  0  0  0  0  0  0  0  0
  140.9420   77.7700  219.1750 C   0  0  0  0  0  0  0  0  0  0  0  0
  141.5030   78.9140  219.8180 N   0  0  0  0  0  0  0  0  0  0  0  0
  140.9270   80.1930  219.8990 C   0  0  0  0  0  0  0  0  0  0  0  0
  140.9180   80.9630  221.1350 C   0  0  0  0  0  0  0  0  0  0  0  0
  140.3730   82.1390  220.9890 O   0  0  0  0  0  0  0  0  0  0  0  0
  141.3750   80.6870  222.4170 N   0  0  0  0  0  0  0  0  0  0  0  0
  142.2020   81.4290  223.3820 C   0  0  0  0  0  0  0  0  0  0  0  0
  143.2700   80.3600  223.6250 C   0  0  0  0  0  0  0  0  0  0  0  0
  142.5760   79.0200  223.3880 C   0  0  0  0  0  0  0  0  0  0  0  0
  141.1610   79.4400  223.1940 C   0  0  2  0  0  0  0  0  0  0  0  0
  140.3200   78.4530  222.6890 C   0  0  0  0  0  0  0  0  0  0  0  0
  140.5310   77.1240  222.4660 C   0  0  0  0  0  0  0  0  0  0  0  0
  139.5610   76.3520  222.0120 C   0  0  0  0  0  0  0  0  0  0  0  0
  139.7120   74.8950  221.7430 C   0  0  0  0  0  0  0  0  0  0  0  0
  138.6990   74.1550  221.1910 C   0  0  0  0  0  0  0  0  0  0  0  0
  138.8430   72.8140  220.9460 C   0  0  0  0  0  0  0  0  0  0  0  0
  140.0070   72.1670  221.2430 C   0  0  0  0  0  0  0  0  0  0  0  0
  141.0240   72.9450  221.8040 C   0  0  0  0  0  0  0  0  0  0  0  0
  140.8550   74.2560  222.0340 N   0  0  0  0  0  0  0  0  0  0  0  0
  138.3120   76.9410  221.7680 C   0  0  0  0  0  0  0  0  0  0  0  0
  138.5970   78.7220  222.2370 S   0  0  0  0  0  0  0  0  0  0  0  0
  141.6560   76.4860  219.1680 C   0  0  0  0  0  0  0  0  0  0  0  0
  141.0770   75.4320  218.4930 C   0  0  0  0  0  0  0  0  0  0  0  0
  141.7370   74.2120  218.4750 C   0  0  0  0  0  0  0  0  0  0  0  0
  142.9450   74.0810  219.1260 C   0  0  0  0  0  0  0  0  0  0  0  0
  143.6530   72.8790  219.1420 C   0  0  0  0  0  0  0  0  0  0  0  0
  144.8650   72.7910  219.8080 C   0  0  0  0  0  0  0  0  0  0  0  0
  145.5390   71.6090  219.8110 F   0  0  0  0  0  0  0  0  0  0  0  0
  145.3520   73.9110  220.4510 C   0  0  0  0  0  0  0  0  0  0  0  0
  144.6870   75.1200  220.4630 C   0  0  0  0  0  0  0  0  0  0  0  0
  143.4680   75.1850  219.7840 C   0  0  0  0  0  0  0  0  0  0  0  0
  142.8430   76.3770  219.8140 N   0  0  0  0  0  0  0  0  0  0  0  0
  142.4470   78.7480  220.2690 H   0  0  0  0  0  0  0  0  0  0  0  0
  141.4494   80.8126  219.1552 H   0  0  0  0  0  0  0  0  0  0  0  0
  139.8585   79.9720  219.7593 H   0  0  0  0  0  0  0  0  0  0  0  0
  142.6244   82.3471  222.9477 H   0  0  0  0  0  0  0  0  0  0  0  0
  141.6802   81.7984  224.2771 H   0  0  0  0  0  0  0  0  0  0  0  0
  144.1071   80.4877  222.9229 H   0  0  0  0  0  0  0  0  0  0  0  0
  143.6872   80.4268  224.6406 H   0  0  0  0  0  0  0  0  0  0  0  0
  142.9709   78.5172  222.4928 H   0  0  0  0  0  0  0  0  0  0  0  0
  142.7177   78.2947  224.2028 H   0  0  0  0  0  0  0  0  0  0  0  0
  140.5707   79.6224  224.1041 H   0  0  0  0  0  0  0  0  0  0  0  0
  141.5216   76.6901  222.6669 H   0  0  0  0  0  0  0  0  0  0  0  0
  137.7488   74.6484  220.9388 H   0  0  0  0  0  0  0  0  0  0  0  0
  138.0079   72.2512  220.5035 H   0  0  0  0  0  0  0  0  0  0  0  0
  140.1380   71.0918  221.0514 H   0  0  0  0  0  0  0  0  0  0  0  0
  141.9831   72.4723  222.0623 H   0  0  0  0  0  0  0  0  0  0  0  0
  137.3921   76.4688  221.3928 H   0  0  0  0  0  0  0  0  0  0  0  0
  140.1121   75.5561  217.9796 H   0  0  0  0  0  0  0  0  0  0  0  0
  141.2989   73.3539  217.9442 H   0  0  0  0  0  0  0  0  0  0  0  0
  143.2475   71.9975  218.6238 H   0  0  0  0  0  0  0  0  0  0  0  0
  146.3146   73.8364  220.9782 H   0  0  0  0  0  0  0  0  0  0  0  0
  145.0995   75.9958  220.9853 H   0  0  0  0  0  0  0  0  0  0  0  0
  1  2  2  0
  2  3  1  0
  3  4  1  0
  4  5  1  0
  5  6  2  0
  5  7  1  0
  7  8  1  0
  8  9  1  0
  9 10  1  0
 10 11  1  0
 11 12  1  0
 12 13  2  0
 13 14  1  0
 14 15  1  0
 15 16  2  0
 16 17  1  0
 17 18  2  0
 18 19  1  0
 19 20  2  0
 14 21  2  0
 21 22  1  0
  2 23  1  0
 23 24  2  0
 24 25  1  0
 25 26  2  0
 26 27  1  0
 27 28  2  0
 28 29  1  0
 28 30  1  0
 30 31  2  0
 31 32  1  0
 32 33  2  0
 11  7  1  0
 22 12  1  0
 33 23  1  0
 20 15  1  0
 32 26  1  0
  3 34  1  0
  4 35  1  0
  4 36  1  0
  8 37  1  0
  8 38  1  0
  9 39  1  0
  9 40  1  0
 10 41  1  0
 10 42  1  0
 11 43  1  1
 13 44  1  0
 16 45  1  0
 17 46  1  0
 18 47  1  0
 19 48  1  0
 21 49  1  0
 24 50  1  0
 25 51  1  0
 27 52  1  0
 30 53  1  0
 31 54  1  0
M  END
>  <smiles>  (28) 
O=C(NCC(=O)N1CCC[C@@H]1c1cc(-c2ccccn2)cs1)c1ccc2cc(F)ccc2n1

>  <score_type>  (28) 
oracle

>  <origin>  (28) 
autodockgpu

>  <m_score__min__energy>  (28) 
-9.3699999999999992

>  <m_primary>  (28) 
energy

>  <rmsd>  (28) 
7.7163912852379095

>  <m_score__min__rmsd>  (28) 
7.7163912852379095

>  <meeko>  (28) 
{"free_energy": -6.81, "intermolecular_energy": -8.6, "internal_energy": -3.88, "cluster_size": 30, "cluster_id": 6, "rank_in_cluster": 27}

>  <energy>  (28) 
-7.53

>  <cluster_rmsd>  (28) 
0.95

>  <cluster>  (28) 
6

$$$$

     RDKit          3D

 54 58  0  0  0  0  0  0  0  0999 V2000
  137.9250   71.4090  222.5320 O   0  0  0  0  0  0  0  0  0  0  0  0
  139.0750   71.3110  223.0230 C   0  0  0  0  0  0  0  0  0  0  0  0
  140.1070   72.1000  222.4310 N   0  0  0  0  0  0  0  0  0  0  0  0
  139.9660   72.9820  221.3470 C   0  0  0  0  0  0  0  0  0  0  0  0
  140.9430   74.0230  221.0610 C   0  0  0  0  0  0  0  0  0  0  0  0
  140.8550   75.0330  221.8820 O   0  0  0  0  0  0  0  0  0  0  0  0
  141.9340   74.1420  220.0950 N   0  0  0  0  0  0  0  0  0  0  0  0
  142.7830   73.1720  219.3860 C   0  0  0  0  0  0  0  0  0  0  0  0
  144.1450   73.7820  219.7260 C   0  0  0  0  0  0  0  0  0  0  0  0
  143.8940   75.2770  219.9130 C   0  0  0  0  0  0  0  0  0  0  0  0
  142.4670   75.4000  219.5110 C   0  0  2  0  0  0  0  0  0  0  0  0
  141.8670   76.6130  219.8330 C   0  0  0  0  0  0  0  0  0  0  0  0
  142.1600   77.5260  220.8040 C   0  0  0  0  0  0  0  0  0  0  0  0
  141.4730   78.6490  220.9040 C   0  0  0  0  0  0  0  0  0  0  0  0
  141.7300   79.6940  221.9350 C   0  0  0  0  0  0  0  0  0  0  0  0
  142.5140   79.4490  223.0320 C   0  0  0  0  0  0  0  0  0  0  0  0
  142.7460   80.4140  223.9770 C   0  0  0  0  0  0  0  0  0  0  0  0
  142.2020   81.6600  223.8560 C   0  0  0  0  0  0  0  0  0  0  0  0
  141.4070   81.8830  222.7290 C   0  0  0  0  0  0  0  0  0  0  0  0
  141.1960   80.9190  221.8200 N   0  0  0  0  0  0  0  0  0  0  0  0
  140.4400   78.8720  219.9830 C   0  0  0  0  0  0  0  0  0  0  0  0
  140.4940   77.3410  218.9230 S   0  0  0  0  0  0  0  0  0  0  0  0
  139.3650   70.4270  224.1600 C   0  0  0  0  0  0  0  0  0  0  0  0
  138.8900   69.1340  224.1050 C   0  0  0  0  0  0  0  0  0  0  0  0
  139.1540   68.2830  225.1690 C   0  0  0  0  0  0  0  0  0  0  0  0
  139.8770   68.7450  226.2480 C   0  0  0  0  0  0  0  0  0  0  0  0
  140.1720   67.9370  227.3470 C   0  0  0  0  0  0  0  0  0  0  0  0
  140.9030   68.4420  228.4100 C   0  0  0  0  0  0  0  0  0  0  0  0
  141.1780   67.6360  229.4710 F   0  0  0  0  0  0  0  0  0  0  0  0
  141.3280   69.7540  228.3590 C   0  0  0  0  0  0  0  0  0  0  0  0
  141.0600   70.5910  227.2950 C   0  0  0  0  0  0  0  0  0  0  0  0
  140.3230   70.0600  226.2350 C   0  0  0  0  0  0  0  0  0  0  0  0
  140.0770   70.9000  225.2120 N   0  0  0  0  0  0  0  0  0  0  0  0
  141.0610   71.9860  222.8770 H   0  0  0  0  0  0  0  0  0  0  0  0
  139.9138   72.3541  220.4453 H   0  0  0  0  0  0  0  0  0  0  0  0
  139.0854   73.5705  221.6442 H   0  0  0  0  0  0  0  0  0  0  0  0
  142.6726   72.1531  219.7855 H   0  0  0  0  0  0  0  0  0  0  0  0
  142.5698   73.0399  218.3150 H   0  0  0  0  0  0  0  0  0  0  0  0
  144.5421   73.3411  220.6522 H   0  0  0  0  0  0  0  0  0  0  0  0
  144.8843   73.5906  218.9343 H   0  0  0  0  0  0  0  0  0  0  0  0
  144.0425   75.5799  220.9600 H   0  0  0  0  0  0  0  0  0  0  0  0
  144.5759   75.9183  219.3353 H   0  0  0  0  0  0  0  0  0  0  0  0
  142.2630   75.4691  218.4323 H   0  0  0  0  0  0  0  0  0  0  0  0
  142.9778   77.3240  221.5114 H   0  0  0  0  0  0  0  0  0  0  0  0
  142.9676   78.4547  223.1569 H   0  0  0  0  0  0  0  0  0  0  0  0
  143.3797   80.1811  224.8455 H   0  0  0  0  0  0  0  0  0  0  0  0
  142.3798   82.4457  224.6050 H   0  0  0  0  0  0  0  0  0  0  0  0
  140.9441   82.8702  222.5838 H   0  0  0  0  0  0  0  0  0  0  0  0
  139.7647   79.7369  219.9054 H   0  0  0  0  0  0  0  0  0  0  0  0
  138.3137   68.7841  223.2358 H   0  0  0  0  0  0  0  0  0  0  0  0
  138.7884   67.2457  225.1515 H   0  0  0  0  0  0  0  0  0  0  0  0
  139.8225   66.8942  227.3693 H   0  0  0  0  0  0  0  0  0  0  0  0
  141.9072   70.1510  229.2057 H   0  0  0  0  0  0  0  0  0  0  0  0
  141.4124   71.6330  227.2827 H   0  0  0  0  0  0  0  0  0  0  0  0
  1  2  2  0
  2  3  1  0
  3  4  1  0
  4  5  1  0
  5  6  2  0
  5  7  1  0
  7  8  1  0
  8  9  1  0
  9 10  1  0
 10 11  1  0
 11 12  1  0
 12 13  2  0
 13 14  1  0
 14 15  1  0
 15 16  2  0
 16 17  1  0
 17 18  2  0
 18 19  1  0
 19 20  2  0
 14 21  2  0
 21 22  1  0
  2 23  1  0
 23 24  2  0
 24 25  1  0
 25 26  2  0
 26 27  1  0
 27 28  2  0
 28 29  1  0
 28 30  1  0
 30 31  2  0
 31 32  1  0
 32 33  2  0
 11  7  1  0
 22 12  1  0
 33 23  1  0
 20 15  1  0
 32 26  1  0
  3 34  1  0
  4 35  1  0
  4 36  1  0
  8 37  1  0
  8 38  1  0
  9 39  1  0
  9 40  1  0
 10 41  1  0
 10 42  1  0
 11 43  1  6
 13 44  1  0
 16 45  1  0
 17 46  1  0
 18 47  1  0
 19 48  1  0
 21 49  1  0
 24 50  1  0
 25 51  1  0
 27 52  1  0
 30 53  1  0
 31 54  1  0
M  END
>  <smiles>  (29) 
O=C(NCC(=O)N1CCC[C@@H]1c1cc(-c2ccccn2)cs1)c1ccc2cc(F)ccc2n1

>  <score_type>  (29) 
oracle

>  <origin>  (29) 
autodockgpu

>  <m_score__min__energy>  (29) 
-9.3699999999999992

>  <m_primary>  (29) 
energy

>  <rmsd>  (29) 
2.5142576209034595

>  <m_score__min__rmsd>  (29) 
2.5142576209034595

>  <meeko>  (29) 
{"free_energy": -9.05, "intermolecular_energy": -10.84, "internal_energy": -1.44, "cluster_size": 8, "cluster_id": 1, "rank_in_cluster": 3}

>  <energy>  (29) 
-7.51

>  <cluster_rmsd>  (29) 
0.92

>  <cluster>  (29) 
6

$$$$

     RDKit          3D

 54 58  0  0  0  0  0  0  0  0999 V2000
  140.8240   78.1480  217.6120 O   0  0  0  0  0  0  0  0  0  0  0  0
  141.6870   77.9290  218.4950 C   0  0  0  0  0  0  0  0  0  0  0  0
  141.8300   78.9070  219.5250 N   0  0  0  0  0  0  0  0  0  0  0  0
  141.0970   80.0980  219.6530 C   0  0  0  0  0  0  0  0  0  0  0  0
  140.6770   80.6160  220.9470 C   0  0  0  0  0  0  0  0  0  0  0  0
  139.6470   81.4110  220.8600 O   0  0  0  0  0  0  0  0  0  0  0  0
  141.1590   80.4280  222.2360 N   0  0  0  0  0  0  0  0  0  0  0  0
  141.8610   81.2960  223.1950 C   0  0  0  0  0  0  0  0  0  0  0  0
  143.0730   80.3990  223.4590 C   0  0  0  0  0  0  0  0  0  0  0  0
  142.5850   78.9690  223.2380 C   0  0  0  0  0  0  0  0  0  0  0  0
  141.1250   79.1720  223.0300 C   0  0  2  0  0  0  0  0  0  0  0  0
  140.4420   78.0660  222.5340 C   0  0  0  0  0  0  0  0  0  0  0  0
  140.9000   76.8810  222.0360 C   0  0  0  0  0  0  0  0  0  0  0  0
  140.0570   75.9390  221.6540 C   0  0  0  0  0  0  0  0  0  0  0  0
  140.4760   74.6200  221.1010 C   0  0  0  0  0  0  0  0  0  0  0  0
  140.8920   73.5970  221.9120 C   0  0  0  0  0  0  0  0  0  0  0  0
  141.2760   72.3860  221.3980 C   0  0  0  0  0  0  0  0  0  0  0  0
  141.2560   72.1560  220.0520 C   0  0  0  0  0  0  0  0  0  0  0  0
  140.8270   73.2160  219.2490 C   0  0  0  0  0  0  0  0  0  0  0  0
  140.4570   74.3910  219.7790 N   0  0  0  0  0  0  0  0  0  0  0  0
  138.6840   76.1950  221.7770 C   0  0  0  0  0  0  0  0  0  0  0  0
  138.6480   77.9150  222.4930 S   0  0  0  0  0  0  0  0  0  0  0  0
  142.5240   76.7220  218.4850 C   0  0  0  0  0  0  0  0  0  0  0  0
  142.8870   76.2020  217.2600 C   0  0  0  0  0  0  0  0  0  0  0  0
  143.6770   75.0620  217.2300 C   0  0  0  0  0  0  0  0  0  0  0  0
  144.0780   74.4780  218.4130 C   0  0  0  0  0  0  0  0  0  0  0  0
  144.8720   73.3320  218.4440 C   0  0  0  0  0  0  0  0  0  0  0  0
  145.2520   72.7790  219.6560 C   0  0  0  0  0  0  0  0  0  0  0  0
  146.0270   71.6590  219.6630 F   0  0  0  0  0  0  0  0  0  0  0  0
  144.8300   73.3830  220.8230 C   0  0  0  0  0  0  0  0  0  0  0  0
  144.0440   74.5170  220.8420 C   0  0  0  0  0  0  0  0  0  0  0  0
  143.6740   75.0570  219.6090 C   0  0  0  0  0  0  0  0  0  0  0  0
  142.9070   76.1620  219.6590 N   0  0  0  0  0  0  0  0  0  0  0  0
  142.5700   78.6810  220.2490 H   0  0  0  0  0  0  0  0  0  0  0  0
  141.7095   80.8863  219.1911 H   0  0  0  0  0  0  0  0  0  0  0  0
  140.1357   79.8250  219.1933 H   0  0  0  0  0  0  0  0  0  0  0  0
  142.1471   82.2605  222.7501 H   0  0  0  0  0  0  0  0  0  0  0  0
  141.2839   81.5961  224.0821 H   0  0  0  0  0  0  0  0  0  0  0  0
  143.8872   80.6388  222.7593 H   0  0  0  0  0  0  0  0  0  0  0  0
  143.4688   80.5403  224.4756 H   0  0  0  0  0  0  0  0  0  0  0  0
  143.0564   78.5176  222.3525 H   0  0  0  0  0  0  0  0  0  0  0  0
  142.8254   78.2844  224.0647 H   0  0  0  0  0  0  0  0  0  0  0  0
  140.5075   79.2759  223.9344 H   0  0  0  0  0  0  0  0  0  0  0  0
  141.9831   76.7085  221.9518 H   0  0  0  0  0  0  0  0  0  0  0  0
  140.9184   73.7513  223.0008 H   0  0  0  0  0  0  0  0  0  0  0  0
  141.6051   71.5877  222.0795 H   0  0  0  0  0  0  0  0  0  0  0  0
  141.5607   71.1897  219.6237 H   0  0  0  0  0  0  0  0  0  0  0  0
  140.7920   73.0837  218.1575 H   0  0  0  0  0  0  0  0  0  0  0  0
  137.8379   75.5424  221.5156 H   0  0  0  0  0  0  0  0  0  0  0  0
  142.5570   76.6812  216.3265 H   0  0  0  0  0  0  0  0  0  0  0  0
  143.9820   74.6261  216.2672 H   0  0  0  0  0  0  0  0  0  0  0  0
  145.1978   72.8654  217.5026 H   0  0  0  0  0  0  0  0  0  0  0  0
  145.1344   72.9398  221.7826 H   0  0  0  0  0  0  0  0  0  0  0  0
  143.7226   74.9760  221.7886 H   0  0  0  0  0  0  0  0  0  0  0  0
  1  2  2  0
  2  3  1  0
  3  4  1  0
  4  5  1  0
  5  6  2  0
  5  7  1  0
  7  8  1  0
  8  9  1  0
  9 10  1  0
 10 11  1  0
 11 12  1  0
 12 13  2  0
 13 14  1  0
 14 15  1  0
 15 16  2  0
 16 17  1  0
 17 18  2  0
 18 19  1  0
 19 20  2  0
 14 21  2  0
 21 22  1  0
  2 23  1  0
 23 24  2  0
 24 25  1  0
 25 26  2  0
 26 27  1  0
 27 28  2  0
 28 29  1  0
 28 30  1  0
 30 31  2  0
 31 32  1  0
 32 33  2  0
 11  7  1  0
 22 12  1  0
 33 23  1  0
 20 15  1  0
 32 26  1  0
  3 34  1  0
  4 35  1  0
  4 36  1  0
  8 37  1  0
  8 38  1  0
  9 39  1  0
  9 40  1  0
 10 41  1  0
 10 42  1  0
 11 43  1  1
 13 44  1  0
 16 45  1  0
 17 46  1  0
 18 47  1  0
 19 48  1  0
 21 49  1  0
 24 50  1  0
 25 51  1  0
 27 52  1  0
 30 53  1  0
 31 54  1  0
M  END
>  <smiles>  (30) 
O=C(NCC(=O)N1CCC[C@@H]1c1cc(-c2ccccn2)cs1)c1ccc2cc(F)ccc2n1

>  <score_type>  (30) 
oracle

>  <origin>  (30) 
autodockgpu

>  <m_score__min__energy>  (30) 
-9.3699999999999992

>  <m_primary>  (30) 
energy

>  <rmsd>  (30) 
8.144499393814856

>  <m_score__min__rmsd>  (30) 
8.144499393814856

>  <meeko>  (30) 
{"free_energy": -6.73, "intermolecular_energy": -8.52, "internal_energy": -3.7, "cluster_size": 30, "cluster_id": 6, "rank_in_cluster": 29}

>  <energy>  (30) 
-7.5

>  <cluster_rmsd>  (30) 
0.91

>  <cluster>  (30) 
6

$$$$

     RDKit          3D

 54 58  0  0  0  0  0  0  0  0999 V2000
  142.3770   77.0530  217.6990 O   0  0  0  0  0  0  0  0  0  0  0  0
  142.4860   77.6780  218.7810 C   0  0  0  0  0  0  0  0  0  0  0  0
  142.9570   76.9470  219.9130 N   0  0  0  0  0  0  0  0  0  0  0  0
  143.3140   75.5890  219.9390 C   0  0  0  0  0  0  0  0  0  0  0  0
  142.3370   74.5260  219.7480 C   0  0  0  0  0  0  0  0  0  0  0  0
  141.9950   74.3770  218.4980 O   0  0  0  0  0  0  0  0  0  0  0  0
  141.7100   73.6560  220.6310 N   0  0  0  0  0  0  0  0  0  0  0  0
  141.7950   72.2050  220.8600 C   0  0  0  0  0  0  0  0  0  0  0  0
  140.3070   71.8720  220.7140 C   0  0  0  0  0  0  0  0  0  0  0  0
  139.5570   73.1330  221.1370 C   0  0  0  0  0  0  0  0  0  0  0  0
  140.6650   73.9960  221.6300 C   0  0  2  0  0  0  0  0  0  0  0  0
  140.3230   75.3290  221.8390 C   0  0  0  0  0  0  0  0  0  0  0  0
  141.0770   76.3960  222.2300 C   0  0  0  0  0  0  0  0  0  0  0  0
  140.5460   77.6010  222.3240 C   0  0  0  0  0  0  0  0  0  0  0  0
  141.3010   78.8150  222.7440 C   0  0  0  0  0  0  0  0  0  0  0  0
  140.7300   79.7840  223.5260 C   0  0  0  0  0  0  0  0  0  0  0  0
  141.4300   80.8990  223.9090 C   0  0  0  0  0  0  0  0  0  0  0  0
  142.7260   81.0830  223.5230 C   0  0  0  0  0  0  0  0  0  0  0  0
  143.2830   80.0790  222.7250 C   0  0  0  0  0  0  0  0  0  0  0  0
  142.5750   78.9980  222.3650 N   0  0  0  0  0  0  0  0  0  0  0  0
  139.1870   77.7460  222.0090 C   0  0  0  0  0  0  0  0  0  0  0  0
  138.6810   76.0130  221.5540 S   0  0  0  0  0  0  0  0  0  0  0  0
  142.1470   79.1030  218.8950 C   0  0  0  0  0  0  0  0  0  0  0  0
  142.8300   79.9920  218.0920 C   0  0  0  0  0  0  0  0  0  0  0  0
  142.5240   81.3420  218.1860 C   0  0  0  0  0  0  0  0  0  0  0  0
  141.5550   81.7620  219.0720 C   0  0  0  0  0  0  0  0  0  0  0  0
  141.2050   83.1060  219.2100 C   0  0  0  0  0  0  0  0  0  0  0  0
  140.2240   83.4830  220.1120 C   0  0  0  0  0  0  0  0  0  0  0  0
  139.9000   84.8000  220.2300 F   0  0  0  0  0  0  0  0  0  0  0  0
  139.6050   82.5070  220.8660 C   0  0  0  0  0  0  0  0  0  0  0  0
  139.9170   81.1670  220.7650 C   0  0  0  0  0  0  0  0  0  0  0  0
  140.9080   80.8100  219.8480 C   0  0  0  0  0  0  0  0  0  0  0  0
  141.1910   79.4960  219.7720 N   0  0  0  0  0  0  0  0  0  0  0  0
  143.0330   77.5130  220.8040 H   0  0  0  0  0  0  0  0  0  0  0  0
  144.0707   75.4554  219.1519 H   0  0  0  0  0  0  0  0  0  0  0  0
  143.6024   75.4484  220.9912 H   0  0  0  0  0  0  0  0  0  0  0  0
  142.4104   71.6998  220.1010 H   0  0  0  0  0  0  0  0  0  0  0  0
  142.2663   71.8945  221.8042 H   0  0  0  0  0  0  0  0  0  0  0  0
  140.0716   71.6180  219.6699 H   0  0  0  0  0  0  0  0  0  0  0  0
  140.0230   71.0055  221.3293 H   0  0  0  0  0  0  0  0  0  0  0  0
  139.0383   73.5954  220.2843 H   0  0  0  0  0  0  0  0  0  0  0  0
  138.7678   72.9529  221.8818 H   0  0  0  0  0  0  0  0  0  0  0  0
  141.0102   73.8165  222.6589 H   0  0  0  0  0  0  0  0  0  0  0  0
  142.1406   76.2508  222.4700 H   0  0  0  0  0  0  0  0  0  0  0  0
  139.6868   79.6649  223.8539 H   0  0  0  0  0  0  0  0  0  0  0  0
  140.9393   81.6570  224.5372 H   0  0  0  0  0  0  0  0  0  0  0  0
  143.3005   81.9718  223.8230 H   0  0  0  0  0  0  0  0  0  0  0  0
  144.3245   80.1777  222.3850 H   0  0  0  0  0  0  0  0  0  0  0  0
  138.5722   78.6580  222.0265 H   0  0  0  0  0  0  0  0  0  0  0  0
  143.6011   79.6383  217.3918 H   0  0  0  0  0  0  0  0  0  0  0  0
  143.0520   82.0736  217.5567 H   0  0  0  0  0  0  0  0  0  0  0  0
  141.7104   83.8690  218.5998 H   0  0  0  0  0  0  0  0  0  0  0  0
  138.8265   82.8117  221.5809 H   0  0  0  0  0  0  0  0  0  0  0  0
  139.4068   80.4116  221.3807 H   0  0  0  0  0  0  0  0  0  0  0  0
  1  2  2  0
  2  3  1  0
  3  4  1  0
  4  5  1  0
  5  6  2  0
  5  7  1  0
  7  8  1  0
  8  9  1  0
  9 10  1  0
 10 11  1  0
 11 12  1  0
 12 13  2  0
 13 14  1  0
 14 15  1  0
 15 16  2  0
 16 17  1  0
 17 18  2  0
 18 19  1  0
 19 20  2  0
 14 21  2  0
 21 22  1  0
  2 23  1  0
 23 24  2  0
 24 25  1  0
 25 26  2  0
 26 27  1  0
 27 28  2  0
 28 29  1  0
 28 30  1  0
 30 31  2  0
 31 32  1  0
 32 33  2  0
 11  7  1  0
 22 12  1  0
 33 23  1  0
 20 15  1  0
 32 26  1  0
  3 34  1  0
  4 35  1  0
  4 36  1  0
  8 37  1  0
  8 38  1  0
  9 39  1  0
  9 40  1  0
 10 41  1  0
 10 42  1  0
 11 43  1  1
 13 44  1  0
 16 45  1  0
 17 46  1  0
 18 47  1  0
 19 48  1  0
 21 49  1  0
 24 50  1  0
 25 51  1  0
 27 52  1  0
 30 53  1  0
 31 54  1  0
M  END
>  <smiles>  (31) 
O=C(NCC(=O)N1CCC[C@@H]1c1cc(-c2ccccn2)cs1)c1ccc2cc(F)ccc2n1

>  <score_type>  (31) 
oracle

>  <origin>  (31) 
autodockgpu

>  <m_score__min__energy>  (31) 
-9.3699999999999992

>  <m_primary>  (31) 
energy

>  <rmsd>  (31) 
9.56433631024834

>  <m_score__min__rmsd>  (31) 
9.56433631024834

>  <meeko>  (31) 
{"free_energy": -6.84, "intermolecular_energy": -8.63, "internal_energy": -3.83, "cluster_size": 5, "cluster_id": 7, "rank_in_cluster": 4}

>  <energy>  (31) 
-7.48

>  <cluster_rmsd>  (31) 
0.79

>  <cluster>  (31) 
6

$$$$

     RDKit          3D

 54 58  0  0  0  0  0  0  0  0999 V2000
  140.1900   77.4830  219.4850 O   0  0  0  0  0  0  0  0  0  0  0  0
  141.4330   77.3130  219.5060 C   0  0  0  0  0  0  0  0  0  0  0  0
  142.2480   78.4790  219.6220 N   0  0  0  0  0  0  0  0  0  0  0  0
  141.7980   79.8070  219.7160 C   0  0  0  0  0  0  0  0  0  0  0  0
  140.8800   80.2430  220.7590 C   0  0  0  0  0  0  0  0  0  0  0  0
  139.7190   80.6060  220.2860 O   0  0  0  0  0  0  0  0  0  0  0  0
  141.0040   80.3440  222.1390 N   0  0  0  0  0  0  0  0  0  0  0  0
  141.6330   81.3310  223.0310 C   0  0  0  0  0  0  0  0  0  0  0  0
  142.5380   80.3750  223.8130 C   0  0  0  0  0  0  0  0  0  0  0  0
  141.8260   79.0240  223.7950 C   0  0  0  0  0  0  0  0  0  0  0  0
  140.5290   79.3700  223.1540 C   0  0  2  0  0  0  0  0  0  0  0  0
  139.7620   78.2810  222.7530 C   0  0  0  0  0  0  0  0  0  0  0  0
  140.0980   76.9730  222.5570 C   0  0  0  0  0  0  0  0  0  0  0  0
  139.1850   76.0860  222.2100 C   0  0  0  0  0  0  0  0  0  0  0  0
  139.4710   74.6420  221.9770 C   0  0  0  0  0  0  0  0  0  0  0  0
  138.4670   73.7340  221.7630 C   0  0  0  0  0  0  0  0  0  0  0  0
  138.7360   72.4070  221.5490 C   0  0  0  0  0  0  0  0  0  0  0  0
  140.0190   71.9420  221.5410 C   0  0  0  0  0  0  0  0  0  0  0  0
  141.0230   72.8900  221.7620 C   0  0  0  0  0  0  0  0  0  0  0  0
  140.7310   74.1830  221.9690 N   0  0  0  0  0  0  0  0  0  0  0  0
  137.8640   76.5290  222.0510 C   0  0  0  0  0  0  0  0  0  0  0  0
  137.9900   78.3480  222.4360 S   0  0  0  0  0  0  0  0  0  0  0  0
  142.0390   75.9790  219.4170 C   0  0  0  0  0  0  0  0  0  0  0  0
  141.3370   74.9970  218.7510 C   0  0  0  0  0  0  0  0  0  0  0  0
  141.8940   73.7300  218.6570 C   0  0  0  0  0  0  0  0  0  0  0  0
  143.1250   73.4820  219.2250 C   0  0  0  0  0  0  0  0  0  0  0  0
  143.7340   72.2280  219.1620 C   0  0  0  0  0  0  0  0  0  0  0  0
  144.9730   72.0230  219.7470 C   0  0  0  0  0  0  0  0  0  0  0  0
  145.5480   70.7920  219.6730 F   0  0  0  0  0  0  0  0  0  0  0  0
  145.5870   73.0790  220.3890 C   0  0  0  0  0  0  0  0  0  0  0  0
  145.0240   74.3360  220.4770 C   0  0  0  0  0  0  0  0  0  0  0  0
  143.7750   74.5190  219.8800 C   0  0  0  0  0  0  0  0  0  0  0  0
  143.2510   75.7550  219.9830 N   0  0  0  0  0  0  0  0  0  0  0  0
  143.2900   78.2900  219.6370 H   0  0  0  0  0  0  0  0  0  0  0  0
  142.6988   80.4297  219.8199 H   0  0  0  0  0  0  0  0  0  0  0  0
  141.1794   79.9036  218.8116 H   0  0  0  0  0  0  0  0  0  0  0  0
  142.2079   82.0864  222.4753 H   0  0  0  0  0  0  0  0  0  0  0  0
  140.9444   81.9414  223.6336 H   0  0  0  0  0  0  0  0  0  0  0  0
  143.5223   80.2962  223.3284 H   0  0  0  0  0  0  0  0  0  0  0  0
  142.7112   80.7289  224.8400 H   0  0  0  0  0  0  0  0  0  0  0  0
  142.3828   78.2861  223.1988 H   0  0  0  0  0  0  0  0  0  0  0  0
  141.7222   78.5627  224.7882 H   0  0  0  0  0  0  0  0  0  0  0  0
  139.7567   79.8035  223.8064 H   0  0  0  0  0  0  0  0  0  0  0  0
  141.1424   76.6544  222.6899 H   0  0  0  0  0  0  0  0  0  0  0  0
  137.4221   74.0777  221.7630 H   0  0  0  0  0  0  0  0  0  0  0  0
  137.9049   71.7062  221.3811 H   0  0  0  0  0  0  0  0  0  0  0  0
  140.2506   70.8803  221.3702 H   0  0  0  0  0  0  0  0  0  0  0  0
  142.0750   72.5686  221.7662 H   0  0  0  0  0  0  0  0  0  0  0  0
  136.9741   75.9471  221.7690 H   0  0  0  0  0  0  0  0  0  0  0  0
  140.3558   75.2136  218.3035 H   0  0  0  0  0  0  0  0  0  0  0  0
  141.3558   72.9272  218.1317 H   0  0  0  0  0  0  0  0  0  0  0  0
  143.2282   71.3988  218.6457 H   0  0  0  0  0  0  0  0  0  0  0  0
  146.5706   72.9111  220.8520 H   0  0  0  0  0  0  0  0  0  0  0  0
  145.5375   75.1590  220.9956 H   0  0  0  0  0  0  0  0  0  0  0  0
  1  2  2  0
  2  3  1  0
  3  4  1  0
  4  5  1  0
  5  6  2  0
  5  7  1  0
  7  8  1  0
  8  9  1  0
  9 10  1  0
 10 11  1  0
 11 12  1  0
 12 13  2  0
 13 14  1  0
 14 15  1  0
 15 16  2  0
 16 17  1  0
 17 18  2  0
 18 19  1  0
 19 20  2  0
 14 21  2  0
 21 22  1  0
  2 23  1  0
 23 24  2  0
 24 25  1  0
 25 26  2  0
 26 27  1  0
 27 28  2  0
 28 29  1  0
 28 30  1  0
 30 31  2  0
 31 32  1  0
 32 33  2  0
 11  7  1  0
 22 12  1  0
 33 23  1  0
 20 15  1  0
 32 26  1  0
  3 34  1  0
  4 35  1  0
  4 36  1  0
  8 37  1  0
  8 38  1  0
  9 39  1  0
  9 40  1  0
 10 41  1  0
 10 42  1  0
 11 43  1  1
 13 44  1  0
 16 45  1  0
 17 46  1  0
 18 47  1  0
 19 48  1  0
 21 49  1  0
 24 50  1  0
 25 51  1  0
 27 52  1  0
 30 53  1  0
 31 54  1  0
M  END
>  <smiles>  (32) 
O=C(NCC(=O)N1CCC[C@@H]1c1cc(-c2ccccn2)cs1)c1ccc2cc(F)ccc2n1

>  <score_type>  (32) 
oracle

>  <origin>  (32) 
autodockgpu

>  <m_score__min__energy>  (32) 
-9.3699999999999992

>  <m_primary>  (32) 
energy

>  <rmsd>  (32) 
7.647477770517551

>  <m_score__min__rmsd>  (32) 
7.647477770517551

>  <meeko>  (32) 
{"free_energy": -7.56, "intermolecular_energy": -9.35, "internal_energy": -3.46, "cluster_size": 30, "cluster_id": 6, "rank_in_cluster": 14}

>  <energy>  (32) 
-7.45

>  <cluster_rmsd>  (32) 
1.04

>  <cluster>  (32) 
6

$$$$

     RDKit          3D

 54 58  0  0  0  0  0  0  0  0999 V2000
  138.9310   71.2410  221.2090 O   0  0  0  0  0  0  0  0  0  0  0  0
  139.2070   71.7730  222.3110 C   0  0  0  0  0  0  0  0  0  0  0  0
  139.2270   73.2000  222.3610 N   0  0  0  0  0  0  0  0  0  0  0  0
  138.9660   74.0760  221.2940 C   0  0  0  0  0  0  0  0  0  0  0  0
  139.6910   74.0010  220.0330 C   0  0  0  0  0  0  0  0  0  0  0  0
  139.0080   74.4810  219.0310 O   0  0  0  0  0  0  0  0  0  0  0  0
  140.9520   73.5200  219.7010 N   0  0  0  0  0  0  0  0  0  0  0  0
  141.4940   72.1730  219.4610 C   0  0  0  0  0  0  0  0  0  0  0  0
  142.6440   72.2160  220.4700 C   0  0  0  0  0  0  0  0  0  0  0  0
  143.0370   73.6870  220.5890 C   0  0  0  0  0  0  0  0  0  0  0  0
  142.1960   74.3140  219.5330 C   0  0  2  0  0  0  0  0  0  0  0  0
  142.1340   75.7030  219.5780 C   0  0  0  0  0  0  0  0  0  0  0  0
  141.9590   76.5580  220.6270 C   0  0  0  0  0  0  0  0  0  0  0  0
  141.9760   77.8650  220.4430 C   0  0  0  0  0  0  0  0  0  0  0  0
  141.7910   78.8630  221.5340 C   0  0  0  0  0  0  0  0  0  0  0  0
  141.4510   78.4850  222.8070 C   0  0  0  0  0  0  0  0  0  0  0  0
  141.2830   79.4080  223.8070 C   0  0  0  0  0  0  0  0  0  0  0  0
  141.4500   80.7410  223.5670 C   0  0  0  0  0  0  0  0  0  0  0  0
  141.7960   81.0980  222.2610 C   0  0  0  0  0  0  0  0  0  0  0  0
  141.9540   80.1740  221.3020 N   0  0  0  0  0  0  0  0  0  0  0  0
  142.1800   78.3430  219.1410 C   0  0  0  0  0  0  0  0  0  0  0  0
  142.3550   76.7760  218.1480 S   0  0  0  0  0  0  0  0  0  0  0  0
  139.5000   70.9770  223.5100 C   0  0  0  0  0  0  0  0  0  0  0  0
  139.2290   69.6260  223.4650 C   0  0  0  0  0  0  0  0  0  0  0  0
  139.4990   68.8560  224.5880 C   0  0  0  0  0  0  0  0  0  0  0  0
  140.0270   69.4530  225.7130 C   0  0  0  0  0  0  0  0  0  0  0  0
  140.3180   68.7310  226.8700 C   0  0  0  0  0  0  0  0  0  0  0  0
  140.8490   69.3710  227.9780 C   0  0  0  0  0  0  0  0  0  0  0  0
  141.1250   68.6470  229.0970 F   0  0  0  0  0  0  0  0  0  0  0  0
  141.0800   70.7300  227.9120 C   0  0  0  0  0  0  0  0  0  0  0  0
  140.8080   71.4860  226.7900 C   0  0  0  0  0  0  0  0  0  0  0  0
  140.2740   70.8190  225.6850 C   0  0  0  0  0  0  0  0  0  0  0  0
  140.0190   71.5820  224.6060 N   0  0  0  0  0  0  0  0  0  0  0  0
  139.4640   73.6060  223.3100 H   0  0  0  0  0  0  0  0  0  0  0  0
  137.9024   73.9476  221.0446 H   0  0  0  0  0  0  0  0  0  0  0  0
  139.3107   75.0389  221.6991 H   0  0  0  0  0  0  0  0  0  0  0  0
  140.7646   71.3837  219.6955 H   0  0  0  0  0  0  0  0  0  0  0  0
  141.7749   71.9464  218.4219 H   0  0  0  0  0  0  0  0  0  0  0  0
  142.3134   71.8276  221.4446 H   0  0  0  0  0  0  0  0  0  0  0  0
  143.4918   71.5950  220.1449 H   0  0  0  0  0  0  0  0  0  0  0  0
  142.7940   74.0871  221.5844 H   0  0  0  0  0  0  0  0  0  0  0  0
  144.1147   73.8711  220.4676 H   0  0  0  0  0  0  0  0  0  0  0  0
  142.5781   74.2626  218.5028 H   0  0  0  0  0  0  0  0  0  0  0  0
  141.8019   76.1533  221.6377 H   0  0  0  0  0  0  0  0  0  0  0  0
  141.3098   77.4174  223.0313 H   0  0  0  0  0  0  0  0  0  0  0  0
  141.0097   79.0691  224.8172 H   0  0  0  0  0  0  0  0  0  0  0  0
  141.3193   81.4936  224.3586 H   0  0  0  0  0  0  0  0  0  0  0  0
  141.9419   82.1600  222.0142 H   0  0  0  0  0  0  0  0  0  0  0  0
  142.2255   79.3852  218.7920 H   0  0  0  0  0  0  0  0  0  0  0  0
  138.8076   69.1678  222.5581 H   0  0  0  0  0  0  0  0  0  0  0  0
  139.2928   67.7755  224.5804 H   0  0  0  0  0  0  0  0  0  0  0  0
  140.1251   67.6486  226.9030 H   0  0  0  0  0  0  0  0  0  0  0  0
  141.5005   71.2340  228.7947 H   0  0  0  0  0  0  0  0  0  0  0  0
  141.0035   72.5682  226.7668 H   0  0  0  0  0  0  0  0  0  0  0  0
  1  2  2  0
  2  3  1  0
  3  4  1  0
  4  5  1  0
  5  6  2  0
  5  7  1  0
  7  8  1  0
  8  9  1  0
  9 10  1  0
 10 11  1  0
 11 12  1  0
 12 13  2  0
 13 14  1  0
 14 15  1  0
 15 16  2  0
 16 17  1  0
 17 18  2  0
 18 19  1  0
 19 20  2  0
 14 21  2  0
 21 22  1  0
  2 23  1  0
 23 24  2  0
 24 25  1  0
 25 26  2  0
 26 27  1  0
 27 28  2  0
 28 29  1  0
 28 30  1  0
 30 31  2  0
 31 32  1  0
 32 33  2  0
 11  7  1  0
 22 12  1  0
 33 23  1  0
 20 15  1  0
 32 26  1  0
  3 34  1  0
  4 35  1  0
  4 36  1  0
  8 37  1  0
  8 38  1  0
  9 39  1  0
  9 40  1  0
 10 41  1  0
 10 42  1  0
 11 43  1  6
 13 44  1  0
 16 45  1  0
 17 46  1  0
 18 47  1  0
 19 48  1  0
 21 49  1  0
 24 50  1  0
 25 51  1  0
 27 52  1  0
 30 53  1  0
 31 54  1  0
M  END
>  <smiles>  (33) 
O=C(NCC(=O)N1CCC[C@@H]1c1cc(-c2ccccn2)cs1)c1ccc2cc(F)ccc2n1

>  <score_type>  (33) 
oracle

>  <origin>  (33) 
autodockgpu

>  <m_score__min__energy>  (33) 
-9.3699999999999992

>  <m_primary>  (33) 
energy

>  <rmsd>  (33) 
2.3134589062382047

>  <m_score__min__rmsd>  (33) 
2.3134589062382047

>  <meeko>  (33) 
{"free_energy": -8.44, "intermolecular_energy": -10.23, "internal_energy": -2.14, "cluster_size": 8, "cluster_id": 1, "rank_in_cluster": 8}

>  <energy>  (33) 
-7.44

>  <cluster_rmsd>  (33) 
1.06

>  <cluster>  (33) 
6

$$$$

     RDKit          3D

 54 58  0  0  0  0  0  0  0  0999 V2000
  141.9790   77.3290  217.7210 O   0  0  0  0  0  0  0  0  0  0  0  0
  142.1850   77.8960  218.8210 C   0  0  0  0  0  0  0  0  0  0  0  0
  142.8060   77.1220  219.8470 N   0  0  0  0  0  0  0  0  0  0  0  0
  143.2150   75.7810  219.7500 C   0  0  0  0  0  0  0  0  0  0  0  0
  142.2620   74.6880  219.6150 C   0  0  0  0  0  0  0  0  0  0  0  0
  141.7420   74.6200  218.4200 O   0  0  0  0  0  0  0  0  0  0  0  0
  141.8080   73.7220  220.5030 N   0  0  0  0  0  0  0  0  0  0  0  0
  142.0570   72.2790  220.6480 C   0  0  0  0  0  0  0  0  0  0  0  0
  140.6040   71.8000  220.6160 C   0  0  0  0  0  0  0  0  0  0  0  0
  139.7740   72.9570  221.1680 C   0  0  0  0  0  0  0  0  0  0  0  0
  140.8310   73.9090  221.6060 C   0  0  2  0  0  0  0  0  0  0  0  0
  140.3790   75.1890  221.9120 C   0  0  0  0  0  0  0  0  0  0  0  0
  141.0610   76.3290  222.2220 C   0  0  0  0  0  0  0  0  0  0  0  0
  140.4200   77.4620  222.4390 C   0  0  0  0  0  0  0  0  0  0  0  0
  141.0900   78.7470  222.7830 C   0  0  0  0  0  0  0  0  0  0  0  0
  140.4650   79.7090  223.5330 C   0  0  0  0  0  0  0  0  0  0  0  0
  141.0870   80.8900  223.8460 C   0  0  0  0  0  0  0  0  0  0  0  0
  142.3570   81.1490  223.4190 C   0  0  0  0  0  0  0  0  0  0  0  0
  142.9710   80.1520  222.6560 C   0  0  0  0  0  0  0  0  0  0  0  0
  142.3380   79.0050  222.3650 N   0  0  0  0  0  0  0  0  0  0  0  0
  139.0210   77.4550  222.3400 C   0  0  0  0  0  0  0  0  0  0  0  0
  138.6460   75.6830  221.9050 S   0  0  0  0  0  0  0  0  0  0  0  0
  141.8090   79.2950  219.0600 C   0  0  0  0  0  0  0  0  0  0  0  0
  142.5610   80.2760  218.4480 C   0  0  0  0  0  0  0  0  0  0  0  0
  142.2220   81.6040  218.6620 C   0  0  0  0  0  0  0  0  0  0  0  0
  141.1500   81.9120  219.4730 C   0  0  0  0  0  0  0  0  0  0  0  0
  140.7620   83.2280  219.7250 C   0  0  0  0  0  0  0  0  0  0  0  0
  139.6780   83.4920  220.5460 C   0  0  0  0  0  0  0  0  0  0  0  0
  139.3180   84.7840  220.7770 F   0  0  0  0  0  0  0  0  0  0  0  0
  138.9960   82.4320  221.1060 C   0  0  0  0  0  0  0  0  0  0  0  0
  139.3430   81.1140  220.8870 C   0  0  0  0  0  0  0  0  0  0  0  0
  140.4380   80.8720  220.0550 C   0  0  0  0  0  0  0  0  0  0  0  0
  140.7520   79.5770  219.8610 N   0  0  0  0  0  0  0  0  0  0  0  0
  142.9610   77.6390  220.7580 H   0  0  0  0  0  0  0  0  0  0  0  0
  143.8745   75.7238  218.8715 H   0  0  0  0  0  0  0  0  0  0  0  0
  143.6354   75.5966  220.7496 H   0  0  0  0  0  0  0  0  0  0  0  0
  142.6467   71.8732  219.8128 H   0  0  0  0  0  0  0  0  0  0  0  0
  142.6419   71.9792  221.5301 H   0  0  0  0  0  0  0  0  0  0  0  0
  140.2996   71.5676  219.5848 H   0  0  0  0  0  0  0  0  0  0  0  0
  140.4661   70.8833  221.2081 H   0  0  0  0  0  0  0  0  0  0  0  0
  139.1350   73.3987  220.3892 H   0  0  0  0  0  0  0  0  0  0  0  0
  139.0791   72.6641  221.9688 H   0  0  0  0  0  0  0  0  0  0  0  0
  141.2854   73.7230  222.5903 H   0  0  0  0  0  0  0  0  0  0  0  0
  142.1585   76.3036  222.2920 H   0  0  0  0  0  0  0  0  0  0  0  0
  139.4409   79.5294  223.8920 H   0  0  0  0  0  0  0  0  0  0  0  0
  140.5547   81.6396  224.4500 H   0  0  0  0  0  0  0  0  0  0  0  0
  142.8696   82.0914  223.6622 H   0  0  0  0  0  0  0  0  0  0  0  0
  143.9947   80.3108  222.2862 H   0  0  0  0  0  0  0  0  0  0  0  0
  138.3189   78.2895  222.4837 H   0  0  0  0  0  0  0  0  0  0  0  0
  143.4120   80.0108  217.8035 H   0  0  0  0  0  0  0  0  0  0  0  0
  142.8051   82.4070  218.1874 H   0  0  0  0  0  0  0  0  0  0  0  0
  141.3194   84.0599  219.2697 H   0  0  0  0  0  0  0  0  0  0  0  0
  138.1359   82.6468  221.7572 H   0  0  0  0  0  0  0  0  0  0  0  0
  138.7805   80.2890  221.3485 H   0  0  0  0  0  0  0  0  0  0  0  0
  1  2  2  0
  2  3  1  0
  3  4  1  0
  4  5  1  0
  5  6  2  0
  5  7  1  0
  7  8  1  0
  8  9  1  0
  9 10  1  0
 10 11  1  0
 11 12  1  0
 12 13  2  0
 13 14  1  0
 14 15  1  0
 15 16  2  0
 16 17  1  0
 17 18  2  0
 18 19  1  0
 19 20  2  0
 14 21  2  0
 21 22  1  0
  2 23  1  0
 23 24  2  0
 24 25  1  0
 25 26  2  0
 26 27  1  0
 27 28  2  0
 28 29  1  0
 28 30  1  0
 30 31  2  0
 31 32  1  0
 32 33  2  0
 11  7  1  0
 22 12  1  0
 33 23  1  0
 20 15  1  0
 32 26  1  0
  3 34  1  0
  4 35  1  0
  4 36  1  0
  8 37  1  0
  8 38  1  0
  9 39  1  0
  9 40  1  0
 10 41  1  0
 10 42  1  0
 11 43  1  1
 13 44  1  0
 16 45  1  0
 17 46  1  0
 18 47  1  0
 19 48  1  0
 21 49  1  0
 24 50  1  0
 25 51  1  0
 27 52  1  0
 30 53  1  0
 31 54  1  0
M  END
>  <smiles>  (34) 
O=C(NCC(=O)N1CCC[C@@H]1c1cc(-c2ccccn2)cs1)c1ccc2cc(F)ccc2n1

>  <score_type>  (34) 
oracle

>  <origin>  (34) 
autodockgpu

>  <m_score__min__energy>  (34) 
-9.3699999999999992

>  <m_primary>  (34) 
energy

>  <rmsd>  (34) 
9.520433752445582

>  <m_score__min__rmsd>  (34) 
9.520433752445582

>  <meeko>  (34) 
{"free_energy": -6.72, "intermolecular_energy": -8.51, "internal_energy": -3.9, "cluster_size": 5, "cluster_id": 7, "rank_in_cluster": 5}

>  <energy>  (34) 
-7.41

>  <cluster_rmsd>  (34) 
0.96

>  <cluster>  (34) 
6

$$$$

     RDKit          3D

 54 58  0  0  0  0  0  0  0  0999 V2000
  142.9770   78.7110  218.5170 O   0  0  0  0  0  0  0  0  0  0  0  0
  142.4490   77.6670  218.9690 C   0  0  0  0  0  0  0  0  0  0  0  0
  141.1850   77.8030  219.6190 N   0  0  0  0  0  0  0  0  0  0  0  0
  140.4660   78.9960  219.8040 C   0  0  0  0  0  0  0  0  0  0  0  0
  140.9720   80.0870  220.6250 C   0  0  0  0  0  0  0  0  0  0  0  0
  141.3460   81.1170  219.9170 O   0  0  0  0  0  0  0  0  0  0  0  0
  141.1320   80.2360  221.9970 N   0  0  0  0  0  0  0  0  0  0  0  0
  141.6540   81.3170  222.8470 C   0  0  0  0  0  0  0  0  0  0  0  0
  142.7070   80.5090  223.6100 C   0  0  0  0  0  0  0  0  0  0  0  0
  142.1840   79.0740  223.6430 C   0  0  0  0  0  0  0  0  0  0  0  0
  140.8290   79.2300  223.0470 C   0  0  2  0  0  0  0  0  0  0  0  0
  140.2020   78.0380  222.6950 C   0  0  0  0  0  0  0  0  0  0  0  0
  140.7170   76.8250  222.3440 C   0  0  0  0  0  0  0  0  0  0  0  0
  139.9230   75.8030  222.0860 C   0  0  0  0  0  0  0  0  0  0  0  0
  140.4060   74.4480  221.6970 C   0  0  0  0  0  0  0  0  0  0  0  0
  141.0910   74.2350  220.5290 C   0  0  0  0  0  0  0  0  0  0  0  0
  141.5330   72.9860  220.1760 C   0  0  0  0  0  0  0  0  0  0  0  0
  141.3060   71.9080  220.9810 C   0  0  0  0  0  0  0  0  0  0  0  0
  140.6060   72.1530  222.1650 C   0  0  0  0  0  0  0  0  0  0  0  0
  140.1840   73.3860  222.4850 N   0  0  0  0  0  0  0  0  0  0  0  0
  138.5380   76.0050  222.1840 C   0  0  0  0  0  0  0  0  0  0  0  0
  138.4160   77.7960  222.6820 S   0  0  0  0  0  0  0  0  0  0  0  0
  143.0900   76.3520  218.8440 C   0  0  0  0  0  0  0  0  0  0  0  0
  142.9520   75.6810  217.6470 C   0  0  0  0  0  0  0  0  0  0  0  0
  143.5510   74.4370  217.5090 C   0  0  0  0  0  0  0  0  0  0  0  0
  144.2640   73.9040  218.5620 C   0  0  0  0  0  0  0  0  0  0  0  0
  144.8870   72.6580  218.4820 C   0  0  0  0  0  0  0  0  0  0  0  0
  145.5950   72.1600  219.5640 C   0  0  0  0  0  0  0  0  0  0  0  0
  146.1940   70.9420  219.4640 F   0  0  0  0  0  0  0  0  0  0  0  0
  145.6670   72.9170  220.7150 C   0  0  0  0  0  0  0  0  0  0  0  0
  145.0670   74.1540  220.8410 C   0  0  0  0  0  0  0  0  0  0  0  0
  144.3610   74.6360  219.7370 C   0  0  0  0  0  0  0  0  0  0  0  0
  143.7870   75.8440  219.8910 N   0  0  0  0  0  0  0  0  0  0  0  0
  140.7760   76.8980  219.9850 H   0  0  0  0  0  0  0  0  0  0  0  0
  140.3050   79.4162  218.8003 H   0  0  0  0  0  0  0  0  0  0  0  0
  139.5993   78.6528  220.3880 H   0  0  0  0  0  0  0  0  0  0  0  0
  142.1017   82.1302  222.2568 H   0  0  0  0  0  0  0  0  0  0  0  0
  140.9113   81.8424  223.4654 H   0  0  0  0  0  0  0  0  0  0  0  0
  143.6750   80.5524  223.0894 H   0  0  0  0  0  0  0  0  0  0  0  0
  142.8671   80.9059  224.6233 H   0  0  0  0  0  0  0  0  0  0  0  0
  142.8130   78.4044  223.0380 H   0  0  0  0  0  0  0  0  0  0  0  0
  142.1800   78.6243  224.6469 H   0  0  0  0  0  0  0  0  0  0  0  0
  140.0294   79.5718  223.7206 H   0  0  0  0  0  0  0  0  0  0  0  0
  141.8073   76.6969  222.2751 H   0  0  0  0  0  0  0  0  0  0  0  0
  141.2906   75.0850  219.8600 H   0  0  0  0  0  0  0  0  0  0  0  0
  142.0784   72.8511  219.2303 H   0  0  0  0  0  0  0  0  0  0  0  0
  141.6554   70.9002  220.7122 H   0  0  0  0  0  0  0  0  0  0  0  0
  140.3964   71.3176  222.8493 H   0  0  0  0  0  0  0  0  0  0  0  0
  137.7254   75.2843  222.0099 H   0  0  0  0  0  0  0  0  0  0  0  0
  142.3788   76.1229  216.8187 H   0  0  0  0  0  0  0  0  0  0  0  0
  143.4576   73.8795  216.5654 H   0  0  0  0  0  0  0  0  0  0  0  0
  144.8157   72.0685  217.5560 H   0  0  0  0  0  0  0  0  0  0  0  0
  146.2284   72.5165  221.5720 H   0  0  0  0  0  0  0  0  0  0  0  0
  145.1420   74.7353  221.7718 H   0  0  0  0  0  0  0  0  0  0  0  0
  1  2  2  0
  2  3  1  0
  3  4  1  0
  4  5  1  0
  5  6  2  0
  5  7  1  0
  7  8  1  0
  8  9  1  0
  9 10  1  0
 10 11  1  0
 11 12  1  0
 12 13  2  0
 13 14  1  0
 14 15  1  0
 15 16  2  0
 16 17  1  0
 17 18  2  0
 18 19  1  0
 19 20  2  0
 14 21  2  0
 21 22  1  0
  2 23  1  0
 23 24  2  0
 24 25  1  0
 25 26  2  0
 26 27  1  0
 27 28  2  0
 28 29  1  0
 28 30  1  0
 30 31  2  0
 31 32  1  0
 32 33  2  0
 11  7  1  0
 22 12  1  0
 33 23  1  0
 20 15  1  0
 32 26  1  0
  3 34  1  0
  4 35  1  0
  4 36  1  0
  8 37  1  0
  8 38  1  0
  9 39  1  0
  9 40  1  0
 10 41  1  0
 10 42  1  0
 11 43  1  1
 13 44  1  0
 16 45  1  0
 17 46  1  0
 18 47  1  0
 19 48  1  0
 21 49  1  0
 24 50  1  0
 25 51  1  0
 27 52  1  0
 30 53  1  0
 31 54  1  0
M  END
>  <smiles>  (35) 
O=C(NCC(=O)N1CCC[C@@H]1c1cc(-c2ccccn2)cs1)c1ccc2cc(F)ccc2n1

>  <score_type>  (35) 
oracle

>  <origin>  (35) 
autodockgpu

>  <m_score__min__energy>  (35) 
-9.3699999999999992

>  <m_primary>  (35) 
energy

>  <rmsd>  (35) 
7.818520191341883

>  <m_score__min__rmsd>  (35) 
7.818520191341883

>  <meeko>  (35) 
{"free_energy": -7.89, "intermolecular_energy": -9.68, "internal_energy": -2.81, "cluster_size": 30, "cluster_id": 6, "rank_in_cluster": 5}

>  <energy>  (35) 
-7.37

>  <cluster_rmsd>  (35) 
1.06

>  <cluster>  (35) 
6

$$$$

     RDKit          3D

 54 58  0  0  0  0  0  0  0  0999 V2000
  140.7010   77.0250  219.0740 O   0  0  0  0  0  0  0  0  0  0  0  0
  141.9550   77.0620  219.0960 C   0  0  0  0  0  0  0  0  0  0  0  0
  142.5680   78.3460  219.2120 N   0  0  0  0  0  0  0  0  0  0  0  0
  141.9070   79.5820  219.3050 C   0  0  0  0  0  0  0  0  0  0  0  0
  140.9720   79.8820  220.3810 C   0  0  0  0  0  0  0  0  0  0  0  0
  139.7360   79.9530  219.9660 O   0  0  0  0  0  0  0  0  0  0  0  0
  141.1430   80.1050  221.7410 N   0  0  0  0  0  0  0  0  0  0  0  0
  141.6900   81.2240  222.5250 C   0  0  0  0  0  0  0  0  0  0  0  0
  142.7340   80.4420  223.3260 C   0  0  0  0  0  0  0  0  0  0  0  0
  142.1870   79.0210  223.4430 C   0  0  0  0  0  0  0  0  0  0  0  0
  140.8300   79.1660  222.8480 C   0  0  2  0  0  0  0  0  0  0  0  0
  140.1810   77.9680  222.5680 C   0  0  0  0  0  0  0  0  0  0  0  0
  140.6730   76.7300  222.2710 C   0  0  0  0  0  0  0  0  0  0  0  0
  139.8600   75.7090  222.0780 C   0  0  0  0  0  0  0  0  0  0  0  0
  140.3170   74.3290  221.7510 C   0  0  0  0  0  0  0  0  0  0  0  0
  140.7420   73.9890  220.4930 C   0  0  0  0  0  0  0  0  0  0  0  0
  141.1610   72.7180  220.1970 C   0  0  0  0  0  0  0  0  0  0  0  0
  141.1720   71.7430  221.1510 C   0  0  0  0  0  0  0  0  0  0  0  0
  140.7350   72.1160  222.4250 C   0  0  0  0  0  0  0  0  0  0  0  0
  140.3290   73.3680  222.6870 N   0  0  0  0  0  0  0  0  0  0  0  0
  138.4800   75.9360  222.1900 C   0  0  0  0  0  0  0  0  0  0  0  0
  138.3920   77.7510  222.5980 S   0  0  0  0  0  0  0  0  0  0  0  0
  142.7720   75.8450  219.0080 C   0  0  0  0  0  0  0  0  0  0  0  0
  142.6160   75.0460  217.8960 C   0  0  0  0  0  0  0  0  0  0  0  0
  143.3790   73.8910  217.7940 C   0  0  0  0  0  0  0  0  0  0  0  0
  144.2680   73.5710  218.7980 C   0  0  0  0  0  0  0  0  0  0  0  0
  145.0610   72.4240  218.7510 C   0  0  0  0  0  0  0  0  0  0  0  0
  145.9430   72.1420  219.7820 C   0  0  0  0  0  0  0  0  0  0  0  0
  146.7060   71.0170  219.7150 F   0  0  0  0  0  0  0  0  0  0  0  0
  146.0170   73.0130  220.8490 C   0  0  0  0  0  0  0  0  0  0  0  0
  145.2520   74.1590  220.9400 C   0  0  0  0  0  0  0  0  0  0  0  0
  144.3730   74.4240  219.8890 C   0  0  0  0  0  0  0  0  0  0  0  0
  143.6400   75.5480  220.0060 N   0  0  0  0  0  0  0  0  0  0  0  0
  143.6270   78.3300  219.2270 H   0  0  0  0  0  0  0  0  0  0  0  0
  142.6945   80.3481  219.3598 H   0  0  0  0  0  0  0  0  0  0  0  0
  141.2450   79.5546  218.4269 H   0  0  0  0  0  0  0  0  0  0  0  0
  142.1475   81.9942  221.8866 H   0  0  0  0  0  0  0  0  0  0  0  0
  140.9611   81.7971  223.1169 H   0  0  0  0  0  0  0  0  0  0  0  0
  143.6990   80.4391  222.7980 H   0  0  0  0  0  0  0  0  0  0  0  0
  142.9078   80.8924  224.3144 H   0  0  0  0  0  0  0  0  0  0  0  0
  142.8001   78.3078  222.8726 H   0  0  0  0  0  0  0  0  0  0  0  0
  142.1828   78.6289  224.4707 H   0  0  0  0  0  0  0  0  0  0  0  0
  140.0411   79.5586  223.5063 H   0  0  0  0  0  0  0  0  0  0  0  0
  141.7601   76.5818  222.1916 H   0  0  0  0  0  0  0  0  0  0  0  0
  140.7469   74.7540  219.7026 H   0  0  0  0  0  0  0  0  0  0  0  0
  141.4932   72.4808  219.1755 H   0  0  0  0  0  0  0  0  0  0  0  0
  141.5067   70.7188  220.9296 H   0  0  0  0  0  0  0  0  0  0  0  0
  140.7236   71.3670  223.2306 H   0  0  0  0  0  0  0  0  0  0  0  0
  137.6545   75.2194  222.0672 H   0  0  0  0  0  0  0  0  0  0  0  0
  141.9013   75.3181  217.1053 H   0  0  0  0  0  0  0  0  0  0  0  0
  143.2750   73.2348  216.9173 H   0  0  0  0  0  0  0  0  0  0  0  0
  144.9858   71.7408  217.8922 H   0  0  0  0  0  0  0  0  0  0  0  0
  146.7179   72.7841  221.6653 H   0  0  0  0  0  0  0  0  0  0  0  0
  145.3321   74.8345  221.8045 H   0  0  0  0  0  0  0  0  0  0  0  0
  1  2  2  0
  2  3  1  0
  3  4  1  0
  4  5  1  0
  5  6  2  0
  5  7  1  0
  7  8  1  0
  8  9  1  0
  9 10  1  0
 10 11  1  0
 11 12  1  0
 12 13  2  0
 13 14  1  0
 14 15  1  0
 15 16  2  0
 16 17  1  0
 17 18  2  0
 18 19  1  0
 19 20  2  0
 14 21  2  0
 21 22  1  0
  2 23  1  0
 23 24  2  0
 24 25  1  0
 25 26  2  0
 26 27  1  0
 27 28  2  0
 28 29  1  0
 28 30  1  0
 30 31  2  0
 31 32  1  0
 32 33  2  0
 11  7  1  0
 22 12  1  0
 33 23  1  0
 20 15  1  0
 32 26  1  0
  3 34  1  0
  4 35  1  0
  4 36  1  0
  8 37  1  0
  8 38  1  0
  9 39  1  0
  9 40  1  0
 10 41  1  0
 10 42  1  0
 11 43  1  1
 13 44  1  0
 16 45  1  0
 17 46  1  0
 18 47  1  0
 19 48  1  0
 21 49  1  0
 24 50  1  0
 25 51  1  0
 27 52  1  0
 30 53  1  0
 31 54  1  0
M  END
>  <smiles>  (36) 
O=C(NCC(=O)N1CCC[C@@H]1c1cc(-c2ccccn2)cs1)c1ccc2cc(F)ccc2n1

>  <score_type>  (36) 
oracle

>  <origin>  (36) 
autodockgpu

>  <m_score__min__energy>  (36) 
-9.3699999999999992

>  <m_primary>  (36) 
energy

>  <rmsd>  (36) 
7.800580497558307

>  <m_score__min__rmsd>  (36) 
7.800580497558307

>  <meeko>  (36) 
{"free_energy": -8.04, "intermolecular_energy": -9.83, "internal_energy": -3.19, "cluster_size": 30, "cluster_id": 6, "rank_in_cluster": 1}

>  <energy>  (36) 
-7.34

>  <cluster_rmsd>  (36) 
1.09

>  <cluster>  (36) 
6

$$$$

     RDKit          3D

 54 58  0  0  0  0  0  0  0  0999 V2000
  139.6040   70.6890  221.4420 O   0  0  0  0  0  0  0  0  0  0  0  0
  139.6840   71.1950  222.5870 C   0  0  0  0  0  0  0  0  0  0  0  0
  139.7090   72.6200  222.6700 N   0  0  0  0  0  0  0  0  0  0  0  0
  139.6540   73.5200  221.5930 C   0  0  0  0  0  0  0  0  0  0  0  0
  140.7850   74.3600  221.2240 C   0  0  0  0  0  0  0  0  0  0  0  0
  140.8830   75.4260  221.9690 O   0  0  0  0  0  0  0  0  0  0  0  0
  141.7630   74.2420  220.2440 N   0  0  0  0  0  0  0  0  0  0  0  0
  142.4650   73.0980  219.6430 C   0  0  0  0  0  0  0  0  0  0  0  0
  143.9010   73.5590  219.9030 C   0  0  0  0  0  0  0  0  0  0  0  0
  143.8480   75.0850  219.9250 C   0  0  0  0  0  0  0  0  0  0  0  0
  142.4400   75.3480  219.5200 C   0  0  2  0  0  0  0  0  0  0  0  0
  142.0090   76.6570  219.7090 C   0  0  0  0  0  0  0  0  0  0  0  0
  142.2030   77.5230  220.7450 C   0  0  0  0  0  0  0  0  0  0  0  0
  141.7300   78.7540  220.6940 C   0  0  0  0  0  0  0  0  0  0  0  0
  141.8990   79.7580  221.7820 C   0  0  0  0  0  0  0  0  0  0  0  0
  141.3250   81.0010  221.7120 C   0  0  0  0  0  0  0  0  0  0  0  0
  141.4840   81.9210  222.7150 C   0  0  0  0  0  0  0  0  0  0  0  0
  142.2220   81.6290  223.8260 C   0  0  0  0  0  0  0  0  0  0  0  0
  142.7950   80.3550  223.8710 C   0  0  0  0  0  0  0  0  0  0  0  0
  142.6230   79.4740  222.8740 N   0  0  0  0  0  0  0  0  0  0  0  0
  141.0250   79.1410  219.5450 C   0  0  0  0  0  0  0  0  0  0  0  0
  141.0700   77.6020  218.4960 S   0  0  0  0  0  0  0  0  0  0  0  0
  139.7480   70.3710  223.8010 C   0  0  0  0  0  0  0  0  0  0  0  0
  139.1880   69.1130  223.7540 C   0  0  0  0  0  0  0  0  0  0  0  0
  139.2390   68.3190  224.8910 C   0  0  0  0  0  0  0  0  0  0  0  0
  139.8420   68.8020  226.0330 C   0  0  0  0  0  0  0  0  0  0  0  0
  139.9220   68.0500  227.2050 C   0  0  0  0  0  0  0  0  0  0  0  0
  140.5390   68.5740  228.3300 C   0  0  0  0  0  0  0  0  0  0  0  0
  140.6050   67.8230  229.4630 F   0  0  0  0  0  0  0  0  0  0  0  0
  141.0660   69.8480  228.2650 C   0  0  0  0  0  0  0  0  0  0  0  0
  141.0090   70.6290  227.1290 C   0  0  0  0  0  0  0  0  0  0  0  0
  140.3850   70.0790  226.0070 C   0  0  0  0  0  0  0  0  0  0  0  0
  140.3450   70.8640  224.9140 N   0  0  0  0  0  0  0  0  0  0  0  0
  139.7770   73.0050  223.6550 H   0  0  0  0  0  0  0  0  0  0  0  0
  139.4149   72.9192  220.7031 H   0  0  0  0  0  0  0  0  0  0  0  0
  138.9261   74.2622  221.9526 H   0  0  0  0  0  0  0  0  0  0  0  0
  142.2330   72.1525  220.1551 H   0  0  0  0  0  0  0  0  0  0  0  0
  142.2140   72.8776  218.5950 H   0  0  0  0  0  0  0  0  0  0  0  0
  144.2584   73.1737  220.8694 H   0  0  0  0  0  0  0  0  0  0  0  0
  144.5922   73.1880  219.1319 H   0  0  0  0  0  0  0  0  0  0  0  0
  144.0552   75.4783  220.9312 H   0  0  0  0  0  0  0  0  0  0  0  0
  144.5948   75.5655  219.2759 H   0  0  0  0  0  0  0  0  0  0  0  0
  142.2230   75.3243  218.4419 H   0  0  0  0  0  0  0  0  0  0  0  0
  142.7603   77.1913  221.6335 H   0  0  0  0  0  0  0  0  0  0  0  0
  140.7229   81.2659  220.8304 H   0  0  0  0  0  0  0  0  0  0  0  0
  141.0100   82.9094  222.6237 H   0  0  0  0  0  0  0  0  0  0  0  0
  142.3580   82.3559  224.6403 H   0  0  0  0  0  0  0  0  0  0  0  0
  143.4005   80.0683  224.7434 H   0  0  0  0  0  0  0  0  0  0  0  0
  140.5607   80.1123  219.3192 H   0  0  0  0  0  0  0  0  0  0  0  0
  138.7102   68.7455  222.8339 H   0  0  0  0  0  0  0  0  0  0  0  0
  138.8009   67.3101  224.8812 H   0  0  0  0  0  0  0  0  0  0  0  0
  139.4938   67.0373  227.2365 H   0  0  0  0  0  0  0  0  0  0  0  0
  141.5542   70.2599  229.1606 H   0  0  0  0  0  0  0  0  0  0  0  0
  141.4370   71.6421  227.1079 H   0  0  0  0  0  0  0  0  0  0  0  0
  1  2  2  0
  2  3  1  0
  3  4  1  0
  4  5  1  0
  5  6  2  0
  5  7  1  0
  7  8  1  0
  8  9  1  0
  9 10  1  0
 10 11  1  0
 11 12  1  0
 12 13  2  0
 13 14  1  0
 14 15  1  0
 15 16  2  0
 16 17  1  0
 17 18  2  0
 18 19  1  0
 19 20  2  0
 14 21  2  0
 21 22  1  0
  2 23  1  0
 23 24  2  0
 24 25  1  0
 25 26  2  0
 26 27  1  0
 27 28  2  0
 28 29  1  0
 28 30  1  0
 30 31  2  0
 31 32  1  0
 32 33  2  0
 11  7  1  0
 22 12  1  0
 33 23  1  0
 20 15  1  0
 32 26  1  0
  3 34  1  0
  4 35  1  0
  4 36  1  0
  8 37  1  0
  8 38  1  0
  9 39  1  0
  9 40  1  0
 10 41  1  0
 10 42  1  0
 11 43  1  6
 13 44  1  0
 16 45  1  0
 17 46  1  0
 18 47  1  0
 19 48  1  0
 21 49  1  0
 24 50  1  0
 25 51  1  0
 27 52  1  0
 30 53  1  0
 31 54  1  0
M  END
>  <smiles>  (37) 
O=C(NCC(=O)N1CCC[C@@H]1c1cc(-c2ccccn2)cs1)c1ccc2cc(F)ccc2n1

>  <score_type>  (37) 
oracle

>  <origin>  (37) 
autodockgpu

>  <m_score__min__energy>  (37) 
-9.3699999999999992

>  <m_primary>  (37) 
energy

>  <rmsd>  (37) 
1.944639837759749

>  <m_score__min__rmsd>  (37) 
1.944639837759749

>  <meeko>  (37) 
{"free_energy": -9.37, "intermolecular_energy": -11.16, "internal_energy": -1.6, "cluster_size": 8, "cluster_id": 1, "rank_in_cluster": 1}

>  <energy>  (37) 
-7.25

>  <cluster_rmsd>  (37) 
1.33

>  <cluster>  (37) 
6

$$$$

     RDKit          3D

 54 58  0  0  0  0  0  0  0  0999 V2000
  141.1810   77.9650  217.5400 O   0  0  0  0  0  0  0  0  0  0  0  0
  142.0160   77.7080  218.4400 C   0  0  0  0  0  0  0  0  0  0  0  0
  142.1990   78.6890  219.4600 N   0  0  0  0  0  0  0  0  0  0  0  0
  141.5340   79.9230  219.5600 C   0  0  0  0  0  0  0  0  0  0  0  0
  140.8260   80.3260  220.7670 C   0  0  0  0  0  0  0  0  0  0  0  0
  139.6260   80.7740  220.5190 O   0  0  0  0  0  0  0  0  0  0  0  0
  141.1810   80.3260  222.1100 N   0  0  0  0  0  0  0  0  0  0  0  0
  141.8160   81.3180  222.9920 C   0  0  0  0  0  0  0  0  0  0  0  0
  142.9720   80.4520  223.5010 C   0  0  0  0  0  0  0  0  0  0  0  0
  142.4650   79.0120  223.4480 C   0  0  0  0  0  0  0  0  0  0  0  0
  141.0380   79.2040  223.0730 C   0  0  2  0  0  0  0  0  0  0  0  0
  140.3720   78.0460  222.6830 C   0  0  0  0  0  0  0  0  0  0  0  0
  140.8470   76.8380  222.2660 C   0  0  0  0  0  0  0  0  0  0  0  0
  140.0200   75.8490  221.9810 C   0  0  0  0  0  0  0  0  0  0  0  0
  140.4590   74.5010  221.5200 C   0  0  0  0  0  0  0  0  0  0  0  0
  140.9370   74.2930  220.2530 C   0  0  0  0  0  0  0  0  0  0  0  0
  141.3390   73.0510  219.8340 C   0  0  0  0  0  0  0  0  0  0  0  0
  141.2780   71.9740  220.6700 C   0  0  0  0  0  0  0  0  0  0  0  0
  140.7870   72.2150  221.9560 C   0  0  0  0  0  0  0  0  0  0  0  0
  140.4000   73.4410  222.3400 N   0  0  0  0  0  0  0  0  0  0  0  0
  138.6440   76.0810  222.1210 C   0  0  0  0  0  0  0  0  0  0  0  0
  138.5810   77.8490  222.7030 S   0  0  0  0  0  0  0  0  0  0  0  0
  142.7820   76.4540  218.4580 C   0  0  0  0  0  0  0  0  0  0  0  0
  142.8390   75.7200  217.2930 C   0  0  0  0  0  0  0  0  0  0  0  0
  143.5580   74.5320  217.2910 C   0  0  0  0  0  0  0  0  0  0  0  0
  144.1920   74.1170  218.4420 C   0  0  0  0  0  0  0  0  0  0  0  0
  144.9280   72.9330  218.4990 C   0  0  0  0  0  0  0  0  0  0  0  0
  145.5510   72.5540  219.6780 C   0  0  0  0  0  0  0  0  0  0  0  0
  146.2630   71.3950  219.7110 F   0  0  0  0  0  0  0  0  0  0  0  0
  145.4270   73.3680  220.7850 C   0  0  0  0  0  0  0  0  0  0  0  0
  144.7090   74.5470  220.7770 C   0  0  0  0  0  0  0  0  0  0  0  0
  144.0910   74.9090  219.5780 C   0  0  0  0  0  0  0  0  0  0  0  0
  143.3990   76.0630  219.6000 N   0  0  0  0  0  0  0  0  0  0  0  0
  142.9130   78.4320  220.1990 H   0  0  0  0  0  0  0  0  0  0  0  0
  142.2937   80.6971  219.3765 H   0  0  0  0  0  0  0  0  0  0  0  0
  140.7103   79.7985  218.8417 H   0  0  0  0  0  0  0  0  0  0  0  0
  142.1701   82.2001  222.4383 H   0  0  0  0  0  0  0  0  0  0  0  0
  141.1685   81.7573  223.7652 H   0  0  0  0  0  0  0  0  0  0  0  0
  143.8542   80.5719  222.8550 H   0  0  0  0  0  0  0  0  0  0  0  0
  143.2757   80.7380  224.5188 H   0  0  0  0  0  0  0  0  0  0  0  0
  143.0031   78.4259  222.6885 H   0  0  0  0  0  0  0  0  0  0  0  0
  142.6076   78.4553  224.3859 H   0  0  0  0  0  0  0  0  0  0  0  0
  140.3427   79.4522  223.8885 H   0  0  0  0  0  0  0  0  0  0  0  0
  141.9318   76.6856  222.1659 H   0  0  0  0  0  0  0  0  0  0  0  0
  140.9997   75.1417  219.5561 H   0  0  0  0  0  0  0  0  0  0  0  0
  141.7162   72.9207  218.8090 H   0  0  0  0  0  0  0  0  0  0  0  0
  141.5977   70.9715  220.3493 H   0  0  0  0  0  0  0  0  0  0  0  0
  140.7162   71.3808  222.6695 H   0  0  0  0  0  0  0  0  0  0  0  0
  137.8089   75.3900  221.9335 H   0  0  0  0  0  0  0  0  0  0  0  0
  142.3260   76.0677  216.3842 H   0  0  0  0  0  0  0  0  0  0  0  0
  143.6211   73.9254  216.3755 H   0  0  0  0  0  0  0  0  0  0  0  0
  145.0142   72.2979  217.6050 H   0  0  0  0  0  0  0  0  0  0  0  0
  145.9237   73.0632  221.7180 H   0  0  0  0  0  0  0  0  0  0  0  0
  144.6271   75.1746  221.6766 H   0  0  0  0  0  0  0  0  0  0  0  0
  1  2  2  0
  2  3  1  0
  3  4  1  0
  4  5  1  0
  5  6  2  0
  5  7  1  0
  7  8  1  0
  8  9  1  0
  9 10  1  0
 10 11  1  0
 11 12  1  0
 12 13  2  0
 13 14  1  0
 14 15  1  0
 15 16  2  0
 16 17  1  0
 17 18  2  0
 18 19  1  0
 19 20  2  0
 14 21  2  0
 21 22  1  0
  2 23  1  0
 23 24  2  0
 24 25  1  0
 25 26  2  0
 26 27  1  0
 27 28  2  0
 28 29  1  0
 28 30  1  0
 30 31  2  0
 31 32  1  0
 32 33  2  0
 11  7  1  0
 22 12  1  0
 33 23  1  0
 20 15  1  0
 32 26  1  0
  3 34  1  0
  4 35  1  0
  4 36  1  0
  8 37  1  0
  8 38  1  0
  9 39  1  0
  9 40  1  0
 10 41  1  0
 10 42  1  0
 11 43  1  1
 13 44  1  0
 16 45  1  0
 17 46  1  0
 18 47  1  0
 19 48  1  0
 21 49  1  0
 24 50  1  0
 25 51  1  0
 27 52  1  0
 30 53  1  0
 31 54  1  0
M  END
>  <smiles>  (38) 
O=C(NCC(=O)N1CCC[C@@H]1c1cc(-c2ccccn2)cs1)c1ccc2cc(F)ccc2n1

>  <score_type>  (38) 
oracle

>  <origin>  (38) 
autodockgpu

>  <m_score__min__energy>  (38) 
-9.3699999999999992

>  <m_primary>  (38) 
energy

>  <rmsd>  (38) 
7.987948310256394

>  <m_score__min__rmsd>  (38) 
7.987948310256394

>  <meeko>  (38) 
{"free_energy": -7.96, "intermolecular_energy": -9.75, "internal_energy": -3.33, "cluster_size": 30, "cluster_id": 6, "rank_in_cluster": 3}

>  <energy>  (38) 
-7.06

>  <cluster_rmsd>  (38) 
1.26

>  <cluster>  (38) 
6

$$$$

     RDKit          3D

 54 58  0  0  0  0  0  0  0  0999 V2000
  140.1220   77.5550  219.4480 O   0  0  0  0  0  0  0  0  0  0  0  0
  141.3590   77.3540  219.5040 C   0  0  0  0  0  0  0  0  0  0  0  0
  142.2010   78.4980  219.6430 N   0  0  0  0  0  0  0  0  0  0  0  0
  141.7830   79.8370  219.7240 C   0  0  0  0  0  0  0  0  0  0  0  0
  140.8890   80.3080  220.7730 C   0  0  0  0  0  0  0  0  0  0  0  0
  139.7600   80.7630  220.3030 O   0  0  0  0  0  0  0  0  0  0  0  0
  141.0100   80.3660  222.1550 N   0  0  0  0  0  0  0  0  0  0  0  0
  141.6310   81.3270  223.0800 C   0  0  0  0  0  0  0  0  0  0  0  0
  142.5400   80.3520  223.8340 C   0  0  0  0  0  0  0  0  0  0  0  0
  141.8360   78.9980  223.7700 C   0  0  0  0  0  0  0  0  0  0  0  0
  140.5370   79.3580  223.1380 C   0  0  2  0  0  0  0  0  0  0  0  0
  139.7780   78.2770  222.7000 C   0  0  0  0  0  0  0  0  0  0  0  0
  140.0860   76.9530  222.5870 C   0  0  0  0  0  0  0  0  0  0  0  0
  139.1820   76.0820  222.1810 C   0  0  0  0  0  0  0  0  0  0  0  0
  139.4390   74.6220  222.0310 C   0  0  0  0  0  0  0  0  0  0  0  0
  138.4170   73.7220  221.8710 C   0  0  0  0  0  0  0  0  0  0  0  0
  138.6600   72.3800  221.7340 C   0  0  0  0  0  0  0  0  0  0  0  0
  139.9340   71.8910  221.7510 C   0  0  0  0  0  0  0  0  0  0  0  0
  140.9560   72.8300  221.9150 C   0  0  0  0  0  0  0  0  0  0  0  0
  140.6900   74.1380  222.0470 N   0  0  0  0  0  0  0  0  0  0  0  0
  137.9000   76.5590  221.8720 C   0  0  0  0  0  0  0  0  0  0  0  0
  138.0500   78.3870  222.2010 S   0  0  0  0  0  0  0  0  0  0  0  0
  141.9320   76.0040  219.4320 C   0  0  0  0  0  0  0  0  0  0  0  0
  141.1990   75.0270  218.7920 C   0  0  0  0  0  0  0  0  0  0  0  0
  141.7250   73.7460  218.7140 C   0  0  0  0  0  0  0  0  0  0  0  0
  142.9570   73.4780  219.2730 C   0  0  0  0  0  0  0  0  0  0  0  0
  143.5350   72.2090  219.2250 C   0  0  0  0  0  0  0  0  0  0  0  0
  144.7750   71.9850  219.8000 C   0  0  0  0  0  0  0  0  0  0  0  0
  145.3200   70.7390  219.7420 F   0  0  0  0  0  0  0  0  0  0  0  0
  145.4210   73.0370  220.4160 C   0  0  0  0  0  0  0  0  0  0  0  0
  144.8890   74.3090  220.4890 C   0  0  0  0  0  0  0  0  0  0  0  0
  143.6380   74.5110  219.9020 C   0  0  0  0  0  0  0  0  0  0  0  0
  143.1450   75.7610  219.9890 N   0  0  0  0  0  0  0  0  0  0  0  0
  143.2370   78.2820  219.6860 H   0  0  0  0  0  0  0  0  0  0  0  0
  142.6991   80.4402  219.8074 H   0  0  0  0  0  0  0  0  0  0  0  0
  141.1551   79.9358  218.8263 H   0  0  0  0  0  0  0  0  0  0  0  0
  142.2029   82.1032  222.5504 H   0  0  0  0  0  0  0  0  0  0  0  0
  140.9370   81.9134  223.7001 H   0  0  0  0  0  0  0  0  0  0  0  0
  143.5263   80.2948  223.3503 H   0  0  0  0  0  0  0  0  0  0  0  0
  142.7083   80.6737  224.8724 H   0  0  0  0  0  0  0  0  0  0  0  0
  142.3981   78.2835  223.1507 H   0  0  0  0  0  0  0  0  0  0  0  0
  141.7334   78.5033  224.7471 H   0  0  0  0  0  0  0  0  0  0  0  0
  139.7609   79.7667  223.8017 H   0  0  0  0  0  0  0  0  0  0  0  0
  141.0999   76.6075  222.8373 H   0  0  0  0  0  0  0  0  0  0  0  0
  137.3788   74.0851  221.8522 H   0  0  0  0  0  0  0  0  0  0  0  0
  137.8153   71.6866  221.6084 H   0  0  0  0  0  0  0  0  0  0  0  0
  140.1448   70.8169  221.6417 H   0  0  0  0  0  0  0  0  0  0  0  0
  142.0016   72.4889  221.9363 H   0  0  0  0  0  0  0  0  0  0  0  0
  137.0233   75.9942  221.5222 H   0  0  0  0  0  0  0  0  0  0  0  0
  140.2176   75.2587  218.3525 H   0  0  0  0  0  0  0  0  0  0  0  0
  141.1621   72.9474  218.2086 H   0  0  0  0  0  0  0  0  0  0  0  0
  143.0039   71.3834  218.7287 H   0  0  0  0  0  0  0  0  0  0  0  0
  146.4060   72.8538  220.8702 H   0  0  0  0  0  0  0  0  0  0  0  0
  145.4274   75.1282  220.9881 H   0  0  0  0  0  0  0  0  0  0  0  0
  1  2  2  0
  2  3  1  0
  3  4  1  0
  4  5  1  0
  5  6  2  0
  5  7  1  0
  7  8  1  0
  8  9  1  0
  9 10  1  0
 10 11  1  0
 11 12  1  0
 12 13  2  0
 13 14  1  0
 14 15  1  0
 15 16  2  0
 16 17  1  0
 17 18  2  0
 18 19  1  0
 19 20  2  0
 14 21  2  0
 21 22  1  0
  2 23  1  0
 23 24  2  0
 24 25  1  0
 25 26  2  0
 26 27  1  0
 27 28  2  0
 28 29  1  0
 28 30  1  0
 30 31  2  0
 31 32  1  0
 32 33  2  0
 11  7  1  0
 22 12  1  0
 33 23  1  0
 20 15  1  0
 32 26  1  0
  3 34  1  0
  4 35  1  0
  4 36  1  0
  8 37  1  0
  8 38  1  0
  9 39  1  0
  9 40  1  0
 10 41  1  0
 10 42  1  0
 11 43  1  1
 13 44  1  0
 16 45  1  0
 17 46  1  0
 18 47  1  0
 19 48  1  0
 21 49  1  0
 24 50  1  0
 25 51  1  0
 27 52  1  0
 30 53  1  0
 31 54  1  0
M  END
>  <smiles>  (39) 
O=C(NCC(=O)N1CCC[C@@H]1c1cc(-c2ccccn2)cs1)c1ccc2cc(F)ccc2n1

>  <score_type>  (39) 
oracle

>  <origin>  (39) 
autodockgpu

>  <m_score__min__energy>  (39) 
-9.3699999999999992

>  <m_primary>  (39) 
energy

>  <rmsd>  (39) 
7.620958916322958

>  <m_score__min__rmsd>  (39) 
7.620958916322958

>  <meeko>  (39) 
{"free_energy": -7.45, "intermolecular_energy": -9.24, "internal_energy": -3.55, "cluster_size": 30, "cluster_id": 6, "rank_in_cluster": 19}

>  <energy>  (39) 
-7.01

>  <cluster_rmsd>  (39) 
1.15

>  <cluster>  (39) 
6

$$$$

     RDKit          3D

 54 58  0  0  0  0  0  0  0  0999 V2000
  136.4470   76.9700  222.6740 O   0  0  0  0  0  0  0  0  0  0  0  0
  136.4120   75.7810  223.0720 C   0  0  0  0  0  0  0  0  0  0  0  0
  137.3490   74.8710  222.4960 N   0  0  0  0  0  0  0  0  0  0  0  0
  138.3150   75.1740  221.5220 C   0  0  0  0  0  0  0  0  0  0  0  0
  139.7420   75.1590  221.8140 C   0  0  0  0  0  0  0  0  0  0  0  0
  140.0750   76.0200  222.7350 O   0  0  0  0  0  0  0  0  0  0  0  0
  140.7980   74.4150  221.3030 N   0  0  0  0  0  0  0  0  0  0  0  0
  141.8860   74.7130  220.3580 C   0  0  0  0  0  0  0  0  0  0  0  0
  141.6390   73.5700  219.3700 C   0  0  0  0  0  0  0  0  0  0  0  0
  141.0050   72.4460  220.1870 C   0  0  0  0  0  0  0  0  0  0  0  0
  141.0970   72.9850  221.5720 C   0  0  2  0  0  0  0  0  0  0  0  0
  140.3510   72.2950  222.5220 C   0  0  0  0  0  0  0  0  0  0  0  0
  140.6990   71.7930  223.7420 C   0  0  0  0  0  0  0  0  0  0  0  0
  139.8030   71.2000  224.5090 C   0  0  0  0  0  0  0  0  0  0  0  0
  140.1030   70.6270  225.8510 C   0  0  0  0  0  0  0  0  0  0  0  0
  140.6480   71.3850  226.8540 C   0  0  0  0  0  0  0  0  0  0  0  0
  140.9220   70.8510  228.0870 C   0  0  0  0  0  0  0  0  0  0  0  0
  140.6580   69.5400  228.3590 C   0  0  0  0  0  0  0  0  0  0  0  0
  140.1030   68.7900  227.3190 C   0  0  0  0  0  0  0  0  0  0  0  0
  139.8450   69.3380  226.1210 N   0  0  0  0  0  0  0  0  0  0  0  0
  138.4880   71.1050  224.0310 C   0  0  0  0  0  0  0  0  0  0  0  0
  138.5920   71.9350  222.3670 S   0  0  0  0  0  0  0  0  0  0  0  0
  135.4530   75.3270  224.0880 C   0  0  0  0  0  0  0  0  0  0  0  0
  134.7310   76.2870  224.7650 C   0  0  0  0  0  0  0  0  0  0  0  0
  133.8200   75.8770  225.7280 C   0  0  0  0  0  0  0  0  0  0  0  0
  133.6580   74.5330  225.9850 C   0  0  0  0  0  0  0  0  0  0  0  0
  132.7580   74.0620  226.9420 C   0  0  0  0  0  0  0  0  0  0  0  0
  132.6260   72.7020  227.1680 C   0  0  0  0  0  0  0  0  0  0  0  0
  131.7420   72.2650  228.1060 F   0  0  0  0  0  0  0  0  0  0  0  0
  133.4010   71.8290  226.4310 C   0  0  0  0  0  0  0  0  0  0  0  0
  134.3040   72.2470  225.4760 C   0  0  0  0  0  0  0  0  0  0  0  0
  134.4190   73.6220  225.2640 C   0  0  0  0  0  0  0  0  0  0  0  0
  135.3080   74.0000  224.3270 N   0  0  0  0  0  0  0  0  0  0  0  0
  137.2840   73.8790  222.8610 H   0  0  0  0  0  0  0  0  0  0  0  0
  138.1615   74.4555  220.7033 H   0  0  0  0  0  0  0  0  0  0  0  0
  138.1296   76.2429  221.3402 H   0  0  0  0  0  0  0  0  0  0  0  0
  141.7694   75.7008  219.8882 H   0  0  0  0  0  0  0  0  0  0  0  0
  142.8964   74.7643  220.7899 H   0  0  0  0  0  0  0  0  0  0  0  0
  140.9566   73.8949  218.5707 H   0  0  0  0  0  0  0  0  0  0  0  0
  142.5713   73.2435  218.8861 H   0  0  0  0  0  0  0  0  0  0  0  0
  139.9589   72.2775  219.8917 H   0  0  0  0  0  0  0  0  0  0  0  0
  141.4949   71.4699  220.0560 H   0  0  0  0  0  0  0  0  0  0  0  0
  142.0602   72.8589  222.0881 H   0  0  0  0  0  0  0  0  0  0  0  0
  141.7384   71.8834  224.0906 H   0  0  0  0  0  0  0  0  0  0  0  0
  140.8707   72.4457  226.6659 H   0  0  0  0  0  0  0  0  0  0  0  0
  141.3610   71.4888  228.8683 H   0  0  0  0  0  0  0  0  0  0  0  0
  140.8706   69.0978  229.3435 H   0  0  0  0  0  0  0  0  0  0  0  0
  139.8724   67.7274  227.4855 H   0  0  0  0  0  0  0  0  0  0  0  0
  137.6119   70.6523  224.5183 H   0  0  0  0  0  0  0  0  0  0  0  0
  134.8742   77.3555  224.5463 H   0  0  0  0  0  0  0  0  0  0  0  0
  133.2302   76.6211  226.2834 H   0  0  0  0  0  0  0  0  0  0  0  0
  132.1505   74.7743  227.5196 H   0  0  0  0  0  0  0  0  0  0  0  0
  133.2933   70.7497  226.6140 H   0  0  0  0  0  0  0  0  0  0  0  0
  134.9085   71.5268  224.9051 H   0  0  0  0  0  0  0  0  0  0  0  0
  1  2  2  0
  2  3  1  0
  3  4  1  0
  4  5  1  0
  5  6  2  0
  5  7  1  0
  7  8  1  0
  8  9  1  0
  9 10  1  0
 10 11  1  0
 11 12  1  0
 12 13  2  0
 13 14  1  0
 14 15  1  0
 15 16  2  0
 16 17  1  0
 17 18  2  0
 18 19  1  0
 19 20  2  0
 14 21  2  0
 21 22  1  0
  2 23  1  0
 23 24  2  0
 24 25  1  0
 25 26  2  0
 26 27  1  0
 27 28  2  0
 28 29  1  0
 28 30  1  0
 30 31  2  0
 31 32  1  0
 32 33  2  0
 11  7  1  0
 22 12  1  0
 33 23  1  0
 20 15  1  0
 32 26  1  0
  3 34  1  0
  4 35  1  0
  4 36  1  0
  8 37  1  0
  8 38  1  0
  9 39  1  0
  9 40  1  0
 10 41  1  0
 10 42  1  0
 11 43  1  1
 13 44  1  0
 16 45  1  0
 17 46  1  0
 18 47  1  0
 19 48  1  0
 21 49  1  0
 24 50  1  0
 25 51  1  0
 27 52  1  0
 30 53  1  0
 31 54  1  0
M  END
>  <smiles>  (40) 
O=C(NCC(=O)N1CCC[C@@H]1c1cc(-c2ccccn2)cs1)c1ccc2cc(F)ccc2n1

>  <score_type>  (40) 
oracle

>  <origin>  (40) 
autodockgpu

>  <m_score__min__energy>  (40) 
-9.3699999999999992

>  <m_primary>  (40) 
energy

>  <rmsd>  (40) 
8.201398785358704

>  <m_score__min__rmsd>  (40) 
8.201398785358704

>  <meeko>  (40) 
{"free_energy": -8.29, "intermolecular_energy": -10.08, "internal_energy": -2.1, "cluster_size": 1, "cluster_id": 5, "rank_in_cluster": 1}

>  <energy>  (40) 
-6.81

>  <cluster_rmsd>  (40) 
1.23

>  <cluster>  (40) 
6

$$$$

     RDKit          3D

 54 58  0  0  0  0  0  0  0  0999 V2000
  141.3030   72.6660  222.0500 O   0  0  0  0  0  0  0  0  0  0  0  0
  140.2510   72.5060  222.7140 C   0  0  0  0  0  0  0  0  0  0  0  0
  139.1310   73.3220  222.3710 N   0  0  0  0  0  0  0  0  0  0  0  0
  139.0860   74.2940  221.3580 C   0  0  0  0  0  0  0  0  0  0  0  0
  140.0580   75.3750  221.2760 C   0  0  0  0  0  0  0  0  0  0  0  0
  140.4390   75.7980  222.4510 O   0  0  0  0  0  0  0  0  0  0  0  0
  140.6450   76.0330  220.2030 N   0  0  0  0  0  0  0  0  0  0  0  0
  141.0260   75.6180  218.8430 C   0  0  0  0  0  0  0  0  0  0  0  0
  142.4960   76.0420  218.8870 C   0  0  0  0  0  0  0  0  0  0  0  0
  142.5610   77.2080  219.8720 C   0  0  0  0  0  0  0  0  0  0  0  0
  141.1210   77.4390  220.1670 C   0  0  2  0  0  0  0  0  0  0  0  0
  140.8710   78.2760  221.2510 C   0  0  0  0  0  0  0  0  0  0  0  0
  139.6970   78.6800  221.8170 C   0  0  0  0  0  0  0  0  0  0  0  0
  139.6950   79.4560  222.8840 C   0  0  0  0  0  0  0  0  0  0  0  0
  138.4590   79.9410  223.5610 C   0  0  0  0  0  0  0  0  0  0  0  0
  138.5020   80.8870  224.5510 C   0  0  0  0  0  0  0  0  0  0  0  0
  137.3610   81.3280  225.1700 C   0  0  0  0  0  0  0  0  0  0  0  0
  136.1370   80.8390  224.8180 C   0  0  0  0  0  0  0  0  0  0  0  0
  136.1210   79.8760  223.8060 C   0  0  0  0  0  0  0  0  0  0  0  0
  137.2540   79.4610  223.2170 N   0  0  0  0  0  0  0  0  0  0  0  0
  140.9320   79.8490  223.4140 C   0  0  0  0  0  0  0  0  0  0  0  0
  142.1510   79.0260  222.2720 S   0  0  0  0  0  0  0  0  0  0  0  0
  140.1580   71.5230  223.8020 C   0  0  0  0  0  0  0  0  0  0  0  0
  139.5600   70.3120  223.5240 C   0  0  0  0  0  0  0  0  0  0  0  0
  139.4640   69.3710  224.5390 C   0  0  0  0  0  0  0  0  0  0  0  0
  139.9620   69.6640  225.7910 C   0  0  0  0  0  0  0  0  0  0  0  0
  139.8930   68.7570  226.8490 C   0  0  0  0  0  0  0  0  0  0  0  0
  140.4080   69.0930  228.0910 C   0  0  0  0  0  0  0  0  0  0  0  0
  140.3290   68.1930  229.1090 F   0  0  0  0  0  0  0  0  0  0  0  0
  140.9850   70.3350  228.2560 C   0  0  0  0  0  0  0  0  0  0  0  0
  141.0760   71.2640  227.2400 C   0  0  0  0  0  0  0  0  0  0  0  0
  140.5520   70.9040  225.9970 C   0  0  0  0  0  0  0  0  0  0  0  0
  140.6550   71.8300  225.0260 N   0  0  0  0  0  0  0  0  0  0  0  0
  138.2650   73.1530  222.9570 H   0  0  0  0  0  0  0  0  0  0  0  0
  139.1532   73.7479  220.4055 H   0  0  0  0  0  0  0  0  0  0  0  0
  138.1608   74.8364  221.6025 H   0  0  0  0  0  0  0  0  0  0  0  0
  140.9104   74.5346  218.6915 H   0  0  0  0  0  0  0  0  0  0  0  0
  140.4273   76.0455  218.0252 H   0  0  0  0  0  0  0  0  0  0  0  0
  143.1249   75.2097  219.2360 H   0  0  0  0  0  0  0  0  0  0  0  0
  142.8652   76.3304  217.8917 H   0  0  0  0  0  0  0  0  0  0  0  0
  143.1169   76.9339  220.7807 H   0  0  0  0  0  0  0  0  0  0  0  0
  143.0826   78.0935  219.4798 H   0  0  0  0  0  0  0  0  0  0  0  0
  140.5581   78.0420  219.4393 H   0  0  0  0  0  0  0  0  0  0  0  0
  138.7418   78.3551  221.3789 H   0  0  0  0  0  0  0  0  0  0  0  0
  139.4739   81.3021  224.8561 H   0  0  0  0  0  0  0  0  0  0  0  0
  137.4335   82.0875  225.9624 H   0  0  0  0  0  0  0  0  0  0  0  0
  135.2128   81.1842  225.3046 H   0  0  0  0  0  0  0  0  0  0  0  0
  135.1596   79.4486  223.4849 H   0  0  0  0  0  0  0  0  0  0  0  0
  141.1328   80.4859  224.2881 H   0  0  0  0  0  0  0  0  0  0  0  0
  139.1675   70.0967  222.5192 H   0  0  0  0  0  0  0  0  0  0  0  0
  138.9929   68.3959  224.3459 H   0  0  0  0  0  0  0  0  0  0  0  0
  139.4282   67.7717  226.6968 H   0  0  0  0  0  0  0  0  0  0  0  0
  141.3916   70.5971  229.2439 H   0  0  0  0  0  0  0  0  0  0  0  0
  141.5419   72.2471  227.4025 H   0  0  0  0  0  0  0  0  0  0  0  0
  1  2  2  0
  2  3  1  0
  3  4  1  0
  4  5  1  0
  5  6  2  0
  5  7  1  0
  7  8  1  0
  8  9  1  0
  9 10  1  0
 10 11  1  0
 11 12  1  0
 12 13  2  0
 13 14  1  0
 14 15  1  0
 15 16  2  0
 16 17  1  0
 17 18  2  0
 18 19  1  0
 19 20  2  0
 14 21  2  0
 21 22  1  0
  2 23  1  0
 23 24  2  0
 24 25  1  0
 25 26  2  0
 26 27  1  0
 27 28  2  0
 28 29  1  0
 28 30  1  0
 30 31  2  0
 31 32  1  0
 32 33  2  0
 11  7  1  0
 22 12  1  0
 33 23  1  0
 20 15  1  0
 32 26  1  0
  3 34  1  0
  4 35  1  0
  4 36  1  0
  8 37  1  0
  8 38  1  0
  9 39  1  0
  9 40  1  0
 10 41  1  0
 10 42  1  0
 11 43  1  6
 13 44  1  0
 16 45  1  0
 17 46  1  0
 18 47  1  0
 19 48  1  0
 21 49  1  0
 24 50  1  0
 25 51  1  0
 27 52  1  0
 30 53  1  0
 31 54  1  0
M  END
>  <smiles>  (41) 
O=C(NCC(=O)N1CCC[C@@H]1c1cc(-c2ccccn2)cs1)c1ccc2cc(F)ccc2n1

>  <score_type>  (41) 
oracle

>  <origin>  (41) 
autodockgpu

>  <m_score__min__energy>  (41) 
-9.3699999999999992

>  <m_primary>  (41) 
energy

>  <rmsd>  (41) 
3.137457616144412

>  <m_score__min__rmsd>  (41) 
3.137457616144412

>  <meeko>  (41) 
{"free_energy": -9.11, "intermolecular_energy": -10.9, "internal_energy": -1.44, "cluster_size": 1, "cluster_id": 2, "rank_in_cluster": 1}

>  <energy>  (41) 
-6.77

>  <cluster_rmsd>  (41) 
1.08

>  <cluster>  (41) 
6

$$$$

     RDKit          3D

 54 58  0  0  0  0  0  0  0  0999 V2000
  140.7370   77.0570  218.5730 O   0  0  0  0  0  0  0  0  0  0  0  0
  141.9670   77.0700  218.8190 C   0  0  0  0  0  0  0  0  0  0  0  0
  142.5570   78.3310  219.1340 N   0  0  0  0  0  0  0  0  0  0  0  0
  141.8950   79.5690  219.1980 C   0  0  0  0  0  0  0  0  0  0  0  0
  140.9920   79.9100  220.2880 C   0  0  0  0  0  0  0  0  0  0  0  0
  139.7530   80.0260  219.8960 O   0  0  0  0  0  0  0  0  0  0  0  0
  141.1970   80.1340  221.6440 N   0  0  0  0  0  0  0  0  0  0  0  0
  141.7610   81.2540  222.4130 C   0  0  0  0  0  0  0  0  0  0  0  0
  142.8260   80.4740  223.1890 C   0  0  0  0  0  0  0  0  0  0  0  0
  142.2840   79.0520  223.3200 C   0  0  0  0  0  0  0  0  0  0  0  0
  140.9130   79.1950  222.7590 C   0  0  2  0  0  0  0  0  0  0  0  0
  140.2580   77.9960  222.4950 C   0  0  0  0  0  0  0  0  0  0  0  0
  140.7340   76.7900  222.0700 C   0  0  0  0  0  0  0  0  0  0  0  0
  139.9250   75.7580  221.9240 C   0  0  0  0  0  0  0  0  0  0  0  0
  140.3660   74.4110  221.4650 C   0  0  0  0  0  0  0  0  0  0  0  0
  140.4530   74.0950  220.1340 C   0  0  0  0  0  0  0  0  0  0  0  0
  140.8590   72.8540  219.7180 C   0  0  0  0  0  0  0  0  0  0  0  0
  141.1940   71.8850  220.6190 C   0  0  0  0  0  0  0  0  0  0  0  0
  141.0970   72.2340  221.9690 C   0  0  0  0  0  0  0  0  0  0  0  0
  140.6960   73.4570  222.3480 N   0  0  0  0  0  0  0  0  0  0  0  0
  138.5660   75.9410  222.2190 C   0  0  0  0  0  0  0  0  0  0  0  0
  138.4930   77.7290  222.7360 S   0  0  0  0  0  0  0  0  0  0  0  0
  142.7810   75.8470  218.7890 C   0  0  0  0  0  0  0  0  0  0  0  0
  142.6710   75.0290  217.6840 C   0  0  0  0  0  0  0  0  0  0  0  0
  143.4320   73.8700  217.6370 C   0  0  0  0  0  0  0  0  0  0  0  0
  144.2730   73.5640  218.6860 C   0  0  0  0  0  0  0  0  0  0  0  0
  145.0610   72.4120  218.6950 C   0  0  0  0  0  0  0  0  0  0  0  0
  145.8930   72.1440  219.7690 C   0  0  0  0  0  0  0  0  0  0  0  0
  146.6530   71.0150  219.7570 F   0  0  0  0  0  0  0  0  0  0  0  0
  145.9240   73.0340  220.8230 C   0  0  0  0  0  0  0  0  0  0  0  0
  145.1620   74.1840  220.8600 C   0  0  0  0  0  0  0  0  0  0  0  0
  144.3320   74.4340  219.7660 C   0  0  0  0  0  0  0  0  0  0  0  0
  143.6020   75.5640  219.8300 N   0  0  0  0  0  0  0  0  0  0  0  0
  143.5960   78.2960  219.3350 H   0  0  0  0  0  0  0  0  0  0  0  0
  142.6815   80.3380  219.1989 H   0  0  0  0  0  0  0  0  0  0  0  0
  141.2070   79.5053  218.3421 H   0  0  0  0  0  0  0  0  0  0  0  0
  142.2014   82.0244  221.7629 H   0  0  0  0  0  0  0  0  0  0  0  0
  141.0460   81.8265  223.0221 H   0  0  0  0  0  0  0  0  0  0  0  0
  143.7778   80.4723  222.6376 H   0  0  0  0  0  0  0  0  0  0  0  0
  143.0234   80.9253  224.1726 H   0  0  0  0  0  0  0  0  0  0  0  0
  142.8838   78.3394  222.7348 H   0  0  0  0  0  0  0  0  0  0  0  0
  142.3058   78.6602  224.3476 H   0  0  0  0  0  0  0  0  0  0  0  0
  140.1406   79.5867  223.4372 H   0  0  0  0  0  0  0  0  0  0  0  0
  141.8051   76.6767  221.8464 H   0  0  0  0  0  0  0  0  0  0  0  0
  140.1910   74.8547  219.3829 H   0  0  0  0  0  0  0  0  0  0  0  0
  140.9158   72.6354  218.6414 H   0  0  0  0  0  0  0  0  0  0  0  0
  141.5222   70.8846  220.3003 H   0  0  0  0  0  0  0  0  0  0  0  0
  141.3549   71.4901  222.7371 H   0  0  0  0  0  0  0  0  0  0  0  0
  137.7464   75.2098  222.1597 H   0  0  0  0  0  0  0  0  0  0  0  0
  141.9940   75.2901  216.8573 H   0  0  0  0  0  0  0  0  0  0  0  0
  143.3649   73.1990  216.7679 H   0  0  0  0  0  0  0  0  0  0  0  0
  145.0210   71.7142  217.8456 H   0  0  0  0  0  0  0  0  0  0  0  0
  146.5870   72.8167  221.6734 H   0  0  0  0  0  0  0  0  0  0  0  0
  145.2068   74.8743  221.7153 H   0  0  0  0  0  0  0  0  0  0  0  0
  1  2  2  0
  2  3  1  0
  3  4  1  0
  4  5  1  0
  5  6  2  0
  5  7  1  0
  7  8  1  0
  8  9  1  0
  9 10  1  0
 10 11  1  0
 11 12  1  0
 12 13  2  0
 13 14  1  0
 14 15  1  0
 15 16  2  0
 16 17  1  0
 17 18  2  0
 18 19  1  0
 19 20  2  0
 14 21  2  0
 21 22  1  0
  2 23  1  0
 23 24  2  0
 24 25  1  0
 25 26  2  0
 26 27  1  0
 27 28  2  0
 28 29  1  0
 28 30  1  0
 30 31  2  0
 31 32  1  0
 32 33  2  0
 11  7  1  0
 22 12  1  0
 33 23  1  0
 20 15  1  0
 32 26  1  0
  3 34  1  0
  4 35  1  0
  4 36  1  0
  8 37  1  0
  8 38  1  0
  9 39  1  0
  9 40  1  0
 10 41  1  0
 10 42  1  0
 11 43  1  1
 13 44  1  0
 16 45  1  0
 17 46  1  0
 18 47  1  0
 19 48  1  0
 21 49  1  0
 24 50  1  0
 25 51  1  0
 27 52  1  0
 30 53  1  0
 31 54  1  0
M  END
>  <smiles>  (42) 
O=C(NCC(=O)N1CCC[C@@H]1c1cc(-c2ccccn2)cs1)c1ccc2cc(F)ccc2n1

>  <score_type>  (42) 
oracle

>  <origin>  (42) 
autodockgpu

>  <m_score__min__energy>  (42) 
-9.3699999999999992

>  <m_primary>  (42) 
energy

>  <rmsd>  (42) 
7.798791725617063

>  <m_score__min__rmsd>  (42) 
7.798791725617063

>  <meeko>  (42) 
{"free_energy": -7.88, "intermolecular_energy": -9.67, "internal_energy": -3.35, "cluster_size": 30, "cluster_id": 6, "rank_in_cluster": 6}

>  <energy>  (42) 
-6.73

>  <cluster_rmsd>  (42) 
1.07

>  <cluster>  (42) 
6

$$$$

     RDKit          3D

 54 58  0  0  0  0  0  0  0  0999 V2000
  140.4220   78.0730  218.2230 O   0  0  0  0  0  0  0  0  0  0  0  0
  141.5420   78.0110  218.7860 C   0  0  0  0  0  0  0  0  0  0  0  0
  141.9520   79.1460  219.5490 N   0  0  0  0  0  0  0  0  0  0  0  0
  141.2250   80.3340  219.7360 C   0  0  0  0  0  0  0  0  0  0  0  0
  140.6850   80.7170  221.0330 C   0  0  0  0  0  0  0  0  0  0  0  0
  139.5340   81.3240  220.9390 O   0  0  0  0  0  0  0  0  0  0  0  0
  141.1570   80.5630  222.3310 N   0  0  0  0  0  0  0  0  0  0  0  0
  141.8800   81.4460  223.2590 C   0  0  0  0  0  0  0  0  0  0  0  0
  143.0640   80.5240  223.5630 C   0  0  0  0  0  0  0  0  0  0  0  0
  142.5360   79.1010  223.3920 C   0  0  0  0  0  0  0  0  0  0  0  0
  141.0840   79.3390  223.1700 C   0  0  2  0  0  0  0  0  0  0  0  0
  140.3710   78.2350  222.7120 C   0  0  0  0  0  0  0  0  0  0  0  0
  140.7950   77.0150  222.2730 C   0  0  0  0  0  0  0  0  0  0  0  0
  139.9270   76.0860  221.9200 C   0  0  0  0  0  0  0  0  0  0  0  0
  140.3080   74.7310  221.4300 C   0  0  0  0  0  0  0  0  0  0  0  0
  140.3220   74.4240  220.0950 C   0  0  0  0  0  0  0  0  0  0  0  0
  140.6730   73.1760  219.6500 C   0  0  0  0  0  0  0  0  0  0  0  0
  141.0250   72.1910  220.5270 C   0  0  0  0  0  0  0  0  0  0  0  0
  141.0030   72.5310  221.8830 C   0  0  0  0  0  0  0  0  0  0  0  0
  140.6550   73.7610  222.2900 N   0  0  0  0  0  0  0  0  0  0  0  0
  138.5620   76.3920  222.0110 C   0  0  0  0  0  0  0  0  0  0  0  0
  138.5730   78.1420  222.6510 S   0  0  0  0  0  0  0  0  0  0  0  0
  142.4060   76.8290  218.6760 C   0  0  0  0  0  0  0  0  0  0  0  0
  142.7580   76.4070  217.4120 C   0  0  0  0  0  0  0  0  0  0  0  0
  143.5740   75.2910  217.2870 C   0  0  0  0  0  0  0  0  0  0  0  0
  144.0090   74.6350  218.4180 C   0  0  0  0  0  0  0  0  0  0  0  0
  144.8300   73.5080  218.3550 C   0  0  0  0  0  0  0  0  0  0  0  0
  145.2450   72.8800  219.5170 C   0  0  0  0  0  0  0  0  0  0  0  0
  146.0460   71.7820  219.4320 F   0  0  0  0  0  0  0  0  0  0  0  0
  144.8310   73.3890  220.7310 C   0  0  0  0  0  0  0  0  0  0  0  0
  144.0190   74.4990  220.8440 C   0  0  0  0  0  0  0  0  0  0  0  0
  143.6140   75.1170  219.6590 C   0  0  0  0  0  0  0  0  0  0  0  0
  142.8230   76.1970  219.8010 N   0  0  0  0  0  0  0  0  0  0  0  0
  142.9030   79.0510  220.0070 H   0  0  0  0  0  0  0  0  0  0  0  0
  141.8907   81.1532  219.4266 H   0  0  0  0  0  0  0  0  0  0  0  0
  140.3109   80.1366  219.1568 H   0  0  0  0  0  0  0  0  0  0  0  0
  142.1962   82.3838  222.7789 H   0  0  0  0  0  0  0  0  0  0  0  0
  141.3087   81.7972  224.1310 H   0  0  0  0  0  0  0  0  0  0  0  0
  143.8883   80.7141  222.8598 H   0  0  0  0  0  0  0  0  0  0  0  0
  143.4583   80.6911  224.5762 H   0  0  0  0  0  0  0  0  0  0  0  0
  142.9973   78.6041  222.5258 H   0  0  0  0  0  0  0  0  0  0  0  0
  142.7537   78.4400  224.2439 H   0  0  0  0  0  0  0  0  0  0  0  0
  140.4665   79.4948  224.0669 H   0  0  0  0  0  0  0  0  0  0  0  0
  141.8727   76.8033  222.2126 H   0  0  0  0  0  0  0  0  0  0  0  0
  140.0451   75.1971  219.3631 H   0  0  0  0  0  0  0  0  0  0  0  0
  140.6710   72.9651  218.5704 H   0  0  0  0  0  0  0  0  0  0  0  0
  141.3103   71.1850  220.1856 H   0  0  0  0  0  0  0  0  0  0  0  0
  141.2770   71.7736  222.6322 H   0  0  0  0  0  0  0  0  0  0  0  0
  137.6984   75.7565  221.7654 H   0  0  0  0  0  0  0  0  0  0  0  0
  142.3998   76.9433  216.5209 H   0  0  0  0  0  0  0  0  0  0  0  0
  143.8717   74.9323  216.2906 H   0  0  0  0  0  0  0  0  0  0  0  0
  145.1488   73.1169  217.3775 H   0  0  0  0  0  0  0  0  0  0  0  0
  145.1637   72.8866  221.6513 H   0  0  0  0  0  0  0  0  0  0  0  0
  143.7040   74.8810  221.8262 H   0  0  0  0  0  0  0  0  0  0  0  0
  1  2  2  0
  2  3  1  0
  3  4  1  0
  4  5  1  0
  5  6  2  0
  5  7  1  0
  7  8  1  0
  8  9  1  0
  9 10  1  0
 10 11  1  0
 11 12  1  0
 12 13  2  0
 13 14  1  0
 14 15  1  0
 15 16  2  0
 16 17  1  0
 17 18  2  0
 18 19  1  0
 19 20  2  0
 14 21  2  0
 21 22  1  0
  2 23  1  0
 23 24  2  0
 24 25  1  0
 25 26  2  0
 26 27  1  0
 27 28  2  0
 28 29  1  0
 28 30  1  0
 30 31  2  0
 31 32  1  0
 32 33  2  0
 11  7  1  0
 22 12  1  0
 33 23  1  0
 20 15  1  0
 32 26  1  0
  3 34  1  0
  4 35  1  0
  4 36  1  0
  8 37  1  0
  8 38  1  0
  9 39  1  0
  9 40  1  0
 10 41  1  0
 10 42  1  0
 11 43  1  1
 13 44  1  0
 16 45  1  0
 17 46  1  0
 18 47  1  0
 19 48  1  0
 21 49  1  0
 24 50  1  0
 25 51  1  0
 27 52  1  0
 30 53  1  0
 31 54  1  0
M  END
>  <smiles>  (43) 
O=C(NCC(=O)N1CCC[C@@H]1c1cc(-c2ccccn2)cs1)c1ccc2cc(F)ccc2n1

>  <score_type>  (43) 
oracle

>  <origin>  (43) 
autodockgpu

>  <m_score__min__energy>  (43) 
-9.3699999999999992

>  <m_primary>  (43) 
energy

>  <rmsd>  (43) 
8.072679721770303

>  <m_score__min__rmsd>  (43) 
8.072679721770303

>  <meeko>  (43) 
{"free_energy": -7.51, "intermolecular_energy": -9.3, "internal_energy": -3.5, "cluster_size": 30, "cluster_id": 6, "rank_in_cluster": 16}

>  <energy>  (43) 
-6.65

>  <cluster_rmsd>  (43) 
1.34

>  <cluster>  (43) 
6

$$$$

     RDKit          3D

 54 58  0  0  0  0  0  0  0  0999 V2000
  140.2660   76.7030  218.7360 O   0  0  0  0  0  0  0  0  0  0  0  0
  141.4200   76.7420  219.2270 C   0  0  0  0  0  0  0  0  0  0  0  0
  141.8470   77.9810  219.7930 N   0  0  0  0  0  0  0  0  0  0  0  0
  141.1020   79.1700  219.8560 C   0  0  0  0  0  0  0  0  0  0  0  0
  141.4790   80.2770  220.7250 C   0  0  0  0  0  0  0  0  0  0  0  0
  141.8460   81.3360  220.0570 O   0  0  0  0  0  0  0  0  0  0  0  0
  141.5240   80.4140  222.1060 N   0  0  0  0  0  0  0  0  0  0  0  0
  142.1480   81.3950  223.0090 C   0  0  0  0  0  0  0  0  0  0  0  0
  142.9520   80.4190  223.8720 C   0  0  0  0  0  0  0  0  0  0  0  0
  142.1730   79.1050  223.8460 C   0  0  0  0  0  0  0  0  0  0  0  0
  140.9370   79.4970  223.1160 C   0  0  2  0  0  0  0  0  0  0  0  0
  140.1400   78.4360  222.6980 C   0  0  0  0  0  0  0  0  0  0  0  0
  140.4620   77.1550  222.3550 C   0  0  0  0  0  0  0  0  0  0  0  0
  139.5240   76.2890  222.0220 C   0  0  0  0  0  0  0  0  0  0  0  0
  139.7930   74.8750  221.6360 C   0  0  0  0  0  0  0  0  0  0  0  0
  138.8860   74.1380  220.9200 C   0  0  0  0  0  0  0  0  0  0  0  0
  139.1390   72.8380  220.5670 C   0  0  0  0  0  0  0  0  0  0  0  0
  140.3100   72.2300  220.9170 C   0  0  0  0  0  0  0  0  0  0  0  0
  141.2160   73.0040  221.6470 C   0  0  0  0  0  0  0  0  0  0  0  0
  140.9430   74.2750  221.9790 N   0  0  0  0  0  0  0  0  0  0  0  0
  138.1910   76.7260  222.0340 C   0  0  0  0  0  0  0  0  0  0  0  0
  138.3450   78.5050  222.5640 S   0  0  0  0  0  0  0  0  0  0  0  0
  142.3060   75.5710  219.2290 C   0  0  0  0  0  0  0  0  0  0  0  0
  141.9700   74.5090  218.4160 C   0  0  0  0  0  0  0  0  0  0  0  0
  142.7950   73.3940  218.4040 C   0  0  0  0  0  0  0  0  0  0  0  0
  143.9220   73.3710  219.1980 C   0  0  0  0  0  0  0  0  0  0  0  0
  144.7880   72.2770  219.2280 C   0  0  0  0  0  0  0  0  0  0  0  0
  145.9100   72.2970  220.0410 C   0  0  0  0  0  0  0  0  0  0  0  0
  146.7410   71.2190  220.0540 F   0  0  0  0  0  0  0  0  0  0  0  0
  146.1490   73.4140  220.8150 C   0  0  0  0  0  0  0  0  0  0  0  0
  145.3220   74.5180  220.8190 C   0  0  0  0  0  0  0  0  0  0  0  0
  144.1980   74.4760  219.9920 C   0  0  0  0  0  0  0  0  0  0  0  0
  143.4090   75.5670  220.0170 N   0  0  0  0  0  0  0  0  0  0  0  0
  142.8260   77.9690  220.1960 H   0  0  0  0  0  0  0  0  0  0  0  0
  141.0832   79.5751  218.8335 H   0  0  0  0  0  0  0  0  0  0  0  0
  140.1631   78.8277  220.3156 H   0  0  0  0  0  0  0  0  0  0  0  0
  142.7947   82.1032  222.4703 H   0  0  0  0  0  0  0  0  0  0  0  0
  141.4564   82.0573  223.5503 H   0  0  0  0  0  0  0  0  0  0  0  0
  143.9589   80.2762  223.4527 H   0  0  0  0  0  0  0  0  0  0  0  0
  143.0797   80.7948  224.8979 H   0  0  0  0  0  0  0  0  0  0  0  0
  142.7259   78.3225  223.3057 H   0  0  0  0  0  0  0  0  0  0  0  0
  141.9851   78.6793  224.8427 H   0  0  0  0  0  0  0  0  0  0  0  0
  140.1501   79.9893  223.7063 H   0  0  0  0  0  0  0  0  0  0  0  0
  141.5162   76.8407  222.3562 H   0  0  0  0  0  0  0  0  0  0  0  0
  137.9334   74.6003  220.6219 H   0  0  0  0  0  0  0  0  0  0  0  0
  138.3873   72.2763  219.9931 H   0  0  0  0  0  0  0  0  0  0  0  0
  140.5284   71.1882  220.6397 H   0  0  0  0  0  0  0  0  0  0  0  0
  142.1743   72.5614  221.9563 H   0  0  0  0  0  0  0  0  0  0  0  0
  137.2805   76.1587  221.7907 H   0  0  0  0  0  0  0  0  0  0  0  0
  141.0663   74.5454  217.7899 H   0  0  0  0  0  0  0  0  0  0  0  0
  142.5514   72.5328  217.7645 H   0  0  0  0  0  0  0  0  0  0  0  0
  144.5791   71.3956  218.6040 H   0  0  0  0  0  0  0  0  0  0  0  0
  147.0407   73.4246  221.4590 H   0  0  0  0  0  0  0  0  0  0  0  0
  145.5390   75.3945  221.4473 H   0  0  0  0  0  0  0  0  0  0  0  0
  1  2  2  0
  2  3  1  0
  3  4  1  0
  4  5  1  0
  5  6  2  0
  5  7  1  0
  7  8  1  0
  8  9  1  0
  9 10  1  0
 10 11  1  0
 11 12  1  0
 12 13  2  0
 13 14  1  0
 14 15  1  0
 15 16  2  0
 16 17  1  0
 17 18  2  0
 18 19  1  0
 19 20  2  0
 14 21  2  0
 21 22  1  0
  2 23  1  0
 23 24  2  0
 24 25  1  0
 25 26  2  0
 26 27  1  0
 27 28  2  0
 28 29  1  0
 28 30  1  0
 30 31  2  0
 31 32  1  0
 32 33  2  0
 11  7  1  0
 22 12  1  0
 33 23  1  0
 20 15  1  0
 32 26  1  0
  3 34  1  0
  4 35  1  0
  4 36  1  0
  8 37  1  0
  8 38  1  0
  9 39  1  0
  9 40  1  0
 10 41  1  0
 10 42  1  0
 11 43  1  1
 13 44  1  0
 16 45  1  0
 17 46  1  0
 18 47  1  0
 19 48  1  0
 21 49  1  0
 24 50  1  0
 25 51  1  0
 27 52  1  0
 30 53  1  0
 31 54  1  0
M  END
>  <smiles>  (44) 
O=C(NCC(=O)N1CCC[C@@H]1c1cc(-c2ccccn2)cs1)c1ccc2cc(F)ccc2n1

>  <score_type>  (44) 
oracle

>  <origin>  (44) 
autodockgpu

>  <m_score__min__energy>  (44) 
-9.3699999999999992

>  <m_primary>  (44) 
energy

>  <rmsd>  (44) 
7.5091706309972945

>  <m_score__min__rmsd>  (44) 
7.5091706309972945

>  <meeko>  (44) 
{"free_energy": -7.77, "intermolecular_energy": -9.56, "internal_energy": -3.35, "cluster_size": 30, "cluster_id": 6, "rank_in_cluster": 9}

>  <energy>  (44) 
-7.03

>  <cluster_rmsd>  (44) 
0.0

>  <cluster>  (44) 
7

$$$$

     RDKit          3D

 54 58  0  0  0  0  0  0  0  0999 V2000
  142.6530   77.0680  217.5490 O   0  0  0  0  0  0  0  0  0  0  0  0
  142.6320   77.7480  218.6030 C   0  0  0  0  0  0  0  0  0  0  0  0
  142.9550   77.0740  219.8200 N   0  0  0  0  0  0  0  0  0  0  0  0
  143.2960   75.7180  219.9580 C   0  0  0  0  0  0  0  0  0  0  0  0
  142.3390   74.6490  219.7150 C   0  0  0  0  0  0  0  0  0  0  0  0
  142.0130   74.5420  218.4560 O   0  0  0  0  0  0  0  0  0  0  0  0
  141.7150   73.7370  220.5570 N   0  0  0  0  0  0  0  0  0  0  0  0
  141.8080   72.2780  220.7210 C   0  0  0  0  0  0  0  0  0  0  0  0
  140.3240   71.9410  220.5560 C   0  0  0  0  0  0  0  0  0  0  0  0
  139.5640   73.1780  221.0340 C   0  0  0  0  0  0  0  0  0  0  0  0
  140.6650   74.0250  221.5680 C   0  0  2  0  0  0  0  0  0  0  0  0
  140.3140   75.3450  221.8340 C   0  0  0  0  0  0  0  0  0  0  0  0
  141.0720   76.4150  222.2100 C   0  0  0  0  0  0  0  0  0  0  0  0
  140.5270   77.6060  222.3700 C   0  0  0  0  0  0  0  0  0  0  0  0
  141.2850   78.8220  222.7800 C   0  0  0  0  0  0  0  0  0  0  0  0
  140.7190   79.7960  223.5600 C   0  0  0  0  0  0  0  0  0  0  0  0
  141.4220   80.9130  223.9330 C   0  0  0  0  0  0  0  0  0  0  0  0
  142.7160   81.0930  223.5390 C   0  0  0  0  0  0  0  0  0  0  0  0
  143.2680   80.0840  222.7450 C   0  0  0  0  0  0  0  0  0  0  0  0
  142.5570   79.0020  222.3940 N   0  0  0  0  0  0  0  0  0  0  0  0
  139.1500   77.7360  222.1400 C   0  0  0  0  0  0  0  0  0  0  0  0
  138.6460   76.0060  221.6660 S   0  0  0  0  0  0  0  0  0  0  0  0
  142.2930   79.1770  218.6030 C   0  0  0  0  0  0  0  0  0  0  0  0
  142.5830   79.9060  217.4700 C   0  0  0  0  0  0  0  0  0  0  0  0
  142.2690   81.2570  217.4510 C   0  0  0  0  0  0  0  0  0  0  0  0
  141.6810   81.8360  218.5550 C   0  0  0  0  0  0  0  0  0  0  0  0
  141.3440   83.1900  218.5940 C   0  0  0  0  0  0  0  0  0  0  0  0
  140.7530   83.7300  219.7250 C   0  0  0  0  0  0  0  0  0  0  0  0
  140.4340   85.0530  219.7410 F   0  0  0  0  0  0  0  0  0  0  0  0
  140.5080   82.9060  220.8040 C   0  0  0  0  0  0  0  0  0  0  0  0
  140.8240   81.5630  220.8120 C   0  0  0  0  0  0  0  0  0  0  0  0
  141.4180   81.0400  219.6620 C   0  0  0  0  0  0  0  0  0  0  0  0
  141.7150   79.7270  219.6990 N   0  0  0  0  0  0  0  0  0  0  0  0
  142.9250   77.6850  220.6840 H   0  0  0  0  0  0  0  0  0  0  0  0
  144.1353   75.5410  219.2693 H   0  0  0  0  0  0  0  0  0  0  0  0
  143.4631   75.6334  221.0419 H   0  0  0  0  0  0  0  0  0  0  0  0
  142.4289   71.8113  219.9421 H   0  0  0  0  0  0  0  0  0  0  0  0
  142.2782   71.9292  221.6522 H   0  0  0  0  0  0  0  0  0  0  0  0
  140.0929   71.7327  219.5009 H   0  0  0  0  0  0  0  0  0  0  0  0
  140.0445   71.0454  221.1303 H   0  0  0  0  0  0  0  0  0  0  0  0
  139.0441   73.6750  220.2017 H   0  0  0  0  0  0  0  0  0  0  0  0
  138.7744   72.9594  221.7680 H   0  0  0  0  0  0  0  0  0  0  0  0
  141.0085   73.8016  222.5888 H   0  0  0  0  0  0  0  0  0  0  0  0
  142.1505   76.2834  222.3819 H   0  0  0  0  0  0  0  0  0  0  0  0
  139.6776   79.6795  223.8945 H   0  0  0  0  0  0  0  0  0  0  0  0
  140.9354   81.6753  224.5592 H   0  0  0  0  0  0  0  0  0  0  0  0
  143.2928   81.9832  223.8303 H   0  0  0  0  0  0  0  0  0  0  0  0
  144.3083   80.1792  222.4003 H   0  0  0  0  0  0  0  0  0  0  0  0
  138.5228   78.6361  222.2196 H   0  0  0  0  0  0  0  0  0  0  0  0
  143.0536   79.4266  216.5990 H   0  0  0  0  0  0  0  0  0  0  0  0
  142.4881   81.8631  216.5596 H   0  0  0  0  0  0  0  0  0  0  0  0
  141.5483   83.8308  217.7236 H   0  0  0  0  0  0  0  0  0  0  0  0
  140.0390   83.3398  221.6994 H   0  0  0  0  0  0  0  0  0  0  0  0
  140.6166   80.9308  221.6879 H   0  0  0  0  0  0  0  0  0  0  0  0
  1  2  2  0
  2  3  1  0
  3  4  1  0
  4  5  1  0
  5  6  2  0
  5  7  1  0
  7  8  1  0
  8  9  1  0
  9 10  1  0
 10 11  1  0
 11 12  1  0
 12 13  2  0
 13 14  1  0
 14 15  1  0
 15 16  2  0
 16 17  1  0
 17 18  2  0
 18 19  1  0
 19 20  2  0
 14 21  2  0
 21 22  1  0
  2 23  1  0
 23 24  2  0
 24 25  1  0
 25 26  2  0
 26 27  1  0
 27 28  2  0
 28 29  1  0
 28 30  1  0
 30 31  2  0
 31 32  1  0
 32 33  2  0
 11  7  1  0
 22 12  1  0
 33 23  1  0
 20 15  1  0
 32 26  1  0
  3 34  1  0
  4 35  1  0
  4 36  1  0
  8 37  1  0
  8 38  1  0
  9 39  1  0
  9 40  1  0
 10 41  1  0
 10 42  1  0
 11 43  1  1
 13 44  1  0
 16 45  1  0
 17 46  1  0
 18 47  1  0
 19 48  1  0
 21 49  1  0
 24 50  1  0
 25 51  1  0
 27 52  1  0
 30 53  1  0
 31 54  1  0
M  END
>  <smiles>  (45) 
O=C(NCC(=O)N1CCC[C@@H]1c1cc(-c2ccccn2)cs1)c1ccc2cc(F)ccc2n1

>  <score_type>  (45) 
oracle

>  <origin>  (45) 
autodockgpu

>  <m_score__min__energy>  (45) 
-9.3699999999999992

>  <m_primary>  (45) 
energy

>  <rmsd>  (45) 
9.72813274767362

>  <m_score__min__rmsd>  (45) 
9.72813274767362

>  <meeko>  (45) 
{"free_energy": -7.03, "intermolecular_energy": -8.82, "internal_energy": -3.67, "cluster_size": 5, "cluster_id": 7, "rank_in_cluster": 1}

>  <energy>  (45) 
-7.03

>  <cluster_rmsd>  (45) 
0.28

>  <cluster>  (45) 
7

$$$$

     RDKit          3D

 54 58  0  0  0  0  0  0  0  0999 V2000
  141.7330   79.6820  217.5940 O   0  0  0  0  0  0  0  0  0  0  0  0
  141.8120   78.8590  218.5370 C   0  0  0  0  0  0  0  0  0  0  0  0
  141.1950   79.2200  219.7720 N   0  0  0  0  0  0  0  0  0  0  0  0
  140.5030   80.4130  220.0420 C   0  0  0  0  0  0  0  0  0  0  0  0
  140.3760   80.9480  221.3910 C   0  0  0  0  0  0  0  0  0  0  0  0
  139.4670   81.8800  221.4770 O   0  0  0  0  0  0  0  0  0  0  0  0
  141.0300   80.6600  222.5820 N   0  0  0  0  0  0  0  0  0  0  0  0
  141.8610   81.4540  223.5010 C   0  0  0  0  0  0  0  0  0  0  0  0
  143.0930   80.5460  223.5230 C   0  0  0  0  0  0  0  0  0  0  0  0
  142.5730   79.1350  223.2570 C   0  0  0  0  0  0  0  0  0  0  0  0
  141.1000   79.3460  223.2690 C   0  0  2  0  0  0  0  0  0  0  0  0
  140.3490   78.2780  222.7850 C   0  0  0  0  0  0  0  0  0  0  0  0
  140.7300   77.0490  222.3330 C   0  0  0  0  0  0  0  0  0  0  0  0
  139.8300   76.1600  221.9540 C   0  0  0  0  0  0  0  0  0  0  0  0
  140.1640   74.7990  221.4490 C   0  0  0  0  0  0  0  0  0  0  0  0
  140.3040   74.5400  220.1110 C   0  0  0  0  0  0  0  0  0  0  0  0
  140.6100   73.2860  219.6520 C   0  0  0  0  0  0  0  0  0  0  0  0
  140.7890   72.2460  220.5170 C   0  0  0  0  0  0  0  0  0  0  0  0
  140.6410   72.5370  221.8760 C   0  0  0  0  0  0  0  0  0  0  0  0
  140.3400   73.7740  222.2970 N   0  0  0  0  0  0  0  0  0  0  0  0
  138.4770   76.5200  222.0330 C   0  0  0  0  0  0  0  0  0  0  0  0
  138.5500   78.2580  222.6990 S   0  0  0  0  0  0  0  0  0  0  0  0
  142.5060   77.5720  218.3930 C   0  0  0  0  0  0  0  0  0  0  0  0
  142.8870   77.1860  217.1250 C   0  0  0  0  0  0  0  0  0  0  0  0
  143.5440   75.9740  216.9690 C   0  0  0  0  0  0  0  0  0  0  0  0
  143.7980   75.1890  218.0730 C   0  0  0  0  0  0  0  0  0  0  0  0
  144.4540   73.9610  217.9770 C   0  0  0  0  0  0  0  0  0  0  0  0
  144.6900   73.2050  219.1140 C   0  0  0  0  0  0  0  0  0  0  0  0
  145.3310   72.0100  218.9960 F   0  0  0  0  0  0  0  0  0  0  0  0
  144.2630   73.6890  220.3330 C   0  0  0  0  0  0  0  0  0  0  0  0
  143.6110   74.8960  220.4780 C   0  0  0  0  0  0  0  0  0  0  0  0
  143.3850   75.6420  219.3190 C   0  0  0  0  0  0  0  0  0  0  0  0
  142.7460   76.8140  219.4910 N   0  0  0  0  0  0  0  0  0  0  0  0
  141.2860   78.4970  220.5410 H   0  0  0  0  0  0  0  0  0  0  0  0
  140.9961   81.1955  219.4466 H   0  0  0  0  0  0  0  0  0  0  0  0
  139.4651   80.1337  219.8078 H   0  0  0  0  0  0  0  0  0  0  0  0
  142.0877   82.4525  223.0989 H   0  0  0  0  0  0  0  0  0  0  0  0
  141.4132   81.6799  224.4800 H   0  0  0  0  0  0  0  0  0  0  0  0
  143.8045   80.8463  222.7397 H   0  0  0  0  0  0  0  0  0  0  0  0
  143.6249   80.6076  224.4839 H   0  0  0  0  0  0  0  0  0  0  0  0
  142.9158   78.7591  222.2817 H   0  0  0  0  0  0  0  0  0  0  0  0
  142.9218   78.3873  223.9845 H   0  0  0  0  0  0  0  0  0  0  0  0
  140.6139   79.3744  224.2554 H   0  0  0  0  0  0  0  0  0  0  0  0
  141.7992   76.7953  222.2835 H   0  0  0  0  0  0  0  0  0  0  0  0
  140.1675   75.3580  219.3884 H   0  0  0  0  0  0  0  0  0  0  0  0
  140.7129   73.1150  218.5702 H   0  0  0  0  0  0  0  0  0  0  0  0
  141.0363   71.2339  220.1641 H   0  0  0  0  0  0  0  0  0  0  0  0
  140.7743   71.7341  222.6160 H   0  0  0  0  0  0  0  0  0  0  0  0
  137.5917   75.9236  221.7674 H   0  0  0  0  0  0  0  0  0  0  0  0
  142.6745   77.8256  216.2556 H   0  0  0  0  0  0  0  0  0  0  0  0
  143.8605   75.6413  215.9694 H   0  0  0  0  0  0  0  0  0  0  0  0
  144.7849   73.5918  216.9951 H   0  0  0  0  0  0  0  0  0  0  0  0
  144.4513   73.0839  221.2321 H   0  0  0  0  0  0  0  0  0  0  0  0
  143.2830   75.2557  221.4644 H   0  0  0  0  0  0  0  0  0  0  0  0
  1  2  2  0
  2  3  1  0
  3  4  1  0
  4  5  1  0
  5  6  2  0
  5  7  1  0
  7  8  1  0
  8  9  1  0
  9 10  1  0
 10 11  1  0
 11 12  1  0
 12 13  2  0
 13 14  1  0
 14 15  1  0
 15 16  2  0
 16 17  1  0
 17 18  2  0
 18 19  1  0
 19 20  2  0
 14 21  2  0
 21 22  1  0
  2 23  1  0
 23 24  2  0
 24 25  1  0
 25 26  2  0
 26 27  1  0
 27 28  2  0
 28 29  1  0
 28 30  1  0
 30 31  2  0
 31 32  1  0
 32 33  2  0
 11  7  1  0
 22 12  1  0
 33 23  1  0
 20 15  1  0
 32 26  1  0
  3 34  1  0
  4 35  1  0
  4 36  1  0
  8 37  1  0
  8 38  1  0
  9 39  1  0
  9 40  1  0
 10 41  1  0
 10 42  1  0
 11 43  1  1
 13 44  1  0
 16 45  1  0
 17 46  1  0
 18 47  1  0
 19 48  1  0
 21 49  1  0
 24 50  1  0
 25 51  1  0
 27 52  1  0
 30 53  1  0
 31 54  1  0
M  END
>  <smiles>  (46) 
O=C(NCC(=O)N1CCC[C@@H]1c1cc(-c2ccccn2)cs1)c1ccc2cc(F)ccc2n1

>  <score_type>  (46) 
oracle

>  <origin>  (46) 
autodockgpu

>  <m_score__min__energy>  (46) 
-9.3699999999999992

>  <m_primary>  (46) 
energy

>  <rmsd>  (46) 
8.30993929732277

>  <m_score__min__rmsd>  (46) 
8.30993929732277

>  <meeko>  (46) 
{"free_energy": -7.25, "intermolecular_energy": -9.04, "internal_energy": -3.45, "cluster_size": 30, "cluster_id": 6, "rank_in_cluster": 24}

>  <energy>  (46) 
-6.93

>  <cluster_rmsd>  (46) 
0.37

>  <cluster>  (46) 
7

$$$$

     RDKit          3D

 54 58  0  0  0  0  0  0  0  0999 V2000
  140.6140   73.1880  222.3100 O   0  0  0  0  0  0  0  0  0  0  0  0
  139.7000   72.3710  222.5740 C   0  0  0  0  0  0  0  0  0  0  0  0
  138.5510   72.3800  221.7270 N   0  0  0  0  0  0  0  0  0  0  0  0
  138.3380   73.2160  220.6190 C   0  0  0  0  0  0  0  0  0  0  0  0
  138.7360   74.6170  220.6160 C   0  0  0  0  0  0  0  0  0  0  0  0
  138.9950   75.0630  219.4180 O   0  0  0  0  0  0  0  0  0  0  0  0
  138.8910   75.5520  221.6320 N   0  0  0  0  0  0  0  0  0  0  0  0
  138.0210   76.0220  222.7210 C   0  0  0  0  0  0  0  0  0  0  0  0
  138.0710   77.5200  222.4110 C   0  0  0  0  0  0  0  0  0  0  0  0
  139.4200   77.7590  221.7370 C   0  0  0  0  0  0  0  0  0  0  0  0
  140.0680   76.4260  221.8700 C   0  0  2  0  0  0  0  0  0  0  0  0
  141.2180   76.2520  221.1060 C   0  0  0  0  0  0  0  0  0  0  0  0
  142.0820   75.2010  221.0150 C   0  0  0  0  0  0  0  0  0  0  0  0
  143.1020   75.2350  220.1780 C   0  0  0  0  0  0  0  0  0  0  0  0
  144.0890   74.1310  220.0200 C   0  0  0  0  0  0  0  0  0  0  0  0
  145.2890   74.1350  220.6830 C   0  0  0  0  0  0  0  0  0  0  0  0
  146.1930   73.1160  220.5340 C   0  0  0  0  0  0  0  0  0  0  0  0
  145.9280   72.0560  219.7160 C   0  0  0  0  0  0  0  0  0  0  0  0
  144.6990   72.0770  219.0520 C   0  0  0  0  0  0  0  0  0  0  0  0
  143.8320   73.0880  219.2160 N   0  0  0  0  0  0  0  0  0  0  0  0
  143.2660   76.3830  219.3880 C   0  0  0  0  0  0  0  0  0  0  0  0
  141.8380   77.4560  219.9170 S   0  0  0  0  0  0  0  0  0  0  0  0
  139.7930   71.4360  223.7030 C   0  0  0  0  0  0  0  0  0  0  0  0
  139.3030   70.1600  223.5230 C   0  0  0  0  0  0  0  0  0  0  0  0
  139.3810   69.2630  224.5790 C   0  0  0  0  0  0  0  0  0  0  0  0
  139.9410   69.6630  225.7730 C   0  0  0  0  0  0  0  0  0  0  0  0
  140.0470   68.8050  226.8690 C   0  0  0  0  0  0  0  0  0  0  0  0
  140.6180   69.2490  228.0510 C   0  0  0  0  0  0  0  0  0  0  0  0
  140.7100   68.3950  229.1070 F   0  0  0  0  0  0  0  0  0  0  0  0
  141.0760   70.5490  228.1200 C   0  0  0  0  0  0  0  0  0  0  0  0
  140.9920   71.4330  227.0630 C   0  0  0  0  0  0  0  0  0  0  0  0
  140.4140   70.9640  225.8820 C   0  0  0  0  0  0  0  0  0  0  0  0
  140.3470   71.8490  224.8700 N   0  0  0  0  0  0  0  0  0  0  0  0
  137.8050   71.6740  221.9860 H   0  0  0  0  0  0  0  0  0  0  0  0
  138.8631   72.7460  219.7744 H   0  0  0  0  0  0  0  0  0  0  0  0
  137.2407   73.2898  220.5957 H   0  0  0  0  0  0  0  0  0  0  0  0
  137.0018   75.6154  222.6437 H   0  0  0  0  0  0  0  0  0  0  0  0
  138.3244   75.7315  223.7376 H   0  0  0  0  0  0  0  0  0  0  0  0
  137.2497   77.7990  221.7345 H   0  0  0  0  0  0  0  0  0  0  0  0
  137.9598   78.1265  223.3219 H   0  0  0  0  0  0  0  0  0  0  0  0
  139.2957   78.0402  220.6808 H   0  0  0  0  0  0  0  0  0  0  0  0
  139.9996   78.5820  222.1805 H   0  0  0  0  0  0  0  0  0  0  0  0
  140.5521   76.2062  222.8330 H   0  0  0  0  0  0  0  0  0  0  0  0
  141.9270   74.3140  221.6468 H   0  0  0  0  0  0  0  0  0  0  0  0
  145.5317   74.9755  221.3499 H   0  0  0  0  0  0  0  0  0  0  0  0
  147.1462   73.1528  221.0817 H   0  0  0  0  0  0  0  0  0  0  0  0
  146.6431   71.2302  219.5866 H   0  0  0  0  0  0  0  0  0  0  0  0
  144.4363   71.2467  218.3801 H   0  0  0  0  0  0  0  0  0  0  0  0
  144.0449   76.5965  218.6412 H   0  0  0  0  0  0  0  0  0  0  0  0
  138.8595   69.8592  222.5624 H   0  0  0  0  0  0  0  0  0  0  0  0
  138.9979   68.2383  224.4636 H   0  0  0  0  0  0  0  0  0  0  0  0
  139.6758   67.7723  226.7941 H   0  0  0  0  0  0  0  0  0  0  0  0
  141.5287   70.8967  229.0603 H   0  0  0  0  0  0  0  0  0  0  0  0
  141.3651   72.4643  227.1479 H   0  0  0  0  0  0  0  0  0  0  0  0
  1  2  2  0
  2  3  1  0
  3  4  1  0
  4  5  1  0
  5  6  2  0
  5  7  1  0
  7  8  1  0
  8  9  1  0
  9 10  1  0
 10 11  1  0
 11 12  1  0
 12 13  2  0
 13 14  1  0
 14 15  1  0
 15 16  2  0
 16 17  1  0
 17 18  2  0
 18 19  1  0
 19 20  2  0
 14 21  2  0
 21 22  1  0
  2 23  1  0
 23 24  2  0
 24 25  1  0
 25 26  2  0
 26 27  1  0
 27 28  2  0
 28 29  1  0
 28 30  1  0
 30 31  2  0
 31 32  1  0
 32 33  2  0
 11  7  1  0
 22 12  1  0
 33 23  1  0
 20 15  1  0
 32 26  1  0
  3 34  1  0
  4 35  1  0
  4 36  1  0
  8 37  1  0
  8 38  1  0
  9 39  1  0
  9 40  1  0
 10 41  1  0
 10 42  1  0
 11 43  1  1
 13 44  1  0
 16 45  1  0
 17 46  1  0
 18 47  1  0
 19 48  1  0
 21 49  1  0
 24 50  1  0
 25 51  1  0
 27 52  1  0
 30 53  1  0
 31 54  1  0
M  END
>  <smiles>  (47) 
O=C(NCC(=O)N1CCC[C@@H]1c1cc(-c2ccccn2)cs1)c1ccc2cc(F)ccc2n1

>  <score_type>  (47) 
oracle

>  <origin>  (47) 
autodockgpu

>  <m_score__min__energy>  (47) 
-9.3699999999999992

>  <m_primary>  (47) 
energy

>  <rmsd>  (47) 
4.569204080687422

>  <m_score__min__rmsd>  (47) 
4.569204080687422

>  <meeko>  (47) 
{"free_energy": -8.88, "intermolecular_energy": -10.67, "internal_energy": -1.83, "cluster_size": 2, "cluster_id": 3, "rank_in_cluster": 1}

>  <energy>  (47) 
-6.84

>  <cluster_rmsd>  (47) 
0.42

>  <cluster>  (47) 
7

$$$$

     RDKit          3D

 54 58  0  0  0  0  0  0  0  0999 V2000
  137.6800   70.1710  221.5660 O   0  0  0  0  0  0  0  0  0  0  0  0
  138.1760   70.8840  222.4710 C   0  0  0  0  0  0  0  0  0  0  0  0
  138.1440   72.2990  222.2790 N   0  0  0  0  0  0  0  0  0  0  0  0
  137.6090   72.9780  221.1720 C   0  0  0  0  0  0  0  0  0  0  0  0
  136.9460   74.2690  221.3000 C   0  0  0  0  0  0  0  0  0  0  0  0
  136.9030   74.9250  220.1730 O   0  0  0  0  0  0  0  0  0  0  0  0
  136.3640   74.9230  222.3780 N   0  0  0  0  0  0  0  0  0  0  0  0
  135.0750   74.7830  223.0750 C   0  0  0  0  0  0  0  0  0  0  0  0
  134.6000   76.2330  222.9530 C   0  0  0  0  0  0  0  0  0  0  0  0
  135.8680   77.0810  222.8900 C   0  0  0  0  0  0  0  0  0  0  0  0
  136.9270   76.0660  223.1420 C   0  0  2  0  0  0  0  0  0  0  0  0
  138.2250   76.4930  222.8780 C   0  0  0  0  0  0  0  0  0  0  0  0
  138.8210   77.7070  223.0550 C   0  0  0  0  0  0  0  0  0  0  0  0
  140.0990   77.8800  222.7710 C   0  0  0  0  0  0  0  0  0  0  0  0
  140.8220   79.1730  222.9360 C   0  0  0  0  0  0  0  0  0  0  0  0
  142.0920   79.2280  223.4470 C   0  0  0  0  0  0  0  0  0  0  0  0
  142.7530   80.4200  223.5960 C   0  0  0  0  0  0  0  0  0  0  0  0
  142.1650   81.5980  223.2370 C   0  0  0  0  0  0  0  0  0  0  0  0
  140.8700   81.5130  222.7190 C   0  0  0  0  0  0  0  0  0  0  0  0
  140.2470   80.3320  222.5840 N   0  0  0  0  0  0  0  0  0  0  0  0
  140.8190   76.7800  222.2860 C   0  0  0  0  0  0  0  0  0  0  0  0
  139.5360   75.4290  222.2500 S   0  0  0  0  0  0  0  0  0  0  0  0
  138.7690   70.3050  223.6840 C   0  0  0  0  0  0  0  0  0  0  0  0
  138.6780   68.9400  223.8550 C   0  0  0  0  0  0  0  0  0  0  0  0
  139.2320   68.3750  224.9940 C   0  0  0  0  0  0  0  0  0  0  0  0
  139.8550   69.1820  225.9220 C   0  0  0  0  0  0  0  0  0  0  0  0
  140.4290   68.6690  227.0860 C   0  0  0  0  0  0  0  0  0  0  0  0
  141.0460   69.5170  227.9920 C   0  0  0  0  0  0  0  0  0  0  0  0
  141.5990   68.9960  229.1210 F   0  0  0  0  0  0  0  0  0  0  0  0
  141.0780   70.8690  227.7190 C   0  0  0  0  0  0  0  0  0  0  0  0
  140.5240   71.4220  226.5830 C   0  0  0  0  0  0  0  0  0  0  0  0
  139.9090   70.5480  225.6840 C   0  0  0  0  0  0  0  0  0  0  0  0
  139.3770   71.1160  224.5850 N   0  0  0  0  0  0  0  0  0  0  0  0
  138.5720   72.8620  223.0670 H   0  0  0  0  0  0  0  0  0  0  0  0
  138.4438   73.1296  220.4719 H   0  0  0  0  0  0  0  0  0  0  0  0
  136.7764   72.3208  220.8807 H   0  0  0  0  0  0  0  0  0  0  0  0
  134.4004   74.0804  222.5639 H   0  0  0  0  0  0  0  0  0  0  0  0
  135.1231   74.3779  224.0965 H   0  0  0  0  0  0  0  0  0  0  0  0
  134.0045   76.3655  222.0377 H   0  0  0  0  0  0  0  0  0  0  0  0
  133.9604   76.5226  223.7998 H   0  0  0  0  0  0  0  0  0  0  0  0
  135.9884   77.5483  221.9015 H   0  0  0  0  0  0  0  0  0  0  0  0
  135.8778   77.9204  223.6008 H   0  0  0  0  0  0  0  0  0  0  0  0
  137.1169   75.8020  224.1928 H   0  0  0  0  0  0  0  0  0  0  0  0
  138.2302   78.5518  223.4388 H   0  0  0  0  0  0  0  0  0  0  0  0
  142.5927   78.2948  223.7445 H   0  0  0  0  0  0  0  0  0  0  0  0
  143.7718   80.4269  224.0108 H   0  0  0  0  0  0  0  0  0  0  0  0
  142.6824   82.5622  223.3493 H   0  0  0  0  0  0  0  0  0  0  0  0
  140.3501   82.4337  222.4154 H   0  0  0  0  0  0  0  0  0  0  0  0
  141.8793   76.7271  221.9978 H   0  0  0  0  0  0  0  0  0  0  0  0
  138.1765   68.3122  223.1038 H   0  0  0  0  0  0  0  0  0  0  0  0
  139.1746   67.2885  225.1561 H   0  0  0  0  0  0  0  0  0  0  0  0
  140.3916   67.5878  227.2851 H   0  0  0  0  0  0  0  0  0  0  0  0
  141.5686   71.5378  228.4415 H   0  0  0  0  0  0  0  0  0  0  0  0
  140.5649   72.5048  226.3935 H   0  0  0  0  0  0  0  0  0  0  0  0
  1  2  2  0
  2  3  1  0
  3  4  1  0
  4  5  1  0
  5  6  2  0
  5  7  1  0
  7  8  1  0
  8  9  1  0
  9 10  1  0
 10 11  1  0
 11 12  1  0
 12 13  2  0
 13 14  1  0
 14 15  1  0
 15 16  2  0
 16 17  1  0
 17 18  2  0
 18 19  1  0
 19 20  2  0
 14 21  2  0
 21 22  1  0
  2 23  1  0
 23 24  2  0
 24 25  1  0
 25 26  2  0
 26 27  1  0
 27 28  2  0
 28 29  1  0
 28 30  1  0
 30 31  2  0
 31 32  1  0
 32 33  2  0
 11  7  1  0
 22 12  1  0
 33 23  1  0
 20 15  1  0
 32 26  1  0
  3 34  1  0
  4 35  1  0
  4 36  1  0
  8 37  1  0
  8 38  1  0
  9 39  1  0
  9 40  1  0
 10 41  1  0
 10 42  1  0
 11 43  1  1
 13 44  1  0
 16 45  1  0
 17 46  1  0
 18 47  1  0
 19 48  1  0
 21 49  1  0
 24 50  1  0
 25 51  1  0
 27 52  1  0
 30 53  1  0
 31 54  1  0
M  END
>  <smiles>  (48) 
O=C(NCC(=O)N1CCC[C@@H]1c1cc(-c2ccccn2)cs1)c1ccc2cc(F)ccc2n1

>  <score_type>  (48) 
oracle

>  <origin>  (48) 
autodockgpu

>  <m_score__min__energy>  (48) 
-9.3699999999999992

>  <m_primary>  (48) 
energy

>  <rmsd>  (48) 
3.003769080382272

>  <m_score__min__rmsd>  (48) 
3.003769080382272

>  <meeko>  (48) 
{"free_energy": -8.41, "intermolecular_energy": -10.2, "internal_energy": -1.71, "cluster_size": 1, "cluster_id": 4, "rank_in_cluster": 1}

>  <energy>  (48) 
-6.72

>  <cluster_rmsd>  (48) 
0.68

>  <cluster>  (48) 
7

$$$$

     RDKit          3D

 54 58  0  0  0  0  0  0  0  0999 V2000
  140.1030   73.5410  222.3450 O   0  0  0  0  0  0  0  0  0  0  0  0
  140.2770   72.3000  222.2980 C   0  0  0  0  0  0  0  0  0  0  0  0
  140.6270   71.7370  221.0340 N   0  0  0  0  0  0  0  0  0  0  0  0
  140.7990   72.4360  219.8280 C   0  0  0  0  0  0  0  0  0  0  0  0
  141.7270   73.5510  219.7030 C   0  0  0  0  0  0  0  0  0  0  0  0
  142.4270   73.7450  220.7870 O   0  0  0  0  0  0  0  0  0  0  0  0
  142.0020   74.4340  218.6670 N   0  0  0  0  0  0  0  0  0  0  0  0
  142.4770   74.2610  217.2850 C   0  0  0  0  0  0  0  0  0  0  0  0
  143.6860   75.1990  217.3480 C   0  0  0  0  0  0  0  0  0  0  0  0
  143.3370   76.2530  218.3970 C   0  0  0  0  0  0  0  0  0  0  0  0
  141.9210   75.9170  218.7090 C   0  0  2  0  0  0  0  0  0  0  0  0
  141.4040   76.5430  219.8390 C   0  0  0  0  0  0  0  0  0  0  0  0
  141.7950   77.6740  220.4930 C   0  0  0  0  0  0  0  0  0  0  0  0
  141.1210   78.1170  221.5390 C   0  0  0  0  0  0  0  0  0  0  0  0
  141.4820   79.3420  222.3060 C   0  0  0  0  0  0  0  0  0  0  0  0
  142.2310   79.2790  223.4530 C   0  0  0  0  0  0  0  0  0  0  0  0
  142.5600   80.4090  224.1560 C   0  0  0  0  0  0  0  0  0  0  0  0
  142.1530   81.6420  223.7340 C   0  0  0  0  0  0  0  0  0  0  0  0
  141.3920   81.6770  222.5620 C   0  0  0  0  0  0  0  0  0  0  0  0
  141.0840   80.5550  221.8950 N   0  0  0  0  0  0  0  0  0  0  0  0
  139.9950   77.3900  221.9510 C   0  0  0  0  0  0  0  0  0  0  0  0
  139.9400   75.9860  220.7280 S   0  0  0  0  0  0  0  0  0  0  0  0
  140.1300   71.4470  223.4850 C   0  0  0  0  0  0  0  0  0  0  0  0
  139.4570   70.2530  223.3390 C   0  0  0  0  0  0  0  0  0  0  0  0
  139.3090   69.4330  224.4490 C   0  0  0  0  0  0  0  0  0  0  0  0
  139.8320   69.8270  225.6620 C   0  0  0  0  0  0  0  0  0  0  0  0
  139.7140   69.0460  226.8120 C   0  0  0  0  0  0  0  0  0  0  0  0
  140.2560   69.4800  228.0110 C   0  0  0  0  0  0  0  0  0  0  0  0
  140.1280   68.7010  229.1200 F   0  0  0  0  0  0  0  0  0  0  0  0
  140.9090   70.6940  228.0420 C   0  0  0  0  0  0  0  0  0  0  0  0
  141.0510   71.5020  226.9320 C   0  0  0  0  0  0  0  0  0  0  0  0
  140.4980   71.0430  225.7340 C   0  0  0  0  0  0  0  0  0  0  0  0
  140.6520   71.8520  224.6690 N   0  0  0  0  0  0  0  0  0  0  0  0
  140.7650   70.6870  221.0410 H   0  0  0  0  0  0  0  0  0  0  0  0
  141.1133   71.6901  219.0831 H   0  0  0  0  0  0  0  0  0  0  0  0
  139.8254   72.9346  219.7117 H   0  0  0  0  0  0  0  0  0  0  0  0
  142.7682   73.2217  217.0728 H   0  0  0  0  0  0  0  0  0  0  0  0
  141.7429   74.4766  216.4947 H   0  0  0  0  0  0  0  0  0  0  0  0
  144.5871   74.6437  217.6473 H   0  0  0  0  0  0  0  0  0  0  0  0
  143.8979   75.6546  216.3695 H   0  0  0  0  0  0  0  0  0  0  0  0
  143.9762   76.1587  219.2872 H   0  0  0  0  0  0  0  0  0  0  0  0
  143.4835   77.2878  218.0538 H   0  0  0  0  0  0  0  0  0  0  0  0
  141.1579   76.3049  218.0182 H   0  0  0  0  0  0  0  0  0  0  0  0
  142.6821   78.2238  220.1453 H   0  0  0  0  0  0  0  0  0  0  0  0
  142.5755   78.2999  223.8171 H   0  0  0  0  0  0  0  0  0  0  0  0
  143.1606   80.3210  225.0734 H   0  0  0  0  0  0  0  0  0  0  0  0
  142.4100   82.5580  224.2862 H   0  0  0  0  0  0  0  0  0  0  0  0
  141.0382   82.6454  222.1786 H   0  0  0  0  0  0  0  0  0  0  0  0
  139.3131   77.5974  222.7888 H   0  0  0  0  0  0  0  0  0  0  0  0
  139.0457   69.9561  222.3629 H   0  0  0  0  0  0  0  0  0  0  0  0
  138.7773   68.4740  224.3612 H   0  0  0  0  0  0  0  0  0  0  0  0
  139.1881   68.0809  226.7666 H   0  0  0  0  0  0  0  0  0  0  0  0
  141.3370   71.0346  228.9964 H   0  0  0  0  0  0  0  0  0  0  0  0
  141.5772   72.4663  226.9883 H   0  0  0  0  0  0  0  0  0  0  0  0
  1  2  2  0
  2  3  1  0
  3  4  1  0
  4  5  1  0
  5  6  2  0
  5  7  1  0
  7  8  1  0
  8  9  1  0
  9 10  1  0
 10 11  1  0
 11 12  1  0
 12 13  2  0
 13 14  1  0
 14 15  1  0
 15 16  2  0
 16 17  1  0
 17 18  2  0
 18 19  1  0
 19 20  2  0
 14 21  2  0
 21 22  1  0
  2 23  1  0
 23 24  2  0
 24 25  1  0
 25 26  2  0
 26 27  1  0
 27 28  2  0
 28 29  1  0
 28 30  1  0
 30 31  2  0
 31 32  1  0
 32 33  2  0
 11  7  1  0
 22 12  1  0
 33 23  1  0
 20 15  1  0
 32 26  1  0
  3 34  1  0
  4 35  1  0
  4 36  1  0
  8 37  1  0
  8 38  1  0
  9 39  1  0
  9 40  1  0
 10 41  1  0
 10 42  1  0
 11 43  1  6
 13 44  1  0
 16 45  1  0
 17 46  1  0
 18 47  1  0
 19 48  1  0
 21 49  1  0
 24 50  1  0
 25 51  1  0
 27 52  1  0
 30 53  1  0
 31 54  1  0
M  END
>  <smiles>  (49) 
O=C(NCC(=O)N1CCC[C@@H]1c1cc(-c2ccccn2)cs1)c1ccc2cc(F)ccc2n1

>  <score_type>  (49) 
oracle

>  <origin>  (49) 
autodockgpu

>  <m_score__min__energy>  (49) 
-9.3699999999999992

>  <m_primary>  (49) 
energy

>  <rmsd>  (49) 
2.682653142757469

>  <m_score__min__rmsd>  (49) 
2.682653142757469

>  <meeko>  (49) 
{"free_energy": -9.13, "intermolecular_energy": -10.92, "internal_energy": -1.53, "cluster_size": 8, "cluster_id": 1, "rank_in_cluster": 2}

>  <energy>  (49) 
-6.62

>  <cluster_rmsd>  (49) 
0.0

>  <cluster>  (49) 
8

$$$$

     RDKit          3D

 54 58  0  0  0  0  0  0  0  0999 V2000
  141.1180   77.7700  217.4970 O   0  0  0  0  0  0  0  0  0  0  0  0
  141.9150   77.5320  218.4360 C   0  0  0  0  0  0  0  0  0  0  0  0
  142.0030   78.5030  219.4790 N   0  0  0  0  0  0  0  0  0  0  0  0
  141.2820   79.7060  219.5630 C   0  0  0  0  0  0  0  0  0  0  0  0
  141.4800   80.6540  220.6500 C   0  0  0  0  0  0  0  0  0  0  0  0
  141.7710   81.8530  220.2240 O   0  0  0  0  0  0  0  0  0  0  0  0
  141.4220   80.5260  222.0320 N   0  0  0  0  0  0  0  0  0  0  0  0
  141.7940   81.4070  223.1500 C   0  0  0  0  0  0  0  0  0  0  0  0
  142.7220   80.4410  223.8920 C   0  0  0  0  0  0  0  0  0  0  0  0
  142.2140   79.0400  223.5580 C   0  0  0  0  0  0  0  0  0  0  0  0
  140.9670   79.3400  222.8020 C   0  0  2  0  0  0  0  0  0  0  0  0
  140.4140   78.2550  222.1270 C   0  0  0  0  0  0  0  0  0  0  0  0
  140.7990   76.9480  222.0680 C   0  0  0  0  0  0  0  0  0  0  0  0
  140.0900   76.0660  221.3880 C   0  0  0  0  0  0  0  0  0  0  0  0
  140.4420   74.6220  221.2740 C   0  0  0  0  0  0  0  0  0  0  0  0
  140.9090   74.0840  220.1030 C   0  0  0  0  0  0  0  0  0  0  0  0
  141.2300   72.7550  220.0040 C   0  0  0  0  0  0  0  0  0  0  0  0
  141.0980   71.9190  221.0740 C   0  0  0  0  0  0  0  0  0  0  0  0
  140.6200   72.4930  222.2550 C   0  0  0  0  0  0  0  0  0  0  0  0
  140.3120   73.7970  222.3240 N   0  0  0  0  0  0  0  0  0  0  0  0
  138.9340   76.5150  220.7340 C   0  0  0  0  0  0  0  0  0  0  0  0
  138.9030   78.3310  221.1500 S   0  0  0  0  0  0  0  0  0  0  0  0
  142.7310   76.3120  218.4750 C   0  0  0  0  0  0  0  0  0  0  0  0
  142.8240   75.5630  217.3210 C   0  0  0  0  0  0  0  0  0  0  0  0
  143.5900   74.4070  217.3390 C   0  0  0  0  0  0  0  0  0  0  0  0
  144.2350   74.0340  218.4990 C   0  0  0  0  0  0  0  0  0  0  0  0
  145.0170   72.8810  218.5760 C   0  0  0  0  0  0  0  0  0  0  0  0
  145.6490   72.5440  219.7620 C   0  0  0  0  0  0  0  0  0  0  0  0
  146.4070   71.4160  219.8160 F   0  0  0  0  0  0  0  0  0  0  0  0
  145.4860   73.3680  220.8580 C   0  0  0  0  0  0  0  0  0  0  0  0
  144.7210   74.5160  220.8290 C   0  0  0  0  0  0  0  0  0  0  0  0
  144.0960   74.8360  219.6230 C   0  0  0  0  0  0  0  0  0  0  0  0
  143.3570   75.9620  219.6260 N   0  0  0  0  0  0  0  0  0  0  0  0
  142.6870   78.2620  220.2500 H   0  0  0  0  0  0  0  0  0  0  0  0
  141.4927   80.2558  218.6338 H   0  0  0  0  0  0  0  0  0  0  0  0
  140.2599   79.3476  219.7549 H   0  0  0  0  0  0  0  0  0  0  0  0
  142.3210   82.3105  222.8095 H   0  0  0  0  0  0  0  0  0  0  0  0
  140.9588   81.8167  223.7370 H   0  0  0  0  0  0  0  0  0  0  0  0
  143.7592   80.5650  223.5474 H   0  0  0  0  0  0  0  0  0  0  0  0
  142.7174   80.6264  224.9763 H   0  0  0  0  0  0  0  0  0  0  0  0
  142.9362   78.4897  222.9370 H   0  0  0  0  0  0  0  0  0  0  0  0
  142.0575   78.4011  224.4397 H   0  0  0  0  0  0  0  0  0  0  0  0
  140.0688   79.5593  223.3979 H   0  0  0  0  0  0  0  0  0  0  0  0
  141.7103   76.6251  222.5927 H   0  0  0  0  0  0  0  0  0  0  0  0
  141.0289   74.7332  219.2231 H   0  0  0  0  0  0  0  0  0  0  0  0
  141.5995   72.3567  219.0476 H   0  0  0  0  0  0  0  0  0  0  0  0
  141.3540   70.8511  221.0105 H   0  0  0  0  0  0  0  0  0  0  0  0
  140.4935   71.8622  223.1472 H   0  0  0  0  0  0  0  0  0  0  0  0
  138.2217   75.9381  220.1259 H   0  0  0  0  0  0  0  0  0  0  0  0
  142.3014   75.8759  216.4050 H   0  0  0  0  0  0  0  0  0  0  0  0
  143.6824   73.7909  216.4324 H   0  0  0  0  0  0  0  0  0  0  0  0
  145.1322   72.2371  217.6917 H   0  0  0  0  0  0  0  0  0  0  0  0
  145.9893   73.0967  221.7977 H   0  0  0  0  0  0  0  0  0  0  0  0
  144.6085   75.1523  221.7192 H   0  0  0  0  0  0  0  0  0  0  0  0
  1  2  2  0
  2  3  1  0
  3  4  1  0
  4  5  1  0
  5  6  2  0
  5  7  1  0
  7  8  1  0
  8  9  1  0
  9 10  1  0
 10 11  1  0
 11 12  1  0
 12 13  2  0
 13 14  1  0
 14 15  1  0
 15 16  2  0
 16 17  1  0
 17 18  2  0
 18 19  1  0
 19 20  2  0
 14 21  2  0
 21 22  1  0
  2 23  1  0
 23 24  2  0
 24 25  1  0
 25 26  2  0
 26 27  1  0
 27 28  2  0
 28 29  1  0
 28 30  1  0
 30 31  2  0
 31 32  1  0
 32 33  2  0
 11  7  1  0
 22 12  1  0
 33 23  1  0
 20 15  1  0
 32 26  1  0
  3 34  1  0
  4 35  1  0
  4 36  1  0
  8 37  1  0
  8 38  1  0
  9 39  1  0
  9 40  1  0
 10 41  1  0
 10 42  1  0
 11 43  1  1
 13 44  1  0
 16 45  1  0
 17 46  1  0
 18 47  1  0
 19 48  1  0
 21 49  1  0
 24 50  1  0
 25 51  1  0
 27 52  1  0
 30 53  1  0
 31 54  1  0
M  END
>  <smiles>  (50) 
O=C(NCC(=O)N1CCC[C@@H]1c1cc(-c2ccccn2)cs1)c1ccc2cc(F)ccc2n1

>  <score_type>  (50) 
oracle

>  <origin>  (50) 
autodockgpu

>  <m_score__min__energy>  (50) 
-9.3699999999999992

>  <m_primary>  (50) 
energy

>  <rmsd>  (50) 
7.930134495359244

>  <m_score__min__rmsd>  (50) 
7.930134495359244

>  <meeko>  (50) 
{"free_energy": -7.8, "intermolecular_energy": -9.59, "internal_energy": -3.34, "cluster_size": 30, "cluster_id": 6, "rank_in_cluster": 8}

>  <energy>  (50) 
-6.45

>  <cluster_rmsd>  (50) 
1.98

>  <cluster>  (50) 
8

$$$$
