
     RDKit          3D

 53 56  0  0  0  0  0  0  0  0999 V2000
  139.5730   70.5580  221.3620 O   0  0  0  0  0  0  0  0  0  0  0  0
  139.5940   71.2530  222.4340 C   0  0  0  0  0  0  0  0  0  0  0  0
  139.5370   72.6690  222.3500 N   0  0  0  0  0  0  0  0  0  0  0  0
  139.4550   73.3660  221.0590 C   0  0  0  0  0  0  0  0  0  0  0  0
  140.1200   74.6850  221.2140 C   0  0  0  0  0  0  0  0  0  0  0  0
  140.0640   75.2860  222.3400 O   0  0  0  0  0  0  0  0  0  0  0  0
  140.8260   75.3450  220.1910 N   0  0  0  0  0  0  0  0  0  0  0  0
  140.9320   74.9200  218.8180 C   0  0  0  0  0  0  0  0  0  0  0  0
  142.4440   75.0800  218.6260 C   0  0  0  0  0  0  0  0  0  0  0  0
  142.6520   76.4770  219.1630 C   0  0  2  0  0  0  0  0  0  0  0  0
  143.9200   76.5790  219.6890 O   0  0  0  0  0  0  0  0  0  0  0  0
  141.6090   76.5900  220.2530 C   0  0  1  0  0  0  0  0  0  0  0  0
  140.6370   77.6960  220.0020 C   0  0  0  0  0  0  0  0  0  0  0  0
  140.9890   78.9590  220.4090 O   0  0  0  0  0  0  0  0  0  0  0  0
  141.4970   79.3990  221.5880 C   0  0  0  0  0  0  0  0  0  0  0  0
  142.2030   80.5430  221.8230 C   0  0  0  0  0  0  0  0  0  0  0  0
  142.6770   80.8970  223.0880 C   0  0  0  0  0  0  0  0  0  0  0  0
  142.4420   80.0820  224.1620 C   0  0  0  0  0  0  0  0  0  0  0  0
  141.7380   78.9260  223.9580 C   0  0  0  0  0  0  0  0  0  0  0  0
  141.2730   78.5830  222.7120 C   0  0  0  0  0  0  0  0  0  0  0  0
  139.6750   70.5830  223.7350 C   0  0  0  0  0  0  0  0  0  0  0  0
  139.1670   69.3030  223.8620 C   0  0  0  0  0  0  0  0  0  0  0  0
  139.2130   68.6130  225.0680 C   0  0  0  0  0  0  0  0  0  0  0  0
  139.7860   69.2310  226.1610 C   0  0  0  0  0  0  0  0  0  0  0  0
  139.8610   68.5960  227.3860 C   0  0  0  0  0  0  0  0  0  0  0  0
  140.4380   69.2250  228.4750 C   0  0  0  0  0  0  0  0  0  0  0  0
  140.9460   70.5080  228.3410 C   0  0  0  0  0  0  0  0  0  0  0  0
  140.8610   71.1250  227.1080 C   0  0  0  0  0  0  0  0  0  0  0  0
  140.2880   70.5080  226.0140 C   0  0  0  0  0  0  0  0  0  0  0  0
  140.2170   71.1410  224.8080 N   0  0  0  0  0  0  0  0  0  0  0  0
  139.5580   73.1920  223.2580 H   0  0  0  0  0  0  0  0  0  0  0  0
  139.9662   72.7778  220.2827 H   0  0  0  0  0  0  0  0  0  0  0  0
  138.4050   73.4972  220.7584 H   0  0  0  0  0  0  0  0  0  0  0  0
  140.6085   73.8772  218.6841 H   0  0  0  0  0  0  0  0  0  0  0  0
  140.3058   75.4751  218.1040 H   0  0  0  0  0  0  0  0  0  0  0  0
  143.0069   74.3350  219.2074 H   0  0  0  0  0  0  0  0  0  0  0  0
  142.7895   74.9337  217.5920 H   0  0  0  0  0  0  0  0  0  0  0  0
  142.5563   77.2662  218.4028 H   0  0  0  0  0  0  0  0  0  0  0  0
  144.0680   77.4340  220.1670 H   0  0  0  0  0  0  0  0  0  0  0  0
  142.1167   76.7753  221.2111 H   0  0  0  0  0  0  0  0  0  0  0  0
  140.4597   77.7378  218.9172 H   0  0  0  0  0  0  0  0  0  0  0  0
  139.7602   77.4404  220.6151 H   0  0  0  0  0  0  0  0  0  0  0  0
  142.4080   81.2166  220.9779 H   0  0  0  0  0  0  0  0  0  0  0  0
  143.2402   81.8324  223.2214 H   0  0  0  0  0  0  0  0  0  0  0  0
  142.8095   80.3491  225.1638 H   0  0  0  0  0  0  0  0  0  0  0  0
  141.5406   78.2580  224.8094 H   0  0  0  0  0  0  0  0  0  0  0  0
  140.7106   77.6456  222.5897 H   0  0  0  0  0  0  0  0  0  0  0  0
  138.7142   68.8176  222.9848 H   0  0  0  0  0  0  0  0  0  0  0  0
  138.8015   67.5961  225.1494 H   0  0  0  0  0  0  0  0  0  0  0  0
  139.4573   67.5787  227.4967 H   0  0  0  0  0  0  0  0  0  0  0  0
  140.4935   68.7084  229.4446 H   0  0  0  0  0  0  0  0  0  0  0  0
  141.4063   71.0230  229.1971 H   0  0  0  0  0  0  0  0  0  0  0  0
  141.2635   72.1424  226.9940 H   0  0  0  0  0  0  0  0  0  0  0  0
  1  2  2  0
  2  3  1  0
  3  4  1  0
  4  5  1  0
  5  6  2  0
  5  7  1  0
  7  8  1  0
  8  9  1  0
  9 10  1  0
 10 11  1  0
 10 12  1  0
 12 13  1  0
 13 14  1  0
 14 15  1  0
 15 16  2  0
 16 17  1  0
 17 18  2  0
 18 19  1  0
 19 20  2  0
  2 21  1  0
 21 22  2  0
 22 23  1  0
 23 24  2  0
 24 25  1  0
 25 26  2  0
 26 27  1  0
 27 28  2  0
 28 29  1  0
 29 30  2  0
 12  7  1  0
 20 15  1  0
 30 21  1  0
 29 24  1  0
  3 31  1  0
  4 32  1  0
  4 33  1  0
  8 34  1  0
  8 35  1  0
  9 36  1  0
  9 37  1  0
 10 38  1  6
 11 39  1  0
 12 40  1  1
 13 41  1  0
 13 42  1  0
 16 43  1  0
 17 44  1  0
 18 45  1  0
 19 46  1  0
 20 47  1  0
 22 48  1  0
 23 49  1  0
 25 50  1  0
 26 51  1  0
 27 52  1  0
 28 53  1  0
M  END
>  <smiles>  (1) 
O=C(NCC(=O)N1CC[C@H](O)[C@H]1COc1ccccc1)c1ccc2ccccc2n1

>  <score_type>  (1) 
oracle

>  <origin>  (1) 
autodockgpu

>  <m_score__min__energy>  (1) 
-8.9299999999999997

>  <m_primary>  (1) 
energy

>  <rmsd>  (1) 
1.8399917510184436

>  <m_score__min__rmsd>  (1) 
1.8399917510184436

>  <meeko>  (1) 
{"free_energy": -8.78, "intermolecular_energy": -11.17, "internal_energy": -1.84, "cluster_size": 21, "cluster_id": 1, "rank_in_cluster": 3}

>  <energy>  (1) 
-8.93

>  <cluster_rmsd>  (1) 
0.0

>  <cluster>  (1) 
1

$$$$

     RDKit          3D

 53 56  0  0  0  0  0  0  0  0999 V2000
  140.8430   71.5240  221.3230 O   0  0  0  0  0  0  0  0  0  0  0  0
  140.3660   72.1100  222.3540 C   0  0  0  0  0  0  0  0  0  0  0  0
  139.9790   73.4740  222.2660 N   0  0  0  0  0  0  0  0  0  0  0  0
  140.1130   74.2380  221.0180 C   0  0  0  0  0  0  0  0  0  0  0  0
  140.3400   75.6600  221.3810 C   0  0  0  0  0  0  0  0  0  0  0  0
  140.0020   76.0720  222.5430 O   0  0  0  0  0  0  0  0  0  0  0  0
  140.9120   76.6180  220.5230 N   0  0  0  0  0  0  0  0  0  0  0  0
  141.7070   77.7520  220.9230 C   0  0  0  0  0  0  0  0  0  0  0  0
  141.0260   78.8390  220.0850 C   0  0  0  0  0  0  0  0  0  0  0  0
  141.0040   78.1780  218.7250 C   0  0  2  0  0  0  0  0  0  0  0  0
  139.9180   78.6330  218.0140 O   0  0  0  0  0  0  0  0  0  0  0  0
  140.8520   76.7090  219.0550 C   0  0  1  0  0  0  0  0  0  0  0  0
  141.9920   75.8880  218.5480 C   0  0  0  0  0  0  0  0  0  0  0  0
  142.2280   74.6800  219.1570 O   0  0  0  0  0  0  0  0  0  0  0  0
  143.3280   74.2160  219.8030 C   0  0  0  0  0  0  0  0  0  0  0  0
  144.4530   74.9070  220.1490 C   0  0  0  0  0  0  0  0  0  0  0  0
  145.5290   74.3220  220.8200 C   0  0  0  0  0  0  0  0  0  0  0  0
  145.4870   72.9970  221.1590 C   0  0  0  0  0  0  0  0  0  0  0  0
  144.3730   72.2750  220.8240 C   0  0  0  0  0  0  0  0  0  0  0  0
  143.3170   72.8570  220.1650 C   0  0  0  0  0  0  0  0  0  0  0  0
  140.2220   71.3700  223.6110 C   0  0  0  0  0  0  0  0  0  0  0  0
  139.5880   70.1410  223.5970 C   0  0  0  0  0  0  0  0  0  0  0  0
  139.4200   69.3910  224.7540 C   0  0  0  0  0  0  0  0  0  0  0  0
  139.9040   69.8940  225.9450 C   0  0  0  0  0  0  0  0  0  0  0  0
  139.7670   69.1950  227.1280 C   0  0  0  0  0  0  0  0  0  0  0  0
  140.2570   69.7080  228.3160 C   0  0  0  0  0  0  0  0  0  0  0  0
  140.8920   70.9420  228.3230 C   0  0  0  0  0  0  0  0  0  0  0  0
  141.0180   71.6250  227.1300 C   0  0  0  0  0  0  0  0  0  0  0  0
  140.5350   71.1230  225.9390 C   0  0  0  0  0  0  0  0  0  0  0  0
  140.6730   71.8190  224.7740 N   0  0  0  0  0  0  0  0  0  0  0  0
  139.5950   73.9070  223.1400 H   0  0  0  0  0  0  0  0  0  0  0  0
  140.9664   73.8590  220.4366 H   0  0  0  0  0  0  0  0  0  0  0  0
  139.2051   74.1371  220.4053 H   0  0  0  0  0  0  0  0  0  0  0  0
  141.6246   77.9521  222.0015 H   0  0  0  0  0  0  0  0  0  0  0  0
  142.7904   77.6461  220.7651 H   0  0  0  0  0  0  0  0  0  0  0  0
  140.0097   79.0522  220.4477 H   0  0  0  0  0  0  0  0  0  0  0  0
  141.5323   79.8153  220.1082 H   0  0  0  0  0  0  0  0  0  0  0  0
  141.8950   78.3845  218.1139 H   0  0  0  0  0  0  0  0  0  0  0  0
  140.1680   79.2820  217.3090 H   0  0  0  0  0  0  0  0  0  0  0  0
  139.9204   76.3390  218.6021 H   0  0  0  0  0  0  0  0  0  0  0  0
  141.8049   75.6880  217.4826 H   0  0  0  0  0  0  0  0  0  0  0  0
  142.8869   76.4893  218.7661 H   0  0  0  0  0  0  0  0  0  0  0  0
  144.5150   75.9736  219.8873 H   0  0  0  0  0  0  0  0  0  0  0  0
  146.4112   74.9270  221.0763 H   0  0  0  0  0  0  0  0  0  0  0  0
  146.3275   72.5236  221.6876 H   0  0  0  0  0  0  0  0  0  0  0  0
  144.3223   71.2082  221.0875 H   0  0  0  0  0  0  0  0  0  0  0  0
  142.4393   72.2434  219.9138 H   0  0  0  0  0  0  0  0  0  0  0  0
  139.2064   69.7467  222.6437 H   0  0  0  0  0  0  0  0  0  0  0  0
  138.9116   68.4161  224.7219 H   0  0  0  0  0  0  0  0  0  0  0  0
  139.2618   68.2179  227.1259 H   0  0  0  0  0  0  0  0  0  0  0  0
  140.1437   69.1400  229.2512 H   0  0  0  0  0  0  0  0  0  0  0  0
  141.2861   71.3663  229.2582 H   0  0  0  0  0  0  0  0  0  0  0  0
  141.5209   72.6033  227.1288 H   0  0  0  0  0  0  0  0  0  0  0  0
  1  2  2  0
  2  3  1  0
  3  4  1  0
  4  5  1  0
  5  6  2  0
  5  7  1  0
  7  8  1  0
  8  9  1  0
  9 10  1  0
 10 11  1  0
 10 12  1  0
 12 13  1  0
 13 14  1  0
 14 15  1  0
 15 16  2  0
 16 17  1  0
 17 18  2  0
 18 19  1  0
 19 20  2  0
  2 21  1  0
 21 22  2  0
 22 23  1  0
 23 24  2  0
 24 25  1  0
 25 26  2  0
 26 27  1  0
 27 28  2  0
 28 29  1  0
 29 30  2  0
 12  7  1  0
 20 15  1  0
 30 21  1  0
 29 24  1  0
  3 31  1  0
  4 32  1  0
  4 33  1  0
  8 34  1  0
  8 35  1  0
  9 36  1  0
  9 37  1  0
 10 38  1  6
 11 39  1  0
 12 40  1  6
 13 41  1  0
 13 42  1  0
 16 43  1  0
 17 44  1  0
 18 45  1  0
 19 46  1  0
 20 47  1  0
 22 48  1  0
 23 49  1  0
 25 50  1  0
 26 51  1  0
 27 52  1  0
 28 53  1  0
M  END
>  <smiles>  (2) 
O=C(NCC(=O)N1CC[C@H](O)[C@H]1COc1ccccc1)c1ccc2ccccc2n1

>  <score_type>  (2) 
oracle

>  <origin>  (2) 
autodockgpu

>  <m_score__min__energy>  (2) 
-8.9299999999999997

>  <m_primary>  (2) 
energy

>  <rmsd>  (2) 
2.4899310884622277

>  <m_score__min__rmsd>  (2) 
2.4899310884622277

>  <meeko>  (2) 
{"free_energy": -7.59, "intermolecular_energy": -9.98, "internal_energy": -2.33, "cluster_size": 5, "cluster_id": 3, "rank_in_cluster": 4}

>  <energy>  (2) 
-8.86

>  <cluster_rmsd>  (2) 
0.4

>  <cluster>  (2) 
1

$$$$

     RDKit          3D

 53 56  0  0  0  0  0  0  0  0999 V2000
  141.2750   71.8370  221.4620 O   0  0  0  0  0  0  0  0  0  0  0  0
  140.5840   72.3230  222.4210 C   0  0  0  0  0  0  0  0  0  0  0  0
  140.0780   73.6450  222.3170 N   0  0  0  0  0  0  0  0  0  0  0  0
  140.3270   74.4790  221.1330 C   0  0  0  0  0  0  0  0  0  0  0  0
  140.4000   75.8920  221.5830 C   0  0  0  0  0  0  0  0  0  0  0  0
  139.8140   76.2370  222.6650 O   0  0  0  0  0  0  0  0  0  0  0  0
  141.0800   76.9130  220.8930 N   0  0  0  0  0  0  0  0  0  0  0  0
  141.3550   78.2380  221.3870 C   0  0  0  0  0  0  0  0  0  0  0  0
  140.9100   79.0540  220.1680 C   0  0  0  0  0  0  0  0  0  0  0  0
  141.6380   78.3280  219.0600 C   0  0  2  0  0  0  0  0  0  0  0  0
  140.9180   78.4370  217.8930 O   0  0  0  0  0  0  0  0  0  0  0  0
  141.6660   76.8950  219.5420 C   0  0  1  0  0  0  0  0  0  0  0  0
  143.0560   76.3730  219.7070 C   0  0  0  0  0  0  0  0  0  0  0  0
  143.2240   75.2300  220.4490 O   0  0  0  0  0  0  0  0  0  0  0  0
  144.1640   74.2540  220.3680 C   0  0  0  0  0  0  0  0  0  0  0  0
  145.4460   74.2820  220.8360 C   0  0  0  0  0  0  0  0  0  0  0  0
  146.3300   73.2100  220.6970 C   0  0  0  0  0  0  0  0  0  0  0  0
  145.9250   72.0640  220.0680 C   0  0  0  0  0  0  0  0  0  0  0  0
  144.6450   72.0050  219.5860 C   0  0  0  0  0  0  0  0  0  0  0  0
  143.7800   73.0630  219.7260 C   0  0  0  0  0  0  0  0  0  0  0  0
  140.3210   71.5120  223.6130 C   0  0  0  0  0  0  0  0  0  0  0  0
  139.6580   70.3060  223.4700 C   0  0  0  0  0  0  0  0  0  0  0  0
  139.3780   69.4910  224.5610 C   0  0  0  0  0  0  0  0  0  0  0  0
  139.7790   69.9050  225.8150 C   0  0  0  0  0  0  0  0  0  0  0  0
  139.5300   69.1380  226.9370 C   0  0  0  0  0  0  0  0  0  0  0  0
  139.9360   69.5620  228.1900 C   0  0  0  0  0  0  0  0  0  0  0  0
  140.6000   70.7720  228.3260 C   0  0  0  0  0  0  0  0  0  0  0  0
  140.8390   71.5230  227.1920 C   0  0  0  0  0  0  0  0  0  0  0  0
  140.4400   71.1110  225.9370 C   0  0  0  0  0  0  0  0  0  0  0  0
  140.6880   71.8730  224.8340 N   0  0  0  0  0  0  0  0  0  0  0  0
  139.5180   73.9960  223.1310 H   0  0  0  0  0  0  0  0  0  0  0  0
  141.2769   74.1864  220.6618 H   0  0  0  0  0  0  0  0  0  0  0  0
  139.5211   74.3509  220.3953 H   0  0  0  0  0  0  0  0  0  0  0  0
  140.7592   78.4756  222.2806 H   0  0  0  0  0  0  0  0  0  0  0  0
  142.3900   78.4115  221.7166 H   0  0  0  0  0  0  0  0  0  0  0  0
  139.8194   79.0137  220.0301 H   0  0  0  0  0  0  0  0  0  0  0  0
  141.1349   80.1288  220.2327 H   0  0  0  0  0  0  0  0  0  0  0  0
  142.6433   78.7235  218.8527 H   0  0  0  0  0  0  0  0  0  0  0  0
  139.9690   78.1730  218.0030 H   0  0  0  0  0  0  0  0  0  0  0  0
  141.1363   76.2660  218.8114 H   0  0  0  0  0  0  0  0  0  0  0  0
  143.4536   76.1732  218.7010 H   0  0  0  0  0  0  0  0  0  0  0  0
  143.5809   77.1542  220.2765 H   0  0  0  0  0  0  0  0  0  0  0  0
  145.7989   75.1905  221.3459 H   0  0  0  0  0  0  0  0  0  0  0  0
  147.3532   73.2867  221.0936 H   0  0  0  0  0  0  0  0  0  0  0  0
  146.6108   71.2117  219.9526 H   0  0  0  0  0  0  0  0  0  0  0  0
  144.3024   71.0923  219.0765 H   0  0  0  0  0  0  0  0  0  0  0  0
  142.7593   72.9763  219.3251 H   0  0  0  0  0  0  0  0  0  0  0  0
  139.3441   69.9834  222.4663 H   0  0  0  0  0  0  0  0  0  0  0  0
  138.8481   68.5364  224.4275 H   0  0  0  0  0  0  0  0  0  0  0  0
  139.0024   68.1784  226.8328 H   0  0  0  0  0  0  0  0  0  0  0  0
  139.7328   68.9415  229.0752 H   0  0  0  0  0  0  0  0  0  0  0  0
  140.9287   71.1254  229.3145 H   0  0  0  0  0  0  0  0  0  0  0  0
  141.3659   72.4833  227.2927 H   0  0  0  0  0  0  0  0  0  0  0  0
  1  2  2  0
  2  3  1  0
  3  4  1  0
  4  5  1  0
  5  6  2  0
  5  7  1  0
  7  8  1  0
  8  9  1  0
  9 10  1  0
 10 11  1  0
 10 12  1  0
 12 13  1  0
 13 14  1  0
 14 15  1  0
 15 16  2  0
 16 17  1  0
 17 18  2  0
 18 19  1  0
 19 20  2  0
  2 21  1  0
 21 22  2  0
 22 23  1  0
 23 24  2  0
 24 25  1  0
 25 26  2  0
 26 27  1  0
 27 28  2  0
 28 29  1  0
 29 30  2  0
 12  7  1  0
 20 15  1  0
 30 21  1  0
 29 24  1  0
  3 31  1  0
  4 32  1  0
  4 33  1  0
  8 34  1  0
  8 35  1  0
  9 36  1  0
  9 37  1  0
 10 38  1  6
 11 39  1  0
 12 40  1  6
 13 41  1  0
 13 42  1  0
 16 43  1  0
 17 44  1  0
 18 45  1  0
 19 46  1  0
 20 47  1  0
 22 48  1  0
 23 49  1  0
 25 50  1  0
 26 51  1  0
 27 52  1  0
 28 53  1  0
M  END
>  <smiles>  (3) 
O=C(NCC(=O)N1CC[C@H](O)[C@H]1COc1ccccc1)c1ccc2ccccc2n1

>  <score_type>  (3) 
oracle

>  <origin>  (3) 
autodockgpu

>  <m_score__min__energy>  (3) 
-8.9299999999999997

>  <m_primary>  (3) 
energy

>  <rmsd>  (3) 
2.6631254256597106

>  <m_score__min__rmsd>  (3) 
2.6631254256597106

>  <meeko>  (3) 
{"free_energy": -7.97, "intermolecular_energy": -10.36, "internal_energy": -2.07, "cluster_size": 5, "cluster_id": 3, "rank_in_cluster": 1}

>  <energy>  (3) 
-8.78

>  <cluster_rmsd>  (3) 
0.4

>  <cluster>  (3) 
1

$$$$

     RDKit          3D

 53 56  0  0  0  0  0  0  0  0999 V2000
  139.4130   70.6840  221.3880 O   0  0  0  0  0  0  0  0  0  0  0  0
  139.5180   71.3660  222.4640 C   0  0  0  0  0  0  0  0  0  0  0  0
  139.4980   72.7840  222.3960 N   0  0  0  0  0  0  0  0  0  0  0  0
  139.3600   73.4970  221.1190 C   0  0  0  0  0  0  0  0  0  0  0  0
  140.2070   74.7150  221.1870 C   0  0  0  0  0  0  0  0  0  0  0  0
  140.4610   75.2390  222.3250 O   0  0  0  0  0  0  0  0  0  0  0  0
  140.7690   75.3570  220.0680 N   0  0  0  0  0  0  0  0  0  0  0  0
  140.7940   74.8510  218.7190 C   0  0  0  0  0  0  0  0  0  0  0  0
  142.2660   75.1130  218.3840 C   0  0  0  0  0  0  0  0  0  0  0  0
  142.4040   76.5550  218.8160 C   0  0  2  0  0  0  0  0  0  0  0  0
  143.6980   76.7880  219.2200 O   0  0  0  0  0  0  0  0  0  0  0  0
  141.4500   76.6600  219.9850 C   0  0  1  0  0  0  0  0  0  0  0  0
  140.3730   77.6690  219.7560 C   0  0  0  0  0  0  0  0  0  0  0  0
  140.1050   78.5580  220.7680 O   0  0  0  0  0  0  0  0  0  0  0  0
  140.8740   78.9740  221.8060 C   0  0  0  0  0  0  0  0  0  0  0  0
  140.9160   78.4710  223.0740 C   0  0  0  0  0  0  0  0  0  0  0  0
  141.7550   78.9810  224.0670 C   0  0  0  0  0  0  0  0  0  0  0  0
  142.5860   80.0330  223.7900 C   0  0  0  0  0  0  0  0  0  0  0  0
  142.5670   80.5610  222.5270 C   0  0  0  0  0  0  0  0  0  0  0  0
  141.7390   80.0540  221.5540 C   0  0  0  0  0  0  0  0  0  0  0  0
  139.6570   70.6790  223.7510 C   0  0  0  0  0  0  0  0  0  0  0  0
  139.1990   69.3790  223.8690 C   0  0  0  0  0  0  0  0  0  0  0  0
  139.3010   68.6740  225.0620 C   0  0  0  0  0  0  0  0  0  0  0  0
  139.8790   69.2950  226.1510 C   0  0  0  0  0  0  0  0  0  0  0  0
  140.0080   68.6450  227.3630 C   0  0  0  0  0  0  0  0  0  0  0  0
  140.5890   69.2780  228.4480 C   0  0  0  0  0  0  0  0  0  0  0  0
  141.0460   70.5810  228.3220 C   0  0  0  0  0  0  0  0  0  0  0  0
  140.9070   71.2130  227.1020 C   0  0  0  0  0  0  0  0  0  0  0  0
  140.3300   70.5930  226.0130 C   0  0  0  0  0  0  0  0  0  0  0  0
  140.2050   71.2410  224.8190 N   0  0  0  0  0  0  0  0  0  0  0  0
  139.5890   73.2960  223.3070 H   0  0  0  0  0  0  0  0  0  0  0  0
  139.6955   72.8533  220.2925 H   0  0  0  0  0  0  0  0  0  0  0  0
  138.3089   73.7686  220.9415 H   0  0  0  0  0  0  0  0  0  0  0  0
  140.5470   73.7799  218.6769 H   0  0  0  0  0  0  0  0  0  0  0  0
  140.0667   75.3079  218.0317 H   0  0  0  0  0  0  0  0  0  0  0  0
  142.9348   74.4534  218.9564 H   0  0  0  0  0  0  0  0  0  0  0  0
  142.5339   74.9251  217.3338 H   0  0  0  0  0  0  0  0  0  0  0  0
  142.1815   77.2826  218.0216 H   0  0  0  0  0  0  0  0  0  0  0  0
  143.8960   77.7520  219.3330 H   0  0  0  0  0  0  0  0  0  0  0  0
  142.0196   76.9471  220.8812 H   0  0  0  0  0  0  0  0  0  0  0  0
  140.6558   78.2558  218.8696 H   0  0  0  0  0  0  0  0  0  0  0  0
  139.4524   77.0751  219.6568 H   0  0  0  0  0  0  0  0  0  0  0  0
  140.2590   77.6253  223.3253 H   0  0  0  0  0  0  0  0  0  0  0  0
  141.7481   78.5368  225.0733 H   0  0  0  0  0  0  0  0  0  0  0  0
  143.2523   80.4438  224.5628 H   0  0  0  0  0  0  0  0  0  0  0  0
  143.2271   81.4073  222.2862 H   0  0  0  0  0  0  0  0  0  0  0  0
  141.7533   80.5052  220.5509 H   0  0  0  0  0  0  0  0  0  0  0  0
  138.7422   68.8907  222.9956 H   0  0  0  0  0  0  0  0  0  0  0  0
  138.9286   67.6417  225.1372 H   0  0  0  0  0  0  0  0  0  0  0  0
  139.6446   67.6120  227.4671 H   0  0  0  0  0  0  0  0  0  0  0  0
  140.6879   68.7490  229.4074 H   0  0  0  0  0  0  0  0  0  0  0  0
  141.5088   71.0996  229.1746 H   0  0  0  0  0  0  0  0  0  0  0  0
  141.2688   72.2463  226.9949 H   0  0  0  0  0  0  0  0  0  0  0  0
  1  2  2  0
  2  3  1  0
  3  4  1  0
  4  5  1  0
  5  6  2  0
  5  7  1  0
  7  8  1  0
  8  9  1  0
  9 10  1  0
 10 11  1  0
 10 12  1  0
 12 13  1  0
 13 14  1  0
 14 15  1  0
 15 16  2  0
 16 17  1  0
 17 18  2  0
 18 19  1  0
 19 20  2  0
  2 21  1  0
 21 22  2  0
 22 23  1  0
 23 24  2  0
 24 25  1  0
 25 26  2  0
 26 27  1  0
 27 28  2  0
 28 29  1  0
 29 30  2  0
 12  7  1  0
 20 15  1  0
 30 21  1  0
 29 24  1  0
  3 31  1  0
  4 32  1  0
  4 33  1  0
  8 34  1  0
  8 35  1  0
  9 36  1  0
  9 37  1  0
 10 38  1  6
 11 39  1  0
 12 40  1  1
 13 41  1  0
 13 42  1  0
 16 43  1  0
 17 44  1  0
 18 45  1  0
 19 46  1  0
 20 47  1  0
 22 48  1  0
 23 49  1  0
 25 50  1  0
 26 51  1  0
 27 52  1  0
 28 53  1  0
M  END
>  <smiles>  (4) 
O=C(NCC(=O)N1CC[C@H](O)[C@H]1COc1ccccc1)c1ccc2ccccc2n1

>  <score_type>  (4) 
oracle

>  <origin>  (4) 
autodockgpu

>  <m_score__min__energy>  (4) 
-8.9299999999999997

>  <m_primary>  (4) 
energy

>  <rmsd>  (4) 
1.6711563916050862

>  <m_score__min__rmsd>  (4) 
1.6711563916050862

>  <meeko>  (4) 
{"free_energy": -8.58, "intermolecular_energy": -10.97, "internal_energy": -1.95, "cluster_size": 21, "cluster_id": 1, "rank_in_cluster": 6}

>  <energy>  (4) 
-8.74

>  <cluster_rmsd>  (4) 
0.68

>  <cluster>  (4) 
1

$$$$

     RDKit          3D

 53 56  0  0  0  0  0  0  0  0999 V2000
  138.9680   75.0080  222.0320 O   0  0  0  0  0  0  0  0  0  0  0  0
  140.1190   75.5630  222.0220 C   0  0  0  0  0  0  0  0  0  0  0  0
  141.2590   74.8010  221.6540 N   0  0  0  0  0  0  0  0  0  0  0  0
  141.1560   73.3830  221.2810 C   0  0  0  0  0  0  0  0  0  0  0  0
  141.8650   73.2030  219.9890 C   0  0  0  0  0  0  0  0  0  0  0  0
  141.1970   72.8860  218.9460 O   0  0  0  0  0  0  0  0  0  0  0  0
  143.2530   73.3560  219.8150 N   0  0  0  0  0  0  0  0  0  0  0  0
  144.0470   72.7820  218.7590 C   0  0  0  0  0  0  0  0  0  0  0  0
  145.2010   72.2190  219.5950 C   0  0  0  0  0  0  0  0  0  0  0  0
  145.5500   73.4200  220.4450 C   0  0  2  0  0  0  0  0  0  0  0  0
  146.0530   72.9940  221.6520 O   0  0  0  0  0  0  0  0  0  0  0  0
  144.2170   74.1110  220.6330 C   0  0  1  0  0  0  0  0  0  0  0  0
  144.2120   75.5020  220.0900 C   0  0  0  0  0  0  0  0  0  0  0  0
  142.9950   76.0710  219.8040 O   0  0  0  0  0  0  0  0  0  0  0  0
  142.6820   77.1610  219.0590 C   0  0  0  0  0  0  0  0  0  0  0  0
  142.8740   77.3460  217.7210 C   0  0  0  0  0  0  0  0  0  0  0  0
  142.5070   78.5180  217.0550 C   0  0  0  0  0  0  0  0  0  0  0  0
  141.9270   79.5470  217.7470 C   0  0  0  0  0  0  0  0  0  0  0  0
  141.7220   79.3920  219.0910 C   0  0  0  0  0  0  0  0  0  0  0  0
  142.0840   78.2370  219.7410 C   0  0  0  0  0  0  0  0  0  0  0  0
  140.2500   76.9760  222.3900 C   0  0  0  0  0  0  0  0  0  0  0  0
  139.1050   77.7340  222.5550 C   0  0  0  0  0  0  0  0  0  0  0  0
  139.1610   79.0780  222.9030 C   0  0  0  0  0  0  0  0  0  0  0  0
  140.3980   79.6630  223.0870 C   0  0  0  0  0  0  0  0  0  0  0  0
  140.5180   80.9940  223.4330 C   0  0  0  0  0  0  0  0  0  0  0  0
  141.7620   81.5700  223.6160 C   0  0  0  0  0  0  0  0  0  0  0  0
  142.9070   80.8040  223.4490 C   0  0  0  0  0  0  0  0  0  0  0  0
  142.7650   79.4750  223.1020 C   0  0  0  0  0  0  0  0  0  0  0  0
  141.5290   78.8890  222.9180 C   0  0  0  0  0  0  0  0  0  0  0  0
  141.4180   77.5740  222.5750 N   0  0  0  0  0  0  0  0  0  0  0  0
  142.1800   75.3030  221.6630 H   0  0  0  0  0  0  0  0  0  0  0  0
  141.6237   72.7571  222.0553 H   0  0  0  0  0  0  0  0  0  0  0  0
  140.1013   73.0854  221.1862 H   0  0  0  0  0  0  0  0  0  0  0  0
  143.5049   71.9906  218.2207 H   0  0  0  0  0  0  0  0  0  0  0  0
  144.3413   73.4787  217.9602 H   0  0  0  0  0  0  0  0  0  0  0  0
  144.8762   71.3678  220.2114 H   0  0  0  0  0  0  0  0  0  0  0  0
  146.0391   71.8215  219.0037 H   0  0  0  0  0  0  0  0  0  0  0  0
  146.3090   74.0786  219.9976 H   0  0  0  0  0  0  0  0  0  0  0  0
  145.9200   72.0240  221.8010 H   0  0  0  0  0  0  0  0  0  0  0  0
  143.9873   74.1500  221.7080 H   0  0  0  0  0  0  0  0  0  0  0  0
  144.7098   76.1455  220.8303 H   0  0  0  0  0  0  0  0  0  0  0  0
  144.7176   75.4224  219.1163 H   0  0  0  0  0  0  0  0  0  0  0  0
  143.3388   76.5356  217.1403 H   0  0  0  0  0  0  0  0  0  0  0  0
  142.6842   78.6140  215.9736 H   0  0  0  0  0  0  0  0  0  0  0  0
  141.6331   80.4753  217.2353 H   0  0  0  0  0  0  0  0  0  0  0  0
  141.2578   80.2090  219.6628 H   0  0  0  0  0  0  0  0  0  0  0  0
  141.9017   78.1511  220.8224 H   0  0  0  0  0  0  0  0  0  0  0  0
  138.1235   77.2601  222.4067 H   0  0  0  0  0  0  0  0  0  0  0  0
  138.2387   79.6640  223.0293 H   0  0  0  0  0  0  0  0  0  0  0  0
  139.6125   81.6044  223.5649 H   0  0  0  0  0  0  0  0  0  0  0  0
  141.8435   82.6315  223.8929 H   0  0  0  0  0  0  0  0  0  0  0  0
  143.9047   81.2453  223.5898 H   0  0  0  0  0  0  0  0  0  0  0  0
  143.6684   78.8620  222.9676 H   0  0  0  0  0  0  0  0  0  0  0  0
  1  2  2  0
  2  3  1  0
  3  4  1  0
  4  5  1  0
  5  6  2  0
  5  7  1  0
  7  8  1  0
  8  9  1  0
  9 10  1  0
 10 11  1  0
 10 12  1  0
 12 13  1  0
 13 14  1  0
 14 15  1  0
 15 16  2  0
 16 17  1  0
 17 18  2  0
 18 19  1  0
 19 20  2  0
  2 21  1  0
 21 22  2  0
 22 23  1  0
 23 24  2  0
 24 25  1  0
 25 26  2  0
 26 27  1  0
 27 28  2  0
 28 29  1  0
 29 30  2  0
 12  7  1  0
 20 15  1  0
 30 21  1  0
 29 24  1  0
  3 31  1  0
  4 32  1  0
  4 33  1  0
  8 34  1  0
  8 35  1  0
  9 36  1  0
  9 37  1  0
 10 38  1  6
 11 39  1  0
 12 40  1  1
 13 41  1  0
 13 42  1  0
 16 43  1  0
 17 44  1  0
 18 45  1  0
 19 46  1  0
 20 47  1  0
 22 48  1  0
 23 49  1  0
 25 50  1  0
 26 51  1  0
 27 52  1  0
 28 53  1  0
M  END
>  <smiles>  (5) 
O=C(NCC(=O)N1CC[C@H](O)[C@H]1COc1ccccc1)c1ccc2ccccc2n1

>  <score_type>  (5) 
oracle

>  <origin>  (5) 
autodockgpu

>  <m_score__min__energy>  (5) 
-8.9299999999999997

>  <m_primary>  (5) 
energy

>  <rmsd>  (5) 
7.672655971929233

>  <m_score__min__rmsd>  (5) 
7.672655971929233

>  <meeko>  (5) 
{"free_energy": -7.23, "intermolecular_energy": -9.62, "internal_energy": -3.19, "cluster_size": 12, "cluster_id": 6, "rank_in_cluster": 4}

>  <energy>  (5) 
-8.7

>  <cluster_rmsd>  (5) 
0.66

>  <cluster>  (5) 
1

$$$$

     RDKit          3D

 53 56  0  0  0  0  0  0  0  0999 V2000
  137.5640   70.1160  221.9730 O   0  0  0  0  0  0  0  0  0  0  0  0
  137.7000   70.8300  223.0250 C   0  0  0  0  0  0  0  0  0  0  0  0
  137.1910   72.1560  223.0400 N   0  0  0  0  0  0  0  0  0  0  0  0
  136.5090   72.7370  221.8750 C   0  0  0  0  0  0  0  0  0  0  0  0
  137.5490   73.2930  220.9730 C   0  0  0  0  0  0  0  0  0  0  0  0
  137.2300   74.2010  220.1320 O   0  0  0  0  0  0  0  0  0  0  0  0
  138.8980   72.8900  220.9710 N   0  0  0  0  0  0  0  0  0  0  0  0
  139.5220   72.0140  220.0120 C   0  0  0  0  0  0  0  0  0  0  0  0
  140.2620   71.0790  220.9760 C   0  0  0  0  0  0  0  0  0  0  0  0
  140.9490   72.0830  221.8740 C   0  0  2  0  0  0  0  0  0  0  0  0
  141.1040   71.5410  223.1290 O   0  0  0  0  0  0  0  0  0  0  0  0
  139.9780   73.2430  221.9070 C   0  0  1  0  0  0  0  0  0  0  0  0
  140.5770   74.5050  221.3820 C   0  0  0  0  0  0  0  0  0  0  0  0
  140.4530   75.6380  222.1480 O   0  0  0  0  0  0  0  0  0  0  0  0
  140.9180   76.8970  221.9470 C   0  0  0  0  0  0  0  0  0  0  0  0
  141.2540   77.4890  220.7650 C   0  0  0  0  0  0  0  0  0  0  0  0
  141.7220   78.8020  220.6780 C   0  0  0  0  0  0  0  0  0  0  0  0
  141.8640   79.5560  221.8110 C   0  0  0  0  0  0  0  0  0  0  0  0
  141.5370   78.9900  223.0130 C   0  0  0  0  0  0  0  0  0  0  0  0
  141.0760   77.6990  223.0930 C   0  0  0  0  0  0  0  0  0  0  0  0
  138.3760   70.2740  224.2000 C   0  0  0  0  0  0  0  0  0  0  0  0
  138.2820   68.9160  224.4470 C   0  0  0  0  0  0  0  0  0  0  0  0
  138.9000   68.3280  225.5440 C   0  0  0  0  0  0  0  0  0  0  0  0
  139.6270   69.1290  226.4030 C   0  0  0  0  0  0  0  0  0  0  0  0
  140.2630   68.6020  227.5100 C   0  0  0  0  0  0  0  0  0  0  0  0
  140.9880   69.4140  228.3630 C   0  0  0  0  0  0  0  0  0  0  0  0
  141.0790   70.7740  228.1100 C   0  0  0  0  0  0  0  0  0  0  0  0
  140.4350   71.2810  226.9980 C   0  0  0  0  0  0  0  0  0  0  0  0
  139.7090   70.4810  226.1390 C   0  0  0  0  0  0  0  0  0  0  0  0
  139.0820   71.0090  225.0480 N   0  0  0  0  0  0  0  0  0  0  0  0
  137.3290   72.6990  223.9260 H   0  0  0  0  0  0  0  0  0  0  0  0
  135.9353   71.9588  221.3503 H   0  0  0  0  0  0  0  0  0  0  0  0
  135.8117   73.5267  222.1915 H   0  0  0  0  0  0  0  0  0  0  0  0
  138.7806   71.4749  219.4041 H   0  0  0  0  0  0  0  0  0  0  0  0
  140.1539   72.5118  219.2617 H   0  0  0  0  0  0  0  0  0  0  0  0
  139.5632   70.4434  221.5397 H   0  0  0  0  0  0  0  0  0  0  0  0
  140.9418   70.3660  220.4866 H   0  0  0  0  0  0  0  0  0  0  0  0
  141.9501   72.3795  221.5277 H   0  0  0  0  0  0  0  0  0  0  0  0
  140.3740   71.7950  223.7480 H   0  0  0  0  0  0  0  0  0  0  0  0
  139.6592   73.4086  222.9467 H   0  0  0  0  0  0  0  0  0  0  0  0
  141.6520   74.3227  221.2369 H   0  0  0  0  0  0  0  0  0  0  0  0
  140.0060   74.7241  220.4677 H   0  0  0  0  0  0  0  0  0  0  0  0
  141.1517   76.9057  219.8380 H   0  0  0  0  0  0  0  0  0  0  0  0
  141.9768   79.2305  219.6975 H   0  0  0  0  0  0  0  0  0  0  0  0
  142.2318   80.5913  221.7568 H   0  0  0  0  0  0  0  0  0  0  0  0
  141.6456   79.5813  223.9342 H   0  0  0  0  0  0  0  0  0  0  0  0
  140.8236   77.2806  224.0785 H   0  0  0  0  0  0  0  0  0  0  0  0
  137.7028   68.2850  223.7568 H   0  0  0  0  0  0  0  0  0  0  0  0
  138.8120   67.2465  225.7247 H   0  0  0  0  0  0  0  0  0  0  0  0
  140.1920   67.5237  227.7156 H   0  0  0  0  0  0  0  0  0  0  0  0
  141.4914   68.9817  229.2403 H   0  0  0  0  0  0  0  0  0  0  0  0
  141.6506   71.4340  228.7791 H   0  0  0  0  0  0  0  0  0  0  0  0
  140.5031   72.3590  226.7901 H   0  0  0  0  0  0  0  0  0  0  0  0
  1  2  2  0
  2  3  1  0
  3  4  1  0
  4  5  1  0
  5  6  2  0
  5  7  1  0
  7  8  1  0
  8  9  1  0
  9 10  1  0
 10 11  1  0
 10 12  1  0
 12 13  1  0
 13 14  1  0
 14 15  1  0
 15 16  2  0
 16 17  1  0
 17 18  2  0
 18 19  1  0
 19 20  2  0
  2 21  1  0
 21 22  2  0
 22 23  1  0
 23 24  2  0
 24 25  1  0
 25 26  2  0
 26 27  1  0
 27 28  2  0
 28 29  1  0
 29 30  2  0
 12  7  1  0
 20 15  1  0
 30 21  1  0
 29 24  1  0
  3 31  1  0
  4 32  1  0
  4 33  1  0
  8 34  1  0
  8 35  1  0
  9 36  1  0
  9 37  1  0
 10 38  1  6
 11 39  1  0
 12 40  1  1
 13 41  1  0
 13 42  1  0
 16 43  1  0
 17 44  1  0
 18 45  1  0
 19 46  1  0
 20 47  1  0
 22 48  1  0
 23 49  1  0
 25 50  1  0
 26 51  1  0
 27 52  1  0
 28 53  1  0
M  END
>  <smiles>  (6) 
O=C(NCC(=O)N1CC[C@H](O)[C@H]1COc1ccccc1)c1ccc2ccccc2n1

>  <score_type>  (6) 
oracle

>  <origin>  (6) 
autodockgpu

>  <m_score__min__energy>  (6) 
-8.9299999999999997

>  <m_primary>  (6) 
energy

>  <rmsd>  (6) 
3.519838369413126

>  <m_score__min__rmsd>  (6) 
3.519838369413126

>  <meeko>  (6) 
{"free_energy": -6.84, "intermolecular_energy": -9.23, "internal_energy": -2.66, "cluster_size": 21, "cluster_id": 1, "rank_in_cluster": 21}

>  <energy>  (6) 
-8.58

>  <cluster_rmsd>  (6) 
0.5

>  <cluster>  (6) 
1

$$$$

     RDKit          3D

 53 56  0  0  0  0  0  0  0  0999 V2000
  141.1570   72.4320  221.8060 O   0  0  0  0  0  0  0  0  0  0  0  0
  140.1520   72.4560  222.5950 C   0  0  0  0  0  0  0  0  0  0  0  0
  139.0790   73.3490  222.3330 N   0  0  0  0  0  0  0  0  0  0  0  0
  139.0900   74.2550  221.1760 C   0  0  0  0  0  0  0  0  0  0  0  0
  140.2470   75.1730  221.3310 C   0  0  0  0  0  0  0  0  0  0  0  0
  140.4210   75.7800  222.4430 O   0  0  0  0  0  0  0  0  0  0  0  0
  141.1940   75.4360  220.3250 N   0  0  0  0  0  0  0  0  0  0  0  0
  141.5040   74.5860  219.2030 C   0  0  0  0  0  0  0  0  0  0  0  0
  143.0340   74.6120  219.2890 C   0  0  0  0  0  0  0  0  0  0  0  0
  143.2880   76.0980  219.4000 C   0  0  2  0  0  0  0  0  0  0  0  0
  144.4410   76.3120  220.1190 O   0  0  0  0  0  0  0  0  0  0  0  0
  142.0800   76.6010  220.1600 C   0  0  1  0  0  0  0  0  0  0  0  0
  141.2930   77.6060  219.3850 C   0  0  0  0  0  0  0  0  0  0  0  0
  140.7000   78.6290  220.0830 O   0  0  0  0  0  0  0  0  0  0  0  0
  141.0280   79.1940  221.2720 C   0  0  0  0  0  0  0  0  0  0  0  0
  142.1720   79.8650  221.5960 C   0  0  0  0  0  0  0  0  0  0  0  0
  142.4020   80.4110  222.8600 C   0  0  0  0  0  0  0  0  0  0  0  0
  141.4580   80.2860  223.8430 C   0  0  0  0  0  0  0  0  0  0  0  0
  140.3000   79.6170  223.5510 C   0  0  0  0  0  0  0  0  0  0  0  0
  140.0790   79.0820  222.3050 C   0  0  0  0  0  0  0  0  0  0  0  0
  140.1160   71.5630  223.7560 C   0  0  0  0  0  0  0  0  0  0  0  0
  139.5670   70.3010  223.6140 C   0  0  0  0  0  0  0  0  0  0  0  0
  139.5030   69.4070  224.6760 C   0  0  0  0  0  0  0  0  0  0  0  0
  140.0070   69.7980  225.9010 C   0  0  0  0  0  0  0  0  0  0  0  0
  139.9710   68.9540  226.9940 C   0  0  0  0  0  0  0  0  0  0  0  0
  140.4800   69.3560  228.2160 C   0  0  0  0  0  0  0  0  0  0  0  0
  141.0290   70.6220  228.3510 C   0  0  0  0  0  0  0  0  0  0  0  0
  141.0540   71.4510  227.2470 C   0  0  0  0  0  0  0  0  0  0  0  0
  140.5510   71.0610  226.0220 C   0  0  0  0  0  0  0  0  0  0  0  0
  140.5880   71.9000  224.9470 N   0  0  0  0  0  0  0  0  0  0  0  0
  138.2800   73.3300  223.0110 H   0  0  0  0  0  0  0  0  0  0  0  0
  139.1940   73.6749  220.2472 H   0  0  0  0  0  0  0  0  0  0  0  0
  138.1506   74.8251  221.1247 H   0  0  0  0  0  0  0  0  0  0  0  0
  141.1019   73.5704  219.3329 H   0  0  0  0  0  0  0  0  0  0  0  0
  141.0814   74.9063  218.2392 H   0  0  0  0  0  0  0  0  0  0  0  0
  143.3986   74.0720  220.1753 H   0  0  0  0  0  0  0  0  0  0  0  0
  143.5452   74.1250  218.4455 H   0  0  0  0  0  0  0  0  0  0  0  0
  143.4185   76.6021  218.4311 H   0  0  0  0  0  0  0  0  0  0  0  0
  144.4000   77.1320  220.6730 H   0  0  0  0  0  0  0  0  0  0  0  0
  142.4205   77.0653  221.0973 H   0  0  0  0  0  0  0  0  0  0  0  0
  141.9740   78.0610  218.6507 H   0  0  0  0  0  0  0  0  0  0  0  0
  140.4533   77.0350  218.9620 H   0  0  0  0  0  0  0  0  0  0  0  0
  142.9484   79.9807  220.8254 H   0  0  0  0  0  0  0  0  0  0  0  0
  143.3429   80.9422  223.0661 H   0  0  0  0  0  0  0  0  0  0  0  0
  141.6257   80.7126  224.8430 H   0  0  0  0  0  0  0  0  0  0  0  0
  139.5310   79.5055  224.3296 H   0  0  0  0  0  0  0  0  0  0  0  0
  139.1351   78.5520  222.1097 H   0  0  0  0  0  0  0  0  0  0  0  0
  139.1705   69.9971  222.6340 H   0  0  0  0  0  0  0  0  0  0  0  0
  139.0602   68.4088  224.5437 H   0  0  0  0  0  0  0  0  0  0  0  0
  139.5324   67.9504  226.8915 H   0  0  0  0  0  0  0  0  0  0  0  0
  140.4492   68.6733  229.0779 H   0  0  0  0  0  0  0  0  0  0  0  0
  141.4356   70.9585  229.3161 H   0  0  0  0  0  0  0  0  0  0  0  0
  141.4895   72.4562  227.3470 H   0  0  0  0  0  0  0  0  0  0  0  0
  1  2  2  0
  2  3  1  0
  3  4  1  0
  4  5  1  0
  5  6  2  0
  5  7  1  0
  7  8  1  0
  8  9  1  0
  9 10  1  0
 10 11  1  0
 10 12  1  0
 12 13  1  0
 13 14  1  0
 14 15  1  0
 15 16  2  0
 16 17  1  0
 17 18  2  0
 18 19  1  0
 19 20  2  0
  2 21  1  0
 21 22  2  0
 22 23  1  0
 23 24  2  0
 24 25  1  0
 25 26  2  0
 26 27  1  0
 27 28  2  0
 28 29  1  0
 29 30  2  0
 12  7  1  0
 20 15  1  0
 30 21  1  0
 29 24  1  0
  3 31  1  0
  4 32  1  0
  4 33  1  0
  8 34  1  0
  8 35  1  0
  9 36  1  0
  9 37  1  0
 10 38  1  6
 11 39  1  0
 12 40  1  1
 13 41  1  0
 13 42  1  0
 16 43  1  0
 17 44  1  0
 18 45  1  0
 19 46  1  0
 20 47  1  0
 22 48  1  0
 23 49  1  0
 25 50  1  0
 26 51  1  0
 27 52  1  0
 28 53  1  0
M  END
>  <smiles>  (7) 
O=C(NCC(=O)N1CC[C@H](O)[C@H]1COc1ccccc1)c1ccc2ccccc2n1

>  <score_type>  (7) 
oracle

>  <origin>  (7) 
autodockgpu

>  <m_score__min__energy>  (7) 
-8.9299999999999997

>  <m_primary>  (7) 
energy

>  <rmsd>  (7) 
2.1513141565838305

>  <m_score__min__rmsd>  (7) 
2.1513141565838305

>  <meeko>  (7) 
{"free_energy": -8.7, "intermolecular_energy": -11.08, "internal_energy": -1.61, "cluster_size": 21, "cluster_id": 1, "rank_in_cluster": 5}

>  <energy>  (7) 
-8.48

>  <cluster_rmsd>  (7) 
0.53

>  <cluster>  (7) 
1

$$$$

     RDKit          3D

 53 56  0  0  0  0  0  0  0  0999 V2000
  137.2980   70.2930  221.9020 O   0  0  0  0  0  0  0  0  0  0  0  0
  137.4540   70.9640  222.9790 C   0  0  0  0  0  0  0  0  0  0  0  0
  136.8960   72.2660  223.0770 N   0  0  0  0  0  0  0  0  0  0  0  0
  136.1400   72.8710  221.9720 C   0  0  0  0  0  0  0  0  0  0  0  0
  137.1170   73.5030  221.0490 C   0  0  0  0  0  0  0  0  0  0  0  0
  136.7050   74.3440  220.1790 O   0  0  0  0  0  0  0  0  0  0  0  0
  138.5010   73.2440  221.0560 N   0  0  0  0  0  0  0  0  0  0  0  0
  139.2090   72.3800  220.1470 C   0  0  0  0  0  0  0  0  0  0  0  0
  140.0470   71.5900  221.1580 C   0  0  0  0  0  0  0  0  0  0  0  0
  140.6290   72.7130  221.9850 C   0  0  2  0  0  0  0  0  0  0  0  0
  140.8460   72.2700  223.2690 O   0  0  0  0  0  0  0  0  0  0  0  0
  139.5420   73.7650  221.9570 C   0  0  1  0  0  0  0  0  0  0  0  0
  140.0030   75.0490  221.3490 C   0  0  0  0  0  0  0  0  0  0  0  0
  140.7670   75.8850  222.1260 O   0  0  0  0  0  0  0  0  0  0  0  0
  140.5070   77.1280  222.6070 C   0  0  0  0  0  0  0  0  0  0  0  0
  141.3960   78.0460  223.0830 C   0  0  0  0  0  0  0  0  0  0  0  0
  141.0120   79.3040  223.5530 C   0  0  0  0  0  0  0  0  0  0  0  0
  139.6920   79.6630  223.5510 C   0  0  0  0  0  0  0  0  0  0  0  0
  138.7740   78.7630  223.0810 C   0  0  0  0  0  0  0  0  0  0  0  0
  139.1580   77.5270  222.6190 C   0  0  0  0  0  0  0  0  0  0  0  0
  138.2030   70.3830  224.0960 C   0  0  0  0  0  0  0  0  0  0  0  0
  138.1660   69.0140  224.2880 C   0  0  0  0  0  0  0  0  0  0  0  0
  138.8550   68.4020  225.3290 C   0  0  0  0  0  0  0  0  0  0  0  0
  139.5940   69.1910  226.1870 C   0  0  0  0  0  0  0  0  0  0  0  0
  140.2990   68.6410  227.2390 C   0  0  0  0  0  0  0  0  0  0  0  0
  141.0380   69.4420  228.0930 C   0  0  0  0  0  0  0  0  0  0  0  0
  141.0710   70.8140  227.8950 C   0  0  0  0  0  0  0  0  0  0  0  0
  140.3580   71.3440  226.8370 C   0  0  0  0  0  0  0  0  0  0  0  0
  139.6190   70.5560  225.9780 C   0  0  0  0  0  0  0  0  0  0  0  0
  138.9240   71.1060  224.9410 N   0  0  0  0  0  0  0  0  0  0  0  0
  137.0540   72.7740  223.9810 H   0  0  0  0  0  0  0  0  0  0  0  0
  135.5693   72.0957  221.4398 H   0  0  0  0  0  0  0  0  0  0  0  0
  135.4314   73.6203  222.3548 H   0  0  0  0  0  0  0  0  0  0  0  0
  138.5256   71.7293  219.5818 H   0  0  0  0  0  0  0  0  0  0  0  0
  139.7819   72.8932  219.3606 H   0  0  0  0  0  0  0  0  0  0  0  0
  139.4213   70.9212  221.7673 H   0  0  0  0  0  0  0  0  0  0  0  0
  140.7958   70.9231  220.7056 H   0  0  0  0  0  0  0  0  0  0  0  0
  141.5923   73.0897  221.6105 H   0  0  0  0  0  0  0  0  0  0  0  0
  140.1210   72.5280  223.8910 H   0  0  0  0  0  0  0  0  0  0  0  0
  139.2123   73.9604  222.9881 H   0  0  0  0  0  0  0  0  0  0  0  0
  140.5957   74.7963  220.4574 H   0  0  0  0  0  0  0  0  0  0  0  0
  139.0787   75.6141  221.1582 H   0  0  0  0  0  0  0  0  0  0  0  0
  142.4642   77.7838  223.0975 H   0  0  0  0  0  0  0  0  0  0  0  0
  141.7719   80.0069  223.9252 H   0  0  0  0  0  0  0  0  0  0  0  0
  139.3761   80.6506  223.9181 H   0  0  0  0  0  0  0  0  0  0  0  0
  137.7080   79.0344  223.0729 H   0  0  0  0  0  0  0  0  0  0  0  0
  138.3904   76.8314  222.2489 H   0  0  0  0  0  0  0  0  0  0  0  0
  137.5756   68.3926  223.5986 H   0  0  0  0  0  0  0  0  0  0  0  0
  138.8120   67.3114  225.4660 H   0  0  0  0  0  0  0  0  0  0  0  0
  140.2733   67.5532  227.4006 H   0  0  0  0  0  0  0  0  0  0  0  0
  141.5973   68.9913  228.9261 H   0  0  0  0  0  0  0  0  0  0  0  0
  141.6515   71.4654  228.5649 H   0  0  0  0  0  0  0  0  0  0  0  0
  140.3800   72.4316  226.6736 H   0  0  0  0  0  0  0  0  0  0  0  0
  1  2  2  0
  2  3  1  0
  3  4  1  0
  4  5  1  0
  5  6  2  0
  5  7  1  0
  7  8  1  0
  8  9  1  0
  9 10  1  0
 10 11  1  0
 10 12  1  0
 12 13  1  0
 13 14  1  0
 14 15  1  0
 15 16  2  0
 16 17  1  0
 17 18  2  0
 18 19  1  0
 19 20  2  0
  2 21  1  0
 21 22  2  0
 22 23  1  0
 23 24  2  0
 24 25  1  0
 25 26  2  0
 26 27  1  0
 27 28  2  0
 28 29  1  0
 29 30  2  0
 12  7  1  0
 20 15  1  0
 30 21  1  0
 29 24  1  0
  3 31  1  0
  4 32  1  0
  4 33  1  0
  8 34  1  0
  8 35  1  0
  9 36  1  0
  9 37  1  0
 10 38  1  6
 11 39  1  0
 12 40  1  1
 13 41  1  0
 13 42  1  0
 16 43  1  0
 17 44  1  0
 18 45  1  0
 19 46  1  0
 20 47  1  0
 22 48  1  0
 23 49  1  0
 25 50  1  0
 26 51  1  0
 27 52  1  0
 28 53  1  0
M  END
>  <smiles>  (8) 
O=C(NCC(=O)N1CC[C@H](O)[C@H]1COc1ccccc1)c1ccc2ccccc2n1

>  <score_type>  (8) 
oracle

>  <origin>  (8) 
autodockgpu

>  <m_score__min__energy>  (8) 
-8.9299999999999997

>  <m_primary>  (8) 
energy

>  <rmsd>  (8) 
3.4478840477044623

>  <m_score__min__rmsd>  (8) 
3.4478840477044623

>  <meeko>  (8) 
{"free_energy": -6.98, "intermolecular_energy": -9.37, "internal_energy": -2.68, "cluster_size": 21, "cluster_id": 1, "rank_in_cluster": 20}

>  <energy>  (8) 
-8.41

>  <cluster_rmsd>  (8) 
1.31

>  <cluster>  (8) 
1

$$$$

     RDKit          3D

 53 56  0  0  0  0  0  0  0  0999 V2000
  137.2480   76.2510  222.2890 O   0  0  0  0  0  0  0  0  0  0  0  0
  138.5220   76.3090  222.3710 C   0  0  0  0  0  0  0  0  0  0  0  0
  139.2920   75.1410  222.1260 N   0  0  0  0  0  0  0  0  0  0  0  0
  138.6640   73.8580  221.7790 C   0  0  0  0  0  0  0  0  0  0  0  0
  139.5980   72.7760  222.1790 C   0  0  0  0  0  0  0  0  0  0  0  0
  140.7140   73.0800  222.7220 O   0  0  0  0  0  0  0  0  0  0  0  0
  139.3460   71.4020  222.0030 N   0  0  0  0  0  0  0  0  0  0  0  0
  140.1870   70.4650  221.3020 C   0  0  0  0  0  0  0  0  0  0  0  0
  139.1230   69.7730  220.4430 C   0  0  0  0  0  0  0  0  0  0  0  0
  138.0780   69.4520  221.4870 C   0  0  2  0  0  0  0  0  0  0  0  0
  136.8340   69.4470  220.9010 O   0  0  0  0  0  0  0  0  0  0  0  0
  138.2040   70.5970  222.4680 C   0  0  1  0  0  0  0  0  0  0  0  0
  138.5640   70.1360  223.8420 C   0  0  0  0  0  0  0  0  0  0  0  0
  139.7460   70.5850  224.3770 O   0  0  0  0  0  0  0  0  0  0  0  0
  140.1170   70.7760  225.6690 C   0  0  0  0  0  0  0  0  0  0  0  0
  139.7790   70.0270  226.7580 C   0  0  0  0  0  0  0  0  0  0  0  0
  140.2240   70.3190  228.0490 C   0  0  0  0  0  0  0  0  0  0  0  0
  141.0370   71.3980  228.2670 C   0  0  0  0  0  0  0  0  0  0  0  0
  141.3940   72.1700  227.1940 C   0  0  0  0  0  0  0  0  0  0  0  0
  140.9530   71.8780  225.9260 C   0  0  0  0  0  0  0  0  0  0  0  0
  139.1730   77.5760  222.7150 C   0  0  0  0  0  0  0  0  0  0  0  0
  138.3870   78.6630  223.0540 C   0  0  0  0  0  0  0  0  0  0  0  0
  138.9420   79.8920  223.3900 C   0  0  0  0  0  0  0  0  0  0  0  0
  140.3170   80.0200  223.3850 C   0  0  0  0  0  0  0  0  0  0  0  0
  140.9270   81.2150  223.7100 C   0  0  0  0  0  0  0  0  0  0  0  0
  142.3060   81.3320  223.7020 C   0  0  0  0  0  0  0  0  0  0  0  0
  143.0890   80.2390  223.3610 C   0  0  0  0  0  0  0  0  0  0  0  0
  142.4580   79.0530  223.0390 C   0  0  0  0  0  0  0  0  0  0  0  0
  141.0840   78.9230  223.0450 C   0  0  0  0  0  0  0  0  0  0  0  0
  140.4880   77.7400  222.7220 N   0  0  0  0  0  0  0  0  0  0  0  0
  140.3320   75.2420  222.2070 H   0  0  0  0  0  0  0  0  0  0  0  0
  137.7114   73.7491  222.3183 H   0  0  0  0  0  0  0  0  0  0  0  0
  138.4575   73.8094  220.6997 H   0  0  0  0  0  0  0  0  0  0  0  0
  140.9453   70.9726  220.6877 H   0  0  0  0  0  0  0  0  0  0  0  0
  140.7824   69.7971  221.9419 H   0  0  0  0  0  0  0  0  0  0  0  0
  138.7275   70.4467  219.6686 H   0  0  0  0  0  0  0  0  0  0  0  0
  139.4885   68.9001  219.8822 H   0  0  0  0  0  0  0  0  0  0  0  0
  138.2104   68.4695  221.9637 H   0  0  0  0  0  0  0  0  0  0  0  0
  136.6110   70.3090  220.4680 H   0  0  0  0  0  0  0  0  0  0  0  0
  137.2434   71.1310  222.5133 H   0  0  0  0  0  0  0  0  0  0  0  0
  137.7560   70.4540  224.5173 H   0  0  0  0  0  0  0  0  0  0  0  0
  138.6988   69.0487  223.7438 H   0  0  0  0  0  0  0  0  0  0  0  0
  139.1264   69.1535  226.6125 H   0  0  0  0  0  0  0  0  0  0  0  0
  139.9206   69.6808  228.8920 H   0  0  0  0  0  0  0  0  0  0  0  0
  141.3947   71.6391  229.2789 H   0  0  0  0  0  0  0  0  0  0  0  0
  142.0469   73.0414  227.3503 H   0  0  0  0  0  0  0  0  0  0  0  0
  141.2616   72.5227  225.0898 H   0  0  0  0  0  0  0  0  0  0  0  0
  137.2927   78.5514  223.0577 H   0  0  0  0  0  0  0  0  0  0  0  0
  138.2996   80.7449  223.6544 H   0  0  0  0  0  0  0  0  0  0  0  0
  140.3095   82.0848  223.9786 H   0  0  0  0  0  0  0  0  0  0  0  0
  142.7798   82.2892  223.9653 H   0  0  0  0  0  0  0  0  0  0  0  0
  144.1863   80.3148  223.3473 H   0  0  0  0  0  0  0  0  0  0  0  0
  143.0723   78.1816  222.7683 H   0  0  0  0  0  0  0  0  0  0  0  0
  1  2  2  0
  2  3  1  0
  3  4  1  0
  4  5  1  0
  5  6  2  0
  5  7  1  0
  7  8  1  0
  8  9  1  0
  9 10  1  0
 10 11  1  0
 10 12  1  0
 12 13  1  0
 13 14  1  0
 14 15  1  0
 15 16  2  0
 16 17  1  0
 17 18  2  0
 18 19  1  0
 19 20  2  0
  2 21  1  0
 21 22  2  0
 22 23  1  0
 23 24  2  0
 24 25  1  0
 25 26  2  0
 26 27  1  0
 27 28  2  0
 28 29  1  0
 29 30  2  0
 12  7  1  0
 20 15  1  0
 30 21  1  0
 29 24  1  0
  3 31  1  0
  4 32  1  0
  4 33  1  0
  8 34  1  0
  8 35  1  0
  9 36  1  0
  9 37  1  0
 10 38  1  1
 11 39  1  0
 12 40  1  1
 13 41  1  0
 13 42  1  0
 16 43  1  0
 17 44  1  0
 18 45  1  0
 19 46  1  0
 20 47  1  0
 22 48  1  0
 23 49  1  0
 25 50  1  0
 26 51  1  0
 27 52  1  0
 28 53  1  0
M  END
>  <smiles>  (9) 
O=C(NCC(=O)N1CC[C@H](O)[C@H]1COc1ccccc1)c1ccc2ccccc2n1

>  <score_type>  (9) 
oracle

>  <origin>  (9) 
autodockgpu

>  <m_score__min__energy>  (9) 
-8.9299999999999997

>  <m_primary>  (9) 
energy

>  <rmsd>  (9) 
8.315956323998938

>  <m_score__min__rmsd>  (9) 
8.315956323998938

>  <meeko>  (9) 
{"free_energy": -7.67, "intermolecular_energy": -10.06, "internal_energy": -2.1, "cluster_size": 10, "cluster_id": 2, "rank_in_cluster": 8}

>  <energy>  (9) 
-8.36

>  <cluster_rmsd>  (9) 
1.4

>  <cluster>  (9) 
1

$$$$

     RDKit          3D

 53 56  0  0  0  0  0  0  0  0999 V2000
  139.2660   70.5610  221.4010 O   0  0  0  0  0  0  0  0  0  0  0  0
  139.4940   71.2580  222.4470 C   0  0  0  0  0  0  0  0  0  0  0  0
  139.6280   72.6670  222.3320 N   0  0  0  0  0  0  0  0  0  0  0  0
  139.5130   73.3530  221.0370 C   0  0  0  0  0  0  0  0  0  0  0  0
  140.2060   74.6610  221.1550 C   0  0  0  0  0  0  0  0  0  0  0  0
  140.3280   75.2040  222.3060 O   0  0  0  0  0  0  0  0  0  0  0  0
  140.7550   75.3710  220.0710 N   0  0  0  0  0  0  0  0  0  0  0  0
  140.6970   74.9860  218.6840 C   0  0  0  0  0  0  0  0  0  0  0  0
  142.1660   75.2020  218.3060 C   0  0  0  0  0  0  0  0  0  0  0  0
  142.4000   76.5910  218.8550 C   0  0  2  0  0  0  0  0  0  0  0  0
  143.7210   76.7210  219.2180 O   0  0  0  0  0  0  0  0  0  0  0  0
  141.5020   76.6400  220.0710 C   0  0  1  0  0  0  0  0  0  0  0  0
  140.4740   77.7190  219.9800 C   0  0  0  0  0  0  0  0  0  0  0  0
  140.1850   78.4240  221.1220 O   0  0  0  0  0  0  0  0  0  0  0  0
  140.9930   79.1340  221.9510 C   0  0  0  0  0  0  0  0  0  0  0  0
  141.7540   80.2260  221.6490 C   0  0  0  0  0  0  0  0  0  0  0  0
  142.5490   80.8820  222.5900 C   0  0  0  0  0  0  0  0  0  0  0  0
  142.5920   80.4350  223.8830 C   0  0  0  0  0  0  0  0  0  0  0  0
  141.8410   79.3410  224.2180 C   0  0  0  0  0  0  0  0  0  0  0  0
  141.0590   78.6990  223.2880 C   0  0  0  0  0  0  0  0  0  0  0  0
  139.6140   70.5990  223.7510 C   0  0  0  0  0  0  0  0  0  0  0  0
  139.1420   69.3060  223.8930 C   0  0  0  0  0  0  0  0  0  0  0  0
  139.2250   68.6260  225.1020 C   0  0  0  0  0  0  0  0  0  0  0  0
  139.7980   69.2660  226.1830 C   0  0  0  0  0  0  0  0  0  0  0  0
  139.9090   68.6420  227.4100 C   0  0  0  0  0  0  0  0  0  0  0  0
  140.4860   69.2920  228.4860 C   0  0  0  0  0  0  0  0  0  0  0  0
  140.9570   70.5880  228.3370 C   0  0  0  0  0  0  0  0  0  0  0  0
  140.8360   71.1950  227.1020 C   0  0  0  0  0  0  0  0  0  0  0  0
  140.2640   70.5560  226.0200 C   0  0  0  0  0  0  0  0  0  0  0  0
  140.1560   71.1790  224.8110 N   0  0  0  0  0  0  0  0  0  0  0  0
  139.8160   73.1930  223.2190 H   0  0  0  0  0  0  0  0  0  0  0  0
  139.9862   72.7482  220.2495 H   0  0  0  0  0  0  0  0  0  0  0  0
  138.4556   73.5001  220.7719 H   0  0  0  0  0  0  0  0  0  0  0  0
  140.3907   73.9367  218.5609 H   0  0  0  0  0  0  0  0  0  0  0  0
  139.9680   75.5381  218.0727 H   0  0  0  0  0  0  0  0  0  0  0  0
  142.8209   74.4610  218.7877 H   0  0  0  0  0  0  0  0  0  0  0  0
  142.3798   75.0953  217.2323 H   0  0  0  0  0  0  0  0  0  0  0  0
  142.1848   77.3969  218.1379 H   0  0  0  0  0  0  0  0  0  0  0  0
  144.3420   76.3460  218.5430 H   0  0  0  0  0  0  0  0  0  0  0  0
  142.1223   76.8167  220.9621 H   0  0  0  0  0  0  0  0  0  0  0  0
  140.8222   78.4416  219.2273 H   0  0  0  0  0  0  0  0  0  0  0  0
  139.5398   77.1925  219.7348 H   0  0  0  0  0  0  0  0  0  0  0  0
  141.7401   80.6064  220.6170 H   0  0  0  0  0  0  0  0  0  0  0  0
  143.1418   81.7594  222.2922 H   0  0  0  0  0  0  0  0  0  0  0  0
  143.2148   80.9425  224.6343 H   0  0  0  0  0  0  0  0  0  0  0  0
  141.8638   78.9680  225.2526 H   0  0  0  0  0  0  0  0  0  0  0  0
  140.4697   77.8229  223.5963 H   0  0  0  0  0  0  0  0  0  0  0  0
  138.6891   68.8031  223.0259 H   0  0  0  0  0  0  0  0  0  0  0  0
  138.8421   67.5991  225.1959 H   0  0  0  0  0  0  0  0  0  0  0  0
  139.5339   67.6153  227.5332 H   0  0  0  0  0  0  0  0  0  0  0  0
  140.5711   68.7825  229.4572 H   0  0  0  0  0  0  0  0  0  0  0  0
  141.4164   71.1203  229.1829 H   0  0  0  0  0  0  0  0  0  0  0  0
  141.2081   72.2225  226.9764 H   0  0  0  0  0  0  0  0  0  0  0  0
  1  2  2  0
  2  3  1  0
  3  4  1  0
  4  5  1  0
  5  6  2  0
  5  7  1  0
  7  8  1  0
  8  9  1  0
  9 10  1  0
 10 11  1  0
 10 12  1  0
 12 13  1  0
 13 14  1  0
 14 15  1  0
 15 16  2  0
 16 17  1  0
 17 18  2  0
 18 19  1  0
 19 20  2  0
  2 21  1  0
 21 22  2  0
 22 23  1  0
 23 24  2  0
 24 25  1  0
 25 26  2  0
 26 27  1  0
 27 28  2  0
 28 29  1  0
 29 30  2  0
 12  7  1  0
 20 15  1  0
 30 21  1  0
 29 24  1  0
  3 31  1  0
  4 32  1  0
  4 33  1  0
  8 34  1  0
  8 35  1  0
  9 36  1  0
  9 37  1  0
 10 38  1  6
 11 39  1  0
 12 40  1  1
 13 41  1  0
 13 42  1  0
 16 43  1  0
 17 44  1  0
 18 45  1  0
 19 46  1  0
 20 47  1  0
 22 48  1  0
 23 49  1  0
 25 50  1  0
 26 51  1  0
 27 52  1  0
 28 53  1  0
M  END
>  <smiles>  (10) 
O=C(NCC(=O)N1CC[C@H](O)[C@H]1COc1ccccc1)c1ccc2ccccc2n1

>  <score_type>  (10) 
oracle

>  <origin>  (10) 
autodockgpu

>  <m_score__min__energy>  (10) 
-8.9299999999999997

>  <m_primary>  (10) 
energy

>  <rmsd>  (10) 
1.6332634649271867

>  <m_score__min__rmsd>  (10) 
1.6332634649271867

>  <meeko>  (10) 
{"free_energy": -8.22, "intermolecular_energy": -10.61, "internal_energy": -1.96, "cluster_size": 21, "cluster_id": 1, "rank_in_cluster": 10}

>  <energy>  (10) 
-8.22

>  <cluster_rmsd>  (10) 
0.67

>  <cluster>  (10) 
1

$$$$

     RDKit          3D

 53 56  0  0  0  0  0  0  0  0999 V2000
  137.1260   70.9850  221.3150 O   0  0  0  0  0  0  0  0  0  0  0  0
  137.3010   71.5420  222.4520 C   0  0  0  0  0  0  0  0  0  0  0  0
  136.7350   72.8210  222.6980 N   0  0  0  0  0  0  0  0  0  0  0  0
  135.9500   73.5300  221.6780 C   0  0  0  0  0  0  0  0  0  0  0  0
  136.7710   74.6660  221.1860 C   0  0  0  0  0  0  0  0  0  0  0  0
  136.1900   75.7270  220.7720 O   0  0  0  0  0  0  0  0  0  0  0  0
  138.1780   74.6680  221.1370 N   0  0  0  0  0  0  0  0  0  0  0  0
  138.9890   74.4900  219.9600 C   0  0  0  0  0  0  0  0  0  0  0  0
  139.9840   73.4560  220.4990 C   0  0  0  0  0  0  0  0  0  0  0  0
  140.3980   74.1100  221.7980 C   0  0  2  0  0  0  0  0  0  0  0  0
  140.7330   73.1380  222.7120 O   0  0  0  0  0  0  0  0  0  0  0  0
  139.1480   74.8450  222.2310 C   0  0  1  0  0  0  0  0  0  0  0  0
  139.3630   76.3180  222.3500 C   0  0  0  0  0  0  0  0  0  0  0  0
  140.5530   76.8280  221.8920 O   0  0  0  0  0  0  0  0  0  0  0  0
  141.1590   78.0180  222.1390 C   0  0  0  0  0  0  0  0  0  0  0  0
  141.5330   78.9720  221.2390 C   0  0  0  0  0  0  0  0  0  0  0  0
  142.1510   80.1680  221.6100 C   0  0  0  0  0  0  0  0  0  0  0  0
  142.4090   80.4250  222.9300 C   0  0  0  0  0  0  0  0  0  0  0  0
  142.0460   79.4870  223.8580 C   0  0  0  0  0  0  0  0  0  0  0  0
  141.4370   78.3130  223.4860 C   0  0  0  0  0  0  0  0  0  0  0  0
  138.0790   70.8550  223.4870 C   0  0  0  0  0  0  0  0  0  0  0  0
  138.0080   69.4760  223.5740 C   0  0  0  0  0  0  0  0  0  0  0  0
  138.7210   68.7660  224.5320 C   0  0  0  0  0  0  0  0  0  0  0  0
  139.5200   69.4650  225.4150 C   0  0  0  0  0  0  0  0  0  0  0  0
  140.2520   68.8150  226.3890 C   0  0  0  0  0  0  0  0  0  0  0  0
  141.0490   69.5260  227.2690 C   0  0  0  0  0  0  0  0  0  0  0  0
  141.1150   70.9080  227.1760 C   0  0  0  0  0  0  0  0  0  0  0  0
  140.3750   71.5380  226.1960 C   0  0  0  0  0  0  0  0  0  0  0  0
  139.5770   70.8410  225.3120 C   0  0  0  0  0  0  0  0  0  0  0  0
  138.8560   71.4890  224.3530 N   0  0  0  0  0  0  0  0  0  0  0  0
  136.9080   73.2330  223.6460 H   0  0  0  0  0  0  0  0  0  0  0  0
  135.7148   72.8497  220.8462 H   0  0  0  0  0  0  0  0  0  0  0  0
  135.0037   73.8944  222.1042 H   0  0  0  0  0  0  0  0  0  0  0  0
  138.4056   74.0973  219.1142 H   0  0  0  0  0  0  0  0  0  0  0  0
  139.4386   75.4088  219.5554 H   0  0  0  0  0  0  0  0  0  0  0  0
  139.5021   72.4824  220.6717 H   0  0  0  0  0  0  0  0  0  0  0  0
  140.8175   73.2286  219.8181 H   0  0  0  0  0  0  0  0  0  0  0  0
  141.2693   74.7749  221.7049 H   0  0  0  0  0  0  0  0  0  0  0  0
  140.0490   73.0260  223.4190 H   0  0  0  0  0  0  0  0  0  0  0  0
  138.8276   74.4535  223.2078 H   0  0  0  0  0  0  0  0  0  0  0  0
  138.5560   76.8141  221.7910 H   0  0  0  0  0  0  0  0  0  0  0  0
  139.3761   76.5107  223.4329 H   0  0  0  0  0  0  0  0  0  0  0  0
  141.3389   78.7910  220.1715 H   0  0  0  0  0  0  0  0  0  0  0  0
  142.4306   80.9039  220.8417 H   0  0  0  0  0  0  0  0  0  0  0  0
  142.8960   81.3623  223.2369 H   0  0  0  0  0  0  0  0  0  0  0  0
  142.2458   79.6768  224.9229 H   0  0  0  0  0  0  0  0  0  0  0  0
  141.1594   77.5845  224.2620 H   0  0  0  0  0  0  0  0  0  0  0  0
  137.3700   68.9271  222.8657 H   0  0  0  0  0  0  0  0  0  0  0  0
  138.6505   67.6696  224.5860 H   0  0  0  0  0  0  0  0  0  0  0  0
  140.2009   67.7189  226.4663 H   0  0  0  0  0  0  0  0  0  0  0  0
  141.6283   68.9966  228.0398 H   0  0  0  0  0  0  0  0  0  0  0  0
  141.7429   71.4890  227.8676 H   0  0  0  0  0  0  0  0  0  0  0  0
  140.4230   72.6341  226.1169 H   0  0  0  0  0  0  0  0  0  0  0  0
  1  2  2  0
  2  3  1  0
  3  4  1  0
  4  5  1  0
  5  6  2  0
  5  7  1  0
  7  8  1  0
  8  9  1  0
  9 10  1  0
 10 11  1  0
 10 12  1  0
 12 13  1  0
 13 14  1  0
 14 15  1  0
 15 16  2  0
 16 17  1  0
 17 18  2  0
 18 19  1  0
 19 20  2  0
  2 21  1  0
 21 22  2  0
 22 23  1  0
 23 24  2  0
 24 25  1  0
 25 26  2  0
 26 27  1  0
 27 28  2  0
 28 29  1  0
 29 30  2  0
 12  7  1  0
 20 15  1  0
 30 21  1  0
 29 24  1  0
  3 31  1  0
  4 32  1  0
  4 33  1  0
  8 34  1  0
  8 35  1  0
  9 36  1  0
  9 37  1  0
 10 38  1  6
 11 39  1  0
 12 40  1  1
 13 41  1  0
 13 42  1  0
 16 43  1  0
 17 44  1  0
 18 45  1  0
 19 46  1  0
 20 47  1  0
 22 48  1  0
 23 49  1  0
 25 50  1  0
 26 51  1  0
 27 52  1  0
 28 53  1  0
M  END
>  <smiles>  (11) 
O=C(NCC(=O)N1CC[C@H](O)[C@H]1COc1ccccc1)c1ccc2ccccc2n1

>  <score_type>  (11) 
oracle

>  <origin>  (11) 
autodockgpu

>  <m_score__min__energy>  (11) 
-8.9299999999999997

>  <m_primary>  (11) 
energy

>  <rmsd>  (11) 
3.1554144521088983

>  <m_score__min__rmsd>  (11) 
3.1554144521088983

>  <meeko>  (11) 
{"free_energy": -7.11, "intermolecular_energy": -9.5, "internal_energy": -2.6, "cluster_size": 21, "cluster_id": 1, "rank_in_cluster": 16}

>  <energy>  (11) 
-8.2

>  <cluster_rmsd>  (11) 
1.36

>  <cluster>  (11) 
1

$$$$

     RDKit          3D

 53 56  0  0  0  0  0  0  0  0999 V2000
  137.0450   76.7810  222.1840 O   0  0  0  0  0  0  0  0  0  0  0  0
  138.3130   76.6920  222.3150 C   0  0  0  0  0  0  0  0  0  0  0  0
  138.9540   75.4460  222.0780 N   0  0  0  0  0  0  0  0  0  0  0  0
  138.1980   74.2490  221.6850 C   0  0  0  0  0  0  0  0  0  0  0  0
  138.9710   73.0610  222.1280 C   0  0  0  0  0  0  0  0  0  0  0  0
  140.2130   73.1890  222.4050 O   0  0  0  0  0  0  0  0  0  0  0  0
  138.4320   71.7690  222.2720 N   0  0  0  0  0  0  0  0  0  0  0  0
  137.7630   71.0070  221.2480 C   0  0  0  0  0  0  0  0  0  0  0  0
  136.5370   70.5460  222.0450 C   0  0  0  0  0  0  0  0  0  0  0  0
  137.1960   70.0080  223.2950 C   0  0  2  0  0  0  0  0  0  0  0  0
  136.3400   70.1550  224.3620 O   0  0  0  0  0  0  0  0  0  0  0  0
  138.4120   70.8940  223.4560 C   0  0  1  0  0  0  0  0  0  0  0  0
  139.6910   70.1240  223.4160 C   0  0  0  0  0  0  0  0  0  0  0  0
  140.7020   70.5220  224.2550 O   0  0  0  0  0  0  0  0  0  0  0  0
  140.6860   70.8250  225.5780 C   0  0  0  0  0  0  0  0  0  0  0  0
  141.2370   71.9090  226.1980 C   0  0  0  0  0  0  0  0  0  0  0  0
  141.1550   72.1200  227.5760 C   0  0  0  0  0  0  0  0  0  0  0  0
  140.5000   71.2180  228.3700 C   0  0  0  0  0  0  0  0  0  0  0  0
  139.9370   70.1190  227.7790 C   0  0  0  0  0  0  0  0  0  0  0  0
  140.0200   69.9170  226.4220 C   0  0  0  0  0  0  0  0  0  0  0  0
  139.0900   77.8710  222.7060 C   0  0  0  0  0  0  0  0  0  0  0  0
  138.4220   78.9880  223.1740 C   0  0  0  0  0  0  0  0  0  0  0  0
  139.1010   80.1380  223.5600 C   0  0  0  0  0  0  0  0  0  0  0  0
  140.4790   80.1540  223.4720 C   0  0  0  0  0  0  0  0  0  0  0  0
  141.2080   81.2670  223.8410 C   0  0  0  0  0  0  0  0  0  0  0  0
  142.5880   81.2730  223.7490 C   0  0  0  0  0  0  0  0  0  0  0  0
  143.2520   80.1490  223.2780 C   0  0  0  0  0  0  0  0  0  0  0  0
  142.5040   79.0470  222.9140 C   0  0  0  0  0  0  0  0  0  0  0  0
  141.1270   79.0290  223.0020 C   0  0  0  0  0  0  0  0  0  0  0  0
  140.4120   77.9260  222.6350 N   0  0  0  0  0  0  0  0  0  0  0  0
  139.9950   75.4260  222.2000 H   0  0  0  0  0  0  0  0  0  0  0  0
  137.2099   74.2546  222.1683 H   0  0  0  0  0  0  0  0  0  0  0  0
  138.0497   74.2276  220.5953 H   0  0  0  0  0  0  0  0  0  0  0  0
  137.4829   71.6318  220.3871 H   0  0  0  0  0  0  0  0  0  0  0  0
  138.3599   70.2017  220.7951 H   0  0  0  0  0  0  0  0  0  0  0  0
  135.8630   71.3852  222.2721 H   0  0  0  0  0  0  0  0  0  0  0  0
  135.8988   69.8207  221.5190 H   0  0  0  0  0  0  0  0  0  0  0  0
  137.4551   68.9404  223.2387 H   0  0  0  0  0  0  0  0  0  0  0  0
  136.1610   71.1040  224.5800 H   0  0  0  0  0  0  0  0  0  0  0  0
  138.3436   71.4162  224.4217 H   0  0  0  0  0  0  0  0  0  0  0  0
  139.4528   69.0785  223.6614 H   0  0  0  0  0  0  0  0  0  0  0  0
  140.0865   70.2944  222.4038 H   0  0  0  0  0  0  0  0  0  0  0  0
  141.7699   72.6501  225.5842 H   0  0  0  0  0  0  0  0  0  0  0  0
  141.6173   73.0121  228.0237 H   0  0  0  0  0  0  0  0  0  0  0  0
  140.4277   71.3724  229.4567 H   0  0  0  0  0  0  0  0  0  0  0  0
  139.4078   69.3832  228.4023 H   0  0  0  0  0  0  0  0  0  0  0  0
  139.5536   69.0221  225.9842 H   0  0  0  0  0  0  0  0  0  0  0  0
  137.3244   78.9658  223.2426 H   0  0  0  0  0  0  0  0  0  0  0  0
  138.5518   81.0172  223.9280 H   0  0  0  0  0  0  0  0  0  0  0  0
  140.6846   82.1602  224.2129 H   0  0  0  0  0  0  0  0  0  0  0  0
  143.1572   82.1655  224.0481 H   0  0  0  0  0  0  0  0  0  0  0  0
  144.3489   80.1364  223.1966 H   0  0  0  0  0  0  0  0  0  0  0  0
  143.0238   78.1523  222.5409 H   0  0  0  0  0  0  0  0  0  0  0  0
  1  2  2  0
  2  3  1  0
  3  4  1  0
  4  5  1  0
  5  6  2  0
  5  7  1  0
  7  8  1  0
  8  9  1  0
  9 10  1  0
 10 11  1  0
 10 12  1  0
 12 13  1  0
 13 14  1  0
 14 15  1  0
 15 16  2  0
 16 17  1  0
 17 18  2  0
 18 19  1  0
 19 20  2  0
  2 21  1  0
 21 22  2  0
 22 23  1  0
 23 24  2  0
 24 25  1  0
 25 26  2  0
 26 27  1  0
 27 28  2  0
 28 29  1  0
 29 30  2  0
 12  7  1  0
 20 15  1  0
 30 21  1  0
 29 24  1  0
  3 31  1  0
  4 32  1  0
  4 33  1  0
  8 34  1  0
  8 35  1  0
  9 36  1  0
  9 37  1  0
 10 38  1  6
 11 39  1  0
 12 40  1  1
 13 41  1  0
 13 42  1  0
 16 43  1  0
 17 44  1  0
 18 45  1  0
 19 46  1  0
 20 47  1  0
 22 48  1  0
 23 49  1  0
 25 50  1  0
 26 51  1  0
 27 52  1  0
 28 53  1  0
M  END
>  <smiles>  (12) 
O=C(NCC(=O)N1CC[C@H](O)[C@H]1COc1ccccc1)c1ccc2ccccc2n1

>  <score_type>  (12) 
oracle

>  <origin>  (12) 
autodockgpu

>  <m_score__min__energy>  (12) 
-8.9299999999999997

>  <m_primary>  (12) 
energy

>  <rmsd>  (12) 
8.557119134351602

>  <m_score__min__rmsd>  (12) 
8.557119134351602

>  <meeko>  (12) 
{"free_energy": -7.76, "intermolecular_energy": -10.15, "internal_energy": -2.02, "cluster_size": 10, "cluster_id": 2, "rank_in_cluster": 5}

>  <energy>  (12) 
-7.95

>  <cluster_rmsd>  (12) 
1.13

>  <cluster>  (12) 
1

$$$$

     RDKit          3D

 53 56  0  0  0  0  0  0  0  0999 V2000
  139.0100   74.9800  222.1550 O   0  0  0  0  0  0  0  0  0  0  0  0
  140.1510   75.5500  222.0730 C   0  0  0  0  0  0  0  0  0  0  0  0
  141.2780   74.7970  221.6510 N   0  0  0  0  0  0  0  0  0  0  0  0
  141.1730   73.3730  221.3020 C   0  0  0  0  0  0  0  0  0  0  0  0
  141.8980   73.1660  220.0230 C   0  0  0  0  0  0  0  0  0  0  0  0
  141.2440   72.8220  218.9800 O   0  0  0  0  0  0  0  0  0  0  0  0
  143.2870   73.3230  219.8620 N   0  0  0  0  0  0  0  0  0  0  0  0
  144.0980   72.7240  218.8320 C   0  0  0  0  0  0  0  0  0  0  0  0
  145.2450   72.1930  219.6990 C   0  0  0  0  0  0  0  0  0  0  0  0
  145.5760   73.4200  220.5170 C   0  0  2  0  0  0  0  0  0  0  0  0
  146.0670   73.0330  221.7420 O   0  0  0  0  0  0  0  0  0  0  0  0
  144.2370   74.1080  220.6690 C   0  0  1  0  0  0  0  0  0  0  0  0
  144.2300   75.4820  220.0850 C   0  0  0  0  0  0  0  0  0  0  0  0
  143.0160   76.0200  219.7330 O   0  0  0  0  0  0  0  0  0  0  0  0
  142.7170   77.1480  219.0400 C   0  0  0  0  0  0  0  0  0  0  0  0
  142.9220   77.4000  217.7150 C   0  0  0  0  0  0  0  0  0  0  0  0
  142.5680   78.6060  217.1060 C   0  0  0  0  0  0  0  0  0  0  0  0
  141.9890   79.6020  217.8440 C   0  0  0  0  0  0  0  0  0  0  0  0
  141.7710   79.3820  219.1770 C   0  0  0  0  0  0  0  0  0  0  0  0
  142.1200   78.1930  219.7700 C   0  0  0  0  0  0  0  0  0  0  0  0
  140.2830   76.9690  222.4150 C   0  0  0  0  0  0  0  0  0  0  0  0
  139.1400   77.7390  222.5320 C   0  0  0  0  0  0  0  0  0  0  0  0
  139.1970   79.0900  222.8540 C   0  0  0  0  0  0  0  0  0  0  0  0
  140.4340   79.6680  223.0610 C   0  0  0  0  0  0  0  0  0  0  0  0
  140.5550   81.0060  223.3830 C   0  0  0  0  0  0  0  0  0  0  0  0
  141.7990   81.5750  223.5890 C   0  0  0  0  0  0  0  0  0  0  0  0
  142.9410   80.7970  223.4700 C   0  0  0  0  0  0  0  0  0  0  0  0
  142.7980   79.4620  223.1470 C   0  0  0  0  0  0  0  0  0  0  0  0
  141.5630   78.8830  222.9400 C   0  0  0  0  0  0  0  0  0  0  0  0
  141.4500   77.5610  222.6210 N   0  0  0  0  0  0  0  0  0  0  0  0
  142.1910   75.3110  221.6020 H   0  0  0  0  0  0  0  0  0  0  0  0
  141.6273   72.7590  222.0936 H   0  0  0  0  0  0  0  0  0  0  0  0
  140.1181   73.0790  221.1984 H   0  0  0  0  0  0  0  0  0  0  0  0
  143.5678   71.9138  218.3100 H   0  0  0  0  0  0  0  0  0  0  0  0
  144.3978   73.3991  218.0169 H   0  0  0  0  0  0  0  0  0  0  0  0
  144.9174   71.3584  220.3362 H   0  0  0  0  0  0  0  0  0  0  0  0
  146.0928   71.7835  219.1303 H   0  0  0  0  0  0  0  0  0  0  0  0
  146.3362   74.0699  220.0591 H   0  0  0  0  0  0  0  0  0  0  0  0
  145.9090   72.0740  221.9320 H   0  0  0  0  0  0  0  0  0  0  0  0
  143.9946   74.1773  221.7397 H   0  0  0  0  0  0  0  0  0  0  0  0
  144.6858   76.1560  220.8253 H   0  0  0  0  0  0  0  0  0  0  0  0
  144.7762   75.3832  219.1353 H   0  0  0  0  0  0  0  0  0  0  0  0
  143.3875   76.6174  217.0979 H   0  0  0  0  0  0  0  0  0  0  0  0
  142.7548   78.7552  216.0323 H   0  0  0  0  0  0  0  0  0  0  0  0
  141.7055   80.5568  217.3770 H   0  0  0  0  0  0  0  0  0  0  0  0
  141.3074   80.1725  219.7854 H   0  0  0  0  0  0  0  0  0  0  0  0
  141.9278   78.0538  220.8441 H   0  0  0  0  0  0  0  0  0  0  0  0
  138.1592   77.2695  222.3657 H   0  0  0  0  0  0  0  0  0  0  0  0
  138.2766   79.6859  222.9420 H   0  0  0  0  0  0  0  0  0  0  0  0
  139.6514   81.6263  223.4767 H   0  0  0  0  0  0  0  0  0  0  0  0
  141.8822   82.6412  223.8464 H   0  0  0  0  0  0  0  0  0  0  0  0
  143.9380   81.2335  223.6293 H   0  0  0  0  0  0  0  0  0  0  0  0
  143.6995   78.8390  223.0515 H   0  0  0  0  0  0  0  0  0  0  0  0
  1  2  2  0
  2  3  1  0
  3  4  1  0
  4  5  1  0
  5  6  2  0
  5  7  1  0
  7  8  1  0
  8  9  1  0
  9 10  1  0
 10 11  1  0
 10 12  1  0
 12 13  1  0
 13 14  1  0
 14 15  1  0
 15 16  2  0
 16 17  1  0
 17 18  2  0
 18 19  1  0
 19 20  2  0
  2 21  1  0
 21 22  2  0
 22 23  1  0
 23 24  2  0
 24 25  1  0
 25 26  2  0
 26 27  1  0
 27 28  2  0
 28 29  1  0
 29 30  2  0
 12  7  1  0
 20 15  1  0
 30 21  1  0
 29 24  1  0
  3 31  1  0
  4 32  1  0
  4 33  1  0
  8 34  1  0
  8 35  1  0
  9 36  1  0
  9 37  1  0
 10 38  1  6
 11 39  1  0
 12 40  1  1
 13 41  1  0
 13 42  1  0
 16 43  1  0
 17 44  1  0
 18 45  1  0
 19 46  1  0
 20 47  1  0
 22 48  1  0
 23 49  1  0
 25 50  1  0
 26 51  1  0
 27 52  1  0
 28 53  1  0
M  END
>  <smiles>  (13) 
O=C(NCC(=O)N1CC[C@H](O)[C@H]1COc1ccccc1)c1ccc2ccccc2n1

>  <score_type>  (13) 
oracle

>  <origin>  (13) 
autodockgpu

>  <m_score__min__energy>  (13) 
-8.9299999999999997

>  <m_primary>  (13) 
energy

>  <rmsd>  (13) 
7.692930676383735

>  <m_score__min__rmsd>  (13) 
7.692930676383735

>  <meeko>  (13) 
{"free_energy": -7.27, "intermolecular_energy": -9.66, "internal_energy": -3.17, "cluster_size": 12, "cluster_id": 6, "rank_in_cluster": 1}

>  <energy>  (13) 
-7.82

>  <cluster_rmsd>  (13) 
1.5

>  <cluster>  (13) 
1

$$$$

     RDKit          3D

 53 56  0  0  0  0  0  0  0  0999 V2000
  137.1740   76.7160  222.0230 O   0  0  0  0  0  0  0  0  0  0  0  0
  138.4180   76.6200  222.3000 C   0  0  0  0  0  0  0  0  0  0  0  0
  139.0550   75.3530  222.2240 N   0  0  0  0  0  0  0  0  0  0  0  0
  138.3220   74.1390  221.8350 C   0  0  0  0  0  0  0  0  0  0  0  0
  139.0980   72.9690  222.3170 C   0  0  0  0  0  0  0  0  0  0  0  0
  140.3460   73.1030  222.5640 O   0  0  0  0  0  0  0  0  0  0  0  0
  138.5570   71.6870  222.5290 N   0  0  0  0  0  0  0  0  0  0  0  0
  137.7770   70.9260  221.5860 C   0  0  0  0  0  0  0  0  0  0  0  0
  136.6300   70.4940  222.5060 C   0  0  0  0  0  0  0  0  0  0  0  0
  137.4020   69.9580  223.6900 C   0  0  2  0  0  0  0  0  0  0  0  0
  136.6590   70.1300  224.8350 O   0  0  0  0  0  0  0  0  0  0  0  0
  138.6410   70.8250  223.7200 C   0  0  1  0  0  0  0  0  0  0  0  0
  139.8970   70.0340  223.5620 C   0  0  0  0  0  0  0  0  0  0  0  0
  140.7240   69.9260  224.6530 O   0  0  0  0  0  0  0  0  0  0  0  0
  140.6220   70.4600  225.8960 C   0  0  0  0  0  0  0  0  0  0  0  0
  139.9890   69.9370  226.9860 C   0  0  0  0  0  0  0  0  0  0  0  0
  139.9520   70.5800  228.2250 C   0  0  0  0  0  0  0  0  0  0  0  0
  140.5660   71.7920  228.3880 C   0  0  0  0  0  0  0  0  0  0  0  0
  141.2090   72.3440  227.3130 C   0  0  0  0  0  0  0  0  0  0  0  0
  141.2440   71.7070  226.0970 C   0  0  0  0  0  0  0  0  0  0  0  0
  139.1720   77.8150  222.6890 C   0  0  0  0  0  0  0  0  0  0  0  0
  138.4810   78.9300  223.1260 C   0  0  0  0  0  0  0  0  0  0  0  0
  139.1370   80.0940  223.5100 C   0  0  0  0  0  0  0  0  0  0  0  0
  140.5160   80.1260  223.4510 C   0  0  0  0  0  0  0  0  0  0  0  0
  141.2230   81.2530  223.8190 C   0  0  0  0  0  0  0  0  0  0  0  0
  142.6050   81.2740  223.7570 C   0  0  0  0  0  0  0  0  0  0  0  0
  143.2930   80.1520  223.3180 C   0  0  0  0  0  0  0  0  0  0  0  0
  142.5660   79.0350  222.9540 C   0  0  0  0  0  0  0  0  0  0  0  0
  141.1880   79.0020  223.0130 C   0  0  0  0  0  0  0  0  0  0  0  0
  140.4950   77.8850  222.6470 N   0  0  0  0  0  0  0  0  0  0  0  0
  140.0760   75.3280  222.4610 H   0  0  0  0  0  0  0  0  0  0  0  0
  137.3229   74.1411  222.2951 H   0  0  0  0  0  0  0  0  0  0  0  0
  138.1996   74.0964  220.7427 H   0  0  0  0  0  0  0  0  0  0  0  0
  137.4222   71.5467  220.7500 H   0  0  0  0  0  0  0  0  0  0  0  0
  138.3129   70.1061  221.0855 H   0  0  0  0  0  0  0  0  0  0  0  0
  135.9953   71.3466  222.7892 H   0  0  0  0  0  0  0  0  0  0  0  0
  135.9311   69.7743  222.0548 H   0  0  0  0  0  0  0  0  0  0  0  0
  137.6378   68.8859  223.6199 H   0  0  0  0  0  0  0  0  0  0  0  0
  136.3750   71.0690  224.9690 H   0  0  0  0  0  0  0  0  0  0  0  0
  138.6768   71.3578  224.6817 H   0  0  0  0  0  0  0  0  0  0  0  0
  139.6084   69.0146  223.2661 H   0  0  0  0  0  0  0  0  0  0  0  0
  140.4864   70.5927  222.8201 H   0  0  0  0  0  0  0  0  0  0  0  0
  139.4850   68.9646  226.8839 H   0  0  0  0  0  0  0  0  0  0  0  0
  139.4284   70.1115  229.0714 H   0  0  0  0  0  0  0  0  0  0  0  0
  140.5434   72.3096  229.3583 H   0  0  0  0  0  0  0  0  0  0  0  0
  141.7079   73.3179  227.4255 H   0  0  0  0  0  0  0  0  0  0  0  0
  141.7719   72.1836  225.2578 H   0  0  0  0  0  0  0  0  0  0  0  0
  137.3825   78.8951  223.1711 H   0  0  0  0  0  0  0  0  0  0  0  0
  138.5692   80.9712  223.8537 H   0  0  0  0  0  0  0  0  0  0  0  0
  140.6811   82.1452  224.1658 H   0  0  0  0  0  0  0  0  0  0  0  0
  143.1568   82.1778  224.0549 H   0  0  0  0  0  0  0  0  0  0  0  0
  144.3915   80.1518  223.2611 H   0  0  0  0  0  0  0  0  0  0  0  0
  143.1043   78.1414  222.6052 H   0  0  0  0  0  0  0  0  0  0  0  0
  1  2  2  0
  2  3  1  0
  3  4  1  0
  4  5  1  0
  5  6  2  0
  5  7  1  0
  7  8  1  0
  8  9  1  0
  9 10  1  0
 10 11  1  0
 10 12  1  0
 12 13  1  0
 13 14  1  0
 14 15  1  0
 15 16  2  0
 16 17  1  0
 17 18  2  0
 18 19  1  0
 19 20  2  0
  2 21  1  0
 21 22  2  0
 22 23  1  0
 23 24  2  0
 24 25  1  0
 25 26  2  0
 26 27  1  0
 27 28  2  0
 28 29  1  0
 29 30  2  0
 12  7  1  0
 20 15  1  0
 30 21  1  0
 29 24  1  0
  3 31  1  0
  4 32  1  0
  4 33  1  0
  8 34  1  0
  8 35  1  0
  9 36  1  0
  9 37  1  0
 10 38  1  6
 11 39  1  0
 12 40  1  1
 13 41  1  0
 13 42  1  0
 16 43  1  0
 17 44  1  0
 18 45  1  0
 19 46  1  0
 20 47  1  0
 22 48  1  0
 23 49  1  0
 25 50  1  0
 26 51  1  0
 27 52  1  0
 28 53  1  0
M  END
>  <smiles>  (14) 
O=C(NCC(=O)N1CC[C@H](O)[C@H]1COc1ccccc1)c1ccc2ccccc2n1

>  <score_type>  (14) 
oracle

>  <origin>  (14) 
autodockgpu

>  <m_score__min__energy>  (14) 
-8.9299999999999997

>  <m_primary>  (14) 
energy

>  <rmsd>  (14) 
8.591095310913595

>  <m_score__min__rmsd>  (14) 
8.591095310913595

>  <meeko>  (14) 
{"free_energy": -7.76, "intermolecular_energy": -10.14, "internal_energy": -2.07, "cluster_size": 10, "cluster_id": 2, "rank_in_cluster": 6}

>  <energy>  (14) 
-7.55

>  <cluster_rmsd>  (14) 
1.51

>  <cluster>  (14) 
1

$$$$

     RDKit          3D

 53 56  0  0  0  0  0  0  0  0999 V2000
  138.9100   75.1220  221.9200 O   0  0  0  0  0  0  0  0  0  0  0  0
  140.0840   75.6150  222.0210 C   0  0  0  0  0  0  0  0  0  0  0  0
  141.2130   74.7880  221.7780 N   0  0  0  0  0  0  0  0  0  0  0  0
  141.0700   73.3720  221.4110 C   0  0  0  0  0  0  0  0  0  0  0  0
  141.7090   73.1830  220.0840 C   0  0  0  0  0  0  0  0  0  0  0  0
  140.9810   72.9040  219.0710 O   0  0  0  0  0  0  0  0  0  0  0  0
  143.0920   73.2890  219.8450 N   0  0  0  0  0  0  0  0  0  0  0  0
  143.8480   72.5400  218.8740 C   0  0  0  0  0  0  0  0  0  0  0  0
  145.0250   72.1090  219.7560 C   0  0  0  0  0  0  0  0  0  0  0  0
  145.4080   73.4290  220.3840 C   0  0  2  0  0  0  0  0  0  0  0  0
  145.9480   73.2020  221.6290 O   0  0  0  0  0  0  0  0  0  0  0  0
  144.0870   74.1570  220.4970 C   0  0  1  0  0  0  0  0  0  0  0  0
  144.0730   75.4400  219.7320 C   0  0  0  0  0  0  0  0  0  0  0  0
  142.9750   75.7060  218.9530 O   0  0  0  0  0  0  0  0  0  0  0  0
  142.0520   76.6980  219.0350 C   0  0  0  0  0  0  0  0  0  0  0  0
  140.6980   76.5990  218.8980 C   0  0  0  0  0  0  0  0  0  0  0  0
  139.8400   77.6950  219.0060 C   0  0  0  0  0  0  0  0  0  0  0  0
  140.3480   78.9410  219.2590 C   0  0  0  0  0  0  0  0  0  0  0  0
  141.7030   79.0740  219.4000 C   0  0  0  0  0  0  0  0  0  0  0  0
  142.5420   77.9920  219.2930 C   0  0  0  0  0  0  0  0  0  0  0  0
  140.2530   77.0250  222.3860 C   0  0  0  0  0  0  0  0  0  0  0  0
  139.1290   77.8070  222.5750 C   0  0  0  0  0  0  0  0  0  0  0  0
  139.2220   79.1500  222.9210 C   0  0  0  0  0  0  0  0  0  0  0  0
  140.4750   79.7070  223.0800 C   0  0  0  0  0  0  0  0  0  0  0  0
  140.6310   81.0360  223.4230 C   0  0  0  0  0  0  0  0  0  0  0  0
  141.8920   81.5830  223.5810 C   0  0  0  0  0  0  0  0  0  0  0  0
  143.0150   80.7930  223.3900 C   0  0  0  0  0  0  0  0  0  0  0  0
  142.8370   79.4670  223.0460 C   0  0  0  0  0  0  0  0  0  0  0  0
  141.5850   78.9090  222.8870 C   0  0  0  0  0  0  0  0  0  0  0  0
  141.4380   77.5960  222.5470 N   0  0  0  0  0  0  0  0  0  0  0  0
  142.1530   75.2410  221.8750 H   0  0  0  0  0  0  0  0  0  0  0  0
  141.5677   72.7387  222.1601 H   0  0  0  0  0  0  0  0  0  0  0  0
  140.0076   73.0897  221.3708 H   0  0  0  0  0  0  0  0  0  0  0  0
  143.2840   71.6771  218.4903 H   0  0  0  0  0  0  0  0  0  0  0  0
  144.1208   73.0923  217.9626 H   0  0  0  0  0  0  0  0  0  0  0  0
  144.7148   71.3750  220.5143 H   0  0  0  0  0  0  0  0  0  0  0  0
  145.8411   71.6095  219.2134 H   0  0  0  0  0  0  0  0  0  0  0  0
  146.1555   73.9962  219.8099 H   0  0  0  0  0  0  0  0  0  0  0  0
  145.9660   72.2410  221.8690 H   0  0  0  0  0  0  0  0  0  0  0  0
  143.8930   74.3752  221.5575 H   0  0  0  0  0  0  0  0  0  0  0  0
  144.1645   76.2584  220.4613 H   0  0  0  0  0  0  0  0  0  0  0  0
  144.9046   75.3472  219.0180 H   0  0  0  0  0  0  0  0  0  0  0  0
  140.2624   75.6100  218.6930 H   0  0  0  0  0  0  0  0  0  0  0  0
  138.7551   77.5574  218.8877 H   0  0  0  0  0  0  0  0  0  0  0  0
  139.6838   79.8134  219.3468 H   0  0  0  0  0  0  0  0  0  0  0  0
  142.1286   80.0678  219.6031 H   0  0  0  0  0  0  0  0  0  0  0  0
  143.6254   78.1405  219.4121 H   0  0  0  0  0  0  0  0  0  0  0  0
  138.1345   77.3544  222.4482 H   0  0  0  0  0  0  0  0  0  0  0  0
  138.3157   79.7565  223.0652 H   0  0  0  0  0  0  0  0  0  0  0  0
  139.7423   81.6668  223.5723 H   0  0  0  0  0  0  0  0  0  0  0  0
  142.0031   82.6419  223.8574 H   0  0  0  0  0  0  0  0  0  0  0  0
  144.0248   81.2125  223.5096 H   0  0  0  0  0  0  0  0  0  0  0  0
  143.7238   78.8342  222.8936 H   0  0  0  0  0  0  0  0  0  0  0  0
  1  2  2  0
  2  3  1  0
  3  4  1  0
  4  5  1  0
  5  6  2  0
  5  7  1  0
  7  8  1  0
  8  9  1  0
  9 10  1  0
 10 11  1  0
 10 12  1  0
 12 13  1  0
 13 14  1  0
 14 15  1  0
 15 16  2  0
 16 17  1  0
 17 18  2  0
 18 19  1  0
 19 20  2  0
  2 21  1  0
 21 22  2  0
 22 23  1  0
 23 24  2  0
 24 25  1  0
 25 26  2  0
 26 27  1  0
 27 28  2  0
 28 29  1  0
 29 30  2  0
 12  7  1  0
 20 15  1  0
 30 21  1  0
 29 24  1  0
  3 31  1  0
  4 32  1  0
  4 33  1  0
  8 34  1  0
  8 35  1  0
  9 36  1  0
  9 37  1  0
 10 38  1  6
 11 39  1  0
 12 40  1  1
 13 41  1  0
 13 42  1  0
 16 43  1  0
 17 44  1  0
 18 45  1  0
 19 46  1  0
 20 47  1  0
 22 48  1  0
 23 49  1  0
 25 50  1  0
 26 51  1  0
 27 52  1  0
 28 53  1  0
M  END
>  <smiles>  (15) 
O=C(NCC(=O)N1CC[C@H](O)[C@H]1COc1ccccc1)c1ccc2ccccc2n1

>  <score_type>  (15) 
oracle

>  <origin>  (15) 
autodockgpu

>  <m_score__min__energy>  (15) 
-8.9299999999999997

>  <m_primary>  (15) 
energy

>  <rmsd>  (15) 
7.6648102494028425

>  <m_score__min__rmsd>  (15) 
7.6648102494028425

>  <meeko>  (15) 
{"free_energy": -6.56, "intermolecular_energy": -8.94, "internal_energy": -3.26, "cluster_size": 12, "cluster_id": 6, "rank_in_cluster": 10}

>  <energy>  (15) 
-7.13

>  <cluster_rmsd>  (15) 
1.75

>  <cluster>  (15) 
1

$$$$

     RDKit          3D

 53 56  0  0  0  0  0  0  0  0999 V2000
  137.2090   76.2880  222.1810 O   0  0  0  0  0  0  0  0  0  0  0  0
  138.4700   76.3140  222.3840 C   0  0  0  0  0  0  0  0  0  0  0  0
  139.2180   75.1110  222.2860 N   0  0  0  0  0  0  0  0  0  0  0  0
  138.5820   73.8280  221.9570 C   0  0  0  0  0  0  0  0  0  0  0  0
  139.5750   72.7530  222.2090 C   0  0  0  0  0  0  0  0  0  0  0  0
  140.7140   73.0560  222.7040 O   0  0  0  0  0  0  0  0  0  0  0  0
  139.3570   71.3890  221.9400 N   0  0  0  0  0  0  0  0  0  0  0  0
  140.2830   70.4890  221.3010 C   0  0  0  0  0  0  0  0  0  0  0  0
  139.3350   69.8350  220.2890 C   0  0  0  0  0  0  0  0  0  0  0  0
  138.1760   69.4630  221.1850 C   0  0  2  0  0  0  0  0  0  0  0  0
  137.0100   69.4820  220.4550 O   0  0  0  0  0  0  0  0  0  0  0  0
  138.1750   70.5590  222.2270 C   0  0  1  0  0  0  0  0  0  0  0  0
  138.3720   70.0340  223.6110 C   0  0  0  0  0  0  0  0  0  0  0  0
  139.6190   70.1620  224.1700 O   0  0  0  0  0  0  0  0  0  0  0  0
  139.9920   70.4300  225.4480 C   0  0  0  0  0  0  0  0  0  0  0  0
  139.7250   69.7020  226.5700 C   0  0  0  0  0  0  0  0  0  0  0  0
  140.1660   70.0750  227.8420 C   0  0  0  0  0  0  0  0  0  0  0  0
  140.9010   71.2180  228.0050 C   0  0  0  0  0  0  0  0  0  0  0  0
  141.1840   71.9720  226.8980 C   0  0  0  0  0  0  0  0  0  0  0  0
  140.7490   71.5990  225.6500 C   0  0  0  0  0  0  0  0  0  0  0  0
  139.1290   77.5810  222.7140 C   0  0  0  0  0  0  0  0  0  0  0  0
  138.3500   78.6800  223.0240 C   0  0  0  0  0  0  0  0  0  0  0  0
  138.9130   79.9100  223.3460 C   0  0  0  0  0  0  0  0  0  0  0  0
  140.2890   80.0240  223.3550 C   0  0  0  0  0  0  0  0  0  0  0  0
  140.9070   81.2200  223.6670 C   0  0  0  0  0  0  0  0  0  0  0  0
  142.2860   81.3230  223.6740 C   0  0  0  0  0  0  0  0  0  0  0  0
  143.0620   80.2170  223.3620 C   0  0  0  0  0  0  0  0  0  0  0  0
  142.4250   79.0310  223.0530 C   0  0  0  0  0  0  0  0  0  0  0  0
  141.0500   78.9150  223.0440 C   0  0  0  0  0  0  0  0  0  0  0  0
  140.4460   77.7320  222.7340 N   0  0  0  0  0  0  0  0  0  0  0  0
  140.2490   75.1860  222.4630 H   0  0  0  0  0  0  0  0  0  0  0  0
  137.6962   73.6757  222.5911 H   0  0  0  0  0  0  0  0  0  0  0  0
  138.2607   73.8163  220.9050 H   0  0  0  0  0  0  0  0  0  0  0  0
  141.1046   71.0275  220.8061 H   0  0  0  0  0  0  0  0  0  0  0  0
  140.8033   69.7930  221.9755 H   0  0  0  0  0  0  0  0  0  0  0  0
  139.0292   70.5431  219.5047 H   0  0  0  0  0  0  0  0  0  0  0  0
  139.7720   68.9906  219.7358 H   0  0  0  0  0  0  0  0  0  0  0  0
  138.2589   68.4594  221.6277 H   0  0  0  0  0  0  0  0  0  0  0  0
  137.0380   70.1310  219.7070 H   0  0  0  0  0  0  0  0  0  0  0  0
  137.2112   71.0873  222.1828 H   0  0  0  0  0  0  0  0  0  0  0  0
  137.6625   70.5605  224.2663 H   0  0  0  0  0  0  0  0  0  0  0  0
  138.2173   68.9486  223.5215 H   0  0  0  0  0  0  0  0  0  0  0  0
  139.1354   68.7789  226.4687 H   0  0  0  0  0  0  0  0  0  0  0  0
  139.9223   69.4495  228.7134 H   0  0  0  0  0  0  0  0  0  0  0  0
  141.2555   71.5231  229.0006 H   0  0  0  0  0  0  0  0  0  0  0  0
  141.7716   72.8951  227.0104 H   0  0  0  0  0  0  0  0  0  0  0  0
  140.9990   72.2309  224.7850 H   0  0  0  0  0  0  0  0  0  0  0  0
  137.2547   78.5788  223.0157 H   0  0  0  0  0  0  0  0  0  0  0  0
  138.2760   80.7734  223.5883 H   0  0  0  0  0  0  0  0  0  0  0  0
  140.2949   82.1003  223.9127 H   0  0  0  0  0  0  0  0  0  0  0  0
  142.7661   82.2799  223.9264 H   0  0  0  0  0  0  0  0  0  0  0  0
  144.1600   80.2827  223.3606 H   0  0  0  0  0  0  0  0  0  0  0  0
  143.0344   78.1492  222.8057 H   0  0  0  0  0  0  0  0  0  0  0  0
  1  2  2  0
  2  3  1  0
  3  4  1  0
  4  5  1  0
  5  6  2  0
  5  7  1  0
  7  8  1  0
  8  9  1  0
  9 10  1  0
 10 11  1  0
 10 12  1  0
 12 13  1  0
 13 14  1  0
 14 15  1  0
 15 16  2  0
 16 17  1  0
 17 18  2  0
 18 19  1  0
 19 20  2  0
  2 21  1  0
 21 22  2  0
 22 23  1  0
 23 24  2  0
 24 25  1  0
 25 26  2  0
 26 27  1  0
 27 28  2  0
 28 29  1  0
 29 30  2  0
 12  7  1  0
 20 15  1  0
 30 21  1  0
 29 24  1  0
  3 31  1  0
  4 32  1  0
  4 33  1  0
  8 34  1  0
  8 35  1  0
  9 36  1  0
  9 37  1  0
 10 38  1  1
 11 39  1  0
 12 40  1  1
 13 41  1  0
 13 42  1  0
 16 43  1  0
 17 44  1  0
 18 45  1  0
 19 46  1  0
 20 47  1  0
 22 48  1  0
 23 49  1  0
 25 50  1  0
 26 51  1  0
 27 52  1  0
 28 53  1  0
M  END
>  <smiles>  (16) 
O=C(NCC(=O)N1CC[C@H](O)[C@H]1COc1ccccc1)c1ccc2ccccc2n1

>  <score_type>  (16) 
oracle

>  <origin>  (16) 
autodockgpu

>  <m_score__min__energy>  (16) 
-8.9299999999999997

>  <m_primary>  (16) 
energy

>  <rmsd>  (16) 
8.276690805126734

>  <m_score__min__rmsd>  (16) 
8.276690805126734

>  <meeko>  (16) 
{"free_energy": -7.47, "intermolecular_energy": -9.86, "internal_energy": -2.19, "cluster_size": 10, "cluster_id": 2, "rank_in_cluster": 10}

>  <energy>  (16) 
-7.11

>  <cluster_rmsd>  (16) 
1.83

>  <cluster>  (16) 
1

$$$$

     RDKit          3D

 53 56  0  0  0  0  0  0  0  0999 V2000
  140.6050   71.1760  221.4210 O   0  0  0  0  0  0  0  0  0  0  0  0
  139.9510   71.6350  222.4190 C   0  0  0  0  0  0  0  0  0  0  0  0
  139.2390   72.8570  222.2850 N   0  0  0  0  0  0  0  0  0  0  0  0
  139.2300   73.6140  221.0260 C   0  0  0  0  0  0  0  0  0  0  0  0
  140.1500   74.7690  221.1870 C   0  0  0  0  0  0  0  0  0  0  0  0
  140.2480   75.3380  222.3270 O   0  0  0  0  0  0  0  0  0  0  0  0
  140.9460   75.3020  220.1560 N   0  0  0  0  0  0  0  0  0  0  0  0
  141.1960   74.6950  218.8730 C   0  0  0  0  0  0  0  0  0  0  0  0
  142.7180   74.8710  218.8090 C   0  0  0  0  0  0  0  0  0  0  0  0
  142.8500   76.3340  219.1640 C   0  0  2  0  0  0  0  0  0  0  0  0
  144.0560   76.5440  219.7920 O   0  0  0  0  0  0  0  0  0  0  0  0
  141.7000   76.5660  220.1200 C   0  0  1  0  0  0  0  0  0  0  0  0
  140.7420   77.5980  219.6230 C   0  0  0  0  0  0  0  0  0  0  0  0
  140.6410   78.7690  220.3330 O   0  0  0  0  0  0  0  0  0  0  0  0
  141.2910   79.1850  221.4500 C   0  0  0  0  0  0  0  0  0  0  0  0
  142.2000   80.1960  221.5640 C   0  0  0  0  0  0  0  0  0  0  0  0
  142.8070   80.5400  222.7740 C   0  0  0  0  0  0  0  0  0  0  0  0
  142.5000   79.8500  223.9160 C   0  0  0  0  0  0  0  0  0  0  0  0
  141.5920   78.8290  223.8340 C   0  0  0  0  0  0  0  0  0  0  0  0
  140.9970   78.4960  222.6410 C   0  0  0  0  0  0  0  0  0  0  0  0
  139.9440   70.8990  223.6860 C   0  0  0  0  0  0  0  0  0  0  0  0
  139.3340   69.6580  223.7360 C   0  0  0  0  0  0  0  0  0  0  0  0
  139.2920   68.9100  224.9060 C   0  0  0  0  0  0  0  0  0  0  0  0
  139.8800   69.4270  226.0430 C   0  0  0  0  0  0  0  0  0  0  0  0
  139.8710   68.7310  227.2360 C   0  0  0  0  0  0  0  0  0  0  0  0
  140.4640   69.2580  228.3690 C   0  0  0  0  0  0  0  0  0  0  0  0
  141.0740   70.5030  228.3120 C   0  0  0  0  0  0  0  0  0  0  0  0
  141.0710   71.1830  227.1110 C   0  0  0  0  0  0  0  0  0  0  0  0
  140.4840   70.6670  225.9730 C   0  0  0  0  0  0  0  0  0  0  0  0
  140.4960   71.3610  224.7990 N   0  0  0  0  0  0  0  0  0  0  0  0
  138.7200   73.1900  223.1330 H   0  0  0  0  0  0  0  0  0  0  0  0
  139.5742   72.9730  220.2010 H   0  0  0  0  0  0  0  0  0  0  0  0
  138.2127   73.9613  220.7925 H   0  0  0  0  0  0  0  0  0  0  0  0
  140.9034   73.6348  218.8555 H   0  0  0  0  0  0  0  0  0  0  0  0
  140.6365   75.1279  218.0307 H   0  0  0  0  0  0  0  0  0  0  0  0
  143.2307   74.2292  219.5406 H   0  0  0  0  0  0  0  0  0  0  0  0
  143.1679   74.5945  217.8441 H   0  0  0  0  0  0  0  0  0  0  0  0
  142.8202   77.0081  218.2953 H   0  0  0  0  0  0  0  0  0  0  0  0
  144.0610   77.3660  220.3450 H   0  0  0  0  0  0  0  0  0  0  0  0
  142.1054   76.8962  221.0878 H   0  0  0  0  0  0  0  0  0  0  0  0
  141.0437   77.8600  218.5982 H   0  0  0  0  0  0  0  0  0  0  0  0
  139.7521   77.1280  219.7191 H   0  0  0  0  0  0  0  0  0  0  0  0
  142.4670   80.7661  220.6620 H   0  0  0  0  0  0  0  0  0  0  0  0
  143.5324   81.3661  222.8095 H   0  0  0  0  0  0  0  0  0  0  0  0
  142.9713   80.1096  224.8754 H   0  0  0  0  0  0  0  0  0  0  0  0
  141.3334   78.2637  224.7415 H   0  0  0  0  0  0  0  0  0  0  0  0
  140.2719   77.6692  222.6165 H   0  0  0  0  0  0  0  0  0  0  0  0
  138.8698   69.2528  222.8248 H   0  0  0  0  0  0  0  0  0  0  0  0
  138.8004   67.9262  224.9260 H   0  0  0  0  0  0  0  0  0  0  0  0
  139.3860   67.7449  227.2857 H   0  0  0  0  0  0  0  0  0  0  0  0
  140.4521   68.6920  229.3121 H   0  0  0  0  0  0  0  0  0  0  0  0
  141.5491   70.9380  229.2036 H   0  0  0  0  0  0  0  0  0  0  0  0
  141.5531   72.1704  227.0587 H   0  0  0  0  0  0  0  0  0  0  0  0
  1  2  2  0
  2  3  1  0
  3  4  1  0
  4  5  1  0
  5  6  2  0
  5  7  1  0
  7  8  1  0
  8  9  1  0
  9 10  1  0
 10 11  1  0
 10 12  1  0
 12 13  1  0
 13 14  1  0
 14 15  1  0
 15 16  2  0
 16 17  1  0
 17 18  2  0
 18 19  1  0
 19 20  2  0
  2 21  1  0
 21 22  2  0
 22 23  1  0
 23 24  2  0
 24 25  1  0
 25 26  2  0
 26 27  1  0
 27 28  2  0
 28 29  1  0
 29 30  2  0
 12  7  1  0
 20 15  1  0
 30 21  1  0
 29 24  1  0
  3 31  1  0
  4 32  1  0
  4 33  1  0
  8 34  1  0
  8 35  1  0
  9 36  1  0
  9 37  1  0
 10 38  1  6
 11 39  1  0
 12 40  1  1
 13 41  1  0
 13 42  1  0
 16 43  1  0
 17 44  1  0
 18 45  1  0
 19 46  1  0
 20 47  1  0
 22 48  1  0
 23 49  1  0
 25 50  1  0
 26 51  1  0
 27 52  1  0
 28 53  1  0
M  END
>  <smiles>  (17) 
O=C(NCC(=O)N1CC[C@H](O)[C@H]1COc1ccccc1)c1ccc2ccccc2n1

>  <score_type>  (17) 
oracle

>  <origin>  (17) 
autodockgpu

>  <m_score__min__energy>  (17) 
-8.9299999999999997

>  <m_primary>  (17) 
energy

>  <rmsd>  (17) 
1.8928632648566002

>  <m_score__min__rmsd>  (17) 
1.8928632648566002

>  <meeko>  (17) 
{"free_energy": -8.93, "intermolecular_energy": -11.32, "internal_energy": -1.56, "cluster_size": 21, "cluster_id": 1, "rank_in_cluster": 1}

>  <energy>  (17) 
-7.04

>  <cluster_rmsd>  (17) 
1.86

>  <cluster>  (17) 
1

$$$$

     RDKit          3D

 53 56  0  0  0  0  0  0  0  0999 V2000
  138.4370   74.9730  221.9800 O   0  0  0  0  0  0  0  0  0  0  0  0
  139.6190   75.4570  221.9350 C   0  0  0  0  0  0  0  0  0  0  0  0
  140.6900   74.6430  221.4810 N   0  0  0  0  0  0  0  0  0  0  0  0
  140.4800   73.2520  221.0580 C   0  0  0  0  0  0  0  0  0  0  0  0
  141.8020   72.5750  221.0580 C   0  0  0  0  0  0  0  0  0  0  0  0
  142.0670   71.7160  221.9670 O   0  0  0  0  0  0  0  0  0  0  0  0
  142.8170   72.8110  220.1120 N   0  0  0  0  0  0  0  0  0  0  0  0
  142.8330   72.3480  218.7480 C   0  0  0  0  0  0  0  0  0  0  0  0
  144.2610   71.7930  218.6920 C   0  0  0  0  0  0  0  0  0  0  0  0
  145.0400   72.9540  219.2680 C   0  0  2  0  0  0  0  0  0  0  0  0
  146.1630   72.4790  219.9050 O   0  0  0  0  0  0  0  0  0  0  0  0
  144.0750   73.5620  220.2620 C   0  0  1  0  0  0  0  0  0  0  0  0
  143.7440   74.9820  219.9430 C   0  0  0  0  0  0  0  0  0  0  0  0
  142.4800   75.2540  219.4790 O   0  0  0  0  0  0  0  0  0  0  0  0
  141.8310   76.4360  219.3210 C   0  0  0  0  0  0  0  0  0  0  0  0
  140.5510   76.6400  218.8950 C   0  0  0  0  0  0  0  0  0  0  0  0
  139.9840   77.9100  218.7730 C   0  0  0  0  0  0  0  0  0  0  0  0
  140.7180   79.0220  219.0860 C   0  0  0  0  0  0  0  0  0  0  0  0
  142.0060   78.8500  219.5160 C   0  0  0  0  0  0  0  0  0  0  0  0
  142.5590   77.5980  219.6350 C   0  0  0  0  0  0  0  0  0  0  0  0
  139.8540   76.8430  222.3510 C   0  0  0  0  0  0  0  0  0  0  0  0
  138.7680   77.6570  222.6140 C   0  0  0  0  0  0  0  0  0  0  0  0
  138.9240   78.9800  223.0120 C   0  0  0  0  0  0  0  0  0  0  0  0
  140.2030   79.4830  223.1480 C   0  0  0  0  0  0  0  0  0  0  0  0
  140.4220   80.7890  223.5400 C   0  0  0  0  0  0  0  0  0  0  0  0
  141.7070   81.2830  223.6730 C   0  0  0  0  0  0  0  0  0  0  0  0
  142.7920   80.4600  223.4080 C   0  0  0  0  0  0  0  0  0  0  0  0
  142.5510   79.1580  223.0170 C   0  0  0  0  0  0  0  0  0  0  0  0
  141.2740   78.6530  222.8810 C   0  0  0  0  0  0  0  0  0  0  0  0
  141.0650   77.3630  222.4930 N   0  0  0  0  0  0  0  0  0  0  0  0
  141.6390   75.0880  221.4640 H   0  0  0  0  0  0  0  0  0  0  0  0
  139.8000   72.7459  221.7591 H   0  0  0  0  0  0  0  0  0  0  0  0
  140.0302   73.2184  220.0547 H   0  0  0  0  0  0  0  0  0  0  0  0
  142.0804   71.5656  218.5704 H   0  0  0  0  0  0  0  0  0  0  0  0
  142.5940   73.1087  217.9903 H   0  0  0  0  0  0  0  0  0  0  0  0
  144.3680   70.8883  219.3085 H   0  0  0  0  0  0  0  0  0  0  0  0
  144.5879   71.4781  217.6900 H   0  0  0  0  0  0  0  0  0  0  0  0
  145.3831   73.6787  218.5149 H   0  0  0  0  0  0  0  0  0  0  0  0
  145.9480   71.9270  220.6980 H   0  0  0  0  0  0  0  0  0  0  0  0
  144.5265   73.5212  221.2643 H   0  0  0  0  0  0  0  0  0  0  0  0
  143.8896   75.5679  220.8625 H   0  0  0  0  0  0  0  0  0  0  0  0
  144.4093   75.2415  219.1063 H   0  0  0  0  0  0  0  0  0  0  0  0
  139.9380   75.7642  218.6359 H   0  0  0  0  0  0  0  0  0  0  0  0
  138.9460   78.0170  218.4249 H   0  0  0  0  0  0  0  0  0  0  0  0
  140.2838   80.0285  218.9943 H   0  0  0  0  0  0  0  0  0  0  0  0
  142.6109   79.7325  219.7716 H   0  0  0  0  0  0  0  0  0  0  0  0
  143.5975   77.5018  219.9847 H   0  0  0  0  0  0  0  0  0  0  0  0
  137.7531   77.2469  222.5055 H   0  0  0  0  0  0  0  0  0  0  0  0
  138.0472   79.6127  223.2143 H   0  0  0  0  0  0  0  0  0  0  0  0
  139.5637   81.4445  223.7490 H   0  0  0  0  0  0  0  0  0  0  0  0
  141.8681   82.3246  223.9878 H   0  0  0  0  0  0  0  0  0  0  0  0
  143.8209   80.8363  223.5072 H   0  0  0  0  0  0  0  0  0  0  0  0
  143.4070   78.5001  222.8065 H   0  0  0  0  0  0  0  0  0  0  0  0
  1  2  2  0
  2  3  1  0
  3  4  1  0
  4  5  1  0
  5  6  2  0
  5  7  1  0
  7  8  1  0
  8  9  1  0
  9 10  1  0
 10 11  1  0
 10 12  1  0
 12 13  1  0
 13 14  1  0
 14 15  1  0
 15 16  2  0
 16 17  1  0
 17 18  2  0
 18 19  1  0
 19 20  2  0
  2 21  1  0
 21 22  2  0
 22 23  1  0
 23 24  2  0
 24 25  1  0
 25 26  2  0
 26 27  1  0
 27 28  2  0
 28 29  1  0
 29 30  2  0
 12  7  1  0
 20 15  1  0
 30 21  1  0
 29 24  1  0
  3 31  1  0
  4 32  1  0
  4 33  1  0
  8 34  1  0
  8 35  1  0
  9 36  1  0
  9 37  1  0
 10 38  1  6
 11 39  1  0
 12 40  1  1
 13 41  1  0
 13 42  1  0
 16 43  1  0
 17 44  1  0
 18 45  1  0
 19 46  1  0
 20 47  1  0
 22 48  1  0
 23 49  1  0
 25 50  1  0
 26 51  1  0
 27 52  1  0
 28 53  1  0
M  END
>  <smiles>  (18) 
O=C(NCC(=O)N1CC[C@H](O)[C@H]1COc1ccccc1)c1ccc2ccccc2n1

>  <score_type>  (18) 
oracle

>  <origin>  (18) 
autodockgpu

>  <m_score__min__energy>  (18) 
-8.9299999999999997

>  <m_primary>  (18) 
energy

>  <rmsd>  (18) 
7.3820398609048175

>  <m_score__min__rmsd>  (18) 
7.3820398609048175

>  <meeko>  (18) 
{"free_energy": -6.13, "intermolecular_energy": -8.52, "internal_energy": -3.67, "cluster_size": 12, "cluster_id": 6, "rank_in_cluster": 12}

>  <energy>  (18) 
-7.03

>  <cluster_rmsd>  (18) 
1.93

>  <cluster>  (18) 
1

$$$$

     RDKit          3D

 53 56  0  0  0  0  0  0  0  0999 V2000
  141.1010   72.5570  222.4060 O   0  0  0  0  0  0  0  0  0  0  0  0
  140.0930   72.2100  223.1110 C   0  0  0  0  0  0  0  0  0  0  0  0
  138.7910   72.6170  222.7150 N   0  0  0  0  0  0  0  0  0  0  0  0
  138.5650   73.4310  221.5130 C   0  0  0  0  0  0  0  0  0  0  0  0
  139.3250   74.6960  221.6750 C   0  0  0  0  0  0  0  0  0  0  0  0
  139.1140   75.4270  222.7020 O   0  0  0  0  0  0  0  0  0  0  0  0
  140.2870   75.1690  220.7630 N   0  0  0  0  0  0  0  0  0  0  0  0
  140.2100   75.0880  219.3260 C   0  0  0  0  0  0  0  0  0  0  0  0
  141.6180   74.5580  219.0330 C   0  0  0  0  0  0  0  0  0  0  0  0
  142.4580   75.5160  219.8460 C   0  0  2  0  0  0  0  0  0  0  0  0
  143.6050   74.8790  220.2600 O   0  0  0  0  0  0  0  0  0  0  0  0
  141.5700   75.8420  221.0270 C   0  0  1  0  0  0  0  0  0  0  0  0
  141.2550   77.2990  221.1200 C   0  0  0  0  0  0  0  0  0  0  0  0
  141.0310   77.8250  222.3690 O   0  0  0  0  0  0  0  0  0  0  0  0
  141.3340   79.0450  222.8820 C   0  0  0  0  0  0  0  0  0  0  0  0
  140.4720   80.0090  223.3170 C   0  0  0  0  0  0  0  0  0  0  0  0
  140.9000   81.2350  223.8320 C   0  0  0  0  0  0  0  0  0  0  0  0
  142.2370   81.5140  223.9170 C   0  0  0  0  0  0  0  0  0  0  0  0
  143.1270   80.5670  223.4880 C   0  0  0  0  0  0  0  0  0  0  0  0
  142.7000   79.3620  222.9830 C   0  0  0  0  0  0  0  0  0  0  0  0
  140.2910   71.3970  224.3140 C   0  0  0  0  0  0  0  0  0  0  0  0
  141.0440   71.9130  225.3540 C   0  0  0  0  0  0  0  0  0  0  0  0
  141.2690   71.1930  226.5210 C   0  0  0  0  0  0  0  0  0  0  0  0
  140.7190   69.9320  226.6370 C   0  0  0  0  0  0  0  0  0  0  0  0
  140.9080   69.1690  227.7720 C   0  0  0  0  0  0  0  0  0  0  0  0
  140.3520   67.9060  227.8780 C   0  0  0  0  0  0  0  0  0  0  0  0
  139.5970   67.3950  226.8320 C   0  0  0  0  0  0  0  0  0  0  0  0
  139.4220   68.1740  225.7050 C   0  0  0  0  0  0  0  0  0  0  0  0
  139.9700   69.4350  225.5880 C   0  0  0  0  0  0  0  0  0  0  0  0
  139.7810   70.1840  224.4630 N   0  0  0  0  0  0  0  0  0  0  0  0
  137.9990   72.3060  223.3280 H   0  0  0  0  0  0  0  0  0  0  0  0
  138.9209   72.8915  220.6229 H   0  0  0  0  0  0  0  0  0  0  0  0
  137.4926   73.6396  221.3850 H   0  0  0  0  0  0  0  0  0  0  0  0
  139.4295   74.3872  218.9947 H   0  0  0  0  0  0  0  0  0  0  0  0
  139.9444   76.0254  218.8155 H   0  0  0  0  0  0  0  0  0  0  0  0
  141.7396   73.5205  219.3778 H   0  0  0  0  0  0  0  0  0  0  0  0
  141.8766   74.5206  217.9645 H   0  0  0  0  0  0  0  0  0  0  0  0
  142.7725   76.4132  219.2927 H   0  0  0  0  0  0  0  0  0  0  0  0
  143.7540   74.9560  221.2360 H   0  0  0  0  0  0  0  0  0  0  0  0
  142.0797   75.5301  221.9506 H   0  0  0  0  0  0  0  0  0  0  0  0
  142.1011   77.8469  220.6796 H   0  0  0  0  0  0  0  0  0  0  0  0
  140.2948   77.4101  220.5950 H   0  0  0  0  0  0  0  0  0  0  0  0
  139.3913   79.8119  223.2596 H   0  0  0  0  0  0  0  0  0  0  0  0
  140.1614   81.9770  224.1696 H   0  0  0  0  0  0  0  0  0  0  0  0
  142.5877   82.4755  224.3201 H   0  0  0  0  0  0  0  0  0  0  0  0
  144.2056   80.7743  223.5485 H   0  0  0  0  0  0  0  0  0  0  0  0
  143.4466   78.6264  222.6491 H   0  0  0  0  0  0  0  0  0  0  0  0
  141.4759   72.9197  225.2543 H   0  0  0  0  0  0  0  0  0  0  0  0
  141.8730   71.6190  227.3357 H   0  0  0  0  0  0  0  0  0  0  0  0
  141.5079   69.5699  228.6023 H   0  0  0  0  0  0  0  0  0  0  0  0
  140.5082   67.3091  228.7887 H   0  0  0  0  0  0  0  0  0  0  0  0
  139.1483   66.3929  226.8988 H   0  0  0  0  0  0  0  0  0  0  0  0
  138.8249   67.7753  224.8716 H   0  0  0  0  0  0  0  0  0  0  0  0
  1  2  2  0
  2  3  1  0
  3  4  1  0
  4  5  1  0
  5  6  2  0
  5  7  1  0
  7  8  1  0
  8  9  1  0
  9 10  1  0
 10 11  1  0
 10 12  1  0
 12 13  1  0
 13 14  1  0
 14 15  1  0
 15 16  2  0
 16 17  1  0
 17 18  2  0
 18 19  1  0
 19 20  2  0
  2 21  1  0
 21 22  2  0
 22 23  1  0
 23 24  2  0
 24 25  1  0
 25 26  2  0
 26 27  1  0
 27 28  2  0
 28 29  1  0
 29 30  2  0
 12  7  1  0
 20 15  1  0
 30 21  1  0
 29 24  1  0
  3 31  1  0
  4 32  1  0
  4 33  1  0
  8 34  1  0
  8 35  1  0
  9 36  1  0
  9 37  1  0
 10 38  1  6
 11 39  1  0
 12 40  1  1
 13 41  1  0
 13 42  1  0
 16 43  1  0
 17 44  1  0
 18 45  1  0
 19 46  1  0
 20 47  1  0
 22 48  1  0
 23 49  1  0
 25 50  1  0
 26 51  1  0
 27 52  1  0
 28 53  1  0
M  END
>  <smiles>  (19) 
O=C(NCC(=O)N1CC[C@H](O)[C@H]1COc1ccccc1)c1ccc2ccccc2n1

>  <score_type>  (19) 
oracle

>  <origin>  (19) 
autodockgpu

>  <m_score__min__energy>  (19) 
-8.9299999999999997

>  <m_primary>  (19) 
energy

>  <rmsd>  (19) 
3.053369302537221

>  <m_score__min__rmsd>  (19) 
3.053369302537221

>  <meeko>  (19) 
{"free_energy": -8.41, "intermolecular_energy": -10.79, "internal_energy": -1.34, "cluster_size": 21, "cluster_id": 1, "rank_in_cluster": 8}

>  <energy>  (19) 
-6.99

>  <cluster_rmsd>  (19) 
1.82

>  <cluster>  (19) 
1

$$$$

     RDKit          3D

 53 56  0  0  0  0  0  0  0  0999 V2000
  138.4840   75.1600  221.9420 O   0  0  0  0  0  0  0  0  0  0  0  0
  139.6700   75.6340  221.8850 C   0  0  0  0  0  0  0  0  0  0  0  0
  140.7180   74.8330  221.3580 N   0  0  0  0  0  0  0  0  0  0  0  0
  140.4800   73.4660  220.8730 C   0  0  0  0  0  0  0  0  0  0  0  0
  140.1740   72.6160  222.0510 C   0  0  0  0  0  0  0  0  0  0  0  0
  141.0440   72.4950  222.9800 O   0  0  0  0  0  0  0  0  0  0  0  0
  138.9680   71.9130  222.2330 N   0  0  0  0  0  0  0  0  0  0  0  0
  138.0870   71.4510  221.1910 C   0  0  0  0  0  0  0  0  0  0  0  0
  136.7510   71.9390  221.7630 C   0  0  0  0  0  0  0  0  0  0  0  0
  136.8390   71.4140  223.1780 C   0  0  2  0  0  0  0  0  0  0  0  0
  136.1300   72.2430  224.0160 O   0  0  0  0  0  0  0  0  0  0  0  0
  138.3190   71.4820  223.4830 C   0  0  1  0  0  0  0  0  0  0  0  0
  138.9000   70.1440  223.8040 C   0  0  0  0  0  0  0  0  0  0  0  0
  140.0670   70.1120  224.5260 O   0  0  0  0  0  0  0  0  0  0  0  0
  140.3300   70.5050  225.7990 C   0  0  0  0  0  0  0  0  0  0  0  0
  139.9660   69.8880  226.9600 C   0  0  0  0  0  0  0  0  0  0  0  0
  140.2970   70.3850  228.2220 C   0  0  0  0  0  0  0  0  0  0  0  0
  141.0200   71.5430  228.3350 C   0  0  0  0  0  0  0  0  0  0  0  0
  141.4000   72.1860  227.1880 C   0  0  0  0  0  0  0  0  0  0  0  0
  141.0710   71.6910  225.9490 C   0  0  0  0  0  0  0  0  0  0  0  0
  139.9340   76.9940  222.3620 C   0  0  0  0  0  0  0  0  0  0  0  0
  138.8670   77.7950  222.7260 C   0  0  0  0  0  0  0  0  0  0  0  0
  139.0500   79.0940  223.1860 C   0  0  0  0  0  0  0  0  0  0  0  0
  140.3360   79.5870  223.2800 C   0  0  0  0  0  0  0  0  0  0  0  0
  140.5820   80.8690  223.7300 C   0  0  0  0  0  0  0  0  0  0  0  0
  141.8750   81.3530  223.8200 C   0  0  0  0  0  0  0  0  0  0  0  0
  142.9400   80.5450  223.4530 C   0  0  0  0  0  0  0  0  0  0  0  0
  142.6730   79.2660  223.0060 C   0  0  0  0  0  0  0  0  0  0  0  0
  141.3880   78.7710  222.9120 C   0  0  0  0  0  0  0  0  0  0  0  0
  141.1530   77.5040  222.4660 N   0  0  0  0  0  0  0  0  0  0  0  0
  141.6710   75.2690  221.3340 H   0  0  0  0  0  0  0  0  0  0  0  0
  139.6299   73.4589  220.1749 H   0  0  0  0  0  0  0  0  0  0  0  0
  141.3657   73.0856  220.3431 H   0  0  0  0  0  0  0  0  0  0  0  0
  138.3151   71.9190  220.2220 H   0  0  0  0  0  0  0  0  0  0  0  0
  138.1402   70.3741  220.9730 H   0  0  0  0  0  0  0  0  0  0  0  0
  136.6786   73.0364  221.7423 H   0  0  0  0  0  0  0  0  0  0  0  0
  135.8658   71.5988  221.2056 H   0  0  0  0  0  0  0  0  0  0  0  0
  136.4272   70.4020  223.3053 H   0  0  0  0  0  0  0  0  0  0  0  0
  136.6500   73.0370  224.2990 H   0  0  0  0  0  0  0  0  0  0  0  0
  138.4723   72.1497  224.3436 H   0  0  0  0  0  0  0  0  0  0  0  0
  138.1441   69.5863  224.3764 H   0  0  0  0  0  0  0  0  0  0  0  0
  139.1656   69.7144  222.8268 H   0  0  0  0  0  0  0  0  0  0  0  0
  139.3849   68.9560  226.8990 H   0  0  0  0  0  0  0  0  0  0  0  0
  139.9770   69.8464  229.1261 H   0  0  0  0  0  0  0  0  0  0  0  0
  141.2885   71.9460  229.3227 H   0  0  0  0  0  0  0  0  0  0  0  0
  141.9804   73.1177  227.2594 H   0  0  0  0  0  0  0  0  0  0  0  0
  141.3957   72.2367  225.0508 H   0  0  0  0  0  0  0  0  0  0  0  0
  137.8458   77.3933  222.6494 H   0  0  0  0  0  0  0  0  0  0  0  0
  138.1881   79.7160  223.4692 H   0  0  0  0  0  0  0  0  0  0  0  0
  139.7394   81.5136  224.0206 H   0  0  0  0  0  0  0  0  0  0  0  0
  142.0574   82.3757  224.1816 H   0  0  0  0  0  0  0  0  0  0  0  0
  143.9742   80.9143  223.5164 H   0  0  0  0  0  0  0  0  0  0  0  0
  143.5137   78.6192  222.7147 H   0  0  0  0  0  0  0  0  0  0  0  0
  1  2  2  0
  2  3  1  0
  3  4  1  0
  4  5  1  0
  5  6  2  0
  5  7  1  0
  7  8  1  0
  8  9  1  0
  9 10  1  0
 10 11  1  0
 10 12  1  0
 12 13  1  0
 13 14  1  0
 14 15  1  0
 15 16  2  0
 16 17  1  0
 17 18  2  0
 18 19  1  0
 19 20  2  0
  2 21  1  0
 21 22  2  0
 22 23  1  0
 23 24  2  0
 24 25  1  0
 25 26  2  0
 26 27  1  0
 27 28  2  0
 28 29  1  0
 29 30  2  0
 12  7  1  0
 20 15  1  0
 30 21  1  0
 29 24  1  0
  3 31  1  0
  4 32  1  0
  4 33  1  0
  8 34  1  0
  8 35  1  0
  9 36  1  0
  9 37  1  0
 10 38  1  6
 11 39  1  0
 12 40  1  1
 13 41  1  0
 13 42  1  0
 16 43  1  0
 17 44  1  0
 18 45  1  0
 19 46  1  0
 20 47  1  0
 22 48  1  0
 23 49  1  0
 25 50  1  0
 26 51  1  0
 27 52  1  0
 28 53  1  0
M  END
>  <smiles>  (20) 
O=C(NCC(=O)N1CC[C@H](O)[C@H]1COc1ccccc1)c1ccc2ccccc2n1

>  <score_type>  (20) 
oracle

>  <origin>  (20) 
autodockgpu

>  <m_score__min__energy>  (20) 
-8.9299999999999997

>  <m_primary>  (20) 
energy

>  <rmsd>  (20) 
8.179651607579379

>  <m_score__min__rmsd>  (20) 
8.179651607579379

>  <meeko>  (20) 
{"free_energy": -8.53, "intermolecular_energy": -10.91, "internal_energy": -1.8, "cluster_size": 10, "cluster_id": 2, "rank_in_cluster": 1}

>  <energy>  (20) 
-6.98

>  <cluster_rmsd>  (20) 
1.82

>  <cluster>  (20) 
1

$$$$

     RDKit          3D

 53 56  0  0  0  0  0  0  0  0999 V2000
  140.2690   70.9980  221.3290 O   0  0  0  0  0  0  0  0  0  0  0  0
  140.0170   71.6210  222.4160 C   0  0  0  0  0  0  0  0  0  0  0  0
  139.7730   73.0200  222.3780 N   0  0  0  0  0  0  0  0  0  0  0  0
  139.8030   73.7780  221.1200 C   0  0  0  0  0  0  0  0  0  0  0  0
  139.7570   75.2220  221.4610 C   0  0  0  0  0  0  0  0  0  0  0  0
  139.5820   75.5740  222.6780 O   0  0  0  0  0  0  0  0  0  0  0  0
  139.8940   76.2650  220.5270 N   0  0  0  0  0  0  0  0  0  0  0  0
  138.8740   77.2100  220.1490 C   0  0  0  0  0  0  0  0  0  0  0  0
  139.0220   77.1390  218.6250 C   0  0  0  0  0  0  0  0  0  0  0  0
  140.5170   77.3080  218.4770 C   0  0  2  0  0  0  0  0  0  0  0  0
  140.9410   76.6470  217.3480 O   0  0  0  0  0  0  0  0  0  0  0  0
  141.0670   76.6480  219.7230 C   0  0  1  0  0  0  0  0  0  0  0  0
  141.8520   77.5930  220.5720 C   0  0  0  0  0  0  0  0  0  0  0  0
  141.2880   78.0100  221.7520 O   0  0  0  0  0  0  0  0  0  0  0  0
  141.5360   79.1080  222.5120 C   0  0  0  0  0  0  0  0  0  0  0  0
  140.6320   79.9510  223.0890 C   0  0  0  0  0  0  0  0  0  0  0  0
  141.0060   81.0550  223.8590 C   0  0  0  0  0  0  0  0  0  0  0  0
  142.3300   81.3330  224.0610 C   0  0  0  0  0  0  0  0  0  0  0  0
  143.2620   80.5070  223.4940 C   0  0  0  0  0  0  0  0  0  0  0  0
  142.8890   79.4210  222.7390 C   0  0  0  0  0  0  0  0  0  0  0  0
  139.9810   70.8880  223.6850 C   0  0  0  0  0  0  0  0  0  0  0  0
  139.3550   69.6560  223.7290 C   0  0  0  0  0  0  0  0  0  0  0  0
  139.2860   68.9110  224.9000 C   0  0  0  0  0  0  0  0  0  0  0  0
  139.8640   69.4240  226.0450 C   0  0  0  0  0  0  0  0  0  0  0  0
  139.8280   68.7310  227.2390 C   0  0  0  0  0  0  0  0  0  0  0  0
  140.4110   69.2550  228.3790 C   0  0  0  0  0  0  0  0  0  0  0  0
  141.0370   70.4910  228.3280 C   0  0  0  0  0  0  0  0  0  0  0  0
  141.0610   71.1680  227.1250 C   0  0  0  0  0  0  0  0  0  0  0  0
  140.4850   70.6560  225.9800 C   0  0  0  0  0  0  0  0  0  0  0  0
  140.5230   71.3460  224.8040 N   0  0  0  0  0  0  0  0  0  0  0  0
  139.5720   73.4830  223.2970 H   0  0  0  0  0  0  0  0  0  0  0  0
  140.7279   73.5526  220.5689 H   0  0  0  0  0  0  0  0  0  0  0  0
  138.9469   73.5049  220.4855 H   0  0  0  0  0  0  0  0  0  0  0  0
  137.8748   76.8908  220.4803 H   0  0  0  0  0  0  0  0  0  0  0  0
  138.9792   78.2144  220.5850 H   0  0  0  0  0  0  0  0  0  0  0  0
  138.6832   76.1698  218.2301 H   0  0  0  0  0  0  0  0  0  0  0  0
  138.4234   77.8796  218.0745 H   0  0  0  0  0  0  0  0  0  0  0  0
  140.8398   78.3546  218.3750 H   0  0  0  0  0  0  0  0  0  0  0  0
  140.2400   76.0650  216.9590 H   0  0  0  0  0  0  0  0  0  0  0  0
  141.7200   75.8151  219.4232 H   0  0  0  0  0  0  0  0  0  0  0  0
  142.8036   77.0996  220.8191 H   0  0  0  0  0  0  0  0  0  0  0  0
  141.9360   78.5070  219.9658 H   0  0  0  0  0  0  0  0  0  0  0  0
  139.5602   79.7525  222.9413 H   0  0  0  0  0  0  0  0  0  0  0  0
  140.2349   81.7015  224.3033 H   0  0  0  0  0  0  0  0  0  0  0  0
  142.6380   82.1995  224.6646 H   0  0  0  0  0  0  0  0  0  0  0  0
  144.3312   80.7165  223.6456 H   0  0  0  0  0  0  0  0  0  0  0  0
  143.6681   78.7799  222.3009 H   0  0  0  0  0  0  0  0  0  0  0  0
  138.8991   69.2546  222.8119 H   0  0  0  0  0  0  0  0  0  0  0  0
  138.7818   67.9335  224.9149 H   0  0  0  0  0  0  0  0  0  0  0  0
  139.3301   67.7512  227.2842 H   0  0  0  0  0  0  0  0  0  0  0  0
  140.3779   68.6923  229.3236 H   0  0  0  0  0  0  0  0  0  0  0  0
  141.5040   70.9225  229.2257 H   0  0  0  0  0  0  0  0  0  0  0  0
  141.5562   72.1491  227.0774 H   0  0  0  0  0  0  0  0  0  0  0  0
  1  2  2  0
  2  3  1  0
  3  4  1  0
  4  5  1  0
  5  6  2  0
  5  7  1  0
  7  8  1  0
  8  9  1  0
  9 10  1  0
 10 11  1  0
 10 12  1  0
 12 13  1  0
 13 14  1  0
 14 15  1  0
 15 16  2  0
 16 17  1  0
 17 18  2  0
 18 19  1  0
 19 20  2  0
  2 21  1  0
 21 22  2  0
 22 23  1  0
 23 24  2  0
 24 25  1  0
 25 26  2  0
 26 27  1  0
 27 28  2  0
 28 29  1  0
 29 30  2  0
 12  7  1  0
 20 15  1  0
 30 21  1  0
 29 24  1  0
  3 31  1  0
  4 32  1  0
  4 33  1  0
  8 34  1  0
  8 35  1  0
  9 36  1  0
  9 37  1  0
 10 38  1  6
 11 39  1  0
 12 40  1  6
 13 41  1  0
 13 42  1  0
 16 43  1  0
 17 44  1  0
 18 45  1  0
 19 46  1  0
 20 47  1  0
 22 48  1  0
 23 49  1  0
 25 50  1  0
 26 51  1  0
 27 52  1  0
 28 53  1  0
M  END
>  <smiles>  (21) 
O=C(NCC(=O)N1CC[C@H](O)[C@H]1COc1ccccc1)c1ccc2ccccc2n1

>  <score_type>  (21) 
oracle

>  <origin>  (21) 
autodockgpu

>  <m_score__min__energy>  (21) 
-8.9299999999999997

>  <m_primary>  (21) 
energy

>  <rmsd>  (21) 
1.7505694753534933

>  <m_score__min__rmsd>  (21) 
1.7505694753534933

>  <meeko>  (21) 
{"free_energy": -7.82, "intermolecular_energy": -10.21, "internal_energy": -1.95, "cluster_size": 21, "cluster_id": 1, "rank_in_cluster": 13}

>  <energy>  (21) 
-6.84

>  <cluster_rmsd>  (21) 
1.67

>  <cluster>  (21) 
1

$$$$

     RDKit          3D

 53 56  0  0  0  0  0  0  0  0999 V2000
  139.6190   74.4640  222.3110 O   0  0  0  0  0  0  0  0  0  0  0  0
  140.2180   75.3600  221.6230 C   0  0  0  0  0  0  0  0  0  0  0  0
  140.7990   75.0100  220.3750 N   0  0  0  0  0  0  0  0  0  0  0  0
  140.7330   73.6400  219.8470 C   0  0  0  0  0  0  0  0  0  0  0  0
  141.9150   72.9010  220.3590 C   0  0  0  0  0  0  0  0  0  0  0  0
  141.7520   71.9950  221.2460 O   0  0  0  0  0  0  0  0  0  0  0  0
  143.2380   73.1250  219.9350 N   0  0  0  0  0  0  0  0  0  0  0  0
  143.8420   72.6220  218.7280 C   0  0  0  0  0  0  0  0  0  0  0  0
  145.1550   72.0880  219.3110 C   0  0  0  0  0  0  0  0  0  0  0  0
  145.6080   73.2780  220.1270 C   0  0  2  0  0  0  0  0  0  0  0  0
  146.3470   72.8390  221.2010 O   0  0  0  0  0  0  0  0  0  0  0  0
  144.3080   73.8990  220.5880 C   0  0  1  0  0  0  0  0  0  0  0  0
  144.1440   75.3040  220.1100 C   0  0  0  0  0  0  0  0  0  0  0  0
  143.2740   75.5270  219.0710 O   0  0  0  0  0  0  0  0  0  0  0  0
  142.9250   76.6780  218.4420 C   0  0  0  0  0  0  0  0  0  0  0  0
  142.9280   76.9360  217.1020 C   0  0  0  0  0  0  0  0  0  0  0  0
  142.5430   78.1660  216.5640 C   0  0  0  0  0  0  0  0  0  0  0  0
  142.1410   79.1810  217.3900 C   0  0  0  0  0  0  0  0  0  0  0  0
  142.1290   78.9540  218.7390 C   0  0  0  0  0  0  0  0  0  0  0  0
  142.5070   77.7420  219.2630 C   0  0  0  0  0  0  0  0  0  0  0  0
  140.2980   76.7340  222.1270 C   0  0  0  0  0  0  0  0  0  0  0  0
  139.1370   77.3670  222.5310 C   0  0  0  0  0  0  0  0  0  0  0  0
  139.1450   78.6690  223.0180 C   0  0  0  0  0  0  0  0  0  0  0  0
  140.3500   79.3370  223.0990 C   0  0  0  0  0  0  0  0  0  0  0  0
  140.4220   80.6320  223.5750 C   0  0  0  0  0  0  0  0  0  0  0  0
  141.6350   81.2920  223.6520 C   0  0  0  0  0  0  0  0  0  0  0  0
  142.7960   80.6510  223.2460 C   0  0  0  0  0  0  0  0  0  0  0  0
  142.7020   79.3570  222.7730 C   0  0  0  0  0  0  0  0  0  0  0  0
  141.4980   78.6870  222.6920 C   0  0  0  0  0  0  0  0  0  0  0  0
  141.4340   77.4090  222.2200 N   0  0  0  0  0  0  0  0  0  0  0  0
  141.2790   75.7800  219.8510 H   0  0  0  0  0  0  0  0  0  0  0  0
  139.8087   73.1510  220.1886 H   0  0  0  0  0  0  0  0  0  0  0  0
  140.7324   73.6508  218.7471 H   0  0  0  0  0  0  0  0  0  0  0  0
  143.2408   71.8230  218.2696 H   0  0  0  0  0  0  0  0  0  0  0  0
  143.9525   73.3564  217.9166 H   0  0  0  0  0  0  0  0  0  0  0  0
  144.9870   71.2039  219.9435 H   0  0  0  0  0  0  0  0  0  0  0  0
  145.8823   71.7484  218.5588 H   0  0  0  0  0  0  0  0  0  0  0  0
  146.2407   73.9858  219.5714 H   0  0  0  0  0  0  0  0  0  0  0  0
  145.9880   72.0050  221.5970 H   0  0  0  0  0  0  0  0  0  0  0  0
  144.2840   73.8938  221.6877 H   0  0  0  0  0  0  0  0  0  0  0  0
  143.7961   75.9032  220.9643 H   0  0  0  0  0  0  0  0  0  0  0  0
  145.1312   75.5788  219.7101 H   0  0  0  0  0  0  0  0  0  0  0  0
  143.2481   76.1392  216.4145 H   0  0  0  0  0  0  0  0  0  0  0  0
  142.5628   78.3194  215.4749 H   0  0  0  0  0  0  0  0  0  0  0  0
  141.8353   80.1546  216.9793 H   0  0  0  0  0  0  0  0  0  0  0  0
  141.8101   79.7586  219.4179 H   0  0  0  0  0  0  0  0  0  0  0  0
  142.4824   77.5991  220.3534 H   0  0  0  0  0  0  0  0  0  0  0  0
  138.1815   76.8259  222.4653 H   0  0  0  0  0  0  0  0  0  0  0  0
  138.2104   79.1567  223.3323 H   0  0  0  0  0  0  0  0  0  0  0  0
  139.5033   81.1444  223.8967 H   0  0  0  0  0  0  0  0  0  0  0  0
  141.6788   82.3225  224.0342 H   0  0  0  0  0  0  0  0  0  0  0  0
  143.7689   81.1614  223.2995 H   0  0  0  0  0  0  0  0  0  0  0  0
  143.6187   78.8422  222.4495 H   0  0  0  0  0  0  0  0  0  0  0  0
  1  2  2  0
  2  3  1  0
  3  4  1  0
  4  5  1  0
  5  6  2  0
  5  7  1  0
  7  8  1  0
  8  9  1  0
  9 10  1  0
 10 11  1  0
 10 12  1  0
 12 13  1  0
 13 14  1  0
 14 15  1  0
 15 16  2  0
 16 17  1  0
 17 18  2  0
 18 19  1  0
 19 20  2  0
  2 21  1  0
 21 22  2  0
 22 23  1  0
 23 24  2  0
 24 25  1  0
 25 26  2  0
 26 27  1  0
 27 28  2  0
 28 29  1  0
 29 30  2  0
 12  7  1  0
 20 15  1  0
 30 21  1  0
 29 24  1  0
  3 31  1  0
  4 32  1  0
  4 33  1  0
  8 34  1  0
  8 35  1  0
  9 36  1  0
  9 37  1  0
 10 38  1  6
 11 39  1  0
 12 40  1  1
 13 41  1  0
 13 42  1  0
 16 43  1  0
 17 44  1  0
 18 45  1  0
 19 46  1  0
 20 47  1  0
 22 48  1  0
 23 49  1  0
 25 50  1  0
 26 51  1  0
 27 52  1  0
 28 53  1  0
M  END
>  <smiles>  (22) 
O=C(NCC(=O)N1CC[C@H](O)[C@H]1COc1ccccc1)c1ccc2ccccc2n1

>  <score_type>  (22) 
oracle

>  <origin>  (22) 
autodockgpu

>  <m_score__min__energy>  (22) 
-8.9299999999999997

>  <m_primary>  (22) 
energy

>  <rmsd>  (22) 
7.515359679811027

>  <m_score__min__rmsd>  (22) 
7.515359679811027

>  <meeko>  (22) 
{"free_energy": -7.26, "intermolecular_energy": -9.65, "internal_energy": -3.03, "cluster_size": 12, "cluster_id": 6, "rank_in_cluster": 3}

>  <energy>  (22) 
-8.53

>  <cluster_rmsd>  (22) 
0.0

>  <cluster>  (22) 
2

$$$$

     RDKit          3D

 53 56  0  0  0  0  0  0  0  0999 V2000
  141.1080   74.5050  221.3040 O   0  0  0  0  0  0  0  0  0  0  0  0
  140.1120   74.9510  221.9700 C   0  0  0  0  0  0  0  0  0  0  0  0
  139.0660   74.0640  222.3390 N   0  0  0  0  0  0  0  0  0  0  0  0
  139.0920   72.6400  221.9760 C   0  0  0  0  0  0  0  0  0  0  0  0
  137.8630   72.0120  222.5230 C   0  0  0  0  0  0  0  0  0  0  0  0
  136.9550   72.7520  223.0340 O   0  0  0  0  0  0  0  0  0  0  0  0
  137.6110   70.6270  222.5240 N   0  0  0  0  0  0  0  0  0  0  0  0
  137.5090   69.7790  221.3640 C   0  0  0  0  0  0  0  0  0  0  0  0
  136.2240   69.0240  221.7210 C   0  0  0  0  0  0  0  0  0  0  0  0
  136.5320   68.5940  223.1370 C   0  0  2  0  0  0  0  0  0  0  0  0
  135.3590   68.5020  223.8510 O   0  0  0  0  0  0  0  0  0  0  0  0
  137.3930   69.7210  223.6640 C   0  0  1  0  0  0  0  0  0  0  0  0
  138.7500   69.2570  224.0810 C   0  0  0  0  0  0  0  0  0  0  0  0
  139.6840   70.2140  224.3930 O   0  0  0  0  0  0  0  0  0  0  0  0
  140.0870   70.6970  225.5960 C   0  0  0  0  0  0  0  0  0  0  0  0
  140.7660   71.8530  225.8520 C   0  0  0  0  0  0  0  0  0  0  0  0
  141.1270   72.2530  227.1390 C   0  0  0  0  0  0  0  0  0  0  0  0
  140.8030   71.4740  228.2170 C   0  0  0  0  0  0  0  0  0  0  0  0
  140.1220   70.3070  227.9930 C   0  0  0  0  0  0  0  0  0  0  0  0
  139.7680   69.9190  226.7240 C   0  0  0  0  0  0  0  0  0  0  0  0
  140.0620   76.3670  222.3450 C   0  0  0  0  0  0  0  0  0  0  0  0
  138.8350   77.0030  222.3950 C   0  0  0  0  0  0  0  0  0  0  0  0
  138.7190   78.3430  222.7440 C   0  0  0  0  0  0  0  0  0  0  0  0
  139.8660   79.0490  223.0480 C   0  0  0  0  0  0  0  0  0  0  0  0
  139.8150   80.3830  223.4020 C   0  0  0  0  0  0  0  0  0  0  0  0
  140.9710   81.0800  223.7060 C   0  0  0  0  0  0  0  0  0  0  0  0
  142.1980   80.4360  223.6540 C   0  0  0  0  0  0  0  0  0  0  0  0
  142.2270   79.1020  223.2980 C   0  0  0  0  0  0  0  0  0  0  0  0
  141.0810   78.3960  222.9940 C   0  0  0  0  0  0  0  0  0  0  0  0
  141.1390   77.0780  222.6450 N   0  0  0  0  0  0  0  0  0  0  0  0
  138.2720   74.4800  222.8840 H   0  0  0  0  0  0  0  0  0  0  0  0
  139.1121   72.5328  220.8814 H   0  0  0  0  0  0  0  0  0  0  0  0
  139.9888   72.1539  222.3876 H   0  0  0  0  0  0  0  0  0  0  0  0
  137.3997   70.3614  220.4373 H   0  0  0  0  0  0  0  0  0  0  0  0
  138.3865   69.1460  221.1659 H   0  0  0  0  0  0  0  0  0  0  0  0
  135.3434   69.6819  221.6802 H   0  0  0  0  0  0  0  0  0  0  0  0
  135.9764   68.1981  221.0379 H   0  0  0  0  0  0  0  0  0  0  0  0
  137.0276   67.6145  223.2079 H   0  0  0  0  0  0  0  0  0  0  0  0
  134.9010   69.3740  223.9480 H   0  0  0  0  0  0  0  0  0  0  0  0
  136.8913   70.1740  224.5318 H   0  0  0  0  0  0  0  0  0  0  0  0
  138.6212   68.6216  224.9697 H   0  0  0  0  0  0  0  0  0  0  0  0
  139.1561   68.7515  223.1924 H   0  0  0  0  0  0  0  0  0  0  0  0
  141.0412   72.4987  225.0051 H   0  0  0  0  0  0  0  0  0  0  0  0
  141.6731   73.1962  227.2877 H   0  0  0  0  0  0  0  0  0  0  0  0
  141.0823   71.7774  229.2367 H   0  0  0  0  0  0  0  0  0  0  0  0
  139.8531   69.6676  228.8467 H   0  0  0  0  0  0  0  0  0  0  0  0
  139.2206   68.9749  226.5859 H   0  0  0  0  0  0  0  0  0  0  0  0
  137.9263   76.4327  222.1519 H   0  0  0  0  0  0  0  0  0  0  0  0
  137.7338   78.8312  222.7774 H   0  0  0  0  0  0  0  0  0  0  0  0
  138.8436   80.8976  223.4427 H   0  0  0  0  0  0  0  0  0  0  0  0
  140.9168   82.1418  223.9881 H   0  0  0  0  0  0  0  0  0  0  0  0
  143.1269   80.9754  223.8909 H   0  0  0  0  0  0  0  0  0  0  0  0
  143.1968   78.5845  223.2553 H   0  0  0  0  0  0  0  0  0  0  0  0
  1  2  2  0
  2  3  1  0
  3  4  1  0
  4  5  1  0
  5  6  2  0
  5  7  1  0
  7  8  1  0
  8  9  1  0
  9 10  1  0
 10 11  1  0
 10 12  1  0
 12 13  1  0
 13 14  1  0
 14 15  1  0
 15 16  2  0
 16 17  1  0
 17 18  2  0
 18 19  1  0
 19 20  2  0
  2 21  1  0
 21 22  2  0
 22 23  1  0
 23 24  2  0
 24 25  1  0
 25 26  2  0
 26 27  1  0
 27 28  2  0
 28 29  1  0
 29 30  2  0
 12  7  1  0
 20 15  1  0
 30 21  1  0
 29 24  1  0
  3 31  1  0
  4 32  1  0
  4 33  1  0
  8 34  1  0
  8 35  1  0
  9 36  1  0
  9 37  1  0
 10 38  1  6
 11 39  1  0
 12 40  1  1
 13 41  1  0
 13 42  1  0
 16 43  1  0
 17 44  1  0
 18 45  1  0
 19 46  1  0
 20 47  1  0
 22 48  1  0
 23 49  1  0
 25 50  1  0
 26 51  1  0
 27 52  1  0
 28 53  1  0
M  END
>  <smiles>  (23) 
O=C(NCC(=O)N1CC[C@H](O)[C@H]1COc1ccccc1)c1ccc2ccccc2n1

>  <score_type>  (23) 
oracle

>  <origin>  (23) 
autodockgpu

>  <m_score__min__energy>  (23) 
-8.9299999999999997

>  <m_primary>  (23) 
energy

>  <rmsd>  (23) 
8.514906077790142

>  <m_score__min__rmsd>  (23) 
8.514906077790142

>  <meeko>  (23) 
{"free_energy": -7.89, "intermolecular_energy": -10.28, "internal_energy": -2.0, "cluster_size": 10, "cluster_id": 2, "rank_in_cluster": 4}

>  <energy>  (23) 
-7.92

>  <cluster_rmsd>  (23) 
1.1

>  <cluster>  (23) 
2

$$$$

     RDKit          3D

 53 56  0  0  0  0  0  0  0  0999 V2000
  139.7320   70.6960  221.1020 O   0  0  0  0  0  0  0  0  0  0  0  0
  140.1450   71.5040  222.0020 C   0  0  0  0  0  0  0  0  0  0  0  0
  140.5890   72.8000  221.6270 N   0  0  0  0  0  0  0  0  0  0  0  0
  140.5900   73.2430  220.2260 C   0  0  0  0  0  0  0  0  0  0  0  0
  141.9530   73.7430  219.9120 C   0  0  0  0  0  0  0  0  0  0  0  0
  142.1150   74.9750  219.6100 O   0  0  0  0  0  0  0  0  0  0  0  0
  143.1130   72.9470  219.9190 N   0  0  0  0  0  0  0  0  0  0  0  0
  143.6610   72.2500  221.0550 C   0  0  0  0  0  0  0  0  0  0  0  0
  145.1290   72.6680  220.9170 C   0  0  0  0  0  0  0  0  0  0  0  0
  145.3760   72.3620  219.4570 C   0  0  2  0  0  0  0  0  0  0  0  0
  146.3330   73.2200  218.9670 O   0  0  0  0  0  0  0  0  0  0  0  0
  144.0340   72.6310  218.8130 C   0  0  1  0  0  0  0  0  0  0  0  0
  143.4680   71.4230  218.1440 C   0  0  0  0  0  0  0  0  0  0  0  0
  143.3360   70.2800  218.8940 O   0  0  0  0  0  0  0  0  0  0  0  0
  144.1590   69.2080  219.0240 C   0  0  0  0  0  0  0  0  0  0  0  0
  145.5230   69.1910  219.0170 C   0  0  0  0  0  0  0  0  0  0  0  0
  146.2700   68.0200  219.1620 C   0  0  0  0  0  0  0  0  0  0  0  0
  145.6360   66.8180  219.3210 C   0  0  0  0  0  0  0  0  0  0  0  0
  144.2670   66.8010  219.3310 C   0  0  0  0  0  0  0  0  0  0  0  0
  143.5380   67.9560  219.1880 C   0  0  0  0  0  0  0  0  0  0  0  0
  140.1540   71.0860  223.4070 C   0  0  0  0  0  0  0  0  0  0  0  0
  139.5850   69.8730  223.7480 C   0  0  0  0  0  0  0  0  0  0  0  0
  139.5610   69.4200  225.0620 C   0  0  0  0  0  0  0  0  0  0  0  0
  140.1250   70.2090  226.0440 C   0  0  0  0  0  0  0  0  0  0  0  0
  140.1320   69.8130  227.3670 C   0  0  0  0  0  0  0  0  0  0  0  0
  140.7000   70.6120  228.3430 C   0  0  0  0  0  0  0  0  0  0  0  0
  141.2690   71.8280  227.9940 C   0  0  0  0  0  0  0  0  0  0  0  0
  141.2510   72.2060  226.6660 C   0  0  0  0  0  0  0  0  0  0  0  0
  140.6880   71.4170  225.6830 C   0  0  0  0  0  0  0  0  0  0  0  0
  140.6840   71.8150  224.3780 N   0  0  0  0  0  0  0  0  0  0  0  0
  140.9180   73.4230  222.4030 H   0  0  0  0  0  0  0  0  0  0  0  0
  140.3390   72.3995  219.5661 H   0  0  0  0  0  0  0  0  0  0  0  0
  139.8435   74.0361  220.0719 H   0  0  0  0  0  0  0  0  0  0  0  0
  143.2217   72.5974  222.0017 H   0  0  0  0  0  0  0  0  0  0  0  0
  143.4806   71.1650  221.0729 H   0  0  0  0  0  0  0  0  0  0  0  0
  145.2675   73.7372  221.1354 H   0  0  0  0  0  0  0  0  0  0  0  0
  145.8141   72.1588  221.6108 H   0  0  0  0  0  0  0  0  0  0  0  0
  145.7372   71.3400  219.2701 H   0  0  0  0  0  0  0  0  0  0  0  0
  145.9950   74.1430  218.8490 H   0  0  0  0  0  0  0  0  0  0  0  0
  144.1546   73.4268  218.0633 H   0  0  0  0  0  0  0  0  0  0  0  0
  142.4671   71.6908  217.7747 H   0  0  0  0  0  0  0  0  0  0  0  0
  144.2049   71.1635  217.3697 H   0  0  0  0  0  0  0  0  0  0  0  0
  146.0591   70.1433  218.8914 H   0  0  0  0  0  0  0  0  0  0  0  0
  147.3690   68.0640  219.1484 H   0  0  0  0  0  0  0  0  0  0  0  0
  146.2120   65.8882  219.4379 H   0  0  0  0  0  0  0  0  0  0  0  0
  143.7406   65.8432  219.4560 H   0  0  0  0  0  0  0  0  0  0  0  0
  142.4395   67.9010  219.2020 H   0  0  0  0  0  0  0  0  0  0  0  0
  139.1395   69.2498  222.9586 H   0  0  0  0  0  0  0  0  0  0  0  0
  139.1020   68.4526  225.3139 H   0  0  0  0  0  0  0  0  0  0  0  0
  139.6803   68.8503  227.6482 H   0  0  0  0  0  0  0  0  0  0  0  0
  140.7004   70.2840  229.3930 H   0  0  0  0  0  0  0  0  0  0  0  0
  141.7240   72.4762  228.7575 H   0  0  0  0  0  0  0  0  0  0  0  0
  141.7007   73.1688  226.3816 H   0  0  0  0  0  0  0  0  0  0  0  0
  1  2  2  0
  2  3  1  0
  3  4  1  0
  4  5  1  0
  5  6  2  0
  5  7  1  0
  7  8  1  0
  8  9  1  0
  9 10  1  0
 10 11  1  0
 10 12  1  0
 12 13  1  0
 13 14  1  0
 14 15  1  0
 15 16  2  0
 16 17  1  0
 17 18  2  0
 18 19  1  0
 19 20  2  0
  2 21  1  0
 21 22  2  0
 22 23  1  0
 23 24  2  0
 24 25  1  0
 25 26  2  0
 26 27  1  0
 27 28  2  0
 28 29  1  0
 29 30  2  0
 12  7  1  0
 20 15  1  0
 30 21  1  0
 29 24  1  0
  3 31  1  0
  4 32  1  0
  4 33  1  0
  8 34  1  0
  8 35  1  0
  9 36  1  0
  9 37  1  0
 10 38  1  1
 11 39  1  0
 12 40  1  6
 13 41  1  0
 13 42  1  0
 16 43  1  0
 17 44  1  0
 18 45  1  0
 19 46  1  0
 20 47  1  0
 22 48  1  0
 23 49  1  0
 25 50  1  0
 26 51  1  0
 27 52  1  0
 28 53  1  0
M  END
>  <smiles>  (24) 
O=C(NCC(=O)N1CC[C@H](O)[C@H]1COc1ccccc1)c1ccc2ccccc2n1

>  <score_type>  (24) 
oracle

>  <origin>  (24) 
autodockgpu

>  <m_score__min__energy>  (24) 
-8.9299999999999997

>  <m_primary>  (24) 
energy

>  <rmsd>  (24) 
3.865781168894807

>  <m_score__min__rmsd>  (24) 
3.865781168894807

>  <meeko>  (24) 
{"free_energy": -7.72, "intermolecular_energy": -10.11, "internal_energy": -1.82, "cluster_size": 1, "cluster_id": 5, "rank_in_cluster": 1}

>  <energy>  (24) 
-7.9

>  <cluster_rmsd>  (24) 
1.82

>  <cluster>  (24) 
2

$$$$

     RDKit          3D

 53 56  0  0  0  0  0  0  0  0999 V2000
  139.3510   74.3390  222.3450 O   0  0  0  0  0  0  0  0  0  0  0  0
  140.2130   75.1290  221.8290 C   0  0  0  0  0  0  0  0  0  0  0  0
  141.1260   74.6300  220.8630 N   0  0  0  0  0  0  0  0  0  0  0  0
  141.1100   73.2240  220.4350 C   0  0  0  0  0  0  0  0  0  0  0  0
  142.1200   73.0690  219.3570 C   0  0  0  0  0  0  0  0  0  0  0  0
  141.7510   72.6440  218.2090 O   0  0  0  0  0  0  0  0  0  0  0  0
  143.4890   73.3610  219.5010 N   0  0  0  0  0  0  0  0  0  0  0  0
  144.5470   72.9410  218.6170 C   0  0  0  0  0  0  0  0  0  0  0  0
  145.5480   72.4250  219.6570 C   0  0  0  0  0  0  0  0  0  0  0  0
  145.5780   73.5870  220.6230 C   0  0  2  0  0  0  0  0  0  0  0  0
  145.8540   73.1210  221.8880 O   0  0  0  0  0  0  0  0  0  0  0  0
  144.1710   74.1380  220.5490 C   0  0  1  0  0  0  0  0  0  0  0  0
  144.1360   75.5590  220.0910 C   0  0  0  0  0  0  0  0  0  0  0  0
  142.9830   76.0100  219.4990 O   0  0  0  0  0  0  0  0  0  0  0  0
  142.7010   77.1960  218.9010 C   0  0  0  0  0  0  0  0  0  0  0  0
  142.9000   77.5470  217.5980 C   0  0  0  0  0  0  0  0  0  0  0  0
  142.5670   78.8040  217.0890 C   0  0  0  0  0  0  0  0  0  0  0  0
  142.0150   79.7510  217.9090 C   0  0  0  0  0  0  0  0  0  0  0  0
  141.8030   79.4300  219.2230 C   0  0  0  0  0  0  0  0  0  0  0  0
  142.1330   78.1910  219.7170 C   0  0  0  0  0  0  0  0  0  0  0  0
  140.2500   76.5350  222.2390 C   0  0  0  0  0  0  0  0  0  0  0  0
  139.0580   77.2220  222.3830 C   0  0  0  0  0  0  0  0  0  0  0  0
  139.0250   78.5570  222.7680 C   0  0  0  0  0  0  0  0  0  0  0  0
  140.2200   79.2050  223.0140 C   0  0  0  0  0  0  0  0  0  0  0  0
  140.2510   80.5300  223.4000 C   0  0  0  0  0  0  0  0  0  0  0  0
  141.4540   81.1690  223.6440 C   0  0  0  0  0  0  0  0  0  0  0  0
  142.6450   80.4740  223.4980 C   0  0  0  0  0  0  0  0  0  0  0  0
  142.5920   79.1500  223.1110 C   0  0  0  0  0  0  0  0  0  0  0  0
  141.3990   78.5010  222.8650 C   0  0  0  0  0  0  0  0  0  0  0  0
  141.3750   77.1920  222.4840 N   0  0  0  0  0  0  0  0  0  0  0  0
  141.8140   75.3180  220.4710 H   0  0  0  0  0  0  0  0  0  0  0  0
  141.3640   72.5712  221.2831 H   0  0  0  0  0  0  0  0  0  0  0  0
  140.1109   72.9435  220.0703 H   0  0  0  0  0  0  0  0  0  0  0  0
  144.2189   72.1454  217.9319 H   0  0  0  0  0  0  0  0  0  0  0  0
  144.9308   73.7185  217.9402 H   0  0  0  0  0  0  0  0  0  0  0  0
  145.1898   71.5048  220.1418 H   0  0  0  0  0  0  0  0  0  0  0  0
  146.5303   72.1495  219.2457 H   0  0  0  0  0  0  0  0  0  0  0  0
  146.3409   74.3437  220.3876 H   0  0  0  0  0  0  0  0  0  0  0  0
  145.7750   72.1370  221.9590 H   0  0  0  0  0  0  0  0  0  0  0  0
  143.7143   74.0767  221.5478 H   0  0  0  0  0  0  0  0  0  0  0  0
  144.3232   76.1924  220.9706 H   0  0  0  0  0  0  0  0  0  0  0  0
  144.8960   75.6143  219.2977 H   0  0  0  0  0  0  0  0  0  0  0  0
  143.3432   76.8057  216.9168 H   0  0  0  0  0  0  0  0  0  0  0  0
  142.7484   79.0333  216.0286 H   0  0  0  0  0  0  0  0  0  0  0  0
  141.7483   80.7454  217.5217 H   0  0  0  0  0  0  0  0  0  0  0  0
  141.3599   80.1785  219.8963 H   0  0  0  0  0  0  0  0  0  0  0  0
  141.9481   77.9714  220.7789 H   0  0  0  0  0  0  0  0  0  0  0  0
  138.1110   76.6977  222.1876 H   0  0  0  0  0  0  0  0  0  0  0  0
  138.0669   79.0868  222.8747 H   0  0  0  0  0  0  0  0  0  0  0  0
  139.3081   81.0846  223.5150 H   0  0  0  0  0  0  0  0  0  0  0  0
  141.4654   82.2247  223.9527 H   0  0  0  0  0  0  0  0  0  0  0  0
  143.6103   80.9666  223.6863 H   0  0  0  0  0  0  0  0  0  0  0  0
  143.5333   78.5928  222.9946 H   0  0  0  0  0  0  0  0  0  0  0  0
  1  2  2  0
  2  3  1  0
  3  4  1  0
  4  5  1  0
  5  6  2  0
  5  7  1  0
  7  8  1  0
  8  9  1  0
  9 10  1  0
 10 11  1  0
 10 12  1  0
 12 13  1  0
 13 14  1  0
 14 15  1  0
 15 16  2  0
 16 17  1  0
 17 18  2  0
 18 19  1  0
 19 20  2  0
  2 21  1  0
 21 22  2  0
 22 23  1  0
 23 24  2  0
 24 25  1  0
 25 26  2  0
 26 27  1  0
 27 28  2  0
 28 29  1  0
 29 30  2  0
 12  7  1  0
 20 15  1  0
 30 21  1  0
 29 24  1  0
  3 31  1  0
  4 32  1  0
  4 33  1  0
  8 34  1  0
  8 35  1  0
  9 36  1  0
  9 37  1  0
 10 38  1  6
 11 39  1  0
 12 40  1  1
 13 41  1  0
 13 42  1  0
 16 43  1  0
 17 44  1  0
 18 45  1  0
 19 46  1  0
 20 47  1  0
 22 48  1  0
 23 49  1  0
 25 50  1  0
 26 51  1  0
 27 52  1  0
 28 53  1  0
M  END
>  <smiles>  (25) 
O=C(NCC(=O)N1CC[C@H](O)[C@H]1COc1ccccc1)c1ccc2ccccc2n1

>  <score_type>  (25) 
oracle

>  <origin>  (25) 
autodockgpu

>  <m_score__min__energy>  (25) 
-8.9299999999999997

>  <m_primary>  (25) 
energy

>  <rmsd>  (25) 
7.4888879855851345

>  <m_score__min__rmsd>  (25) 
7.4888879855851345

>  <meeko>  (25) 
{"free_energy": -7.04, "intermolecular_energy": -9.43, "internal_energy": -3.15, "cluster_size": 12, "cluster_id": 6, "rank_in_cluster": 6}

>  <energy>  (25) 
-7.89

>  <cluster_rmsd>  (25) 
1.64

>  <cluster>  (25) 
2

$$$$

     RDKit          3D

 53 56  0  0  0  0  0  0  0  0999 V2000
  140.1770   74.7150  222.3310 O   0  0  0  0  0  0  0  0  0  0  0  0
  140.7100   75.4810  221.4570 C   0  0  0  0  0  0  0  0  0  0  0  0
  141.0600   74.9530  220.1860 N   0  0  0  0  0  0  0  0  0  0  0  0
  140.8280   73.5440  219.8420 C   0  0  0  0  0  0  0  0  0  0  0  0
  141.9890   72.7610  220.3360 C   0  0  0  0  0  0  0  0  0  0  0  0
  141.7880   71.7630  221.1090 O   0  0  0  0  0  0  0  0  0  0  0  0
  143.3300   73.0370  220.0120 N   0  0  0  0  0  0  0  0  0  0  0  0
  144.0690   72.4880  218.9040 C   0  0  0  0  0  0  0  0  0  0  0  0
  145.3510   72.0810  219.6380 C   0  0  0  0  0  0  0  0  0  0  0  0
  145.6600   73.3520  220.3960 C   0  0  2  0  0  0  0  0  0  0  0  0
  146.3220   73.0400  221.5610 O   0  0  0  0  0  0  0  0  0  0  0  0
  144.2900   73.9220  220.6930 C   0  0  1  0  0  0  0  0  0  0  0  0
  144.0910   75.2760  220.0960 C   0  0  0  0  0  0  0  0  0  0  0  0
  143.4970   75.3470  218.8600 O   0  0  0  0  0  0  0  0  0  0  0  0
  143.1870   76.4200  218.0890 C   0  0  0  0  0  0  0  0  0  0  0  0
  142.9480   77.7020  218.4920 C   0  0  0  0  0  0  0  0  0  0  0  0
  142.6380   78.7330  217.6020 C   0  0  0  0  0  0  0  0  0  0  0  0
  142.5600   78.4800  216.2600 C   0  0  0  0  0  0  0  0  0  0  0  0
  142.7920   77.2040  215.8240 C   0  0  0  0  0  0  0  0  0  0  0  0
  143.0980   76.1940  216.7040 C   0  0  0  0  0  0  0  0  0  0  0  0
  140.9530   76.8910  221.7760 C   0  0  0  0  0  0  0  0  0  0  0  0
  141.1500   77.2550  223.0950 C   0  0  0  0  0  0  0  0  0  0  0  0
  141.3840   78.5750  223.4630 C   0  0  0  0  0  0  0  0  0  0  0  0
  141.4210   79.5400  222.4760 C   0  0  0  0  0  0  0  0  0  0  0  0
  141.6500   80.8680  222.7790 C   0  0  0  0  0  0  0  0  0  0  0  0
  141.6850   81.8260  221.7820 C   0  0  0  0  0  0  0  0  0  0  0  0
  141.4860   81.4540  220.4610 C   0  0  0  0  0  0  0  0  0  0  0  0
  141.2590   80.1220  220.1790 C   0  0  0  0  0  0  0  0  0  0  0  0
  141.2220   79.1560  221.1650 C   0  0  0  0  0  0  0  0  0  0  0  0
  140.9950   77.8460  220.8580 N   0  0  0  0  0  0  0  0  0  0  0  0
  141.4950   75.6230  219.5070 H   0  0  0  0  0  0  0  0  0  0  0  0
  139.9046   73.1883  220.3225 H   0  0  0  0  0  0  0  0  0  0  0  0
  140.7192   73.4262  218.7537 H   0  0  0  0  0  0  0  0  0  0  0  0
  143.5581   71.6220  218.4579 H   0  0  0  0  0  0  0  0  0  0  0  0
  144.2115   73.1680  218.0512 H   0  0  0  0  0  0  0  0  0  0  0  0
  145.1760   71.2356  220.3197 H   0  0  0  0  0  0  0  0  0  0  0  0
  146.1618   71.7349  218.9801 H   0  0  0  0  0  0  0  0  0  0  0  0
  146.3004   74.0558  219.8442 H   0  0  0  0  0  0  0  0  0  0  0  0
  146.0260   72.1780  221.9490 H   0  0  0  0  0  0  0  0  0  0  0  0
  144.1662   73.9949  221.7836 H   0  0  0  0  0  0  0  0  0  0  0  0
  143.4678   75.8545  220.7938 H   0  0  0  0  0  0  0  0  0  0  0  0
  145.1086   75.6629  219.9384 H   0  0  0  0  0  0  0  0  0  0  0  0
  143.0019   77.9337  219.5660 H   0  0  0  0  0  0  0  0  0  0  0  0
  142.4564   79.7496  217.9808 H   0  0  0  0  0  0  0  0  0  0  0  0
  142.3167   79.2829  215.5486 H   0  0  0  0  0  0  0  0  0  0  0  0
  142.7324   76.9824  214.7482 H   0  0  0  0  0  0  0  0  0  0  0  0
  143.2782   75.1812  216.3144 H   0  0  0  0  0  0  0  0  0  0  0  0
  141.1208   76.4793  223.8744 H   0  0  0  0  0  0  0  0  0  0  0  0
  141.5365   78.8451  224.5184 H   0  0  0  0  0  0  0  0  0  0  0  0
  141.8064   81.1673  223.8259 H   0  0  0  0  0  0  0  0  0  0  0  0
  141.8702   82.8801  222.0362 H   0  0  0  0  0  0  0  0  0  0  0  0
  141.5085   82.2034  219.6561 H   0  0  0  0  0  0  0  0  0  0  0  0
  141.1022   79.8197  219.1330 H   0  0  0  0  0  0  0  0  0  0  0  0
  1  2  2  0
  2  3  1  0
  3  4  1  0
  4  5  1  0
  5  6  2  0
  5  7  1  0
  7  8  1  0
  8  9  1  0
  9 10  1  0
 10 11  1  0
 10 12  1  0
 12 13  1  0
 13 14  1  0
 14 15  1  0
 15 16  2  0
 16 17  1  0
 17 18  2  0
 18 19  1  0
 19 20  2  0
  2 21  1  0
 21 22  2  0
 22 23  1  0
 23 24  2  0
 24 25  1  0
 25 26  2  0
 26 27  1  0
 27 28  2  0
 28 29  1  0
 29 30  2  0
 12  7  1  0
 20 15  1  0
 30 21  1  0
 29 24  1  0
  3 31  1  0
  4 32  1  0
  4 33  1  0
  8 34  1  0
  8 35  1  0
  9 36  1  0
  9 37  1  0
 10 38  1  6
 11 39  1  0
 12 40  1  1
 13 41  1  0
 13 42  1  0
 16 43  1  0
 17 44  1  0
 18 45  1  0
 19 46  1  0
 20 47  1  0
 22 48  1  0
 23 49  1  0
 25 50  1  0
 26 51  1  0
 27 52  1  0
 28 53  1  0
M  END
>  <smiles>  (26) 
O=C(NCC(=O)N1CC[C@H](O)[C@H]1COc1ccccc1)c1ccc2ccccc2n1

>  <score_type>  (26) 
oracle

>  <origin>  (26) 
autodockgpu

>  <m_score__min__energy>  (26) 
-8.9299999999999997

>  <m_primary>  (26) 
energy

>  <rmsd>  (26) 
8.074345940967818

>  <m_score__min__rmsd>  (26) 
8.074345940967818

>  <meeko>  (26) 
{"free_energy": -6.54, "intermolecular_energy": -8.93, "internal_energy": -3.14, "cluster_size": 12, "cluster_id": 6, "rank_in_cluster": 11}

>  <energy>  (26) 
-7.76

>  <cluster_rmsd>  (26) 
1.17

>  <cluster>  (26) 
2

$$$$

     RDKit          3D

 53 56  0  0  0  0  0  0  0  0999 V2000
  136.8730   71.0260  221.4240 O   0  0  0  0  0  0  0  0  0  0  0  0
  137.1590   71.5610  222.5500 C   0  0  0  0  0  0  0  0  0  0  0  0
  136.6760   72.8630  222.8480 N   0  0  0  0  0  0  0  0  0  0  0  0
  135.8540   73.6210  221.8950 C   0  0  0  0  0  0  0  0  0  0  0  0
  136.7700   74.4260  221.0480 C   0  0  0  0  0  0  0  0  0  0  0  0
  136.2920   75.3700  220.3290 O   0  0  0  0  0  0  0  0  0  0  0  0
  138.1610   74.2290  220.9710 N   0  0  0  0  0  0  0  0  0  0  0  0
  138.8690   73.5610  219.9090 C   0  0  0  0  0  0  0  0  0  0  0  0
  139.7710   72.6500  220.7480 C   0  0  0  0  0  0  0  0  0  0  0  0
  140.3400   73.6430  221.7340 C   0  0  2  0  0  0  0  0  0  0  0  0
  140.6200   73.0010  222.9190 O   0  0  0  0  0  0  0  0  0  0  0  0
  139.2140   74.6370  221.9160 C   0  0  1  0  0  0  0  0  0  0  0  0
  139.6040   76.0230  221.5190 C   0  0  0  0  0  0  0  0  0  0  0  0
  139.2570   77.0500  222.3630 O   0  0  0  0  0  0  0  0  0  0  0  0
  139.9530   78.1490  222.7500 C   0  0  0  0  0  0  0  0  0  0  0  0
  139.4790   79.4110  222.9600 C   0  0  0  0  0  0  0  0  0  0  0  0
  140.2930   80.4720  223.3620 C   0  0  0  0  0  0  0  0  0  0  0  0
  141.6320   80.2720  223.5630 C   0  0  0  0  0  0  0  0  0  0  0  0
  142.1380   79.0170  223.3590 C   0  0  0  0  0  0  0  0  0  0  0  0
  141.3330   77.9760  222.9640 C   0  0  0  0  0  0  0  0  0  0  0  0
  137.9780   70.8250  223.5180 C   0  0  0  0  0  0  0  0  0  0  0  0
  137.9600   69.4430  223.4970 C   0  0  0  0  0  0  0  0  0  0  0  0
  138.7140   68.6880  224.3880 C   0  0  0  0  0  0  0  0  0  0  0  0
  139.4990   69.3460  225.3130 C   0  0  0  0  0  0  0  0  0  0  0  0
  140.2690   68.6500  226.2240 C   0  0  0  0  0  0  0  0  0  0  0  0
  141.0530   69.3200  227.1470 C   0  0  0  0  0  0  0  0  0  0  0  0
  141.0660   70.7070  227.1630 C   0  0  0  0  0  0  0  0  0  0  0  0
  140.2880   71.3830  226.2440 C   0  0  0  0  0  0  0  0  0  0  0  0
  139.5030   70.7260  225.3180 C   0  0  0  0  0  0  0  0  0  0  0  0
  138.7440   71.4200  224.4210 N   0  0  0  0  0  0  0  0  0  0  0  0
  136.9400   73.2550  223.7830 H   0  0  0  0  0  0  0  0  0  0  0  0
  135.2746   72.9285  221.2667 H   0  0  0  0  0  0  0  0  0  0  0  0
  135.1495   74.2752  222.4296 H   0  0  0  0  0  0  0  0  0  0  0  0
  138.1913   72.9853  219.2615 H   0  0  0  0  0  0  0  0  0  0  0  0
  139.3940   74.2230  219.2046 H   0  0  0  0  0  0  0  0  0  0  0  0
  139.1926   71.8632  221.2543 H   0  0  0  0  0  0  0  0  0  0  0  0
  140.5272   72.1000  220.1686 H   0  0  0  0  0  0  0  0  0  0  0  0
  141.2740   74.1181  221.3996 H   0  0  0  0  0  0  0  0  0  0  0  0
  139.8660   73.0360  223.5600 H   0  0  0  0  0  0  0  0  0  0  0  0
  138.9151   74.6433  222.9746 H   0  0  0  0  0  0  0  0  0  0  0  0
  140.6989   76.0391  221.4146 H   0  0  0  0  0  0  0  0  0  0  0  0
  139.0379   76.2178  220.5962 H   0  0  0  0  0  0  0  0  0  0  0  0
  138.4067   79.6014  222.8056 H   0  0  0  0  0  0  0  0  0  0  0  0
  139.8574   81.4701  223.5174 H   0  0  0  0  0  0  0  0  0  0  0  0
  142.2846   81.0987  223.8803 H   0  0  0  0  0  0  0  0  0  0  0  0
  143.2121   78.8378  223.5146 H   0  0  0  0  0  0  0  0  0  0  0  0
  141.7786   76.9820  222.8112 H   0  0  0  0  0  0  0  0  0  0  0  0
  137.3324   68.9269  222.7555 H   0  0  0  0  0  0  0  0  0  0  0  0
  138.6856   67.5888  224.3565 H   0  0  0  0  0  0  0  0  0  0  0  0
  140.2591   67.5501  226.2159 H   0  0  0  0  0  0  0  0  0  0  0  0
  141.6640   68.7543  227.8658 H   0  0  0  0  0  0  0  0  0  0  0  0
  141.6818   71.2557  227.8909 H   0  0  0  0  0  0  0  0  0  0  0  0
  140.2940   72.4830  226.2501 H   0  0  0  0  0  0  0  0  0  0  0  0
  1  2  2  0
  2  3  1  0
  3  4  1  0
  4  5  1  0
  5  6  2  0
  5  7  1  0
  7  8  1  0
  8  9  1  0
  9 10  1  0
 10 11  1  0
 10 12  1  0
 12 13  1  0
 13 14  1  0
 14 15  1  0
 15 16  2  0
 16 17  1  0
 17 18  2  0
 18 19  1  0
 19 20  2  0
  2 21  1  0
 21 22  2  0
 22 23  1  0
 23 24  2  0
 24 25  1  0
 25 26  2  0
 26 27  1  0
 27 28  2  0
 28 29  1  0
 29 30  2  0
 12  7  1  0
 20 15  1  0
 30 21  1  0
 29 24  1  0
  3 31  1  0
  4 32  1  0
  4 33  1  0
  8 34  1  0
  8 35  1  0
  9 36  1  0
  9 37  1  0
 10 38  1  6
 11 39  1  0
 12 40  1  1
 13 41  1  0
 13 42  1  0
 16 43  1  0
 17 44  1  0
 18 45  1  0
 19 46  1  0
 20 47  1  0
 22 48  1  0
 23 49  1  0
 25 50  1  0
 26 51  1  0
 27 52  1  0
 28 53  1  0
M  END
>  <smiles>  (27) 
O=C(NCC(=O)N1CC[C@H](O)[C@H]1COc1ccccc1)c1ccc2ccccc2n1

>  <score_type>  (27) 
oracle

>  <origin>  (27) 
autodockgpu

>  <m_score__min__energy>  (27) 
-8.9299999999999997

>  <m_primary>  (27) 
energy

>  <rmsd>  (27) 
3.1656094194049476

>  <m_score__min__rmsd>  (27) 
3.1656094194049476

>  <meeko>  (27) 
{"free_energy": -7.03, "intermolecular_energy": -9.42, "internal_energy": -2.69, "cluster_size": 21, "cluster_id": 1, "rank_in_cluster": 18}

>  <energy>  (27) 
-7.76

>  <cluster_rmsd>  (27) 
1.14

>  <cluster>  (27) 
2

$$$$

     RDKit          3D

 53 56  0  0  0  0  0  0  0  0999 V2000
  141.2740   71.7880  221.4550 O   0  0  0  0  0  0  0  0  0  0  0  0
  140.5820   72.3000  222.3990 C   0  0  0  0  0  0  0  0  0  0  0  0
  140.0960   73.6280  222.2680 N   0  0  0  0  0  0  0  0  0  0  0  0
  140.3660   74.4370  221.0720 C   0  0  0  0  0  0  0  0  0  0  0  0
  140.4250   75.8600  221.4940 C   0  0  0  0  0  0  0  0  0  0  0  0
  139.8750   76.2120  222.5930 O   0  0  0  0  0  0  0  0  0  0  0  0
  141.0540   76.8820  220.7590 N   0  0  0  0  0  0  0  0  0  0  0  0
  141.6460   78.0790  221.3010 C   0  0  0  0  0  0  0  0  0  0  0  0
  141.0350   79.1110  220.3460 C   0  0  0  0  0  0  0  0  0  0  0  0
  141.3340   78.4740  219.0090 C   0  0  2  0  0  0  0  0  0  0  0  0
  140.3640   78.8360  218.1040 O   0  0  0  0  0  0  0  0  0  0  0  0
  141.2640   76.9920  219.3060 C   0  0  1  0  0  0  0  0  0  0  0  0
  142.5520   76.2910  219.0250 C   0  0  0  0  0  0  0  0  0  0  0  0
  143.2150   75.7250  220.0870 O   0  0  0  0  0  0  0  0  0  0  0  0
  144.0340   74.6440  220.1430 C   0  0  0  0  0  0  0  0  0  0  0  0
  145.2170   74.5210  220.8120 C   0  0  0  0  0  0  0  0  0  0  0  0
  145.9800   73.3520  220.8000 C   0  0  0  0  0  0  0  0  0  0  0  0
  145.5510   72.2600  220.0950 C   0  0  0  0  0  0  0  0  0  0  0  0
  144.3680   72.3520  219.4120 C   0  0  0  0  0  0  0  0  0  0  0  0
  143.6220   73.5050  219.4270 C   0  0  0  0  0  0  0  0  0  0  0  0
  140.2970   71.5130  223.6030 C   0  0  0  0  0  0  0  0  0  0  0  0
  139.6080   70.3210  223.4760 C   0  0  0  0  0  0  0  0  0  0  0  0
  139.3070   69.5290  224.5780 C   0  0  0  0  0  0  0  0  0  0  0  0
  139.7140   69.9530  225.8280 C   0  0  0  0  0  0  0  0  0  0  0  0
  139.4440   69.2090  226.9600 C   0  0  0  0  0  0  0  0  0  0  0  0
  139.8570   69.6430  228.2070 C   0  0  0  0  0  0  0  0  0  0  0  0
  140.5470   70.8400  228.3270 C   0  0  0  0  0  0  0  0  0  0  0  0
  140.8060   71.5680  227.1830 C   0  0  0  0  0  0  0  0  0  0  0  0
  140.4010   71.1460  225.9330 C   0  0  0  0  0  0  0  0  0  0  0  0
  140.6700   71.8850  224.8190 N   0  0  0  0  0  0  0  0  0  0  0  0
  139.5340   74.0010  223.0710 H   0  0  0  0  0  0  0  0  0  0  0  0
  141.3262   74.1381  220.6264 H   0  0  0  0  0  0  0  0  0  0  0  0
  139.5760   74.2901  220.3208 H   0  0  0  0  0  0  0  0  0  0  0  0
  141.3416   78.2526  222.3437 H   0  0  0  0  0  0  0  0  0  0  0  0
  142.7448   78.0786  221.3527 H   0  0  0  0  0  0  0  0  0  0  0  0
  139.9527   79.2215  220.5084 H   0  0  0  0  0  0  0  0  0  0  0  0
  141.4321   80.1301  220.4632 H   0  0  0  0  0  0  0  0  0  0  0  0
  142.3007   78.7739  218.5783 H   0  0  0  0  0  0  0  0  0  0  0  0
  139.9980   79.7400  218.2760 H   0  0  0  0  0  0  0  0  0  0  0  0
  140.4744   76.5435  218.6852 H   0  0  0  0  0  0  0  0  0  0  0  0
  142.3386   75.4875  218.3047 H   0  0  0  0  0  0  0  0  0  0  0  0
  143.2266   77.0817  218.6650 H   0  0  0  0  0  0  0  0  0  0  0  0
  145.5864   75.3827  221.3873 H   0  0  0  0  0  0  0  0  0  0  0  0
  146.9271   73.3084  221.3578 H   0  0  0  0  0  0  0  0  0  0  0  0
  146.1416   71.3322  220.0776 H   0  0  0  0  0  0  0  0  0  0  0  0
  144.0076   71.4846  218.8395 H   0  0  0  0  0  0  0  0  0  0  0  0
  142.6774   73.5389  218.8644 H   0  0  0  0  0  0  0  0  0  0  0  0
  139.2896   69.9906  222.4763 H   0  0  0  0  0  0  0  0  0  0  0  0
  138.7563   68.5845  224.4571 H   0  0  0  0  0  0  0  0  0  0  0  0
  138.8943   68.2606  226.8690 H   0  0  0  0  0  0  0  0  0  0  0  0
  139.6387   69.0403  229.1009 H   0  0  0  0  0  0  0  0  0  0  0  0
  140.8803   71.2011  229.3111 H   0  0  0  0  0  0  0  0  0  0  0  0
  141.3543   72.5176  227.2708 H   0  0  0  0  0  0  0  0  0  0  0  0
  1  2  2  0
  2  3  1  0
  3  4  1  0
  4  5  1  0
  5  6  2  0
  5  7  1  0
  7  8  1  0
  8  9  1  0
  9 10  1  0
 10 11  1  0
 10 12  1  0
 12 13  1  0
 13 14  1  0
 14 15  1  0
 15 16  2  0
 16 17  1  0
 17 18  2  0
 18 19  1  0
 19 20  2  0
  2 21  1  0
 21 22  2  0
 22 23  1  0
 23 24  2  0
 24 25  1  0
 25 26  2  0
 26 27  1  0
 27 28  2  0
 28 29  1  0
 29 30  2  0
 12  7  1  0
 20 15  1  0
 30 21  1  0
 29 24  1  0
  3 31  1  0
  4 32  1  0
  4 33  1  0
  8 34  1  0
  8 35  1  0
  9 36  1  0
  9 37  1  0
 10 38  1  6
 11 39  1  0
 12 40  1  6
 13 41  1  0
 13 42  1  0
 16 43  1  0
 17 44  1  0
 18 45  1  0
 19 46  1  0
 20 47  1  0
 22 48  1  0
 23 49  1  0
 25 50  1  0
 26 51  1  0
 27 52  1  0
 28 53  1  0
M  END
>  <smiles>  (28) 
O=C(NCC(=O)N1CC[C@H](O)[C@H]1COc1ccccc1)c1ccc2ccccc2n1

>  <score_type>  (28) 
oracle

>  <origin>  (28) 
autodockgpu

>  <m_score__min__energy>  (28) 
-8.9299999999999997

>  <m_primary>  (28) 
energy

>  <rmsd>  (28) 
2.7150486017021342

>  <m_score__min__rmsd>  (28) 
2.7150486017021342

>  <meeko>  (28) 
{"free_energy": -7.75, "intermolecular_energy": -10.14, "internal_energy": -2.16, "cluster_size": 5, "cluster_id": 3, "rank_in_cluster": 2}

>  <energy>  (28) 
-7.68

>  <cluster_rmsd>  (28) 
1.53

>  <cluster>  (28) 
2

$$$$

     RDKit          3D

 53 56  0  0  0  0  0  0  0  0999 V2000
  141.3240   71.7810  221.4510 O   0  0  0  0  0  0  0  0  0  0  0  0
  140.6410   72.3020  222.3970 C   0  0  0  0  0  0  0  0  0  0  0  0
  140.1820   73.6400  222.2740 N   0  0  0  0  0  0  0  0  0  0  0  0
  140.4700   74.4510  221.0830 C   0  0  0  0  0  0  0  0  0  0  0  0
  140.5980   75.8640  221.5190 C   0  0  0  0  0  0  0  0  0  0  0  0
  140.2040   76.1980  222.6890 O   0  0  0  0  0  0  0  0  0  0  0  0
  141.1310   76.8970  220.7260 N   0  0  0  0  0  0  0  0  0  0  0  0
  141.6640   78.1480  221.2020 C   0  0  0  0  0  0  0  0  0  0  0  0
  140.9520   79.1030  220.2380 C   0  0  0  0  0  0  0  0  0  0  0  0
  141.2410   78.4380  218.9120 C   0  0  2  0  0  0  0  0  0  0  0  0
  140.2160   78.7050  218.0350 O   0  0  0  0  0  0  0  0  0  0  0  0
  141.2780   76.9670  219.2620 C   0  0  1  0  0  0  0  0  0  0  0  0
  142.5980   76.3390  218.9540 C   0  0  0  0  0  0  0  0  0  0  0  0
  143.3260   75.8360  220.0050 O   0  0  0  0  0  0  0  0  0  0  0  0
  144.0860   74.7150  220.0970 C   0  0  0  0  0  0  0  0  0  0  0  0
  145.2350   74.5370  220.8110 C   0  0  0  0  0  0  0  0  0  0  0  0
  145.9360   73.3300  220.8340 C   0  0  0  0  0  0  0  0  0  0  0  0
  145.4790   72.2570  220.1190 C   0  0  0  0  0  0  0  0  0  0  0  0
  144.3290   72.4040  219.3910 C   0  0  0  0  0  0  0  0  0  0  0  0
  143.6430   73.5940  219.3720 C   0  0  0  0  0  0  0  0  0  0  0  0
  140.3390   71.5140  223.5960 C   0  0  0  0  0  0  0  0  0  0  0  0
  139.6480   70.3240  223.4590 C   0  0  0  0  0  0  0  0  0  0  0  0
  139.3310   69.5310  224.5550 C   0  0  0  0  0  0  0  0  0  0  0  0
  139.7240   69.9510  225.8110 C   0  0  0  0  0  0  0  0  0  0  0  0
  139.4380   69.2070  226.9380 C   0  0  0  0  0  0  0  0  0  0  0  0
  139.8370   69.6370  228.1910 C   0  0  0  0  0  0  0  0  0  0  0  0
  140.5300   70.8310  228.3220 C   0  0  0  0  0  0  0  0  0  0  0  0
  140.8050   71.5600  227.1820 C   0  0  0  0  0  0  0  0  0  0  0  0
  140.4130   71.1420  225.9270 C   0  0  0  0  0  0  0  0  0  0  0  0
  140.6980   71.8830  224.8170 N   0  0  0  0  0  0  0  0  0  0  0  0
  139.6270   74.0190  223.0780 H   0  0  0  0  0  0  0  0  0  0  0  0
  141.4095   74.1154  220.6195 H   0  0  0  0  0  0  0  0  0  0  0  0
  139.6631   74.3480  220.3426 H   0  0  0  0  0  0  0  0  0  0  0  0
  141.3888   78.3403  222.2495 H   0  0  0  0  0  0  0  0  0  0  0  0
  142.7617   78.2191  221.2093 H   0  0  0  0  0  0  0  0  0  0  0  0
  139.8717   79.1503  220.4398 H   0  0  0  0  0  0  0  0  0  0  0  0
  141.2864   80.1488  220.3045 H   0  0  0  0  0  0  0  0  0  0  0  0
  142.1692   78.7824  218.4326 H   0  0  0  0  0  0  0  0  0  0  0  0
  139.5810   77.9500  217.9470 H   0  0  0  0  0  0  0  0  0  0  0  0
  140.4959   76.4473  218.6891 H   0  0  0  0  0  0  0  0  0  0  0  0
  142.4124   75.5094  218.2559 H   0  0  0  0  0  0  0  0  0  0  0  0
  143.2120   77.1615  218.5585 H   0  0  0  0  0  0  0  0  0  0  0  0
  145.6267   75.3829  221.3950 H   0  0  0  0  0  0  0  0  0  0  0  0
  146.8575   73.2416  221.4281 H   0  0  0  0  0  0  0  0  0  0  0  0
  146.0218   71.3003  220.1288 H   0  0  0  0  0  0  0  0  0  0  0  0
  143.9466   71.5521  218.8096 H   0  0  0  0  0  0  0  0  0  0  0  0
  142.7230   73.6723  218.7741 H   0  0  0  0  0  0  0  0  0  0  0  0
  139.3409   69.9963  222.4549 H   0  0  0  0  0  0  0  0  0  0  0  0
  138.7787   68.5886  224.4253 H   0  0  0  0  0  0  0  0  0  0  0  0
  138.8861   68.2607  226.8386 H   0  0  0  0  0  0  0  0  0  0  0  0
  139.6052   69.0334  229.0809 H   0  0  0  0  0  0  0  0  0  0  0  0
  140.8530   71.1889  229.3107 H   0  0  0  0  0  0  0  0  0  0  0  0
  141.3559   72.5072  227.2778 H   0  0  0  0  0  0  0  0  0  0  0  0
  1  2  2  0
  2  3  1  0
  3  4  1  0
  4  5  1  0
  5  6  2  0
  5  7  1  0
  7  8  1  0
  8  9  1  0
  9 10  1  0
 10 11  1  0
 10 12  1  0
 12 13  1  0
 13 14  1  0
 14 15  1  0
 15 16  2  0
 16 17  1  0
 17 18  2  0
 18 19  1  0
 19 20  2  0
  2 21  1  0
 21 22  2  0
 22 23  1  0
 23 24  2  0
 24 25  1  0
 25 26  2  0
 26 27  1  0
 27 28  2  0
 28 29  1  0
 29 30  2  0
 12  7  1  0
 20 15  1  0
 30 21  1  0
 29 24  1  0
  3 31  1  0
  4 32  1  0
  4 33  1  0
  8 34  1  0
  8 35  1  0
  9 36  1  0
  9 37  1  0
 10 38  1  6
 11 39  1  0
 12 40  1  6
 13 41  1  0
 13 42  1  0
 16 43  1  0
 17 44  1  0
 18 45  1  0
 19 46  1  0
 20 47  1  0
 22 48  1  0
 23 49  1  0
 25 50  1  0
 26 51  1  0
 27 52  1  0
 28 53  1  0
M  END
>  <smiles>  (29) 
O=C(NCC(=O)N1CC[C@H](O)[C@H]1COc1ccccc1)c1ccc2ccccc2n1

>  <score_type>  (29) 
oracle

>  <origin>  (29) 
autodockgpu

>  <m_score__min__energy>  (29) 
-8.9299999999999997

>  <m_primary>  (29) 
energy

>  <rmsd>  (29) 
2.6637910645633784

>  <m_score__min__rmsd>  (29) 
2.6637910645633784

>  <meeko>  (29) 
{"free_energy": -7.67, "intermolecular_energy": -10.05, "internal_energy": -2.19, "cluster_size": 5, "cluster_id": 3, "rank_in_cluster": 3}

>  <energy>  (29) 
-7.67

>  <cluster_rmsd>  (29) 
1.53

>  <cluster>  (29) 
2

$$$$

     RDKit          3D

 53 56  0  0  0  0  0  0  0  0999 V2000
  138.7300   75.2320  221.9650 O   0  0  0  0  0  0  0  0  0  0  0  0
  139.9090   75.7170  221.8690 C   0  0  0  0  0  0  0  0  0  0  0  0
  140.9410   74.9330  221.2880 N   0  0  0  0  0  0  0  0  0  0  0  0
  140.6940   73.5720  220.7910 C   0  0  0  0  0  0  0  0  0  0  0  0
  141.9830   72.8360  220.8340 C   0  0  0  0  0  0  0  0  0  0  0  0
  142.1380   71.8910  221.6810 O   0  0  0  0  0  0  0  0  0  0  0  0
  143.0790   73.1010  219.9920 N   0  0  0  0  0  0  0  0  0  0  0  0
  143.0880   73.0180  218.5540 C   0  0  0  0  0  0  0  0  0  0  0  0
  144.3840   72.2210  218.3610 C   0  0  0  0  0  0  0  0  0  0  0  0
  145.3350   73.0090  219.2320 C   0  0  2  0  0  0  0  0  0  0  0  0
  146.3050   72.1680  219.7260 O   0  0  0  0  0  0  0  0  0  0  0  0
  144.4470   73.5170  220.3470 C   0  0  1  0  0  0  0  0  0  0  0  0
  144.4140   75.0080  220.4190 C   0  0  0  0  0  0  0  0  0  0  0  0
  143.2330   75.6360  220.1090 O   0  0  0  0  0  0  0  0  0  0  0  0
  142.9540   76.5870  219.1810 C   0  0  0  0  0  0  0  0  0  0  0  0
  143.2960   76.5960  217.8600 C   0  0  0  0  0  0  0  0  0  0  0  0
  142.9500   77.6340  216.9920 C   0  0  0  0  0  0  0  0  0  0  0  0
  142.2360   78.7060  217.4560 C   0  0  0  0  0  0  0  0  0  0  0  0
  141.8790   78.7270  218.7770 C   0  0  0  0  0  0  0  0  0  0  0  0
  142.2220   77.7030  219.6260 C   0  0  0  0  0  0  0  0  0  0  0  0
  140.1810   77.0720  222.3560 C   0  0  0  0  0  0  0  0  0  0  0  0
  139.1190   77.8760  222.7290 C   0  0  0  0  0  0  0  0  0  0  0  0
  139.3110   79.1700  223.1980 C   0  0  0  0  0  0  0  0  0  0  0  0
  140.6000   79.6550  223.2940 C   0  0  0  0  0  0  0  0  0  0  0  0
  140.8530   80.9330  223.7530 C   0  0  0  0  0  0  0  0  0  0  0  0
  142.1490   81.4080  223.8450 C   0  0  0  0  0  0  0  0  0  0  0  0
  143.2100   80.5970  223.4700 C   0  0  0  0  0  0  0  0  0  0  0  0
  142.9340   79.3230  223.0130 C   0  0  0  0  0  0  0  0  0  0  0  0
  141.6460   78.8370  222.9180 C   0  0  0  0  0  0  0  0  0  0  0  0
  141.4030   77.5740  222.4620 N   0  0  0  0  0  0  0  0  0  0  0  0
  141.8890   75.3770  221.2330 H   0  0  0  0  0  0  0  0  0  0  0  0
  139.9533   73.0684  221.4296 H   0  0  0  0  0  0  0  0  0  0  0  0
  140.3009   73.6018  219.7641 H   0  0  0  0  0  0  0  0  0  0  0  0
  142.2113   72.4775  218.1676 H   0  0  0  0  0  0  0  0  0  0  0  0
  143.0457   73.9825  218.0267 H   0  0  0  0  0  0  0  0  0  0  0  0
  144.2777   71.1843  218.7130 H   0  0  0  0  0  0  0  0  0  0  0  0
  144.7042   72.1199  217.3135 H   0  0  0  0  0  0  0  0  0  0  0  0
  145.8554   73.8208  218.7027 H   0  0  0  0  0  0  0  0  0  0  0  0
  146.0510   71.7560  220.5900 H   0  0  0  0  0  0  0  0  0  0  0  0
  144.8216   73.1252  221.3042 H   0  0  0  0  0  0  0  0  0  0  0  0
  144.6774   75.2931  221.4483 H   0  0  0  0  0  0  0  0  0  0  0  0
  145.1177   75.3395  219.6412 H   0  0  0  0  0  0  0  0  0  0  0  0
  143.8703   75.7471  217.4606 H   0  0  0  0  0  0  0  0  0  0  0  0
  143.2513   77.5902  215.9350 H   0  0  0  0  0  0  0  0  0  0  0  0
  141.9561   79.5303  216.7835 H   0  0  0  0  0  0  0  0  0  0  0  0
  141.3058   79.5811  219.1668 H   0  0  0  0  0  0  0  0  0  0  0  0
  141.9164   77.7570  220.6813 H   0  0  0  0  0  0  0  0  0  0  0  0
  138.0954   77.4806  222.6524 H   0  0  0  0  0  0  0  0  0  0  0  0
  138.4533   79.7952  223.4869 H   0  0  0  0  0  0  0  0  0  0  0  0
  140.0143   81.5804  224.0488 H   0  0  0  0  0  0  0  0  0  0  0  0
  142.3377   82.4267  224.2147 H   0  0  0  0  0  0  0  0  0  0  0  0
  144.2464   80.9597  223.5350 H   0  0  0  0  0  0  0  0  0  0  0  0
  143.7700   78.6733  222.7144 H   0  0  0  0  0  0  0  0  0  0  0  0
  1  2  2  0
  2  3  1  0
  3  4  1  0
  4  5  1  0
  5  6  2  0
  5  7  1  0
  7  8  1  0
  8  9  1  0
  9 10  1  0
 10 11  1  0
 10 12  1  0
 12 13  1  0
 13 14  1  0
 14 15  1  0
 15 16  2  0
 16 17  1  0
 17 18  2  0
 18 19  1  0
 19 20  2  0
  2 21  1  0
 21 22  2  0
 22 23  1  0
 23 24  2  0
 24 25  1  0
 25 26  2  0
 26 27  1  0
 27 28  2  0
 28 29  1  0
 29 30  2  0
 12  7  1  0
 20 15  1  0
 30 21  1  0
 29 24  1  0
  3 31  1  0
  4 32  1  0
  4 33  1  0
  8 34  1  0
  8 35  1  0
  9 36  1  0
  9 37  1  0
 10 38  1  6
 11 39  1  0
 12 40  1  1
 13 41  1  0
 13 42  1  0
 16 43  1  0
 17 44  1  0
 18 45  1  0
 19 46  1  0
 20 47  1  0
 22 48  1  0
 23 49  1  0
 25 50  1  0
 26 51  1  0
 27 52  1  0
 28 53  1  0
M  END
>  <smiles>  (30) 
O=C(NCC(=O)N1CC[C@H](O)[C@H]1COc1ccccc1)c1ccc2ccccc2n1

>  <score_type>  (30) 
oracle

>  <origin>  (30) 
autodockgpu

>  <m_score__min__energy>  (30) 
-8.9299999999999997

>  <m_primary>  (30) 
energy

>  <rmsd>  (30) 
7.5367497200441775

>  <m_score__min__rmsd>  (30) 
7.5367497200441775

>  <meeko>  (30) 
{"free_energy": -7.07, "intermolecular_energy": -9.45, "internal_energy": -3.26, "cluster_size": 12, "cluster_id": 6, "rank_in_cluster": 5}

>  <energy>  (30) 
-7.66

>  <cluster_rmsd>  (30) 
1.62

>  <cluster>  (30) 
2

$$$$

     RDKit          3D

 53 56  0  0  0  0  0  0  0  0999 V2000
  137.1520   70.7360  221.4460 O   0  0  0  0  0  0  0  0  0  0  0  0
  137.4030   71.2990  222.5650 C   0  0  0  0  0  0  0  0  0  0  0  0
  136.9400   72.6210  222.8020 N   0  0  0  0  0  0  0  0  0  0  0  0
  136.1750   73.3660  221.7930 C   0  0  0  0  0  0  0  0  0  0  0  0
  137.1400   73.8970  220.7970 C   0  0  0  0  0  0  0  0  0  0  0  0
  136.7030   74.5410  219.7820 O   0  0  0  0  0  0  0  0  0  0  0  0
  138.5360   73.7440  220.8820 N   0  0  0  0  0  0  0  0  0  0  0  0
  139.3800   73.0790  219.9220 C   0  0  0  0  0  0  0  0  0  0  0  0
  140.2080   72.2140  220.8790 C   0  0  0  0  0  0  0  0  0  0  0  0
  140.6310   73.2450  221.9000 C   0  0  2  0  0  0  0  0  0  0  0  0
  140.7940   72.6360  223.1230 O   0  0  0  0  0  0  0  0  0  0  0  0
  139.4620   74.2050  221.9300 C   0  0  1  0  0  0  0  0  0  0  0  0
  139.8530   75.5950  221.5480 C   0  0  0  0  0  0  0  0  0  0  0  0
  140.1510   76.4750  222.5590 O   0  0  0  0  0  0  0  0  0  0  0  0
  140.8870   77.6150  222.5510 C   0  0  0  0  0  0  0  0  0  0  0  0
  141.4940   78.2300  223.6060 C   0  0  0  0  0  0  0  0  0  0  0  0
  142.2350   79.4070  223.4780 C   0  0  0  0  0  0  0  0  0  0  0  0
  142.3770   79.9970  222.2510 C   0  0  0  0  0  0  0  0  0  0  0  0
  141.7780   79.4050  221.1720 C   0  0  0  0  0  0  0  0  0  0  0  0
  141.0520   78.2470  221.3040 C   0  0  0  0  0  0  0  0  0  0  0  0
  138.1640   70.5770  223.5890 C   0  0  0  0  0  0  0  0  0  0  0  0
  138.1310   69.1950  223.5970 C   0  0  0  0  0  0  0  0  0  0  0  0
  138.8300   68.4520  224.5410 C   0  0  0  0  0  0  0  0  0  0  0  0
  139.5760   69.1220  225.4900 C   0  0  0  0  0  0  0  0  0  0  0  0
  140.2910   68.4380  226.4540 C   0  0  0  0  0  0  0  0  0  0  0  0
  141.0360   69.1200  227.4000 C   0  0  0  0  0  0  0  0  0  0  0  0
  141.0650   70.5070  227.3860 C   0  0  0  0  0  0  0  0  0  0  0  0
  140.3420   71.1710  226.4150 C   0  0  0  0  0  0  0  0  0  0  0  0
  139.5960   70.5020  225.4650 C   0  0  0  0  0  0  0  0  0  0  0  0
  138.8910   71.1830  224.5160 N   0  0  0  0  0  0  0  0  0  0  0  0
  137.1740   73.0370  223.7350 H   0  0  0  0  0  0  0  0  0  0  0  0
  135.4560   72.6965  221.2982 H   0  0  0  0  0  0  0  0  0  0  0  0
  135.6148   74.1877  222.2631 H   0  0  0  0  0  0  0  0  0  0  0  0
  138.7980   72.4691  219.2154 H   0  0  0  0  0  0  0  0  0  0  0  0
  139.9614   73.7439  219.2663 H   0  0  0  0  0  0  0  0  0  0  0  0
  139.5997   71.4189  221.3349 H   0  0  0  0  0  0  0  0  0  0  0  0
  141.0413   71.6774  220.4019 H   0  0  0  0  0  0  0  0  0  0  0  0
  141.5820   73.7442  221.6626 H   0  0  0  0  0  0  0  0  0  0  0  0
  140.0390   72.8090  223.7400 H   0  0  0  0  0  0  0  0  0  0  0  0
  139.0441   74.2225  222.9474 H   0  0  0  0  0  0  0  0  0  0  0  0
  140.7419   75.5210  220.9043 H   0  0  0  0  0  0  0  0  0  0  0  0
  138.9557   76.0146  221.0698 H   0  0  0  0  0  0  0  0  0  0  0  0
  141.3955   77.7782  224.6041 H   0  0  0  0  0  0  0  0  0  0  0  0
  142.7047   79.8600  224.3635 H   0  0  0  0  0  0  0  0  0  0  0  0
  142.9580   80.9238  222.1350 H   0  0  0  0  0  0  0  0  0  0  0  0
  141.8803   79.8664  220.1787 H   0  0  0  0  0  0  0  0  0  0  0  0
  140.5872   77.8016  220.4121 H   0  0  0  0  0  0  0  0  0  0  0  0
  137.5356   68.6693  222.8359 H   0  0  0  0  0  0  0  0  0  0  0  0
  138.7897   67.3528  224.5322 H   0  0  0  0  0  0  0  0  0  0  0  0
  140.2679   67.3384  226.4698 H   0  0  0  0  0  0  0  0  0  0  0  0
  141.6035   68.5640  228.1608 H   0  0  0  0  0  0  0  0  0  0  0  0
  141.6506   71.0650  228.1315 H   0  0  0  0  0  0  0  0  0  0  0  0
  140.3610   72.2707  226.3976 H   0  0  0  0  0  0  0  0  0  0  0  0
  1  2  2  0
  2  3  1  0
  3  4  1  0
  4  5  1  0
  5  6  2  0
  5  7  1  0
  7  8  1  0
  8  9  1  0
  9 10  1  0
 10 11  1  0
 10 12  1  0
 12 13  1  0
 13 14  1  0
 14 15  1  0
 15 16  2  0
 16 17  1  0
 17 18  2  0
 18 19  1  0
 19 20  2  0
  2 21  1  0
 21 22  2  0
 22 23  1  0
 23 24  2  0
 24 25  1  0
 25 26  2  0
 26 27  1  0
 27 28  2  0
 28 29  1  0
 29 30  2  0
 12  7  1  0
 20 15  1  0
 30 21  1  0
 29 24  1  0
  3 31  1  0
  4 32  1  0
  4 33  1  0
  8 34  1  0
  8 35  1  0
  9 36  1  0
  9 37  1  0
 10 38  1  6
 11 39  1  0
 12 40  1  1
 13 41  1  0
 13 42  1  0
 16 43  1  0
 17 44  1  0
 18 45  1  0
 19 46  1  0
 20 47  1  0
 22 48  1  0
 23 49  1  0
 25 50  1  0
 26 51  1  0
 27 52  1  0
 28 53  1  0
M  END
>  <smiles>  (31) 
O=C(NCC(=O)N1CC[C@H](O)[C@H]1COc1ccccc1)c1ccc2ccccc2n1

>  <score_type>  (31) 
oracle

>  <origin>  (31) 
autodockgpu

>  <m_score__min__energy>  (31) 
-8.9299999999999997

>  <m_primary>  (31) 
energy

>  <rmsd>  (31) 
3.2203748870808213

>  <m_score__min__rmsd>  (31) 
3.2203748870808213

>  <meeko>  (31) 
{"free_energy": -7.13, "intermolecular_energy": -9.52, "internal_energy": -2.67, "cluster_size": 21, "cluster_id": 1, "rank_in_cluster": 15}

>  <energy>  (31) 
-7.47

>  <cluster_rmsd>  (31) 
1.67

>  <cluster>  (31) 
2

$$$$

     RDKit          3D

 53 56  0  0  0  0  0  0  0  0999 V2000
  139.5320   73.9330  222.3630 O   0  0  0  0  0  0  0  0  0  0  0  0
  140.2080   74.8310  221.7530 C   0  0  0  0  0  0  0  0  0  0  0  0
  141.0370   74.4600  220.6620 N   0  0  0  0  0  0  0  0  0  0  0  0
  141.1440   73.0660  220.2090 C   0  0  0  0  0  0  0  0  0  0  0  0
  142.2050   73.0080  219.1710 C   0  0  0  0  0  0  0  0  0  0  0  0
  141.8970   72.6670  217.9780 O   0  0  0  0  0  0  0  0  0  0  0  0
  143.5610   73.3070  219.4020 N   0  0  0  0  0  0  0  0  0  0  0  0
  144.6720   72.9140  218.5730 C   0  0  0  0  0  0  0  0  0  0  0  0
  145.6150   72.3840  219.6580 C   0  0  0  0  0  0  0  0  0  0  0  0
  145.5780   73.5260  220.6490 C   0  0  2  0  0  0  0  0  0  0  0  0
  145.7840   73.0350  221.9180 O   0  0  0  0  0  0  0  0  0  0  0  0
  144.1730   74.0670  220.5040 C   0  0  1  0  0  0  0  0  0  0  0  0
  144.1520   75.4970  220.0750 C   0  0  0  0  0  0  0  0  0  0  0  0
  142.9280   76.0970  219.9130 O   0  0  0  0  0  0  0  0  0  0  0  0
  142.5780   77.2280  219.2490 C   0  0  0  0  0  0  0  0  0  0  0  0
  141.9080   78.3130  219.7340 C   0  0  0  0  0  0  0  0  0  0  0  0
  141.6030   79.4300  218.9530 C   0  0  0  0  0  0  0  0  0  0  0  0
  141.9770   79.4700  217.6370 C   0  0  0  0  0  0  0  0  0  0  0  0
  142.6500   78.3950  217.1190 C   0  0  0  0  0  0  0  0  0  0  0  0
  142.9480   77.3000  217.8930 C   0  0  0  0  0  0  0  0  0  0  0  0
  140.1180   76.2280  222.1840 C   0  0  0  0  0  0  0  0  0  0  0  0
  138.8710   76.8140  222.3030 C   0  0  0  0  0  0  0  0  0  0  0  0
  138.7180   78.1350  222.7070 C   0  0  0  0  0  0  0  0  0  0  0  0
  139.8480   78.8730  222.9980 C   0  0  0  0  0  0  0  0  0  0  0  0
  139.7610   80.1900  223.4040 C   0  0  0  0  0  0  0  0  0  0  0  0
  140.9000   80.9200  223.6930 C   0  0  0  0  0  0  0  0  0  0  0  0
  142.1480   80.3260  223.5720 C   0  0  0  0  0  0  0  0  0  0  0  0
  142.2130   79.0090  223.1640 C   0  0  0  0  0  0  0  0  0  0  0  0
  141.0840   78.2700  222.8740 C   0  0  0  0  0  0  0  0  0  0  0  0
  141.1780   76.9700  222.4720 N   0  0  0  0  0  0  0  0  0  0  0  0
  141.5700   75.2330  220.1960 H   0  0  0  0  0  0  0  0  0  0  0  0
  141.4122   72.4167  221.0554 H   0  0  0  0  0  0  0  0  0  0  0  0
  140.1841   72.7199  219.7981 H   0  0  0  0  0  0  0  0  0  0  0  0
  144.3914   72.1306  217.8536 H   0  0  0  0  0  0  0  0  0  0  0  0
  145.0876   73.7087  217.9360 H   0  0  0  0  0  0  0  0  0  0  0  0
  145.2377   71.4508  220.1016 H   0  0  0  0  0  0  0  0  0  0  0  0
  146.6221   72.1252  219.2991 H   0  0  0  0  0  0  0  0  0  0  0  0
  146.3463   74.2937  220.4749 H   0  0  0  0  0  0  0  0  0  0  0  0
  145.7080   72.0490  221.9640 H   0  0  0  0  0  0  0  0  0  0  0  0
  143.6588   73.9807  221.4726 H   0  0  0  0  0  0  0  0  0  0  0  0
  144.7036   76.0749  220.8312 H   0  0  0  0  0  0  0  0  0  0  0  0
  144.5942   75.4915  219.0678 H   0  0  0  0  0  0  0  0  0  0  0  0
  141.5937   78.3078  220.7881 H   0  0  0  0  0  0  0  0  0  0  0  0
  141.0615   80.2787  219.3961 H   0  0  0  0  0  0  0  0  0  0  0  0
  141.7430   80.3436  217.0108 H   0  0  0  0  0  0  0  0  0  0  0  0
  142.9576   78.4090  216.0630 H   0  0  0  0  0  0  0  0  0  0  0  0
  143.4905   76.4567  217.4408 H   0  0  0  0  0  0  0  0  0  0  0  0
  137.9757   76.2183  222.0715 H   0  0  0  0  0  0  0  0  0  0  0  0
  137.7172   78.5833  222.7931 H   0  0  0  0  0  0  0  0  0  0  0  0
  138.7733   80.6648  223.4989 H   0  0  0  0  0  0  0  0  0  0  0  0
  140.8165   81.9677  224.0176 H   0  0  0  0  0  0  0  0  0  0  0  0
  143.0645   80.8916  223.7961 H   0  0  0  0  0  0  0  0  0  0  0  0
  143.1992   78.5317  223.0666 H   0  0  0  0  0  0  0  0  0  0  0  0
  1  2  2  0
  2  3  1  0
  3  4  1  0
  4  5  1  0
  5  6  2  0
  5  7  1  0
  7  8  1  0
  8  9  1  0
  9 10  1  0
 10 11  1  0
 10 12  1  0
 12 13  1  0
 13 14  1  0
 14 15  1  0
 15 16  2  0
 16 17  1  0
 17 18  2  0
 18 19  1  0
 19 20  2  0
  2 21  1  0
 21 22  2  0
 22 23  1  0
 23 24  2  0
 24 25  1  0
 25 26  2  0
 26 27  1  0
 27 28  2  0
 28 29  1  0
 29 30  2  0
 12  7  1  0
 20 15  1  0
 30 21  1  0
 29 24  1  0
  3 31  1  0
  4 32  1  0
  4 33  1  0
  8 34  1  0
  8 35  1  0
  9 36  1  0
  9 37  1  0
 10 38  1  6
 11 39  1  0
 12 40  1  1
 13 41  1  0
 13 42  1  0
 16 43  1  0
 17 44  1  0
 18 45  1  0
 19 46  1  0
 20 47  1  0
 22 48  1  0
 23 49  1  0
 25 50  1  0
 26 51  1  0
 27 52  1  0
 28 53  1  0
M  END
>  <smiles>  (32) 
O=C(NCC(=O)N1CC[C@H](O)[C@H]1COc1ccccc1)c1ccc2ccccc2n1

>  <score_type>  (32) 
oracle

>  <origin>  (32) 
autodockgpu

>  <m_score__min__energy>  (32) 
-8.9299999999999997

>  <m_primary>  (32) 
energy

>  <rmsd>  (32) 
7.344436961993562

>  <m_score__min__rmsd>  (32) 
7.344436961993562

>  <meeko>  (32) 
{"free_energy": -6.92, "intermolecular_energy": -9.31, "internal_energy": -3.11, "cluster_size": 12, "cluster_id": 6, "rank_in_cluster": 7}

>  <energy>  (32) 
-7.97

>  <cluster_rmsd>  (32) 
0.0

>  <cluster>  (32) 
3

$$$$

     RDKit          3D

 53 56  0  0  0  0  0  0  0  0999 V2000
  140.8830   74.2180  220.6330 O   0  0  0  0  0  0  0  0  0  0  0  0
  140.1320   74.4950  221.6300 C   0  0  0  0  0  0  0  0  0  0  0  0
  139.4180   73.4520  222.2770 N   0  0  0  0  0  0  0  0  0  0  0  0
  139.5160   72.0550  221.8330 C   0  0  0  0  0  0  0  0  0  0  0  0
  138.6500   71.2370  222.7210 C   0  0  0  0  0  0  0  0  0  0  0  0
  138.3290   71.6900  223.8730 O   0  0  0  0  0  0  0  0  0  0  0  0
  138.1410   69.9680  222.3880 N   0  0  0  0  0  0  0  0  0  0  0  0
  137.9790   69.4390  221.0580 C   0  0  0  0  0  0  0  0  0  0  0  0
  136.5490   68.9010  221.1790 C   0  0  0  0  0  0  0  0  0  0  0  0
  136.6490   68.1130  222.4650 C   0  0  2  0  0  0  0  0  0  0  0  0
  135.4250   68.1050  223.0920 O   0  0  0  0  0  0  0  0  0  0  0  0
  137.6610   68.8950  223.2740 C   0  0  1  0  0  0  0  0  0  0  0  0
  138.8650   68.0840  223.6220 C   0  0  0  0  0  0  0  0  0  0  0  0
  139.0920   67.8140  224.9490 O   0  0  0  0  0  0  0  0  0  0  0  0
  139.7000   68.5550  225.9110 C   0  0  0  0  0  0  0  0  0  0  0  0
  139.9620   69.8940  225.8980 C   0  0  0  0  0  0  0  0  0  0  0  0
  140.5950   70.5540  226.9530 C   0  0  0  0  0  0  0  0  0  0  0  0
  140.9850   69.8560  228.0640 C   0  0  0  0  0  0  0  0  0  0  0  0
  140.7370   68.5110  228.1070 C   0  0  0  0  0  0  0  0  0  0  0  0
  140.1130   67.8670  227.0660 C   0  0  0  0  0  0  0  0  0  0  0  0
  140.0180   75.8810  222.0920 C   0  0  0  0  0  0  0  0  0  0  0  0
  138.7590   76.4230  222.2780 C   0  0  0  0  0  0  0  0  0  0  0  0
  138.5830   77.7310  222.7150 C   0  0  0  0  0  0  0  0  0  0  0  0
  139.7020   78.5000  222.9690 C   0  0  0  0  0  0  0  0  0  0  0  0
  139.5900   79.8050  223.4040 C   0  0  0  0  0  0  0  0  0  0  0  0
  140.7180   80.5670  223.6560 C   0  0  0  0  0  0  0  0  0  0  0  0
  141.9770   80.0170  223.4680 C   0  0  0  0  0  0  0  0  0  0  0  0
  142.0660   78.7100  223.0310 C   0  0  0  0  0  0  0  0  0  0  0  0
  140.9490   77.9400  222.7770 C   0  0  0  0  0  0  0  0  0  0  0  0
  141.0660   76.6510  222.3460 N   0  0  0  0  0  0  0  0  0  0  0  0
  138.8160   73.7330  223.0880 H   0  0  0  0  0  0  0  0  0  0  0  0
  139.1730   71.9680  220.7915 H   0  0  0  0  0  0  0  0  0  0  0  0
  140.5582   71.7068  221.8839 H   0  0  0  0  0  0  0  0  0  0  0  0
  138.0600   70.2231  220.2908 H   0  0  0  0  0  0  0  0  0  0  0  0
  138.7347   68.7015  220.7497 H   0  0  0  0  0  0  0  0  0  0  0  0
  135.8154   69.7166  221.2603 H   0  0  0  0  0  0  0  0  0  0  0  0
  136.2084   68.3156  220.3122 H   0  0  0  0  0  0  0  0  0  0  0  0
  136.9416   67.0622  222.3228 H   0  0  0  0  0  0  0  0  0  0  0  0
  134.8220   67.4000  222.7450 H   0  0  0  0  0  0  0  0  0  0  0  0
  137.1832   69.2359  224.2043 H   0  0  0  0  0  0  0  0  0  0  0  0
  138.7726   67.1192  223.1018 H   0  0  0  0  0  0  0  0  0  0  0  0
  139.7178   68.7077  223.3158 H   0  0  0  0  0  0  0  0  0  0  0  0
  139.6610   70.4797  225.0169 H   0  0  0  0  0  0  0  0  0  0  0  0
  140.7806   71.6365  226.8913 H   0  0  0  0  0  0  0  0  0  0  0  0
  141.4855   70.3638  228.9016 H   0  0  0  0  0  0  0  0  0  0  0  0
  141.0431   67.9342  228.9922 H   0  0  0  0  0  0  0  0  0  0  0  0
  139.9316   66.7844  227.1379 H   0  0  0  0  0  0  0  0  0  0  0  0
  137.8736   75.8027  222.0748 H   0  0  0  0  0  0  0  0  0  0  0  0
  137.5736   78.1449  222.8556 H   0  0  0  0  0  0  0  0  0  0  0  0
  138.5927   80.2448  223.5522 H   0  0  0  0  0  0  0  0  0  0  0  0
  140.6159   81.6054  224.0043 H   0  0  0  0  0  0  0  0  0  0  0  0
  142.8840   80.6082  223.6625 H   0  0  0  0  0  0  0  0  0  0  0  0
  143.0616   78.2672  222.8801 H   0  0  0  0  0  0  0  0  0  0  0  0
  1  2  2  0
  2  3  1  0
  3  4  1  0
  4  5  1  0
  5  6  2  0
  5  7  1  0
  7  8  1  0
  8  9  1  0
  9 10  1  0
 10 11  1  0
 10 12  1  0
 12 13  1  0
 13 14  1  0
 14 15  1  0
 15 16  2  0
 16 17  1  0
 17 18  2  0
 18 19  1  0
 19 20  2  0
  2 21  1  0
 21 22  2  0
 22 23  1  0
 23 24  2  0
 24 25  1  0
 25 26  2  0
 26 27  1  0
 27 28  2  0
 28 29  1  0
 29 30  2  0
 12  7  1  0
 20 15  1  0
 30 21  1  0
 29 24  1  0
  3 31  1  0
  4 32  1  0
  4 33  1  0
  8 34  1  0
  8 35  1  0
  9 36  1  0
  9 37  1  0
 10 38  1  6
 11 39  1  0
 12 40  1  1
 13 41  1  0
 13 42  1  0
 16 43  1  0
 17 44  1  0
 18 45  1  0
 19 46  1  0
 20 47  1  0
 22 48  1  0
 23 49  1  0
 25 50  1  0
 26 51  1  0
 27 52  1  0
 28 53  1  0
M  END
>  <smiles>  (33) 
O=C(NCC(=O)N1CC[C@H](O)[C@H]1COc1ccccc1)c1ccc2ccccc2n1

>  <score_type>  (33) 
oracle

>  <origin>  (33) 
autodockgpu

>  <m_score__min__energy>  (33) 
-8.9299999999999997

>  <m_primary>  (33) 
energy

>  <rmsd>  (33) 
8.362710287064793

>  <m_score__min__rmsd>  (33) 
8.362710287064793

>  <meeko>  (33) 
{"free_energy": -7.95, "intermolecular_energy": -10.33, "internal_energy": -1.78, "cluster_size": 1, "cluster_id": 4, "rank_in_cluster": 1}

>  <energy>  (33) 
-7.75

>  <cluster_rmsd>  (33) 
0.43

>  <cluster>  (33) 
3

$$$$

     RDKit          3D

 53 56  0  0  0  0  0  0  0  0999 V2000
  136.7200   70.9840  221.3410 O   0  0  0  0  0  0  0  0  0  0  0  0
  137.1510   71.5990  222.3750 C   0  0  0  0  0  0  0  0  0  0  0  0
  136.8290   72.9700  222.5580 N   0  0  0  0  0  0  0  0  0  0  0  0
  136.0100   73.7090  221.5880 C   0  0  0  0  0  0  0  0  0  0  0  0
  136.9320   74.4500  220.6900 C   0  0  0  0  0  0  0  0  0  0  0  0
  136.4510   75.1420  219.7290 O   0  0  0  0  0  0  0  0  0  0  0  0
  138.3340   74.4520  220.8160 N   0  0  0  0  0  0  0  0  0  0  0  0
  139.2840   74.2050  219.7610 C   0  0  0  0  0  0  0  0  0  0  0  0
  140.1980   73.2070  220.4810 C   0  0  0  0  0  0  0  0  0  0  0  0
  140.4510   73.9390  221.7790 C   0  0  2  0  0  0  0  0  0  0  0  0
  140.6650   73.0250  222.7850 O   0  0  0  0  0  0  0  0  0  0  0  0
  139.1620   74.6970  222.0090 C   0  0  1  0  0  0  0  0  0  0  0  0
  139.3690   76.1750  222.0650 C   0  0  0  0  0  0  0  0  0  0  0  0
  140.6420   76.6490  221.8630 O   0  0  0  0  0  0  0  0  0  0  0  0
  141.1830   77.8680  222.1180 C   0  0  0  0  0  0  0  0  0  0  0  0
  141.5460   78.8290  221.2200 C   0  0  0  0  0  0  0  0  0  0  0  0
  142.0940   80.0560  221.6000 C   0  0  0  0  0  0  0  0  0  0  0  0
  142.2900   80.3390  222.9250 C   0  0  0  0  0  0  0  0  0  0  0  0
  141.9370   79.3940  223.8500 C   0  0  0  0  0  0  0  0  0  0  0  0
  141.3980   78.1890  223.4710 C   0  0  0  0  0  0  0  0  0  0  0  0
  137.9700   70.8840  223.3580 C   0  0  0  0  0  0  0  0  0  0  0  0
  137.9330   69.5010  223.3820 C   0  0  0  0  0  0  0  0  0  0  0  0
  138.6850   68.7650  224.2900 C   0  0  0  0  0  0  0  0  0  0  0  0
  139.4890   69.4410  225.1850 C   0  0  0  0  0  0  0  0  0  0  0  0
  140.2590   68.7650  226.1110 C   0  0  0  0  0  0  0  0  0  0  0  0
  141.0620   69.4530  227.0040 C   0  0  0  0  0  0  0  0  0  0  0  0
  141.0940   70.8390  226.9740 C   0  0  0  0  0  0  0  0  0  0  0  0
  140.3160   71.4960  226.0420 C   0  0  0  0  0  0  0  0  0  0  0  0
  139.5120   70.8210  225.1450 C   0  0  0  0  0  0  0  0  0  0  0  0
  138.7530   71.4960  224.2340 N   0  0  0  0  0  0  0  0  0  0  0  0
  137.2080   73.4270  223.4220 H   0  0  0  0  0  0  0  0  0  0  0  0
  135.3995   73.0069  221.0013 H   0  0  0  0  0  0  0  0  0  0  0  0
  135.3342   74.4055  222.1059 H   0  0  0  0  0  0  0  0  0  0  0  0
  138.8079   73.7611  218.8743 H   0  0  0  0  0  0  0  0  0  0  0  0
  139.7856   75.0984  219.3607 H   0  0  0  0  0  0  0  0  0  0  0  0
  139.6925   72.2449  220.6508 H   0  0  0  0  0  0  0  0  0  0  0  0
  141.1083   72.9399  219.9242 H   0  0  0  0  0  0  0  0  0  0  0  0
  141.3309   74.5986  221.7541 H   0  0  0  0  0  0  0  0  0  0  0  0
  139.9550   73.0410  223.4740 H   0  0  0  0  0  0  0  0  0  0  0  0
  138.7211   74.3653  222.9606 H   0  0  0  0  0  0  0  0  0  0  0  0
  138.7244   76.6265  221.2964 H   0  0  0  0  0  0  0  0  0  0  0  0
  139.1311   76.4501  223.1031 H   0  0  0  0  0  0  0  0  0  0  0  0
  141.4004   78.6282  220.1483 H   0  0  0  0  0  0  0  0  0  0  0  0
  142.3685   80.7960  220.8338 H   0  0  0  0  0  0  0  0  0  0  0  0
  142.7203   81.3016  223.2383 H   0  0  0  0  0  0  0  0  0  0  0  0
  142.0881   79.6040  224.9191 H   0  0  0  0  0  0  0  0  0  0  0  0
  141.1274   77.4559  224.2451 H   0  0  0  0  0  0  0  0  0  0  0  0
  137.2914   68.9700  222.6634 H   0  0  0  0  0  0  0  0  0  0  0  0
  138.6402   67.6659  224.2951 H   0  0  0  0  0  0  0  0  0  0  0  0
  140.2338   67.6656  226.1392 H   0  0  0  0  0  0  0  0  0  0  0  0
  141.6725   68.9024  227.7348 H   0  0  0  0  0  0  0  0  0  0  0  0
  141.7252   71.4023  227.6771 H   0  0  0  0  0  0  0  0  0  0  0  0
  140.3373   72.5954  226.0129 H   0  0  0  0  0  0  0  0  0  0  0  0
  1  2  2  0
  2  3  1  0
  3  4  1  0
  4  5  1  0
  5  6  2  0
  5  7  1  0
  7  8  1  0
  8  9  1  0
  9 10  1  0
 10 11  1  0
 10 12  1  0
 12 13  1  0
 13 14  1  0
 14 15  1  0
 15 16  2  0
 16 17  1  0
 17 18  2  0
 18 19  1  0
 19 20  2  0
  2 21  1  0
 21 22  2  0
 22 23  1  0
 23 24  2  0
 24 25  1  0
 25 26  2  0
 26 27  1  0
 27 28  2  0
 28 29  1  0
 29 30  2  0
 12  7  1  0
 20 15  1  0
 30 21  1  0
 29 24  1  0
  3 31  1  0
  4 32  1  0
  4 33  1  0
  8 34  1  0
  8 35  1  0
  9 36  1  0
  9 37  1  0
 10 38  1  6
 11 39  1  0
 12 40  1  1
 13 41  1  0
 13 42  1  0
 16 43  1  0
 17 44  1  0
 18 45  1  0
 19 46  1  0
 20 47  1  0
 22 48  1  0
 23 49  1  0
 25 50  1  0
 26 51  1  0
 27 52  1  0
 28 53  1  0
M  END
>  <smiles>  (34) 
O=C(NCC(=O)N1CC[C@H](O)[C@H]1COc1ccccc1)c1ccc2ccccc2n1

>  <score_type>  (34) 
oracle

>  <origin>  (34) 
autodockgpu

>  <m_score__min__energy>  (34) 
-8.9299999999999997

>  <m_primary>  (34) 
energy

>  <rmsd>  (34) 
3.1499253738031783

>  <m_score__min__rmsd>  (34) 
3.1499253738031783

>  <meeko>  (34) 
{"free_energy": -7.04, "intermolecular_energy": -9.43, "internal_energy": -2.65, "cluster_size": 21, "cluster_id": 1, "rank_in_cluster": 17}

>  <energy>  (34) 
-7.67

>  <cluster_rmsd>  (34) 
0.38

>  <cluster>  (34) 
3

$$$$

     RDKit          3D

 53 56  0  0  0  0  0  0  0  0999 V2000
  137.1530   76.3490  222.2660 O   0  0  0  0  0  0  0  0  0  0  0  0
  138.4240   76.3790  222.3990 C   0  0  0  0  0  0  0  0  0  0  0  0
  139.1750   75.1890  222.2100 N   0  0  0  0  0  0  0  0  0  0  0  0
  138.5320   73.9140  221.8640 C   0  0  0  0  0  0  0  0  0  0  0  0
  139.5000   72.8260  222.1550 C   0  0  0  0  0  0  0  0  0  0  0  0
  140.7060   73.1240  222.4550 O   0  0  0  0  0  0  0  0  0  0  0  0
  139.1880   71.4540  222.1250 N   0  0  0  0  0  0  0  0  0  0  0  0
  140.0060   70.4060  221.5690 C   0  0  0  0  0  0  0  0  0  0  0  0
  138.9400   69.6670  220.7520 C   0  0  0  0  0  0  0  0  0  0  0  0
  137.8460   69.5160  221.7840 C   0  0  2  0  0  0  0  0  0  0  0  0
  136.6230   69.4980  221.1520 O   0  0  0  0  0  0  0  0  0  0  0  0
  137.9930   70.7590  222.6330 C   0  0  1  0  0  0  0  0  0  0  0  0
  138.2820   70.4440  224.0640 C   0  0  0  0  0  0  0  0  0  0  0  0
  139.5850   70.5290  224.4860 O   0  0  0  0  0  0  0  0  0  0  0  0
  140.1030   70.8580  225.6970 C   0  0  0  0  0  0  0  0  0  0  0  0
  140.9440   71.8890  225.9980 C   0  0  0  0  0  0  0  0  0  0  0  0
  141.4140   72.1340  227.2900 C   0  0  0  0  0  0  0  0  0  0  0  0
  141.0350   71.3210  228.3240 C   0  0  0  0  0  0  0  0  0  0  0  0
  140.1930   70.2760  228.0530 C   0  0  0  0  0  0  0  0  0  0  0  0
  139.7330   70.0400  226.7800 C   0  0  0  0  0  0  0  0  0  0  0  0
  139.0900   77.6380  222.7430 C   0  0  0  0  0  0  0  0  0  0  0  0
  138.3170   78.7320  223.0910 C   0  0  0  0  0  0  0  0  0  0  0  0
  138.8880   79.9540  223.4270 C   0  0  0  0  0  0  0  0  0  0  0  0
  140.2640   80.0670  223.4130 C   0  0  0  0  0  0  0  0  0  0  0  0
  140.8880   81.2560  223.7380 C   0  0  0  0  0  0  0  0  0  0  0  0
  142.2680   81.3580  223.7210 C   0  0  0  0  0  0  0  0  0  0  0  0
  143.0370   80.2580  223.3720 C   0  0  0  0  0  0  0  0  0  0  0  0
  142.3930   79.0800  223.0500 C   0  0  0  0  0  0  0  0  0  0  0  0
  141.0180   78.9650  223.0640 C   0  0  0  0  0  0  0  0  0  0  0  0
  140.4070   77.7880  222.7410 N   0  0  0  0  0  0  0  0  0  0  0  0
  140.2130   75.2680  222.3310 H   0  0  0  0  0  0  0  0  0  0  0  0
  137.6224   73.7774  222.4673 H   0  0  0  0  0  0  0  0  0  0  0  0
  138.2473   73.9022  220.8015 H   0  0  0  0  0  0  0  0  0  0  0  0
  140.8089   70.8053  220.9319 H   0  0  0  0  0  0  0  0  0  0  0  0
  140.5455   69.7906  222.3040 H   0  0  0  0  0  0  0  0  0  0  0  0
  138.6045   70.2634  219.8908 H   0  0  0  0  0  0  0  0  0  0  0  0
  139.2815   68.7200  220.3086 H   0  0  0  0  0  0  0  0  0  0  0  0
  137.9146   68.5908  222.3750 H   0  0  0  0  0  0  0  0  0  0  0  0
  136.4750   70.2950  220.5840 H   0  0  0  0  0  0  0  0  0  0  0  0
  137.0583   71.3365  222.5796 H   0  0  0  0  0  0  0  0  0  0  0  0
  137.6917   71.1392  224.6790 H   0  0  0  0  0  0  0  0  0  0  0  0
  138.0241   69.3801  224.1717 H   0  0  0  0  0  0  0  0  0  0  0  0
  141.2665   72.5576  225.1863 H   0  0  0  0  0  0  0  0  0  0  0  0
  142.0898   72.9816  227.4770 H   0  0  0  0  0  0  0  0  0  0  0  0
  141.3977   71.5026  229.3465 H   0  0  0  0  0  0  0  0  0  0  0  0
  139.8783   69.6117  228.8713 H   0  0  0  0  0  0  0  0  0  0  0  0
  139.0581   69.1896  226.6032 H   0  0  0  0  0  0  0  0  0  0  0  0
  137.2216   78.6318  223.1020 H   0  0  0  0  0  0  0  0  0  0  0  0
  138.2568   80.8130  223.6984 H   0  0  0  0  0  0  0  0  0  0  0  0
  140.2812   82.1312  224.0133 H   0  0  0  0  0  0  0  0  0  0  0  0
  142.7538   82.3093  223.9837 H   0  0  0  0  0  0  0  0  0  0  0  0
  144.1349   80.3226  223.3522 H   0  0  0  0  0  0  0  0  0  0  0  0
  142.9966   78.2032  222.7728 H   0  0  0  0  0  0  0  0  0  0  0  0
  1  2  2  0
  2  3  1  0
  3  4  1  0
  4  5  1  0
  5  6  2  0
  5  7  1  0
  7  8  1  0
  8  9  1  0
  9 10  1  0
 10 11  1  0
 10 12  1  0
 12 13  1  0
 13 14  1  0
 14 15  1  0
 15 16  2  0
 16 17  1  0
 17 18  2  0
 18 19  1  0
 19 20  2  0
  2 21  1  0
 21 22  2  0
 22 23  1  0
 23 24  2  0
 24 25  1  0
 25 26  2  0
 26 27  1  0
 27 28  2  0
 28 29  1  0
 29 30  2  0
 12  7  1  0
 20 15  1  0
 30 21  1  0
 29 24  1  0
  3 31  1  0
  4 32  1  0
  4 33  1  0
  8 34  1  0
  8 35  1  0
  9 36  1  0
  9 37  1  0
 10 38  1  1
 11 39  1  0
 12 40  1  1
 13 41  1  0
 13 42  1  0
 16 43  1  0
 17 44  1  0
 18 45  1  0
 19 46  1  0
 20 47  1  0
 22 48  1  0
 23 49  1  0
 25 50  1  0
 26 51  1  0
 27 52  1  0
 28 53  1  0
M  END
>  <smiles>  (35) 
O=C(NCC(=O)N1CC[C@H](O)[C@H]1COc1ccccc1)c1ccc2ccccc2n1

>  <score_type>  (35) 
oracle

>  <origin>  (35) 
autodockgpu

>  <m_score__min__energy>  (35) 
-8.9299999999999997

>  <m_primary>  (35) 
energy

>  <rmsd>  (35) 
8.367638725800921

>  <m_score__min__rmsd>  (35) 
8.367638725800921

>  <meeko>  (35) 
{"free_energy": -7.68, "intermolecular_energy": -10.07, "internal_energy": -2.15, "cluster_size": 10, "cluster_id": 2, "rank_in_cluster": 7}

>  <energy>  (35) 
-7.59

>  <cluster_rmsd>  (35) 
0.71

>  <cluster>  (35) 
3

$$$$

     RDKit          3D

 53 56  0  0  0  0  0  0  0  0999 V2000
  137.2670   76.3680  222.1750 O   0  0  0  0  0  0  0  0  0  0  0  0
  138.5320   76.3800  222.3530 C   0  0  0  0  0  0  0  0  0  0  0  0
  139.2730   75.1800  222.1870 N   0  0  0  0  0  0  0  0  0  0  0  0
  138.6240   73.9140  221.8170 C   0  0  0  0  0  0  0  0  0  0  0  0
  139.5330   72.8080  222.2120 C   0  0  0  0  0  0  0  0  0  0  0  0
  140.6750   73.0850  222.7170 O   0  0  0  0  0  0  0  0  0  0  0  0
  139.2300   71.4410  222.0730 N   0  0  0  0  0  0  0  0  0  0  0  0
  140.0580   70.4460  221.4400 C   0  0  0  0  0  0  0  0  0  0  0  0
  139.0010   69.7680  220.5610 C   0  0  0  0  0  0  0  0  0  0  0  0
  137.9020   69.5280  221.5710 C   0  0  2  0  0  0  0  0  0  0  0  0
  136.6830   69.5530  220.9340 O   0  0  0  0  0  0  0  0  0  0  0  0
  138.0370   70.7010  222.5170 C   0  0  1  0  0  0  0  0  0  0  0  0
  138.3220   70.2750  223.9200 C   0  0  0  0  0  0  0  0  0  0  0  0
  139.5920   70.4710  224.4020 O   0  0  0  0  0  0  0  0  0  0  0  0
  140.0320   70.7180  225.6620 C   0  0  0  0  0  0  0  0  0  0  0  0
  139.8190   69.9740  226.7860 C   0  0  0  0  0  0  0  0  0  0  0  0
  140.3270   70.3260  228.0380 C   0  0  0  0  0  0  0  0  0  0  0  0
  141.0750   71.4630  228.1800 C   0  0  0  0  0  0  0  0  0  0  0  0
  141.3050   72.2320  227.0710 C   0  0  0  0  0  0  0  0  0  0  0  0
  140.8040   71.8810  225.8420 C   0  0  0  0  0  0  0  0  0  0  0  0
  139.2040   77.6300  222.7220 C   0  0  0  0  0  0  0  0  0  0  0  0
  138.4350   78.7200  223.0890 C   0  0  0  0  0  0  0  0  0  0  0  0
  139.0100   79.9320  223.4500 C   0  0  0  0  0  0  0  0  0  0  0  0
  140.3870   80.0400  223.4410 C   0  0  0  0  0  0  0  0  0  0  0  0
  141.0160   81.2190  223.7900 C   0  0  0  0  0  0  0  0  0  0  0  0
  142.3970   81.3150  223.7770 C   0  0  0  0  0  0  0  0  0  0  0  0
  143.1610   80.2190  223.4080 C   0  0  0  0  0  0  0  0  0  0  0  0
  142.5120   79.0500  223.0630 C   0  0  0  0  0  0  0  0  0  0  0  0
  141.1360   78.9400  223.0720 C   0  0  0  0  0  0  0  0  0  0  0  0
  140.5210   77.7730  222.7250 N   0  0  0  0  0  0  0  0  0  0  0  0
  140.3070   75.2440  222.3450 H   0  0  0  0  0  0  0  0  0  0  0  0
  137.6641   73.8167  222.3453 H   0  0  0  0  0  0  0  0  0  0  0  0
  138.4278   73.8835  220.7351 H   0  0  0  0  0  0  0  0  0  0  0  0
  140.8614   70.8998  220.8412 H   0  0  0  0  0  0  0  0  0  0  0  0
  140.5981   69.7775  222.1265 H   0  0  0  0  0  0  0  0  0  0  0  0
  138.6661   70.4292  219.7482 H   0  0  0  0  0  0  0  0  0  0  0  0
  139.3513   68.8614  220.0459 H   0  0  0  0  0  0  0  0  0  0  0  0
  137.9732   68.5586  222.0860 H   0  0  0  0  0  0  0  0  0  0  0  0
  136.3540   68.6480  220.7040 H   0  0  0  0  0  0  0  0  0  0  0  0
  137.0988   71.2751  222.5042 H   0  0  0  0  0  0  0  0  0  0  0  0
  137.6329   70.8262  224.5768 H   0  0  0  0  0  0  0  0  0  0  0  0
  138.1949   69.1824  223.9094 H   0  0  0  0  0  0  0  0  0  0  0  0
  139.2199   69.0553  226.7018 H   0  0  0  0  0  0  0  0  0  0  0  0
  140.1256   69.6884  228.9115 H   0  0  0  0  0  0  0  0  0  0  0  0
  141.4813   71.7518  229.1606 H   0  0  0  0  0  0  0  0  0  0  0  0
  141.9035   73.1500  227.1666 H   0  0  0  0  0  0  0  0  0  0  0  0
  141.0114   72.5256  224.9751 H   0  0  0  0  0  0  0  0  0  0  0  0
  137.3392   78.6244  223.0951 H   0  0  0  0  0  0  0  0  0  0  0  0
  138.3816   80.7880  223.7371 H   0  0  0  0  0  0  0  0  0  0  0  0
  140.4129   82.0915  224.0816 H   0  0  0  0  0  0  0  0  0  0  0  0
  142.8868   82.2588  224.0588 H   0  0  0  0  0  0  0  0  0  0  0  0
  144.2592   80.2790  223.3904 H   0  0  0  0  0  0  0  0  0  0  0  0
  143.1125   78.1759  222.7708 H   0  0  0  0  0  0  0  0  0  0  0  0
  1  2  2  0
  2  3  1  0
  3  4  1  0
  4  5  1  0
  5  6  2  0
  5  7  1  0
  7  8  1  0
  8  9  1  0
  9 10  1  0
 10 11  1  0
 10 12  1  0
 12 13  1  0
 13 14  1  0
 14 15  1  0
 15 16  2  0
 16 17  1  0
 17 18  2  0
 18 19  1  0
 19 20  2  0
  2 21  1  0
 21 22  2  0
 22 23  1  0
 23 24  2  0
 24 25  1  0
 25 26  2  0
 26 27  1  0
 27 28  2  0
 28 29  1  0
 29 30  2  0
 12  7  1  0
 20 15  1  0
 30 21  1  0
 29 24  1  0
  3 31  1  0
  4 32  1  0
  4 33  1  0
  8 34  1  0
  8 35  1  0
  9 36  1  0
  9 37  1  0
 10 38  1  1
 11 39  1  0
 12 40  1  1
 13 41  1  0
 13 42  1  0
 16 43  1  0
 17 44  1  0
 18 45  1  0
 19 46  1  0
 20 47  1  0
 22 48  1  0
 23 49  1  0
 25 50  1  0
 26 51  1  0
 27 52  1  0
 28 53  1  0
M  END
>  <smiles>  (36) 
O=C(NCC(=O)N1CC[C@H](O)[C@H]1COc1ccccc1)c1ccc2ccccc2n1

>  <score_type>  (36) 
oracle

>  <origin>  (36) 
autodockgpu

>  <m_score__min__energy>  (36) 
-8.9299999999999997

>  <m_primary>  (36) 
energy

>  <rmsd>  (36) 
8.373975905490855

>  <m_score__min__rmsd>  (36) 
8.373975905490855

>  <meeko>  (36) 
{"free_energy": -7.66, "intermolecular_energy": -10.05, "internal_energy": -2.14, "cluster_size": 10, "cluster_id": 2, "rank_in_cluster": 9}

>  <energy>  (36) 
-7.45

>  <cluster_rmsd>  (36) 
0.85

>  <cluster>  (36) 
3

$$$$

     RDKit          3D

 53 56  0  0  0  0  0  0  0  0999 V2000
  139.8460   70.7210  221.1220 O   0  0  0  0  0  0  0  0  0  0  0  0
  139.9410   71.5280  222.1090 C   0  0  0  0  0  0  0  0  0  0  0  0
  140.0400   72.9230  221.8630 N   0  0  0  0  0  0  0  0  0  0  0  0
  140.0380   73.4710  220.4990 C   0  0  0  0  0  0  0  0  0  0  0  0
  140.6710   74.8130  220.5520 C   0  0  0  0  0  0  0  0  0  0  0  0
  140.8290   75.3880  221.6830 O   0  0  0  0  0  0  0  0  0  0  0  0
  141.1230   75.5240  219.4250 N   0  0  0  0  0  0  0  0  0  0  0  0
  140.4080   75.7010  218.1860 C   0  0  0  0  0  0  0  0  0  0  0  0
  141.5290   75.3540  217.2010 C   0  0  0  0  0  0  0  0  0  0  0  0
  142.6520   76.2140  217.7330 C   0  0  2  0  0  0  0  0  0  0  0  0
  143.8580   75.6100  217.4600 O   0  0  0  0  0  0  0  0  0  0  0  0
  142.3930   76.2430  219.2230 C   0  0  1  0  0  0  0  0  0  0  0  0
  142.1640   77.6260  219.7380 C   0  0  0  0  0  0  0  0  0  0  0  0
  141.7790   77.7640  221.0480 O   0  0  0  0  0  0  0  0  0  0  0  0
  141.8720   78.8240  221.8910 C   0  0  0  0  0  0  0  0  0  0  0  0
  142.0690   80.1360  221.5700 C   0  0  0  0  0  0  0  0  0  0  0  0
  142.1460   81.1490  222.5280 C   0  0  0  0  0  0  0  0  0  0  0  0
  142.0220   80.8480  223.8570 C   0  0  0  0  0  0  0  0  0  0  0  0
  141.8240   79.5410  224.2110 C   0  0  0  0  0  0  0  0  0  0  0  0
  141.7490   78.5480  223.2650 C   0  0  0  0  0  0  0  0  0  0  0  0
  139.9450   71.0060  223.4780 C   0  0  0  0  0  0  0  0  0  0  0  0
  139.3410   69.7880  223.7330 C   0  0  0  0  0  0  0  0  0  0  0  0
  139.3100   69.2390  225.0090 C   0  0  0  0  0  0  0  0  0  0  0  0
  139.9040   69.9360  226.0430 C   0  0  0  0  0  0  0  0  0  0  0  0
  139.9050   69.4420  227.3330 C   0  0  0  0  0  0  0  0  0  0  0  0
  140.5040   70.1480  228.3610 C   0  0  0  0  0  0  0  0  0  0  0  0
  141.1080   71.3690  228.0990 C   0  0  0  0  0  0  0  0  0  0  0  0
  141.0940   71.8450  226.8030 C   0  0  0  0  0  0  0  0  0  0  0  0
  140.5020   71.1500  225.7690 C   0  0  0  0  0  0  0  0  0  0  0  0
  140.5030   71.6440  224.4970 N   0  0  0  0  0  0  0  0  0  0  0  0
  140.1150   73.5410  222.7060 H   0  0  0  0  0  0  0  0  0  0  0  0
  140.6109   72.8125  219.8296 H   0  0  0  0  0  0  0  0  0  0  0  0
  139.0101   73.5443  220.1142 H   0  0  0  0  0  0  0  0  0  0  0  0
  139.5567   75.0096  218.1002 H   0  0  0  0  0  0  0  0  0  0  0  0
  139.9487   76.6906  218.0457 H   0  0  0  0  0  0  0  0  0  0  0  0
  141.7850   74.2849  217.2397 H   0  0  0  0  0  0  0  0  0  0  0  0
  141.2788   75.5347  216.1452 H   0  0  0  0  0  0  0  0  0  0  0  0
  142.6906   77.2204  217.2906 H   0  0  0  0  0  0  0  0  0  0  0  0
  144.6250   76.0890  217.8630 H   0  0  0  0  0  0  0  0  0  0  0  0
  143.2622   75.8117  219.7411 H   0  0  0  0  0  0  0  0  0  0  0  0
  143.1039   78.1833  219.6115 H   0  0  0  0  0  0  0  0  0  0  0  0
  141.3089   78.0009  219.1563 H   0  0  0  0  0  0  0  0  0  0  0  0
  142.1717   80.4075  220.5090 H   0  0  0  0  0  0  0  0  0  0  0  0
  142.3066   82.1908  222.2137 H   0  0  0  0  0  0  0  0  0  0  0  0
  142.0800   81.6367  224.6216 H   0  0  0  0  0  0  0  0  0  0  0  0
  141.7229   79.2804  225.2749 H   0  0  0  0  0  0  0  0  0  0  0  0
  141.5885   77.5095  223.5903 H   0  0  0  0  0  0  0  0  0  0  0  0
  138.8724   69.2390  222.9029 H   0  0  0  0  0  0  0  0  0  0  0  0
  138.8228   68.2699  225.1918 H   0  0  0  0  0  0  0  0  0  0  0  0
  139.4239   68.4759  227.5454 H   0  0  0  0  0  0  0  0  0  0  0  0
  140.5013   69.7422  229.3834 H   0  0  0  0  0  0  0  0  0  0  0  0
  141.5869   71.9445  228.9049 H   0  0  0  0  0  0  0  0  0  0  0  0
  141.5716   72.8122  226.5876 H   0  0  0  0  0  0  0  0  0  0  0  0
  1  2  2  0
  2  3  1  0
  3  4  1  0
  4  5  1  0
  5  6  2  0
  5  7  1  0
  7  8  1  0
  8  9  1  0
  9 10  1  0
 10 11  1  0
 10 12  1  0
 12 13  1  0
 13 14  1  0
 14 15  1  0
 15 16  2  0
 16 17  1  0
 17 18  2  0
 18 19  1  0
 19 20  2  0
  2 21  1  0
 21 22  2  0
 22 23  1  0
 23 24  2  0
 24 25  1  0
 25 26  2  0
 26 27  1  0
 27 28  2  0
 28 29  1  0
 29 30  2  0
 12  7  1  0
 20 15  1  0
 30 21  1  0
 29 24  1  0
  3 31  1  0
  4 32  1  0
  4 33  1  0
  8 34  1  0
  8 35  1  0
  9 36  1  0
  9 37  1  0
 10 38  1  6
 11 39  1  0
 12 40  1  1
 13 41  1  0
 13 42  1  0
 16 43  1  0
 17 44  1  0
 18 45  1  0
 19 46  1  0
 20 47  1  0
 22 48  1  0
 23 49  1  0
 25 50  1  0
 26 51  1  0
 27 52  1  0
 28 53  1  0
M  END
>  <smiles>  (37) 
O=C(NCC(=O)N1CC[C@H](O)[C@H]1COc1ccccc1)c1ccc2ccccc2n1

>  <score_type>  (37) 
oracle

>  <origin>  (37) 
autodockgpu

>  <m_score__min__energy>  (37) 
-8.9299999999999997

>  <m_primary>  (37) 
energy

>  <rmsd>  (37) 
1.6557136654933051

>  <m_score__min__rmsd>  (37) 
1.6557136654933051

>  <meeko>  (37) 
{"free_energy": -7.95, "intermolecular_energy": -10.34, "internal_energy": -1.82, "cluster_size": 21, "cluster_id": 1, "rank_in_cluster": 12}

>  <energy>  (37) 
-7.95

>  <cluster_rmsd>  (37) 
0.0

>  <cluster>  (37) 
4

$$$$

     RDKit          3D

 53 56  0  0  0  0  0  0  0  0999 V2000
  139.0700   74.8570  222.3420 O   0  0  0  0  0  0  0  0  0  0  0  0
  140.1730   75.4710  222.1370 C   0  0  0  0  0  0  0  0  0  0  0  0
  141.2780   74.7590  221.6020 N   0  0  0  0  0  0  0  0  0  0  0  0
  141.1940   73.3280  221.2740 C   0  0  0  0  0  0  0  0  0  0  0  0
  141.8710   73.1230  219.9690 C   0  0  0  0  0  0  0  0  0  0  0  0
  141.1990   72.6770  218.9770 O   0  0  0  0  0  0  0  0  0  0  0  0
  143.2320   73.3880  219.7280 N   0  0  0  0  0  0  0  0  0  0  0  0
  144.0110   72.9000  218.6190 C   0  0  0  0  0  0  0  0  0  0  0  0
  145.2480   72.4120  219.3810 C   0  0  0  0  0  0  0  0  0  0  0  0
  145.5470   73.6190  220.2400 C   0  0  2  0  0  0  0  0  0  0  0  0
  146.1450   73.2100  221.4100 O   0  0  0  0  0  0  0  0  0  0  0  0
  144.1770   74.2000  220.5140 C   0  0  1  0  0  0  0  0  0  0  0  0
  144.0360   75.5970  220.0050 C   0  0  0  0  0  0  0  0  0  0  0  0
  142.8280   75.9580  219.4600 O   0  0  0  0  0  0  0  0  0  0  0  0
  142.3220   77.1830  219.1670 C   0  0  0  0  0  0  0  0  0  0  0  0
  142.9620   78.2390  218.5850 C   0  0  0  0  0  0  0  0  0  0  0  0
  142.3350   79.4590  218.3270 C   0  0  0  0  0  0  0  0  0  0  0  0
  141.0200   79.6390  218.6600 C   0  0  0  0  0  0  0  0  0  0  0  0
  140.3500   78.6000  219.2460 C   0  0  0  0  0  0  0  0  0  0  0  0
  140.9720   77.4010  219.4980 C   0  0  0  0  0  0  0  0  0  0  0  0
  140.2830   76.8970  222.4550 C   0  0  0  0  0  0  0  0  0  0  0  0
  139.1260   77.6410  222.6050 C   0  0  0  0  0  0  0  0  0  0  0  0
  139.1630   78.9970  222.9060 C   0  0  0  0  0  0  0  0  0  0  0  0
  140.3920   79.6080  223.0600 C   0  0  0  0  0  0  0  0  0  0  0  0
  140.4920   80.9530  223.3590 C   0  0  0  0  0  0  0  0  0  0  0  0
  141.7290   81.5540  223.5110 C   0  0  0  0  0  0  0  0  0  0  0  0
  142.8850   80.8020  223.3590 C   0  0  0  0  0  0  0  0  0  0  0  0
  142.7620   79.4600  223.0590 C   0  0  0  0  0  0  0  0  0  0  0  0
  141.5340   78.8480  222.9060 C   0  0  0  0  0  0  0  0  0  0  0  0
  141.4420   77.5200  222.6100 N   0  0  0  0  0  0  0  0  0  0  0  0
  142.1590   75.3070  221.4530 H   0  0  0  0  0  0  0  0  0  0  0  0
  141.6953   72.7351  222.0532 H   0  0  0  0  0  0  0  0  0  0  0  0
  140.1434   73.0070  221.2173 H   0  0  0  0  0  0  0  0  0  0  0  0
  143.5040   72.0798  218.0897 H   0  0  0  0  0  0  0  0  0  0  0  0
  144.2079   73.6340  217.8237 H   0  0  0  0  0  0  0  0  0  0  0  0
  145.0230   71.5258  219.9926 H   0  0  0  0  0  0  0  0  0  0  0  0
  146.0818   72.0930  218.7384 H   0  0  0  0  0  0  0  0  0  0  0  0
  146.2276   74.3435  219.7689 H   0  0  0  0  0  0  0  0  0  0  0  0
  145.9750   72.2560  221.6130 H   0  0  0  0  0  0  0  0  0  0  0  0
  144.0026   74.1998  221.6001 H   0  0  0  0  0  0  0  0  0  0  0  0
  144.2321   76.2755  220.8483 H   0  0  0  0  0  0  0  0  0  0  0  0
  144.7490   75.6625  219.1699 H   0  0  0  0  0  0  0  0  0  0  0  0
  144.0199   78.1232  218.3067 H   0  0  0  0  0  0  0  0  0  0  0  0
  142.8989   80.2772  217.8552 H   0  0  0  0  0  0  0  0  0  0  0  0
  140.5141   80.5954  218.4615 H   0  0  0  0  0  0  0  0  0  0  0  0
  139.2925   78.7270  219.5208 H   0  0  0  0  0  0  0  0  0  0  0  0
  140.3992   76.5899  219.9712 H   0  0  0  0  0  0  0  0  0  0  0  0
  138.1513   77.1460  222.4827 H   0  0  0  0  0  0  0  0  0  0  0  0
  138.2323   79.5722  223.0194 H   0  0  0  0  0  0  0  0  0  0  0  0
  139.5777   81.5531  223.4776 H   0  0  0  0  0  0  0  0  0  0  0  0
  141.7957   82.6253  223.7517 H   0  0  0  0  0  0  0  0  0  0  0  0
  143.8764   81.2643  223.4748 H   0  0  0  0  0  0  0  0  0  0  0  0
  143.6742   78.8574  222.9377 H   0  0  0  0  0  0  0  0  0  0  0  0
  1  2  2  0
  2  3  1  0
  3  4  1  0
  4  5  1  0
  5  6  2  0
  5  7  1  0
  7  8  1  0
  8  9  1  0
  9 10  1  0
 10 11  1  0
 10 12  1  0
 12 13  1  0
 13 14  1  0
 14 15  1  0
 15 16  2  0
 16 17  1  0
 17 18  2  0
 18 19  1  0
 19 20  2  0
  2 21  1  0
 21 22  2  0
 22 23  1  0
 23 24  2  0
 24 25  1  0
 25 26  2  0
 26 27  1  0
 27 28  2  0
 28 29  1  0
 29 30  2  0
 12  7  1  0
 20 15  1  0
 30 21  1  0
 29 24  1  0
  3 31  1  0
  4 32  1  0
  4 33  1  0
  8 34  1  0
  8 35  1  0
  9 36  1  0
  9 37  1  0
 10 38  1  6
 11 39  1  0
 12 40  1  1
 13 41  1  0
 13 42  1  0
 16 43  1  0
 17 44  1  0
 18 45  1  0
 19 46  1  0
 20 47  1  0
 22 48  1  0
 23 49  1  0
 25 50  1  0
 26 51  1  0
 27 52  1  0
 28 53  1  0
M  END
>  <smiles>  (38) 
O=C(NCC(=O)N1CC[C@H](O)[C@H]1COc1ccccc1)c1ccc2ccccc2n1

>  <score_type>  (38) 
oracle

>  <origin>  (38) 
autodockgpu

>  <m_score__min__energy>  (38) 
-8.9299999999999997

>  <m_primary>  (38) 
energy

>  <rmsd>  (38) 
7.619100633072625

>  <m_score__min__rmsd>  (38) 
7.619100633072625

>  <meeko>  (38) 
{"free_energy": -6.77, "intermolecular_energy": -9.16, "internal_energy": -3.38, "cluster_size": 12, "cluster_id": 6, "rank_in_cluster": 8}

>  <energy>  (38) 
-7.72

>  <cluster_rmsd>  (38) 
0.0

>  <cluster>  (38) 
5

$$$$

     RDKit          3D

 53 56  0  0  0  0  0  0  0  0999 V2000
  138.7360   75.3640  221.8510 O   0  0  0  0  0  0  0  0  0  0  0  0
  139.9310   75.8170  221.8220 C   0  0  0  0  0  0  0  0  0  0  0  0
  140.9720   75.0070  221.2950 N   0  0  0  0  0  0  0  0  0  0  0  0
  140.7160   73.6550  220.7800 C   0  0  0  0  0  0  0  0  0  0  0  0
  141.9250   72.8340  221.0460 C   0  0  0  0  0  0  0  0  0  0  0  0
  141.8750   71.9100  221.9280 O   0  0  0  0  0  0  0  0  0  0  0  0
  143.1580   72.9970  220.3870 N   0  0  0  0  0  0  0  0  0  0  0  0
  143.5800   72.3150  219.1890 C   0  0  0  0  0  0  0  0  0  0  0  0
  144.9840   71.8880  219.6300 C   0  0  0  0  0  0  0  0  0  0  0  0
  145.5220   73.1930  220.1710 C   0  0  2  0  0  0  0  0  0  0  0  0
  146.4340   72.9330  221.1670 O   0  0  0  0  0  0  0  0  0  0  0  0
  144.2920   73.8710  220.7330 C   0  0  1  0  0  0  0  0  0  0  0  0
  144.0110   75.1830  220.0780 C   0  0  0  0  0  0  0  0  0  0  0  0
  142.8650   75.2900  219.3300 O   0  0  0  0  0  0  0  0  0  0  0  0
  142.0850   76.3680  219.0570 C   0  0  0  0  0  0  0  0  0  0  0  0
  140.8780   76.3900  218.4220 C   0  0  0  0  0  0  0  0  0  0  0  0
  140.1590   77.5660  218.1970 C   0  0  0  0  0  0  0  0  0  0  0  0
  140.6600   78.7680  218.6190 C   0  0  0  0  0  0  0  0  0  0  0  0
  141.8700   78.7790  219.2580 C   0  0  0  0  0  0  0  0  0  0  0  0
  142.5720   77.6180  219.4780 C   0  0  0  0  0  0  0  0  0  0  0  0
  140.2120   77.1630  222.3290 C   0  0  0  0  0  0  0  0  0  0  0  0
  139.1560   77.9660  222.7200 C   0  0  0  0  0  0  0  0  0  0  0  0
  139.3560   79.2510  223.2090 C   0  0  0  0  0  0  0  0  0  0  0  0
  140.6480   79.7290  223.3050 C   0  0  0  0  0  0  0  0  0  0  0  0
  140.9090   80.9980  223.7830 C   0  0  0  0  0  0  0  0  0  0  0  0
  142.2080   81.4660  223.8760 C   0  0  0  0  0  0  0  0  0  0  0  0
  143.2630   80.6560  223.4820 C   0  0  0  0  0  0  0  0  0  0  0  0
  142.9790   79.3910  223.0060 C   0  0  0  0  0  0  0  0  0  0  0  0
  141.6880   78.9120  222.9100 C   0  0  0  0  0  0  0  0  0  0  0  0
  141.4370   77.6580  222.4360 N   0  0  0  0  0  0  0  0  0  0  0  0
  141.9330   75.4250  221.2950 H   0  0  0  0  0  0  0  0  0  0  0  0
  139.8461   73.2176  221.2918 H   0  0  0  0  0  0  0  0  0  0  0  0
  140.5021   73.6876  219.7015 H   0  0  0  0  0  0  0  0  0  0  0  0
  142.9397   71.4502  218.9607 H   0  0  0  0  0  0  0  0  0  0  0  0
  143.5381   72.9137  218.2671 H   0  0  0  0  0  0  0  0  0  0  0  0
  144.9449   71.1125  220.4092 H   0  0  0  0  0  0  0  0  0  0  0  0
  145.5947   71.4402  218.8322 H   0  0  0  0  0  0  0  0  0  0  0  0
  146.0375   73.8086  219.4191 H   0  0  0  0  0  0  0  0  0  0  0  0
  146.2610   72.0740  221.6300 H   0  0  0  0  0  0  0  0  0  0  0  0
  144.4414   74.0388  221.8098 H   0  0  0  0  0  0  0  0  0  0  0  0
  143.9569   75.9419  220.8724 H   0  0  0  0  0  0  0  0  0  0  0  0
  144.8289   75.3132  219.3540 H   0  0  0  0  0  0  0  0  0  0  0  0
  140.4517   75.4386  218.0713 H   0  0  0  0  0  0  0  0  0  0  0  0
  139.1889   77.5263  217.6800 H   0  0  0  0  0  0  0  0  0  0  0  0
  140.1039   79.7017  218.4487 H   0  0  0  0  0  0  0  0  0  0  0  0
  142.2891   79.7359  219.6024 H   0  0  0  0  0  0  0  0  0  0  0  0
  143.5405   77.6681  219.9972 H   0  0  0  0  0  0  0  0  0  0  0  0
  138.1301   77.5768  222.6417 H   0  0  0  0  0  0  0  0  0  0  0  0
  138.5027   79.8748  223.5134 H   0  0  0  0  0  0  0  0  0  0  0  0
  140.0747   81.6443  224.0934 H   0  0  0  0  0  0  0  0  0  0  0  0
  142.4034   82.4776  224.2613 H   0  0  0  0  0  0  0  0  0  0  0  0
  144.3015   81.0129  223.5472 H   0  0  0  0  0  0  0  0  0  0  0  0
  143.8105   78.7427  222.6925 H   0  0  0  0  0  0  0  0  0  0  0  0
  1  2  2  0
  2  3  1  0
  3  4  1  0
  4  5  1  0
  5  6  2  0
  5  7  1  0
  7  8  1  0
  8  9  1  0
  9 10  1  0
 10 11  1  0
 10 12  1  0
 12 13  1  0
 13 14  1  0
 14 15  1  0
 15 16  2  0
 16 17  1  0
 17 18  2  0
 18 19  1  0
 19 20  2  0
  2 21  1  0
 21 22  2  0
 22 23  1  0
 23 24  2  0
 24 25  1  0
 25 26  2  0
 26 27  1  0
 27 28  2  0
 28 29  1  0
 29 30  2  0
 12  7  1  0
 20 15  1  0
 30 21  1  0
 29 24  1  0
  3 31  1  0
  4 32  1  0
  4 33  1  0
  8 34  1  0
  8 35  1  0
  9 36  1  0
  9 37  1  0
 10 38  1  6
 11 39  1  0
 12 40  1  1
 13 41  1  0
 13 42  1  0
 16 43  1  0
 17 44  1  0
 18 45  1  0
 19 46  1  0
 20 47  1  0
 22 48  1  0
 23 49  1  0
 25 50  1  0
 26 51  1  0
 27 52  1  0
 28 53  1  0
M  END
>  <smiles>  (39) 
O=C(NCC(=O)N1CC[C@H](O)[C@H]1COc1ccccc1)c1ccc2ccccc2n1

>  <score_type>  (39) 
oracle

>  <origin>  (39) 
autodockgpu

>  <m_score__min__energy>  (39) 
-8.9299999999999997

>  <m_primary>  (39) 
energy

>  <rmsd>  (39) 
7.671462967608253

>  <m_score__min__rmsd>  (39) 
7.671462967608253

>  <meeko>  (39) 
{"free_energy": -6.67, "intermolecular_energy": -9.06, "internal_energy": -3.39, "cluster_size": 12, "cluster_id": 6, "rank_in_cluster": 9}

>  <energy>  (39) 
-7.27

>  <cluster_rmsd>  (39) 
0.0

>  <cluster>  (39) 
6

$$$$

     RDKit          3D

 53 56  0  0  0  0  0  0  0  0999 V2000
  138.9970   70.8020  221.3840 O   0  0  0  0  0  0  0  0  0  0  0  0
  139.3170   71.4680  222.4270 C   0  0  0  0  0  0  0  0  0  0  0  0
  139.4450   72.8800  222.3410 N   0  0  0  0  0  0  0  0  0  0  0  0
  139.2200   73.6040  221.0820 C   0  0  0  0  0  0  0  0  0  0  0  0
  139.9180   74.9100  221.1810 C   0  0  0  0  0  0  0  0  0  0  0  0
  140.7270   75.1180  222.1490 O   0  0  0  0  0  0  0  0  0  0  0  0
  139.7560   75.9700  220.2690 N   0  0  0  0  0  0  0  0  0  0  0  0
  138.6300   76.8640  220.1940 C   0  0  0  0  0  0  0  0  0  0  0  0
  138.3770   76.8180  218.6830 C   0  0  0  0  0  0  0  0  0  0  0  0
  139.7720   77.0660  218.1540 C   0  0  2  0  0  0  0  0  0  0  0  0
  139.9160   76.4410  216.9370 O   0  0  0  0  0  0  0  0  0  0  0  0
  140.6590   76.4220  219.1960 C   0  0  1  0  0  0  0  0  0  0  0  0
  141.5930   77.3970  219.8340 C   0  0  0  0  0  0  0  0  0  0  0  0
  141.0470   78.3990  220.5960 O   0  0  0  0  0  0  0  0  0  0  0  0
  141.5350   79.0490  221.6840 C   0  0  0  0  0  0  0  0  0  0  0  0
  142.1760   80.2520  221.7250 C   0  0  0  0  0  0  0  0  0  0  0  0
  142.6350   80.8290  222.9110 C   0  0  0  0  0  0  0  0  0  0  0  0
  142.4510   80.1830  224.1040 C   0  0  0  0  0  0  0  0  0  0  0  0
  141.8120   78.9730  224.0960 C   0  0  0  0  0  0  0  0  0  0  0  0
  141.3610   78.4110  222.9260 C   0  0  0  0  0  0  0  0  0  0  0  0
  139.5470   70.7710  223.6950 C   0  0  0  0  0  0  0  0  0  0  0  0
  139.1970   69.4370  223.7980 C   0  0  0  0  0  0  0  0  0  0  0  0
  139.3900   68.7190  224.9730 C   0  0  0  0  0  0  0  0  0  0  0  0
  139.9470   69.3640  226.0590 C   0  0  0  0  0  0  0  0  0  0  0  0
  140.1620   68.7040  227.2530 C   0  0  0  0  0  0  0  0  0  0  0  0
  140.7220   69.3600  228.3340 C   0  0  0  0  0  0  0  0  0  0  0  0
  141.0700   70.6980  228.2240 C   0  0  0  0  0  0  0  0  0  0  0  0
  140.8460   71.3400  227.0220 C   0  0  0  0  0  0  0  0  0  0  0  0
  140.2900   70.6960  225.9350 C   0  0  0  0  0  0  0  0  0  0  0  0
  140.0790   71.3540  224.7590 N   0  0  0  0  0  0  0  0  0  0  0  0
  139.7100   73.3790  223.2240 H   0  0  0  0  0  0  0  0  0  0  0  0
  139.6261   73.0252  220.2394 H   0  0  0  0  0  0  0  0  0  0  0  0
  138.1438   73.7545  220.9114 H   0  0  0  0  0  0  0  0  0  0  0  0
  137.7688   76.4894  220.7667 H   0  0  0  0  0  0  0  0  0  0  0  0
  138.7979   77.8675  220.6121 H   0  0  0  0  0  0  0  0  0  0  0  0
  137.9926   75.8371  218.3666 H   0  0  0  0  0  0  0  0  0  0  0  0
  137.6210   77.5328  218.3260 H   0  0  0  0  0  0  0  0  0  0  0  0
  140.0074   78.1290  217.9971 H   0  0  0  0  0  0  0  0  0  0  0  0
  140.2840   75.5250  217.0190 H   0  0  0  0  0  0  0  0  0  0  0  0
  141.2495   75.6277  218.7160 H   0  0  0  0  0  0  0  0  0  0  0  0
  142.2727   76.8246  220.4823 H   0  0  0  0  0  0  0  0  0  0  0  0
  142.0697   77.9178  218.9905 H   0  0  0  0  0  0  0  0  0  0  0  0
  142.3389   80.7925  220.7809 H   0  0  0  0  0  0  0  0  0  0  0  0
  143.1448   81.8034  222.8866 H   0  0  0  0  0  0  0  0  0  0  0  0
  142.8080   80.6257  225.0456 H   0  0  0  0  0  0  0  0  0  0  0  0
  141.6562   78.4395  225.0453 H   0  0  0  0  0  0  0  0  0  0  0  0
  140.8507   77.4372  222.9612 H   0  0  0  0  0  0  0  0  0  0  0  0
  138.7543   68.9307  222.9275 H   0  0  0  0  0  0  0  0  0  0  0  0
  139.1046   67.6585  225.0359 H   0  0  0  0  0  0  0  0  0  0  0  0
  139.8844   67.6436  227.3453 H   0  0  0  0  0  0  0  0  0  0  0  0
  140.8909   68.8220  229.2785 H   0  0  0  0  0  0  0  0  0  0  0  0
  141.5143   71.2355  229.0747 H   0  0  0  0  0  0  0  0  0  0  0  0
  141.1201   72.4011  226.9275 H   0  0  0  0  0  0  0  0  0  0  0  0
  1  2  2  0
  2  3  1  0
  3  4  1  0
  4  5  1  0
  5  6  2  0
  5  7  1  0
  7  8  1  0
  8  9  1  0
  9 10  1  0
 10 11  1  0
 10 12  1  0
 12 13  1  0
 13 14  1  0
 14 15  1  0
 15 16  2  0
 16 17  1  0
 17 18  2  0
 18 19  1  0
 19 20  2  0
  2 21  1  0
 21 22  2  0
 22 23  1  0
 23 24  2  0
 24 25  1  0
 25 26  2  0
 26 27  1  0
 27 28  2  0
 28 29  1  0
 29 30  2  0
 12  7  1  0
 20 15  1  0
 30 21  1  0
 29 24  1  0
  3 31  1  0
  4 32  1  0
  4 33  1  0
  8 34  1  0
  8 35  1  0
  9 36  1  0
  9 37  1  0
 10 38  1  6
 11 39  1  0
 12 40  1  6
 13 41  1  0
 13 42  1  0
 16 43  1  0
 17 44  1  0
 18 45  1  0
 19 46  1  0
 20 47  1  0
 22 48  1  0
 23 49  1  0
 25 50  1  0
 26 51  1  0
 27 52  1  0
 28 53  1  0
M  END
>  <smiles>  (40) 
O=C(NCC(=O)N1CC[C@H](O)[C@H]1COc1ccccc1)c1ccc2ccccc2n1

>  <score_type>  (40) 
oracle

>  <origin>  (40) 
autodockgpu

>  <m_score__min__energy>  (40) 
-8.9299999999999997

>  <m_primary>  (40) 
energy

>  <rmsd>  (40) 
1.574808440267958

>  <m_score__min__rmsd>  (40) 
1.574808440267958

>  <meeko>  (40) 
{"free_energy": -7.55, "intermolecular_energy": -9.94, "internal_energy": -2.03, "cluster_size": 21, "cluster_id": 1, "rank_in_cluster": 14}

>  <energy>  (40) 
-7.27

>  <cluster_rmsd>  (40) 
0.08

>  <cluster>  (40) 
6

$$$$

     RDKit          3D

 53 56  0  0  0  0  0  0  0  0999 V2000
  140.4650   73.2490  222.7200 O   0  0  0  0  0  0  0  0  0  0  0  0
  140.2970   71.9820  222.7210 C   0  0  0  0  0  0  0  0  0  0  0  0
  140.1090   71.3020  221.4890 N   0  0  0  0  0  0  0  0  0  0  0  0
  140.1000   72.0150  220.2040 C   0  0  0  0  0  0  0  0  0  0  0  0
  141.4100   72.7000  220.0590 C   0  0  0  0  0  0  0  0  0  0  0  0
  142.4870   72.0410  220.2570 O   0  0  0  0  0  0  0  0  0  0  0  0
  141.5640   74.0540  219.7110 N   0  0  0  0  0  0  0  0  0  0  0  0
  141.3560   74.6270  218.4050 C   0  0  0  0  0  0  0  0  0  0  0  0
  142.6350   75.4650  218.2950 C   0  0  0  0  0  0  0  0  0  0  0  0
  142.6140   76.1910  219.6210 C   0  0  2  0  0  0  0  0  0  0  0  0
  143.9050   76.4580  220.0150 O   0  0  0  0  0  0  0  0  0  0  0  0
  141.9630   75.1940  220.5540 C   0  0  1  0  0  0  0  0  0  0  0  0
  140.7020   75.7150  221.1590 C   0  0  0  0  0  0  0  0  0  0  0  0
  140.8120   76.5530  222.2410 O   0  0  0  0  0  0  0  0  0  0  0  0
  141.2590   77.8320  222.3270 C   0  0  0  0  0  0  0  0  0  0  0  0
  141.3910   78.7440  221.3200 C   0  0  0  0  0  0  0  0  0  0  0  0
  141.8630   80.0420  221.5280 C   0  0  0  0  0  0  0  0  0  0  0  0
  142.2180   80.4500  222.7850 C   0  0  0  0  0  0  0  0  0  0  0  0
  142.0980   79.5580  223.8160 C   0  0  0  0  0  0  0  0  0  0  0  0
  141.6330   78.2830  223.6060 C   0  0  0  0  0  0  0  0  0  0  0  0
  140.3020   71.2480  223.9900 C   0  0  0  0  0  0  0  0  0  0  0  0
  140.7140   71.8980  225.1390 C   0  0  0  0  0  0  0  0  0  0  0  0
  140.7420   71.2580  226.3720 C   0  0  0  0  0  0  0  0  0  0  0  0
  140.3430   69.9380  226.4410 C   0  0  0  0  0  0  0  0  0  0  0  0
  140.3490   69.2490  227.6380 C   0  0  0  0  0  0  0  0  0  0  0  0
  139.9460   67.9260  227.6950 C   0  0  0  0  0  0  0  0  0  0  0  0
  139.5330   67.2800  226.5390 C   0  0  0  0  0  0  0  0  0  0  0  0
  139.5360   67.9870  225.3530 C   0  0  0  0  0  0  0  0  0  0  0  0
  139.9340   69.3070  225.2830 C   0  0  0  0  0  0  0  0  0  0  0  0
  139.9270   69.9820  224.0970 N   0  0  0  0  0  0  0  0  0  0  0  0
  139.9750   70.2640  221.5450 H   0  0  0  0  0  0  0  0  0  0  0  0
  139.9576   71.3004  219.3799 H   0  0  0  0  0  0  0  0  0  0  0  0
  139.2778   72.7451  220.1740 H   0  0  0  0  0  0  0  0  0  0  0  0
  141.3008   73.8564  217.6220 H   0  0  0  0  0  0  0  0  0  0  0  0
  140.4163   75.1852  218.2809 H   0  0  0  0  0  0  0  0  0  0  0  0
  143.5276   74.8299  218.1955 H   0  0  0  0  0  0  0  0  0  0  0  0
  142.6726   76.1247  217.4155 H   0  0  0  0  0  0  0  0  0  0  0  0
  142.0825   77.1537  219.5945 H   0  0  0  0  0  0  0  0  0  0  0  0
  143.9530   77.1500  220.7220 H   0  0  0  0  0  0  0  0  0  0  0  0
  142.6695   74.9526  221.3618 H   0  0  0  0  0  0  0  0  0  0  0  0
  140.1623   76.2630  220.3726 H   0  0  0  0  0  0  0  0  0  0  0  0
  140.1915   74.8223  221.5495 H   0  0  0  0  0  0  0  0  0  0  0  0
  141.1132   78.4433  220.2990 H   0  0  0  0  0  0  0  0  0  0  0  0
  141.9495   80.7373  220.6801 H   0  0  0  0  0  0  0  0  0  0  0  0
  142.5906   81.4697  222.9624 H   0  0  0  0  0  0  0  0  0  0  0  0
  142.3796   79.8685  224.8330 H   0  0  0  0  0  0  0  0  0  0  0  0
  141.5507   77.5958  224.4610 H   0  0  0  0  0  0  0  0  0  0  0  0
  141.0281   72.9503  225.0751 H   0  0  0  0  0  0  0  0  0  0  0  0
  141.0751   71.7918  227.2743 H   0  0  0  0  0  0  0  0  0  0  0  0
  140.6777   69.7574  228.5564 H   0  0  0  0  0  0  0  0  0  0  0  0
  139.9532   67.3883  228.6546 H   0  0  0  0  0  0  0  0  0  0  0  0
  139.2105   66.2287  226.5665 H   0  0  0  0  0  0  0  0  0  0  0  0
  139.2100   67.4810  224.4323 H   0  0  0  0  0  0  0  0  0  0  0  0
  1  2  2  0
  2  3  1  0
  3  4  1  0
  4  5  1  0
  5  6  2  0
  5  7  1  0
  7  8  1  0
  8  9  1  0
  9 10  1  0
 10 11  1  0
 10 12  1  0
 12 13  1  0
 13 14  1  0
 14 15  1  0
 15 16  2  0
 16 17  1  0
 17 18  2  0
 18 19  1  0
 19 20  2  0
  2 21  1  0
 21 22  2  0
 22 23  1  0
 23 24  2  0
 24 25  1  0
 25 26  2  0
 26 27  1  0
 27 28  2  0
 28 29  1  0
 29 30  2  0
 12  7  1  0
 20 15  1  0
 30 21  1  0
 29 24  1  0
  3 31  1  0
  4 32  1  0
  4 33  1  0
  8 34  1  0
  8 35  1  0
  9 36  1  0
  9 37  1  0
 10 38  1  6
 11 39  1  0
 12 40  1  1
 13 41  1  0
 13 42  1  0
 16 43  1  0
 17 44  1  0
 18 45  1  0
 19 46  1  0
 20 47  1  0
 22 48  1  0
 23 49  1  0
 25 50  1  0
 26 51  1  0
 27 52  1  0
 28 53  1  0
M  END
>  <smiles>  (41) 
O=C(NCC(=O)N1CC[C@H](O)[C@H]1COc1ccccc1)c1ccc2ccccc2n1

>  <score_type>  (41) 
oracle

>  <origin>  (41) 
autodockgpu

>  <m_score__min__energy>  (41) 
-8.9299999999999997

>  <m_primary>  (41) 
energy

>  <rmsd>  (41) 
3.3458498761910347

>  <m_score__min__rmsd>  (41) 
3.3458498761910347

>  <meeko>  (41) 
{"free_energy": -8.2, "intermolecular_energy": -10.58, "internal_energy": -1.66, "cluster_size": 21, "cluster_id": 1, "rank_in_cluster": 11}

>  <energy>  (41) 
-7.26

>  <cluster_rmsd>  (41) 
0.81

>  <cluster>  (41) 
6

$$$$

     RDKit          3D

 53 56  0  0  0  0  0  0  0  0999 V2000
  137.1550   76.6820  222.0830 O   0  0  0  0  0  0  0  0  0  0  0  0
  138.4190   76.6110  222.2590 C   0  0  0  0  0  0  0  0  0  0  0  0
  139.0840   75.3720  222.0550 N   0  0  0  0  0  0  0  0  0  0  0  0
  138.3580   74.1610  221.6470 C   0  0  0  0  0  0  0  0  0  0  0  0
  139.0940   72.9900  222.1870 C   0  0  0  0  0  0  0  0  0  0  0  0
  140.3290   73.1130  222.4950 O   0  0  0  0  0  0  0  0  0  0  0  0
  138.5260   71.7190  222.3930 N   0  0  0  0  0  0  0  0  0  0  0  0
  137.8160   70.9350  221.4150 C   0  0  0  0  0  0  0  0  0  0  0  0
  136.5960   70.5380  222.2550 C   0  0  0  0  0  0  0  0  0  0  0  0
  137.2680   70.0330  223.5110 C   0  0  2  0  0  0  0  0  0  0  0  0
  136.4390   70.2440  224.5880 O   0  0  0  0  0  0  0  0  0  0  0  0
  138.5090   70.8920  223.6120 C   0  0  1  0  0  0  0  0  0  0  0  0
  139.7670   70.0880  223.5770 C   0  0  0  0  0  0  0  0  0  0  0  0
  140.3390   69.7470  224.7770 O   0  0  0  0  0  0  0  0  0  0  0  0
  140.5490   70.4830  225.8980 C   0  0  0  0  0  0  0  0  0  0  0  0
  141.3110   71.6070  226.0340 C   0  0  0  0  0  0  0  0  0  0  0  0
  141.4520   72.2880  227.2450 C   0  0  0  0  0  0  0  0  0  0  0  0
  140.8120   71.8340  228.3660 C   0  0  0  0  0  0  0  0  0  0  0  0
  140.0410   70.7080  228.2630 C   0  0  0  0  0  0  0  0  0  0  0  0
  139.9050   70.0430  227.0690 C   0  0  0  0  0  0  0  0  0  0  0  0
  139.1660   77.8040  222.6650 C   0  0  0  0  0  0  0  0  0  0  0  0
  138.4680   78.9110  223.1120 C   0  0  0  0  0  0  0  0  0  0  0  0
  139.1170   80.0730  223.5120 C   0  0  0  0  0  0  0  0  0  0  0  0
  140.4960   80.1120  223.4590 C   0  0  0  0  0  0  0  0  0  0  0  0
  141.1980   81.2380  223.8430 C   0  0  0  0  0  0  0  0  0  0  0  0
  142.5800   81.2660  223.7870 C   0  0  0  0  0  0  0  0  0  0  0  0
  143.2740   80.1520  223.3380 C   0  0  0  0  0  0  0  0  0  0  0  0
  142.5540   79.0360  222.9580 C   0  0  0  0  0  0  0  0  0  0  0  0
  141.1750   78.9960  223.0110 C   0  0  0  0  0  0  0  0  0  0  0  0
  140.4890   77.8810  222.6290 N   0  0  0  0  0  0  0  0  0  0  0  0
  140.1200   75.3680  222.2130 H   0  0  0  0  0  0  0  0  0  0  0  0
  137.3363   74.1816  222.0542 H   0  0  0  0  0  0  0  0  0  0  0  0
  138.2920   74.1024  220.5506 H   0  0  0  0  0  0  0  0  0  0  0  0
  137.5332   71.5323  220.5356 H   0  0  0  0  0  0  0  0  0  0  0  0
  138.3824   70.0969  220.9827 H   0  0  0  0  0  0  0  0  0  0  0  0
  135.9486   71.4028  222.4622 H   0  0  0  0  0  0  0  0  0  0  0  0
  135.9283   69.8095  221.7718 H   0  0  0  0  0  0  0  0  0  0  0  0
  137.4993   68.9577  223.4919 H   0  0  0  0  0  0  0  0  0  0  0  0
  136.1100   71.1770  224.6410 H   0  0  0  0  0  0  0  0  0  0  0  0
  138.4745   71.4533  224.5574 H   0  0  0  0  0  0  0  0  0  0  0  0
  139.5448   69.1532  223.0414 H   0  0  0  0  0  0  0  0  0  0  0  0
  140.5045   70.7460  223.0941 H   0  0  0  0  0  0  0  0  0  0  0  0
  141.8381   71.9941  225.1495 H   0  0  0  0  0  0  0  0  0  0  0  0
  142.0784   73.1907  227.2978 H   0  0  0  0  0  0  0  0  0  0  0  0
  140.9147   72.3610  229.3261 H   0  0  0  0  0  0  0  0  0  0  0  0
  139.5199   70.3280  229.1541 H   0  0  0  0  0  0  0  0  0  0  0  0
  139.2755   69.1419  227.0271 H   0  0  0  0  0  0  0  0  0  0  0  0
  137.3695   78.8707  223.1520 H   0  0  0  0  0  0  0  0  0  0  0  0
  138.5438   80.9436  223.8635 H   0  0  0  0  0  0  0  0  0  0  0  0
  140.6510   82.1239  224.1979 H   0  0  0  0  0  0  0  0  0  0  0  0
  143.1267   82.1686  224.0975 H   0  0  0  0  0  0  0  0  0  0  0  0
  144.3727   80.1572  223.2857 H   0  0  0  0  0  0  0  0  0  0  0  0
  143.0979   78.1490  222.6010 H   0  0  0  0  0  0  0  0  0  0  0  0
  1  2  2  0
  2  3  1  0
  3  4  1  0
  4  5  1  0
  5  6  2  0
  5  7  1  0
  7  8  1  0
  8  9  1  0
  9 10  1  0
 10 11  1  0
 10 12  1  0
 12 13  1  0
 13 14  1  0
 14 15  1  0
 15 16  2  0
 16 17  1  0
 17 18  2  0
 18 19  1  0
 19 20  2  0
  2 21  1  0
 21 22  2  0
 22 23  1  0
 23 24  2  0
 24 25  1  0
 25 26  2  0
 26 27  1  0
 27 28  2  0
 28 29  1  0
 29 30  2  0
 12  7  1  0
 20 15  1  0
 30 21  1  0
 29 24  1  0
  3 31  1  0
  4 32  1  0
  4 33  1  0
  8 34  1  0
  8 35  1  0
  9 36  1  0
  9 37  1  0
 10 38  1  6
 11 39  1  0
 12 40  1  1
 13 41  1  0
 13 42  1  0
 16 43  1  0
 17 44  1  0
 18 45  1  0
 19 46  1  0
 20 47  1  0
 22 48  1  0
 23 49  1  0
 25 50  1  0
 26 51  1  0
 27 52  1  0
 28 53  1  0
M  END
>  <smiles>  (42) 
O=C(NCC(=O)N1CC[C@H](O)[C@H]1COc1ccccc1)c1ccc2ccccc2n1

>  <score_type>  (42) 
oracle

>  <origin>  (42) 
autodockgpu

>  <m_score__min__energy>  (42) 
-8.9299999999999997

>  <m_primary>  (42) 
energy

>  <rmsd>  (42) 
8.54161189330989

>  <m_score__min__rmsd>  (42) 
8.54161189330989

>  <meeko>  (42) 
{"free_energy": -7.92, "intermolecular_energy": -10.31, "internal_energy": -1.98, "cluster_size": 10, "cluster_id": 2, "rank_in_cluster": 2}

>  <energy>  (42) 
-7.23

>  <cluster_rmsd>  (42) 
0.08

>  <cluster>  (42) 
6

$$$$

     RDKit          3D

 53 56  0  0  0  0  0  0  0  0999 V2000
  140.6850   71.4500  221.2750 O   0  0  0  0  0  0  0  0  0  0  0  0
  140.2920   72.0770  222.3170 C   0  0  0  0  0  0  0  0  0  0  0  0
  139.9450   73.4500  222.2160 N   0  0  0  0  0  0  0  0  0  0  0  0
  140.0240   74.1780  220.9420 C   0  0  0  0  0  0  0  0  0  0  0  0
  140.5490   75.5370  221.2310 C   0  0  0  0  0  0  0  0  0  0  0  0
  140.5440   75.9690  222.4340 O   0  0  0  0  0  0  0  0  0  0  0  0
  141.0660   76.4130  220.2580 N   0  0  0  0  0  0  0  0  0  0  0  0
  141.9490   77.5270  220.4980 C   0  0  0  0  0  0  0  0  0  0  0  0
  141.2280   78.5960  219.6690 C   0  0  0  0  0  0  0  0  0  0  0  0
  141.0300   77.8580  218.3650 C   0  0  2  0  0  0  0  0  0  0  0  0
  139.8940   78.3250  217.7450 O   0  0  0  0  0  0  0  0  0  0  0  0
  140.8500   76.4210  218.8020 C   0  0  1  0  0  0  0  0  0  0  0  0
  141.8900   75.5150  218.2300 C   0  0  0  0  0  0  0  0  0  0  0  0
  142.1980   74.3750  218.9300 O   0  0  0  0  0  0  0  0  0  0  0  0
  143.2920   74.0590  219.6690 C   0  0  0  0  0  0  0  0  0  0  0  0
  144.3080   74.8820  220.0590 C   0  0  0  0  0  0  0  0  0  0  0  0
  145.3890   74.4450  220.8270 C   0  0  0  0  0  0  0  0  0  0  0  0
  145.4650   73.1370  221.2230 C   0  0  0  0  0  0  0  0  0  0  0  0
  144.4610   72.2850  220.8470 C   0  0  0  0  0  0  0  0  0  0  0  0
  143.3990   72.7210  220.0920 C   0  0  0  0  0  0  0  0  0  0  0  0
  140.2030   71.3740  223.6000 C   0  0  0  0  0  0  0  0  0  0  0  0
  139.6120   70.1250  223.6400 C   0  0  0  0  0  0  0  0  0  0  0  0
  139.4970   69.4070  224.8240 C   0  0  0  0  0  0  0  0  0  0  0  0
  139.9920   69.9640  225.9860 C   0  0  0  0  0  0  0  0  0  0  0  0
  139.9060   69.2990  227.1940 C   0  0  0  0  0  0  0  0  0  0  0  0
  140.4060   69.8670  228.3520 C   0  0  0  0  0  0  0  0  0  0  0  0
  140.9990   71.1200  228.3050 C   0  0  0  0  0  0  0  0  0  0  0  0
  141.0730   71.7680  227.0880 C   0  0  0  0  0  0  0  0  0  0  0  0
  140.5790   71.2120  225.9260 C   0  0  0  0  0  0  0  0  0  0  0  0
  140.6660   71.8750  224.7360 N   0  0  0  0  0  0  0  0  0  0  0  0
  139.6290   73.9180  223.1000 H   0  0  0  0  0  0  0  0  0  0  0  0
  140.7014   73.6535  220.2520 H   0  0  0  0  0  0  0  0  0  0  0  0
  139.0318   74.2401  220.4713 H   0  0  0  0  0  0  0  0  0  0  0  0
  141.9939   77.7941  221.5641 H   0  0  0  0  0  0  0  0  0  0  0  0
  143.0031   77.3576  220.2330 H   0  0  0  0  0  0  0  0  0  0  0  0
  140.2673   78.8805  220.1230 H   0  0  0  0  0  0  0  0  0  0  0  0
  141.7751   79.5458  219.5761 H   0  0  0  0  0  0  0  0  0  0  0  0
  141.8580   77.9824  217.6516 H   0  0  0  0  0  0  0  0  0  0  0  0
  139.2280   77.6120  217.5790 H   0  0  0  0  0  0  0  0  0  0  0  0
  139.8589   76.0731  218.4753 H   0  0  0  0  0  0  0  0  0  0  0  0
  141.5433   75.2049  217.2332 H   0  0  0  0  0  0  0  0  0  0  0  0
  142.8155   76.1093  218.2455 H   0  0  0  0  0  0  0  0  0  0  0  0
  144.2738   75.9384  219.7543 H   0  0  0  0  0  0  0  0  0  0  0  0
  146.1806   75.1528  221.1142 H   0  0  0  0  0  0  0  0  0  0  0  0
  146.3112   72.7792  221.8280 H   0  0  0  0  0  0  0  0  0  0  0  0
  144.5056   71.2301  221.1557 H   0  0  0  0  0  0  0  0  0  0  0  0
  142.6120   72.0057  219.8109 H   0  0  0  0  0  0  0  0  0  0  0  0
  139.2221   69.6876  222.7091 H   0  0  0  0  0  0  0  0  0  0  0  0
  139.0213   68.4152  224.8352 H   0  0  0  0  0  0  0  0  0  0  0  0
  139.4343   68.3061  227.2354 H   0  0  0  0  0  0  0  0  0  0  0  0
  140.3335   69.3265  229.3073 H   0  0  0  0  0  0  0  0  0  0  0  0
  141.4011   71.5867  229.2163 H   0  0  0  0  0  0  0  0  0  0  0  0
  141.5421   72.7620  227.0434 H   0  0  0  0  0  0  0  0  0  0  0  0
  1  2  2  0
  2  3  1  0
  3  4  1  0
  4  5  1  0
  5  6  2  0
  5  7  1  0
  7  8  1  0
  8  9  1  0
  9 10  1  0
 10 11  1  0
 10 12  1  0
 12 13  1  0
 13 14  1  0
 14 15  1  0
 15 16  2  0
 16 17  1  0
 17 18  2  0
 18 19  1  0
 19 20  2  0
  2 21  1  0
 21 22  2  0
 22 23  1  0
 23 24  2  0
 24 25  1  0
 25 26  2  0
 26 27  1  0
 27 28  2  0
 28 29  1  0
 29 30  2  0
 12  7  1  0
 20 15  1  0
 30 21  1  0
 29 24  1  0
  3 31  1  0
  4 32  1  0
  4 33  1  0
  8 34  1  0
  8 35  1  0
  9 36  1  0
  9 37  1  0
 10 38  1  6
 11 39  1  0
 12 40  1  1
 13 41  1  0
 13 42  1  0
 16 43  1  0
 17 44  1  0
 18 45  1  0
 19 46  1  0
 20 47  1  0
 22 48  1  0
 23 49  1  0
 25 50  1  0
 26 51  1  0
 27 52  1  0
 28 53  1  0
M  END
>  <smiles>  (43) 
O=C(NCC(=O)N1CC[C@H](O)[C@H]1COc1ccccc1)c1ccc2ccccc2n1

>  <score_type>  (43) 
oracle

>  <origin>  (43) 
autodockgpu

>  <m_score__min__energy>  (43) 
-8.9299999999999997

>  <m_primary>  (43) 
energy

>  <rmsd>  (43) 
2.378171653543969

>  <m_score__min__rmsd>  (43) 
2.378171653543969

>  <meeko>  (43) 
{"free_energy": -7.45, "intermolecular_energy": -9.83, "internal_energy": -2.39, "cluster_size": 5, "cluster_id": 3, "rank_in_cluster": 5}

>  <energy>  (43) 
-7.07

>  <cluster_rmsd>  (43) 
0.9

>  <cluster>  (43) 
6

$$$$

     RDKit          3D

 53 56  0  0  0  0  0  0  0  0999 V2000
  139.8730   70.6190  221.3490 O   0  0  0  0  0  0  0  0  0  0  0  0
  139.7680   71.3110  222.4180 C   0  0  0  0  0  0  0  0  0  0  0  0
  139.6160   72.7200  222.3260 N   0  0  0  0  0  0  0  0  0  0  0  0
  139.5760   73.4120  221.0300 C   0  0  0  0  0  0  0  0  0  0  0  0
  140.1760   74.7570  221.2180 C   0  0  0  0  0  0  0  0  0  0  0  0
  140.0840   75.3310  222.3560 O   0  0  0  0  0  0  0  0  0  0  0  0
  140.8560   75.4720  220.2140 N   0  0  0  0  0  0  0  0  0  0  0  0
  140.9460   75.1090  218.8230 C   0  0  0  0  0  0  0  0  0  0  0  0
  142.4520   75.3000  218.6140 C   0  0  0  0  0  0  0  0  0  0  0  0
  142.6490   76.6760  219.2100 C   0  0  2  0  0  0  0  0  0  0  0  0
  143.9230   76.7730  219.7200 O   0  0  0  0  0  0  0  0  0  0  0  0
  141.6220   76.7250  220.3190 C   0  0  1  0  0  0  0  0  0  0  0  0
  140.6310   77.8260  220.1320 C   0  0  0  0  0  0  0  0  0  0  0  0
  140.1850   78.4810  221.2540 O   0  0  0  0  0  0  0  0  0  0  0  0
  140.8350   79.3070  222.1130 C   0  0  0  0  0  0  0  0  0  0  0  0
  140.2940   80.1900  223.0010 C   0  0  0  0  0  0  0  0  0  0  0  0
  141.0660   80.9920  223.8420 C   0  0  0  0  0  0  0  0  0  0  0  0
  142.4320   80.9160  223.8000 C   0  0  0  0  0  0  0  0  0  0  0  0
  143.0060   80.0400  222.9180 C   0  0  0  0  0  0  0  0  0  0  0  0
  142.2410   79.2520  222.0930 C   0  0  0  0  0  0  0  0  0  0  0  0
  139.8050   70.6450  223.7230 C   0  0  0  0  0  0  0  0  0  0  0  0
  139.2240   69.3970  223.8550 C   0  0  0  0  0  0  0  0  0  0  0  0
  139.2250   68.7130  225.0650 C   0  0  0  0  0  0  0  0  0  0  0  0
  139.8260   69.3050  226.1580 C   0  0  0  0  0  0  0  0  0  0  0  0
  139.8590   68.6750  227.3870 C   0  0  0  0  0  0  0  0  0  0  0  0
  140.4650   69.2760  228.4750 C   0  0  0  0  0  0  0  0  0  0  0  0
  141.0450   70.5280  228.3370 C   0  0  0  0  0  0  0  0  0  0  0  0
  141.0010   71.1410  227.1000 C   0  0  0  0  0  0  0  0  0  0  0  0
  140.4010   70.5510  226.0060 C   0  0  0  0  0  0  0  0  0  0  0  0
  140.3710   71.1790  224.7960 N   0  0  0  0  0  0  0  0  0  0  0  0
  139.5350   73.2410  223.2320 H   0  0  0  0  0  0  0  0  0  0  0  0
  140.1531   72.8451  220.2846 H   0  0  0  0  0  0  0  0  0  0  0  0
  138.5397   73.4990  220.6714 H   0  0  0  0  0  0  0  0  0  0  0  0
  140.6354   74.0682  218.6487 H   0  0  0  0  0  0  0  0  0  0  0  0
  140.3004   75.6853  218.1440 H   0  0  0  0  0  0  0  0  0  0  0  0
  143.0351   74.5384  219.1524 H   0  0  0  0  0  0  0  0  0  0  0  0
  142.7823   75.2049  217.5691 H   0  0  0  0  0  0  0  0  0  0  0  0
  142.5303   77.4970  218.4876 H   0  0  0  0  0  0  0  0  0  0  0  0
  144.0120   77.4960  220.3910 H   0  0  0  0  0  0  0  0  0  0  0  0
  142.1419   76.8754  221.2766 H   0  0  0  0  0  0  0  0  0  0  0  0
  141.0945   78.5772  219.4755 H   0  0  0  0  0  0  0  0  0  0  0  0
  139.7372   77.3296  219.7262 H   0  0  0  0  0  0  0  0  0  0  0  0
  139.1986   80.2735  223.0565 H   0  0  0  0  0  0  0  0  0  0  0  0
  140.5760   81.6867  224.5401 H   0  0  0  0  0  0  0  0  0  0  0  0
  143.0525   81.5424  224.4577 H   0  0  0  0  0  0  0  0  0  0  0  0
  144.1024   79.9658  222.8691 H   0  0  0  0  0  0  0  0  0  0  0  0
  142.7403   78.5601  221.3988 H   0  0  0  0  0  0  0  0  0  0  0  0
  138.7481   68.9330  222.9785 H   0  0  0  0  0  0  0  0  0  0  0  0
  138.7570   67.7212  225.1500 H   0  0  0  0  0  0  0  0  0  0  0  0
  139.3975   67.6831  227.5015 H   0  0  0  0  0  0  0  0  0  0  0  0
  140.4869   68.7623  229.4474 H   0  0  0  0  0  0  0  0  0  0  0  0
  141.5289   71.0215  229.1928 H   0  0  0  0  0  0  0  0  0  0  0  0
  141.4600   72.1337  226.9827 H   0  0  0  0  0  0  0  0  0  0  0  0
  1  2  2  0
  2  3  1  0
  3  4  1  0
  4  5  1  0
  5  6  2  0
  5  7  1  0
  7  8  1  0
  8  9  1  0
  9 10  1  0
 10 11  1  0
 10 12  1  0
 12 13  1  0
 13 14  1  0
 14 15  1  0
 15 16  2  0
 16 17  1  0
 17 18  2  0
 18 19  1  0
 19 20  2  0
  2 21  1  0
 21 22  2  0
 22 23  1  0
 23 24  2  0
 24 25  1  0
 25 26  2  0
 26 27  1  0
 27 28  2  0
 28 29  1  0
 29 30  2  0
 12  7  1  0
 20 15  1  0
 30 21  1  0
 29 24  1  0
  3 31  1  0
  4 32  1  0
  4 33  1  0
  8 34  1  0
  8 35  1  0
  9 36  1  0
  9 37  1  0
 10 38  1  6
 11 39  1  0
 12 40  1  1
 13 41  1  0
 13 42  1  0
 16 43  1  0
 17 44  1  0
 18 45  1  0
 19 46  1  0
 20 47  1  0
 22 48  1  0
 23 49  1  0
 25 50  1  0
 26 51  1  0
 27 52  1  0
 28 53  1  0
M  END
>  <smiles>  (44) 
O=C(NCC(=O)N1CC[C@H](O)[C@H]1COc1ccccc1)c1ccc2ccccc2n1

>  <score_type>  (44) 
oracle

>  <origin>  (44) 
autodockgpu

>  <m_score__min__energy>  (44) 
-8.9299999999999997

>  <m_primary>  (44) 
energy

>  <rmsd>  (44) 
1.8802876469638568

>  <m_score__min__rmsd>  (44) 
1.8802876469638568

>  <meeko>  (44) 
{"free_energy": -8.74, "intermolecular_energy": -11.13, "internal_energy": -1.75, "cluster_size": 21, "cluster_id": 1, "rank_in_cluster": 4}

>  <energy>  (44) 
-7.04

>  <cluster_rmsd>  (44) 
0.51

>  <cluster>  (44) 
6

$$$$

     RDKit          3D

 53 56  0  0  0  0  0  0  0  0999 V2000
  137.1830   70.7830  221.5150 O   0  0  0  0  0  0  0  0  0  0  0  0
  137.3990   71.3540  222.6380 C   0  0  0  0  0  0  0  0  0  0  0  0
  136.9050   72.6670  222.8600 N   0  0  0  0  0  0  0  0  0  0  0  0
  136.1490   73.3940  221.8310 C   0  0  0  0  0  0  0  0  0  0  0  0
  137.1290   74.0390  220.9210 C   0  0  0  0  0  0  0  0  0  0  0  0
  136.7140   74.8590  220.0320 O   0  0  0  0  0  0  0  0  0  0  0  0
  138.5180   73.8150  220.9600 N   0  0  0  0  0  0  0  0  0  0  0  0
  139.2880   73.0770  219.9910 C   0  0  0  0  0  0  0  0  0  0  0  0
  140.1060   72.1980  220.9430 C   0  0  0  0  0  0  0  0  0  0  0  0
  140.6210   73.2340  221.9160 C   0  0  2  0  0  0  0  0  0  0  0  0
  140.7980   72.6530  223.1510 O   0  0  0  0  0  0  0  0  0  0  0  0
  139.5060   74.2560  221.9590 C   0  0  1  0  0  0  0  0  0  0  0  0
  139.9530   75.6110  221.5200 C   0  0  0  0  0  0  0  0  0  0  0  0
  139.4380   76.6980  222.1810 O   0  0  0  0  0  0  0  0  0  0  0  0
  140.0520   77.7980  222.6880 C   0  0  0  0  0  0  0  0  0  0  0  0
  141.3910   78.0250  222.8200 C   0  0  0  0  0  0  0  0  0  0  0  0
  141.9120   79.2040  223.3580 C   0  0  0  0  0  0  0  0  0  0  0  0
  141.0700   80.1950  223.7820 C   0  0  0  0  0  0  0  0  0  0  0  0
  139.7210   79.9970  223.6640 C   0  0  0  0  0  0  0  0  0  0  0  0
  139.2130   78.8360  223.1340 C   0  0  0  0  0  0  0  0  0  0  0  0
  138.1510   70.6500  223.6800 C   0  0  0  0  0  0  0  0  0  0  0  0
  138.0970   69.2680  223.7270 C   0  0  0  0  0  0  0  0  0  0  0  0
  138.7860   68.5420  224.6910 C   0  0  0  0  0  0  0  0  0  0  0  0
  139.5440   69.2270  225.6200 C   0  0  0  0  0  0  0  0  0  0  0  0
  140.2510   68.5610  226.6010 C   0  0  0  0  0  0  0  0  0  0  0  0
  141.0080   69.2580  227.5260 C   0  0  0  0  0  0  0  0  0  0  0  0
  141.0570   70.6430  227.4730 C   0  0  0  0  0  0  0  0  0  0  0  0
  140.3420   71.2900  226.4850 C   0  0  0  0  0  0  0  0  0  0  0  0
  139.5850   70.6060  225.5550 C   0  0  0  0  0  0  0  0  0  0  0  0
  138.8880   71.2710  224.5890 N   0  0  0  0  0  0  0  0  0  0  0  0
  137.1100   73.0900  223.7970 H   0  0  0  0  0  0  0  0  0  0  0  0
  135.5174   72.6933  221.2652 H   0  0  0  0  0  0  0  0  0  0  0  0
  135.4980   74.1502  222.2939 H   0  0  0  0  0  0  0  0  0  0  0  0
  138.6476   72.4784  219.3265 H   0  0  0  0  0  0  0  0  0  0  0  0
  139.8775   73.6899  219.2932 H   0  0  0  0  0  0  0  0  0  0  0  0
  139.4752   71.4497  221.4451 H   0  0  0  0  0  0  0  0  0  0  0  0
  140.8917   71.6049  220.4522 H   0  0  0  0  0  0  0  0  0  0  0  0
  141.5874   73.6740  221.6287 H   0  0  0  0  0  0  0  0  0  0  0  0
  140.0480   72.8360  223.7710 H   0  0  0  0  0  0  0  0  0  0  0  0
  139.1295   74.3252  222.9902 H   0  0  0  0  0  0  0  0  0  0  0  0
  141.0469   75.6477  221.6299 H   0  0  0  0  0  0  0  0  0  0  0  0
  139.5771   75.7078  220.4908 H   0  0  0  0  0  0  0  0  0  0  0  0
  142.0915   77.2446  222.4879 H   0  0  0  0  0  0  0  0  0  0  0  0
  143.0009   79.3357  223.4408 H   0  0  0  0  0  0  0  0  0  0  0  0
  141.4674   81.1283  224.2074 H   0  0  0  0  0  0  0  0  0  0  0  0
  139.0295   80.7835  224.0004 H   0  0  0  0  0  0  0  0  0  0  0  0
  138.1225   78.7146  223.0562 H   0  0  0  0  0  0  0  0  0  0  0  0
  137.4928   68.7300  222.9817 H   0  0  0  0  0  0  0  0  0  0  0  0
  138.7287   67.4437  224.7136 H   0  0  0  0  0  0  0  0  0  0  0  0
  140.2121   67.4627  226.6479 H   0  0  0  0  0  0  0  0  0  0  0  0
  141.5692   68.7153  228.3010 H   0  0  0  0  0  0  0  0  0  0  0  0
  141.6521   71.2131  228.2017 H   0  0  0  0  0  0  0  0  0  0  0  0
  140.3767   72.3884  226.4372 H   0  0  0  0  0  0  0  0  0  0  0  0
  1  2  2  0
  2  3  1  0
  3  4  1  0
  4  5  1  0
  5  6  2  0
  5  7  1  0
  7  8  1  0
  8  9  1  0
  9 10  1  0
 10 11  1  0
 10 12  1  0
 12 13  1  0
 13 14  1  0
 14 15  1  0
 15 16  2  0
 16 17  1  0
 17 18  2  0
 18 19  1  0
 19 20  2  0
  2 21  1  0
 21 22  2  0
 22 23  1  0
 23 24  2  0
 24 25  1  0
 25 26  2  0
 26 27  1  0
 27 28  2  0
 28 29  1  0
 29 30  2  0
 12  7  1  0
 20 15  1  0
 30 21  1  0
 29 24  1  0
  3 31  1  0
  4 32  1  0
  4 33  1  0
  8 34  1  0
  8 35  1  0
  9 36  1  0
  9 37  1  0
 10 38  1  6
 11 39  1  0
 12 40  1  1
 13 41  1  0
 13 42  1  0
 16 43  1  0
 17 44  1  0
 18 45  1  0
 19 46  1  0
 20 47  1  0
 22 48  1  0
 23 49  1  0
 25 50  1  0
 26 51  1  0
 27 52  1  0
 28 53  1  0
M  END
>  <smiles>  (45) 
O=C(NCC(=O)N1CC[C@H](O)[C@H]1COc1ccccc1)c1ccc2ccccc2n1

>  <score_type>  (45) 
oracle

>  <origin>  (45) 
autodockgpu

>  <m_score__min__energy>  (45) 
-8.9299999999999997

>  <m_primary>  (45) 
energy

>  <rmsd>  (45) 
3.2213748863227294

>  <m_score__min__rmsd>  (45) 
3.2213748863227294

>  <meeko>  (45) 
{"free_energy": -6.99, "intermolecular_energy": -9.37, "internal_energy": -2.69, "cluster_size": 21, "cluster_id": 1, "rank_in_cluster": 19}

>  <energy>  (45) 
-6.92

>  <cluster_rmsd>  (45) 
0.71

>  <cluster>  (45) 
6

$$$$

     RDKit          3D

 53 56  0  0  0  0  0  0  0  0999 V2000
  138.9950   74.9850  222.0600 O   0  0  0  0  0  0  0  0  0  0  0  0
  140.1430   75.5460  222.0060 C   0  0  0  0  0  0  0  0  0  0  0  0
  141.2710   74.7910  221.5900 N   0  0  0  0  0  0  0  0  0  0  0  0
  141.1600   73.3740  221.2170 C   0  0  0  0  0  0  0  0  0  0  0  0
  141.9200   73.1770  219.9570 C   0  0  0  0  0  0  0  0  0  0  0  0
  141.3000   72.8100  218.9010 O   0  0  0  0  0  0  0  0  0  0  0  0
  143.3080   73.3690  219.8270 N   0  0  0  0  0  0  0  0  0  0  0  0
  144.1560   72.7910  218.8160 C   0  0  0  0  0  0  0  0  0  0  0  0
  145.2960   72.2870  219.7080 C   0  0  0  0  0  0  0  0  0  0  0  0
  145.5780   73.5210  220.5340 C   0  0  2  0  0  0  0  0  0  0  0  0
  146.0510   73.1450  221.7700 O   0  0  0  0  0  0  0  0  0  0  0  0
  144.2190   74.1750  220.6560 C   0  0  1  0  0  0  0  0  0  0  0  0
  144.1920   75.5500  220.0740 C   0  0  0  0  0  0  0  0  0  0  0  0
  142.9730   76.0610  219.7010 O   0  0  0  0  0  0  0  0  0  0  0  0
  142.6600   77.1860  219.0090 C   0  0  0  0  0  0  0  0  0  0  0  0
  142.8930   77.4530  217.6920 C   0  0  0  0  0  0  0  0  0  0  0  0
  142.5210   78.6530  217.0820 C   0  0  0  0  0  0  0  0  0  0  0  0
  141.8940   79.6270  217.8110 C   0  0  0  0  0  0  0  0  0  0  0  0
  141.6460   79.3900  219.1360 C   0  0  0  0  0  0  0  0  0  0  0  0
  142.0140   78.2070  219.7300 C   0  0  0  0  0  0  0  0  0  0  0  0
  140.2800   76.9590  222.3720 C   0  0  0  0  0  0  0  0  0  0  0  0
  139.1390   77.7220  222.5400 C   0  0  0  0  0  0  0  0  0  0  0  0
  139.2020   79.0660  222.8860 C   0  0  0  0  0  0  0  0  0  0  0  0
  140.4420   79.6450  223.0680 C   0  0  0  0  0  0  0  0  0  0  0  0
  140.5680   80.9760  223.4130 C   0  0  0  0  0  0  0  0  0  0  0  0
  141.8160   81.5460  223.5940 C   0  0  0  0  0  0  0  0  0  0  0  0
  142.9570   80.7750  223.4250 C   0  0  0  0  0  0  0  0  0  0  0  0
  142.8080   79.4460  223.0790 C   0  0  0  0  0  0  0  0  0  0  0  0
  141.5690   78.8660  222.8970 C   0  0  0  0  0  0  0  0  0  0  0  0
  141.4510   77.5510  222.5560 N   0  0  0  0  0  0  0  0  0  0  0  0
  142.1880   75.2980  221.5640 H   0  0  0  0  0  0  0  0  0  0  0  0
  141.5836   72.7431  222.0123 H   0  0  0  0  0  0  0  0  0  0  0  0
  140.1053   73.0941  221.0780 H   0  0  0  0  0  0  0  0  0  0  0  0
  143.6574   71.9687  218.2819 H   0  0  0  0  0  0  0  0  0  0  0  0
  144.4577   73.4741  218.0083 H   0  0  0  0  0  0  0  0  0  0  0  0
  144.9749   71.4437  220.3371 H   0  0  0  0  0  0  0  0  0  0  0  0
  146.1662   71.8990  219.1582 H   0  0  0  0  0  0  0  0  0  0  0  0
  146.3320   74.1901  220.0938 H   0  0  0  0  0  0  0  0  0  0  0  0
  145.9540   72.1730  221.9370 H   0  0  0  0  0  0  0  0  0  0  0  0
  143.9499   74.2358  221.7208 H   0  0  0  0  0  0  0  0  0  0  0  0
  144.6190   76.2326  220.8235 H   0  0  0  0  0  0  0  0  0  0  0  0
  144.7577   75.4656  219.1344 H   0  0  0  0  0  0  0  0  0  0  0  0
  143.3969   76.6884  217.0825 H   0  0  0  0  0  0  0  0  0  0  0  0
  142.7321   78.8155  216.0147 H   0  0  0  0  0  0  0  0  0  0  0  0
  141.5966   80.5772  217.3434 H   0  0  0  0  0  0  0  0  0  0  0  0
  141.1423   80.1615  219.7369 H   0  0  0  0  0  0  0  0  0  0  0  0
  141.7978   78.0540  220.7976 H   0  0  0  0  0  0  0  0  0  0  0  0
  138.1549   77.2521  222.3958 H   0  0  0  0  0  0  0  0  0  0  0  0
  138.2827   79.6567  223.0124 H   0  0  0  0  0  0  0  0  0  0  0  0
  139.6655   81.5907  223.5456 H   0  0  0  0  0  0  0  0  0  0  0  0
  141.9031   82.6070  223.8710 H   0  0  0  0  0  0  0  0  0  0  0  0
  143.9570   81.2119  223.5633 H   0  0  0  0  0  0  0  0  0  0  0  0
  143.7082   78.8285  222.9438 H   0  0  0  0  0  0  0  0  0  0  0  0
  1  2  2  0
  2  3  1  0
  3  4  1  0
  4  5  1  0
  5  6  2  0
  5  7  1  0
  7  8  1  0
  8  9  1  0
  9 10  1  0
 10 11  1  0
 10 12  1  0
 12 13  1  0
 13 14  1  0
 14 15  1  0
 15 16  2  0
 16 17  1  0
 17 18  2  0
 18 19  1  0
 19 20  2  0
  2 21  1  0
 21 22  2  0
 22 23  1  0
 23 24  2  0
 24 25  1  0
 25 26  2  0
 26 27  1  0
 27 28  2  0
 28 29  1  0
 29 30  2  0
 12  7  1  0
 20 15  1  0
 30 21  1  0
 29 24  1  0
  3 31  1  0
  4 32  1  0
  4 33  1  0
  8 34  1  0
  8 35  1  0
  9 36  1  0
  9 37  1  0
 10 38  1  6
 11 39  1  0
 12 40  1  1
 13 41  1  0
 13 42  1  0
 16 43  1  0
 17 44  1  0
 18 45  1  0
 19 46  1  0
 20 47  1  0
 22 48  1  0
 23 49  1  0
 25 50  1  0
 26 51  1  0
 27 52  1  0
 28 53  1  0
M  END
>  <smiles>  (46) 
O=C(NCC(=O)N1CC[C@H](O)[C@H]1COc1ccccc1)c1ccc2ccccc2n1

>  <score_type>  (46) 
oracle

>  <origin>  (46) 
autodockgpu

>  <m_score__min__energy>  (46) 
-8.9299999999999997

>  <m_primary>  (46) 
energy

>  <rmsd>  (46) 
7.680350008290694

>  <m_score__min__rmsd>  (46) 
7.680350008290694

>  <meeko>  (46) 
{"free_energy": -7.27, "intermolecular_energy": -9.65, "internal_energy": -3.16, "cluster_size": 12, "cluster_id": 6, "rank_in_cluster": 2}

>  <energy>  (46) 
-6.77

>  <cluster_rmsd>  (46) 
0.52

>  <cluster>  (46) 
6

$$$$

     RDKit          3D

 53 56  0  0  0  0  0  0  0  0999 V2000
  138.5990   70.6330  221.6790 O   0  0  0  0  0  0  0  0  0  0  0  0
  139.0800   71.1730  222.7330 C   0  0  0  0  0  0  0  0  0  0  0  0
  139.3560   72.5660  222.7400 N   0  0  0  0  0  0  0  0  0  0  0  0
  139.1050   73.4110  221.5640 C   0  0  0  0  0  0  0  0  0  0  0  0
  140.2600   74.3330  221.4150 C   0  0  0  0  0  0  0  0  0  0  0  0
  141.4270   73.9350  221.7520 O   0  0  0  0  0  0  0  0  0  0  0  0
  140.1700   75.6470  220.9210 N   0  0  0  0  0  0  0  0  0  0  0  0
  139.7100   76.0340  219.6110 C   0  0  0  0  0  0  0  0  0  0  0  0
  140.8290   77.0120  219.2350 C   0  0  0  0  0  0  0  0  0  0  0  0
  140.8790   77.8770  220.4730 C   0  0  2  0  0  0  0  0  0  0  0  0
  142.1590   78.3520  220.6460 O   0  0  0  0  0  0  0  0  0  0  0  0
  140.5090   76.9180  221.5830 C   0  0  1  0  0  0  0  0  0  0  0  0
  139.2760   77.3380  222.3150 C   0  0  0  0  0  0  0  0  0  0  0  0
  139.3700   78.4210  223.1530 O   0  0  0  0  0  0  0  0  0  0  0  0
  140.3150   79.3920  223.2420 C   0  0  0  0  0  0  0  0  0  0  0  0
  140.2340   80.6830  222.8090 C   0  0  0  0  0  0  0  0  0  0  0  0
  141.2760   81.6020  222.9560 C   0  0  0  0  0  0  0  0  0  0  0  0
  142.4450   81.2210  223.5580 C   0  0  0  0  0  0  0  0  0  0  0  0
  142.5580   79.9320  224.0020 C   0  0  0  0  0  0  0  0  0  0  0  0
  141.5290   79.0330  223.8540 C   0  0  0  0  0  0  0  0  0  0  0  0
  139.3390   70.3520  223.9190 C   0  0  0  0  0  0  0  0  0  0  0  0
  138.9590   69.0220  223.9090 C   0  0  0  0  0  0  0  0  0  0  0  0
  139.1770   68.1910  225.0010 C   0  0  0  0  0  0  0  0  0  0  0  0
  139.7920   68.7170  226.1200 C   0  0  0  0  0  0  0  0  0  0  0  0
  140.0350   67.9400  227.2370 C   0  0  0  0  0  0  0  0  0  0  0  0
  140.6520   68.4780  228.3530 C   0  0  0  0  0  0  0  0  0  0  0  0
  141.0300   69.8120  228.3560 C   0  0  0  0  0  0  0  0  0  0  0  0
  140.7770   70.5710  227.2300 C   0  0  0  0  0  0  0  0  0  0  0  0
  140.1640   70.0460  226.1100 C   0  0  0  0  0  0  0  0  0  0  0  0
  139.9260   70.8190  225.0120 N   0  0  0  0  0  0  0  0  0  0  0  0
  139.7500   72.9590  223.6280 H   0  0  0  0  0  0  0  0  0  0  0  0
  139.0083   72.7835  220.6657 H   0  0  0  0  0  0  0  0  0  0  0  0
  138.1720   73.9798  221.6906 H   0  0  0  0  0  0  0  0  0  0  0  0
  139.6634   75.1778  218.9219 H   0  0  0  0  0  0  0  0  0  0  0  0
  138.6915   76.4477  219.5734 H   0  0  0  0  0  0  0  0  0  0  0  0
  141.7828   76.4903  219.0672 H   0  0  0  0  0  0  0  0  0  0  0  0
  140.6545   77.5652  218.3004 H   0  0  0  0  0  0  0  0  0  0  0  0
  140.2152   78.7532  220.4322 H   0  0  0  0  0  0  0  0  0  0  0  0
  142.6830   77.8140  221.2920 H   0  0  0  0  0  0  0  0  0  0  0  0
  141.3440   76.8645  222.2970 H   0  0  0  0  0  0  0  0  0  0  0  0
  138.5096   77.5713  221.5612 H   0  0  0  0  0  0  0  0  0  0  0  0
  139.0445   76.4918  222.9786 H   0  0  0  0  0  0  0  0  0  0  0  0
  139.3056   81.0158  222.3217 H   0  0  0  0  0  0  0  0  0  0  0  0
  141.1571   82.6318  222.5880 H   0  0  0  0  0  0  0  0  0  0  0  0
  143.2734   81.9341  223.6817 H   0  0  0  0  0  0  0  0  0  0  0  0
  143.4908   79.6087  224.4870 H   0  0  0  0  0  0  0  0  0  0  0  0
  141.6586   78.0053  224.2242 H   0  0  0  0  0  0  0  0  0  0  0  0
  138.4712   68.6113  223.0127 H   0  0  0  0  0  0  0  0  0  0  0  0
  138.8662   67.1362  224.9747 H   0  0  0  0  0  0  0  0  0  0  0  0
  139.7345   66.8818  227.2390 H   0  0  0  0  0  0  0  0  0  0  0  0
  140.8420   67.8490  229.2352 H   0  0  0  0  0  0  0  0  0  0  0  0
  141.5202   70.2558  229.2351 H   0  0  0  0  0  0  0  0  0  0  0  0
  141.0741   71.6301  227.2256 H   0  0  0  0  0  0  0  0  0  0  0  0
  1  2  2  0
  2  3  1  0
  3  4  1  0
  4  5  1  0
  5  6  2  0
  5  7  1  0
  7  8  1  0
  8  9  1  0
  9 10  1  0
 10 11  1  0
 10 12  1  0
 12 13  1  0
 13 14  1  0
 14 15  1  0
 15 16  2  0
 16 17  1  0
 17 18  2  0
 18 19  1  0
 19 20  2  0
  2 21  1  0
 21 22  2  0
 22 23  1  0
 23 24  2  0
 24 25  1  0
 25 26  2  0
 26 27  1  0
 27 28  2  0
 28 29  1  0
 29 30  2  0
 12  7  1  0
 20 15  1  0
 30 21  1  0
 29 24  1  0
  3 31  1  0
  4 32  1  0
  4 33  1  0
  8 34  1  0
  8 35  1  0
  9 36  1  0
  9 37  1  0
 10 38  1  6
 11 39  1  0
 12 40  1  1
 13 41  1  0
 13 42  1  0
 16 43  1  0
 17 44  1  0
 18 45  1  0
 19 46  1  0
 20 47  1  0
 22 48  1  0
 23 49  1  0
 25 50  1  0
 26 51  1  0
 27 52  1  0
 28 53  1  0
M  END
>  <smiles>  (47) 
O=C(NCC(=O)N1CC[C@H](O)[C@H]1COc1ccccc1)c1ccc2ccccc2n1

>  <score_type>  (47) 
oracle

>  <origin>  (47) 
autodockgpu

>  <m_score__min__energy>  (47) 
-8.9299999999999997

>  <m_primary>  (47) 
energy

>  <rmsd>  (47) 
2.333898398110894

>  <m_score__min__rmsd>  (47) 
2.333898398110894

>  <meeko>  (47) 
{"free_energy": -8.36, "intermolecular_energy": -10.74, "internal_energy": -1.66, "cluster_size": 21, "cluster_id": 1, "rank_in_cluster": 9}

>  <energy>  (47) 
-6.67

>  <cluster_rmsd>  (47) 
0.99

>  <cluster>  (47) 
6

$$$$

     RDKit          3D

 53 56  0  0  0  0  0  0  0  0999 V2000
  139.3590   70.7740  221.3300 O   0  0  0  0  0  0  0  0  0  0  0  0
  139.5130   71.4560  222.4000 C   0  0  0  0  0  0  0  0  0  0  0  0
  139.5470   72.8740  222.3260 N   0  0  0  0  0  0  0  0  0  0  0  0
  139.4100   73.5860  221.0480 C   0  0  0  0  0  0  0  0  0  0  0  0
  140.2620   74.8010  221.1150 C   0  0  0  0  0  0  0  0  0  0  0  0
  140.5810   75.2810  222.2560 O   0  0  0  0  0  0  0  0  0  0  0  0
  140.7590   75.4870  219.9910 N   0  0  0  0  0  0  0  0  0  0  0  0
  140.7590   75.0080  218.6320 C   0  0  0  0  0  0  0  0  0  0  0  0
  142.2070   75.3360  218.2540 C   0  0  0  0  0  0  0  0  0  0  0  0
  142.3010   76.7740  218.7110 C   0  0  2  0  0  0  0  0  0  0  0  0
  143.5980   77.0530  219.0770 O   0  0  0  0  0  0  0  0  0  0  0  0
  141.3840   76.8180  219.9120 C   0  0  1  0  0  0  0  0  0  0  0  0
  140.2600   77.7870  219.7390 C   0  0  0  0  0  0  0  0  0  0  0  0
  140.0590   78.7150  220.7300 O   0  0  0  0  0  0  0  0  0  0  0  0
  140.9050   79.1930  221.6790 C   0  0  0  0  0  0  0  0  0  0  0  0
  141.7240   80.2810  221.6010 C   0  0  0  0  0  0  0  0  0  0  0  0
  142.5550   80.6840  222.6490 C   0  0  0  0  0  0  0  0  0  0  0  0
  142.5740   79.9760  223.8200 C   0  0  0  0  0  0  0  0  0  0  0  0
  141.7640   78.8780  223.9290 C   0  0  0  0  0  0  0  0  0  0  0  0
  140.9470   78.4870  222.8950 C   0  0  0  0  0  0  0  0  0  0  0  0
  139.6520   70.7700  223.6870 C   0  0  0  0  0  0  0  0  0  0  0  0
  139.2010   69.4670  223.8040 C   0  0  0  0  0  0  0  0  0  0  0  0
  139.3030   68.7620  224.9970 C   0  0  0  0  0  0  0  0  0  0  0  0
  139.8740   69.3860  226.0880 C   0  0  0  0  0  0  0  0  0  0  0  0
  140.0030   68.7370  227.3000 C   0  0  0  0  0  0  0  0  0  0  0  0
  140.5770   69.3720  228.3860 C   0  0  0  0  0  0  0  0  0  0  0  0
  141.0280   70.6780  228.2630 C   0  0  0  0  0  0  0  0  0  0  0  0
  140.8880   71.3090  227.0430 C   0  0  0  0  0  0  0  0  0  0  0  0
  140.3190   70.6860  225.9510 C   0  0  0  0  0  0  0  0  0  0  0  0
  140.1930   71.3340  224.7570 N   0  0  0  0  0  0  0  0  0  0  0  0
  139.6770   73.3860  223.2310 H   0  0  0  0  0  0  0  0  0  0  0  0
  139.7424   72.9403  220.2218 H   0  0  0  0  0  0  0  0  0  0  0  0
  138.3598   73.8609  220.8705 H   0  0  0  0  0  0  0  0  0  0  0  0
  140.5539   73.9287  218.5764 H   0  0  0  0  0  0  0  0  0  0  0  0
  139.9913   75.4478  217.9784 H   0  0  0  0  0  0  0  0  0  0  0  0
  142.9208   74.6934  218.7903 H   0  0  0  0  0  0  0  0  0  0  0  0
  142.4468   75.1793  217.1920 H   0  0  0  0  0  0  0  0  0  0  0  0
  142.0224   77.5065  217.9391 H   0  0  0  0  0  0  0  0  0  0  0  0
  143.6610   77.8050  219.7170 H   0  0  0  0  0  0  0  0  0  0  0  0
  141.9714   77.1111  220.7946 H   0  0  0  0  0  0  0  0  0  0  0  0
  140.4425   78.3384  218.8048 H   0  0  0  0  0  0  0  0  0  0  0  0
  139.3526   77.1653  219.7524 H   0  0  0  0  0  0  0  0  0  0  0  0
  141.7304   80.8677  220.6705 H   0  0  0  0  0  0  0  0  0  0  0  0
  143.1947   81.5713  222.5329 H   0  0  0  0  0  0  0  0  0  0  0  0
  143.2241   80.2817  224.6530 H   0  0  0  0  0  0  0  0  0  0  0  0
  141.7669   78.2968  224.8629 H   0  0  0  0  0  0  0  0  0  0  0  0
  140.3098   77.5994  223.0217 H   0  0  0  0  0  0  0  0  0  0  0  0
  138.7497   68.9762  222.9291 H   0  0  0  0  0  0  0  0  0  0  0  0
  138.9362   67.7276  225.0706 H   0  0  0  0  0  0  0  0  0  0  0  0
  139.6447   67.7021  227.4028 H   0  0  0  0  0  0  0  0  0  0  0  0
  140.6757   68.8427  229.3452 H   0  0  0  0  0  0  0  0  0  0  0  0
  141.4862   71.1984  229.1170 H   0  0  0  0  0  0  0  0  0  0  0  0
  141.2425   72.3450  226.9377 H   0  0  0  0  0  0  0  0  0  0  0  0
  1  2  2  0
  2  3  1  0
  3  4  1  0
  4  5  1  0
  5  6  2  0
  5  7  1  0
  7  8  1  0
  8  9  1  0
  9 10  1  0
 10 11  1  0
 10 12  1  0
 12 13  1  0
 13 14  1  0
 14 15  1  0
 15 16  2  0
 16 17  1  0
 17 18  2  0
 18 19  1  0
 19 20  2  0
  2 21  1  0
 21 22  2  0
 22 23  1  0
 23 24  2  0
 24 25  1  0
 25 26  2  0
 26 27  1  0
 27 28  2  0
 28 29  1  0
 29 30  2  0
 12  7  1  0
 20 15  1  0
 30 21  1  0
 29 24  1  0
  3 31  1  0
  4 32  1  0
  4 33  1  0
  8 34  1  0
  8 35  1  0
  9 36  1  0
  9 37  1  0
 10 38  1  6
 11 39  1  0
 12 40  1  1
 13 41  1  0
 13 42  1  0
 16 43  1  0
 17 44  1  0
 18 45  1  0
 19 46  1  0
 20 47  1  0
 22 48  1  0
 23 49  1  0
 25 50  1  0
 26 51  1  0
 27 52  1  0
 28 53  1  0
M  END
>  <smiles>  (48) 
O=C(NCC(=O)N1CC[C@H](O)[C@H]1COc1ccccc1)c1ccc2ccccc2n1

>  <score_type>  (48) 
oracle

>  <origin>  (48) 
autodockgpu

>  <m_score__min__energy>  (48) 
-8.9299999999999997

>  <m_primary>  (48) 
energy

>  <rmsd>  (48) 
1.6703274305432951

>  <m_score__min__rmsd>  (48) 
1.6703274305432951

>  <meeko>  (48) 
{"free_energy": -8.48, "intermolecular_energy": -10.87, "internal_energy": -2.02, "cluster_size": 21, "cluster_id": 1, "rank_in_cluster": 7}

>  <energy>  (48) 
-6.56

>  <cluster_rmsd>  (48) 
0.7

>  <cluster>  (48) 
6

$$$$

     RDKit          3D

 53 56  0  0  0  0  0  0  0  0999 V2000
  139.3460   70.6830  221.4080 O   0  0  0  0  0  0  0  0  0  0  0  0
  139.4670   71.3540  222.4890 C   0  0  0  0  0  0  0  0  0  0  0  0
  139.4540   72.7730  222.4350 N   0  0  0  0  0  0  0  0  0  0  0  0
  139.3060   73.4990  221.1650 C   0  0  0  0  0  0  0  0  0  0  0  0
  140.0650   74.7700  221.2800 C   0  0  0  0  0  0  0  0  0  0  0  0
  139.9620   75.4670  222.3470 O   0  0  0  0  0  0  0  0  0  0  0  0
  140.9120   75.2840  220.2810 N   0  0  0  0  0  0  0  0  0  0  0  0
  141.1620   74.6940  218.9900 C   0  0  0  0  0  0  0  0  0  0  0  0
  142.6910   74.7920  218.9650 C   0  0  0  0  0  0  0  0  0  0  0  0
  142.8890   76.2390  219.3570 C   0  0  2  0  0  0  0  0  0  0  0  0
  144.0890   76.3720  220.0180 O   0  0  0  0  0  0  0  0  0  0  0  0
  141.7300   76.5080  220.2910 C   0  0  1  0  0  0  0  0  0  0  0  0
  140.8380   77.5990  219.7970 C   0  0  0  0  0  0  0  0  0  0  0  0
  141.0700   78.8710  220.2590 O   0  0  0  0  0  0  0  0  0  0  0  0
  141.4910   79.3080  221.4740 C   0  0  0  0  0  0  0  0  0  0  0  0
  142.2170   80.4280  221.7580 C   0  0  0  0  0  0  0  0  0  0  0  0
  142.5930   80.7810  223.0550 C   0  0  0  0  0  0  0  0  0  0  0  0
  142.2360   79.9890  224.1130 C   0  0  0  0  0  0  0  0  0  0  0  0
  141.5080   78.8570  223.8610 C   0  0  0  0  0  0  0  0  0  0  0  0
  141.1400   78.5150  222.5820 C   0  0  0  0  0  0  0  0  0  0  0  0
  139.6160   70.6550  223.7680 C   0  0  0  0  0  0  0  0  0  0  0  0
  139.1790   69.3470  223.8710 C   0  0  0  0  0  0  0  0  0  0  0  0
  139.2920   68.6290  225.0560 C   0  0  0  0  0  0  0  0  0  0  0  0
  139.8580   69.2470  226.1530 C   0  0  0  0  0  0  0  0  0  0  0  0
  139.9970   68.5860  227.3570 C   0  0  0  0  0  0  0  0  0  0  0  0
  140.5660   69.2150  228.4500 C   0  0  0  0  0  0  0  0  0  0  0  0
  141.0020   70.5270  228.3400 C   0  0  0  0  0  0  0  0  0  0  0  0
  140.8540   71.1710  227.1270 C   0  0  0  0  0  0  0  0  0  0  0  0
  140.2880   70.5540  226.0300 C   0  0  0  0  0  0  0  0  0  0  0  0
  140.1530   71.2130  224.8430 N   0  0  0  0  0  0  0  0  0  0  0  0
  139.5570   73.2770  223.3490 H   0  0  0  0  0  0  0  0  0  0  0  0
  139.7098   72.8950  220.3390 H   0  0  0  0  0  0  0  0  0  0  0  0
  138.2447   73.7016  220.9586 H   0  0  0  0  0  0  0  0  0  0  0  0
  140.8159   73.6510  218.9406 H   0  0  0  0  0  0  0  0  0  0  0  0
  140.6462   75.1745  218.1456 H   0  0  0  0  0  0  0  0  0  0  0  0
  143.1523   74.1086  219.6931 H   0  0  0  0  0  0  0  0  0  0  0  0
  143.1494   74.5137  218.0046 H   0  0  0  0  0  0  0  0  0  0  0  0
  142.9148   76.9332  218.5041 H   0  0  0  0  0  0  0  0  0  0  0  0
  144.0970   77.1380  220.6460 H   0  0  0  0  0  0  0  0  0  0  0  0
  142.1285   76.7952  221.2752 H   0  0  0  0  0  0  0  0  0  0  0  0
  140.9279   77.6260  218.7010 H   0  0  0  0  0  0  0  0  0  0  0  0
  139.8413   77.3400  220.1838 H   0  0  0  0  0  0  0  0  0  0  0  0
  142.5196   81.0823  220.9271 H   0  0  0  0  0  0  0  0  0  0  0  0
  143.1771   81.6970  223.2273 H   0  0  0  0  0  0  0  0  0  0  0  0
  142.5267   80.2553  225.1399 H   0  0  0  0  0  0  0  0  0  0  0  0
  141.2119   78.2087  224.6988 H   0  0  0  0  0  0  0  0  0  0  0  0
  140.5557   77.5972  222.4201 H   0  0  0  0  0  0  0  0  0  0  0  0
  138.7300   68.8618  222.9918 H   0  0  0  0  0  0  0  0  0  0  0  0
  138.9376   67.5895  225.1183 H   0  0  0  0  0  0  0  0  0  0  0  0
  139.6509   67.5459  227.4485 H   0  0  0  0  0  0  0  0  0  0  0  0
  140.6722   68.6763  229.4032 H   0  0  0  0  0  0  0  0  0  0  0  0
  141.4554   71.0430  229.1992 H   0  0  0  0  0  0  0  0  0  0  0  0
  141.1991   72.2112  227.0322 H   0  0  0  0  0  0  0  0  0  0  0  0
  1  2  2  0
  2  3  1  0
  3  4  1  0
  4  5  1  0
  5  6  2  0
  5  7  1  0
  7  8  1  0
  8  9  1  0
  9 10  1  0
 10 11  1  0
 10 12  1  0
 12 13  1  0
 13 14  1  0
 14 15  1  0
 15 16  2  0
 16 17  1  0
 17 18  2  0
 18 19  1  0
 19 20  2  0
  2 21  1  0
 21 22  2  0
 22 23  1  0
 23 24  2  0
 24 25  1  0
 25 26  2  0
 26 27  1  0
 27 28  2  0
 28 29  1  0
 29 30  2  0
 12  7  1  0
 20 15  1  0
 30 21  1  0
 29 24  1  0
  3 31  1  0
  4 32  1  0
  4 33  1  0
  8 34  1  0
  8 35  1  0
  9 36  1  0
  9 37  1  0
 10 38  1  6
 11 39  1  0
 12 40  1  1
 13 41  1  0
 13 42  1  0
 16 43  1  0
 17 44  1  0
 18 45  1  0
 19 46  1  0
 20 47  1  0
 22 48  1  0
 23 49  1  0
 25 50  1  0
 26 51  1  0
 27 52  1  0
 28 53  1  0
M  END
>  <smiles>  (49) 
O=C(NCC(=O)N1CC[C@H](O)[C@H]1COc1ccccc1)c1ccc2ccccc2n1

>  <score_type>  (49) 
oracle

>  <origin>  (49) 
autodockgpu

>  <m_score__min__energy>  (49) 
-8.9299999999999997

>  <m_primary>  (49) 
energy

>  <rmsd>  (49) 
1.9354228101626458

>  <m_score__min__rmsd>  (49) 
1.9354228101626458

>  <meeko>  (49) 
{"free_energy": -8.86, "intermolecular_energy": -11.25, "internal_energy": -1.77, "cluster_size": 21, "cluster_id": 1, "rank_in_cluster": 2}

>  <energy>  (49) 
-6.54

>  <cluster_rmsd>  (49) 
1.25

>  <cluster>  (49) 
6

$$$$

     RDKit          3D

 53 56  0  0  0  0  0  0  0  0999 V2000
  141.0440   74.3340  221.3480 O   0  0  0  0  0  0  0  0  0  0  0  0
  140.0290   74.8150  221.9570 C   0  0  0  0  0  0  0  0  0  0  0  0
  138.9380   73.9640  222.2790 N   0  0  0  0  0  0  0  0  0  0  0  0
  138.9400   72.5370  221.9290 C   0  0  0  0  0  0  0  0  0  0  0  0
  137.7600   71.9120  222.5770 C   0  0  0  0  0  0  0  0  0  0  0  0
  136.9330   72.6470  223.2180 O   0  0  0  0  0  0  0  0  0  0  0  0
  137.4690   70.5350  222.5430 N   0  0  0  0  0  0  0  0  0  0  0  0
  137.3500   69.7190  221.3610 C   0  0  0  0  0  0  0  0  0  0  0  0
  136.0430   68.9910  221.6940 C   0  0  0  0  0  0  0  0  0  0  0  0
  136.3310   68.5180  223.1000 C   0  0  2  0  0  0  0  0  0  0  0  0
  135.1530   68.4400  223.8060 O   0  0  0  0  0  0  0  0  0  0  0  0
  137.2210   69.6070  223.6590 C   0  0  1  0  0  0  0  0  0  0  0  0
  138.5620   69.0950  224.0710 C   0  0  0  0  0  0  0  0  0  0  0  0
  139.5180   70.0180  224.4170 O   0  0  0  0  0  0  0  0  0  0  0  0
  139.9790   70.3990  225.6360 C   0  0  0  0  0  0  0  0  0  0  0  0
  139.7600   69.7980  226.8410 C   0  0  0  0  0  0  0  0  0  0  0  0
  140.2920   70.2810  228.0390 C   0  0  0  0  0  0  0  0  0  0  0  0
  141.0700   71.4070  228.0390 C   0  0  0  0  0  0  0  0  0  0  0  0
  141.3060   72.0340  226.8460 C   0  0  0  0  0  0  0  0  0  0  0  0
  140.7820   71.5540  225.6710 C   0  0  0  0  0  0  0  0  0  0  0  0
  140.0020   76.2360  222.3170 C   0  0  0  0  0  0  0  0  0  0  0  0
  138.7840   76.8880  222.3800 C   0  0  0  0  0  0  0  0  0  0  0  0
  138.6900   78.2330  222.7150 C   0  0  0  0  0  0  0  0  0  0  0  0
  139.8510   78.9280  222.9920 C   0  0  0  0  0  0  0  0  0  0  0  0
  139.8230   80.2670  223.3310 C   0  0  0  0  0  0  0  0  0  0  0  0
  140.9920   80.9520  223.6080 C   0  0  0  0  0  0  0  0  0  0  0  0
  142.2100   80.2930  223.5430 C   0  0  0  0  0  0  0  0  0  0  0  0
  142.2170   78.9540  223.2020 C   0  0  0  0  0  0  0  0  0  0  0  0
  141.0570   78.2590  222.9240 C   0  0  0  0  0  0  0  0  0  0  0  0
  141.0930   76.9370  222.5900 N   0  0  0  0  0  0  0  0  0  0  0  0
  138.1310   74.4090  222.7780 H   0  0  0  0  0  0  0  0  0  0  0  0
  138.8744   72.4189  220.8373 H   0  0  0  0  0  0  0  0  0  0  0  0
  139.8680   72.0571  222.2733 H   0  0  0  0  0  0  0  0  0  0  0  0
  137.2612   70.3271  220.4486 H   0  0  0  0  0  0  0  0  0  0  0  0
  138.2109   69.0675  221.1505 H   0  0  0  0  0  0  0  0  0  0  0  0
  135.1810   69.6737  221.6654 H   0  0  0  0  0  0  0  0  0  0  0  0
  135.7769   68.1890  220.9898 H   0  0  0  0  0  0  0  0  0  0  0  0
  136.7986   67.5235  223.1488 H   0  0  0  0  0  0  0  0  0  0  0  0
  134.5330   67.7600  223.4410 H   0  0  0  0  0  0  0  0  0  0  0  0
  136.7283   70.0522  224.5360 H   0  0  0  0  0  0  0  0  0  0  0  0
  138.4101   68.4376  224.9398 H   0  0  0  0  0  0  0  0  0  0  0  0
  138.9613   68.6045  223.1710 H   0  0  0  0  0  0  0  0  0  0  0  0
  139.1364   68.8923  226.8706 H   0  0  0  0  0  0  0  0  0  0  0  0
  140.0854   69.7558  228.9832 H   0  0  0  0  0  0  0  0  0  0  0  0
  141.4951   71.7983  228.9751 H   0  0  0  0  0  0  0  0  0  0  0  0
  141.9281   72.9410  226.8278 H   0  0  0  0  0  0  0  0  0  0  0  0
  140.9956   72.0864  224.7324 H   0  0  0  0  0  0  0  0  0  0  0  0
  137.8645   76.3263  222.1588 H   0  0  0  0  0  0  0  0  0  0  0  0
  137.7116   78.7339  222.7587 H   0  0  0  0  0  0  0  0  0  0  0  0
  138.8591   80.7947  223.3812 H   0  0  0  0  0  0  0  0  0  0  0  0
  140.9555   82.0174  223.8793 H   0  0  0  0  0  0  0  0  0  0  0  0
  143.1492   80.8238  223.7579 H   0  0  0  0  0  0  0  0  0  0  0  0
  143.1794   78.4239  223.1503 H   0  0  0  0  0  0  0  0  0  0  0  0
  1  2  2  0
  2  3  1  0
  3  4  1  0
  4  5  1  0
  5  6  2  0
  5  7  1  0
  7  8  1  0
  8  9  1  0
  9 10  1  0
 10 11  1  0
 10 12  1  0
 12 13  1  0
 13 14  1  0
 14 15  1  0
 15 16  2  0
 16 17  1  0
 17 18  2  0
 18 19  1  0
 19 20  2  0
  2 21  1  0
 21 22  2  0
 22 23  1  0
 23 24  2  0
 24 25  1  0
 25 26  2  0
 26 27  1  0
 27 28  2  0
 28 29  1  0
 29 30  2  0
 12  7  1  0
 20 15  1  0
 30 21  1  0
 29 24  1  0
  3 31  1  0
  4 32  1  0
  4 33  1  0
  8 34  1  0
  8 35  1  0
  9 36  1  0
  9 37  1  0
 10 38  1  6
 11 39  1  0
 12 40  1  1
 13 41  1  0
 13 42  1  0
 16 43  1  0
 17 44  1  0
 18 45  1  0
 19 46  1  0
 20 47  1  0
 22 48  1  0
 23 49  1  0
 25 50  1  0
 26 51  1  0
 27 52  1  0
 28 53  1  0
M  END
>  <smiles>  (50) 
O=C(NCC(=O)N1CC[C@H](O)[C@H]1COc1ccccc1)c1ccc2ccccc2n1

>  <score_type>  (50) 
oracle

>  <origin>  (50) 
autodockgpu

>  <m_score__min__energy>  (50) 
-8.9299999999999997

>  <m_primary>  (50) 
energy

>  <rmsd>  (50) 
8.546269525144023

>  <m_score__min__rmsd>  (50) 
8.546269525144023

>  <meeko>  (50) 
{"free_energy": -7.9, "intermolecular_energy": -10.29, "internal_energy": -1.95, "cluster_size": 10, "cluster_id": 2, "rank_in_cluster": 3}

>  <energy>  (50) 
-6.13

>  <cluster_rmsd>  (50) 
1.13

>  <cluster>  (50) 
6

$$$$
