
     RDKit          3D

 55 59  0  0  0  0  0  0  0  0999 V2000
  143.1710   75.6160  220.3640 O   0  0  0  0  0  0  0  0  0  0  0  0
  142.0600   75.3950  220.8640 C   0  0  0  0  0  0  0  0  0  0  0  0
  141.6150   74.1390  221.1510 C   0  0  0  0  0  0  0  0  0  0  0  0
  142.3780   73.0360  220.8820 C   0  0  0  0  0  0  0  0  0  0  0  0
  143.7130   72.9740  220.4330 C   0  0  0  0  0  0  0  0  0  0  0  0
  144.1120   72.5780  219.1600 C   0  0  0  0  0  0  0  0  0  0  0  0
  145.4080   72.6030  218.8650 C   0  0  0  0  0  0  0  0  0  0  0  0
  146.3210   73.0030  219.7740 C   0  0  0  0  0  0  0  0  0  0  0  0
  145.2850   73.3920  221.2050 S   0  0  0  0  0  0  0  0  0  0  0  0
  141.7600   71.8090  221.2080 C   0  0  0  0  0  0  0  0  0  0  0  0
  140.5120   71.7210  221.7480 C   0  0  0  0  0  0  0  0  0  0  0  0
  139.7670   72.8390  222.0120 C   0  0  0  0  0  0  0  0  0  0  0  0
  140.3350   74.0540  221.7060 C   0  0  0  0  0  0  0  0  0  0  0  0
  139.6250   75.1520  221.9290 N   0  0  0  0  0  0  0  0  0  0  0  0
  140.0660   76.3900  221.6470 C   0  0  0  0  0  0  0  0  0  0  0  0
  139.2040   77.5220  221.9490 C   0  0  0  0  0  0  0  0  0  0  0  0
  139.4180   78.2350  223.0380 C   0  0  0  0  0  0  0  0  0  0  0  0
  140.4060   79.2970  223.1390 C   0  0  0  0  0  0  0  0  0  0  0  0
  140.2210   80.5730  222.6790 C   0  0  0  0  0  0  0  0  0  0  0  0
  141.2060   81.5340  222.8110 C   0  0  0  0  0  0  0  0  0  0  0  0
  142.4010   81.2350  223.4090 C   0  0  0  0  0  0  0  0  0  0  0  0
  142.5770   79.9460  223.8690 C   0  0  0  0  0  0  0  0  0  0  0  0
  141.6040   79.0380  223.7270 N   0  0  0  0  0  0  0  0  0  0  0  0
  141.2910   76.4910  221.1120 N   0  0  0  0  0  0  0  0  0  0  0  0
  141.8140   77.7910  220.7640 C   0  0  0  0  0  0  0  0  0  0  0  0
  141.4950   78.2620  219.3900 C   0  0  0  0  0  0  0  0  0  0  0  0
  141.4560   79.7350  219.1780 C   0  0  0  0  0  0  0  0  0  0  0  0
  141.0400   80.1010  217.7670 C   0  0  0  0  0  0  0  0  0  0  0  0
  141.3280   79.0260  216.8380 N   0  0  0  0  0  0  0  0  0  0  0  0
  142.5710   78.3550  217.1530 C   0  0  0  0  0  0  0  0  0  0  0  0
  142.4760   77.5810  218.4300 C   0  0  0  0  0  0  0  0  0  0  0  0
  143.3717   72.2517  218.4147 H   0  0  0  0  0  0  0  0  0  0  0  0
  145.7412   72.2926  217.8637 H   0  0  0  0  0  0  0  0  0  0  0  0
  147.4139   73.0743  219.6715 H   0  0  0  0  0  0  0  0  0  0  0  0
  142.3135   70.8779  221.0165 H   0  0  0  0  0  0  0  0  0  0  0  0
  140.0938   70.7297  221.9769 H   0  0  0  0  0  0  0  0  0  0  0  0
  138.7599   72.7689  222.4490 H   0  0  0  0  0  0  0  0  0  0  0  0
  138.3770   77.7825  221.2721 H   0  0  0  0  0  0  0  0  0  0  0  0
  138.8098   78.0118  223.9270 H   0  0  0  0  0  0  0  0  0  0  0  0
  139.2698   80.8389  222.1948 H   0  0  0  0  0  0  0  0  0  0  0  0
  141.0277   82.5508  222.4312 H   0  0  0  0  0  0  0  0  0  0  0  0
  143.1904   81.9932  223.5185 H   0  0  0  0  0  0  0  0  0  0  0  0
  143.5223   79.6631  224.3552 H   0  0  0  0  0  0  0  0  0  0  0  0
  141.4054   78.5226  221.4766 H   0  0  0  0  0  0  0  0  0  0  0  0
  142.9092   77.6969  220.8046 H   0  0  0  0  0  0  0  0  0  0  0  0
  140.4513   77.9744  219.1948 H   0  0  0  0  0  0  0  0  0  0  0  0
  140.7370   80.1754  219.8845 H   0  0  0  0  0  0  0  0  0  0  0  0
  142.4708   80.1262  219.3424 H   0  0  0  0  0  0  0  0  0  0  0  0
  139.9594   80.3063  217.7538 H   0  0  0  0  0  0  0  0  0  0  0  0
  141.6086   80.9901  217.4567 H   0  0  0  0  0  0  0  0  0  0  0  0
  141.2480   79.3000  215.8550 H   0  0  0  0  0  0  0  0  0  0  0  0
  142.8195   77.6631  216.3348 H   0  0  0  0  0  0  0  0  0  0  0  0
  143.3518   79.1203  217.2741 H   0  0  0  0  0  0  0  0  0  0  0  0
  142.1229   76.5623  218.2120 H   0  0  0  0  0  0  0  0  0  0  0  0
  143.4695   77.5416  218.9005 H   0  0  0  0  0  0  0  0  0  0  0  0
  1  2  2  0
  2  3  1  0
  3  4  2  0
  4  5  1  0
  5  6  2  0
  6  7  1  0
  7  8  2  0
  8  9  1  0
  4 10  1  0
 10 11  2  0
 11 12  1  0
 12 13  2  0
 13 14  1  0
 14 15  2  0
 15 16  1  0
 16 17  2  0
 17 18  1  0
 18 19  2  0
 19 20  1  0
 20 21  2  0
 21 22  1  0
 22 23  2  0
 15 24  1  0
 24 25  1  0
 25 26  1  0
 26 27  1  0
 27 28  1  0
 28 29  1  0
 29 30  1  0
 30 31  1  0
 24  2  1  0
 31 26  1  0
 13  3  1  0
 23 18  1  0
  9  5  1  0
  6 32  1  0
  7 33  1  0
  8 34  1  0
 10 35  1  0
 11 36  1  0
 12 37  1  0
 16 38  1  0
 17 39  1  0
 19 40  1  0
 20 41  1  0
 21 42  1  0
 22 43  1  0
 25 44  1  0
 25 45  1  0
 26 46  1  0
 27 47  1  0
 27 48  1  0
 28 49  1  0
 28 50  1  0
 29 51  1  0
 30 52  1  0
 30 53  1  0
 31 54  1  0
 31 55  1  0
M  END
>  <smiles>  (1) 
O=c1c2c(-c3cccs3)cccc2nc(/C=C/c2ccccn2)n1CC1CCNCC1

>  <score_type>  (1) 
oracle

>  <origin>  (1) 
autodockgpu

>  <m_score__min__energy>  (1) 
-7.7699999999999996

>  <m_primary>  (1) 
energy

>  <rmsd>  (1) 
6.4396910235028555

>  <m_score__min__rmsd>  (1) 
6.4396910235028555

>  <meeko>  (1) 
{"free_energy": -7.2, "intermolecular_energy": -8.99, "internal_energy": -2.0, "cluster_size": 20, "cluster_id": 1, "rank_in_cluster": 18}

>  <energy>  (1) 
-7.77

>  <cluster_rmsd>  (1) 
0.0

>  <cluster>  (1) 
1

$$$$

     RDKit          3D

 55 59  0  0  0  0  0  0  0  0999 V2000
  143.0600   75.9590  220.3080 O   0  0  0  0  0  0  0  0  0  0  0  0
  141.9810   75.6420  220.8290 C   0  0  0  0  0  0  0  0  0  0  0  0
  141.6560   74.3520  221.1270 C   0  0  0  0  0  0  0  0  0  0  0  0
  142.5100   73.3210  220.8470 C   0  0  0  0  0  0  0  0  0  0  0  0
  143.8360   73.3760  220.3730 C   0  0  0  0  0  0  0  0  0  0  0  0
  144.9680   73.5020  221.1730 C   0  0  0  0  0  0  0  0  0  0  0  0
  146.1610   73.5050  220.5880 C   0  0  0  0  0  0  0  0  0  0  0  0
  146.2800   73.3900  219.2480 C   0  0  0  0  0  0  0  0  0  0  0  0
  144.5530   73.2600  218.7260 S   0  0  0  0  0  0  0  0  0  0  0  0
  142.0100   72.0450  221.1870 C   0  0  0  0  0  0  0  0  0  0  0  0
  140.7840   71.8480  221.7500 C   0  0  0  0  0  0  0  0  0  0  0  0
  139.9470   72.8960  222.0250 C   0  0  0  0  0  0  0  0  0  0  0  0
  140.3990   74.1560  221.7060 C   0  0  0  0  0  0  0  0  0  0  0  0
  139.5980   75.1870  221.9390 N   0  0  0  0  0  0  0  0  0  0  0  0
  139.9220   76.4580  221.6460 C   0  0  0  0  0  0  0  0  0  0  0  0
  138.9680   77.5110  221.9610 C   0  0  0  0  0  0  0  0  0  0  0  0
  139.1570   78.2680  223.0240 C   0  0  0  0  0  0  0  0  0  0  0  0
  140.2250   79.2470  223.1500 C   0  0  0  0  0  0  0  0  0  0  0  0
  141.4230   79.0100  223.7680 C   0  0  0  0  0  0  0  0  0  0  0  0
  142.3950   79.9900  223.8490 C   0  0  0  0  0  0  0  0  0  0  0  0
  142.1850   81.2320  223.3120 C   0  0  0  0  0  0  0  0  0  0  0  0
  140.9740   81.4600  222.6910 C   0  0  0  0  0  0  0  0  0  0  0  0
  140.0530   80.4910  222.6280 N   0  0  0  0  0  0  0  0  0  0  0  0
  141.1220   76.6660  221.0890 N   0  0  0  0  0  0  0  0  0  0  0  0
  141.5210   78.0060  220.7280 C   0  0  0  0  0  0  0  0  0  0  0  0
  141.9780   78.1810  219.3240 C   0  0  0  0  0  0  0  0  0  0  0  0
  141.1450   77.5480  218.2640 C   0  0  0  0  0  0  0  0  0  0  0  0
  141.7490   77.7180  216.8830 C   0  0  0  0  0  0  0  0  0  0  0  0
  142.6180   78.8770  216.8270 N   0  0  0  0  0  0  0  0  0  0  0  0
  142.1050   79.9790  217.6130 C   0  0  0  0  0  0  0  0  0  0  0  0
  142.1520   79.6840  219.0790 C   0  0  0  0  0  0  0  0  0  0  0  0
  144.8770   73.5970  222.2651 H   0  0  0  0  0  0  0  0  0  0  0  0
  147.0662   73.6027  221.2053 H   0  0  0  0  0  0  0  0  0  0  0  0
  147.1917   73.3784  218.6327 H   0  0  0  0  0  0  0  0  0  0  0  0
  142.6410   71.1663  220.9877 H   0  0  0  0  0  0  0  0  0  0  0  0
  140.4601   70.8242  221.9886 H   0  0  0  0  0  0  0  0  0  0  0  0
  138.9582   72.7380  222.4802 H   0  0  0  0  0  0  0  0  0  0  0  0
  138.0929   77.6747  221.3150 H   0  0  0  0  0  0  0  0  0  0  0  0
  138.4627   78.1516  223.8692 H   0  0  0  0  0  0  0  0  0  0  0  0
  141.6162   78.0209  224.2087 H   0  0  0  0  0  0  0  0  0  0  0  0
  143.3486   79.7692  224.3509 H   0  0  0  0  0  0  0  0  0  0  0  0
  142.9522   82.0179  223.3733 H   0  0  0  0  0  0  0  0  0  0  0  0
  140.7645   82.4436  222.2453 H   0  0  0  0  0  0  0  0  0  0  0  0
  140.6600   78.6712  220.8896 H   0  0  0  0  0  0  0  0  0  0  0  0
  142.3893   78.2434  221.3602 H   0  0  0  0  0  0  0  0  0  0  0  0
  142.9257   77.6300  219.2325 H   0  0  0  0  0  0  0  0  0  0  0  0
  141.0527   76.4735  218.4805 H   0  0  0  0  0  0  0  0  0  0  0  0
  140.1625   78.0426  218.2662 H   0  0  0  0  0  0  0  0  0  0  0  0
  142.3333   76.8198  216.6344 H   0  0  0  0  0  0  0  0  0  0  0  0
  140.9311   77.8623  216.1618 H   0  0  0  0  0  0  0  0  0  0  0  0
  142.8870   79.1420  215.8760 H   0  0  0  0  0  0  0  0  0  0  0  0
  142.7115   80.8740  217.4101 H   0  0  0  0  0  0  0  0  0  0  0  0
  141.0545   80.1414  217.3301 H   0  0  0  0  0  0  0  0  0  0  0  0
  143.1223   80.0079  219.4836 H   0  0  0  0  0  0  0  0  0  0  0  0
  141.3358   80.2254  219.5797 H   0  0  0  0  0  0  0  0  0  0  0  0
  1  2  2  0
  2  3  1  0
  3  4  2  0
  4  5  1  0
  5  6  2  0
  6  7  1  0
  7  8  2  0
  8  9  1  0
  4 10  1  0
 10 11  2  0
 11 12  1  0
 12 13  2  0
 13 14  1  0
 14 15  2  0
 15 16  1  0
 16 17  2  0
 17 18  1  0
 18 19  2  0
 19 20  1  0
 20 21  2  0
 21 22  1  0
 22 23  2  0
 15 24  1  0
 24 25  1  0
 25 26  1  0
 26 27  1  0
 27 28  1  0
 28 29  1  0
 29 30  1  0
 30 31  1  0
 24  2  1  0
 31 26  1  0
 13  3  1  0
 23 18  1  0
  9  5  1  0
  6 32  1  0
  7 33  1  0
  8 34  1  0
 10 35  1  0
 11 36  1  0
 12 37  1  0
 16 38  1  0
 17 39  1  0
 19 40  1  0
 20 41  1  0
 21 42  1  0
 22 43  1  0
 25 44  1  0
 25 45  1  0
 26 46  1  0
 27 47  1  0
 27 48  1  0
 28 49  1  0
 28 50  1  0
 29 51  1  0
 30 52  1  0
 30 53  1  0
 31 54  1  0
 31 55  1  0
M  END
>  <smiles>  (2) 
O=c1c2c(-c3cccs3)cccc2nc(/C=C/c2ccccn2)n1CC1CCNCC1

>  <score_type>  (2) 
oracle

>  <origin>  (2) 
autodockgpu

>  <m_score__min__energy>  (2) 
-7.7699999999999996

>  <m_primary>  (2) 
energy

>  <rmsd>  (2) 
6.285271716626107

>  <m_score__min__rmsd>  (2) 
6.285271716626107

>  <meeko>  (2) 
{"free_energy": -7.73, "intermolecular_energy": -9.52, "internal_energy": -1.88, "cluster_size": 20, "cluster_id": 1, "rank_in_cluster": 3}

>  <energy>  (2) 
-7.75

>  <cluster_rmsd>  (2) 
0.07

>  <cluster>  (2) 
1

$$$$

     RDKit          3D

 55 59  0  0  0  0  0  0  0  0999 V2000
  141.3930   76.3230  222.2090 O   0  0  0  0  0  0  0  0  0  0  0  0
  140.2050   75.9840  222.1050 C   0  0  0  0  0  0  0  0  0  0  0  0
  139.1690   76.8410  222.3320 C   0  0  0  0  0  0  0  0  0  0  0  0
  139.3900   78.1380  222.7080 C   0  0  0  0  0  0  0  0  0  0  0  0
  140.6100   78.8380  222.7910 C   0  0  0  0  0  0  0  0  0  0  0  0
  141.2560   79.1860  223.9730 C   0  0  0  0  0  0  0  0  0  0  0  0
  142.4230   79.8170  223.8980 C   0  0  0  0  0  0  0  0  0  0  0  0
  142.9760   80.1170  222.7030 C   0  0  0  0  0  0  0  0  0  0  0  0
  141.7530   79.4570  221.5450 S   0  0  0  0  0  0  0  0  0  0  0  0
  138.2130   78.8830  222.9360 C   0  0  0  0  0  0  0  0  0  0  0  0
  136.9600   78.3650  222.7930 C   0  0  0  0  0  0  0  0  0  0  0  0
  136.7640   77.0650  222.4110 C   0  0  0  0  0  0  0  0  0  0  0  0
  137.8870   76.3060  222.1820 C   0  0  0  0  0  0  0  0  0  0  0  0
  137.7260   75.0360  221.8360 N   0  0  0  0  0  0  0  0  0  0  0  0
  138.7480   74.1930  221.6100 C   0  0  0  0  0  0  0  0  0  0  0  0
  138.4500   72.8230  221.2200 C   0  0  0  0  0  0  0  0  0  0  0  0
  137.9590   71.9820  222.1090 C   0  0  0  0  0  0  0  0  0  0  0  0
  138.7090   71.4600  223.2420 C   0  0  0  0  0  0  0  0  0  0  0  0
  138.2550   70.4840  224.0860 C   0  0  0  0  0  0  0  0  0  0  0  0
  139.0250   70.0340  225.1440 C   0  0  0  0  0  0  0  0  0  0  0  0
  140.2690   70.5560  225.3760 C   0  0  0  0  0  0  0  0  0  0  0  0
  140.7170   71.5400  224.5180 C   0  0  0  0  0  0  0  0  0  0  0  0
  139.9490   71.9530  223.5030 N   0  0  0  0  0  0  0  0  0  0  0  0
  139.9860   74.6880  221.7510 N   0  0  0  0  0  0  0  0  0  0  0  0
  141.1270   73.8280  221.5470 C   0  0  0  0  0  0  0  0  0  0  0  0
  141.9710   74.1560  220.3670 C   0  0  0  0  0  0  0  0  0  0  0  0
  141.6080   75.3810  219.6030 C   0  0  0  0  0  0  0  0  0  0  0  0
  142.4800   75.5710  218.3760 C   0  0  0  0  0  0  0  0  0  0  0  0
  143.7580   74.9050  218.5310 N   0  0  0  0  0  0  0  0  0  0  0  0
  144.2590   74.9980  219.8860 C   0  0  0  0  0  0  0  0  0  0  0  0
  143.4280   74.1990  220.8400 C   0  0  0  0  0  0  0  0  0  0  0  0
  140.8101   78.9439  224.9490 H   0  0  0  0  0  0  0  0  0  0  0  0
  142.9466   80.0993  224.8233 H   0  0  0  0  0  0  0  0  0  0  0  0
  143.9251   80.6302  222.4891 H   0  0  0  0  0  0  0  0  0  0  0  0
  138.3116   79.9342  223.2445 H   0  0  0  0  0  0  0  0  0  0  0  0
  136.0875   79.0056  222.9888 H   0  0  0  0  0  0  0  0  0  0  0  0
  135.7535   76.6467  222.2927 H   0  0  0  0  0  0  0  0  0  0  0  0
  138.6336   72.4904  220.1877 H   0  0  0  0  0  0  0  0  0  0  0  0
  136.9162   71.6540  221.9866 H   0  0  0  0  0  0  0  0  0  0  0  0
  137.2586   70.0484  223.9205 H   0  0  0  0  0  0  0  0  0  0  0  0
  138.6330   69.2479  225.8061 H   0  0  0  0  0  0  0  0  0  0  0  0
  140.8882   70.2046  226.2145 H   0  0  0  0  0  0  0  0  0  0  0  0
  141.7106   71.9871  224.6694 H   0  0  0  0  0  0  0  0  0  0  0  0
  141.7607   73.8866  222.4442 H   0  0  0  0  0  0  0  0  0  0  0  0
  140.7194   72.8239  221.3581 H   0  0  0  0  0  0  0  0  0  0  0  0
  141.7954   73.3624  219.6258 H   0  0  0  0  0  0  0  0  0  0  0  0
  140.5587   75.3008  219.2828 H   0  0  0  0  0  0  0  0  0  0  0  0
  141.7603   76.2478  220.2628 H   0  0  0  0  0  0  0  0  0  0  0  0
  141.9621   75.1535  217.5000 H   0  0  0  0  0  0  0  0  0  0  0  0
  142.6629   76.6475  218.2429 H   0  0  0  0  0  0  0  0  0  0  0  0
  144.4460   75.1680  217.8210 H   0  0  0  0  0  0  0  0  0  0  0  0
  145.2919   74.6206  219.9107 H   0  0  0  0  0  0  0  0  0  0  0  0
  144.2169   76.0528  220.1953 H   0  0  0  0  0  0  0  0  0  0  0  0
  143.8225   73.1736  220.8944 H   0  0  0  0  0  0  0  0  0  0  0  0
  143.4687   74.6709  221.8328 H   0  0  0  0  0  0  0  0  0  0  0  0
  1  2  2  0
  2  3  1  0
  3  4  2  0
  4  5  1  0
  5  6  2  0
  6  7  1  0
  7  8  2  0
  8  9  1  0
  4 10  1  0
 10 11  2  0
 11 12  1  0
 12 13  2  0
 13 14  1  0
 14 15  2  0
 15 16  1  0
 16 17  2  0
 17 18  1  0
 18 19  2  0
 19 20  1  0
 20 21  2  0
 21 22  1  0
 22 23  2  0
 15 24  1  0
 24 25  1  0
 25 26  1  0
 26 27  1  0
 27 28  1  0
 28 29  1  0
 29 30  1  0
 30 31  1  0
 24  2  1  0
 31 26  1  0
 13  3  1  0
 23 18  1  0
  9  5  1  0
  6 32  1  0
  7 33  1  0
  8 34  1  0
 10 35  1  0
 11 36  1  0
 12 37  1  0
 16 38  1  0
 17 39  1  0
 19 40  1  0
 20 41  1  0
 21 42  1  0
 22 43  1  0
 25 44  1  0
 25 45  1  0
 26 46  1  0
 27 47  1  0
 27 48  1  0
 28 49  1  0
 28 50  1  0
 29 51  1  0
 30 52  1  0
 30 53  1  0
 31 54  1  0
 31 55  1  0
M  END
>  <smiles>  (3) 
O=c1c2c(-c3cccs3)cccc2nc(/C=C/c2ccccn2)n1CC1CCNCC1

>  <score_type>  (3) 
oracle

>  <origin>  (3) 
autodockgpu

>  <m_score__min__energy>  (3) 
-7.7699999999999996

>  <m_primary>  (3) 
energy

>  <rmsd>  (3) 
7.917267993161478

>  <m_score__min__rmsd>  (3) 
7.917267993161478

>  <meeko>  (3) 
{"free_energy": -7.26, "intermolecular_energy": -9.05, "internal_energy": -1.75, "cluster_size": 11, "cluster_id": 3, "rank_in_cluster": 4}

>  <energy>  (3) 
-7.73

>  <cluster_rmsd>  (3) 
0.09

>  <cluster>  (3) 
1

$$$$

     RDKit          3D

 55 59  0  0  0  0  0  0  0  0999 V2000
  141.9730   77.0060  220.8590 O   0  0  0  0  0  0  0  0  0  0  0  0
  140.9530   76.3040  220.9040 C   0  0  0  0  0  0  0  0  0  0  0  0
  139.8510   76.6460  221.6320 C   0  0  0  0  0  0  0  0  0  0  0  0
  139.8200   77.7930  222.3760 C   0  0  0  0  0  0  0  0  0  0  0  0
  140.7650   78.8380  222.4300 C   0  0  0  0  0  0  0  0  0  0  0  0
  140.9450   79.8060  221.4470 C   0  0  0  0  0  0  0  0  0  0  0  0
  141.8540   80.7540  221.6500 C   0  0  0  0  0  0  0  0  0  0  0  0
  142.5890   80.7840  222.7810 C   0  0  0  0  0  0  0  0  0  0  0  0
  141.9620   79.3420  223.6760 S   0  0  0  0  0  0  0  0  0  0  0  0
  138.6210   77.9840  223.0970 C   0  0  0  0  0  0  0  0  0  0  0  0
  137.5770   77.1080  223.0580 C   0  0  0  0  0  0  0  0  0  0  0  0
  137.6300   75.9660  222.3030 C   0  0  0  0  0  0  0  0  0  0  0  0
  138.7840   75.7450  221.5880 C   0  0  0  0  0  0  0  0  0  0  0  0
  138.8720   74.6350  220.8680 N   0  0  0  0  0  0  0  0  0  0  0  0
  139.9570   74.3000  220.1500 C   0  0  0  0  0  0  0  0  0  0  0  0
  139.9330   73.0620  219.3850 C   0  0  0  0  0  0  0  0  0  0  0  0
  140.1570   71.9140  219.9930 C   0  0  0  0  0  0  0  0  0  0  0  0
  139.9060   71.6730  221.4050 C   0  0  0  0  0  0  0  0  0  0  0  0
  138.7740   71.0860  221.9010 C   0  0  0  0  0  0  0  0  0  0  0  0
  138.6030   70.8880  223.2590 C   0  0  0  0  0  0  0  0  0  0  0  0
  139.5680   71.2750  224.1500 C   0  0  0  0  0  0  0  0  0  0  0  0
  140.7060   71.8650  223.6390 C   0  0  0  0  0  0  0  0  0  0  0  0
  140.8420   72.0430  222.3200 N   0  0  0  0  0  0  0  0  0  0  0  0
  140.9920   75.1510  220.1820 N   0  0  0  0  0  0  0  0  0  0  0  0
  142.1980   74.8390  219.4510 C   0  0  0  0  0  0  0  0  0  0  0  0
  143.1730   73.9740  220.1660 C   0  0  0  0  0  0  0  0  0  0  0  0
  143.4250   72.6250  219.5870 C   0  0  0  0  0  0  0  0  0  0  0  0
  144.3690   71.8020  220.4410 C   0  0  0  0  0  0  0  0  0  0  0  0
  145.2210   72.6490  221.2520 N   0  0  0  0  0  0  0  0  0  0  0  0
  145.6260   73.8460  220.5450 C   0  0  0  0  0  0  0  0  0  0  0  0
  144.4730   74.7720  220.3170 C   0  0  0  0  0  0  0  0  0  0  0  0
  140.3486   79.7871  220.5229 H   0  0  0  0  0  0  0  0  0  0  0  0
  142.0097   81.5271  220.8831 H   0  0  0  0  0  0  0  0  0  0  0  0
  143.3681   81.5001  223.0814 H   0  0  0  0  0  0  0  0  0  0  0  0
  138.5245   78.8845  223.7213 H   0  0  0  0  0  0  0  0  0  0  0  0
  136.6723   77.3229  223.6456 H   0  0  0  0  0  0  0  0  0  0  0  0
  136.7884   75.2584  222.2701 H   0  0  0  0  0  0  0  0  0  0  0  0
  139.7289   73.0842  218.3043 H   0  0  0  0  0  0  0  0  0  0  0  0
  140.5599   71.0845  219.3934 H   0  0  0  0  0  0  0  0  0  0  0  0
  137.9842   70.7652  221.2058 H   0  0  0  0  0  0  0  0  0  0  0  0
  137.6812   70.4142  223.6276 H   0  0  0  0  0  0  0  0  0  0  0  0
  139.4409   71.1215  225.2318 H   0  0  0  0  0  0  0  0  0  0  0  0
  141.5060   72.1908  224.3201 H   0  0  0  0  0  0  0  0  0  0  0  0
  141.9082   74.3269  218.5216 H   0  0  0  0  0  0  0  0  0  0  0  0
  142.7091   75.7991  219.2868 H   0  0  0  0  0  0  0  0  0  0  0  0
  142.7182   73.7264  221.1365 H   0  0  0  0  0  0  0  0  0  0  0  0
  142.4669   72.0911  219.5029 H   0  0  0  0  0  0  0  0  0  0  0  0
  143.8946   72.7629  218.6019 H   0  0  0  0  0  0  0  0  0  0  0  0
  143.7783   71.1505  221.1018 H   0  0  0  0  0  0  0  0  0  0  0  0
  145.0079   71.2043  219.7742 H   0  0  0  0  0  0  0  0  0  0  0  0
  145.9990   72.1500  221.6900 H   0  0  0  0  0  0  0  0  0  0  0  0
  146.3908   74.3686  221.1382 H   0  0  0  0  0  0  0  0  0  0  0  0
  146.0238   73.5464  219.5642 H   0  0  0  0  0  0  0  0  0  0  0  0
  144.3818   75.4560  221.1737 H   0  0  0  0  0  0  0  0  0  0  0  0
  144.6507   75.3452  219.3951 H   0  0  0  0  0  0  0  0  0  0  0  0
  1  2  2  0
  2  3  1  0
  3  4  2  0
  4  5  1  0
  5  6  2  0
  6  7  1  0
  7  8  2  0
  8  9  1  0
  4 10  1  0
 10 11  2  0
 11 12  1  0
 12 13  2  0
 13 14  1  0
 14 15  2  0
 15 16  1  0
 16 17  2  0
 17 18  1  0
 18 19  2  0
 19 20  1  0
 20 21  2  0
 21 22  1  0
 22 23  2  0
 15 24  1  0
 24 25  1  0
 25 26  1  0
 26 27  1  0
 27 28  1  0
 28 29  1  0
 29 30  1  0
 30 31  1  0
 24  2  1  0
 31 26  1  0
 13  3  1  0
 23 18  1  0
  9  5  1  0
  6 32  1  0
  7 33  1  0
  8 34  1  0
 10 35  1  0
 11 36  1  0
 12 37  1  0
 16 38  1  0
 17 39  1  0
 19 40  1  0
 20 41  1  0
 21 42  1  0
 22 43  1  0
 25 44  1  0
 25 45  1  0
 26 46  1  0
 27 47  1  0
 27 48  1  0
 28 49  1  0
 28 50  1  0
 29 51  1  0
 30 52  1  0
 30 53  1  0
 31 54  1  0
 31 55  1  0
M  END
>  <smiles>  (4) 
O=c1c2c(-c3cccs3)cccc2nc(/C=C/c2ccccn2)n1CC1CCNCC1

>  <score_type>  (4) 
oracle

>  <origin>  (4) 
autodockgpu

>  <m_score__min__energy>  (4) 
-7.7699999999999996

>  <m_primary>  (4) 
energy

>  <rmsd>  (4) 
8.025707480999397

>  <m_score__min__rmsd>  (4) 
8.025707480999397

>  <meeko>  (4) 
{"free_energy": -6.68, "intermolecular_energy": -8.47, "internal_energy": -2.3, "cluster_size": 11, "cluster_id": 3, "rank_in_cluster": 11}

>  <energy>  (4) 
-7.73

>  <cluster_rmsd>  (4) 
0.07

>  <cluster>  (4) 
1

$$$$

     RDKit          3D

 55 59  0  0  0  0  0  0  0  0999 V2000
  143.0810   75.9410  220.3350 O   0  0  0  0  0  0  0  0  0  0  0  0
  141.9990   75.6280  220.8510 C   0  0  0  0  0  0  0  0  0  0  0  0
  141.6680   74.3390  221.1500 C   0  0  0  0  0  0  0  0  0  0  0  0
  142.5210   73.3050  220.8760 C   0  0  0  0  0  0  0  0  0  0  0  0
  143.8500   73.3560  220.4090 C   0  0  0  0  0  0  0  0  0  0  0  0
  144.9800   73.4420  221.2160 C   0  0  0  0  0  0  0  0  0  0  0  0
  146.1760   73.4460  220.6360 C   0  0  0  0  0  0  0  0  0  0  0  0
  146.2990   73.3690  219.2940 C   0  0  0  0  0  0  0  0  0  0  0  0
  144.5720   73.2790  218.7610 S   0  0  0  0  0  0  0  0  0  0  0  0
  142.0160   72.0310  221.2150 C   0  0  0  0  0  0  0  0  0  0  0  0
  140.7860   71.8380  221.7720 C   0  0  0  0  0  0  0  0  0  0  0  0
  139.9510   72.8900  222.0400 C   0  0  0  0  0  0  0  0  0  0  0  0
  140.4080   74.1470  221.7220 C   0  0  0  0  0  0  0  0  0  0  0  0
  139.6090   75.1810  221.9480 N   0  0  0  0  0  0  0  0  0  0  0  0
  139.9370   76.4510  221.6550 C   0  0  0  0  0  0  0  0  0  0  0  0
  138.9840   77.5060  221.9630 C   0  0  0  0  0  0  0  0  0  0  0  0
  139.1650   78.2590  223.0310 C   0  0  0  0  0  0  0  0  0  0  0  0
  140.2410   79.2280  223.1750 C   0  0  0  0  0  0  0  0  0  0  0  0
  141.4350   78.9710  223.7930 C   0  0  0  0  0  0  0  0  0  0  0  0
  142.4150   79.9410  223.8930 C   0  0  0  0  0  0  0  0  0  0  0  0
  142.2170   81.1920  223.3740 C   0  0  0  0  0  0  0  0  0  0  0  0
  141.0100   81.4400  222.7520 C   0  0  0  0  0  0  0  0  0  0  0  0
  140.0820   80.4800  222.6710 N   0  0  0  0  0  0  0  0  0  0  0  0
  141.1420   76.6540  221.1040 N   0  0  0  0  0  0  0  0  0  0  0  0
  141.5460   77.9930  220.7430 C   0  0  0  0  0  0  0  0  0  0  0  0
  142.0110   78.1640  219.3410 C   0  0  0  0  0  0  0  0  0  0  0  0
  141.1900   77.5200  218.2790 C   0  0  0  0  0  0  0  0  0  0  0  0
  141.8010   77.6870  216.9010 C   0  0  0  0  0  0  0  0  0  0  0  0
  142.6620   78.8520  216.8450 N   0  0  0  0  0  0  0  0  0  0  0  0
  142.1360   79.9540  217.6220 C   0  0  0  0  0  0  0  0  0  0  0  0
  142.1750   79.6670  219.0900 C   0  0  0  0  0  0  0  0  0  0  0  0
  144.8857   73.5053  222.3101 H   0  0  0  0  0  0  0  0  0  0  0  0
  147.0798   73.5131  221.2595 H   0  0  0  0  0  0  0  0  0  0  0  0
  147.2132   73.3626  218.6822 H   0  0  0  0  0  0  0  0  0  0  0  0
  142.6457   71.1503  221.0203 H   0  0  0  0  0  0  0  0  0  0  0  0
  140.4577   70.8157  222.0110 H   0  0  0  0  0  0  0  0  0  0  0  0
  138.9590   72.7360  222.4896 H   0  0  0  0  0  0  0  0  0  0  0  0
  138.1163   77.6751  221.3083 H   0  0  0  0  0  0  0  0  0  0  0  0
  138.4575   78.1473  223.8658 H   0  0  0  0  0  0  0  0  0  0  0  0
  141.6183   77.9733  224.2183 H   0  0  0  0  0  0  0  0  0  0  0  0
  143.3646   79.7048  224.3954 H   0  0  0  0  0  0  0  0  0  0  0  0
  142.9906   81.9703  223.4497 H   0  0  0  0  0  0  0  0  0  0  0  0
  140.8102   82.4320  222.3208 H   0  0  0  0  0  0  0  0  0  0  0  0
  140.6856   78.6604  220.8987 H   0  0  0  0  0  0  0  0  0  0  0  0
  142.4111   78.2300  221.3797 H   0  0  0  0  0  0  0  0  0  0  0  0
  142.9631   77.6194  219.2583 H   0  0  0  0  0  0  0  0  0  0  0  0
  141.1040   76.4459  218.5004 H   0  0  0  0  0  0  0  0  0  0  0  0
  140.2042   78.0080  218.2723 H   0  0  0  0  0  0  0  0  0  0  0  0
  142.3932   76.7917  216.6606 H   0  0  0  0  0  0  0  0  0  0  0  0
  140.9867   77.8214  216.1738 H   0  0  0  0  0  0  0  0  0  0  0  0
  142.9350   79.1150  215.8950 H   0  0  0  0  0  0  0  0  0  0  0  0
  142.7376   80.8522  217.4186 H   0  0  0  0  0  0  0  0  0  0  0  0
  141.0863   80.1072  217.3312 H   0  0  0  0  0  0  0  0  0  0  0  0
  143.1398   80.0005  219.4997 H   0  0  0  0  0  0  0  0  0  0  0  0
  141.3513   80.2047  219.5824 H   0  0  0  0  0  0  0  0  0  0  0  0
  1  2  2  0
  2  3  1  0
  3  4  2  0
  4  5  1  0
  5  6  2  0
  6  7  1  0
  7  8  2  0
  8  9  1  0
  4 10  1  0
 10 11  2  0
 11 12  1  0
 12 13  2  0
 13 14  1  0
 14 15  2  0
 15 16  1  0
 16 17  2  0
 17 18  1  0
 18 19  2  0
 19 20  1  0
 20 21  2  0
 21 22  1  0
 22 23  2  0
 15 24  1  0
 24 25  1  0
 25 26  1  0
 26 27  1  0
 27 28  1  0
 28 29  1  0
 29 30  1  0
 30 31  1  0
 24  2  1  0
 31 26  1  0
 13  3  1  0
 23 18  1  0
  9  5  1  0
  6 32  1  0
  7 33  1  0
  8 34  1  0
 10 35  1  0
 11 36  1  0
 12 37  1  0
 16 38  1  0
 17 39  1  0
 19 40  1  0
 20 41  1  0
 21 42  1  0
 22 43  1  0
 25 44  1  0
 25 45  1  0
 26 46  1  0
 27 47  1  0
 27 48  1  0
 28 49  1  0
 28 50  1  0
 29 51  1  0
 30 52  1  0
 30 53  1  0
 31 54  1  0
 31 55  1  0
M  END
>  <smiles>  (5) 
O=c1c2c(-c3cccs3)cccc2nc(/C=C/c2ccccn2)n1CC1CCNCC1

>  <score_type>  (5) 
oracle

>  <origin>  (5) 
autodockgpu

>  <m_score__min__energy>  (5) 
-7.7699999999999996

>  <m_primary>  (5) 
energy

>  <rmsd>  (5) 
6.267182943316078

>  <m_score__min__rmsd>  (5) 
6.267182943316078

>  <meeko>  (5) 
{"free_energy": -7.73, "intermolecular_energy": -9.52, "internal_energy": -1.89, "cluster_size": 20, "cluster_id": 1, "rank_in_cluster": 5}

>  <energy>  (5) 
-7.73

>  <cluster_rmsd>  (5) 
0.08

>  <cluster>  (5) 
1

$$$$

     RDKit          3D

 55 59  0  0  0  0  0  0  0  0999 V2000
  143.0610   75.7470  220.3280 O   0  0  0  0  0  0  0  0  0  0  0  0
  141.9670   75.4840  220.8470 C   0  0  0  0  0  0  0  0  0  0  0  0
  141.5770   74.2110  221.1440 C   0  0  0  0  0  0  0  0  0  0  0  0
  142.3800   73.1390  220.8660 C   0  0  0  0  0  0  0  0  0  0  0  0
  143.7090   73.1290  220.3950 C   0  0  0  0  0  0  0  0  0  0  0  0
  144.0870   72.9700  219.0660 C   0  0  0  0  0  0  0  0  0  0  0  0
  145.3800   73.0170  218.7630 C   0  0  0  0  0  0  0  0  0  0  0  0
  146.3120   73.2150  219.7200 C   0  0  0  0  0  0  0  0  0  0  0  0
  145.2980   73.3540  221.2120 S   0  0  0  0  0  0  0  0  0  0  0  0
  141.8170   71.8890  221.2040 C   0  0  0  0  0  0  0  0  0  0  0  0
  140.5810   71.7530  221.7640 C   0  0  0  0  0  0  0  0  0  0  0  0
  139.7960   72.8420  222.0370 C   0  0  0  0  0  0  0  0  0  0  0  0
  140.3110   74.0770  221.7190 C   0  0  0  0  0  0  0  0  0  0  0  0
  139.5610   75.1460  221.9500 N   0  0  0  0  0  0  0  0  0  0  0  0
  139.9480   76.4000  221.6580 C   0  0  0  0  0  0  0  0  0  0  0  0
  139.0460   77.4980  221.9710 C   0  0  0  0  0  0  0  0  0  0  0  0
  139.2620   78.2370  223.0420 C   0  0  0  0  0  0  0  0  0  0  0  0
  140.3270   79.2220  223.1560 C   0  0  0  0  0  0  0  0  0  0  0  0
  141.5260   78.9970  223.7750 C   0  0  0  0  0  0  0  0  0  0  0  0
  142.4940   79.9810  223.8440 C   0  0  0  0  0  0  0  0  0  0  0  0
  142.2790   81.2150  223.2910 C   0  0  0  0  0  0  0  0  0  0  0  0
  141.0670   81.4310  222.6680 C   0  0  0  0  0  0  0  0  0  0  0  0
  140.1490   80.4580  222.6170 N   0  0  0  0  0  0  0  0  0  0  0  0
  141.1590   76.5480  221.1040 N   0  0  0  0  0  0  0  0  0  0  0  0
  141.6240   77.8670  220.7450 C   0  0  0  0  0  0  0  0  0  0  0  0
  142.0750   78.0240  219.3360 C   0  0  0  0  0  0  0  0  0  0  0  0
  141.2740   77.3250  218.2940 C   0  0  0  0  0  0  0  0  0  0  0  0
  141.8700   77.4840  216.9090 C   0  0  0  0  0  0  0  0  0  0  0  0
  142.6850   78.6800  216.8220 N   0  0  0  0  0  0  0  0  0  0  0  0
  142.1220   79.7780  217.5770 C   0  0  0  0  0  0  0  0  0  0  0  0
  142.1800   79.5260  219.0510 C   0  0  0  0  0  0  0  0  0  0  0  0
  143.3319   72.8088  218.2825 H   0  0  0  0  0  0  0  0  0  0  0  0
  145.6960   72.8927  217.7167 H   0  0  0  0  0  0  0  0  0  0  0  0
  147.4056   73.2760  219.6186 H   0  0  0  0  0  0  0  0  0  0  0  0
  142.4042   70.9802  221.0059 H   0  0  0  0  0  0  0  0  0  0  0  0
  140.2061   70.7466  222.0018 H   0  0  0  0  0  0  0  0  0  0  0  0
  138.7994   72.7336  222.4898 H   0  0  0  0  0  0  0  0  0  0  0  0
  138.1875   77.7109  221.3171 H   0  0  0  0  0  0  0  0  0  0  0  0
  138.5937   78.0998  223.9049 H   0  0  0  0  0  0  0  0  0  0  0  0
  141.7235   78.0136  224.2266 H   0  0  0  0  0  0  0  0  0  0  0  0
  143.4482   79.7704  224.3490 H   0  0  0  0  0  0  0  0  0  0  0  0
  143.0436   82.0042  223.3415 H   0  0  0  0  0  0  0  0  0  0  0  0
  140.8538   82.4084  222.2106 H   0  0  0  0  0  0  0  0  0  0  0  0
  140.8009   78.5757  220.9186 H   0  0  0  0  0  0  0  0  0  0  0  0
  142.5098   78.0559  221.3692 H   0  0  0  0  0  0  0  0  0  0  0  0
  143.0469   77.5145  219.2591 H   0  0  0  0  0  0  0  0  0  0  0  0
  141.2310   76.2537  218.5400 H   0  0  0  0  0  0  0  0  0  0  0  0
  140.2701   77.7745  218.2826 H   0  0  0  0  0  0  0  0  0  0  0  0
  142.4950   76.6070  216.6847 H   0  0  0  0  0  0  0  0  0  0  0  0
  141.0472   77.5702  216.1840 H   0  0  0  0  0  0  0  0  0  0  0  0
  142.9430   78.9310  215.8640 H   0  0  0  0  0  0  0  0  0  0  0  0
  142.6878   80.6936  217.3497 H   0  0  0  0  0  0  0  0  0  0  0  0
  141.0656   79.8846  217.2895 H   0  0  0  0  0  0  0  0  0  0  0  0
  143.1336   79.9051  219.4471 H   0  0  0  0  0  0  0  0  0  0  0  0
  141.3393   80.0430  219.5367 H   0  0  0  0  0  0  0  0  0  0  0  0
  1  2  2  0
  2  3  1  0
  3  4  2  0
  4  5  1  0
  5  6  2  0
  6  7  1  0
  7  8  2  0
  8  9  1  0
  4 10  1  0
 10 11  2  0
 11 12  1  0
 12 13  2  0
 13 14  1  0
 14 15  2  0
 15 16  1  0
 16 17  2  0
 17 18  1  0
 18 19  2  0
 19 20  1  0
 20 21  2  0
 21 22  1  0
 22 23  2  0
 15 24  1  0
 24 25  1  0
 25 26  1  0
 26 27  1  0
 27 28  1  0
 28 29  1  0
 29 30  1  0
 30 31  1  0
 24  2  1  0
 31 26  1  0
 13  3  1  0
 23 18  1  0
  9  5  1  0
  6 32  1  0
  7 33  1  0
  8 34  1  0
 10 35  1  0
 11 36  1  0
 12 37  1  0
 16 38  1  0
 17 39  1  0
 19 40  1  0
 20 41  1  0
 21 42  1  0
 22 43  1  0
 25 44  1  0
 25 45  1  0
 26 46  1  0
 27 47  1  0
 27 48  1  0
 28 49  1  0
 28 50  1  0
 29 51  1  0
 30 52  1  0
 30 53  1  0
 31 54  1  0
 31 55  1  0
M  END
>  <smiles>  (6) 
O=c1c2c(-c3cccs3)cccc2nc(/C=C/c2ccccn2)n1CC1CCNCC1

>  <score_type>  (6) 
oracle

>  <origin>  (6) 
autodockgpu

>  <m_score__min__energy>  (6) 
-7.7699999999999996

>  <m_primary>  (6) 
energy

>  <rmsd>  (6) 
6.46947997301497

>  <m_score__min__rmsd>  (6) 
6.46947997301497

>  <meeko>  (6) 
{"free_energy": -7.67, "intermolecular_energy": -9.46, "internal_energy": -1.9, "cluster_size": 20, "cluster_id": 1, "rank_in_cluster": 11}

>  <energy>  (6) 
-7.71

>  <cluster_rmsd>  (6) 
0.11

>  <cluster>  (6) 
1

$$$$

     RDKit          3D

 55 59  0  0  0  0  0  0  0  0999 V2000
  135.7660   73.0380  223.3580 O   0  0  0  0  0  0  0  0  0  0  0  0
  135.7370   71.8930  223.8300 C   0  0  0  0  0  0  0  0  0  0  0  0
  135.0440   71.5760  224.9610 C   0  0  0  0  0  0  0  0  0  0  0  0
  134.3460   72.5260  225.6560 C   0  0  0  0  0  0  0  0  0  0  0  0
  134.0950   73.8680  225.3080 C   0  0  0  0  0  0  0  0  0  0  0  0
  134.6690   74.9760  225.9240 C   0  0  0  0  0  0  0  0  0  0  0  0
  134.3660   76.1860  225.4650 C   0  0  0  0  0  0  0  0  0  0  0  0
  133.5200   76.3440  224.4250 C   0  0  0  0  0  0  0  0  0  0  0  0
  133.0890   74.6330  224.0250 S   0  0  0  0  0  0  0  0  0  0  0  0
  133.7120   72.0420  226.8210 C   0  0  0  0  0  0  0  0  0  0  0  0
  133.7810   70.7420  227.2260 C   0  0  0  0  0  0  0  0  0  0  0  0
  134.4840   69.8080  226.5120 C   0  0  0  0  0  0  0  0  0  0  0  0
  135.1170   70.2420  225.3700 C   0  0  0  0  0  0  0  0  0  0  0  0
  135.8250   69.3630  224.6740 N   0  0  0  0  0  0  0  0  0  0  0  0
  136.5050   69.6770  223.5580 C   0  0  0  0  0  0  0  0  0  0  0  0
  137.2350   68.6240  222.8680 C   0  0  0  0  0  0  0  0  0  0  0  0
  138.3860   68.2000  223.3520 C   0  0  0  0  0  0  0  0  0  0  0  0
  138.9640   68.6590  224.6060 C   0  0  0  0  0  0  0  0  0  0  0  0
  139.3490   69.9480  224.8550 C   0  0  0  0  0  0  0  0  0  0  0  0
  139.8910   70.3130  226.0740 C   0  0  0  0  0  0  0  0  0  0  0  0
  140.0570   69.3900  227.0710 C   0  0  0  0  0  0  0  0  0  0  0  0
  139.6640   68.0930  226.8100 C   0  0  0  0  0  0  0  0  0  0  0  0
  139.1430   67.7710  225.6200 N   0  0  0  0  0  0  0  0  0  0  0  0
  136.4490   70.9520  223.1510 N   0  0  0  0  0  0  0  0  0  0  0  0
  137.1780   71.3590  221.9720 C   0  0  0  0  0  0  0  0  0  0  0  0
  138.3770   72.2020  222.2220 C   0  0  0  0  0  0  0  0  0  0  0  0
  139.6880   71.6500  221.7820 C   0  0  0  0  0  0  0  0  0  0  0  0
  140.8470   72.5520  222.1610 C   0  0  0  0  0  0  0  0  0  0  0  0
  140.4130   73.9260  222.3220 N   0  0  0  0  0  0  0  0  0  0  0  0
  139.4020   74.2930  221.3540 C   0  0  0  0  0  0  0  0  0  0  0  0
  138.1110   73.5780  221.6020 C   0  0  0  0  0  0  0  0  0  0  0  0
  135.3585   74.8531  226.7723 H   0  0  0  0  0  0  0  0  0  0  0  0
  134.8116   77.0725  225.9400 H   0  0  0  0  0  0  0  0  0  0  0  0
  133.1803   77.2734  223.9446 H   0  0  0  0  0  0  0  0  0  0  0  0
  133.1331   72.7495  227.4328 H   0  0  0  0  0  0  0  0  0  0  0  0
  133.2610   70.4366  228.1459 H   0  0  0  0  0  0  0  0  0  0  0  0
  134.5399   68.7586  226.8369 H   0  0  0  0  0  0  0  0  0  0  0  0
  136.8281   68.1833  221.9459 H   0  0  0  0  0  0  0  0  0  0  0  0
  138.9448   67.4517  222.7708 H   0  0  0  0  0  0  0  0  0  0  0  0
  139.2251   70.7089  224.0704 H   0  0  0  0  0  0  0  0  0  0  0  0
  140.1922   71.3572  226.2442 H   0  0  0  0  0  0  0  0  0  0  0  0
  140.4874   69.6713  228.0434 H   0  0  0  0  0  0  0  0  0  0  0  0
  139.7796   67.3200  227.5840 H   0  0  0  0  0  0  0  0  0  0  0  0
  137.5058   70.4506  221.4455 H   0  0  0  0  0  0  0  0  0  0  0  0
  136.4854   71.9832  221.3883 H   0  0  0  0  0  0  0  0  0  0  0  0
  138.5021   72.2521  223.3137 H   0  0  0  0  0  0  0  0  0  0  0  0
  139.8349   70.6675  222.2543 H   0  0  0  0  0  0  0  0  0  0  0  0
  139.6686   71.5687  220.6852 H   0  0  0  0  0  0  0  0  0  0  0  0
  141.2806   72.1996  223.1085 H   0  0  0  0  0  0  0  0  0  0  0  0
  141.5941   72.5156  221.3544 H   0  0  0  0  0  0  0  0  0  0  0  0
  141.1850   74.5950  222.3810 H   0  0  0  0  0  0  0  0  0  0  0  0
  139.2264   75.3771  221.4159 H   0  0  0  0  0  0  0  0  0  0  0  0
  139.7648   74.0081  220.3554 H   0  0  0  0  0  0  0  0  0  0  0  0
  137.4928   74.1730  222.2903 H   0  0  0  0  0  0  0  0  0  0  0  0
  137.5859   73.4442  220.6447 H   0  0  0  0  0  0  0  0  0  0  0  0
  1  2  2  0
  2  3  1  0
  3  4  2  0
  4  5  1  0
  5  6  2  0
  6  7  1  0
  7  8  2  0
  8  9  1  0
  4 10  1  0
 10 11  2  0
 11 12  1  0
 12 13  2  0
 13 14  1  0
 14 15  2  0
 15 16  1  0
 16 17  2  0
 17 18  1  0
 18 19  2  0
 19 20  1  0
 20 21  2  0
 21 22  1  0
 22 23  2  0
 15 24  1  0
 24 25  1  0
 25 26  1  0
 26 27  1  0
 27 28  1  0
 28 29  1  0
 29 30  1  0
 30 31  1  0
 24  2  1  0
 31 26  1  0
 13  3  1  0
 23 18  1  0
  9  5  1  0
  6 32  1  0
  7 33  1  0
  8 34  1  0
 10 35  1  0
 11 36  1  0
 12 37  1  0
 16 38  1  0
 17 39  1  0
 19 40  1  0
 20 41  1  0
 21 42  1  0
 22 43  1  0
 25 44  1  0
 25 45  1  0
 26 46  1  0
 27 47  1  0
 27 48  1  0
 28 49  1  0
 28 50  1  0
 29 51  1  0
 30 52  1  0
 30 53  1  0
 31 54  1  0
 31 55  1  0
M  END
>  <smiles>  (7) 
O=c1c2c(-c3cccs3)cccc2nc(/C=C/c2ccccn2)n1CC1CCNCC1

>  <score_type>  (7) 
oracle

>  <origin>  (7) 
autodockgpu

>  <m_score__min__energy>  (7) 
-7.7699999999999996

>  <m_primary>  (7) 
energy

>  <rmsd>  (7) 
5.65930485024537

>  <m_score__min__rmsd>  (7) 
5.65930485024537

>  <meeko>  (7) 
{"free_energy": -7.08, "intermolecular_energy": -8.87, "internal_energy": -2.3, "cluster_size": 10, "cluster_id": 4, "rank_in_cluster": 8}

>  <energy>  (7) 
-7.69

>  <cluster_rmsd>  (7) 
0.1

>  <cluster>  (7) 
1

$$$$

     RDKit          3D

 55 59  0  0  0  0  0  0  0  0999 V2000
  135.6670   73.1540  223.3730 O   0  0  0  0  0  0  0  0  0  0  0  0
  135.6180   72.0290  223.8900 C   0  0  0  0  0  0  0  0  0  0  0  0
  134.9120   71.7690  225.0280 C   0  0  0  0  0  0  0  0  0  0  0  0
  134.2230   72.7560  225.6780 C   0  0  0  0  0  0  0  0  0  0  0  0
  133.9950   74.0870  225.2740 C   0  0  0  0  0  0  0  0  0  0  0  0
  134.6370   75.2040  225.8000 C   0  0  0  0  0  0  0  0  0  0  0  0
  134.3460   76.3990  225.2960 C   0  0  0  0  0  0  0  0  0  0  0  0
  133.4500   76.5320  224.2950 C   0  0  0  0  0  0  0  0  0  0  0  0
  132.9440   74.8190  224.0100 S   0  0  0  0  0  0  0  0  0  0  0  0
  133.5730   72.3290  226.8570 C   0  0  0  0  0  0  0  0  0  0  0  0
  133.6200   71.0460  227.3140 C   0  0  0  0  0  0  0  0  0  0  0  0
  134.3130   70.0730  226.6440 C   0  0  0  0  0  0  0  0  0  0  0  0
  134.9610   70.4510  225.4910 C   0  0  0  0  0  0  0  0  0  0  0  0
  135.6610   69.5350  224.8360 N   0  0  0  0  0  0  0  0  0  0  0  0
  136.3540   69.7930  223.7140 C   0  0  0  0  0  0  0  0  0  0  0  0
  137.0730   68.7020  223.0720 C   0  0  0  0  0  0  0  0  0  0  0  0
  138.3530   68.5210  223.3320 C   0  0  0  0  0  0  0  0  0  0  0  0
  138.9540   68.6950  224.6450 C   0  0  0  0  0  0  0  0  0  0  0  0
  139.3260   69.9020  225.1730 C   0  0  0  0  0  0  0  0  0  0  0  0
  139.8910   69.9920  226.4310 C   0  0  0  0  0  0  0  0  0  0  0  0
  140.0960   68.8710  227.1890 C   0  0  0  0  0  0  0  0  0  0  0  0
  139.7170   67.6590  226.6480 C   0  0  0  0  0  0  0  0  0  0  0  0
  139.1720   67.6040  225.4270 N   0  0  0  0  0  0  0  0  0  0  0  0
  136.3210   71.0510  223.2550 N   0  0  0  0  0  0  0  0  0  0  0  0
  137.0640   71.4000  222.0670 C   0  0  0  0  0  0  0  0  0  0  0  0
  138.2640   72.2490  222.2900 C   0  0  0  0  0  0  0  0  0  0  0  0
  139.5850   71.6370  221.9800 C   0  0  0  0  0  0  0  0  0  0  0  0
  140.7390   72.5590  222.3230 C   0  0  0  0  0  0  0  0  0  0  0  0
  140.3230   73.9480  222.3170 N   0  0  0  0  0  0  0  0  0  0  0  0
  139.3680   74.2240  221.2640 C   0  0  0  0  0  0  0  0  0  0  0  0
  138.0540   73.5560  221.5170 C   0  0  0  0  0  0  0  0  0  0  0  0
  135.3689   75.1003  226.6146 H   0  0  0  0  0  0  0  0  0  0  0  0
  134.8428   77.2931  225.7007 H   0  0  0  0  0  0  0  0  0  0  0  0
  133.1142   77.4465  223.7843 H   0  0  0  0  0  0  0  0  0  0  0  0
  133.0002   73.0690  227.4352 H   0  0  0  0  0  0  0  0  0  0  0  0
  133.0894   70.7860  228.2418 H   0  0  0  0  0  0  0  0  0  0  0  0
  134.3497   69.0367  227.0111 H   0  0  0  0  0  0  0  0  0  0  0  0
  136.5509   68.0318  222.3733 H   0  0  0  0  0  0  0  0  0  0  0  0
  139.0087   68.2188  222.5021 H   0  0  0  0  0  0  0  0  0  0  0  0
  139.1722   70.8184  224.5843 H   0  0  0  0  0  0  0  0  0  0  0  0
  140.1795   70.9765  226.8279 H   0  0  0  0  0  0  0  0  0  0  0  0
  140.5456   68.9335  228.1910 H   0  0  0  0  0  0  0  0  0  0  0  0
  139.8638   66.7332  227.2237 H   0  0  0  0  0  0  0  0  0  0  0  0
  137.3934   70.4668  221.5867 H   0  0  0  0  0  0  0  0  0  0  0  0
  136.3803   71.9994  221.4479 H   0  0  0  0  0  0  0  0  0  0  0  0
  138.3353   72.4121  223.3755 H   0  0  0  0  0  0  0  0  0  0  0  0
  139.6896   70.7080  222.5597 H   0  0  0  0  0  0  0  0  0  0  0  0
  139.6202   71.4405  220.8983 H   0  0  0  0  0  0  0  0  0  0  0  0
  141.1174   72.3026  223.3235 H   0  0  0  0  0  0  0  0  0  0  0  0
  141.5250   72.4286  221.5646 H   0  0  0  0  0  0  0  0  0  0  0  0
  141.1030   74.6100  222.3470 H   0  0  0  0  0  0  0  0  0  0  0  0
  139.2091   75.3108  221.2033 H   0  0  0  0  0  0  0  0  0  0  0  0
  139.7756   73.8308  220.3210 H   0  0  0  0  0  0  0  0  0  0  0  0
  137.4126   74.2276  222.1065 H   0  0  0  0  0  0  0  0  0  0  0  0
  137.5753   73.3295  220.5529 H   0  0  0  0  0  0  0  0  0  0  0  0
  1  2  2  0
  2  3  1  0
  3  4  2  0
  4  5  1  0
  5  6  2  0
  6  7  1  0
  7  8  2  0
  8  9  1  0
  4 10  1  0
 10 11  2  0
 11 12  1  0
 12 13  2  0
 13 14  1  0
 14 15  2  0
 15 16  1  0
 16 17  2  0
 17 18  1  0
 18 19  2  0
 19 20  1  0
 20 21  2  0
 21 22  1  0
 22 23  2  0
 15 24  1  0
 24 25  1  0
 25 26  1  0
 26 27  1  0
 27 28  1  0
 28 29  1  0
 29 30  1  0
 30 31  1  0
 24  2  1  0
 31 26  1  0
 13  3  1  0
 23 18  1  0
  9  5  1  0
  6 32  1  0
  7 33  1  0
  8 34  1  0
 10 35  1  0
 11 36  1  0
 12 37  1  0
 16 38  1  0
 17 39  1  0
 19 40  1  0
 20 41  1  0
 21 42  1  0
 22 43  1  0
 25 44  1  0
 25 45  1  0
 26 46  1  0
 27 47  1  0
 27 48  1  0
 28 49  1  0
 28 50  1  0
 29 51  1  0
 30 52  1  0
 30 53  1  0
 31 54  1  0
 31 55  1  0
M  END
>  <smiles>  (8) 
O=c1c2c(-c3cccs3)cccc2nc(/C=C/c2ccccn2)n1CC1CCNCC1

>  <score_type>  (8) 
oracle

>  <origin>  (8) 
autodockgpu

>  <m_score__min__energy>  (8) 
-7.7699999999999996

>  <m_primary>  (8) 
energy

>  <rmsd>  (8) 
5.838548042224827

>  <m_score__min__rmsd>  (8) 
5.838548042224827

>  <meeko>  (8) 
{"free_energy": -7.33, "intermolecular_energy": -9.12, "internal_energy": -2.21, "cluster_size": 10, "cluster_id": 4, "rank_in_cluster": 1}

>  <energy>  (8) 
-7.68

>  <cluster_rmsd>  (8) 
0.57

>  <cluster>  (8) 
1

$$$$

     RDKit          3D

 55 59  0  0  0  0  0  0  0  0999 V2000
  143.0270   75.8420  220.3310 O   0  0  0  0  0  0  0  0  0  0  0  0
  141.9450   75.5560  220.8620 C   0  0  0  0  0  0  0  0  0  0  0  0
  141.5880   74.2760  221.1680 C   0  0  0  0  0  0  0  0  0  0  0  0
  142.4120   73.2210  220.8860 C   0  0  0  0  0  0  0  0  0  0  0  0
  143.7360   73.2400  220.4020 C   0  0  0  0  0  0  0  0  0  0  0  0
  144.0990   73.1880  219.0600 C   0  0  0  0  0  0  0  0  0  0  0  0
  145.3890   73.2500  218.7480 C   0  0  0  0  0  0  0  0  0  0  0  0
  146.3320   73.3620  219.7070 C   0  0  0  0  0  0  0  0  0  0  0  0
  145.3350   73.3850  221.2170 S   0  0  0  0  0  0  0  0  0  0  0  0
  141.8810   71.9600  221.2350 C   0  0  0  0  0  0  0  0  0  0  0  0
  140.6550   71.7980  221.8080 C   0  0  0  0  0  0  0  0  0  0  0  0
  139.8480   72.8690  222.0840 C   0  0  0  0  0  0  0  0  0  0  0  0
  140.3300   74.1150  221.7570 C   0  0  0  0  0  0  0  0  0  0  0  0
  139.5590   75.1680  221.9910 N   0  0  0  0  0  0  0  0  0  0  0  0
  139.9140   76.4290  221.6910 C   0  0  0  0  0  0  0  0  0  0  0  0
  138.9900   77.5070  222.0090 C   0  0  0  0  0  0  0  0  0  0  0  0
  139.2040   78.2610  223.0690 C   0  0  0  0  0  0  0  0  0  0  0  0
  140.3020   79.2080  223.1920 C   0  0  0  0  0  0  0  0  0  0  0  0
  141.4960   78.9340  223.8020 C   0  0  0  0  0  0  0  0  0  0  0  0
  142.4960   79.8850  223.8800 C   0  0  0  0  0  0  0  0  0  0  0  0
  142.3200   81.1330  223.3460 C   0  0  0  0  0  0  0  0  0  0  0  0
  141.1130   81.3980  222.7320 C   0  0  0  0  0  0  0  0  0  0  0  0
  140.1640   80.4570  222.6720 N   0  0  0  0  0  0  0  0  0  0  0  0
  141.1150   76.6030  221.1240 N   0  0  0  0  0  0  0  0  0  0  0  0
  141.5460   77.9300  220.7540 C   0  0  0  0  0  0  0  0  0  0  0  0
  142.0120   78.0840  219.3510 C   0  0  0  0  0  0  0  0  0  0  0  0
  141.1930   77.4250  218.2960 C   0  0  0  0  0  0  0  0  0  0  0  0
  141.8050   77.5750  216.9170 C   0  0  0  0  0  0  0  0  0  0  0  0
  142.6660   78.7400  216.8470 N   0  0  0  0  0  0  0  0  0  0  0  0
  142.1390   79.8510  217.6090 C   0  0  0  0  0  0  0  0  0  0  0  0
  142.1770   79.5830  219.0800 C   0  0  0  0  0  0  0  0  0  0  0  0
  143.3346   73.0975  218.2742 H   0  0  0  0  0  0  0  0  0  0  0  0
  145.6932   73.2094  217.6917 H   0  0  0  0  0  0  0  0  0  0  0  0
  147.4249   73.4235  219.5987 H   0  0  0  0  0  0  0  0  0  0  0  0
  142.4868   71.0640  221.0345 H   0  0  0  0  0  0  0  0  0  0  0  0
  140.3062   70.7842  222.0542 H   0  0  0  0  0  0  0  0  0  0  0  0
  138.8585   72.7388  222.5465 H   0  0  0  0  0  0  0  0  0  0  0  0
  138.1160   77.6922  221.3672 H   0  0  0  0  0  0  0  0  0  0  0  0
  138.5074   78.1683  223.9153 H   0  0  0  0  0  0  0  0  0  0  0  0
  141.6630   77.9382  224.2384 H   0  0  0  0  0  0  0  0  0  0  0  0
  143.4450   79.6358  224.3774 H   0  0  0  0  0  0  0  0  0  0  0  0
  143.1106   81.8956  223.4041 H   0  0  0  0  0  0  0  0  0  0  0  0
  140.9302   82.3883  222.2895 H   0  0  0  0  0  0  0  0  0  0  0  0
  140.6999   78.6161  220.9072 H   0  0  0  0  0  0  0  0  0  0  0  0
  142.4175   78.1519  221.3875 H   0  0  0  0  0  0  0  0  0  0  0  0
  142.9647   77.5391  219.2770 H   0  0  0  0  0  0  0  0  0  0  0  0
  141.1083   76.3538  218.5311 H   0  0  0  0  0  0  0  0  0  0  0  0
  140.2066   77.9116  218.2819 H   0  0  0  0  0  0  0  0  0  0  0  0
  142.3977   76.6770  216.6883 H   0  0  0  0  0  0  0  0  0  0  0  0
  140.9912   77.7001  216.1875 H   0  0  0  0  0  0  0  0  0  0  0  0
  142.9400   78.9900  215.8930 H   0  0  0  0  0  0  0  0  0  0  0  0
  142.7402   80.7469  217.3946 H   0  0  0  0  0  0  0  0  0  0  0  0
  141.0894   79.9998  217.3154 H   0  0  0  0  0  0  0  0  0  0  0  0
  143.1418   79.9212  219.4858 H   0  0  0  0  0  0  0  0  0  0  0  0
  141.3532   80.1274  219.5647 H   0  0  0  0  0  0  0  0  0  0  0  0
  1  2  2  0
  2  3  1  0
  3  4  2  0
  4  5  1  0
  5  6  2  0
  6  7  1  0
  7  8  2  0
  8  9  1  0
  4 10  1  0
 10 11  2  0
 11 12  1  0
 12 13  2  0
 13 14  1  0
 14 15  2  0
 15 16  1  0
 16 17  2  0
 17 18  1  0
 18 19  2  0
 19 20  1  0
 20 21  2  0
 21 22  1  0
 22 23  2  0
 15 24  1  0
 24 25  1  0
 25 26  1  0
 26 27  1  0
 27 28  1  0
 28 29  1  0
 29 30  1  0
 30 31  1  0
 24  2  1  0
 31 26  1  0
 13  3  1  0
 23 18  1  0
  9  5  1  0
  6 32  1  0
  7 33  1  0
  8 34  1  0
 10 35  1  0
 11 36  1  0
 12 37  1  0
 16 38  1  0
 17 39  1  0
 19 40  1  0
 20 41  1  0
 21 42  1  0
 22 43  1  0
 25 44  1  0
 25 45  1  0
 26 46  1  0
 27 47  1  0
 27 48  1  0
 28 49  1  0
 28 50  1  0
 29 51  1  0
 30 52  1  0
 30 53  1  0
 31 54  1  0
 31 55  1  0
M  END
>  <smiles>  (9) 
O=c1c2c(-c3cccs3)cccc2nc(/C=C/c2ccccn2)n1CC1CCNCC1

>  <score_type>  (9) 
oracle

>  <origin>  (9) 
autodockgpu

>  <m_score__min__energy>  (9) 
-7.7699999999999996

>  <m_primary>  (9) 
energy

>  <rmsd>  (9) 
6.498366113640381

>  <m_score__min__rmsd>  (9) 
6.498366113640381

>  <meeko>  (9) 
{"free_energy": -7.68, "intermolecular_energy": -9.47, "internal_energy": -1.89, "cluster_size": 20, "cluster_id": 1, "rank_in_cluster": 8}

>  <energy>  (9) 
-7.68

>  <cluster_rmsd>  (9) 
0.57

>  <cluster>  (9) 
1

$$$$

     RDKit          3D

 55 59  0  0  0  0  0  0  0  0999 V2000
  143.1580   75.6410  220.3410 O   0  0  0  0  0  0  0  0  0  0  0  0
  142.0520   75.4110  220.8500 C   0  0  0  0  0  0  0  0  0  0  0  0
  141.6210   74.1510  221.1440 C   0  0  0  0  0  0  0  0  0  0  0  0
  142.3930   73.0550  220.8720 C   0  0  0  0  0  0  0  0  0  0  0  0
  143.7250   73.0040  220.4120 C   0  0  0  0  0  0  0  0  0  0  0  0
  144.1130   72.6810  219.1160 C   0  0  0  0  0  0  0  0  0  0  0  0
  145.4070   72.7080  218.8160 C   0  0  0  0  0  0  0  0  0  0  0  0
  146.3300   73.0420  219.7430 C   0  0  0  0  0  0  0  0  0  0  0  0
  145.3050   73.3560  221.2000 S   0  0  0  0  0  0  0  0  0  0  0  0
  141.7890   71.8230  221.2060 C   0  0  0  0  0  0  0  0  0  0  0  0
  140.5450   71.7250  221.7550 C   0  0  0  0  0  0  0  0  0  0  0  0
  139.7920   72.8370  222.0220 C   0  0  0  0  0  0  0  0  0  0  0  0
  140.3470   74.0560  221.7090 C   0  0  0  0  0  0  0  0  0  0  0  0
  139.6280   75.1480  221.9330 N   0  0  0  0  0  0  0  0  0  0  0  0
  140.0550   76.3890  221.6450 C   0  0  0  0  0  0  0  0  0  0  0  0
  139.1850   77.5140  221.9510 C   0  0  0  0  0  0  0  0  0  0  0  0
  139.3920   78.2230  223.0440 C   0  0  0  0  0  0  0  0  0  0  0  0
  140.4290   79.2350  223.1780 C   0  0  0  0  0  0  0  0  0  0  0  0
  141.6190   79.0410  223.8240 C   0  0  0  0  0  0  0  0  0  0  0  0
  142.5610   80.0500  223.9120 C   0  0  0  0  0  0  0  0  0  0  0  0
  142.3270   81.2770  223.3520 C   0  0  0  0  0  0  0  0  0  0  0  0
  141.1240   81.4610  222.7020 C   0  0  0  0  0  0  0  0  0  0  0  0
  140.2320   80.4650  222.6340 N   0  0  0  0  0  0  0  0  0  0  0  0
  141.2750   76.5000  221.1010 N   0  0  0  0  0  0  0  0  0  0  0  0
  141.7830   77.8040  220.7460 C   0  0  0  0  0  0  0  0  0  0  0  0
  141.4700   78.2580  219.3650 C   0  0  0  0  0  0  0  0  0  0  0  0
  141.3750   79.7280  219.1470 C   0  0  0  0  0  0  0  0  0  0  0  0
  140.9700   80.0720  217.7270 C   0  0  0  0  0  0  0  0  0  0  0  0
  141.3200   79.0070  216.8070 N   0  0  0  0  0  0  0  0  0  0  0  0
  142.5830   78.3890  217.1470 C   0  0  0  0  0  0  0  0  0  0  0  0
  142.4970   77.6160  218.4250 C   0  0  0  0  0  0  0  0  0  0  0  0
  143.3652   72.4093  218.3564 H   0  0  0  0  0  0  0  0  0  0  0  0
  145.7315   72.4542  217.7961 H   0  0  0  0  0  0  0  0  0  0  0  0
  147.4232   73.1065  219.6391 H   0  0  0  0  0  0  0  0  0  0  0  0
  142.3500   70.8966  221.0137 H   0  0  0  0  0  0  0  0  0  0  0  0
  140.1371   70.7305  221.9887 H   0  0  0  0  0  0  0  0  0  0  0  0
  138.7889   72.7590  222.4666 H   0  0  0  0  0  0  0  0  0  0  0  0
  138.3577   77.7725  221.2736 H   0  0  0  0  0  0  0  0  0  0  0  0
  138.7389   78.0373  223.9095 H   0  0  0  0  0  0  0  0  0  0  0  0
  141.8309   78.0638  224.2824 H   0  0  0  0  0  0  0  0  0  0  0  0
  143.5091   79.8643  224.4380 H   0  0  0  0  0  0  0  0  0  0  0  0
  143.0699   82.0856  223.4177 H   0  0  0  0  0  0  0  0  0  0  0  0
  140.8965   82.4316  222.2370 H   0  0  0  0  0  0  0  0  0  0  0  0
  141.3577   78.5362  221.4482 H   0  0  0  0  0  0  0  0  0  0  0  0
  142.8790   77.7257  220.7974 H   0  0  0  0  0  0  0  0  0  0  0  0
  140.4428   77.9270  219.1522 H   0  0  0  0  0  0  0  0  0  0  0  0
  140.6260   80.1409  219.8388 H   0  0  0  0  0  0  0  0  0  0  0  0
  142.3698   80.1610  219.3285 H   0  0  0  0  0  0  0  0  0  0  0  0
  139.8822   80.2317  217.6933 H   0  0  0  0  0  0  0  0  0  0  0  0
  141.5065   80.9832  217.4238 H   0  0  0  0  0  0  0  0  0  0  0  0
  141.2470   79.2760  215.8220 H   0  0  0  0  0  0  0  0  0  0  0  0
  142.8745   77.7052  216.3362 H   0  0  0  0  0  0  0  0  0  0  0  0
  143.3292   79.1863  217.2792 H   0  0  0  0  0  0  0  0  0  0  0  0
  142.1914   76.5826  218.2045 H   0  0  0  0  0  0  0  0  0  0  0  0
  143.4824   77.6205  218.9138 H   0  0  0  0  0  0  0  0  0  0  0  0
  1  2  2  0
  2  3  1  0
  3  4  2  0
  4  5  1  0
  5  6  2  0
  6  7  1  0
  7  8  2  0
  8  9  1  0
  4 10  1  0
 10 11  2  0
 11 12  1  0
 12 13  2  0
 13 14  1  0
 14 15  2  0
 15 16  1  0
 16 17  2  0
 17 18  1  0
 18 19  2  0
 19 20  1  0
 20 21  2  0
 21 22  1  0
 22 23  2  0
 15 24  1  0
 24 25  1  0
 25 26  1  0
 26 27  1  0
 27 28  1  0
 28 29  1  0
 29 30  1  0
 30 31  1  0
 24  2  1  0
 31 26  1  0
 13  3  1  0
 23 18  1  0
  9  5  1  0
  6 32  1  0
  7 33  1  0
  8 34  1  0
 10 35  1  0
 11 36  1  0
 12 37  1  0
 16 38  1  0
 17 39  1  0
 19 40  1  0
 20 41  1  0
 21 42  1  0
 22 43  1  0
 25 44  1  0
 25 45  1  0
 26 46  1  0
 27 47  1  0
 27 48  1  0
 28 49  1  0
 28 50  1  0
 29 51  1  0
 30 52  1  0
 30 53  1  0
 31 54  1  0
 31 55  1  0
M  END
>  <smiles>  (10) 
O=c1c2c(-c3cccs3)cccc2nc(/C=C/c2ccccn2)n1CC1CCNCC1

>  <score_type>  (10) 
oracle

>  <origin>  (10) 
autodockgpu

>  <m_score__min__energy>  (10) 
-7.7699999999999996

>  <m_primary>  (10) 
energy

>  <rmsd>  (10) 
6.456768207343999

>  <m_score__min__rmsd>  (10) 
6.456768207343999

>  <meeko>  (10) 
{"free_energy": -7.3, "intermolecular_energy": -9.09, "internal_energy": -2.01, "cluster_size": 20, "cluster_id": 1, "rank_in_cluster": 16}

>  <energy>  (10) 
-7.67

>  <cluster_rmsd>  (10) 
0.58

>  <cluster>  (10) 
1

$$$$

     RDKit          3D

 55 59  0  0  0  0  0  0  0  0999 V2000
  138.8110   80.8590  223.2930 O   0  0  0  0  0  0  0  0  0  0  0  0
  137.9740   79.9470  223.2500 C   0  0  0  0  0  0  0  0  0  0  0  0
  138.3020   78.6560  222.9540 C   0  0  0  0  0  0  0  0  0  0  0  0
  139.5910   78.2990  222.6680 C   0  0  0  0  0  0  0  0  0  0  0  0
  140.7630   79.0770  222.7530 C   0  0  0  0  0  0  0  0  0  0  0  0
  141.4550   79.3590  223.9270 C   0  0  0  0  0  0  0  0  0  0  0  0
  142.5680   80.0800  223.8500 C   0  0  0  0  0  0  0  0  0  0  0  0
  143.0250   80.5310  222.6630 C   0  0  0  0  0  0  0  0  0  0  0  0
  141.7830   79.8930  221.5130 S   0  0  0  0  0  0  0  0  0  0  0  0
  139.7570   76.9330  222.3500 C   0  0  0  0  0  0  0  0  0  0  0  0
  138.7280   76.0390  222.3310 C   0  0  0  0  0  0  0  0  0  0  0  0
  137.4450   76.4200  222.6240 C   0  0  0  0  0  0  0  0  0  0  0  0
  137.2440   77.7440  222.9370 C   0  0  0  0  0  0  0  0  0  0  0  0
  136.0070   78.1450  223.2010 N   0  0  0  0  0  0  0  0  0  0  0  0
  135.6870   79.4160  223.4950 C   0  0  0  0  0  0  0  0  0  0  0  0
  134.2960   79.7360  223.7820 C   0  0  0  0  0  0  0  0  0  0  0  0
  133.5890   78.9380  224.5580 C   0  0  0  0  0  0  0  0  0  0  0  0
  133.3700   79.1620  225.9790 C   0  0  0  0  0  0  0  0  0  0  0  0
  133.4610   80.3820  226.5930 C   0  0  0  0  0  0  0  0  0  0  0  0
  133.2380   80.5200  227.9510 C   0  0  0  0  0  0  0  0  0  0  0  0
  132.9170   79.4360  228.7220 C   0  0  0  0  0  0  0  0  0  0  0  0
  132.8270   78.2110  228.0920 C   0  0  0  0  0  0  0  0  0  0  0  0
  133.0480   78.1090  226.7760 N   0  0  0  0  0  0  0  0  0  0  0  0
  136.6880   80.3060  223.5140 N   0  0  0  0  0  0  0  0  0  0  0  0
  136.4070   81.6940  223.7990 C   0  0  0  0  0  0  0  0  0  0  0  0
  136.1500   82.0130  225.2280 C   0  0  0  0  0  0  0  0  0  0  0  0
  136.9610   81.2750  226.2360 C   0  0  0  0  0  0  0  0  0  0  0  0
  136.5580   81.6170  227.6570 C   0  0  0  0  0  0  0  0  0  0  0  0
  135.9360   82.9250  227.7280 N   0  0  0  0  0  0  0  0  0  0  0  0
  136.5580   83.8710  226.8270 C   0  0  0  0  0  0  0  0  0  0  0  0
  136.2930   83.5300  225.3940 C   0  0  0  0  0  0  0  0  0  0  0  0
  141.0884   78.9929  224.8974 H   0  0  0  0  0  0  0  0  0  0  0  0
  143.1262   80.3132  224.7687 H   0  0  0  0  0  0  0  0  0  0  0  0
  143.9215   81.1317  222.4498 H   0  0  0  0  0  0  0  0  0  0  0  0
  140.7670   76.5724  222.1055 H   0  0  0  0  0  0  0  0  0  0  0  0
  138.9322   74.9889  222.0748 H   0  0  0  0  0  0  0  0  0  0  0  0
  136.6137   75.6998  222.6095 H   0  0  0  0  0  0  0  0  0  0  0  0
  133.8370   80.6392  223.3535 H   0  0  0  0  0  0  0  0  0  0  0  0
  133.1356   78.0456  224.1018 H   0  0  0  0  0  0  0  0  0  0  0  0
  133.7163   81.2693  225.9951 H   0  0  0  0  0  0  0  0  0  0  0  0
  133.3197   81.5131  228.4169 H   0  0  0  0  0  0  0  0  0  0  0  0
  132.7375   79.5369  229.8026 H   0  0  0  0  0  0  0  0  0  0  0  0
  132.5722   77.3136  228.6749 H   0  0  0  0  0  0  0  0  0  0  0  0
  137.2706   82.2897  223.4685 H   0  0  0  0  0  0  0  0  0  0  0  0
  135.4755   81.9303  223.2638 H   0  0  0  0  0  0  0  0  0  0  0  0
  135.1314   81.6616  225.4494 H   0  0  0  0  0  0  0  0  0  0  0  0
  136.8238   80.1949  226.0791 H   0  0  0  0  0  0  0  0  0  0  0  0
  138.0128   81.5684  226.1034 H   0  0  0  0  0  0  0  0  0  0  0  0
  135.8454   80.8613  228.0191 H   0  0  0  0  0  0  0  0  0  0  0  0
  137.4635   81.6288  228.2814 H   0  0  0  0  0  0  0  0  0  0  0  0
  135.8300   83.2770  228.6830 H   0  0  0  0  0  0  0  0  0  0  0  0
  136.1590   84.8750  227.0338 H   0  0  0  0  0  0  0  0  0  0  0  0
  137.6451   83.8361  226.9915 H   0  0  0  0  0  0  0  0  0  0  0  0
  135.3631   84.0201  225.0699 H   0  0  0  0  0  0  0  0  0  0  0  0
  137.1360   83.8801  224.7802 H   0  0  0  0  0  0  0  0  0  0  0  0
  1  2  2  0
  2  3  1  0
  3  4  2  0
  4  5  1  0
  5  6  2  0
  6  7  1  0
  7  8  2  0
  8  9  1  0
  4 10  1  0
 10 11  2  0
 11 12  1  0
 12 13  2  0
 13 14  1  0
 14 15  2  0
 15 16  1  0
 16 17  2  0
 17 18  1  0
 18 19  2  0
 19 20  1  0
 20 21  2  0
 21 22  1  0
 22 23  2  0
 15 24  1  0
 24 25  1  0
 25 26  1  0
 26 27  1  0
 27 28  1  0
 28 29  1  0
 29 30  1  0
 30 31  1  0
 24  2  1  0
 31 26  1  0
 13  3  1  0
 23 18  1  0
  9  5  1  0
  6 32  1  0
  7 33  1  0
  8 34  1  0
 10 35  1  0
 11 36  1  0
 12 37  1  0
 16 38  1  0
 17 39  1  0
 19 40  1  0
 20 41  1  0
 21 42  1  0
 22 43  1  0
 25 44  1  0
 25 45  1  0
 26 46  1  0
 27 47  1  0
 27 48  1  0
 28 49  1  0
 28 50  1  0
 29 51  1  0
 30 52  1  0
 30 53  1  0
 31 54  1  0
 31 55  1  0
M  END
>  <smiles>  (11) 
O=c1c2c(-c3cccs3)cccc2nc(/C=C/c2ccccn2)n1CC1CCNCC1

>  <score_type>  (11) 
oracle

>  <origin>  (11) 
autodockgpu

>  <m_score__min__energy>  (11) 
-7.7699999999999996

>  <m_primary>  (11) 
energy

>  <rmsd>  (11) 
9.002049547097858

>  <m_score__min__rmsd>  (11) 
9.002049547097858

>  <meeko>  (11) 
{"free_energy": -6.9, "intermolecular_energy": -8.69, "internal_energy": -2.18, "cluster_size": 2, "cluster_id": 5, "rank_in_cluster": 2}

>  <energy>  (11) 
-7.67

>  <cluster_rmsd>  (11) 
0.59

>  <cluster>  (11) 
1

$$$$

     RDKit          3D

 55 59  0  0  0  0  0  0  0  0999 V2000
  136.9000   69.9910  225.2230 O   0  0  0  0  0  0  0  0  0  0  0  0
  137.0720   70.7410  224.2520 C   0  0  0  0  0  0  0  0  0  0  0  0
  138.3100   71.1070  223.8110 C   0  0  0  0  0  0  0  0  0  0  0  0
  139.4450   70.6710  224.4380 C   0  0  0  0  0  0  0  0  0  0  0  0
  139.5730   69.7280  225.4770 C   0  0  0  0  0  0  0  0  0  0  0  0
  139.4520   68.3500  225.3280 C   0  0  0  0  0  0  0  0  0  0  0  0
  139.6340   67.5780  226.3950 C   0  0  0  0  0  0  0  0  0  0  0  0
  139.9300   68.1120  227.5980 C   0  0  0  0  0  0  0  0  0  0  0  0
  139.9650   69.8830  227.2280 S   0  0  0  0  0  0  0  0  0  0  0  0
  140.6430   71.1670  223.8780 C   0  0  0  0  0  0  0  0  0  0  0  0
  140.6750   72.0060  222.8040 C   0  0  0  0  0  0  0  0  0  0  0  0
  139.5250   72.4260  222.1910 C   0  0  0  0  0  0  0  0  0  0  0  0
  138.3370   71.9650  222.7080 C   0  0  0  0  0  0  0  0  0  0  0  0
  137.2080   72.3770  222.1490 N   0  0  0  0  0  0  0  0  0  0  0  0
  135.9890   72.0130  222.5840 C   0  0  0  0  0  0  0  0  0  0  0  0
  134.8190   72.5160  221.8800 C   0  0  0  0  0  0  0  0  0  0  0  0
  134.4780   73.7840  222.0010 C   0  0  0  0  0  0  0  0  0  0  0  0
  134.4310   74.5010  223.2660 C   0  0  0  0  0  0  0  0  0  0  0  0
  135.4630   74.5550  224.1640 C   0  0  0  0  0  0  0  0  0  0  0  0
  135.3470   75.2580  225.3480 C   0  0  0  0  0  0  0  0  0  0  0  0
  134.1920   75.9250  225.6570 C   0  0  0  0  0  0  0  0  0  0  0  0
  133.1590   75.8650  224.7440 C   0  0  0  0  0  0  0  0  0  0  0  0
  133.3010   75.1760  223.6060 N   0  0  0  0  0  0  0  0  0  0  0  0
  135.9420   71.1920  223.6410 N   0  0  0  0  0  0  0  0  0  0  0  0
  134.6640   70.7830  224.1730 C   0  0  0  0  0  0  0  0  0  0  0  0
  134.0930   71.6700  225.2200 C   0  0  0  0  0  0  0  0  0  0  0  0
  132.6780   72.0980  225.0390 C   0  0  0  0  0  0  0  0  0  0  0  0
  132.2290   73.0650  226.1170 C   0  0  0  0  0  0  0  0  0  0  0  0
  133.0150   72.9090  227.3250 N   0  0  0  0  0  0  0  0  0  0  0  0
  133.3430   71.5240  227.5850 C   0  0  0  0  0  0  0  0  0  0  0  0
  134.3030   70.9820  226.5730 C   0  0  0  0  0  0  0  0  0  0  0  0
  139.2112   67.9092  224.3494 H   0  0  0  0  0  0  0  0  0  0  0  0
  139.5418   66.4864  226.2953 H   0  0  0  0  0  0  0  0  0  0  0  0
  140.1050   67.6022  228.5569 H   0  0  0  0  0  0  0  0  0  0  0  0
  141.5976   70.8611  224.3310 H   0  0  0  0  0  0  0  0  0  0  0  0
  141.6461   72.3532  222.4214 H   0  0  0  0  0  0  0  0  0  0  0  0
  139.5502   73.1021  221.3236 H   0  0  0  0  0  0  0  0  0  0  0  0
  134.2215   71.8412  221.2495 H   0  0  0  0  0  0  0  0  0  0  0  0
  134.2120   74.3350  221.0869 H   0  0  0  0  0  0  0  0  0  0  0  0
  136.4023   74.0288  223.9387 H   0  0  0  0  0  0  0  0  0  0  0  0
  136.1929   75.2820  226.0508 H   0  0  0  0  0  0  0  0  0  0  0  0
  134.0913   76.4872  226.5971 H   0  0  0  0  0  0  0  0  0  0  0  0
  132.2134   76.3866  224.9531 H   0  0  0  0  0  0  0  0  0  0  0  0
  133.9482   70.7389  223.3389 H   0  0  0  0  0  0  0  0  0  0  0  0
  134.8368   69.8124  224.6610 H   0  0  0  0  0  0  0  0  0  0  0  0
  134.6333   72.6255  225.1482 H   0  0  0  0  0  0  0  0  0  0  0  0
  132.5790   72.5887  224.0595 H   0  0  0  0  0  0  0  0  0  0  0  0
  132.0435   71.2018  225.1041 H   0  0  0  0  0  0  0  0  0  0  0  0
  132.3433   74.0940  225.7455 H   0  0  0  0  0  0  0  0  0  0  0  0
  131.1768   72.8527  226.3575 H   0  0  0  0  0  0  0  0  0  0  0  0
  132.6230   73.3960  228.1350 H   0  0  0  0  0  0  0  0  0  0  0  0
  133.7971   71.4469  228.5839 H   0  0  0  0  0  0  0  0  0  0  0  0
  132.4154   70.9356  227.5266 H   0  0  0  0  0  0  0  0  0  0  0  0
  135.3324   71.1624  226.9161 H   0  0  0  0  0  0  0  0  0  0  0  0
  134.1288   69.9021  226.4565 H   0  0  0  0  0  0  0  0  0  0  0  0
  1  2  2  0
  2  3  1  0
  3  4  2  0
  4  5  1  0
  5  6  2  0
  6  7  1  0
  7  8  2  0
  8  9  1  0
  4 10  1  0
 10 11  2  0
 11 12  1  0
 12 13  2  0
 13 14  1  0
 14 15  2  0
 15 16  1  0
 16 17  2  0
 17 18  1  0
 18 19  2  0
 19 20  1  0
 20 21  2  0
 21 22  1  0
 22 23  2  0
 15 24  1  0
 24 25  1  0
 25 26  1  0
 26 27  1  0
 27 28  1  0
 28 29  1  0
 29 30  1  0
 30 31  1  0
 24  2  1  0
 31 26  1  0
 13  3  1  0
 23 18  1  0
  9  5  1  0
  6 32  1  0
  7 33  1  0
  8 34  1  0
 10 35  1  0
 11 36  1  0
 12 37  1  0
 16 38  1  0
 17 39  1  0
 19 40  1  0
 20 41  1  0
 21 42  1  0
 22 43  1  0
 25 44  1  0
 25 45  1  0
 26 46  1  0
 27 47  1  0
 27 48  1  0
 28 49  1  0
 28 50  1  0
 29 51  1  0
 30 52  1  0
 30 53  1  0
 31 54  1  0
 31 55  1  0
M  END
>  <smiles>  (12) 
O=c1c2c(-c3cccs3)cccc2nc(/C=C/c2ccccn2)n1CC1CCNCC1

>  <score_type>  (12) 
oracle

>  <origin>  (12) 
autodockgpu

>  <m_score__min__energy>  (12) 
-7.7699999999999996

>  <m_primary>  (12) 
energy

>  <rmsd>  (12) 
4.607332372192166

>  <m_score__min__rmsd>  (12) 
4.607332372192166

>  <meeko>  (12) 
{"free_energy": -6.83, "intermolecular_energy": -8.62, "internal_energy": -2.5, "cluster_size": 4, "cluster_id": 6, "rank_in_cluster": 1}

>  <energy>  (12) 
-7.66

>  <cluster_rmsd>  (12) 
0.57

>  <cluster>  (12) 
1

$$$$

     RDKit          3D

 55 59  0  0  0  0  0  0  0  0999 V2000
  141.9460   76.9550  220.8610 O   0  0  0  0  0  0  0  0  0  0  0  0
  140.9070   76.2790  220.8790 C   0  0  0  0  0  0  0  0  0  0  0  0
  139.8100   76.6310  221.6090 C   0  0  0  0  0  0  0  0  0  0  0  0
  139.8030   77.7580  222.3850 C   0  0  0  0  0  0  0  0  0  0  0  0
  140.7760   78.7740  222.4740 C   0  0  0  0  0  0  0  0  0  0  0  0
  141.6900   78.9190  223.5130 C   0  0  0  0  0  0  0  0  0  0  0  0
  142.5750   79.9080  223.4460 C   0  0  0  0  0  0  0  0  0  0  0  0
  142.5930   80.7560  222.3950 C   0  0  0  0  0  0  0  0  0  0  0  0
  141.2370   80.1260  221.3780 S   0  0  0  0  0  0  0  0  0  0  0  0
  138.6040   77.9610  223.1020 C   0  0  0  0  0  0  0  0  0  0  0  0
  137.5380   77.1140  223.0320 C   0  0  0  0  0  0  0  0  0  0  0  0
  137.5670   75.9930  222.2450 C   0  0  0  0  0  0  0  0  0  0  0  0
  138.7190   75.7610  221.5320 C   0  0  0  0  0  0  0  0  0  0  0  0
  138.7830   74.6690  220.7820 N   0  0  0  0  0  0  0  0  0  0  0  0
  139.8640   74.3260  220.0610 C   0  0  0  0  0  0  0  0  0  0  0  0
  139.8130   73.1110  219.2620 C   0  0  0  0  0  0  0  0  0  0  0  0
  139.9390   71.9360  219.8480 C   0  0  0  0  0  0  0  0  0  0  0  0
  139.8530   71.7260  221.2850 C   0  0  0  0  0  0  0  0  0  0  0  0
  140.8420   72.0470  222.1750 C   0  0  0  0  0  0  0  0  0  0  0  0
  140.6900   71.8190  223.5300 C   0  0  0  0  0  0  0  0  0  0  0  0
  139.5390   71.2640  224.0230 C   0  0  0  0  0  0  0  0  0  0  0  0
  138.5480   70.9450  223.1160 C   0  0  0  0  0  0  0  0  0  0  0  0
  138.7250   71.1780  221.8110 N   0  0  0  0  0  0  0  0  0  0  0  0
  140.9210   75.1470  220.1240 N   0  0  0  0  0  0  0  0  0  0  0  0
  142.1230   74.8230  219.3930 C   0  0  0  0  0  0  0  0  0  0  0  0
  143.1040   73.9730  220.1190 C   0  0  0  0  0  0  0  0  0  0  0  0
  143.3540   72.6140  219.5640 C   0  0  0  0  0  0  0  0  0  0  0  0
  144.3030   71.8070  220.4280 C   0  0  0  0  0  0  0  0  0  0  0  0
  145.1590   72.6710  221.2180 N   0  0  0  0  0  0  0  0  0  0  0  0
  145.5580   73.8550  220.4880 C   0  0  0  0  0  0  0  0  0  0  0  0
  144.4030   74.7750  220.2490 C   0  0  0  0  0  0  0  0  0  0  0  0
  141.6802   78.2303  224.3707 H   0  0  0  0  0  0  0  0  0  0  0  0
  143.3043   80.0380  224.2592 H   0  0  0  0  0  0  0  0  0  0  0  0
  143.2604   81.6098  222.2063 H   0  0  0  0  0  0  0  0  0  0  0  0
  138.5260   78.8468  223.7495 H   0  0  0  0  0  0  0  0  0  0  0  0
  136.6352   77.3355  223.6201 H   0  0  0  0  0  0  0  0  0  0  0  0
  136.7072   75.3094  222.1863 H   0  0  0  0  0  0  0  0  0  0  0  0
  139.6699   73.1721  218.1731 H   0  0  0  0  0  0  0  0  0  0  0  0
  140.1207   71.0590  219.2094 H   0  0  0  0  0  0  0  0  0  0  0  0
  141.7759   72.4951  221.8049 H   0  0  0  0  0  0  0  0  0  0  0  0
  141.5033   72.0866  224.2206 H   0  0  0  0  0  0  0  0  0  0  0  0
  139.4091   71.0796  225.0996 H   0  0  0  0  0  0  0  0  0  0  0  0
  137.6075   70.4966  223.4688 H   0  0  0  0  0  0  0  0  0  0  0  0
  141.8290   74.2928  218.4752 H   0  0  0  0  0  0  0  0  0  0  0  0
  142.6316   75.7807  219.2081 H   0  0  0  0  0  0  0  0  0  0  0  0
  142.6553   73.7433  221.0967 H   0  0  0  0  0  0  0  0  0  0  0  0
  142.3959   72.0781  219.4947 H   0  0  0  0  0  0  0  0  0  0  0  0
  143.8187   72.7342  218.5742 H   0  0  0  0  0  0  0  0  0  0  0  0
  143.7164   71.1680  221.1044 H   0  0  0  0  0  0  0  0  0  0  0  0
  144.9382   71.1962  219.7696 H   0  0  0  0  0  0  0  0  0  0  0  0
  145.9400   72.1800  221.6620 H   0  0  0  0  0  0  0  0  0  0  0  0
  146.3249   74.3894  221.0679 H   0  0  0  0  0  0  0  0  0  0  0  0
  145.9511   73.5382  219.5107 H   0  0  0  0  0  0  0  0  0  0  0  0
  144.3150   75.4743  221.0935 H   0  0  0  0  0  0  0  0  0  0  0  0
  144.5754   75.3316  219.3160 H   0  0  0  0  0  0  0  0  0  0  0  0
  1  2  2  0
  2  3  1  0
  3  4  2  0
  4  5  1  0
  5  6  2  0
  6  7  1  0
  7  8  2  0
  8  9  1  0
  4 10  1  0
 10 11  2  0
 11 12  1  0
 12 13  2  0
 13 14  1  0
 14 15  2  0
 15 16  1  0
 16 17  2  0
 17 18  1  0
 18 19  2  0
 19 20  1  0
 20 21  2  0
 21 22  1  0
 22 23  2  0
 15 24  1  0
 24 25  1  0
 25 26  1  0
 26 27  1  0
 27 28  1  0
 28 29  1  0
 29 30  1  0
 30 31  1  0
 24  2  1  0
 31 26  1  0
 13  3  1  0
 23 18  1  0
  9  5  1  0
  6 32  1  0
  7 33  1  0
  8 34  1  0
 10 35  1  0
 11 36  1  0
 12 37  1  0
 16 38  1  0
 17 39  1  0
 19 40  1  0
 20 41  1  0
 21 42  1  0
 22 43  1  0
 25 44  1  0
 25 45  1  0
 26 46  1  0
 27 47  1  0
 27 48  1  0
 28 49  1  0
 28 50  1  0
 29 51  1  0
 30 52  1  0
 30 53  1  0
 31 54  1  0
 31 55  1  0
M  END
>  <smiles>  (13) 
O=c1c2c(-c3cccs3)cccc2nc(/C=C/c2ccccn2)n1CC1CCNCC1

>  <score_type>  (13) 
oracle

>  <origin>  (13) 
autodockgpu

>  <m_score__min__energy>  (13) 
-7.7699999999999996

>  <m_primary>  (13) 
energy

>  <rmsd>  (13) 
7.660639217080499

>  <m_score__min__rmsd>  (13) 
7.660639217080499

>  <meeko>  (13) 
{"free_energy": -6.76, "intermolecular_energy": -8.55, "internal_energy": -2.36, "cluster_size": 11, "cluster_id": 3, "rank_in_cluster": 9}

>  <energy>  (13) 
-7.65

>  <cluster_rmsd>  (13) 
0.47

>  <cluster>  (13) 
1

$$$$

     RDKit          3D

 55 59  0  0  0  0  0  0  0  0999 V2000
  143.0310   75.8770  220.3130 O   0  0  0  0  0  0  0  0  0  0  0  0
  141.9490   75.5930  220.8460 C   0  0  0  0  0  0  0  0  0  0  0  0
  141.5880   74.3140  221.1500 C   0  0  0  0  0  0  0  0  0  0  0  0
  142.4070   73.2570  220.8630 C   0  0  0  0  0  0  0  0  0  0  0  0
  143.7300   73.2720  220.3760 C   0  0  0  0  0  0  0  0  0  0  0  0
  144.0890   73.2250  219.0330 C   0  0  0  0  0  0  0  0  0  0  0  0
  145.3790   73.2820  218.7180 C   0  0  0  0  0  0  0  0  0  0  0  0
  146.3250   73.3850  219.6760 C   0  0  0  0  0  0  0  0  0  0  0  0
  145.3320   73.4060  221.1880 S   0  0  0  0  0  0  0  0  0  0  0  0
  141.8730   71.9970  221.2110 C   0  0  0  0  0  0  0  0  0  0  0  0
  140.6470   71.8380  221.7870 C   0  0  0  0  0  0  0  0  0  0  0  0
  139.8450   72.9120  222.0680 C   0  0  0  0  0  0  0  0  0  0  0  0
  140.3310   74.1560  221.7420 C   0  0  0  0  0  0  0  0  0  0  0  0
  139.5640   75.2110  221.9800 N   0  0  0  0  0  0  0  0  0  0  0  0
  139.9230   76.4720  221.6820 C   0  0  0  0  0  0  0  0  0  0  0  0
  139.0040   77.5530  222.0040 C   0  0  0  0  0  0  0  0  0  0  0  0
  139.2180   78.2970  223.0710 C   0  0  0  0  0  0  0  0  0  0  0  0
  140.2890   79.2750  223.1840 C   0  0  0  0  0  0  0  0  0  0  0  0
  141.4800   79.0480  223.8200 C   0  0  0  0  0  0  0  0  0  0  0  0
  142.4550   80.0260  223.8870 C   0  0  0  0  0  0  0  0  0  0  0  0
  142.2560   81.2550  223.3170 C   0  0  0  0  0  0  0  0  0  0  0  0
  141.0520   81.4720  222.6790 C   0  0  0  0  0  0  0  0  0  0  0  0
  140.1270   80.5060  222.6300 N   0  0  0  0  0  0  0  0  0  0  0  0
  141.1230   76.6430  221.1120 N   0  0  0  0  0  0  0  0  0  0  0  0
  141.5580   77.9700  220.7440 C   0  0  0  0  0  0  0  0  0  0  0  0
  142.0240   78.1240  219.3400 C   0  0  0  0  0  0  0  0  0  0  0  0
  141.2080   77.4600  218.2860 C   0  0  0  0  0  0  0  0  0  0  0  0
  141.8200   77.6110  216.9070 C   0  0  0  0  0  0  0  0  0  0  0  0
  142.6750   78.7800  216.8360 N   0  0  0  0  0  0  0  0  0  0  0  0
  142.1420   79.8900  217.5960 C   0  0  0  0  0  0  0  0  0  0  0  0
  142.1810   79.6230  219.0680 C   0  0  0  0  0  0  0  0  0  0  0  0
  143.3221   73.1425  218.2488 H   0  0  0  0  0  0  0  0  0  0  0  0
  145.6806   73.2447  217.6608 H   0  0  0  0  0  0  0  0  0  0  0  0
  147.4180   73.4416  219.5655 H   0  0  0  0  0  0  0  0  0  0  0  0
  142.4755   71.0995  221.0075 H   0  0  0  0  0  0  0  0  0  0  0  0
  140.2947   70.8250  222.0312 H   0  0  0  0  0  0  0  0  0  0  0  0
  138.8565   72.7850  222.5335 H   0  0  0  0  0  0  0  0  0  0  0  0
  138.1342   77.7487  221.3597 H   0  0  0  0  0  0  0  0  0  0  0  0
  138.5437   78.1702  223.9308 H   0  0  0  0  0  0  0  0  0  0  0  0
  141.6647   78.0691  224.2865 H   0  0  0  0  0  0  0  0  0  0  0  0
  143.4022   79.8142  224.4046 H   0  0  0  0  0  0  0  0  0  0  0  0
  143.0261   82.0389  223.3658 H   0  0  0  0  0  0  0  0  0  0  0  0
  140.8511   82.4453  222.2076 H   0  0  0  0  0  0  0  0  0  0  0  0
  140.7141   78.6584  220.8986 H   0  0  0  0  0  0  0  0  0  0  0  0
  142.4301   78.1888  221.3777 H   0  0  0  0  0  0  0  0  0  0  0  0
  142.9792   77.5835  219.2662 H   0  0  0  0  0  0  0  0  0  0  0  0
  141.1279   76.3887  218.5225 H   0  0  0  0  0  0  0  0  0  0  0  0
  140.2193   77.9420  218.2710 H   0  0  0  0  0  0  0  0  0  0  0  0
  142.4174   76.7157  216.6799 H   0  0  0  0  0  0  0  0  0  0  0  0
  141.0061   77.7308  216.1768 H   0  0  0  0  0  0  0  0  0  0  0  0
  142.9480   79.0300  215.8820 H   0  0  0  0  0  0  0  0  0  0  0  0
  142.7389   80.7885  217.3808 H   0  0  0  0  0  0  0  0  0  0  0  0
  141.0920   80.0342  217.3015 H   0  0  0  0  0  0  0  0  0  0  0  0
  143.1439   79.9667  219.4739 H   0  0  0  0  0  0  0  0  0  0  0  0
  141.3540   80.1633  219.5520 H   0  0  0  0  0  0  0  0  0  0  0  0
  1  2  2  0
  2  3  1  0
  3  4  2  0
  4  5  1  0
  5  6  2  0
  6  7  1  0
  7  8  2  0
  8  9  1  0
  4 10  1  0
 10 11  2  0
 11 12  1  0
 12 13  2  0
 13 14  1  0
 14 15  2  0
 15 16  1  0
 16 17  2  0
 17 18  1  0
 18 19  2  0
 19 20  1  0
 20 21  2  0
 21 22  1  0
 22 23  2  0
 15 24  1  0
 24 25  1  0
 25 26  1  0
 26 27  1  0
 27 28  1  0
 28 29  1  0
 29 30  1  0
 30 31  1  0
 24  2  1  0
 31 26  1  0
 13  3  1  0
 23 18  1  0
  9  5  1  0
  6 32  1  0
  7 33  1  0
  8 34  1  0
 10 35  1  0
 11 36  1  0
 12 37  1  0
 16 38  1  0
 17 39  1  0
 19 40  1  0
 20 41  1  0
 21 42  1  0
 22 43  1  0
 25 44  1  0
 25 45  1  0
 26 46  1  0
 27 47  1  0
 27 48  1  0
 28 49  1  0
 28 50  1  0
 29 51  1  0
 30 52  1  0
 30 53  1  0
 31 54  1  0
 31 55  1  0
M  END
>  <smiles>  (14) 
O=c1c2c(-c3cccs3)cccc2nc(/C=C/c2ccccn2)n1CC1CCNCC1

>  <score_type>  (14) 
oracle

>  <origin>  (14) 
autodockgpu

>  <m_score__min__energy>  (14) 
-7.7699999999999996

>  <m_primary>  (14) 
energy

>  <rmsd>  (14) 
6.532706401489826

>  <m_score__min__rmsd>  (14) 
6.532706401489826

>  <meeko>  (14) 
{"free_energy": -7.68, "intermolecular_energy": -9.47, "internal_energy": -1.89, "cluster_size": 20, "cluster_id": 1, "rank_in_cluster": 9}

>  <energy>  (14) 
-7.61

>  <cluster_rmsd>  (14) 
0.49

>  <cluster>  (14) 
1

$$$$

     RDKit          3D

 55 59  0  0  0  0  0  0  0  0999 V2000
  141.9710   76.9820  220.8570 O   0  0  0  0  0  0  0  0  0  0  0  0
  140.9450   76.2890  220.8980 C   0  0  0  0  0  0  0  0  0  0  0  0
  139.8450   76.6390  221.6250 C   0  0  0  0  0  0  0  0  0  0  0  0
  139.8230   77.7850  222.3730 C   0  0  0  0  0  0  0  0  0  0  0  0
  140.7780   78.8190  222.4320 C   0  0  0  0  0  0  0  0  0  0  0  0
  141.7310   78.9750  223.4340 C   0  0  0  0  0  0  0  0  0  0  0  0
  142.5930   79.9820  223.3410 C   0  0  0  0  0  0  0  0  0  0  0  0
  142.5520   80.8380  222.2980 C   0  0  0  0  0  0  0  0  0  0  0  0
  141.1680   80.1890  221.3300 S   0  0  0  0  0  0  0  0  0  0  0  0
  138.6250   77.9840  223.0920 C   0  0  0  0  0  0  0  0  0  0  0  0
  137.5730   77.1180  223.0480 C   0  0  0  0  0  0  0  0  0  0  0  0
  137.6170   75.9790  222.2890 C   0  0  0  0  0  0  0  0  0  0  0  0
  138.7690   75.7490  221.5750 C   0  0  0  0  0  0  0  0  0  0  0  0
  138.8480   74.6410  220.8520 N   0  0  0  0  0  0  0  0  0  0  0  0
  139.9310   74.2980  220.1340 C   0  0  0  0  0  0  0  0  0  0  0  0
  139.8970   73.0640  219.3650 C   0  0  0  0  0  0  0  0  0  0  0  0
  140.1870   71.9190  219.9520 C   0  0  0  0  0  0  0  0  0  0  0  0
  139.9230   71.6280  221.3520 C   0  0  0  0  0  0  0  0  0  0  0  0
  138.8560   70.8990  221.8040 C   0  0  0  0  0  0  0  0  0  0  0  0
  138.6690   70.6610  223.1530 C   0  0  0  0  0  0  0  0  0  0  0  0
  139.5500   71.1500  224.0800 C   0  0  0  0  0  0  0  0  0  0  0  0
  140.6230   71.8830  223.6130 C   0  0  0  0  0  0  0  0  0  0  0  0
  140.7770   72.0960  222.3010 N   0  0  0  0  0  0  0  0  0  0  0  0
  140.9740   75.1390  220.1710 N   0  0  0  0  0  0  0  0  0  0  0  0
  142.1780   74.8180  219.4410 C   0  0  0  0  0  0  0  0  0  0  0  0
  143.1520   73.9560  220.1620 C   0  0  0  0  0  0  0  0  0  0  0  0
  143.4270   72.6170  219.5720 C   0  0  0  0  0  0  0  0  0  0  0  0
  144.3670   71.7940  220.4310 C   0  0  0  0  0  0  0  0  0  0  0  0
  145.1970   72.6410  221.2640 N   0  0  0  0  0  0  0  0  0  0  0  0
  145.5990   73.8500  220.5780 C   0  0  0  0  0  0  0  0  0  0  0  0
  144.4400   74.7660  220.3420 C   0  0  0  0  0  0  0  0  0  0  0  0
  141.7699   78.2793  224.2852 H   0  0  0  0  0  0  0  0  0  0  0  0
  143.3514   80.1202  224.1257 H   0  0  0  0  0  0  0  0  0  0  0  0
  143.1945   81.7063  222.0902 H   0  0  0  0  0  0  0  0  0  0  0  0
  138.5356   78.8831  223.7194 H   0  0  0  0  0  0  0  0  0  0  0  0
  136.6693   77.3389  223.6349 H   0  0  0  0  0  0  0  0  0  0  0  0
  136.7688   75.2796  222.2523 H   0  0  0  0  0  0  0  0  0  0  0  0
  139.6305   73.0855  218.2980 H   0  0  0  0  0  0  0  0  0  0  0  0
  140.6589   71.1337  219.3433 H   0  0  0  0  0  0  0  0  0  0  0  0
  138.1334   70.4948  221.0798 H   0  0  0  0  0  0  0  0  0  0  0  0
  137.8018   70.0716  223.4856 H   0  0  0  0  0  0  0  0  0  0  0  0
  139.4085   70.9661  225.1552 H   0  0  0  0  0  0  0  0  0  0  0  0
  141.3552   72.2941  224.3235 H   0  0  0  0  0  0  0  0  0  0  0  0
  141.8857   74.2991  218.5162 H   0  0  0  0  0  0  0  0  0  0  0  0
  142.6913   75.7754  219.2683 H   0  0  0  0  0  0  0  0  0  0  0  0
  142.6858   73.6930  221.1230 H   0  0  0  0  0  0  0  0  0  0  0  0
  142.4761   72.0740  219.4674 H   0  0  0  0  0  0  0  0  0  0  0  0
  143.9099   72.7712  218.5958 H   0  0  0  0  0  0  0  0  0  0  0  0
  143.7736   71.1287  221.0754 H   0  0  0  0  0  0  0  0  0  0  0  0
  145.0223   71.2105  219.7675 H   0  0  0  0  0  0  0  0  0  0  0  0
  145.9740   72.1450  221.7090 H   0  0  0  0  0  0  0  0  0  0  0  0
  146.3483   74.3740  221.1895 H   0  0  0  0  0  0  0  0  0  0  0  0
  146.0153   73.5662  219.6002 H   0  0  0  0  0  0  0  0  0  0  0  0
  144.3279   75.4395  221.2045 H   0  0  0  0  0  0  0  0  0  0  0  0
  144.6258   75.3513  219.4294 H   0  0  0  0  0  0  0  0  0  0  0  0
  1  2  2  0
  2  3  1  0
  3  4  2  0
  4  5  1  0
  5  6  2  0
  6  7  1  0
  7  8  2  0
  8  9  1  0
  4 10  1  0
 10 11  2  0
 11 12  1  0
 12 13  2  0
 13 14  1  0
 14 15  2  0
 15 16  1  0
 16 17  2  0
 17 18  1  0
 18 19  2  0
 19 20  1  0
 20 21  2  0
 21 22  1  0
 22 23  2  0
 15 24  1  0
 24 25  1  0
 25 26  1  0
 26 27  1  0
 27 28  1  0
 28 29  1  0
 29 30  1  0
 30 31  1  0
 24  2  1  0
 31 26  1  0
 13  3  1  0
 23 18  1  0
  9  5  1  0
  6 32  1  0
  7 33  1  0
  8 34  1  0
 10 35  1  0
 11 36  1  0
 12 37  1  0
 16 38  1  0
 17 39  1  0
 19 40  1  0
 20 41  1  0
 21 42  1  0
 22 43  1  0
 25 44  1  0
 25 45  1  0
 26 46  1  0
 27 47  1  0
 27 48  1  0
 28 49  1  0
 28 50  1  0
 29 51  1  0
 30 52  1  0
 30 53  1  0
 31 54  1  0
 31 55  1  0
M  END
>  <smiles>  (15) 
O=c1c2c(-c3cccs3)cccc2nc(/C=C/c2ccccn2)n1CC1CCNCC1

>  <score_type>  (15) 
oracle

>  <origin>  (15) 
autodockgpu

>  <m_score__min__energy>  (15) 
-7.7699999999999996

>  <m_primary>  (15) 
energy

>  <rmsd>  (15) 
7.68645399938718

>  <m_score__min__rmsd>  (15) 
7.68645399938718

>  <meeko>  (15) 
{"free_energy": -6.82, "intermolecular_energy": -8.61, "internal_energy": -2.29, "cluster_size": 11, "cluster_id": 3, "rank_in_cluster": 8}

>  <energy>  (15) 
-7.58

>  <cluster_rmsd>  (15) 
0.74

>  <cluster>  (15) 
1

$$$$

     RDKit          3D

 55 59  0  0  0  0  0  0  0  0999 V2000
  141.9630   76.9090  220.8540 O   0  0  0  0  0  0  0  0  0  0  0  0
  140.9300   76.2260  220.8660 C   0  0  0  0  0  0  0  0  0  0  0  0
  139.8280   76.5650  221.5940 C   0  0  0  0  0  0  0  0  0  0  0  0
  139.8100   77.6880  222.3760 C   0  0  0  0  0  0  0  0  0  0  0  0
  140.7750   78.7110  222.4730 C   0  0  0  0  0  0  0  0  0  0  0  0
  141.6920   78.8520  223.5100 C   0  0  0  0  0  0  0  0  0  0  0  0
  142.5690   79.8490  223.4520 C   0  0  0  0  0  0  0  0  0  0  0  0
  142.5760   80.7080  222.4110 C   0  0  0  0  0  0  0  0  0  0  0  0
  141.2220   80.0790  221.3910 S   0  0  0  0  0  0  0  0  0  0  0  0
  138.6080   77.8780  223.0910 C   0  0  0  0  0  0  0  0  0  0  0  0
  137.5480   77.0240  223.0130 C   0  0  0  0  0  0  0  0  0  0  0  0
  137.5870   75.9080  222.2210 C   0  0  0  0  0  0  0  0  0  0  0  0
  138.7440   75.6880  221.5090 C   0  0  0  0  0  0  0  0  0  0  0  0
  138.8170   74.6000  220.7540 N   0  0  0  0  0  0  0  0  0  0  0  0
  139.9030   74.2690  220.0350 C   0  0  0  0  0  0  0  0  0  0  0  0
  139.8630   73.0580  219.2290 C   0  0  0  0  0  0  0  0  0  0  0  0
  139.7880   71.8810  219.8200 C   0  0  0  0  0  0  0  0  0  0  0  0
  139.6740   71.6940  221.2580 C   0  0  0  0  0  0  0  0  0  0  0  0
  138.5720   71.1800  221.8870 C   0  0  0  0  0  0  0  0  0  0  0  0
  138.5350   71.0290  223.2610 C   0  0  0  0  0  0  0  0  0  0  0  0
  139.6040   71.3920  224.0350 C   0  0  0  0  0  0  0  0  0  0  0  0
  140.7100   71.9080  223.3900 C   0  0  0  0  0  0  0  0  0  0  0  0
  140.7170   72.0420  222.0590 N   0  0  0  0  0  0  0  0  0  0  0  0
  140.9540   75.0970  220.1050 N   0  0  0  0  0  0  0  0  0  0  0  0
  142.1610   74.7860  219.3760 C   0  0  0  0  0  0  0  0  0  0  0  0
  143.1450   73.9380  220.1000 C   0  0  0  0  0  0  0  0  0  0  0  0
  143.4200   72.5920  219.5270 C   0  0  0  0  0  0  0  0  0  0  0  0
  144.3710   71.7850  220.3900 C   0  0  0  0  0  0  0  0  0  0  0  0
  145.2050   72.6480  221.2020 N   0  0  0  0  0  0  0  0  0  0  0  0
  145.5960   73.8490  220.4950 C   0  0  0  0  0  0  0  0  0  0  0  0
  144.4310   74.7560  220.2560 C   0  0  0  0  0  0  0  0  0  0  0  0
  141.6911   78.1533  224.3596 H   0  0  0  0  0  0  0  0  0  0  0  0
  143.2998   79.9759  224.2643 H   0  0  0  0  0  0  0  0  0  0  0  0
  143.2358   81.5693  222.2297 H   0  0  0  0  0  0  0  0  0  0  0  0
  138.5221   78.7591  223.7438 H   0  0  0  0  0  0  0  0  0  0  0  0
  136.6418   77.2363  223.5992 H   0  0  0  0  0  0  0  0  0  0  0  0
  136.7324   75.2185  222.1566 H   0  0  0  0  0  0  0  0  0  0  0  0
  139.8952   73.1238  218.1314 H   0  0  0  0  0  0  0  0  0  0  0  0
  139.8133   70.9834  219.1846 H   0  0  0  0  0  0  0  0  0  0  0  0
  137.6992   70.8814  221.2878 H   0  0  0  0  0  0  0  0  0  0  0  0
  137.6356   70.6121  223.7378 H   0  0  0  0  0  0  0  0  0  0  0  0
  139.5826   71.2770  225.1288 H   0  0  0  0  0  0  0  0  0  0  0  0
  141.5914   72.2110  223.9743 H   0  0  0  0  0  0  0  0  0  0  0  0
  141.8739   74.2599  218.4536 H   0  0  0  0  0  0  0  0  0  0  0  0
  142.6637   75.7483  219.1991 H   0  0  0  0  0  0  0  0  0  0  0  0
  142.6889   73.6865  221.0689 H   0  0  0  0  0  0  0  0  0  0  0  0
  142.4704   72.0440  219.4385 H   0  0  0  0  0  0  0  0  0  0  0  0
  143.8936   72.7338  218.5444 H   0  0  0  0  0  0  0  0  0  0  0  0
  143.7860   71.1276  221.0499 H   0  0  0  0  0  0  0  0  0  0  0  0
  145.0222   71.1933  219.7298 H   0  0  0  0  0  0  0  0  0  0  0  0
  145.9880   72.1610  221.6470 H   0  0  0  0  0  0  0  0  0  0  0  0
  146.3481   74.3851  221.0924 H   0  0  0  0  0  0  0  0  0  0  0  0
  146.0054   73.5530  219.5179 H   0  0  0  0  0  0  0  0  0  0  0  0
  144.3238   75.4419  221.1093 H   0  0  0  0  0  0  0  0  0  0  0  0
  144.6059   75.3282  219.3330 H   0  0  0  0  0  0  0  0  0  0  0  0
  1  2  2  0
  2  3  1  0
  3  4  2  0
  4  5  1  0
  5  6  2  0
  6  7  1  0
  7  8  2  0
  8  9  1  0
  4 10  1  0
 10 11  2  0
 11 12  1  0
 12 13  2  0
 13 14  1  0
 14 15  2  0
 15 16  1  0
 16 17  2  0
 17 18  1  0
 18 19  2  0
 19 20  1  0
 20 21  2  0
 21 22  1  0
 22 23  2  0
 15 24  1  0
 24 25  1  0
 25 26  1  0
 26 27  1  0
 27 28  1  0
 28 29  1  0
 29 30  1  0
 30 31  1  0
 24  2  1  0
 31 26  1  0
 13  3  1  0
 23 18  1  0
  9  5  1  0
  6 32  1  0
  7 33  1  0
  8 34  1  0
 10 35  1  0
 11 36  1  0
 12 37  1  0
 16 38  1  0
 17 39  1  0
 19 40  1  0
 20 41  1  0
 21 42  1  0
 22 43  1  0
 25 44  1  0
 25 45  1  0
 26 46  1  0
 27 47  1  0
 27 48  1  0
 28 49  1  0
 28 50  1  0
 29 51  1  0
 30 52  1  0
 30 53  1  0
 31 54  1  0
 31 55  1  0
M  END
>  <smiles>  (16) 
O=c1c2c(-c3cccs3)cccc2nc(/C=C/c2ccccn2)n1CC1CCNCC1

>  <score_type>  (16) 
oracle

>  <origin>  (16) 
autodockgpu

>  <m_score__min__energy>  (16) 
-7.7699999999999996

>  <m_primary>  (16) 
energy

>  <rmsd>  (16) 
7.612881321932116

>  <m_score__min__rmsd>  (16) 
7.612881321932116

>  <meeko>  (16) 
{"free_energy": -6.72, "intermolecular_energy": -8.51, "internal_energy": -2.37, "cluster_size": 11, "cluster_id": 3, "rank_in_cluster": 10}

>  <energy>  (16) 
-7.3

>  <cluster_rmsd>  (16) 
0.83

>  <cluster>  (16) 
1

$$$$

     RDKit          3D

 55 59  0  0  0  0  0  0  0  0999 V2000
  141.9950   74.8210  218.8870 O   0  0  0  0  0  0  0  0  0  0  0  0
  141.4400   74.6800  219.9860 C   0  0  0  0  0  0  0  0  0  0  0  0
  140.8830   75.7200  220.6720 C   0  0  0  0  0  0  0  0  0  0  0  0
  140.9220   76.9960  220.1820 C   0  0  0  0  0  0  0  0  0  0  0  0
  141.3710   77.4460  218.9230 C   0  0  0  0  0  0  0  0  0  0  0  0
  142.6940   77.7280  218.5980 C   0  0  0  0  0  0  0  0  0  0  0  0
  142.9740   78.1110  217.3570 C   0  0  0  0  0  0  0  0  0  0  0  0
  142.0030   78.2250  216.4270 C   0  0  0  0  0  0  0  0  0  0  0  0
  140.5280   77.7530  217.3620 S   0  0  0  0  0  0  0  0  0  0  0  0
  140.3310   77.9600  221.0270 C   0  0  0  0  0  0  0  0  0  0  0  0
  139.7630   77.6540  222.2280 C   0  0  0  0  0  0  0  0  0  0  0  0
  139.7330   76.3680  222.6970 C   0  0  0  0  0  0  0  0  0  0  0  0
  140.3010   75.4000  221.9010 C   0  0  0  0  0  0  0  0  0  0  0  0
  140.3070   74.1500  222.3430 N   0  0  0  0  0  0  0  0  0  0  0  0
  140.8550   73.1260  221.6650 C   0  0  0  0  0  0  0  0  0  0  0  0
  140.7880   71.7930  222.2420 C   0  0  0  0  0  0  0  0  0  0  0  0
  139.8600   71.5120  223.1360 C   0  0  0  0  0  0  0  0  0  0  0  0
  140.1390   71.0390  224.4830 C   0  0  0  0  0  0  0  0  0  0  0  0
  139.8150   69.7940  224.9490 C   0  0  0  0  0  0  0  0  0  0  0  0
  140.1120   69.4120  226.2440 C   0  0  0  0  0  0  0  0  0  0  0  0
  140.7430   70.2730  227.1010 C   0  0  0  0  0  0  0  0  0  0  0  0
  141.0650   71.5260  226.6210 C   0  0  0  0  0  0  0  0  0  0  0  0
  140.7650   71.8660  225.3620 N   0  0  0  0  0  0  0  0  0  0  0  0
  141.4200   73.4140  220.4840 N   0  0  0  0  0  0  0  0  0  0  0  0
  142.0470   72.3630  219.7170 C   0  0  0  0  0  0  0  0  0  0  0  0
  143.5230   72.4720  219.5720 C   0  0  0  0  0  0  0  0  0  0  0  0
  144.0300   73.0660  218.3050 C   0  0  0  0  0  0  0  0  0  0  0  0
  145.5450   73.0500  218.2300 C   0  0  0  0  0  0  0  0  0  0  0  0
  146.1370   73.0130  219.5520 N   0  0  0  0  0  0  0  0  0  0  0  0
  145.3950   73.8150  220.5020 C   0  0  0  0  0  0  0  0  0  0  0  0
  144.0520   73.2250  220.7970 C   0  0  0  0  0  0  0  0  0  0  0  0
  143.4902   77.6360  219.3514 H   0  0  0  0  0  0  0  0  0  0  0  0
  144.0147   78.3390  217.0831 H   0  0  0  0  0  0  0  0  0  0  0  0
  142.0867   78.5270  215.3726 H   0  0  0  0  0  0  0  0  0  0  0  0
  140.3286   79.0103  220.7002 H   0  0  0  0  0  0  0  0  0  0  0  0
  139.3191   78.4579  222.8335 H   0  0  0  0  0  0  0  0  0  0  0  0
  139.2756   76.1199  223.6662 H   0  0  0  0  0  0  0  0  0  0  0  0
  141.5090   71.0215  221.9339 H   0  0  0  0  0  0  0  0  0  0  0  0
  138.8076   71.6438  222.8444 H   0  0  0  0  0  0  0  0  0  0  0  0
  139.3082   69.0830  224.2800 H   0  0  0  0  0  0  0  0  0  0  0  0
  139.8381   68.4044  226.5898 H   0  0  0  0  0  0  0  0  0  0  0  0
  140.9841   69.9774  228.1327 H   0  0  0  0  0  0  0  0  0  0  0  0
  141.5712   72.2495  227.2770 H   0  0  0  0  0  0  0  0  0  0  0  0
  141.8243   71.4048  220.2092 H   0  0  0  0  0  0  0  0  0  0  0  0
  141.6360   72.4440  218.6999 H   0  0  0  0  0  0  0  0  0  0  0  0
  143.9089   71.4435  219.5144 H   0  0  0  0  0  0  0  0  0  0  0  0
  143.6274   72.4908  217.4582 H   0  0  0  0  0  0  0  0  0  0  0  0
  143.7014   74.1152  218.2690 H   0  0  0  0  0  0  0  0  0  0  0  0
  145.8666   72.1606  217.6683 H   0  0  0  0  0  0  0  0  0  0  0  0
  145.8775   73.9696  217.7262 H   0  0  0  0  0  0  0  0  0  0  0  0
  147.1430   73.1990  219.5560 H   0  0  0  0  0  0  0  0  0  0  0  0
  145.9689   73.8800  221.4382 H   0  0  0  0  0  0  0  0  0  0  0  0
  145.2419   74.8117  220.0625 H   0  0  0  0  0  0  0  0  0  0  0  0
  144.1399   72.5268  221.6424 H   0  0  0  0  0  0  0  0  0  0  0  0
  143.3522   74.0352  221.0495 H   0  0  0  0  0  0  0  0  0  0  0  0
  1  2  2  0
  2  3  1  0
  3  4  2  0
  4  5  1  0
  5  6  2  0
  6  7  1  0
  7  8  2  0
  8  9  1  0
  4 10  1  0
 10 11  2  0
 11 12  1  0
 12 13  2  0
 13 14  1  0
 14 15  2  0
 15 16  1  0
 16 17  2  0
 17 18  1  0
 18 19  2  0
 19 20  1  0
 20 21  2  0
 21 22  1  0
 22 23  2  0
 15 24  1  0
 24 25  1  0
 25 26  1  0
 26 27  1  0
 27 28  1  0
 28 29  1  0
 29 30  1  0
 30 31  1  0
 24  2  1  0
 31 26  1  0
 13  3  1  0
 23 18  1  0
  9  5  1  0
  6 32  1  0
  7 33  1  0
  8 34  1  0
 10 35  1  0
 11 36  1  0
 12 37  1  0
 16 38  1  0
 17 39  1  0
 19 40  1  0
 20 41  1  0
 21 42  1  0
 22 43  1  0
 25 44  1  0
 25 45  1  0
 26 46  1  0
 27 47  1  0
 27 48  1  0
 28 49  1  0
 28 50  1  0
 29 51  1  0
 30 52  1  0
 30 53  1  0
 31 54  1  0
 31 55  1  0
M  END
>  <smiles>  (17) 
O=c1c2c(-c3cccs3)cccc2nc(/C=C/c2ccccn2)n1CC1CCNCC1

>  <score_type>  (17) 
oracle

>  <origin>  (17) 
autodockgpu

>  <m_score__min__energy>  (17) 
-7.7699999999999996

>  <m_primary>  (17) 
energy

>  <rmsd>  (17) 
8.284365960450275

>  <m_score__min__rmsd>  (17) 
8.284365960450275

>  <meeko>  (17) 
{"free_energy": -7.64, "intermolecular_energy": -9.43, "internal_energy": -1.62, "cluster_size": 3, "cluster_id": 2, "rank_in_cluster": 2}

>  <energy>  (17) 
-7.29

>  <cluster_rmsd>  (17) 
0.67

>  <cluster>  (17) 
1

$$$$

     RDKit          3D

 55 59  0  0  0  0  0  0  0  0999 V2000
  143.0800   75.7970  220.3290 O   0  0  0  0  0  0  0  0  0  0  0  0
  141.9880   75.5280  220.8480 C   0  0  0  0  0  0  0  0  0  0  0  0
  141.6020   74.2530  221.1390 C   0  0  0  0  0  0  0  0  0  0  0  0
  142.4070   73.1840  220.8530 C   0  0  0  0  0  0  0  0  0  0  0  0
  143.7350   73.1800  220.3800 C   0  0  0  0  0  0  0  0  0  0  0  0
  144.1100   73.0450  219.0470 C   0  0  0  0  0  0  0  0  0  0  0  0
  145.4020   73.0950  218.7420 C   0  0  0  0  0  0  0  0  0  0  0  0
  146.3360   73.2740  219.7000 C   0  0  0  0  0  0  0  0  0  0  0  0
  145.3260   73.3880  221.1970 S   0  0  0  0  0  0  0  0  0  0  0  0
  141.8480   71.9310  221.1860 C   0  0  0  0  0  0  0  0  0  0  0  0
  140.6140   71.7890  221.7480 C   0  0  0  0  0  0  0  0  0  0  0  0
  139.8270   72.8740  222.0280 C   0  0  0  0  0  0  0  0  0  0  0  0
  140.3370   74.1120  221.7170 C   0  0  0  0  0  0  0  0  0  0  0  0
  139.5850   75.1780  221.9550 N   0  0  0  0  0  0  0  0  0  0  0  0
  139.9680   76.4350  221.6700 C   0  0  0  0  0  0  0  0  0  0  0  0
  139.0640   77.5290  221.9910 C   0  0  0  0  0  0  0  0  0  0  0  0
  139.2800   78.2620  223.0650 C   0  0  0  0  0  0  0  0  0  0  0  0
  140.3440   79.2470  223.1830 C   0  0  0  0  0  0  0  0  0  0  0  0
  141.5460   79.0190  223.7950 C   0  0  0  0  0  0  0  0  0  0  0  0
  142.5130   80.0040  223.8690 C   0  0  0  0  0  0  0  0  0  0  0  0
  142.2940   81.2430  223.3280 C   0  0  0  0  0  0  0  0  0  0  0  0
  141.0780   81.4620  222.7120 C   0  0  0  0  0  0  0  0  0  0  0  0
  140.1620   80.4880  222.6570 N   0  0  0  0  0  0  0  0  0  0  0  0
  141.1780   76.5890  221.1130 N   0  0  0  0  0  0  0  0  0  0  0  0
  141.6390   77.9110  220.7600 C   0  0  0  0  0  0  0  0  0  0  0  0
  142.0840   78.0780  219.3510 C   0  0  0  0  0  0  0  0  0  0  0  0
  141.2750   77.3910  218.3070 C   0  0  0  0  0  0  0  0  0  0  0  0
  141.8660   77.5590  216.9210 C   0  0  0  0  0  0  0  0  0  0  0  0
  142.6870   78.7510  216.8390 N   0  0  0  0  0  0  0  0  0  0  0  0
  142.1310   79.8460  217.6060 C   0  0  0  0  0  0  0  0  0  0  0  0
  142.1950   79.5820  219.0770 C   0  0  0  0  0  0  0  0  0  0  0  0
  143.3528   72.9000  218.2624 H   0  0  0  0  0  0  0  0  0  0  0  0
  145.7154   72.9889  217.6930 H   0  0  0  0  0  0  0  0  0  0  0  0
  147.4295   73.3349  219.5971 H   0  0  0  0  0  0  0  0  0  0  0  0
  142.4371   71.0247  220.9820 H   0  0  0  0  0  0  0  0  0  0  0  0
  140.2423   70.7804  221.9817 H   0  0  0  0  0  0  0  0  0  0  0  0
  138.8313   72.7600  222.4815 H   0  0  0  0  0  0  0  0  0  0  0  0
  138.2037   77.7435  221.3400 H   0  0  0  0  0  0  0  0  0  0  0  0
  138.6126   78.1197  223.9278 H   0  0  0  0  0  0  0  0  0  0  0  0
  141.7471   78.0320  224.2371 H   0  0  0  0  0  0  0  0  0  0  0  0
  143.4696   79.7902  224.3682 H   0  0  0  0  0  0  0  0  0  0  0  0
  143.0574   82.0331  223.3822 H   0  0  0  0  0  0  0  0  0  0  0  0
  140.8608   82.4428  222.2638 H   0  0  0  0  0  0  0  0  0  0  0  0
  140.8152   78.6170  220.9413 H   0  0  0  0  0  0  0  0  0  0  0  0
  142.5271   78.0975  221.3816 H   0  0  0  0  0  0  0  0  0  0  0  0
  143.0534   77.5652  219.2660 H   0  0  0  0  0  0  0  0  0  0  0  0
  141.2282   76.3179  218.5444 H   0  0  0  0  0  0  0  0  0  0  0  0
  140.2729   77.8447  218.3038 H   0  0  0  0  0  0  0  0  0  0  0  0
  142.4853   76.6806  216.6867 H   0  0  0  0  0  0  0  0  0  0  0  0
  141.0401   77.6563  216.2010 H   0  0  0  0  0  0  0  0  0  0  0  0
  142.9420   79.0090  215.8820 H   0  0  0  0  0  0  0  0  0  0  0  0
  142.6990   80.7613  217.3834 H   0  0  0  0  0  0  0  0  0  0  0  0
  141.0737   79.9588  217.3243 H   0  0  0  0  0  0  0  0  0  0  0  0
  143.1524   79.9533  219.4713 H   0  0  0  0  0  0  0  0  0  0  0  0
  141.3591   80.0991  219.5708 H   0  0  0  0  0  0  0  0  0  0  0  0
  1  2  2  0
  2  3  1  0
  3  4  2  0
  4  5  1  0
  5  6  2  0
  6  7  1  0
  7  8  2  0
  8  9  1  0
  4 10  1  0
 10 11  2  0
 11 12  1  0
 12 13  2  0
 13 14  1  0
 14 15  2  0
 15 16  1  0
 16 17  2  0
 17 18  1  0
 18 19  2  0
 19 20  1  0
 20 21  2  0
 21 22  1  0
 22 23  2  0
 15 24  1  0
 24 25  1  0
 25 26  1  0
 26 27  1  0
 27 28  1  0
 28 29  1  0
 29 30  1  0
 30 31  1  0
 24  2  1  0
 31 26  1  0
 13  3  1  0
 23 18  1  0
  9  5  1  0
  6 32  1  0
  7 33  1  0
  8 34  1  0
 10 35  1  0
 11 36  1  0
 12 37  1  0
 16 38  1  0
 17 39  1  0
 19 40  1  0
 20 41  1  0
 21 42  1  0
 22 43  1  0
 25 44  1  0
 25 45  1  0
 26 46  1  0
 27 47  1  0
 27 48  1  0
 28 49  1  0
 28 50  1  0
 29 51  1  0
 30 52  1  0
 30 53  1  0
 31 54  1  0
 31 55  1  0
M  END
>  <smiles>  (18) 
O=c1c2c(-c3cccs3)cccc2nc(/C=C/c2ccccn2)n1CC1CCNCC1

>  <score_type>  (18) 
oracle

>  <origin>  (18) 
autodockgpu

>  <m_score__min__energy>  (18) 
-7.7699999999999996

>  <m_primary>  (18) 
energy

>  <rmsd>  (18) 
6.510425186638318

>  <m_score__min__rmsd>  (18) 
6.510425186638318

>  <meeko>  (18) 
{"free_energy": -7.67, "intermolecular_energy": -9.46, "internal_energy": -1.9, "cluster_size": 20, "cluster_id": 1, "rank_in_cluster": 10}

>  <energy>  (18) 
-7.2

>  <cluster_rmsd>  (18) 
0.95

>  <cluster>  (18) 
1

$$$$

     RDKit          3D

 55 59  0  0  0  0  0  0  0  0999 V2000
  141.3940   75.8110  221.9800 O   0  0  0  0  0  0  0  0  0  0  0  0
  140.2520   75.3320  221.9560 C   0  0  0  0  0  0  0  0  0  0  0  0
  139.1340   76.0740  222.2040 C   0  0  0  0  0  0  0  0  0  0  0  0
  139.2190   77.4040  222.5130 C   0  0  0  0  0  0  0  0  0  0  0  0
  140.3510   78.2440  222.5000 C   0  0  0  0  0  0  0  0  0  0  0  0
  140.9040   78.8620  223.6170 C   0  0  0  0  0  0  0  0  0  0  0  0
  141.9970   79.6000  223.4580 C   0  0  0  0  0  0  0  0  0  0  0  0
  142.5650   79.7510  222.2430 C   0  0  0  0  0  0  0  0  0  0  0  0
  141.4720   78.7650  221.1910 S   0  0  0  0  0  0  0  0  0  0  0  0
  137.9750   78.0190  222.7750 C   0  0  0  0  0  0  0  0  0  0  0  0
  136.7860   77.3530  222.7220 C   0  0  0  0  0  0  0  0  0  0  0  0
  136.7260   76.0220  222.4060 C   0  0  0  0  0  0  0  0  0  0  0  0
  137.9190   75.3880  222.1470 C   0  0  0  0  0  0  0  0  0  0  0  0
  137.8910   74.0930  221.8630 N   0  0  0  0  0  0  0  0  0  0  0  0
  138.9930   73.3640  221.6170 C   0  0  0  0  0  0  0  0  0  0  0  0
  138.8380   71.9520  221.3010 C   0  0  0  0  0  0  0  0  0  0  0  0
  138.3810   71.1220  222.2180 C   0  0  0  0  0  0  0  0  0  0  0  0
  139.0200   70.8930  223.5050 C   0  0  0  0  0  0  0  0  0  0  0  0
  138.6180   69.9500  224.4110 C   0  0  0  0  0  0  0  0  0  0  0  0
  139.2750   69.7860  225.6170 C   0  0  0  0  0  0  0  0  0  0  0  0
  140.3530   70.5670  225.9390 C   0  0  0  0  0  0  0  0  0  0  0  0
  140.7500   71.5140  225.0170 C   0  0  0  0  0  0  0  0  0  0  0  0
  140.0940   71.6480  223.8580 N   0  0  0  0  0  0  0  0  0  0  0  0
  140.1690   74.0040  221.6690 N   0  0  0  0  0  0  0  0  0  0  0  0
  141.3920   73.2730  221.4380 C   0  0  0  0  0  0  0  0  0  0  0  0
  142.1960   73.7240  220.2700 C   0  0  0  0  0  0  0  0  0  0  0  0
  141.5190   74.6290  219.3000 C   0  0  0  0  0  0  0  0  0  0  0  0
  142.4010   74.9570  218.1110 C   0  0  0  0  0  0  0  0  0  0  0  0
  143.8050   74.8170  218.4420 N   0  0  0  0  0  0  0  0  0  0  0  0
  144.0910   75.2580  219.7910 C   0  0  0  0  0  0  0  0  0  0  0  0
  143.4870   74.3470  220.8130 C   0  0  0  0  0  0  0  0  0  0  0  0
  140.4462   78.7421  224.6100 H   0  0  0  0  0  0  0  0  0  0  0  0
  142.4465   80.0962  224.3308 H   0  0  0  0  0  0  0  0  0  0  0  0
  143.4609   80.3252  221.9644 H   0  0  0  0  0  0  0  0  0  0  0  0
  137.9645   79.0879  223.0346 H   0  0  0  0  0  0  0  0  0  0  0  0
  135.8547   77.8971  222.9379 H   0  0  0  0  0  0  0  0  0  0  0  0
  135.7675   75.4842  222.3613 H   0  0  0  0  0  0  0  0  0  0  0  0
  139.1012   71.5783  220.3005 H   0  0  0  0  0  0  0  0  0  0  0  0
  137.4575   70.5672  221.9958 H   0  0  0  0  0  0  0  0  0  0  0  0
  137.7552   69.3095  224.1756 H   0  0  0  0  0  0  0  0  0  0  0  0
  138.9278   69.0196  226.3256 H   0  0  0  0  0  0  0  0  0  0  0  0
  140.8820   70.4442  226.8956 H   0  0  0  0  0  0  0  0  0  0  0  0
  141.6109   72.1627  225.2359 H   0  0  0  0  0  0  0  0  0  0  0  0
  142.0183   73.3671  222.3374 H   0  0  0  0  0  0  0  0  0  0  0  0
  141.0890   72.2393  221.2154 H   0  0  0  0  0  0  0  0  0  0  0  0
  142.3878   72.8309  219.6571 H   0  0  0  0  0  0  0  0  0  0  0  0
  140.6036   74.1386  218.9374 H   0  0  0  0  0  0  0  0  0  0  0  0
  141.2895   75.5707  219.8202 H   0  0  0  0  0  0  0  0  0  0  0  0
  142.1577   74.2727  217.2848 H   0  0  0  0  0  0  0  0  0  0  0  0
  142.2157   76.0012  217.8190 H   0  0  0  0  0  0  0  0  0  0  0  0
  144.4340   75.2150  217.7400 H   0  0  0  0  0  0  0  0  0  0  0  0
  145.1814   75.2810  219.9345 H   0  0  0  0  0  0  0  0  0  0  0  0
  143.6537   76.2586  219.9237 H   0  0  0  0  0  0  0  0  0  0  0  0
  144.2025   73.5473  221.0550 H   0  0  0  0  0  0  0  0  0  0  0  0
  143.2525   74.9276  221.7174 H   0  0  0  0  0  0  0  0  0  0  0  0
  1  2  2  0
  2  3  1  0
  3  4  2  0
  4  5  1  0
  5  6  2  0
  6  7  1  0
  7  8  2  0
  8  9  1  0
  4 10  1  0
 10 11  2  0
 11 12  1  0
 12 13  2  0
 13 14  1  0
 14 15  2  0
 15 16  1  0
 16 17  2  0
 17 18  1  0
 18 19  2  0
 19 20  1  0
 20 21  2  0
 21 22  1  0
 22 23  2  0
 15 24  1  0
 24 25  1  0
 25 26  1  0
 26 27  1  0
 27 28  1  0
 28 29  1  0
 29 30  1  0
 30 31  1  0
 24  2  1  0
 31 26  1  0
 13  3  1  0
 23 18  1  0
  9  5  1  0
  6 32  1  0
  7 33  1  0
  8 34  1  0
 10 35  1  0
 11 36  1  0
 12 37  1  0
 16 38  1  0
 17 39  1  0
 19 40  1  0
 20 41  1  0
 21 42  1  0
 22 43  1  0
 25 44  1  0
 25 45  1  0
 26 46  1  0
 27 47  1  0
 27 48  1  0
 28 49  1  0
 28 50  1  0
 29 51  1  0
 30 52  1  0
 30 53  1  0
 31 54  1  0
 31 55  1  0
M  END
>  <smiles>  (19) 
O=c1c2c(-c3cccs3)cccc2nc(/C=C/c2ccccn2)n1CC1CCNCC1

>  <score_type>  (19) 
oracle

>  <origin>  (19) 
autodockgpu

>  <m_score__min__energy>  (19) 
-7.7699999999999996

>  <m_primary>  (19) 
energy

>  <rmsd>  (19) 
7.448172858806992

>  <m_score__min__rmsd>  (19) 
7.448172858806992

>  <meeko>  (19) 
{"free_energy": -7.11, "intermolecular_energy": -8.9, "internal_energy": -1.89, "cluster_size": 11, "cluster_id": 3, "rank_in_cluster": 5}

>  <energy>  (19) 
-7.2

>  <cluster_rmsd>  (19) 
0.59

>  <cluster>  (19) 
1

$$$$

     RDKit          3D

 55 59  0  0  0  0  0  0  0  0999 V2000
  138.7620   80.9490  223.3150 O   0  0  0  0  0  0  0  0  0  0  0  0
  137.9570   80.0090  223.2550 C   0  0  0  0  0  0  0  0  0  0  0  0
  138.3330   78.7320  222.9550 C   0  0  0  0  0  0  0  0  0  0  0  0
  139.6370   78.4200  222.6850 C   0  0  0  0  0  0  0  0  0  0  0  0
  140.7810   79.2370  222.7920 C   0  0  0  0  0  0  0  0  0  0  0  0
  141.5750   79.3600  223.9280 C   0  0  0  0  0  0  0  0  0  0  0  0
  142.6470   80.1440  223.8710 C   0  0  0  0  0  0  0  0  0  0  0  0
  142.9650   80.8080  222.7400 C   0  0  0  0  0  0  0  0  0  0  0  0
  141.6390   80.3010  221.6190 S   0  0  0  0  0  0  0  0  0  0  0  0
  139.8540   77.0630  222.3610 C   0  0  0  0  0  0  0  0  0  0  0  0
  138.8560   76.1350  222.3210 C   0  0  0  0  0  0  0  0  0  0  0  0
  137.5580   76.4700  222.5990 C   0  0  0  0  0  0  0  0  0  0  0  0
  137.3070   77.7850  222.9170 C   0  0  0  0  0  0  0  0  0  0  0  0
  136.0540   78.1410  223.1660 N   0  0  0  0  0  0  0  0  0  0  0  0
  135.6860   79.3990  223.4640 C   0  0  0  0  0  0  0  0  0  0  0  0
  134.2820   79.6690  223.7330 C   0  0  0  0  0  0  0  0  0  0  0  0
  133.4400   78.6660  223.8890 C   0  0  0  0  0  0  0  0  0  0  0  0
  133.6510   77.5570  224.8070 C   0  0  0  0  0  0  0  0  0  0  0  0
  133.3290   77.5820  226.1370 C   0  0  0  0  0  0  0  0  0  0  0  0
  133.5560   76.4890  226.9520 C   0  0  0  0  0  0  0  0  0  0  0  0
  134.1130   75.3440  226.4480 C   0  0  0  0  0  0  0  0  0  0  0  0
  134.4330   75.3290  225.1060 C   0  0  0  0  0  0  0  0  0  0  0  0
  134.2000   76.4040  224.3430 N   0  0  0  0  0  0  0  0  0  0  0  0
  136.6560   80.3220  223.5020 N   0  0  0  0  0  0  0  0  0  0  0  0
  136.3240   81.6970  223.7920 C   0  0  0  0  0  0  0  0  0  0  0  0
  136.0980   82.0110  225.2280 C   0  0  0  0  0  0  0  0  0  0  0  0
  136.9340   81.2730  226.2150 C   0  0  0  0  0  0  0  0  0  0  0  0
  136.5620   81.6090  227.6470 C   0  0  0  0  0  0  0  0  0  0  0  0
  135.9360   82.9140  227.7350 N   0  0  0  0  0  0  0  0  0  0  0  0
  136.5330   83.8660  226.8240 C   0  0  0  0  0  0  0  0  0  0  0  0
  136.2380   83.5280  225.3960 C   0  0  0  0  0  0  0  0  0  0  0  0
  141.3213   78.8206  224.8525 H   0  0  0  0  0  0  0  0  0  0  0  0
  143.2853   80.2533  224.7602 H   0  0  0  0  0  0  0  0  0  0  0  0
  143.8120   81.4833  222.5491 H   0  0  0  0  0  0  0  0  0  0  0  0
  140.8792   76.7384  222.1293 H   0  0  0  0  0  0  0  0  0  0  0  0
  139.0990   75.0945  222.0597 H   0  0  0  0  0  0  0  0  0  0  0  0
  136.7522   75.7218  222.5695 H   0  0  0  0  0  0  0  0  0  0  0  0
  133.9238   80.7065  223.8060 H   0  0  0  0  0  0  0  0  0  0  0  0
  132.5195   78.6679  223.2867 H   0  0  0  0  0  0  0  0  0  0  0  0
  132.8805   78.4902  226.5659 H   0  0  0  0  0  0  0  0  0  0  0  0
  133.2863   76.5394  228.0172 H   0  0  0  0  0  0  0  0  0  0  0  0
  134.2983   74.4694  227.0888 H   0  0  0  0  0  0  0  0  0  0  0  0
  134.8820   74.4289  224.6607 H   0  0  0  0  0  0  0  0  0  0  0  0
  137.1501   82.3283  223.4328 H   0  0  0  0  0  0  0  0  0  0  0  0
  135.3666   81.8901  223.2859 H   0  0  0  0  0  0  0  0  0  0  0  0
  135.0860   81.6550  225.4710 H   0  0  0  0  0  0  0  0  0  0  0  0
  136.7971   80.1930  226.0577 H   0  0  0  0  0  0  0  0  0  0  0  0
  137.9814   81.5710  226.0597 H   0  0  0  0  0  0  0  0  0  0  0  0
  135.8613   80.8491  228.0232 H   0  0  0  0  0  0  0  0  0  0  0  0
  137.4812   81.6228  228.2510 H   0  0  0  0  0  0  0  0  0  0  0  0
  135.8500   83.2630  228.6940 H   0  0  0  0  0  0  0  0  0  0  0  0
  136.1335   84.8672  227.0429 H   0  0  0  0  0  0  0  0  0  0  0  0
  137.6236   83.8365  226.9644 H   0  0  0  0  0  0  0  0  0  0  0  0
  135.2990   84.0150  225.0941 H   0  0  0  0  0  0  0  0  0  0  0  0
  137.0659   83.8836  224.7651 H   0  0  0  0  0  0  0  0  0  0  0  0
  1  2  2  0
  2  3  1  0
  3  4  2  0
  4  5  1  0
  5  6  2  0
  6  7  1  0
  7  8  2  0
  8  9  1  0
  4 10  1  0
 10 11  2  0
 11 12  1  0
 12 13  2  0
 13 14  1  0
 14 15  2  0
 15 16  1  0
 16 17  2  0
 17 18  1  0
 18 19  2  0
 19 20  1  0
 20 21  2  0
 21 22  1  0
 22 23  2  0
 15 24  1  0
 24 25  1  0
 25 26  1  0
 26 27  1  0
 27 28  1  0
 28 29  1  0
 29 30  1  0
 30 31  1  0
 24  2  1  0
 31 26  1  0
 13  3  1  0
 23 18  1  0
  9  5  1  0
  6 32  1  0
  7 33  1  0
  8 34  1  0
 10 35  1  0
 11 36  1  0
 12 37  1  0
 16 38  1  0
 17 39  1  0
 19 40  1  0
 20 41  1  0
 21 42  1  0
 22 43  1  0
 25 44  1  0
 25 45  1  0
 26 46  1  0
 27 47  1  0
 27 48  1  0
 28 49  1  0
 28 50  1  0
 29 51  1  0
 30 52  1  0
 30 53  1  0
 31 54  1  0
 31 55  1  0
M  END
>  <smiles>  (20) 
O=c1c2c(-c3cccs3)cccc2nc(/C=C/c2ccccn2)n1CC1CCNCC1

>  <score_type>  (20) 
oracle

>  <origin>  (20) 
autodockgpu

>  <m_score__min__energy>  (20) 
-7.7699999999999996

>  <m_primary>  (20) 
energy

>  <rmsd>  (20) 
9.052607760002386

>  <m_score__min__rmsd>  (20) 
9.052607760002386

>  <meeko>  (20) 
{"free_energy": -7.12, "intermolecular_energy": -8.91, "internal_energy": -1.96, "cluster_size": 2, "cluster_id": 5, "rank_in_cluster": 1}

>  <energy>  (20) 
-7.16

>  <cluster_rmsd>  (20) 
0.68

>  <cluster>  (20) 
1

$$$$

     RDKit          3D

 55 59  0  0  0  0  0  0  0  0999 V2000
  142.0840   74.9410  219.1590 O   0  0  0  0  0  0  0  0  0  0  0  0
  141.4060   74.7250  220.1730 C   0  0  0  0  0  0  0  0  0  0  0  0
  140.6840   75.6980  220.8000 C   0  0  0  0  0  0  0  0  0  0  0  0
  140.6850   76.9880  220.3450 C   0  0  0  0  0  0  0  0  0  0  0  0
  141.2540   77.5080  219.1650 C   0  0  0  0  0  0  0  0  0  0  0  0
  140.5500   78.1460  218.1500 C   0  0  0  0  0  0  0  0  0  0  0  0
  141.2260   78.6190  217.1080 C   0  0  0  0  0  0  0  0  0  0  0  0
  142.5670   78.4860  217.0310 C   0  0  0  0  0  0  0  0  0  0  0  0
  142.9490   77.6100  218.5670 S   0  0  0  0  0  0  0  0  0  0  0  0
  139.9150   77.8780  221.1250 C   0  0  0  0  0  0  0  0  0  0  0  0
  139.2240   77.4940  222.2360 C   0  0  0  0  0  0  0  0  0  0  0  0
  139.2350   76.1950  222.6700 C   0  0  0  0  0  0  0  0  0  0  0  0
  139.9760   75.2980  221.9370 C   0  0  0  0  0  0  0  0  0  0  0  0
  140.0250   74.0390  222.3510 N   0  0  0  0  0  0  0  0  0  0  0  0
  140.7350   73.0810  221.7300 C   0  0  0  0  0  0  0  0  0  0  0  0
  140.7000   71.7300  222.2670 C   0  0  0  0  0  0  0  0  0  0  0  0
  139.7870   71.4040  223.1610 C   0  0  0  0  0  0  0  0  0  0  0  0
  140.0830   71.0560  224.5420 C   0  0  0  0  0  0  0  0  0  0  0  0
  139.6640   69.9070  225.1580 C   0  0  0  0  0  0  0  0  0  0  0  0
  139.9840   69.6410  226.4760 C   0  0  0  0  0  0  0  0  0  0  0  0
  140.7350   70.5240  227.2060 C   0  0  0  0  0  0  0  0  0  0  0  0
  141.1530   71.6780  226.5750 C   0  0  0  0  0  0  0  0  0  0  0  0
  140.8260   71.9070  225.2980 N   0  0  0  0  0  0  0  0  0  0  0  0
  141.4220   73.4460  220.6390 N   0  0  0  0  0  0  0  0  0  0  0  0
  142.2240   72.4700  219.9400 C   0  0  0  0  0  0  0  0  0  0  0  0
  143.6560   72.8300  219.7600 C   0  0  0  0  0  0  0  0  0  0  0  0
  144.3070   73.5660  220.8780 C   0  0  0  0  0  0  0  0  0  0  0  0
  145.7370   73.9540  220.5530 C   0  0  0  0  0  0  0  0  0  0  0  0
  146.3060   73.0760  219.5500 N   0  0  0  0  0  0  0  0  0  0  0  0
  145.8710   71.7050  219.7190 C   0  0  0  0  0  0  0  0  0  0  0  0
  144.4150   71.5440  219.4170 C   0  0  0  0  0  0  0  0  0  0  0  0
  139.4572   78.2569  218.2081 H   0  0  0  0  0  0  0  0  0  0  0  0
  140.6845   79.1265  216.2961 H   0  0  0  0  0  0  0  0  0  0  0  0
  143.2512   78.8233  216.2385 H   0  0  0  0  0  0  0  0  0  0  0  0
  139.8703   78.9343  220.8212 H   0  0  0  0  0  0  0  0  0  0  0  0
  138.6453   78.2436  222.7957 H   0  0  0  0  0  0  0  0  0  0  0  0
  138.6762   75.8833  223.5647 H   0  0  0  0  0  0  0  0  0  0  0  0
  141.4326   70.9825  221.9286 H   0  0  0  0  0  0  0  0  0  0  0  0
  138.7343   71.3946  222.8420 H   0  0  0  0  0  0  0  0  0  0  0  0
  139.0608   69.1814  224.5927 H   0  0  0  0  0  0  0  0  0  0  0  0
  139.6317   68.7099  226.9440 H   0  0  0  0  0  0  0  0  0  0  0  0
  140.9950   70.3209  228.2553 H   0  0  0  0  0  0  0  0  0  0  0  0
  141.7583   72.4136  227.1250 H   0  0  0  0  0  0  0  0  0  0  0  0
  142.1798   71.5273  220.5051 H   0  0  0  0  0  0  0  0  0  0  0  0
  141.8002   72.3995  218.9274 H   0  0  0  0  0  0  0  0  0  0  0  0
  143.6937   73.5678  218.9450 H   0  0  0  0  0  0  0  0  0  0  0  0
  143.7302   74.4797  221.0840 H   0  0  0  0  0  0  0  0  0  0  0  0
  144.3285   72.9002  221.7533 H   0  0  0  0  0  0  0  0  0  0  0  0
  145.7508   74.9868  220.1745 H   0  0  0  0  0  0  0  0  0  0  0  0
  146.3373   73.8677  221.4707 H   0  0  0  0  0  0  0  0  0  0  0  0
  147.3190   73.1740  219.4460 H   0  0  0  0  0  0  0  0  0  0  0  0
  146.4490   71.0615  219.0394 H   0  0  0  0  0  0  0  0  0  0  0  0
  146.0365   71.4203  220.7685 H   0  0  0  0  0  0  0  0  0  0  0  0
  144.2886   71.3223  218.3470 H   0  0  0  0  0  0  0  0  0  0  0  0
  144.0128   70.7185  220.0227 H   0  0  0  0  0  0  0  0  0  0  0  0
  1  2  2  0
  2  3  1  0
  3  4  2  0
  4  5  1  0
  5  6  2  0
  6  7  1  0
  7  8  2  0
  8  9  1  0
  4 10  1  0
 10 11  2  0
 11 12  1  0
 12 13  2  0
 13 14  1  0
 14 15  2  0
 15 16  1  0
 16 17  2  0
 17 18  1  0
 18 19  2  0
 19 20  1  0
 20 21  2  0
 21 22  1  0
 22 23  2  0
 15 24  1  0
 24 25  1  0
 25 26  1  0
 26 27  1  0
 27 28  1  0
 28 29  1  0
 29 30  1  0
 30 31  1  0
 24  2  1  0
 31 26  1  0
 13  3  1  0
 23 18  1  0
  9  5  1  0
  6 32  1  0
  7 33  1  0
  8 34  1  0
 10 35  1  0
 11 36  1  0
 12 37  1  0
 16 38  1  0
 17 39  1  0
 19 40  1  0
 20 41  1  0
 21 42  1  0
 22 43  1  0
 25 44  1  0
 25 45  1  0
 26 46  1  0
 27 47  1  0
 27 48  1  0
 28 49  1  0
 28 50  1  0
 29 51  1  0
 30 52  1  0
 30 53  1  0
 31 54  1  0
 31 55  1  0
M  END
>  <smiles>  (21) 
O=c1c2c(-c3cccs3)cccc2nc(/C=C/c2ccccn2)n1CC1CCNCC1

>  <score_type>  (21) 
oracle

>  <origin>  (21) 
autodockgpu

>  <m_score__min__energy>  (21) 
-7.7699999999999996

>  <m_primary>  (21) 
energy

>  <rmsd>  (21) 
8.31410133318816

>  <m_score__min__rmsd>  (21) 
8.31410133318816

>  <meeko>  (21) 
{"free_energy": -7.76, "intermolecular_energy": -9.55, "internal_energy": -1.46, "cluster_size": 3, "cluster_id": 2, "rank_in_cluster": 1}

>  <energy>  (21) 
-7.76

>  <cluster_rmsd>  (21) 
0.0

>  <cluster>  (21) 
2

$$$$

     RDKit          3D

 55 59  0  0  0  0  0  0  0  0999 V2000
  135.7060   73.1150  223.3420 O   0  0  0  0  0  0  0  0  0  0  0  0
  135.6870   71.9720  223.8200 C   0  0  0  0  0  0  0  0  0  0  0  0
  134.9960   71.6560  224.9530 C   0  0  0  0  0  0  0  0  0  0  0  0
  134.2900   72.6040  225.6420 C   0  0  0  0  0  0  0  0  0  0  0  0
  134.0290   73.9430  225.2870 C   0  0  0  0  0  0  0  0  0  0  0  0
  134.7020   75.0510  225.7910 C   0  0  0  0  0  0  0  0  0  0  0  0
  134.3710   76.2550  225.3370 C   0  0  0  0  0  0  0  0  0  0  0  0
  133.4050   76.4070  224.4060 C   0  0  0  0  0  0  0  0  0  0  0  0
  132.8870   74.6980  224.1170 S   0  0  0  0  0  0  0  0  0  0  0  0
  133.6600   72.1220  226.8100 C   0  0  0  0  0  0  0  0  0  0  0  0
  133.7390   70.8250  227.2220 C   0  0  0  0  0  0  0  0  0  0  0  0
  134.4490   69.8920  226.5130 C   0  0  0  0  0  0  0  0  0  0  0  0
  135.0790   70.3250  225.3700 C   0  0  0  0  0  0  0  0  0  0  0  0
  135.7940   69.4480  224.6780 N   0  0  0  0  0  0  0  0  0  0  0  0
  136.4720   69.7600  223.5600 C   0  0  0  0  0  0  0  0  0  0  0  0
  137.2110   68.7100  222.8760 C   0  0  0  0  0  0  0  0  0  0  0  0
  138.4470   68.4340  223.2430 C   0  0  0  0  0  0  0  0  0  0  0  0
  139.0040   68.7570  224.5470 C   0  0  0  0  0  0  0  0  0  0  0  0
  139.3470   70.0190  224.9520 C   0  0  0  0  0  0  0  0  0  0  0  0
  139.8710   70.2520  226.2090 C   0  0  0  0  0  0  0  0  0  0  0  0
  140.0640   69.2220  227.0900 C   0  0  0  0  0  0  0  0  0  0  0  0
  139.7140   67.9540  226.6720 C   0  0  0  0  0  0  0  0  0  0  0  0
  139.2080   67.7600  225.4490 N   0  0  0  0  0  0  0  0  0  0  0  0
  136.4060   71.0330  223.1460 N   0  0  0  0  0  0  0  0  0  0  0  0
  137.1320   71.4400  221.9660 C   0  0  0  0  0  0  0  0  0  0  0  0
  138.3310   72.2840  222.2120 C   0  0  0  0  0  0  0  0  0  0  0  0
  139.6470   71.7130  221.8130 C   0  0  0  0  0  0  0  0  0  0  0  0
  140.8030   72.6210  222.1860 C   0  0  0  0  0  0  0  0  0  0  0  0
  140.3730   74.0010  222.2970 N   0  0  0  0  0  0  0  0  0  0  0  0
  139.3810   74.3430  221.3000 C   0  0  0  0  0  0  0  0  0  0  0  0
  138.0830   73.6420  221.5460 C   0  0  0  0  0  0  0  0  0  0  0  0
  135.4907   74.9331  226.5486 H   0  0  0  0  0  0  0  0  0  0  0  0
  134.8923   77.1422  225.7258 H   0  0  0  0  0  0  0  0  0  0  0  0
  133.0298   77.3315  223.9428 H   0  0  0  0  0  0  0  0  0  0  0  0
  133.0761   72.8286  227.4181 H   0  0  0  0  0  0  0  0  0  0  0  0
  133.2215   70.5208  228.1437 H   0  0  0  0  0  0  0  0  0  0  0  0
  134.5122   68.8446  226.8430 H   0  0  0  0  0  0  0  0  0  0  0  0
  136.7403   68.1484  222.0556 H   0  0  0  0  0  0  0  0  0  0  0  0
  139.0987   67.9269  222.5162 H   0  0  0  0  0  0  0  0  0  0  0  0
  139.2025   70.8642  224.2630 H   0  0  0  0  0  0  0  0  0  0  0  0
  140.1363   71.2775  226.5055 H   0  0  0  0  0  0  0  0  0  0  0  0
  140.4818   69.3982  228.0922 H   0  0  0  0  0  0  0  0  0  0  0  0
  139.8520   67.0978  227.3487 H   0  0  0  0  0  0  0  0  0  0  0  0
  137.4593   70.5315  221.4392 H   0  0  0  0  0  0  0  0  0  0  0  0
  136.4376   72.0639  221.3842 H   0  0  0  0  0  0  0  0  0  0  0  0
  138.4372   72.3659  223.3038 H   0  0  0  0  0  0  0  0  0  0  0  0
  139.7804   70.7446  222.3173 H   0  0  0  0  0  0  0  0  0  0  0  0
  139.6474   71.5984  220.7190 H   0  0  0  0  0  0  0  0  0  0  0  0
  141.2172   72.2958  223.1518 H   0  0  0  0  0  0  0  0  0  0  0  0
  141.5647   72.5568  221.3950 H   0  0  0  0  0  0  0  0  0  0  0  0
  141.1470   74.6680  222.3510 H   0  0  0  0  0  0  0  0  0  0  0  0
  139.2097   75.4293  221.3259 H   0  0  0  0  0  0  0  0  0  0  0  0
  139.7602   74.0263  220.3172 H   0  0  0  0  0  0  0  0  0  0  0  0
  137.4556   74.2603  222.2048 H   0  0  0  0  0  0  0  0  0  0  0  0
  137.5744   73.4817  220.5839 H   0  0  0  0  0  0  0  0  0  0  0  0
  1  2  2  0
  2  3  1  0
  3  4  2  0
  4  5  1  0
  5  6  2  0
  6  7  1  0
  7  8  2  0
  8  9  1  0
  4 10  1  0
 10 11  2  0
 11 12  1  0
 12 13  2  0
 13 14  1  0
 14 15  2  0
 15 16  1  0
 16 17  2  0
 17 18  1  0
 18 19  2  0
 19 20  1  0
 20 21  2  0
 21 22  1  0
 22 23  2  0
 15 24  1  0
 24 25  1  0
 25 26  1  0
 26 27  1  0
 27 28  1  0
 28 29  1  0
 29 30  1  0
 30 31  1  0
 24  2  1  0
 31 26  1  0
 13  3  1  0
 23 18  1  0
  9  5  1  0
  6 32  1  0
  7 33  1  0
  8 34  1  0
 10 35  1  0
 11 36  1  0
 12 37  1  0
 16 38  1  0
 17 39  1  0
 19 40  1  0
 20 41  1  0
 21 42  1  0
 22 43  1  0
 25 44  1  0
 25 45  1  0
 26 46  1  0
 27 47  1  0
 27 48  1  0
 28 49  1  0
 28 50  1  0
 29 51  1  0
 30 52  1  0
 30 53  1  0
 31 54  1  0
 31 55  1  0
M  END
>  <smiles>  (22) 
O=c1c2c(-c3cccs3)cccc2nc(/C=C/c2ccccn2)n1CC1CCNCC1

>  <score_type>  (22) 
oracle

>  <origin>  (22) 
autodockgpu

>  <m_score__min__energy>  (22) 
-7.7699999999999996

>  <m_primary>  (22) 
energy

>  <rmsd>  (22) 
5.697157980478096

>  <m_score__min__rmsd>  (22) 
5.697157980478096

>  <meeko>  (22) 
{"free_energy": -7.19, "intermolecular_energy": -8.98, "internal_energy": -2.29, "cluster_size": 10, "cluster_id": 4, "rank_in_cluster": 4}

>  <energy>  (22) 
-7.64

>  <cluster_rmsd>  (22) 
0.79

>  <cluster>  (22) 
2

$$$$

     RDKit          3D

 55 59  0  0  0  0  0  0  0  0999 V2000
  135.5730   73.3660  223.4100 O   0  0  0  0  0  0  0  0  0  0  0  0
  135.6150   72.1990  223.8250 C   0  0  0  0  0  0  0  0  0  0  0  0
  134.9810   71.7950  224.9630 C   0  0  0  0  0  0  0  0  0  0  0  0
  134.2670   72.6760  225.7290 C   0  0  0  0  0  0  0  0  0  0  0  0
  133.9410   74.0200  225.4570 C   0  0  0  0  0  0  0  0  0  0  0  0
  134.6930   75.1220  225.8520 C   0  0  0  0  0  0  0  0  0  0  0  0
  134.2810   76.3340  225.4930 C   0  0  0  0  0  0  0  0  0  0  0  0
  133.1600   76.4990  224.7610 C   0  0  0  0  0  0  0  0  0  0  0  0
  132.6010   74.7930  224.5360 S   0  0  0  0  0  0  0  0  0  0  0  0
  133.7010   72.1070  226.8900 C   0  0  0  0  0  0  0  0  0  0  0  0
  133.8450   70.7940  227.2270 C   0  0  0  0  0  0  0  0  0  0  0  0
  134.5620   69.9300  226.4430 C   0  0  0  0  0  0  0  0  0  0  0  0
  135.1310   70.4480  225.3030 C   0  0  0  0  0  0  0  0  0  0  0  0
  135.8520   69.6390  224.5380 N   0  0  0  0  0  0  0  0  0  0  0  0
  136.4740   70.0380  223.4160 C   0  0  0  0  0  0  0  0  0  0  0  0
  137.2250   69.0560  222.6490 C   0  0  0  0  0  0  0  0  0  0  0  0
  138.1120   68.2920  223.2550 C   0  0  0  0  0  0  0  0  0  0  0  0
  138.8750   68.6950  224.4260 C   0  0  0  0  0  0  0  0  0  0  0  0
  139.3080   69.9710  224.6660 C   0  0  0  0  0  0  0  0  0  0  0  0
  140.0290   70.2830  225.8040 C   0  0  0  0  0  0  0  0  0  0  0  0
  140.3300   69.3190  226.7280 C   0  0  0  0  0  0  0  0  0  0  0  0
  139.8880   68.0360  226.4770 C   0  0  0  0  0  0  0  0  0  0  0  0
  139.1920   67.7660  225.3660 N   0  0  0  0  0  0  0  0  0  0  0  0
  136.3440   71.3270  223.0750 N   0  0  0  0  0  0  0  0  0  0  0  0
  137.0070   71.8250  221.8930 C   0  0  0  0  0  0  0  0  0  0  0  0
  138.2800   72.5550  222.1340 C   0  0  0  0  0  0  0  0  0  0  0  0
  139.5250   71.9220  221.6170 C   0  0  0  0  0  0  0  0  0  0  0  0
  140.7660   72.7080  221.9920 C   0  0  0  0  0  0  0  0  0  0  0  0
  140.4530   74.1020  222.2340 N   0  0  0  0  0  0  0  0  0  0  0  0
  139.4410   74.5980  221.3260 C   0  0  0  0  0  0  0  0  0  0  0  0
  138.1060   73.9770  221.5910 C   0  0  0  0  0  0  0  0  0  0  0  0
  135.6084   74.9933  226.4483 H   0  0  0  0  0  0  0  0  0  0  0  0
  134.8634   77.2161  225.7976 H   0  0  0  0  0  0  0  0  0  0  0  0
  132.7035   77.4305  224.3952 H   0  0  0  0  0  0  0  0  0  0  0  0
  133.1140   72.7559  227.5566 H   0  0  0  0  0  0  0  0  0  0  0  0
  133.3751   70.4204  228.1487 H   0  0  0  0  0  0  0  0  0  0  0  0
  134.6776   68.8699  226.7127 H   0  0  0  0  0  0  0  0  0  0  0  0
  137.0533   68.9514  221.5675 H   0  0  0  0  0  0  0  0  0  0  0  0
  138.2864   67.2847  222.8489 H   0  0  0  0  0  0  0  0  0  0  0  0
  139.0779   70.7640  223.9393 H   0  0  0  0  0  0  0  0  0  0  0  0
  140.3645   71.3176  225.9686 H   0  0  0  0  0  0  0  0  0  0  0  0
  140.9026   69.5580  227.6363 H   0  0  0  0  0  0  0  0  0  0  0  0
  140.1088   67.2312  227.1936 H   0  0  0  0  0  0  0  0  0  0  0  0
  137.2263   70.9671  221.2404 H   0  0  0  0  0  0  0  0  0  0  0  0
  136.3185   72.5570  221.4457 H   0  0  0  0  0  0  0  0  0  0  0  0
  138.4482   72.5396  223.2210 H   0  0  0  0  0  0  0  0  0  0  0  0
  139.6075   70.9085  222.0365 H   0  0  0  0  0  0  0  0  0  0  0  0
  139.4602   71.8971  220.5192 H   0  0  0  0  0  0  0  0  0  0  0  0
  141.2023   72.2751  222.9043 H   0  0  0  0  0  0  0  0  0  0  0  0
  141.4783   72.6521  221.1557 H   0  0  0  0  0  0  0  0  0  0  0  0
  141.2790   74.7040  222.2950 H   0  0  0  0  0  0  0  0  0  0  0  0
  139.3572   75.6881  221.4470 H   0  0  0  0  0  0  0  0  0  0  0  0
  139.7428   74.3366  220.3010 H   0  0  0  0  0  0  0  0  0  0  0  0
  137.5637   74.5842  222.3307 H   0  0  0  0  0  0  0  0  0  0  0  0
  137.5380   73.9339  220.6500 H   0  0  0  0  0  0  0  0  0  0  0  0
  1  2  2  0
  2  3  1  0
  3  4  2  0
  4  5  1  0
  5  6  2  0
  6  7  1  0
  7  8  2  0
  8  9  1  0
  4 10  1  0
 10 11  2  0
 11 12  1  0
 12 13  2  0
 13 14  1  0
 14 15  2  0
 15 16  1  0
 16 17  2  0
 17 18  1  0
 18 19  2  0
 19 20  1  0
 20 21  2  0
 21 22  1  0
 22 23  2  0
 15 24  1  0
 24 25  1  0
 25 26  1  0
 26 27  1  0
 27 28  1  0
 28 29  1  0
 29 30  1  0
 30 31  1  0
 24  2  1  0
 31 26  1  0
 13  3  1  0
 23 18  1  0
  9  5  1  0
  6 32  1  0
  7 33  1  0
  8 34  1  0
 10 35  1  0
 11 36  1  0
 12 37  1  0
 16 38  1  0
 17 39  1  0
 19 40  1  0
 20 41  1  0
 21 42  1  0
 22 43  1  0
 25 44  1  0
 25 45  1  0
 26 46  1  0
 27 47  1  0
 27 48  1  0
 28 49  1  0
 28 50  1  0
 29 51  1  0
 30 52  1  0
 30 53  1  0
 31 54  1  0
 31 55  1  0
M  END
>  <smiles>  (23) 
O=c1c2c(-c3cccs3)cccc2nc(/C=C/c2ccccn2)n1CC1CCNCC1

>  <score_type>  (23) 
oracle

>  <origin>  (23) 
autodockgpu

>  <m_score__min__energy>  (23) 
-7.7699999999999996

>  <m_primary>  (23) 
energy

>  <rmsd>  (23) 
5.665007657558751

>  <m_score__min__rmsd>  (23) 
5.665007657558751

>  <meeko>  (23) 
{"free_energy": -7.08, "intermolecular_energy": -8.87, "internal_energy": -2.21, "cluster_size": 10, "cluster_id": 4, "rank_in_cluster": 9}

>  <energy>  (23) 
-7.54

>  <cluster_rmsd>  (23) 
0.9

>  <cluster>  (23) 
2

$$$$

     RDKit          3D

 55 59  0  0  0  0  0  0  0  0999 V2000
  135.6720   73.1400  223.3430 O   0  0  0  0  0  0  0  0  0  0  0  0
  135.6420   72.0130  223.8570 C   0  0  0  0  0  0  0  0  0  0  0  0
  134.9420   71.7380  224.9940 C   0  0  0  0  0  0  0  0  0  0  0  0
  134.2360   72.7110  225.6480 C   0  0  0  0  0  0  0  0  0  0  0  0
  133.9840   74.0390  225.2470 C   0  0  0  0  0  0  0  0  0  0  0  0
  134.6290   75.1630  225.7520 C   0  0  0  0  0  0  0  0  0  0  0  0
  134.3130   76.3540  225.2530 C   0  0  0  0  0  0  0  0  0  0  0  0
  133.3880   76.4760  224.2780 C   0  0  0  0  0  0  0  0  0  0  0  0
  132.8910   74.7580  224.0100 S   0  0  0  0  0  0  0  0  0  0  0  0
  133.5940   72.2700  226.8250 C   0  0  0  0  0  0  0  0  0  0  0  0
  133.6630   70.9860  227.2790 C   0  0  0  0  0  0  0  0  0  0  0  0
  134.3740   70.0280  226.6060 C   0  0  0  0  0  0  0  0  0  0  0  0
  135.0150   70.4200  225.4540 C   0  0  0  0  0  0  0  0  0  0  0  0
  135.7300   69.5180  224.7970 N   0  0  0  0  0  0  0  0  0  0  0  0
  136.4180   69.7910  223.6750 C   0  0  0  0  0  0  0  0  0  0  0  0
  137.1560   68.7150  223.0310 C   0  0  0  0  0  0  0  0  0  0  0  0
  138.4310   68.5340  223.3160 C   0  0  0  0  0  0  0  0  0  0  0  0
  139.0180   68.7720  224.6250 C   0  0  0  0  0  0  0  0  0  0  0  0
  139.4140   69.9990  225.0850 C   0  0  0  0  0  0  0  0  0  0  0  0
  139.9640   70.1510  226.3440 C   0  0  0  0  0  0  0  0  0  0  0  0
  140.1290   69.0730  227.1710 C   0  0  0  0  0  0  0  0  0  0  0  0
  139.7250   67.8400  226.6980 C   0  0  0  0  0  0  0  0  0  0  0  0
  139.1960   67.7260  225.4750 N   0  0  0  0  0  0  0  0  0  0  0  0
  136.3620   71.0500  223.2200 N   0  0  0  0  0  0  0  0  0  0  0  0
  137.0990   71.4140  222.0320 C   0  0  0  0  0  0  0  0  0  0  0  0
  138.2960   72.2660  222.2590 C   0  0  0  0  0  0  0  0  0  0  0  0
  139.6120   71.6900  221.8680 C   0  0  0  0  0  0  0  0  0  0  0  0
  140.7670   72.6070  222.2200 C   0  0  0  0  0  0  0  0  0  0  0  0
  140.3350   73.9880  222.3070 N   0  0  0  0  0  0  0  0  0  0  0  0
  139.3400   74.3100  221.3070 C   0  0  0  0  0  0  0  0  0  0  0  0
  138.0430   73.6110  221.5690 C   0  0  0  0  0  0  0  0  0  0  0  0
  135.3838   75.0686  226.5466 H   0  0  0  0  0  0  0  0  0  0  0  0
  134.8131   77.2537  225.6408 H   0  0  0  0  0  0  0  0  0  0  0  0
  133.0288   77.3862  223.7756 H   0  0  0  0  0  0  0  0  0  0  0  0
  133.0086   72.9985  227.4052 H   0  0  0  0  0  0  0  0  0  0  0  0
  133.1364   70.7137  228.2056 H   0  0  0  0  0  0  0  0  0  0  0  0
  134.4298   68.9917  226.9705 H   0  0  0  0  0  0  0  0  0  0  0  0
  136.6525   68.0550  222.3092 H   0  0  0  0  0  0  0  0  0  0  0  0
  139.0929   68.1803  222.5118 H   0  0  0  0  0  0  0  0  0  0  0  0
  139.2921   70.8816  224.4399 H   0  0  0  0  0  0  0  0  0  0  0  0
  140.2727   71.1501  226.6852 H   0  0  0  0  0  0  0  0  0  0  0  0
  140.5666   69.1844  228.1740 H   0  0  0  0  0  0  0  0  0  0  0  0
  139.8389   66.9472  227.3304 H   0  0  0  0  0  0  0  0  0  0  0  0
  137.4306   70.4871  221.5413 H   0  0  0  0  0  0  0  0  0  0  0  0
  136.4103   72.0162  221.4213 H   0  0  0  0  0  0  0  0  0  0  0  0
  138.4046   72.3698  223.3487 H   0  0  0  0  0  0  0  0  0  0  0  0
  139.7485   70.7319  222.3909 H   0  0  0  0  0  0  0  0  0  0  0  0
  139.6098   71.5542  220.7764 H   0  0  0  0  0  0  0  0  0  0  0  0
  141.1851   72.3005  223.1902 H   0  0  0  0  0  0  0  0  0  0  0  0
  141.5259   72.5297  221.4275 H   0  0  0  0  0  0  0  0  0  0  0  0
  141.1080   74.6580  222.3460 H   0  0  0  0  0  0  0  0  0  0  0  0
  139.1668   75.3963  221.3137 H   0  0  0  0  0  0  0  0  0  0  0  0
  139.7172   73.9761  220.3291 H   0  0  0  0  0  0  0  0  0  0  0  0
  137.4160   74.2400  222.2180 H   0  0  0  0  0  0  0  0  0  0  0  0
  137.5319   73.4324  220.6115 H   0  0  0  0  0  0  0  0  0  0  0  0
  1  2  2  0
  2  3  1  0
  3  4  2  0
  4  5  1  0
  5  6  2  0
  6  7  1  0
  7  8  2  0
  8  9  1  0
  4 10  1  0
 10 11  2  0
 11 12  1  0
 12 13  2  0
 13 14  1  0
 14 15  2  0
 15 16  1  0
 16 17  2  0
 17 18  1  0
 18 19  2  0
 19 20  1  0
 20 21  2  0
 21 22  1  0
 22 23  2  0
 15 24  1  0
 24 25  1  0
 25 26  1  0
 26 27  1  0
 27 28  1  0
 28 29  1  0
 29 30  1  0
 30 31  1  0
 24  2  1  0
 31 26  1  0
 13  3  1  0
 23 18  1  0
  9  5  1  0
  6 32  1  0
  7 33  1  0
  8 34  1  0
 10 35  1  0
 11 36  1  0
 12 37  1  0
 16 38  1  0
 17 39  1  0
 19 40  1  0
 20 41  1  0
 21 42  1  0
 22 43  1  0
 25 44  1  0
 25 45  1  0
 26 46  1  0
 27 47  1  0
 27 48  1  0
 28 49  1  0
 28 50  1  0
 29 51  1  0
 30 52  1  0
 30 53  1  0
 31 54  1  0
 31 55  1  0
M  END
>  <smiles>  (24) 
O=c1c2c(-c3cccs3)cccc2nc(/C=C/c2ccccn2)n1CC1CCNCC1

>  <score_type>  (24) 
oracle

>  <origin>  (24) 
autodockgpu

>  <m_score__min__energy>  (24) 
-7.7699999999999996

>  <m_primary>  (24) 
energy

>  <rmsd>  (24) 
5.800329618331887

>  <m_score__min__rmsd>  (24) 
5.800329618331887

>  <meeko>  (24) 
{"free_energy": -7.3, "intermolecular_energy": -9.09, "internal_energy": -2.24, "cluster_size": 10, "cluster_id": 4, "rank_in_cluster": 3}

>  <energy>  (24) 
-7.41

>  <cluster_rmsd>  (24) 
0.0

>  <cluster>  (24) 
3

$$$$

     RDKit          3D

 55 59  0  0  0  0  0  0  0  0999 V2000
  136.9700   69.8130  225.2290 O   0  0  0  0  0  0  0  0  0  0  0  0
  137.1100   70.5760  224.2640 C   0  0  0  0  0  0  0  0  0  0  0  0
  138.3290   71.0280  223.8500 C   0  0  0  0  0  0  0  0  0  0  0  0
  139.4780   70.6690  224.5010 C   0  0  0  0  0  0  0  0  0  0  0  0
  139.6480   69.7340  225.5410 C   0  0  0  0  0  0  0  0  0  0  0  0
  139.6230   68.3510  225.3880 C   0  0  0  0  0  0  0  0  0  0  0  0
  139.8340   67.5900  226.4560 C   0  0  0  0  0  0  0  0  0  0  0  0
  140.0700   68.1390  227.6660 C   0  0  0  0  0  0  0  0  0  0  0  0
  139.9930   69.9090  227.3000 S   0  0  0  0  0  0  0  0  0  0  0  0
  140.6500   71.2480  223.9690 C   0  0  0  0  0  0  0  0  0  0  0  0
  140.6490   72.0910  222.8970 C   0  0  0  0  0  0  0  0  0  0  0  0
  139.4860   72.4340  222.2600 C   0  0  0  0  0  0  0  0  0  0  0  0
  138.3220   71.8900  222.7510 C   0  0  0  0  0  0  0  0  0  0  0  0
  137.1790   72.2250  222.1670 N   0  0  0  0  0  0  0  0  0  0  0  0
  135.9790   71.7770  222.5750 C   0  0  0  0  0  0  0  0  0  0  0  0
  134.7930   72.2010  221.8470 C   0  0  0  0  0  0  0  0  0  0  0  0
  134.3260   73.4230  222.0110 C   0  0  0  0  0  0  0  0  0  0  0  0
  134.3470   74.1440  223.2750 C   0  0  0  0  0  0  0  0  0  0  0  0
  135.4870   74.5500  223.9150 C   0  0  0  0  0  0  0  0  0  0  0  0
  135.4310   75.2330  225.1160 C   0  0  0  0  0  0  0  0  0  0  0  0
  134.2280   75.5230  225.7010 C   0  0  0  0  0  0  0  0  0  0  0  0
  133.0850   75.1090  225.0470 C   0  0  0  0  0  0  0  0  0  0  0  0
  133.1720   74.4510  223.8850 N   0  0  0  0  0  0  0  0  0  0  0  0
  135.9660   70.9510  223.6300 N   0  0  0  0  0  0  0  0  0  0  0  0
  134.7070   70.4530  224.1320 C   0  0  0  0  0  0  0  0  0  0  0  0
  134.0450   71.3050  225.1560 C   0  0  0  0  0  0  0  0  0  0  0  0
  132.5590   71.3860  225.1020 C   0  0  0  0  0  0  0  0  0  0  0  0
  132.0000   72.3450  226.1350 C   0  0  0  0  0  0  0  0  0  0  0  0
  132.9090   72.5040  227.2530 N   0  0  0  0  0  0  0  0  0  0  0  0
  133.5710   71.2640  227.5940 C   0  0  0  0  0  0  0  0  0  0  0  0
  134.5330   70.8370  226.5310 C   0  0  0  0  0  0  0  0  0  0  0  0
  139.4326   67.8979  224.4039 H   0  0  0  0  0  0  0  0  0  0  0  0
  139.8161   66.4950  226.3526 H   0  0  0  0  0  0  0  0  0  0  0  0
  140.2602   67.6391  228.6272 H   0  0  0  0  0  0  0  0  0  0  0  0
  141.6130   71.0071  224.4430 H   0  0  0  0  0  0  0  0  0  0  0  0
  141.6025   72.5043  222.5363 H   0  0  0  0  0  0  0  0  0  0  0  0
  139.4830   73.1136  221.3951 H   0  0  0  0  0  0  0  0  0  0  0  0
  134.2875   71.5044  221.1620 H   0  0  0  0  0  0  0  0  0  0  0  0
  133.8927   73.9301  221.1363 H   0  0  0  0  0  0  0  0  0  0  0  0
  136.4662   74.3287  223.4653 H   0  0  0  0  0  0  0  0  0  0  0  0
  136.3640   75.5469  225.6069 H   0  0  0  0  0  0  0  0  0  0  0  0
  134.1741   76.0656  226.6564 H   0  0  0  0  0  0  0  0  0  0  0  0
  132.0977   75.3210  225.4832 H   0  0  0  0  0  0  0  0  0  0  0  0
  134.0189   70.3504  223.2799 H   0  0  0  0  0  0  0  0  0  0  0  0
  134.9364   69.5010  224.6330 H   0  0  0  0  0  0  0  0  0  0  0  0
  134.3400   72.3422  224.9386 H   0  0  0  0  0  0  0  0  0  0  0  0
  132.2590   71.7293  224.1009 H   0  0  0  0  0  0  0  0  0  0  0  0
  132.1580   70.3848  225.3186 H   0  0  0  0  0  0  0  0  0  0  0  0
  131.8377   73.3253  225.6630 H   0  0  0  0  0  0  0  0  0  0  0  0
  131.0527   71.9336  226.5137 H   0  0  0  0  0  0  0  0  0  0  0  0
  132.4910   72.9810  228.0560 H   0  0  0  0  0  0  0  0  0  0  0  0
  134.1204   71.4014  228.5370 H   0  0  0  0  0  0  0  0  0  0  0  0
  132.8031   70.4828  227.6938 H   0  0  0  0  0  0  0  0  0  0  0  0
  135.5198   71.2779  226.7357 H   0  0  0  0  0  0  0  0  0  0  0  0
  134.6044   69.7393  226.5318 H   0  0  0  0  0  0  0  0  0  0  0  0
  1  2  2  0
  2  3  1  0
  3  4  2  0
  4  5  1  0
  5  6  2  0
  6  7  1  0
  7  8  2  0
  8  9  1  0
  4 10  1  0
 10 11  2  0
 11 12  1  0
 12 13  2  0
 13 14  1  0
 14 15  2  0
 15 16  1  0
 16 17  2  0
 17 18  1  0
 18 19  2  0
 19 20  1  0
 20 21  2  0
 21 22  1  0
 22 23  2  0
 15 24  1  0
 24 25  1  0
 25 26  1  0
 26 27  1  0
 27 28  1  0
 28 29  1  0
 29 30  1  0
 30 31  1  0
 24  2  1  0
 31 26  1  0
 13  3  1  0
 23 18  1  0
  9  5  1  0
  6 32  1  0
  7 33  1  0
  8 34  1  0
 10 35  1  0
 11 36  1  0
 12 37  1  0
 16 38  1  0
 17 39  1  0
 19 40  1  0
 20 41  1  0
 21 42  1  0
 22 43  1  0
 25 44  1  0
 25 45  1  0
 26 46  1  0
 27 47  1  0
 27 48  1  0
 28 49  1  0
 28 50  1  0
 29 51  1  0
 30 52  1  0
 30 53  1  0
 31 54  1  0
 31 55  1  0
M  END
>  <smiles>  (25) 
O=c1c2c(-c3cccs3)cccc2nc(/C=C/c2ccccn2)n1CC1CCNCC1

>  <score_type>  (25) 
oracle

>  <origin>  (25) 
autodockgpu

>  <m_score__min__energy>  (25) 
-7.7699999999999996

>  <m_primary>  (25) 
energy

>  <rmsd>  (25) 
4.634174878835323

>  <m_score__min__rmsd>  (25) 
4.634174878835323

>  <meeko>  (25) 
{"free_energy": -6.62, "intermolecular_energy": -8.41, "internal_energy": -2.58, "cluster_size": 4, "cluster_id": 6, "rank_in_cluster": 2}

>  <energy>  (25) 
-7.41

>  <cluster_rmsd>  (25) 
0.06

>  <cluster>  (25) 
3

$$$$

     RDKit          3D

 55 59  0  0  0  0  0  0  0  0999 V2000
  142.9510   75.7570  220.3450 O   0  0  0  0  0  0  0  0  0  0  0  0
  141.8620   75.5340  220.8920 C   0  0  0  0  0  0  0  0  0  0  0  0
  141.4460   74.2790  221.2280 C   0  0  0  0  0  0  0  0  0  0  0  0
  142.2160   73.1800  220.9580 C   0  0  0  0  0  0  0  0  0  0  0  0
  143.5330   73.1250  220.4610 C   0  0  0  0  0  0  0  0  0  0  0  0
  144.6820   73.3780  221.2040 C   0  0  0  0  0  0  0  0  0  0  0  0
  145.8630   73.2530  220.6090 C   0  0  0  0  0  0  0  0  0  0  0  0
  145.9550   72.8890  219.3130 C   0  0  0  0  0  0  0  0  0  0  0  0
  144.2160   72.6940  218.8520 S   0  0  0  0  0  0  0  0  0  0  0  0
  141.6280   71.9540  221.3380 C   0  0  0  0  0  0  0  0  0  0  0  0
  140.4020   71.8630  221.9270 C   0  0  0  0  0  0  0  0  0  0  0  0
  139.6510   72.9770  222.1900 C   0  0  0  0  0  0  0  0  0  0  0  0
  140.1900   74.1910  221.8320 C   0  0  0  0  0  0  0  0  0  0  0  0
  139.4730   75.2850  222.0530 N   0  0  0  0  0  0  0  0  0  0  0  0
  139.8850   76.5210  221.7240 C   0  0  0  0  0  0  0  0  0  0  0  0
  139.0180   77.6490  222.0290 C   0  0  0  0  0  0  0  0  0  0  0  0
  139.2540   78.3860  223.0970 C   0  0  0  0  0  0  0  0  0  0  0  0
  140.3550   79.3300  223.2120 C   0  0  0  0  0  0  0  0  0  0  0  0
  141.5500   79.0540  223.8200 C   0  0  0  0  0  0  0  0  0  0  0  0
  142.5550   80.0020  223.8900 C   0  0  0  0  0  0  0  0  0  0  0  0
  142.3810   81.2490  223.3520 C   0  0  0  0  0  0  0  0  0  0  0  0
  141.1720   81.5150  222.7410 C   0  0  0  0  0  0  0  0  0  0  0  0
  140.2200   80.5770  222.6880 N   0  0  0  0  0  0  0  0  0  0  0  0
  141.0870   76.6250  221.1410 N   0  0  0  0  0  0  0  0  0  0  0  0
  141.5770   77.9230  220.7410 C   0  0  0  0  0  0  0  0  0  0  0  0
  141.3020   78.3030  219.3300 C   0  0  0  0  0  0  0  0  0  0  0  0
  140.9360   79.7240  219.0770 C   0  0  0  0  0  0  0  0  0  0  0  0
  140.5960   79.9790  217.6220 C   0  0  0  0  0  0  0  0  0  0  0  0
  141.2280   79.0040  216.7550 N   0  0  0  0  0  0  0  0  0  0  0  0
  142.5550   78.6510  217.2120 C   0  0  0  0  0  0  0  0  0  0  0  0
  142.5130   77.8770  218.4930 C   0  0  0  0  0  0  0  0  0  0  0  0
  144.6138   73.6750  222.2609 H   0  0  0  0  0  0  0  0  0  0  0  0
  146.7811   73.4495  221.1822 H   0  0  0  0  0  0  0  0  0  0  0  0
  146.8546   72.7474  218.6961 H   0  0  0  0  0  0  0  0  0  0  0  0
  142.1872   71.0257  221.1493 H   0  0  0  0  0  0  0  0  0  0  0  0
  140.0073   70.8724  222.1970 H   0  0  0  0  0  0  0  0  0  0  0  0
  138.6619   72.9047  222.6658 H   0  0  0  0  0  0  0  0  0  0  0  0
  138.1688   77.8862  221.3713 H   0  0  0  0  0  0  0  0  0  0  0  0
  138.5749   78.2801  223.9558 H   0  0  0  0  0  0  0  0  0  0  0  0
  141.7142   78.0598  224.2612 H   0  0  0  0  0  0  0  0  0  0  0  0
  143.5053   79.7510  224.3838 H   0  0  0  0  0  0  0  0  0  0  0  0
  143.1740   82.0095  223.4046 H   0  0  0  0  0  0  0  0  0  0  0  0
  140.9905   82.5041  222.2951 H   0  0  0  0  0  0  0  0  0  0  0  0
  141.1107   78.6769  221.3923 H   0  0  0  0  0  0  0  0  0  0  0  0
  142.6720   77.8745  220.8332 H   0  0  0  0  0  0  0  0  0  0  0  0
  140.3837   77.7732  219.0368 H   0  0  0  0  0  0  0  0  0  0  0  0
  140.0625   79.9799  219.6947 H   0  0  0  0  0  0  0  0  0  0  0  0
  141.8055   80.3469  219.3341 H   0  0  0  0  0  0  0  0  0  0  0  0
  139.5052   79.9194  217.4931 H   0  0  0  0  0  0  0  0  0  0  0  0
  140.9660   80.9782  217.3488 H   0  0  0  0  0  0  0  0  0  0  0  0
  141.1890   79.2510  215.7630 H   0  0  0  0  0  0  0  0  0  0  0  0
  143.0459   78.0384  216.4415 H   0  0  0  0  0  0  0  0  0  0  0  0
  143.1139   79.5812  217.3921 H   0  0  0  0  0  0  0  0  0  0  0  0
  142.4383   76.8032  218.2663 H   0  0  0  0  0  0  0  0  0  0  0  0
  143.4318   78.0776  219.0636 H   0  0  0  0  0  0  0  0  0  0  0  0
  1  2  2  0
  2  3  1  0
  3  4  2  0
  4  5  1  0
  5  6  2  0
  6  7  1  0
  7  8  2  0
  8  9  1  0
  4 10  1  0
 10 11  2  0
 11 12  1  0
 12 13  2  0
 13 14  1  0
 14 15  2  0
 15 16  1  0
 16 17  2  0
 17 18  1  0
 18 19  2  0
 19 20  1  0
 20 21  2  0
 21 22  1  0
 22 23  2  0
 15 24  1  0
 24 25  1  0
 25 26  1  0
 26 27  1  0
 27 28  1  0
 28 29  1  0
 29 30  1  0
 30 31  1  0
 24  2  1  0
 31 26  1  0
 13  3  1  0
 23 18  1  0
  9  5  1  0
  6 32  1  0
  7 33  1  0
  8 34  1  0
 10 35  1  0
 11 36  1  0
 12 37  1  0
 16 38  1  0
 17 39  1  0
 19 40  1  0
 20 41  1  0
 21 42  1  0
 22 43  1  0
 25 44  1  0
 25 45  1  0
 26 46  1  0
 27 47  1  0
 27 48  1  0
 28 49  1  0
 28 50  1  0
 29 51  1  0
 30 52  1  0
 30 53  1  0
 31 54  1  0
 31 55  1  0
M  END
>  <smiles>  (26) 
O=c1c2c(-c3cccs3)cccc2nc(/C=C/c2ccccn2)n1CC1CCNCC1

>  <score_type>  (26) 
oracle

>  <origin>  (26) 
autodockgpu

>  <m_score__min__energy>  (26) 
-7.7699999999999996

>  <m_primary>  (26) 
energy

>  <rmsd>  (26) 
6.136784505280311

>  <m_score__min__rmsd>  (26) 
6.136784505280311

>  <meeko>  (26) 
{"free_energy": -7.29, "intermolecular_energy": -9.08, "internal_energy": -2.0, "cluster_size": 20, "cluster_id": 1, "rank_in_cluster": 17}

>  <energy>  (26) 
-7.36

>  <cluster_rmsd>  (26) 
0.48

>  <cluster>  (26) 
3

$$$$

     RDKit          3D

 55 59  0  0  0  0  0  0  0  0999 V2000
  143.1780   75.9700  220.1580 O   0  0  0  0  0  0  0  0  0  0  0  0
  142.0680   75.7470  220.6630 C   0  0  0  0  0  0  0  0  0  0  0  0
  141.6650   74.5000  221.0400 C   0  0  0  0  0  0  0  0  0  0  0  0
  142.4700   73.4090  220.8620 C   0  0  0  0  0  0  0  0  0  0  0  0
  143.8120   73.3620  220.4320 C   0  0  0  0  0  0  0  0  0  0  0  0
  144.9170   73.6710  221.2180 C   0  0  0  0  0  0  0  0  0  0  0  0
  146.1290   73.5480  220.6870 C   0  0  0  0  0  0  0  0  0  0  0  0
  146.2920   73.1320  219.4140 C   0  0  0  0  0  0  0  0  0  0  0  0
  144.5820   72.8790  218.8770 S   0  0  0  0  0  0  0  0  0  0  0  0
  141.8920   72.1880  221.2730 C   0  0  0  0  0  0  0  0  0  0  0  0
  140.6410   72.0950  221.8060 C   0  0  0  0  0  0  0  0  0  0  0  0
  139.8530   73.2020  221.9770 C   0  0  0  0  0  0  0  0  0  0  0  0
  140.3820   74.4110  221.5860 C   0  0  0  0  0  0  0  0  0  0  0  0
  139.6310   75.4960  221.7180 N   0  0  0  0  0  0  0  0  0  0  0  0
  140.0310   76.7240  221.3490 C   0  0  0  0  0  0  0  0  0  0  0  0
  139.1260   77.8440  221.5560 C   0  0  0  0  0  0  0  0  0  0  0  0
  139.1840   78.5340  222.6790 C   0  0  0  0  0  0  0  0  0  0  0  0
  140.3140   79.3620  223.0720 C   0  0  0  0  0  0  0  0  0  0  0  0
  140.3060   80.7300  223.0750 C   0  0  0  0  0  0  0  0  0  0  0  0
  141.4190   81.4530  223.4630 C   0  0  0  0  0  0  0  0  0  0  0  0
  142.5660   80.8170  223.8570 C   0  0  0  0  0  0  0  0  0  0  0  0
  142.5620   79.4370  223.8510 C   0  0  0  0  0  0  0  0  0  0  0  0
  141.4690   78.7650  223.4700 N   0  0  0  0  0  0  0  0  0  0  0  0
  141.2580   76.8300  220.8200 N   0  0  0  0  0  0  0  0  0  0  0  0
  141.7390   78.1180  220.3800 C   0  0  0  0  0  0  0  0  0  0  0  0
  142.1010   78.2080  218.9410 C   0  0  0  0  0  0  0  0  0  0  0  0
  141.2120   77.4980  217.9800 C   0  0  0  0  0  0  0  0  0  0  0  0
  141.7220   77.5860  216.5550 C   0  0  0  0  0  0  0  0  0  0  0  0
  142.5670   78.7490  216.3690 N   0  0  0  0  0  0  0  0  0  0  0  0
  142.0880   79.8930  217.1150 C   0  0  0  0  0  0  0  0  0  0  0  0
  142.2340   79.6940  218.5910 C   0  0  0  0  0  0  0  0  0  0  0  0
  144.7905   74.0099  222.2568 H   0  0  0  0  0  0  0  0  0  0  0  0
  147.0134   73.7892  221.2951 H   0  0  0  0  0  0  0  0  0  0  0  0
  147.2238   72.9846  218.8483 H   0  0  0  0  0  0  0  0  0  0  0  0
  142.4806   71.2660  221.1572 H   0  0  0  0  0  0  0  0  0  0  0  0
  140.2558   71.1091  222.1054 H   0  0  0  0  0  0  0  0  0  0  0  0
  138.8433   73.1283  222.4072 H   0  0  0  0  0  0  0  0  0  0  0  0
  138.3959   78.1146  220.7790 H   0  0  0  0  0  0  0  0  0  0  0  0
  138.3232   78.4798  223.3617 H   0  0  0  0  0  0  0  0  0  0  0  0
  139.3970   81.2650  222.7628 H   0  0  0  0  0  0  0  0  0  0  0  0
  141.3826   82.5524  223.4551 H   0  0  0  0  0  0  0  0  0  0  0  0
  143.4562   81.3843  224.1663 H   0  0  0  0  0  0  0  0  0  0  0  0
  143.4622   78.8862  224.1611 H   0  0  0  0  0  0  0  0  0  0  0  0
  140.9514   78.8598  220.5785 H   0  0  0  0  0  0  0  0  0  0  0  0
  142.6696   78.2997  220.9377 H   0  0  0  0  0  0  0  0  0  0  0  0
  143.0495   77.6638  218.8223 H   0  0  0  0  0  0  0  0  0  0  0  0
  141.1516   76.4386  218.2697 H   0  0  0  0  0  0  0  0  0  0  0  0
  140.2238   77.9799  218.0151 H   0  0  0  0  0  0  0  0  0  0  0  0
  142.3030   76.6805  216.3258 H   0  0  0  0  0  0  0  0  0  0  0  0
  140.8569   77.6741  215.8814 H   0  0  0  0  0  0  0  0  0  0  0  0
  142.7690   78.9560  215.3870 H   0  0  0  0  0  0  0  0  0  0  0  0
  142.6657   80.7802  216.8164 H   0  0  0  0  0  0  0  0  0  0  0  0
  141.0189   80.0240  216.8915 H   0  0  0  0  0  0  0  0  0  0  0  0
  143.2227   80.0553  218.9102 H   0  0  0  0  0  0  0  0  0  0  0  0
  141.4431   80.2566  219.1087 H   0  0  0  0  0  0  0  0  0  0  0  0
  1  2  2  0
  2  3  1  0
  3  4  2  0
  4  5  1  0
  5  6  2  0
  6  7  1  0
  7  8  2  0
  8  9  1  0
  4 10  1  0
 10 11  2  0
 11 12  1  0
 12 13  2  0
 13 14  1  0
 14 15  2  0
 15 16  1  0
 16 17  2  0
 17 18  1  0
 18 19  2  0
 19 20  1  0
 20 21  2  0
 21 22  1  0
 22 23  2  0
 15 24  1  0
 24 25  1  0
 25 26  1  0
 26 27  1  0
 27 28  1  0
 28 29  1  0
 29 30  1  0
 30 31  1  0
 24  2  1  0
 31 26  1  0
 13  3  1  0
 23 18  1  0
  9  5  1  0
  6 32  1  0
  7 33  1  0
  8 34  1  0
 10 35  1  0
 11 36  1  0
 12 37  1  0
 16 38  1  0
 17 39  1  0
 19 40  1  0
 20 41  1  0
 21 42  1  0
 22 43  1  0
 25 44  1  0
 25 45  1  0
 26 46  1  0
 27 47  1  0
 27 48  1  0
 28 49  1  0
 28 50  1  0
 29 51  1  0
 30 52  1  0
 30 53  1  0
 31 54  1  0
 31 55  1  0
M  END
>  <smiles>  (27) 
O=c1c2c(-c3cccs3)cccc2nc(/C=C/c2ccccn2)n1CC1CCNCC1

>  <score_type>  (27) 
oracle

>  <origin>  (27) 
autodockgpu

>  <m_score__min__energy>  (27) 
-7.7699999999999996

>  <m_primary>  (27) 
energy

>  <rmsd>  (27) 
6.393211286801813

>  <m_score__min__rmsd>  (27) 
6.393211286801813

>  <meeko>  (27) 
{"free_energy": -7.2, "intermolecular_energy": -8.99, "internal_energy": -2.01, "cluster_size": 20, "cluster_id": 1, "rank_in_cluster": 19}

>  <energy>  (27) 
-7.26

>  <cluster_rmsd>  (27) 
0.41

>  <cluster>  (27) 
3

$$$$

     RDKit          3D

 55 59  0  0  0  0  0  0  0  0999 V2000
  143.0940   75.9660  220.3460 O   0  0  0  0  0  0  0  0  0  0  0  0
  142.0070   75.6520  220.8510 C   0  0  0  0  0  0  0  0  0  0  0  0
  141.6670   74.3600  221.1280 C   0  0  0  0  0  0  0  0  0  0  0  0
  142.5150   73.3250  220.8440 C   0  0  0  0  0  0  0  0  0  0  0  0
  143.8470   73.3750  220.3850 C   0  0  0  0  0  0  0  0  0  0  0  0
  144.9730   73.4350  221.2000 C   0  0  0  0  0  0  0  0  0  0  0  0
  146.1720   73.4420  220.6270 C   0  0  0  0  0  0  0  0  0  0  0  0
  146.3020   73.3910  219.2850 C   0  0  0  0  0  0  0  0  0  0  0  0
  144.5780   73.3270  218.7410 S   0  0  0  0  0  0  0  0  0  0  0  0
  142.0000   72.0500  221.1610 C   0  0  0  0  0  0  0  0  0  0  0  0
  140.7660   71.8560  221.7080 C   0  0  0  0  0  0  0  0  0  0  0  0
  139.9350   72.9080  221.9870 C   0  0  0  0  0  0  0  0  0  0  0  0
  140.4020   74.1680  221.6900 C   0  0  0  0  0  0  0  0  0  0  0  0
  139.6080   75.2030  221.9280 N   0  0  0  0  0  0  0  0  0  0  0  0
  139.9460   76.4750  221.6560 C   0  0  0  0  0  0  0  0  0  0  0  0
  138.9970   77.5310  221.9740 C   0  0  0  0  0  0  0  0  0  0  0  0
  139.1860   78.2790  223.0440 C   0  0  0  0  0  0  0  0  0  0  0  0
  140.2480   79.2640  223.1760 C   0  0  0  0  0  0  0  0  0  0  0  0
  141.4360   79.0400  223.8180 C   0  0  0  0  0  0  0  0  0  0  0  0
  142.4030   80.0240  223.9040 C   0  0  0  0  0  0  0  0  0  0  0  0
  142.1980   81.2580  223.3470 C   0  0  0  0  0  0  0  0  0  0  0  0
  140.9970   81.4730  222.7010 C   0  0  0  0  0  0  0  0  0  0  0  0
  140.0810   80.4990  222.6340 N   0  0  0  0  0  0  0  0  0  0  0  0
  141.1540   76.6790  221.1150 N   0  0  0  0  0  0  0  0  0  0  0  0
  141.5690   78.0210  220.7760 C   0  0  0  0  0  0  0  0  0  0  0  0
  142.0100   78.2180  219.3700 C   0  0  0  0  0  0  0  0  0  0  0  0
  141.1880   77.5690  218.3120 C   0  0  0  0  0  0  0  0  0  0  0  0
  141.7760   77.7650  216.9280 C   0  0  0  0  0  0  0  0  0  0  0  0
  142.6120   78.9480  216.8740 N   0  0  0  0  0  0  0  0  0  0  0  0
  142.0750   80.0300  217.6710 C   0  0  0  0  0  0  0  0  0  0  0  0
  142.1410   79.7260  219.1350 C   0  0  0  0  0  0  0  0  0  0  0  0
  144.8730   73.4757  222.2947 H   0  0  0  0  0  0  0  0  0  0  0  0
  147.0726   73.4901  221.2567 H   0  0  0  0  0  0  0  0  0  0  0  0
  147.2196   73.3889  218.6783 H   0  0  0  0  0  0  0  0  0  0  0  0
  142.6253   71.1684  220.9566 H   0  0  0  0  0  0  0  0  0  0  0  0
  140.4308   70.8321  221.9299 H   0  0  0  0  0  0  0  0  0  0  0  0
  138.9395   72.7530  222.4284 H   0  0  0  0  0  0  0  0  0  0  0  0
  138.1259   77.7048  221.3252 H   0  0  0  0  0  0  0  0  0  0  0  0
  138.4961   78.1495  223.8909 H   0  0  0  0  0  0  0  0  0  0  0  0
  141.6250   78.0573  224.2746 H   0  0  0  0  0  0  0  0  0  0  0  0
  143.3481   79.8133  224.4259 H   0  0  0  0  0  0  0  0  0  0  0  0
  142.9610   82.0477  223.4118 H   0  0  0  0  0  0  0  0  0  0  0  0
  140.7916   82.4499  222.2389 H   0  0  0  0  0  0  0  0  0  0  0  0
  140.7205   78.6956  220.9628 H   0  0  0  0  0  0  0  0  0  0  0  0
  142.4490   78.2323  221.4012 H   0  0  0  0  0  0  0  0  0  0  0  0
  142.9716   77.6939  219.2671 H   0  0  0  0  0  0  0  0  0  0  0  0
  141.1279   76.4909  218.5218 H   0  0  0  0  0  0  0  0  0  0  0  0
  140.1921   78.0358  218.3247 H   0  0  0  0  0  0  0  0  0  0  0  0
  142.3830   76.8851  216.6686 H   0  0  0  0  0  0  0  0  0  0  0  0
  140.9489   77.8913  216.2139 H   0  0  0  0  0  0  0  0  0  0  0  0
  142.8660   79.2270  215.9230 H   0  0  0  0  0  0  0  0  0  0  0  0
  142.6553   80.9426  217.4701 H   0  0  0  0  0  0  0  0  0  0  0  0
  141.0184   80.1658  217.3967 H   0  0  0  0  0  0  0  0  0  0  0  0
  143.1051   80.0734  219.5349 H   0  0  0  0  0  0  0  0  0  0  0  0
  141.3142   80.2414  219.6456 H   0  0  0  0  0  0  0  0  0  0  0  0
  1  2  2  0
  2  3  1  0
  3  4  2  0
  4  5  1  0
  5  6  2  0
  6  7  1  0
  7  8  2  0
  8  9  1  0
  4 10  1  0
 10 11  2  0
 11 12  1  0
 12 13  2  0
 13 14  1  0
 14 15  2  0
 15 16  1  0
 16 17  2  0
 17 18  1  0
 18 19  2  0
 19 20  1  0
 20 21  2  0
 21 22  1  0
 22 23  2  0
 15 24  1  0
 24 25  1  0
 25 26  1  0
 26 27  1  0
 27 28  1  0
 28 29  1  0
 29 30  1  0
 30 31  1  0
 24  2  1  0
 31 26  1  0
 13  3  1  0
 23 18  1  0
  9  5  1  0
  6 32  1  0
  7 33  1  0
  8 34  1  0
 10 35  1  0
 11 36  1  0
 12 37  1  0
 16 38  1  0
 17 39  1  0
 19 40  1  0
 20 41  1  0
 21 42  1  0
 22 43  1  0
 25 44  1  0
 25 45  1  0
 26 46  1  0
 27 47  1  0
 27 48  1  0
 28 49  1  0
 28 50  1  0
 29 51  1  0
 30 52  1  0
 30 53  1  0
 31 54  1  0
 31 55  1  0
M  END
>  <smiles>  (28) 
O=c1c2c(-c3cccs3)cccc2nc(/C=C/c2ccccn2)n1CC1CCNCC1

>  <score_type>  (28) 
oracle

>  <origin>  (28) 
autodockgpu

>  <m_score__min__energy>  (28) 
-7.7699999999999996

>  <m_primary>  (28) 
energy

>  <rmsd>  (28) 
6.296094809036037

>  <m_score__min__rmsd>  (28) 
6.296094809036037

>  <meeko>  (28) 
{"free_energy": -7.71, "intermolecular_energy": -9.5, "internal_energy": -1.9, "cluster_size": 20, "cluster_id": 1, "rank_in_cluster": 6}

>  <energy>  (28) 
-7.11

>  <cluster_rmsd>  (28) 
0.58

>  <cluster>  (28) 
3

$$$$

     RDKit          3D

 55 59  0  0  0  0  0  0  0  0999 V2000
  143.0620   75.9360  220.3180 O   0  0  0  0  0  0  0  0  0  0  0  0
  141.9830   75.6220  220.8390 C   0  0  0  0  0  0  0  0  0  0  0  0
  141.6570   74.3330  221.1450 C   0  0  0  0  0  0  0  0  0  0  0  0
  142.5120   73.3000  220.8740 C   0  0  0  0  0  0  0  0  0  0  0  0
  143.8390   73.3530  220.4030 C   0  0  0  0  0  0  0  0  0  0  0  0
  144.9730   73.4070  221.2070 C   0  0  0  0  0  0  0  0  0  0  0  0
  146.1670   73.4170  220.6230 C   0  0  0  0  0  0  0  0  0  0  0  0
  146.2840   73.3760  219.2790 C   0  0  0  0  0  0  0  0  0  0  0  0
  144.5540   73.3170  218.7510 S   0  0  0  0  0  0  0  0  0  0  0  0
  142.0110   72.0270  221.2210 C   0  0  0  0  0  0  0  0  0  0  0  0
  140.7840   71.8330  221.7820 C   0  0  0  0  0  0  0  0  0  0  0  0
  139.9460   72.8830  222.0470 C   0  0  0  0  0  0  0  0  0  0  0  0
  140.3980   74.1400  221.7210 C   0  0  0  0  0  0  0  0  0  0  0  0
  139.5970   75.1730  221.9450 N   0  0  0  0  0  0  0  0  0  0  0  0
  139.9210   76.4420  221.6450 C   0  0  0  0  0  0  0  0  0  0  0  0
  138.9650   77.4960  221.9500 C   0  0  0  0  0  0  0  0  0  0  0  0
  139.1480   78.2580  223.0110 C   0  0  0  0  0  0  0  0  0  0  0  0
  140.2390   79.2100  223.1560 C   0  0  0  0  0  0  0  0  0  0  0  0
  141.4360   78.9300  223.7570 C   0  0  0  0  0  0  0  0  0  0  0  0
  142.4300   79.8860  223.8580 C   0  0  0  0  0  0  0  0  0  0  0  0
  142.2430   81.1460  223.3560 C   0  0  0  0  0  0  0  0  0  0  0  0
  141.0330   81.4170  222.7510 C   0  0  0  0  0  0  0  0  0  0  0  0
  140.0900   80.4700  222.6690 N   0  0  0  0  0  0  0  0  0  0  0  0
  141.1230   76.6470  221.0890 N   0  0  0  0  0  0  0  0  0  0  0  0
  141.5220   77.9850  220.7210 C   0  0  0  0  0  0  0  0  0  0  0  0
  141.9960   78.1470  219.3210 C   0  0  0  0  0  0  0  0  0  0  0  0
  141.1670   77.5210  218.2540 C   0  0  0  0  0  0  0  0  0  0  0  0
  141.7870   77.6770  216.8790 C   0  0  0  0  0  0  0  0  0  0  0  0
  142.6720   78.8240  216.8280 N   0  0  0  0  0  0  0  0  0  0  0  0
  142.1660   79.9360  217.6040 C   0  0  0  0  0  0  0  0  0  0  0  0
  142.1940   79.6460  219.0720 C   0  0  0  0  0  0  0  0  0  0  0  0
  144.8835   73.4407  222.3028 H   0  0  0  0  0  0  0  0  0  0  0  0
  147.0736   73.4593  221.2445 H   0  0  0  0  0  0  0  0  0  0  0  0
  147.1956   73.3779  218.6634 H   0  0  0  0  0  0  0  0  0  0  0  0
  142.6426   71.1471  221.0290 H   0  0  0  0  0  0  0  0  0  0  0  0
  140.4600   70.8108  222.0272 H   0  0  0  0  0  0  0  0  0  0  0  0
  138.9558   72.7279  222.5003 H   0  0  0  0  0  0  0  0  0  0  0  0
  138.0934   77.6565  221.2984 H   0  0  0  0  0  0  0  0  0  0  0  0
  138.4298   78.1681  223.8393 H   0  0  0  0  0  0  0  0  0  0  0  0
  141.6110   77.9247  224.1678 H   0  0  0  0  0  0  0  0  0  0  0  0
  143.3817   79.6313  224.3472 H   0  0  0  0  0  0  0  0  0  0  0  0
  143.0277   81.9131  223.4321 H   0  0  0  0  0  0  0  0  0  0  0  0
  140.8419   82.4167  222.3337 H   0  0  0  0  0  0  0  0  0  0  0  0
  140.6569   78.6489  220.8653 H   0  0  0  0  0  0  0  0  0  0  0  0
  142.3809   78.2322  221.3622 H   0  0  0  0  0  0  0  0  0  0  0  0
  142.9362   77.5815  219.2422 H   0  0  0  0  0  0  0  0  0  0  0  0
  141.0583   76.4486  218.4736 H   0  0  0  0  0  0  0  0  0  0  0  0
  140.1915   78.0293  218.2434 H   0  0  0  0  0  0  0  0  0  0  0  0
  142.3616   76.7700  216.6399 H   0  0  0  0  0  0  0  0  0  0  0  0
  140.9787   77.8290  216.1486 H   0  0  0  0  0  0  0  0  0  0  0  0
  142.9550   79.0810  215.8790 H   0  0  0  0  0  0  0  0  0  0  0  0
  142.7867   80.8218  217.4039 H   0  0  0  0  0  0  0  0  0  0  0  0
  141.1208   80.1117  217.3095 H   0  0  0  0  0  0  0  0  0  0  0  0
  143.1647   79.9575  219.4851 H   0  0  0  0  0  0  0  0  0  0  0  0
  141.3807   80.2010  219.5623 H   0  0  0  0  0  0  0  0  0  0  0  0
  1  2  2  0
  2  3  1  0
  3  4  2  0
  4  5  1  0
  5  6  2  0
  6  7  1  0
  7  8  2  0
  8  9  1  0
  4 10  1  0
 10 11  2  0
 11 12  1  0
 12 13  2  0
 13 14  1  0
 14 15  2  0
 15 16  1  0
 16 17  2  0
 17 18  1  0
 18 19  2  0
 19 20  1  0
 20 21  2  0
 21 22  1  0
 22 23  2  0
 15 24  1  0
 24 25  1  0
 25 26  1  0
 26 27  1  0
 27 28  1  0
 28 29  1  0
 29 30  1  0
 30 31  1  0
 24  2  1  0
 31 26  1  0
 13  3  1  0
 23 18  1  0
  9  5  1  0
  6 32  1  0
  7 33  1  0
  8 34  1  0
 10 35  1  0
 11 36  1  0
 12 37  1  0
 16 38  1  0
 17 39  1  0
 19 40  1  0
 20 41  1  0
 21 42  1  0
 22 43  1  0
 25 44  1  0
 25 45  1  0
 26 46  1  0
 27 47  1  0
 27 48  1  0
 28 49  1  0
 28 50  1  0
 29 51  1  0
 30 52  1  0
 30 53  1  0
 31 54  1  0
 31 55  1  0
M  END
>  <smiles>  (29) 
O=c1c2c(-c3cccs3)cccc2nc(/C=C/c2ccccn2)n1CC1CCNCC1

>  <score_type>  (29) 
oracle

>  <origin>  (29) 
autodockgpu

>  <m_score__min__energy>  (29) 
-7.7699999999999996

>  <m_primary>  (29) 
energy

>  <rmsd>  (29) 
6.256510582206632

>  <m_score__min__rmsd>  (29) 
6.256510582206632

>  <meeko>  (29) 
{"free_energy": -7.75, "intermolecular_energy": -9.54, "internal_energy": -1.87, "cluster_size": 20, "cluster_id": 1, "rank_in_cluster": 2}

>  <energy>  (29) 
-6.88

>  <cluster_rmsd>  (29) 
1.77

>  <cluster>  (29) 
3

$$$$

     RDKit          3D

 55 59  0  0  0  0  0  0  0  0999 V2000
  135.7130   73.0850  223.3620 O   0  0  0  0  0  0  0  0  0  0  0  0
  135.6940   71.9400  223.8340 C   0  0  0  0  0  0  0  0  0  0  0  0
  135.0070   71.6180  224.9670 C   0  0  0  0  0  0  0  0  0  0  0  0
  134.3030   72.5620  225.6630 C   0  0  0  0  0  0  0  0  0  0  0  0
  134.0410   73.9030  225.3150 C   0  0  0  0  0  0  0  0  0  0  0  0
  134.6610   75.0130  225.8790 C   0  0  0  0  0  0  0  0  0  0  0  0
  134.3380   76.2200  225.4250 C   0  0  0  0  0  0  0  0  0  0  0  0
  133.4290   76.3720  224.4390 C   0  0  0  0  0  0  0  0  0  0  0  0
  132.9600   74.6600  224.0900 S   0  0  0  0  0  0  0  0  0  0  0  0
  133.6760   72.0740  226.8300 C   0  0  0  0  0  0  0  0  0  0  0  0
  133.7560   70.7750  227.2350 C   0  0  0  0  0  0  0  0  0  0  0  0
  134.4640   69.8460  226.5200 C   0  0  0  0  0  0  0  0  0  0  0  0
  135.0910   70.2850  225.3760 C   0  0  0  0  0  0  0  0  0  0  0  0
  135.8040   69.4110  224.6790 N   0  0  0  0  0  0  0  0  0  0  0  0
  136.4790   69.7290  223.5610 C   0  0  0  0  0  0  0  0  0  0  0  0
  137.2160   68.6820  222.8690 C   0  0  0  0  0  0  0  0  0  0  0  0
  138.4360   68.3730  223.2620 C   0  0  0  0  0  0  0  0  0  0  0  0
  138.9950   68.7320  224.5560 C   0  0  0  0  0  0  0  0  0  0  0  0
  139.3340   70.0050  224.9260 C   0  0  0  0  0  0  0  0  0  0  0  0
  139.8600   70.2730  226.1760 C   0  0  0  0  0  0  0  0  0  0  0  0
  140.0570   69.2680  227.0840 C   0  0  0  0  0  0  0  0  0  0  0  0
  139.7100   67.9880  226.7010 C   0  0  0  0  0  0  0  0  0  0  0  0
  139.2030   67.7600  225.4840 N   0  0  0  0  0  0  0  0  0  0  0  0
  136.4120   71.0040  223.1530 N   0  0  0  0  0  0  0  0  0  0  0  0
  137.1340   71.4170  221.9730 C   0  0  0  0  0  0  0  0  0  0  0  0
  138.3330   72.2610  222.2190 C   0  0  0  0  0  0  0  0  0  0  0  0
  139.6480   71.6950  221.8100 C   0  0  0  0  0  0  0  0  0  0  0  0
  140.8040   72.6020  222.1840 C   0  0  0  0  0  0  0  0  0  0  0  0
  140.3730   73.9810  222.3080 N   0  0  0  0  0  0  0  0  0  0  0  0
  139.3760   74.3290  221.3190 C   0  0  0  0  0  0  0  0  0  0  0  0
  138.0790   73.6240  221.5660 C   0  0  0  0  0  0  0  0  0  0  0  0
  135.4023   74.8947  226.6830 H   0  0  0  0  0  0  0  0  0  0  0  0
  134.8190   77.1086  225.8597 H   0  0  0  0  0  0  0  0  0  0  0  0
  133.0667   77.2981  223.9688 H   0  0  0  0  0  0  0  0  0  0  0  0
  133.0937   72.7774  227.4432 H   0  0  0  0  0  0  0  0  0  0  0  0
  133.2406   70.4661  228.1564 H   0  0  0  0  0  0  0  0  0  0  0  0
  134.5286   68.7971  226.8450 H   0  0  0  0  0  0  0  0  0  0  0  0
  136.7573   68.1509  222.0220 H   0  0  0  0  0  0  0  0  0  0  0  0
  139.0725   67.8069  222.5660 H   0  0  0  0  0  0  0  0  0  0  0  0
  139.1851   70.8311  224.2150 H   0  0  0  0  0  0  0  0  0  0  0  0
  140.1235   71.3068  226.4442 H   0  0  0  0  0  0  0  0  0  0  0  0
  140.4757   69.4724  228.0805 H   0  0  0  0  0  0  0  0  0  0  0  0
  139.8511   67.1507  227.4003 H   0  0  0  0  0  0  0  0  0  0  0  0
  137.4605   70.5112  221.4411 H   0  0  0  0  0  0  0  0  0  0  0  0
  136.4372   72.0430  221.3962 H   0  0  0  0  0  0  0  0  0  0  0  0
  138.4452   72.3347  223.3108 H   0  0  0  0  0  0  0  0  0  0  0  0
  139.7852   70.7233  222.3069 H   0  0  0  0  0  0  0  0  0  0  0  0
  139.6435   71.5882  220.7152 H   0  0  0  0  0  0  0  0  0  0  0  0
  141.2236   72.2699  223.1451 H   0  0  0  0  0  0  0  0  0  0  0  0
  141.5614   72.5452  221.3883 H   0  0  0  0  0  0  0  0  0  0  0  0
  141.1470   74.6490  222.3630 H   0  0  0  0  0  0  0  0  0  0  0  0
  139.2035   75.4148  221.3540 H   0  0  0  0  0  0  0  0  0  0  0  0
  139.7508   74.0201  220.3320 H   0  0  0  0  0  0  0  0  0  0  0  0
  137.4543   74.2358  222.2334 H   0  0  0  0  0  0  0  0  0  0  0  0
  137.5650   73.4714  220.6055 H   0  0  0  0  0  0  0  0  0  0  0  0
  1  2  2  0
  2  3  1  0
  3  4  2  0
  4  5  1  0
  5  6  2  0
  6  7  1  0
  7  8  2  0
  8  9  1  0
  4 10  1  0
 10 11  2  0
 11 12  1  0
 12 13  2  0
 13 14  1  0
 14 15  2  0
 15 16  1  0
 16 17  2  0
 17 18  1  0
 18 19  2  0
 19 20  1  0
 20 21  2  0
 21 22  1  0
 22 23  2  0
 15 24  1  0
 24 25  1  0
 25 26  1  0
 26 27  1  0
 27 28  1  0
 28 29  1  0
 29 30  1  0
 30 31  1  0
 24  2  1  0
 31 26  1  0
 13  3  1  0
 23 18  1  0
  9  5  1  0
  6 32  1  0
  7 33  1  0
  8 34  1  0
 10 35  1  0
 11 36  1  0
 12 37  1  0
 16 38  1  0
 17 39  1  0
 19 40  1  0
 20 41  1  0
 21 42  1  0
 22 43  1  0
 25 44  1  0
 25 45  1  0
 26 46  1  0
 27 47  1  0
 27 48  1  0
 28 49  1  0
 28 50  1  0
 29 51  1  0
 30 52  1  0
 30 53  1  0
 31 54  1  0
 31 55  1  0
M  END
>  <smiles>  (30) 
O=c1c2c(-c3cccs3)cccc2nc(/C=C/c2ccccn2)n1CC1CCNCC1

>  <score_type>  (30) 
oracle

>  <origin>  (30) 
autodockgpu

>  <m_score__min__energy>  (30) 
-7.7699999999999996

>  <m_primary>  (30) 
energy

>  <rmsd>  (30) 
5.686789281642793

>  <m_score__min__rmsd>  (30) 
5.686789281642793

>  <meeko>  (30) 
{"free_energy": -7.17, "intermolecular_energy": -8.96, "internal_energy": -2.3, "cluster_size": 10, "cluster_id": 4, "rank_in_cluster": 7}

>  <energy>  (30) 
-6.83

>  <cluster_rmsd>  (30) 
1.81

>  <cluster>  (30) 
3

$$$$

     RDKit          3D

 55 59  0  0  0  0  0  0  0  0999 V2000
  142.9980   75.9570  220.3020 O   0  0  0  0  0  0  0  0  0  0  0  0
  141.9260   75.6480  220.8420 C   0  0  0  0  0  0  0  0  0  0  0  0
  141.6010   74.3610  221.1560 C   0  0  0  0  0  0  0  0  0  0  0  0
  142.4470   73.3250  220.8720 C   0  0  0  0  0  0  0  0  0  0  0  0
  143.7670   73.3720  220.3780 C   0  0  0  0  0  0  0  0  0  0  0  0
  144.9150   73.4030  221.1630 C   0  0  0  0  0  0  0  0  0  0  0  0
  146.0980   73.4110  220.5580 C   0  0  0  0  0  0  0  0  0  0  0  0
  146.1910   73.3880  219.2120 C   0  0  0  0  0  0  0  0  0  0  0  0
  144.4520   73.3510  218.7140 S   0  0  0  0  0  0  0  0  0  0  0  0
  141.9480   72.0530  221.2300 C   0  0  0  0  0  0  0  0  0  0  0  0
  140.7290   71.8650  221.8120 C   0  0  0  0  0  0  0  0  0  0  0  0
  139.9000   72.9190  222.0900 C   0  0  0  0  0  0  0  0  0  0  0  0
  140.3520   74.1740  221.7540 C   0  0  0  0  0  0  0  0  0  0  0  0
  139.5580   75.2100  221.9900 N   0  0  0  0  0  0  0  0  0  0  0  0
  139.8810   76.4770  221.6820 C   0  0  0  0  0  0  0  0  0  0  0  0
  138.9350   77.5360  222.0020 C   0  0  0  0  0  0  0  0  0  0  0  0
  139.1370   78.2950  223.0610 C   0  0  0  0  0  0  0  0  0  0  0  0
  140.2470   79.2250  223.2000 C   0  0  0  0  0  0  0  0  0  0  0  0
  141.4560   78.9080  223.7580 C   0  0  0  0  0  0  0  0  0  0  0  0
  142.4690   79.8450  223.8570 C   0  0  0  0  0  0  0  0  0  0  0  0
  142.2890   81.1220  223.3970 C   0  0  0  0  0  0  0  0  0  0  0  0
  141.0660   81.4300  222.8360 C   0  0  0  0  0  0  0  0  0  0  0  0
  140.1060   80.5020  222.7540 N   0  0  0  0  0  0  0  0  0  0  0  0
  141.0750   76.6770  221.1050 N   0  0  0  0  0  0  0  0  0  0  0  0
  141.4720   78.0120  220.7280 C   0  0  0  0  0  0  0  0  0  0  0  0
  141.9580   78.1640  219.3300 C   0  0  0  0  0  0  0  0  0  0  0  0
  141.1220   77.5520  218.2600 C   0  0  0  0  0  0  0  0  0  0  0  0
  141.7530   77.6940  216.8890 C   0  0  0  0  0  0  0  0  0  0  0  0
  142.6620   78.8230  216.8410 N   0  0  0  0  0  0  0  0  0  0  0  0
  142.1730   79.9460  217.6120 C   0  0  0  0  0  0  0  0  0  0  0  0
  142.1860   79.6580  219.0810 C   0  0  0  0  0  0  0  0  0  0  0  0
  144.8450   73.4205  222.2606 H   0  0  0  0  0  0  0  0  0  0  0  0
  147.0158   73.4368  221.1638 H   0  0  0  0  0  0  0  0  0  0  0  0
  147.0917   73.3910  218.5805 H   0  0  0  0  0  0  0  0  0  0  0  0
  142.5734   71.1706  221.0295 H   0  0  0  0  0  0  0  0  0  0  0  0
  140.4046   70.8445  222.0636 H   0  0  0  0  0  0  0  0  0  0  0  0
  138.9172   72.7688  222.5607 H   0  0  0  0  0  0  0  0  0  0  0  0
  138.0553   77.7024  221.3630 H   0  0  0  0  0  0  0  0  0  0  0  0
  138.4206   78.2203  223.8924 H   0  0  0  0  0  0  0  0  0  0  0  0
  141.6254   77.8886  224.1350 H   0  0  0  0  0  0  0  0  0  0  0  0
  143.4301   79.5608  224.3105 H   0  0  0  0  0  0  0  0  0  0  0  0
  143.0885   81.8738  223.4717 H   0  0  0  0  0  0  0  0  0  0  0  0
  140.8797   82.4446  222.4541 H   0  0  0  0  0  0  0  0  0  0  0  0
  140.6031   78.6738  220.8588 H   0  0  0  0  0  0  0  0  0  0  0  0
  142.3247   78.2677  221.3741 H   0  0  0  0  0  0  0  0  0  0  0  0
  142.8884   77.5819  219.2562 H   0  0  0  0  0  0  0  0  0  0  0  0
  140.9913   76.4823  218.4808 H   0  0  0  0  0  0  0  0  0  0  0  0
  140.1562   78.0782  218.2434 H   0  0  0  0  0  0  0  0  0  0  0  0
  142.3104   76.7752  216.6543 H   0  0  0  0  0  0  0  0  0  0  0  0
  140.9519   77.8621  216.1541 H   0  0  0  0  0  0  0  0  0  0  0  0
  142.9550   79.0740  215.8930 H   0  0  0  0  0  0  0  0  0  0  0  0
  142.8122   80.8191  217.4144 H   0  0  0  0  0  0  0  0  0  0  0  0
  141.1334   80.1416  217.3106 H   0  0  0  0  0  0  0  0  0  0  0  0
  143.1598   79.9516  219.5001 H   0  0  0  0  0  0  0  0  0  0  0  0
  141.3805   80.2293  219.5655 H   0  0  0  0  0  0  0  0  0  0  0  0
  1  2  2  0
  2  3  1  0
  3  4  2  0
  4  5  1  0
  5  6  2  0
  6  7  1  0
  7  8  2  0
  8  9  1  0
  4 10  1  0
 10 11  2  0
 11 12  1  0
 12 13  2  0
 13 14  1  0
 14 15  2  0
 15 16  1  0
 16 17  2  0
 17 18  1  0
 18 19  2  0
 19 20  1  0
 20 21  2  0
 21 22  1  0
 22 23  2  0
 15 24  1  0
 24 25  1  0
 25 26  1  0
 26 27  1  0
 27 28  1  0
 28 29  1  0
 29 30  1  0
 30 31  1  0
 24  2  1  0
 31 26  1  0
 13  3  1  0
 23 18  1  0
  9  5  1  0
  6 32  1  0
  7 33  1  0
  8 34  1  0
 10 35  1  0
 11 36  1  0
 12 37  1  0
 16 38  1  0
 17 39  1  0
 19 40  1  0
 20 41  1  0
 21 42  1  0
 22 43  1  0
 25 44  1  0
 25 45  1  0
 26 46  1  0
 27 47  1  0
 27 48  1  0
 28 49  1  0
 28 50  1  0
 29 51  1  0
 30 52  1  0
 30 53  1  0
 31 54  1  0
 31 55  1  0
M  END
>  <smiles>  (31) 
O=c1c2c(-c3cccs3)cccc2nc(/C=C/c2ccccn2)n1CC1CCNCC1

>  <score_type>  (31) 
oracle

>  <origin>  (31) 
autodockgpu

>  <m_score__min__energy>  (31) 
-7.7699999999999996

>  <m_primary>  (31) 
energy

>  <rmsd>  (31) 
6.250588879680156

>  <m_score__min__rmsd>  (31) 
6.250588879680156

>  <meeko>  (31) 
{"free_energy": -7.77, "intermolecular_energy": -9.56, "internal_energy": -1.84, "cluster_size": 20, "cluster_id": 1, "rank_in_cluster": 1}

>  <energy>  (31) 
-6.82

>  <cluster_rmsd>  (31) 
1.73

>  <cluster>  (31) 
3

$$$$

     RDKit          3D

 55 59  0  0  0  0  0  0  0  0999 V2000
  143.0220   75.9570  220.3240 O   0  0  0  0  0  0  0  0  0  0  0  0
  141.9440   75.6480  220.8500 C   0  0  0  0  0  0  0  0  0  0  0  0
  141.6110   74.3600  221.1510 C   0  0  0  0  0  0  0  0  0  0  0  0
  142.4580   73.3230  220.8690 C   0  0  0  0  0  0  0  0  0  0  0  0
  143.7830   73.3700  220.3900 C   0  0  0  0  0  0  0  0  0  0  0  0
  144.9210   73.4230  221.1880 C   0  0  0  0  0  0  0  0  0  0  0  0
  146.1120   73.4280  220.5970 C   0  0  0  0  0  0  0  0  0  0  0  0
  146.2210   73.3810  219.2520 C   0  0  0  0  0  0  0  0  0  0  0  0
  144.4880   73.3240  218.7340 S   0  0  0  0  0  0  0  0  0  0  0  0
  141.9510   72.0510  221.2120 C   0  0  0  0  0  0  0  0  0  0  0  0
  140.7260   71.8620  221.7790 C   0  0  0  0  0  0  0  0  0  0  0  0
  139.8960   72.9160  222.0560 C   0  0  0  0  0  0  0  0  0  0  0  0
  140.3550   74.1720  221.7340 C   0  0  0  0  0  0  0  0  0  0  0  0
  139.5610   75.2080  221.9680 N   0  0  0  0  0  0  0  0  0  0  0  0
  139.8920   76.4770  221.6720 C   0  0  0  0  0  0  0  0  0  0  0  0
  138.9450   77.5360  221.9890 C   0  0  0  0  0  0  0  0  0  0  0  0
  139.1400   78.2910  223.0530 C   0  0  0  0  0  0  0  0  0  0  0  0
  140.2180   79.2590  223.1810 C   0  0  0  0  0  0  0  0  0  0  0  0
  141.4070   79.0150  223.8140 C   0  0  0  0  0  0  0  0  0  0  0  0
  142.3890   79.9850  223.8960 C   0  0  0  0  0  0  0  0  0  0  0  0
  142.1990   81.2230  223.3440 C   0  0  0  0  0  0  0  0  0  0  0  0
  140.9970   81.4580  222.7070 C   0  0  0  0  0  0  0  0  0  0  0  0
  140.0660   80.4990  222.6440 N   0  0  0  0  0  0  0  0  0  0  0  0
  141.0920   76.6770  221.1110 N   0  0  0  0  0  0  0  0  0  0  0  0
  141.4970   78.0140  220.7470 C   0  0  0  0  0  0  0  0  0  0  0  0
  141.9510   78.1840  219.3410 C   0  0  0  0  0  0  0  0  0  0  0  0
  141.0940   77.5810  218.2820 C   0  0  0  0  0  0  0  0  0  0  0  0
  141.6930   77.7420  216.8990 C   0  0  0  0  0  0  0  0  0  0  0  0
  142.5950   78.8770  216.8440 N   0  0  0  0  0  0  0  0  0  0  0  0
  142.1180   79.9880  217.6400 C   0  0  0  0  0  0  0  0  0  0  0  0
  142.1650   79.6830  219.1040 C   0  0  0  0  0  0  0  0  0  0  0  0
  144.8375   73.4600  222.2842 H   0  0  0  0  0  0  0  0  0  0  0  0
  147.0223   73.4711  221.2131 H   0  0  0  0  0  0  0  0  0  0  0  0
  147.1291   73.3781  218.6312 H   0  0  0  0  0  0  0  0  0  0  0  0
  142.5758   71.1681  221.0117 H   0  0  0  0  0  0  0  0  0  0  0  0
  140.3966   70.8404  222.0195 H   0  0  0  0  0  0  0  0  0  0  0  0
  138.9078   72.7648  222.5149 H   0  0  0  0  0  0  0  0  0  0  0  0
  138.0704   77.7060  221.3440 H   0  0  0  0  0  0  0  0  0  0  0  0
  138.4431   78.1815  223.8970 H   0  0  0  0  0  0  0  0  0  0  0  0
  141.5847   78.0281  224.2662 H   0  0  0  0  0  0  0  0  0  0  0  0
  143.3343   79.7590  224.4111 H   0  0  0  0  0  0  0  0  0  0  0  0
  142.9743   82.0009  223.4056 H   0  0  0  0  0  0  0  0  0  0  0  0
  140.8035   82.4391  222.2487 H   0  0  0  0  0  0  0  0  0  0  0  0
  140.6400   78.6841  220.9100 H   0  0  0  0  0  0  0  0  0  0  0  0
  142.3682   78.2480  221.3765 H   0  0  0  0  0  0  0  0  0  0  0  0
  142.8822   77.6071  219.2406 H   0  0  0  0  0  0  0  0  0  0  0  0
  140.9729   76.5082  218.4927 H   0  0  0  0  0  0  0  0  0  0  0  0
  140.1260   78.1034  218.2933 H   0  0  0  0  0  0  0  0  0  0  0  0
  142.2498   76.8290  216.6412 H   0  0  0  0  0  0  0  0  0  0  0  0
  140.8748   77.9138  216.1842 H   0  0  0  0  0  0  0  0  0  0  0  0
  142.8650   79.1400  215.8930 H   0  0  0  0  0  0  0  0  0  0  0  0
  142.7484   80.8667  217.4389 H   0  0  0  0  0  0  0  0  0  0  0  0
  141.0708   80.1814  217.3644 H   0  0  0  0  0  0  0  0  0  0  0  0
  143.1461   79.9776  219.5049 H   0  0  0  0  0  0  0  0  0  0  0  0
  141.3669   80.2437  219.6126 H   0  0  0  0  0  0  0  0  0  0  0  0
  1  2  2  0
  2  3  1  0
  3  4  2  0
  4  5  1  0
  5  6  2  0
  6  7  1  0
  7  8  2  0
  8  9  1  0
  4 10  1  0
 10 11  2  0
 11 12  1  0
 12 13  2  0
 13 14  1  0
 14 15  2  0
 15 16  1  0
 16 17  2  0
 17 18  1  0
 18 19  2  0
 19 20  1  0
 20 21  2  0
 21 22  1  0
 22 23  2  0
 15 24  1  0
 24 25  1  0
 25 26  1  0
 26 27  1  0
 27 28  1  0
 28 29  1  0
 29 30  1  0
 30 31  1  0
 24  2  1  0
 31 26  1  0
 13  3  1  0
 23 18  1  0
  9  5  1  0
  6 32  1  0
  7 33  1  0
  8 34  1  0
 10 35  1  0
 11 36  1  0
 12 37  1  0
 16 38  1  0
 17 39  1  0
 19 40  1  0
 20 41  1  0
 21 42  1  0
 22 43  1  0
 25 44  1  0
 25 45  1  0
 26 46  1  0
 27 47  1  0
 27 48  1  0
 28 49  1  0
 28 50  1  0
 29 51  1  0
 30 52  1  0
 30 53  1  0
 31 54  1  0
 31 55  1  0
M  END
>  <smiles>  (32) 
O=c1c2c(-c3cccs3)cccc2nc(/C=C/c2ccccn2)n1CC1CCNCC1

>  <score_type>  (32) 
oracle

>  <origin>  (32) 
autodockgpu

>  <m_score__min__energy>  (32) 
-7.7699999999999996

>  <m_primary>  (32) 
energy

>  <rmsd>  (32) 
6.257867359099963

>  <m_score__min__rmsd>  (32) 
6.257867359099963

>  <meeko>  (32) 
{"free_energy": -7.73, "intermolecular_energy": -9.52, "internal_energy": -1.9, "cluster_size": 20, "cluster_id": 1, "rank_in_cluster": 4}

>  <energy>  (32) 
-6.76

>  <cluster_rmsd>  (32) 
1.76

>  <cluster>  (32) 
3

$$$$

     RDKit          3D

 55 59  0  0  0  0  0  0  0  0999 V2000
  141.4090   76.1630  222.2040 O   0  0  0  0  0  0  0  0  0  0  0  0
  140.2320   75.7870  222.1100 C   0  0  0  0  0  0  0  0  0  0  0  0
  139.1710   76.6190  222.3160 C   0  0  0  0  0  0  0  0  0  0  0  0
  139.3540   77.9310  222.6580 C   0  0  0  0  0  0  0  0  0  0  0  0
  140.5530   78.6690  222.7210 C   0  0  0  0  0  0  0  0  0  0  0  0
  141.1460   79.1360  223.8890 C   0  0  0  0  0  0  0  0  0  0  0  0
  142.2990   79.7900  223.7990 C   0  0  0  0  0  0  0  0  0  0  0  0
  142.8890   79.9990  222.6020 C   0  0  0  0  0  0  0  0  0  0  0  0
  141.7260   79.2070  221.4650 S   0  0  0  0  0  0  0  0  0  0  0  0
  138.1550   78.6480  222.8670 C   0  0  0  0  0  0  0  0  0  0  0  0
  136.9180   78.0900  222.7390 C   0  0  0  0  0  0  0  0  0  0  0  0
  136.7600   76.7740  222.3930 C   0  0  0  0  0  0  0  0  0  0  0  0
  137.9060   76.0430  222.1820 C   0  0  0  0  0  0  0  0  0  0  0  0
  137.7820   74.7600  221.8690 N   0  0  0  0  0  0  0  0  0  0  0  0
  138.8280   73.9420  221.6650 C   0  0  0  0  0  0  0  0  0  0  0  0
  138.5690   72.5540  221.3120 C   0  0  0  0  0  0  0  0  0  0  0  0
  138.0760   71.7300  222.2150 C   0  0  0  0  0  0  0  0  0  0  0  0
  138.8050   71.2700  223.3870 C   0  0  0  0  0  0  0  0  0  0  0  0
  138.3960   70.2490  224.2010 C   0  0  0  0  0  0  0  0  0  0  0  0
  139.1420   69.8630  225.3000 C   0  0  0  0  0  0  0  0  0  0  0  0
  140.3170   70.4960  225.6050 C   0  0  0  0  0  0  0  0  0  0  0  0
  140.7200   71.5240  224.7770 C   0  0  0  0  0  0  0  0  0  0  0  0
  139.9760   71.8740  223.7210 N   0  0  0  0  0  0  0  0  0  0  0  0
  140.0500   74.4760  221.7910 N   0  0  0  0  0  0  0  0  0  0  0  0
  141.2170   73.6450  221.6080 C   0  0  0  0  0  0  0  0  0  0  0  0
  142.2540   74.1910  220.6930 C   0  0  0  0  0  0  0  0  0  0  0  0
  143.4730   73.3610  220.4890 C   0  0  0  0  0  0  0  0  0  0  0  0
  144.4960   74.0510  219.6070 C   0  0  0  0  0  0  0  0  0  0  0  0
  143.8680   75.0270  218.7380 N   0  0  0  0  0  0  0  0  0  0  0  0
  142.5780   74.5790  218.2600 C   0  0  0  0  0  0  0  0  0  0  0  0
  141.5680   74.5190  219.3620 C   0  0  0  0  0  0  0  0  0  0  0  0
  140.6706   78.9675  224.8666 H   0  0  0  0  0  0  0  0  0  0  0  0
  142.7805   80.1671  224.7133 H   0  0  0  0  0  0  0  0  0  0  0  0
  143.8329   80.5170  222.3768 H   0  0  0  0  0  0  0  0  0  0  0  0
  138.2230   79.7096  223.1470 H   0  0  0  0  0  0  0  0  0  0  0  0
  136.0271   78.7100  222.9174 H   0  0  0  0  0  0  0  0  0  0  0  0
  135.7624   76.3225  222.2887 H   0  0  0  0  0  0  0  0  0  0  0  0
  138.7839   72.1938  220.2951 H   0  0  0  0  0  0  0  0  0  0  0  0
  137.0474   71.3669  222.0733 H   0  0  0  0  0  0  0  0  0  0  0  0
  137.4553   69.7248  223.9770 H   0  0  0  0  0  0  0  0  0  0  0  0
  138.7873   69.0384  225.9359 H   0  0  0  0  0  0  0  0  0  0  0  0
  140.9171   70.1966  226.4769 H   0  0  0  0  0  0  0  0  0  0  0  0
  141.6582   72.0588  224.9862 H   0  0  0  0  0  0  0  0  0  0  0  0
  141.6814   73.4910  222.5932 H   0  0  0  0  0  0  0  0  0  0  0  0
  140.8571   72.7179  221.1379 H   0  0  0  0  0  0  0  0  0  0  0  0
  142.6646   75.0857  221.1838 H   0  0  0  0  0  0  0  0  0  0  0  0
  143.9302   73.1567  221.4684 H   0  0  0  0  0  0  0  0  0  0  0  0
  143.1677   72.4309  219.9873 H   0  0  0  0  0  0  0  0  0  0  0  0
  145.2335   74.5606  220.2445 H   0  0  0  0  0  0  0  0  0  0  0  0
  144.9840   73.2903  218.9800 H   0  0  0  0  0  0  0  0  0  0  0  0
  144.4840   75.3710  217.9960 H   0  0  0  0  0  0  0  0  0  0  0  0
  142.2220   75.2773  217.4882 H   0  0  0  0  0  0  0  0  0  0  0  0
  142.6981   73.5652  217.8504 H   0  0  0  0  0  0  0  0  0  0  0  0
  141.0621   75.4923  219.4443 H   0  0  0  0  0  0  0  0  0  0  0  0
  140.8343   73.7320  219.1334 H   0  0  0  0  0  0  0  0  0  0  0  0
  1  2  2  0
  2  3  1  0
  3  4  2  0
  4  5  1  0
  5  6  2  0
  6  7  1  0
  7  8  2  0
  8  9  1  0
  4 10  1  0
 10 11  2  0
 11 12  1  0
 12 13  2  0
 13 14  1  0
 14 15  2  0
 15 16  1  0
 16 17  2  0
 17 18  1  0
 18 19  2  0
 19 20  1  0
 20 21  2  0
 21 22  1  0
 22 23  2  0
 15 24  1  0
 24 25  1  0
 25 26  1  0
 26 27  1  0
 27 28  1  0
 28 29  1  0
 29 30  1  0
 30 31  1  0
 24  2  1  0
 31 26  1  0
 13  3  1  0
 23 18  1  0
  9  5  1  0
  6 32  1  0
  7 33  1  0
  8 34  1  0
 10 35  1  0
 11 36  1  0
 12 37  1  0
 16 38  1  0
 17 39  1  0
 19 40  1  0
 20 41  1  0
 21 42  1  0
 22 43  1  0
 25 44  1  0
 25 45  1  0
 26 46  1  0
 27 47  1  0
 27 48  1  0
 28 49  1  0
 28 50  1  0
 29 51  1  0
 30 52  1  0
 30 53  1  0
 31 54  1  0
 31 55  1  0
M  END
>  <smiles>  (33) 
O=c1c2c(-c3cccs3)cccc2nc(/C=C/c2ccccn2)n1CC1CCNCC1

>  <score_type>  (33) 
oracle

>  <origin>  (33) 
autodockgpu

>  <m_score__min__energy>  (33) 
-7.7699999999999996

>  <m_primary>  (33) 
energy

>  <rmsd>  (33) 
7.791570448939606

>  <m_score__min__rmsd>  (33) 
7.791570448939606

>  <meeko>  (33) 
{"free_energy": -7.41, "intermolecular_energy": -9.2, "internal_energy": -1.71, "cluster_size": 11, "cluster_id": 3, "rank_in_cluster": 1}

>  <energy>  (33) 
-6.72

>  <cluster_rmsd>  (33) 
1.71

>  <cluster>  (33) 
3

$$$$

     RDKit          3D

 55 59  0  0  0  0  0  0  0  0999 V2000
  141.8800   77.0590  220.8620 O   0  0  0  0  0  0  0  0  0  0  0  0
  140.8940   76.3110  220.9300 C   0  0  0  0  0  0  0  0  0  0  0  0
  139.7800   76.6220  221.6530 C   0  0  0  0  0  0  0  0  0  0  0  0
  139.6960   77.7870  222.3650 C   0  0  0  0  0  0  0  0  0  0  0  0
  140.5920   78.8750  222.3860 C   0  0  0  0  0  0  0  0  0  0  0  0
  141.6420   79.0310  223.2860 C   0  0  0  0  0  0  0  0  0  0  0  0
  142.4300   80.0940  223.1630 C   0  0  0  0  0  0  0  0  0  0  0  0
  142.2230   81.0060  222.1900 C   0  0  0  0  0  0  0  0  0  0  0  0
  140.7770   80.3280  221.3390 S   0  0  0  0  0  0  0  0  0  0  0  0
  138.4920   77.9420  223.0850 C   0  0  0  0  0  0  0  0  0  0  0  0
  137.4900   77.0170  223.0740 C   0  0  0  0  0  0  0  0  0  0  0  0
  137.5940   75.8590  222.3510 C   0  0  0  0  0  0  0  0  0  0  0  0
  138.7550   75.6710  221.6370 C   0  0  0  0  0  0  0  0  0  0  0  0
  138.8920   74.5470  220.9480 N   0  0  0  0  0  0  0  0  0  0  0  0
  139.9900   74.2440  220.2340 C   0  0  0  0  0  0  0  0  0  0  0  0
  140.0220   72.9850  219.5040 C   0  0  0  0  0  0  0  0  0  0  0  0
  140.2720   71.8620  220.1470 C   0  0  0  0  0  0  0  0  0  0  0  0
  139.9520   71.6330  221.5480 C   0  0  0  0  0  0  0  0  0  0  0  0
  140.6900   72.1090  222.5980 C   0  0  0  0  0  0  0  0  0  0  0  0
  140.3240   71.8520  223.9070 C   0  0  0  0  0  0  0  0  0  0  0  0
  139.2090   71.1110  224.1900 C   0  0  0  0  0  0  0  0  0  0  0  0
  138.4720   70.6370  223.1240 C   0  0  0  0  0  0  0  0  0  0  0  0
  138.8510   70.9030  221.8680 N   0  0  0  0  0  0  0  0  0  0  0  0
  140.9850   75.1420  220.2390 N   0  0  0  0  0  0  0  0  0  0  0  0
  142.2010   74.8660  219.5120 C   0  0  0  0  0  0  0  0  0  0  0  0
  143.1760   73.9850  220.2090 C   0  0  0  0  0  0  0  0  0  0  0  0
  143.4720   72.6740  219.5690 C   0  0  0  0  0  0  0  0  0  0  0  0
  144.4110   71.8260  220.4050 C   0  0  0  0  0  0  0  0  0  0  0  0
  145.2230   72.6480  221.2800 N   0  0  0  0  0  0  0  0  0  0  0  0
  145.6200   73.8880  220.6470 C   0  0  0  0  0  0  0  0  0  0  0  0
  144.4540   74.8010  220.4350 C   0  0  0  0  0  0  0  0  0  0  0  0
  141.8157   78.2911  224.0812 H   0  0  0  0  0  0  0  0  0  0  0  0
  143.2647   80.2328  223.8658 H   0  0  0  0  0  0  0  0  0  0  0  0
  142.7875   81.9243  221.9708 H   0  0  0  0  0  0  0  0  0  0  0  0
  138.3551   78.8540  223.6846 H   0  0  0  0  0  0  0  0  0  0  0  0
  136.5778   77.2055  223.6591 H   0  0  0  0  0  0  0  0  0  0  0  0
  136.7859   75.1127  222.3414 H   0  0  0  0  0  0  0  0  0  0  0  0
  139.8382   72.9709  218.4196 H   0  0  0  0  0  0  0  0  0  0  0  0
  140.7534   71.0455  219.5889 H   0  0  0  0  0  0  0  0  0  0  0  0
  141.5910   72.7071  222.3971 H   0  0  0  0  0  0  0  0  0  0  0  0
  140.9366   72.2481  224.7303 H   0  0  0  0  0  0  0  0  0  0  0  0
  138.9114   70.9011  225.2280 H   0  0  0  0  0  0  0  0  0  0  0  0
  137.5682   70.0374  223.3073 H   0  0  0  0  0  0  0  0  0  0  0  0
  141.9264   74.3835  218.5624 H   0  0  0  0  0  0  0  0  0  0  0  0
  142.7052   75.8355  219.3862 H   0  0  0  0  0  0  0  0  0  0  0  0
  142.7021   73.6785  221.1532 H   0  0  0  0  0  0  0  0  0  0  0  0
  142.5281   72.1262  219.4313 H   0  0  0  0  0  0  0  0  0  0  0  0
  143.9646   72.8727  218.6057 H   0  0  0  0  0  0  0  0  0  0  0  0
  143.8175   71.1299  221.0159 H   0  0  0  0  0  0  0  0  0  0  0  0
  145.0791   71.2751  219.7266 H   0  0  0  0  0  0  0  0  0  0  0  0
  146.0000   72.1420  221.7130 H   0  0  0  0  0  0  0  0  0  0  0  0
  146.3572   74.3946  221.2872 H   0  0  0  0  0  0  0  0  0  0  0  0
  146.0498   73.6478  219.6633 H   0  0  0  0  0  0  0  0  0  0  0  0
  144.3258   75.4385  221.3222 H   0  0  0  0  0  0  0  0  0  0  0  0
  144.6430   75.4242  219.5485 H   0  0  0  0  0  0  0  0  0  0  0  0
  1  2  2  0
  2  3  1  0
  3  4  2  0
  4  5  1  0
  5  6  2  0
  6  7  1  0
  7  8  2  0
  8  9  1  0
  4 10  1  0
 10 11  2  0
 11 12  1  0
 12 13  2  0
 13 14  1  0
 14 15  2  0
 15 16  1  0
 16 17  2  0
 17 18  1  0
 18 19  2  0
 19 20  1  0
 20 21  2  0
 21 22  1  0
 22 23  2  0
 15 24  1  0
 24 25  1  0
 25 26  1  0
 26 27  1  0
 27 28  1  0
 28 29  1  0
 29 30  1  0
 30 31  1  0
 24  2  1  0
 31 26  1  0
 13  3  1  0
 23 18  1  0
  9  5  1  0
  6 32  1  0
  7 33  1  0
  8 34  1  0
 10 35  1  0
 11 36  1  0
 12 37  1  0
 16 38  1  0
 17 39  1  0
 19 40  1  0
 20 41  1  0
 21 42  1  0
 22 43  1  0
 25 44  1  0
 25 45  1  0
 26 46  1  0
 27 47  1  0
 27 48  1  0
 28 49  1  0
 28 50  1  0
 29 51  1  0
 30 52  1  0
 30 53  1  0
 31 54  1  0
 31 55  1  0
M  END
>  <smiles>  (34) 
O=c1c2c(-c3cccs3)cccc2nc(/C=C/c2ccccn2)n1CC1CCNCC1

>  <score_type>  (34) 
oracle

>  <origin>  (34) 
autodockgpu

>  <m_score__min__energy>  (34) 
-7.7699999999999996

>  <m_primary>  (34) 
energy

>  <rmsd>  (34) 
7.682896196047011

>  <m_score__min__rmsd>  (34) 
7.682896196047011

>  <meeko>  (34) 
{"free_energy": -6.88, "intermolecular_energy": -8.66, "internal_energy": -2.24, "cluster_size": 11, "cluster_id": 3, "rank_in_cluster": 6}

>  <energy>  (34) 
-6.68

>  <cluster_rmsd>  (34) 
1.79

>  <cluster>  (34) 
3

$$$$

     RDKit          3D

 55 59  0  0  0  0  0  0  0  0999 V2000
  141.9840   74.6240  218.9750 O   0  0  0  0  0  0  0  0  0  0  0  0
  141.3830   74.4590  220.0460 C   0  0  0  0  0  0  0  0  0  0  0  0
  140.7700   75.4790  220.7130 C   0  0  0  0  0  0  0  0  0  0  0  0
  140.8010   76.7600  220.2360 C   0  0  0  0  0  0  0  0  0  0  0  0
  141.2950   77.2320  219.0030 C   0  0  0  0  0  0  0  0  0  0  0  0
  142.6260   77.5410  218.7390 C   0  0  0  0  0  0  0  0  0  0  0  0
  142.9540   77.9430  217.5160 C   0  0  0  0  0  0  0  0  0  0  0  0
  142.0220   78.0510  216.5460 C   0  0  0  0  0  0  0  0  0  0  0  0
  140.5160   77.5420  217.4100 S   0  0  0  0  0  0  0  0  0  0  0  0
  140.1480   77.7020  221.0610 C   0  0  0  0  0  0  0  0  0  0  0  0
  139.5330   77.3720  222.2320 C   0  0  0  0  0  0  0  0  0  0  0  0
  139.5120   76.0810  222.6880 C   0  0  0  0  0  0  0  0  0  0  0  0
  140.1400   75.1340  221.9120 C   0  0  0  0  0  0  0  0  0  0  0  0
  140.1560   73.8800  222.3430 N   0  0  0  0  0  0  0  0  0  0  0  0
  140.7590   72.8770  221.6830 C   0  0  0  0  0  0  0  0  0  0  0  0
  140.6980   71.5360  222.2460 C   0  0  0  0  0  0  0  0  0  0  0  0
  139.7860   71.2490  223.1540 C   0  0  0  0  0  0  0  0  0  0  0  0
  140.0740   71.0540  224.5670 C   0  0  0  0  0  0  0  0  0  0  0  0
  140.8470   71.8930  225.3230 C   0  0  0  0  0  0  0  0  0  0  0  0
  141.0770   71.6440  226.6630 C   0  0  0  0  0  0  0  0  0  0  0  0
  140.5340   70.5470  227.2760 C   0  0  0  0  0  0  0  0  0  0  0  0
  139.7550   69.7080  226.5040 C   0  0  0  0  0  0  0  0  0  0  0  0
  139.5510   69.9750  225.2090 N   0  0  0  0  0  0  0  0  0  0  0  0
  141.3700   73.1880  220.5320 N   0  0  0  0  0  0  0  0  0  0  0  0
  142.0570   72.1600  219.7860 C   0  0  0  0  0  0  0  0  0  0  0  0
  143.5250   72.3490  219.6400 C   0  0  0  0  0  0  0  0  0  0  0  0
  144.0020   72.9210  218.3510 C   0  0  0  0  0  0  0  0  0  0  0  0
  145.5150   72.9910  218.2790 C   0  0  0  0  0  0  0  0  0  0  0  0
  146.1030   73.0420  219.6040 N   0  0  0  0  0  0  0  0  0  0  0  0
  145.3110   73.8360  220.5190 C   0  0  0  0  0  0  0  0  0  0  0  0
  144.0040   73.1800  220.8350 C   0  0  0  0  0  0  0  0  0  0  0  0
  143.3898   77.4543  219.5258 H   0  0  0  0  0  0  0  0  0  0  0  0
  144.0015   78.1917  217.2905 H   0  0  0  0  0  0  0  0  0  0  0  0
  142.1460   78.3670  215.4997 H   0  0  0  0  0  0  0  0  0  0  0  0
  140.1350   78.7549  220.7427 H   0  0  0  0  0  0  0  0  0  0  0  0
  139.0431   78.1597  222.8233 H   0  0  0  0  0  0  0  0  0  0  0  0
  139.0154   75.8130  223.6322 H   0  0  0  0  0  0  0  0  0  0  0  0
  141.4098   70.7653  221.9153 H   0  0  0  0  0  0  0  0  0  0  0  0
  138.7417   71.1508  222.8225 H   0  0  0  0  0  0  0  0  0  0  0  0
  141.2939   72.7827  224.8552 H   0  0  0  0  0  0  0  0  0  0  0  0
  141.7042   72.3360  227.2441 H   0  0  0  0  0  0  0  0  0  0  0  0
  140.7113   70.3419  228.3421 H   0  0  0  0  0  0  0  0  0  0  0  0
  139.2995   68.8148  226.9564 H   0  0  0  0  0  0  0  0  0  0  0  0
  141.8878   71.2003  220.2962 H   0  0  0  0  0  0  0  0  0  0  0  0
  141.6443   72.1987  218.7671 H   0  0  0  0  0  0  0  0  0  0  0  0
  143.9703   71.3433  219.6247 H   0  0  0  0  0  0  0  0  0  0  0  0
  143.6372   72.2900  217.5271 H   0  0  0  0  0  0  0  0  0  0  0  0
  143.6129   73.9469  218.2729 H   0  0  0  0  0  0  0  0  0  0  0  0
  145.8905   72.1002  217.7542 H   0  0  0  0  0  0  0  0  0  0  0  0
  145.7953   73.9073  217.7389 H   0  0  0  0  0  0  0  0  0  0  0  0
  147.0960   73.2870  219.6020 H   0  0  0  0  0  0  0  0  0  0  0  0
  145.8760   73.9725  221.4529 H   0  0  0  0  0  0  0  0  0  0  0  0
  145.1011   74.8033  220.0392 H   0  0  0  0  0  0  0  0  0  0  0  0
  144.1294   72.5223  221.7077 H   0  0  0  0  0  0  0  0  0  0  0  0
  143.2567   73.9569  221.0539 H   0  0  0  0  0  0  0  0  0  0  0  0
  1  2  2  0
  2  3  1  0
  3  4  2  0
  4  5  1  0
  5  6  2  0
  6  7  1  0
  7  8  2  0
  8  9  1  0
  4 10  1  0
 10 11  2  0
 11 12  1  0
 12 13  2  0
 13 14  1  0
 14 15  2  0
 15 16  1  0
 16 17  2  0
 17 18  1  0
 18 19  2  0
 19 20  1  0
 20 21  2  0
 21 22  1  0
 22 23  2  0
 15 24  1  0
 24 25  1  0
 25 26  1  0
 26 27  1  0
 27 28  1  0
 28 29  1  0
 29 30  1  0
 30 31  1  0
 24  2  1  0
 31 26  1  0
 13  3  1  0
 23 18  1  0
  9  5  1  0
  6 32  1  0
  7 33  1  0
  8 34  1  0
 10 35  1  0
 11 36  1  0
 12 37  1  0
 16 38  1  0
 17 39  1  0
 19 40  1  0
 20 41  1  0
 21 42  1  0
 22 43  1  0
 25 44  1  0
 25 45  1  0
 26 46  1  0
 27 47  1  0
 27 48  1  0
 28 49  1  0
 28 50  1  0
 29 51  1  0
 30 52  1  0
 30 53  1  0
 31 54  1  0
 31 55  1  0
M  END
>  <smiles>  (35) 
O=c1c2c(-c3cccs3)cccc2nc(/C=C/c2ccccn2)n1CC1CCNCC1

>  <score_type>  (35) 
oracle

>  <origin>  (35) 
autodockgpu

>  <m_score__min__energy>  (35) 
-7.7699999999999996

>  <m_primary>  (35) 
energy

>  <rmsd>  (35) 
8.095589281915284

>  <m_score__min__rmsd>  (35) 
8.095589281915284

>  <meeko>  (35) 
{"free_energy": -7.54, "intermolecular_energy": -9.33, "internal_energy": -1.61, "cluster_size": 3, "cluster_id": 2, "rank_in_cluster": 3}

>  <energy>  (35) 
-7.33

>  <cluster_rmsd>  (35) 
0.0

>  <cluster>  (35) 
4

$$$$

     RDKit          3D

 55 59  0  0  0  0  0  0  0  0999 V2000
  141.4250   76.1500  222.1880 O   0  0  0  0  0  0  0  0  0  0  0  0
  140.2470   75.7790  222.0990 C   0  0  0  0  0  0  0  0  0  0  0  0
  139.1900   76.6160  222.3050 C   0  0  0  0  0  0  0  0  0  0  0  0
  139.3780   77.9280  222.6440 C   0  0  0  0  0  0  0  0  0  0  0  0
  140.5810   78.6610  222.7030 C   0  0  0  0  0  0  0  0  0  0  0  0
  141.1430   79.1870  223.8620 C   0  0  0  0  0  0  0  0  0  0  0  0
  142.3030   79.8280  223.7700 C   0  0  0  0  0  0  0  0  0  0  0  0
  142.9290   79.9680  222.5830 C   0  0  0  0  0  0  0  0  0  0  0  0
  141.7950   79.1230  221.4550 S   0  0  0  0  0  0  0  0  0  0  0  0
  138.1830   78.6490  222.8550 C   0  0  0  0  0  0  0  0  0  0  0  0
  136.9440   78.0960  222.7310 C   0  0  0  0  0  0  0  0  0  0  0  0
  136.7790   76.7810  222.3870 C   0  0  0  0  0  0  0  0  0  0  0  0
  137.9210   76.0440  222.1750 C   0  0  0  0  0  0  0  0  0  0  0  0
  137.7910   74.7610  221.8650 N   0  0  0  0  0  0  0  0  0  0  0  0
  138.8340   73.9380  221.6600 C   0  0  0  0  0  0  0  0  0  0  0  0
  138.5690   72.5510  221.3100 C   0  0  0  0  0  0  0  0  0  0  0  0
  138.0770   71.7300  222.2160 C   0  0  0  0  0  0  0  0  0  0  0  0
  138.8220   71.2400  223.3660 C   0  0  0  0  0  0  0  0  0  0  0  0
  138.4740   70.1410  224.1030 C   0  0  0  0  0  0  0  0  0  0  0  0
  139.2320   69.7320  225.1840 C   0  0  0  0  0  0  0  0  0  0  0  0
  140.3580   70.4190  225.5500 C   0  0  0  0  0  0  0  0  0  0  0  0
  140.7000   71.5250  224.8000 C   0  0  0  0  0  0  0  0  0  0  0  0
  139.9470   71.8960  223.7580 N   0  0  0  0  0  0  0  0  0  0  0  0
  140.0590   74.4680  221.7820 N   0  0  0  0  0  0  0  0  0  0  0  0
  141.2210   73.6320  221.5980 C   0  0  0  0  0  0  0  0  0  0  0  0
  142.2530   74.1670  220.6700 C   0  0  0  0  0  0  0  0  0  0  0  0
  143.4600   73.3230  220.4510 C   0  0  0  0  0  0  0  0  0  0  0  0
  144.4790   74.0010  219.5570 C   0  0  0  0  0  0  0  0  0  0  0  0
  143.8530   74.9850  218.6960 N   0  0  0  0  0  0  0  0  0  0  0  0
  142.5510   74.5520  218.2340 C   0  0  0  0  0  0  0  0  0  0  0  0
  141.5540   74.5030  219.3480 C   0  0  0  0  0  0  0  0  0  0  0  0
  140.6381   79.0746  224.8328 H   0  0  0  0  0  0  0  0  0  0  0  0
  142.7605   80.2515  224.6763 H   0  0  0  0  0  0  0  0  0  0  0  0
  143.8832   80.4674  222.3589 H   0  0  0  0  0  0  0  0  0  0  0  0
  138.2557   79.7107  223.1335 H   0  0  0  0  0  0  0  0  0  0  0  0
  136.0562   78.7200  222.9113 H   0  0  0  0  0  0  0  0  0  0  0  0
  135.7790   76.3343  222.2848 H   0  0  0  0  0  0  0  0  0  0  0  0
  138.7785   72.1888  220.2927 H   0  0  0  0  0  0  0  0  0  0  0  0
  137.0367   71.3937  222.0952 H   0  0  0  0  0  0  0  0  0  0  0  0
  137.5733   69.5718  223.8298 H   0  0  0  0  0  0  0  0  0  0  0  0
  138.9268   68.8440  225.7570 H   0  0  0  0  0  0  0  0  0  0  0  0
  140.9668   70.1012  226.4093 H   0  0  0  0  0  0  0  0  0  0  0  0
  141.5973   72.1056  225.0601 H   0  0  0  0  0  0  0  0  0  0  0  0
  141.6923   73.4853  222.5810 H   0  0  0  0  0  0  0  0  0  0  0  0
  140.8548   72.7017  221.1392 H   0  0  0  0  0  0  0  0  0  0  0  0
  142.6799   75.0570  221.1554 H   0  0  0  0  0  0  0  0  0  0  0  0
  143.9270   73.1134  221.4247 H   0  0  0  0  0  0  0  0  0  0  0  0
  143.1380   72.3964  219.9533 H   0  0  0  0  0  0  0  0  0  0  0  0
  145.2304   74.5013  220.1856 H   0  0  0  0  0  0  0  0  0  0  0  0
  144.9492   73.2345  218.9234 H   0  0  0  0  0  0  0  0  0  0  0  0
  144.4620   75.3220  217.9460 H   0  0  0  0  0  0  0  0  0  0  0  0
  142.1936   75.2548  217.4670 H   0  0  0  0  0  0  0  0  0  0  0  0
  142.6544   73.5369  217.8229 H   0  0  0  0  0  0  0  0  0  0  0  0
  141.0600   75.4818  219.4368 H   0  0  0  0  0  0  0  0  0  0  0  0
  140.8086   73.7245  219.1283 H   0  0  0  0  0  0  0  0  0  0  0  0
  1  2  2  0
  2  3  1  0
  3  4  2  0
  4  5  1  0
  5  6  2  0
  6  7  1  0
  7  8  2  0
  8  9  1  0
  4 10  1  0
 10 11  2  0
 11 12  1  0
 12 13  2  0
 13 14  1  0
 14 15  2  0
 15 16  1  0
 16 17  2  0
 17 18  1  0
 18 19  2  0
 19 20  1  0
 20 21  2  0
 21 22  1  0
 22 23  2  0
 15 24  1  0
 24 25  1  0
 25 26  1  0
 26 27  1  0
 27 28  1  0
 28 29  1  0
 29 30  1  0
 30 31  1  0
 24  2  1  0
 31 26  1  0
 13  3  1  0
 23 18  1  0
  9  5  1  0
  6 32  1  0
  7 33  1  0
  8 34  1  0
 10 35  1  0
 11 36  1  0
 12 37  1  0
 16 38  1  0
 17 39  1  0
 19 40  1  0
 20 41  1  0
 21 42  1  0
 22 43  1  0
 25 44  1  0
 25 45  1  0
 26 46  1  0
 27 47  1  0
 27 48  1  0
 28 49  1  0
 28 50  1  0
 29 51  1  0
 30 52  1  0
 30 53  1  0
 31 54  1  0
 31 55  1  0
M  END
>  <smiles>  (36) 
O=c1c2c(-c3cccs3)cccc2nc(/C=C/c2ccccn2)n1CC1CCNCC1

>  <score_type>  (36) 
oracle

>  <origin>  (36) 
autodockgpu

>  <m_score__min__energy>  (36) 
-7.7699999999999996

>  <m_primary>  (36) 
energy

>  <rmsd>  (36) 
7.803512740557853

>  <m_score__min__rmsd>  (36) 
7.803512740557853

>  <meeko>  (36) 
{"free_energy": -7.41, "intermolecular_energy": -9.2, "internal_energy": -1.72, "cluster_size": 11, "cluster_id": 3, "rank_in_cluster": 2}

>  <energy>  (36) 
-7.31

>  <cluster_rmsd>  (36) 
0.11

>  <cluster>  (36) 
4

$$$$

     RDKit          3D

 55 59  0  0  0  0  0  0  0  0999 V2000
  142.0120   76.9860  220.7830 O   0  0  0  0  0  0  0  0  0  0  0  0
  141.0150   76.2540  220.8470 C   0  0  0  0  0  0  0  0  0  0  0  0
  139.9190   76.5600  221.6000 C   0  0  0  0  0  0  0  0  0  0  0  0
  139.8690   77.7030  222.3490 C   0  0  0  0  0  0  0  0  0  0  0  0
  140.7840   78.7750  222.3870 C   0  0  0  0  0  0  0  0  0  0  0  0
  141.7240   78.9910  223.3900 C   0  0  0  0  0  0  0  0  0  0  0  0
  142.5480   80.0270  223.2760 C   0  0  0  0  0  0  0  0  0  0  0  0
  142.4800   80.8560  222.2120 C   0  0  0  0  0  0  0  0  0  0  0  0
  141.1280   80.1310  221.2540 S   0  0  0  0  0  0  0  0  0  0  0  0
  138.6810   77.8550  223.0960 C   0  0  0  0  0  0  0  0  0  0  0  0
  137.6630   76.9480  223.0760 C   0  0  0  0  0  0  0  0  0  0  0  0
  137.7340   75.8120  222.3140 C   0  0  0  0  0  0  0  0  0  0  0  0
  138.8790   75.6280  221.5740 C   0  0  0  0  0  0  0  0  0  0  0  0
  138.9840   74.5230  220.8470 N   0  0  0  0  0  0  0  0  0  0  0  0
  140.0630   74.2240  220.1040 C   0  0  0  0  0  0  0  0  0  0  0  0
  140.0600   72.9890  219.3350 C   0  0  0  0  0  0  0  0  0  0  0  0
  140.3030   71.8420  219.9370 C   0  0  0  0  0  0  0  0  0  0  0  0
  140.0950   71.6040  221.3580 C   0  0  0  0  0  0  0  0  0  0  0  0
  140.8860   72.1140  222.3520 C   0  0  0  0  0  0  0  0  0  0  0  0
  140.6270   71.8460  223.6830 C   0  0  0  0  0  0  0  0  0  0  0  0
  139.5660   71.0600  224.0460 C   0  0  0  0  0  0  0  0  0  0  0  0
  138.7750   70.5530  223.0360 C   0  0  0  0  0  0  0  0  0  0  0  0
  139.0510   70.8300  221.7560 N   0  0  0  0  0  0  0  0  0  0  0  0
  141.0730   75.1050  220.1180 N   0  0  0  0  0  0  0  0  0  0  0  0
  142.2710   74.8320  219.3600 C   0  0  0  0  0  0  0  0  0  0  0  0
  143.2680   73.9580  220.0340 C   0  0  0  0  0  0  0  0  0  0  0  0
  143.7350   72.7650  219.2750 C   0  0  0  0  0  0  0  0  0  0  0  0
  144.6820   71.9040  220.0870 C   0  0  0  0  0  0  0  0  0  0  0  0
  145.3430   72.6770  221.1200 N   0  0  0  0  0  0  0  0  0  0  0  0
  145.6680   74.0140  220.6730 C   0  0  0  0  0  0  0  0  0  0  0  0
  144.4410   74.8440  220.4660 C   0  0  0  0  0  0  0  0  0  0  0  0
  141.7836   78.3186  224.2585 H   0  0  0  0  0  0  0  0  0  0  0  0
  143.2969   80.2123  224.0601 H   0  0  0  0  0  0  0  0  0  0  0  0
  143.0896   81.7433  221.9863 H   0  0  0  0  0  0  0  0  0  0  0  0
  138.5709   78.7501  223.7259 H   0  0  0  0  0  0  0  0  0  0  0  0
  136.7656   77.1326  223.6848 H   0  0  0  0  0  0  0  0  0  0  0  0
  136.9129   75.0802  222.2946 H   0  0  0  0  0  0  0  0  0  0  0  0
  139.8555   73.0125  218.2544 H   0  0  0  0  0  0  0  0  0  0  0  0
  140.6875   71.0115  219.3267 H   0  0  0  0  0  0  0  0  0  0  0  0
  141.7440   72.7491  222.0865 H   0  0  0  0  0  0  0  0  0  0  0  0
  141.2809   72.2691  224.4598 H   0  0  0  0  0  0  0  0  0  0  0  0
  139.3526   70.8413  225.1027 H   0  0  0  0  0  0  0  0  0  0  0  0
  137.9123   69.9173  223.2841 H   0  0  0  0  0  0  0  0  0  0  0  0
  141.9738   74.3449  218.4196 H   0  0  0  0  0  0  0  0  0  0  0  0
  142.7671   75.8034  219.2177 H   0  0  0  0  0  0  0  0  0  0  0  0
  142.7534   73.4989  220.8910 H   0  0  0  0  0  0  0  0  0  0  0  0
  142.8606   72.1603  218.9925 H   0  0  0  0  0  0  0  0  0  0  0  0
  144.2792   73.1211  218.3878 H   0  0  0  0  0  0  0  0  0  0  0  0
  144.1113   71.0903  220.5584 H   0  0  0  0  0  0  0  0  0  0  0  0
  145.4500   71.5002  219.4109 H   0  0  0  0  0  0  0  0  0  0  0  0
  146.1280   72.1890  221.5590 H   0  0  0  0  0  0  0  0  0  0  0  0
  146.3020   74.4984  221.4303 H   0  0  0  0  0  0  0  0  0  0  0  0
  146.1934   73.9343  219.7099 H   0  0  0  0  0  0  0  0  0  0  0  0
  144.1842   75.3533  221.4066 H   0  0  0  0  0  0  0  0  0  0  0  0
  144.6388   75.5859  219.6783 H   0  0  0  0  0  0  0  0  0  0  0  0
  1  2  2  0
  2  3  1  0
  3  4  2  0
  4  5  1  0
  5  6  2  0
  6  7  1  0
  7  8  2  0
  8  9  1  0
  4 10  1  0
 10 11  2  0
 11 12  1  0
 12 13  2  0
 13 14  1  0
 14 15  2  0
 15 16  1  0
 16 17  2  0
 17 18  1  0
 18 19  2  0
 19 20  1  0
 20 21  2  0
 21 22  1  0
 22 23  2  0
 15 24  1  0
 24 25  1  0
 25 26  1  0
 26 27  1  0
 27 28  1  0
 28 29  1  0
 29 30  1  0
 30 31  1  0
 24  2  1  0
 31 26  1  0
 13  3  1  0
 23 18  1  0
  9  5  1  0
  6 32  1  0
  7 33  1  0
  8 34  1  0
 10 35  1  0
 11 36  1  0
 12 37  1  0
 16 38  1  0
 17 39  1  0
 19 40  1  0
 20 41  1  0
 21 42  1  0
 22 43  1  0
 25 44  1  0
 25 45  1  0
 26 46  1  0
 27 47  1  0
 27 48  1  0
 28 49  1  0
 28 50  1  0
 29 51  1  0
 30 52  1  0
 30 53  1  0
 31 54  1  0
 31 55  1  0
M  END
>  <smiles>  (37) 
O=c1c2c(-c3cccs3)cccc2nc(/C=C/c2ccccn2)n1CC1CCNCC1

>  <score_type>  (37) 
oracle

>  <origin>  (37) 
autodockgpu

>  <m_score__min__energy>  (37) 
-7.7699999999999996

>  <m_primary>  (37) 
energy

>  <rmsd>  (37) 
7.643663878463364

>  <m_score__min__rmsd>  (37) 
7.643663878463364

>  <meeko>  (37) 
{"free_energy": -6.83, "intermolecular_energy": -8.62, "internal_energy": -2.29, "cluster_size": 11, "cluster_id": 3, "rank_in_cluster": 7}

>  <energy>  (37) 
-7.3

>  <cluster_rmsd>  (37) 
0.1

>  <cluster>  (37) 
4

$$$$

     RDKit          3D

 55 59  0  0  0  0  0  0  0  0999 V2000
  135.7400   73.0510  223.3710 O   0  0  0  0  0  0  0  0  0  0  0  0
  135.6930   71.9030  223.8350 C   0  0  0  0  0  0  0  0  0  0  0  0
  134.9940   71.5900  224.9640 C   0  0  0  0  0  0  0  0  0  0  0  0
  134.3110   72.5460  225.6650 C   0  0  0  0  0  0  0  0  0  0  0  0
  134.0820   73.8950  225.3250 C   0  0  0  0  0  0  0  0  0  0  0  0
  132.8360   74.4530  225.0590 C   0  0  0  0  0  0  0  0  0  0  0  0
  132.7670   75.7520  224.7860 C   0  0  0  0  0  0  0  0  0  0  0  0
  133.8780   76.5190  224.7670 C   0  0  0  0  0  0  0  0  0  0  0  0
  135.1720   75.3200  225.1700 S   0  0  0  0  0  0  0  0  0  0  0  0
  133.6680   72.0650  226.8260 C   0  0  0  0  0  0  0  0  0  0  0  0
  133.7170   70.7620  227.2220 C   0  0  0  0  0  0  0  0  0  0  0  0
  134.4050   69.8210  226.5030 C   0  0  0  0  0  0  0  0  0  0  0  0
  135.0460   70.2520  225.3650 C   0  0  0  0  0  0  0  0  0  0  0  0
  135.7400   69.3670  224.6630 N   0  0  0  0  0  0  0  0  0  0  0  0
  136.4260   69.6770  223.5500 C   0  0  0  0  0  0  0  0  0  0  0  0
  137.1400   68.6180  222.8530 C   0  0  0  0  0  0  0  0  0  0  0  0
  138.3950   68.3590  223.1660 C   0  0  0  0  0  0  0  0  0  0  0  0
  138.9920   68.6540  224.4590 C   0  0  0  0  0  0  0  0  0  0  0  0
  139.3670   69.9040  224.8710 C   0  0  0  0  0  0  0  0  0  0  0  0
  139.9290   70.1110  226.1180 C   0  0  0  0  0  0  0  0  0  0  0  0
  140.1280   69.0650  226.9790 C   0  0  0  0  0  0  0  0  0  0  0  0
  139.7460   67.8090  226.5530 C   0  0  0  0  0  0  0  0  0  0  0  0
  139.2040   67.6410  225.3410 N   0  0  0  0  0  0  0  0  0  0  0  0
  136.3910   70.9560  223.1510 N   0  0  0  0  0  0  0  0  0  0  0  0
  137.1260   71.3590  221.9760 C   0  0  0  0  0  0  0  0  0  0  0  0
  138.3050   72.2300  222.2270 C   0  0  0  0  0  0  0  0  0  0  0  0
  139.6410   71.6650  221.8900 C   0  0  0  0  0  0  0  0  0  0  0  0
  140.7710   72.6040  222.2640 C   0  0  0  0  0  0  0  0  0  0  0  0
  140.3190   73.9800  222.3120 N   0  0  0  0  0  0  0  0  0  0  0  0
  139.3540   74.2710  221.2730 C   0  0  0  0  0  0  0  0  0  0  0  0
  138.0580   73.5590  221.5040 C   0  0  0  0  0  0  0  0  0  0  0  0
  131.9276   73.8329  225.0743 H   0  0  0  0  0  0  0  0  0  0  0  0
  131.7896   76.2092  224.5722 H   0  0  0  0  0  0  0  0  0  0  0  0
  133.9722   77.5952  224.5599 H   0  0  0  0  0  0  0  0  0  0  0  0
  133.0992   72.7774  227.4416 H   0  0  0  0  0  0  0  0  0  0  0  0
  133.1920   70.4591  228.1400 H   0  0  0  0  0  0  0  0  0  0  0  0
  134.4432   68.7687  226.8211 H   0  0  0  0  0  0  0  0  0  0  0  0
  136.6352   68.0356  222.0681 H   0  0  0  0  0  0  0  0  0  0  0  0
  139.0305   67.8901  222.4003 H   0  0  0  0  0  0  0  0  0  0  0  0
  139.2186   70.7609  224.1974 H   0  0  0  0  0  0  0  0  0  0  0  0
  140.2194   71.1277  226.4214 H   0  0  0  0  0  0  0  0  0  0  0  0
  140.5751   69.2198  227.9720 H   0  0  0  0  0  0  0  0  0  0  0  0
  139.8879   66.9410  227.2136 H   0  0  0  0  0  0  0  0  0  0  0  0
  137.4785   70.4493  221.4680 H   0  0  0  0  0  0  0  0  0  0  0  0
  136.4285   71.9602  221.3743 H   0  0  0  0  0  0  0  0  0  0  0  0
  138.3764   72.3535  223.3177 H   0  0  0  0  0  0  0  0  0  0  0  0
  139.7726   70.7181  222.4340 H   0  0  0  0  0  0  0  0  0  0  0  0
  139.6772   71.5099  220.8016 H   0  0  0  0  0  0  0  0  0  0  0  0
  141.1602   72.3201  223.2529 H   0  0  0  0  0  0  0  0  0  0  0  0
  141.5567   72.5235  221.4984 H   0  0  0  0  0  0  0  0  0  0  0  0
  141.0820   74.6610  222.3640 H   0  0  0  0  0  0  0  0  0  0  0  0
  139.1666   75.3548  221.2543 H   0  0  0  0  0  0  0  0  0  0  0  0
  139.7684   73.9252  220.3145 H   0  0  0  0  0  0  0  0  0  0  0  0
  137.4011   74.1909  222.1198 H   0  0  0  0  0  0  0  0  0  0  0  0
  137.5822   73.3562  220.5332 H   0  0  0  0  0  0  0  0  0  0  0  0
  1  2  2  0
  2  3  1  0
  3  4  2  0
  4  5  1  0
  5  6  2  0
  6  7  1  0
  7  8  2  0
  8  9  1  0
  4 10  1  0
 10 11  2  0
 11 12  1  0
 12 13  2  0
 13 14  1  0
 14 15  2  0
 15 16  1  0
 16 17  2  0
 17 18  1  0
 18 19  2  0
 19 20  1  0
 20 21  2  0
 21 22  1  0
 22 23  2  0
 15 24  1  0
 24 25  1  0
 25 26  1  0
 26 27  1  0
 27 28  1  0
 28 29  1  0
 29 30  1  0
 30 31  1  0
 24  2  1  0
 31 26  1  0
 13  3  1  0
 23 18  1  0
  9  5  1  0
  6 32  1  0
  7 33  1  0
  8 34  1  0
 10 35  1  0
 11 36  1  0
 12 37  1  0
 16 38  1  0
 17 39  1  0
 19 40  1  0
 20 41  1  0
 21 42  1  0
 22 43  1  0
 25 44  1  0
 25 45  1  0
 26 46  1  0
 27 47  1  0
 27 48  1  0
 28 49  1  0
 28 50  1  0
 29 51  1  0
 30 52  1  0
 30 53  1  0
 31 54  1  0
 31 55  1  0
M  END
>  <smiles>  (38) 
O=c1c2c(-c3cccs3)cccc2nc(/C=C/c2ccccn2)n1CC1CCNCC1

>  <score_type>  (38) 
oracle

>  <origin>  (38) 
autodockgpu

>  <m_score__min__energy>  (38) 
-7.7699999999999996

>  <m_primary>  (38) 
energy

>  <rmsd>  (38) 
6.078837023740403

>  <m_score__min__rmsd>  (38) 
6.078837023740403

>  <meeko>  (38) 
{"free_energy": -7.19, "intermolecular_energy": -8.98, "internal_energy": -2.23, "cluster_size": 10, "cluster_id": 4, "rank_in_cluster": 5}

>  <energy>  (38) 
-7.19

>  <cluster_rmsd>  (38) 
0.19

>  <cluster>  (38) 
4

$$$$

     RDKit          3D

 55 59  0  0  0  0  0  0  0  0999 V2000
  137.0770   69.3370  225.6060 O   0  0  0  0  0  0  0  0  0  0  0  0
  137.0920   70.0940  224.6250 C   0  0  0  0  0  0  0  0  0  0  0  0
  138.2280   70.7010  224.1760 C   0  0  0  0  0  0  0  0  0  0  0  0
  139.4280   70.5160  224.8060 C   0  0  0  0  0  0  0  0  0  0  0  0
  139.7470   69.6340  225.8580 C   0  0  0  0  0  0  0  0  0  0  0  0
  139.9530   68.2650  225.7200 C   0  0  0  0  0  0  0  0  0  0  0  0
  140.2840   67.5610  226.7980 C   0  0  0  0  0  0  0  0  0  0  0  0
  140.4190   68.1550  228.0020 C   0  0  0  0  0  0  0  0  0  0  0  0
  140.0500   69.8830  227.6150 S   0  0  0  0  0  0  0  0  0  0  0  0
  140.4980   71.2410  224.2370 C   0  0  0  0  0  0  0  0  0  0  0  0
  140.3580   72.0540  223.1520 C   0  0  0  0  0  0  0  0  0  0  0  0
  139.1470   72.2200  222.5360 C   0  0  0  0  0  0  0  0  0  0  0  0
  138.0790   71.5320  223.0620 C   0  0  0  0  0  0  0  0  0  0  0  0
  136.8890   71.6940  222.5000 N   0  0  0  0  0  0  0  0  0  0  0  0
  135.7710   71.0940  222.9420 C   0  0  0  0  0  0  0  0  0  0  0  0
  134.5230   71.3360  222.2350 C   0  0  0  0  0  0  0  0  0  0  0  0
  134.0170   72.5530  222.1980 C   0  0  0  0  0  0  0  0  0  0  0  0
  134.1910   73.5430  223.2500 C   0  0  0  0  0  0  0  0  0  0  0  0
  135.3830   74.1350  223.5660 C   0  0  0  0  0  0  0  0  0  0  0  0
  135.4740   75.0710  224.5800 C   0  0  0  0  0  0  0  0  0  0  0  0
  134.3670   75.4330  225.2990 C   0  0  0  0  0  0  0  0  0  0  0  0
  133.1690   74.8300  224.9710 C   0  0  0  0  0  0  0  0  0  0  0  0
  133.1140   73.9280  223.9850 N   0  0  0  0  0  0  0  0  0  0  0  0
  135.8930   70.2950  224.0110 N   0  0  0  0  0  0  0  0  0  0  0  0
  134.7260   69.6380  224.5510 C   0  0  0  0  0  0  0  0  0  0  0  0
  134.1010   70.3080  225.7220 C   0  0  0  0  0  0  0  0  0  0  0  0
  134.3490   71.7680  225.8710 C   0  0  0  0  0  0  0  0  0  0  0  0
  133.7360   72.3270  227.1410 C   0  0  0  0  0  0  0  0  0  0  0  0
  132.6250   71.5130  227.5920 N   0  0  0  0  0  0  0  0  0  0  0  0
  131.8410   71.0030  226.4870 C   0  0  0  0  0  0  0  0  0  0  0  0
  132.6010   69.9930  225.6870 C   0  0  0  0  0  0  0  0  0  0  0  0
  139.8444   67.7760  224.7407 H   0  0  0  0  0  0  0  0  0  0  0  0
  140.4504   66.4775  226.7071 H   0  0  0  0  0  0  0  0  0  0  0  0
  140.6850   67.7045  228.9696 H   0  0  0  0  0  0  0  0  0  0  0  0
  141.4947   71.1447  224.6924 H   0  0  0  0  0  0  0  0  0  0  0  0
  141.2373   72.5883  222.7630 H   0  0  0  0  0  0  0  0  0  0  0  0
  139.0333   72.8746  221.6593 H   0  0  0  0  0  0  0  0  0  0  0  0
  134.0032   70.5066  221.7330 H   0  0  0  0  0  0  0  0  0  0  0  0
  133.4255   72.8381  221.3154 H   0  0  0  0  0  0  0  0  0  0  0  0
  136.2871   73.8611  223.0024 H   0  0  0  0  0  0  0  0  0  0  0  0
  136.4467   75.5296  224.8113 H   0  0  0  0  0  0  0  0  0  0  0  0
  134.4294   76.1762  226.1075 H   0  0  0  0  0  0  0  0  0  0  0  0
  132.2549   75.0929  225.5236 H   0  0  0  0  0  0  0  0  0  0  0  0
  133.9716   69.5763  223.7528 H   0  0  0  0  0  0  0  0  0  0  0  0
  135.0700   68.6572  224.9112 H   0  0  0  0  0  0  0  0  0  0  0  0
  134.5938   69.8990  226.6163 H   0  0  0  0  0  0  0  0  0  0  0  0
  135.4349   71.9421  225.8954 H   0  0  0  0  0  0  0  0  0  0  0  0
  133.8806   72.2789  225.0168 H   0  0  0  0  0  0  0  0  0  0  0  0
  134.5039   72.3530  227.9282 H   0  0  0  0  0  0  0  0  0  0  0  0
  133.3613   73.3393  226.9293 H   0  0  0  0  0  0  0  0  0  0  0  0
  132.0620   71.9560  228.3230 H   0  0  0  0  0  0  0  0  0  0  0  0
  130.9305   70.5307  226.8844 H   0  0  0  0  0  0  0  0  0  0  0  0
  131.5923   71.8463  225.8259 H   0  0  0  0  0  0  0  0  0  0  0  0
  132.4302   68.9919  226.1096 H   0  0  0  0  0  0  0  0  0  0  0  0
  132.2522   70.0256  224.6443 H   0  0  0  0  0  0  0  0  0  0  0  0
  1  2  2  0
  2  3  1  0
  3  4  2  0
  4  5  1  0
  5  6  2  0
  6  7  1  0
  7  8  2  0
  8  9  1  0
  4 10  1  0
 10 11  2  0
 11 12  1  0
 12 13  2  0
 13 14  1  0
 14 15  2  0
 15 16  1  0
 16 17  2  0
 17 18  1  0
 18 19  2  0
 19 20  1  0
 20 21  2  0
 21 22  1  0
 22 23  2  0
 15 24  1  0
 24 25  1  0
 25 26  1  0
 26 27  1  0
 27 28  1  0
 28 29  1  0
 29 30  1  0
 30 31  1  0
 24  2  1  0
 31 26  1  0
 13  3  1  0
 23 18  1  0
  9  5  1  0
  6 32  1  0
  7 33  1  0
  8 34  1  0
 10 35  1  0
 11 36  1  0
 12 37  1  0
 16 38  1  0
 17 39  1  0
 19 40  1  0
 20 41  1  0
 21 42  1  0
 22 43  1  0
 25 44  1  0
 25 45  1  0
 26 46  1  0
 27 47  1  0
 27 48  1  0
 28 49  1  0
 28 50  1  0
 29 51  1  0
 30 52  1  0
 30 53  1  0
 31 54  1  0
 31 55  1  0
M  END
>  <smiles>  (39) 
O=c1c2c(-c3cccs3)cccc2nc(/C=C/c2ccccn2)n1CC1CCNCC1

>  <score_type>  (39) 
oracle

>  <origin>  (39) 
autodockgpu

>  <m_score__min__energy>  (39) 
-7.7699999999999996

>  <m_primary>  (39) 
energy

>  <rmsd>  (39) 
4.822153271430226

>  <m_score__min__rmsd>  (39) 
4.822153271430226

>  <meeko>  (39) 
{"free_energy": -6.5, "intermolecular_energy": -8.29, "internal_energy": -2.53, "cluster_size": 4, "cluster_id": 6, "rank_in_cluster": 4}

>  <energy>  (39) 
-7.19

>  <cluster_rmsd>  (39) 
0.59

>  <cluster>  (39) 
4

$$$$

     RDKit          3D

 55 59  0  0  0  0  0  0  0  0999 V2000
  143.0150   75.8680  220.3180 O   0  0  0  0  0  0  0  0  0  0  0  0
  141.9340   75.5820  220.8540 C   0  0  0  0  0  0  0  0  0  0  0  0
  141.5800   74.3030  221.1650 C   0  0  0  0  0  0  0  0  0  0  0  0
  142.4040   73.2480  220.8830 C   0  0  0  0  0  0  0  0  0  0  0  0
  143.7260   73.2670  220.3950 C   0  0  0  0  0  0  0  0  0  0  0  0
  144.0850   73.2150  219.0520 C   0  0  0  0  0  0  0  0  0  0  0  0
  145.3740   73.2770  218.7360 C   0  0  0  0  0  0  0  0  0  0  0  0
  146.3200   73.3890  219.6920 C   0  0  0  0  0  0  0  0  0  0  0  0
  145.3280   73.4110  221.2050 S   0  0  0  0  0  0  0  0  0  0  0  0
  141.8760   71.9880  221.2380 C   0  0  0  0  0  0  0  0  0  0  0  0
  140.6520   71.8260  221.8160 C   0  0  0  0  0  0  0  0  0  0  0  0
  139.8450   72.8970  222.0920 C   0  0  0  0  0  0  0  0  0  0  0  0
  140.3250   74.1420  221.7590 C   0  0  0  0  0  0  0  0  0  0  0  0
  139.5530   75.1950  221.9920 N   0  0  0  0  0  0  0  0  0  0  0  0
  139.9050   76.4560  221.6870 C   0  0  0  0  0  0  0  0  0  0  0  0
  138.9810   77.5340  222.0040 C   0  0  0  0  0  0  0  0  0  0  0  0
  139.1850   78.2760  223.0750 C   0  0  0  0  0  0  0  0  0  0  0  0
  140.2720   79.2330  223.2120 C   0  0  0  0  0  0  0  0  0  0  0  0
  140.1610   80.5730  222.9600 C   0  0  0  0  0  0  0  0  0  0  0  0
  141.2390   81.4250  223.1130 C   0  0  0  0  0  0  0  0  0  0  0  0
  142.4550   80.9490  223.5240 C   0  0  0  0  0  0  0  0  0  0  0  0
  142.5560   79.5960  223.7770 C   0  0  0  0  0  0  0  0  0  0  0  0
  141.4940   78.7970  223.6200 N   0  0  0  0  0  0  0  0  0  0  0  0
  141.1040   76.6290  221.1150 N   0  0  0  0  0  0  0  0  0  0  0  0
  141.5330   77.9560  220.7400 C   0  0  0  0  0  0  0  0  0  0  0  0
  141.9890   78.1070  219.3330 C   0  0  0  0  0  0  0  0  0  0  0  0
  141.1520   77.4600  218.2840 C   0  0  0  0  0  0  0  0  0  0  0  0
  141.7540   77.6060  216.9000 C   0  0  0  0  0  0  0  0  0  0  0  0
  142.6280   78.7600  216.8240 N   0  0  0  0  0  0  0  0  0  0  0  0
  142.1200   79.8770  217.5930 C   0  0  0  0  0  0  0  0  0  0  0  0
  142.1680   79.6050  219.0640 C   0  0  0  0  0  0  0  0  0  0  0  0
  143.3182   73.1245  218.2686 H   0  0  0  0  0  0  0  0  0  0  0  0
  145.6748   73.2364  217.6787 H   0  0  0  0  0  0  0  0  0  0  0  0
  147.4126   73.4509  219.5802 H   0  0  0  0  0  0  0  0  0  0  0  0
  142.4824   71.0922  221.0384 H   0  0  0  0  0  0  0  0  0  0  0  0
  140.3051   70.8125  222.0661 H   0  0  0  0  0  0  0  0  0  0  0  0
  138.8575   72.7675  222.5589 H   0  0  0  0  0  0  0  0  0  0  0  0
  138.1160   77.7294  221.3532 H   0  0  0  0  0  0  0  0  0  0  0  0
  138.4884   78.1641  223.9190 H   0  0  0  0  0  0  0  0  0  0  0  0
  139.1945   80.9808  222.6290 H   0  0  0  0  0  0  0  0  0  0  0  0
  141.1182   82.4978  222.9021 H   0  0  0  0  0  0  0  0  0  0  0  0
  143.3184   81.6192  223.6478 H   0  0  0  0  0  0  0  0  0  0  0  0
  143.5149   79.1720  224.1096 H   0  0  0  0  0  0  0  0  0  0  0  0
  140.6883   78.6427  220.8982 H   0  0  0  0  0  0  0  0  0  0  0  0
  142.4088   78.1790  221.3671 H   0  0  0  0  0  0  0  0  0  0  0  0
  142.9346   77.5514  219.2490 H   0  0  0  0  0  0  0  0  0  0  0  0
  141.0564   76.3893  218.5176 H   0  0  0  0  0  0  0  0  0  0  0  0
  140.1712   77.9580  218.2798 H   0  0  0  0  0  0  0  0  0  0  0  0
  142.3338   76.7014  216.6644 H   0  0  0  0  0  0  0  0  0  0  0  0
  140.9352   77.7429  216.1783 H   0  0  0  0  0  0  0  0  0  0  0  0
  142.8960   79.0090  215.8690 H   0  0  0  0  0  0  0  0  0  0  0  0
  142.7296   80.7663  217.3750 H   0  0  0  0  0  0  0  0  0  0  0  0
  141.0698   80.0391  217.3088 H   0  0  0  0  0  0  0  0  0  0  0  0
  143.1400   79.9317  219.4621 H   0  0  0  0  0  0  0  0  0  0  0  0
  141.3545   80.1572  219.5571 H   0  0  0  0  0  0  0  0  0  0  0  0
  1  2  2  0
  2  3  1  0
  3  4  2  0
  4  5  1  0
  5  6  2  0
  6  7  1  0
  7  8  2  0
  8  9  1  0
  4 10  1  0
 10 11  2  0
 11 12  1  0
 12 13  2  0
 13 14  1  0
 14 15  2  0
 15 16  1  0
 16 17  2  0
 17 18  1  0
 18 19  2  0
 19 20  1  0
 20 21  2  0
 21 22  1  0
 22 23  2  0
 15 24  1  0
 24 25  1  0
 25 26  1  0
 26 27  1  0
 27 28  1  0
 28 29  1  0
 29 30  1  0
 30 31  1  0
 24  2  1  0
 31 26  1  0
 13  3  1  0
 23 18  1  0
  9  5  1  0
  6 32  1  0
  7 33  1  0
  8 34  1  0
 10 35  1  0
 11 36  1  0
 12 37  1  0
 16 38  1  0
 17 39  1  0
 19 40  1  0
 20 41  1  0
 21 42  1  0
 22 43  1  0
 25 44  1  0
 25 45  1  0
 26 46  1  0
 27 47  1  0
 27 48  1  0
 28 49  1  0
 28 50  1  0
 29 51  1  0
 30 52  1  0
 30 53  1  0
 31 54  1  0
 31 55  1  0
M  END
>  <smiles>  (40) 
O=c1c2c(-c3cccs3)cccc2nc(/C=C/c2ccccn2)n1CC1CCNCC1

>  <score_type>  (40) 
oracle

>  <origin>  (40) 
autodockgpu

>  <m_score__min__energy>  (40) 
-7.7699999999999996

>  <m_primary>  (40) 
energy

>  <rmsd>  (40) 
6.510992071373607

>  <m_score__min__rmsd>  (40) 
6.510992071373607

>  <meeko>  (40) 
{"free_energy": -7.58, "intermolecular_energy": -9.37, "internal_energy": -1.89, "cluster_size": 20, "cluster_id": 1, "rank_in_cluster": 15}

>  <energy>  (40) 
-7.19

>  <cluster_rmsd>  (40) 
0.57

>  <cluster>  (40) 
4

$$$$

     RDKit          3D

 55 59  0  0  0  0  0  0  0  0999 V2000
  137.0360   69.6020  225.3020 O   0  0  0  0  0  0  0  0  0  0  0  0
  137.1230   70.3800  224.3410 C   0  0  0  0  0  0  0  0  0  0  0  0
  138.3080   70.9120  223.9260 C   0  0  0  0  0  0  0  0  0  0  0  0
  139.4810   70.6240  224.5680 C   0  0  0  0  0  0  0  0  0  0  0  0
  139.7160   69.6940  225.6010 C   0  0  0  0  0  0  0  0  0  0  0  0
  139.7650   68.3130  225.4400 C   0  0  0  0  0  0  0  0  0  0  0  0
  140.0320   67.5590  226.5010 C   0  0  0  0  0  0  0  0  0  0  0  0
  140.2530   68.1140  227.7110 C   0  0  0  0  0  0  0  0  0  0  0  0
  140.0740   69.8780  227.3560 S   0  0  0  0  0  0  0  0  0  0  0  0
  140.6110   71.2810  224.0350 C   0  0  0  0  0  0  0  0  0  0  0  0
  140.5490   72.1290  222.9700 C   0  0  0  0  0  0  0  0  0  0  0  0
  139.3640   72.4000  222.3400 C   0  0  0  0  0  0  0  0  0  0  0  0
  138.2400   71.7790  222.8320 C   0  0  0  0  0  0  0  0  0  0  0  0
  137.0750   72.0440  222.2560 N   0  0  0  0  0  0  0  0  0  0  0  0
  135.9080   71.5160  222.6650 C   0  0  0  0  0  0  0  0  0  0  0  0
  134.6940   71.8680  221.9460 C   0  0  0  0  0  0  0  0  0  0  0  0
  134.0660   72.9920  222.2310 C   0  0  0  0  0  0  0  0  0  0  0  0
  134.3390   73.8050  223.4060 C   0  0  0  0  0  0  0  0  0  0  0  0
  135.4940   74.5120  223.6070 C   0  0  0  0  0  0  0  0  0  0  0  0
  135.6840   75.2660  224.7500 C   0  0  0  0  0  0  0  0  0  0  0  0
  134.7170   75.3280  225.7180 C   0  0  0  0  0  0  0  0  0  0  0  0
  133.5570   74.6120  225.5040 C   0  0  0  0  0  0  0  0  0  0  0  0
  133.4020   73.8920  224.3870 N   0  0  0  0  0  0  0  0  0  0  0  0
  135.9530   70.6840  223.7140 N   0  0  0  0  0  0  0  0  0  0  0  0
  134.7320   70.1020  224.2190 C   0  0  0  0  0  0  0  0  0  0  0  0
  133.9870   70.9330  225.2030 C   0  0  0  0  0  0  0  0  0  0  0  0
  132.5250   70.6800  225.3220 C   0  0  0  0  0  0  0  0  0  0  0  0
  131.8550   71.6370  226.2890 C   0  0  0  0  0  0  0  0  0  0  0  0
  132.8000   72.1540  227.2580 N   0  0  0  0  0  0  0  0  0  0  0  0
  133.7620   71.1520  227.6670 C   0  0  0  0  0  0  0  0  0  0  0  0
  134.6950   70.7910  226.5550 C   0  0  0  0  0  0  0  0  0  0  0  0
  139.5866   67.8553  224.4558 H   0  0  0  0  0  0  0  0  0  0  0  0
  140.0735   66.4653  226.3913 H   0  0  0  0  0  0  0  0  0  0  0  0
  140.4828   67.6205  228.6669 H   0  0  0  0  0  0  0  0  0  0  0  0
  141.5901   71.0995  224.5024 H   0  0  0  0  0  0  0  0  0  0  0  0
  141.4717   72.6064  222.6084 H   0  0  0  0  0  0  0  0  0  0  0  0
  139.3133   73.0833  221.4795 H   0  0  0  0  0  0  0  0  0  0  0  0
  134.3007   71.1987  221.1667 H   0  0  0  0  0  0  0  0  0  0  0  0
  133.2861   73.3367  221.5361 H   0  0  0  0  0  0  0  0  0  0  0  0
  136.2860   74.4795  222.8444 H   0  0  0  0  0  0  0  0  0  0  0  0
  136.6232   75.8229  224.8837 H   0  0  0  0  0  0  0  0  0  0  0  0
  134.8596   75.9254  226.6306 H   0  0  0  0  0  0  0  0  0  0  0  0
  132.7548   74.6333  226.2564 H   0  0  0  0  0  0  0  0  0  0  0  0
  134.0674   69.9123  223.3632 H   0  0  0  0  0  0  0  0  0  0  0  0
  135.0313   69.1907  224.7576 H   0  0  0  0  0  0  0  0  0  0  0  0
  134.0116   71.9657  224.8249 H   0  0  0  0  0  0  0  0  0  0  0  0
  132.0633   70.7972  224.3305 H   0  0  0  0  0  0  0  0  0  0  0  0
  132.3892   69.6591  225.7086 H   0  0  0  0  0  0  0  0  0  0  0  0
  131.4267   72.4772  225.7227 H   0  0  0  0  0  0  0  0  0  0  0  0
  131.0680   71.0903  226.8292 H   0  0  0  0  0  0  0  0  0  0  0  0
  132.3590   72.6420  228.0420 H   0  0  0  0  0  0  0  0  0  0  0  0
  134.3486   71.5450  228.5105 H   0  0  0  0  0  0  0  0  0  0  0  0
  133.2096   70.2462  227.9575 H   0  0  0  0  0  0  0  0  0  0  0  0
  135.5672   71.4608  226.5806 H   0  0  0  0  0  0  0  0  0  0  0  0
  135.0190   69.7476  226.6827 H   0  0  0  0  0  0  0  0  0  0  0  0
  1  2  2  0
  2  3  1  0
  3  4  2  0
  4  5  1  0
  5  6  2  0
  6  7  1  0
  7  8  2  0
  8  9  1  0
  4 10  1  0
 10 11  2  0
 11 12  1  0
 12 13  2  0
 13 14  1  0
 14 15  2  0
 15 16  1  0
 16 17  2  0
 17 18  1  0
 18 19  2  0
 19 20  1  0
 20 21  2  0
 21 22  1  0
 22 23  2  0
 15 24  1  0
 24 25  1  0
 25 26  1  0
 26 27  1  0
 27 28  1  0
 28 29  1  0
 29 30  1  0
 30 31  1  0
 24  2  1  0
 31 26  1  0
 13  3  1  0
 23 18  1  0
  9  5  1  0
  6 32  1  0
  7 33  1  0
  8 34  1  0
 10 35  1  0
 11 36  1  0
 12 37  1  0
 16 38  1  0
 17 39  1  0
 19 40  1  0
 20 41  1  0
 21 42  1  0
 22 43  1  0
 25 44  1  0
 25 45  1  0
 26 46  1  0
 27 47  1  0
 27 48  1  0
 28 49  1  0
 28 50  1  0
 29 51  1  0
 30 52  1  0
 30 53  1  0
 31 54  1  0
 31 55  1  0
M  END
>  <smiles>  (41) 
O=c1c2c(-c3cccs3)cccc2nc(/C=C/c2ccccn2)n1CC1CCNCC1

>  <score_type>  (41) 
oracle

>  <origin>  (41) 
autodockgpu

>  <m_score__min__energy>  (41) 
-7.7699999999999996

>  <m_primary>  (41) 
energy

>  <rmsd>  (41) 
4.701513285970506

>  <m_score__min__rmsd>  (41) 
4.701513285970506

>  <meeko>  (41) 
{"free_energy": -6.57, "intermolecular_energy": -8.36, "internal_energy": -2.63, "cluster_size": 4, "cluster_id": 6, "rank_in_cluster": 3}

>  <energy>  (41) 
-7.17

>  <cluster_rmsd>  (41) 
0.22

>  <cluster>  (41) 
4

$$$$

     RDKit          3D

 55 59  0  0  0  0  0  0  0  0999 V2000
  135.5820   73.1310  223.4520 O   0  0  0  0  0  0  0  0  0  0  0  0
  135.5510   71.9990  223.9560 C   0  0  0  0  0  0  0  0  0  0  0  0
  134.8710   71.7200  225.1050 C   0  0  0  0  0  0  0  0  0  0  0  0
  134.1900   72.6940  225.7820 C   0  0  0  0  0  0  0  0  0  0  0  0
  133.9450   74.0290  225.4000 C   0  0  0  0  0  0  0  0  0  0  0  0
  132.7100   74.5370  225.0110 C   0  0  0  0  0  0  0  0  0  0  0  0
  132.6210   75.8280  224.7110 C   0  0  0  0  0  0  0  0  0  0  0  0
  133.7000   76.6350  224.7800 C   0  0  0  0  0  0  0  0  0  0  0  0
  134.9930   75.4910  225.3210 S   0  0  0  0  0  0  0  0  0  0  0  0
  133.5690   72.2490  226.9690 C   0  0  0  0  0  0  0  0  0  0  0  0
  133.6330   70.9600  227.4090 C   0  0  0  0  0  0  0  0  0  0  0  0
  134.3180   70.0010  226.7120 C   0  0  0  0  0  0  0  0  0  0  0  0
  134.9390   70.3970  225.5510 C   0  0  0  0  0  0  0  0  0  0  0  0
  135.6300   69.4940  224.8690 N   0  0  0  0  0  0  0  0  0  0  0  0
  136.2980   69.7700  223.7360 C   0  0  0  0  0  0  0  0  0  0  0  0
  137.0100   68.6930  223.0660 C   0  0  0  0  0  0  0  0  0  0  0  0
  138.2920   68.5060  223.3080 C   0  0  0  0  0  0  0  0  0  0  0  0
  138.9200   68.7260  224.6020 C   0  0  0  0  0  0  0  0  0  0  0  0
  139.2900   69.9530  225.0840 C   0  0  0  0  0  0  0  0  0  0  0  0
  139.8820   70.0870  226.3260 C   0  0  0  0  0  0  0  0  0  0  0  0
  140.1160   68.9910  227.1130 C   0  0  0  0  0  0  0  0  0  0  0  0
  139.7380   67.7600  226.6180 C   0  0  0  0  0  0  0  0  0  0  0  0
  139.1670   67.6620  225.4120 N   0  0  0  0  0  0  0  0  0  0  0  0
  136.2460   71.0340  223.2940 N   0  0  0  0  0  0  0  0  0  0  0  0
  136.9610   71.4020  222.0950 C   0  0  0  0  0  0  0  0  0  0  0  0
  138.2030   72.1920  222.3080 C   0  0  0  0  0  0  0  0  0  0  0  0
  139.4880   71.5310  221.9500 C   0  0  0  0  0  0  0  0  0  0  0  0
  140.6890   72.3930  222.2870 C   0  0  0  0  0  0  0  0  0  0  0  0
  140.3350   73.7980  222.3240 N   0  0  0  0  0  0  0  0  0  0  0  0
  139.3690   74.1420  221.3030 C   0  0  0  0  0  0  0  0  0  0  0  0
  138.0330   73.5260  221.5720 C   0  0  0  0  0  0  0  0  0  0  0  0
  131.8266   73.8842  224.9531 H   0  0  0  0  0  0  0  0  0  0  0  0
  131.6518   76.2459  224.4013 H   0  0  0  0  0  0  0  0  0  0  0  0
  133.7744   77.7109  224.5633 H   0  0  0  0  0  0  0  0  0  0  0  0
  133.0053   72.9786  227.5690 H   0  0  0  0  0  0  0  0  0  0  0  0
  133.1233   70.6846  228.3441 H   0  0  0  0  0  0  0  0  0  0  0  0
  134.3692   68.9605  227.0651 H   0  0  0  0  0  0  0  0  0  0  0  0
  136.4803   68.0368  222.3597 H   0  0  0  0  0  0  0  0  0  0  0  0
  138.9277   68.1617  222.4789 H   0  0  0  0  0  0  0  0  0  0  0  0
  139.1128   70.8492  224.4713 H   0  0  0  0  0  0  0  0  0  0  0  0
  140.1686   71.0860  226.6865 H   0  0  0  0  0  0  0  0  0  0  0  0
  140.5874   69.0884  228.1021 H   0  0  0  0  0  0  0  0  0  0  0  0
  139.9070   66.8539  227.2183 H   0  0  0  0  0  0  0  0  0  0  0  0
  137.2340   70.4772  221.5657 H   0  0  0  0  0  0  0  0  0  0  0  0
  136.2818   72.0540  221.5261 H   0  0  0  0  0  0  0  0  0  0  0  0
  138.3072   72.3241  223.3950 H   0  0  0  0  0  0  0  0  0  0  0  0
  139.5654   70.5837  222.5037 H   0  0  0  0  0  0  0  0  0  0  0  0
  139.4889   71.3608  220.8632 H   0  0  0  0  0  0  0  0  0  0  0  0
  141.0785   72.0956  223.2718 H   0  0  0  0  0  0  0  0  0  0  0  0
  141.4508   72.2473  221.5070 H   0  0  0  0  0  0  0  0  0  0  0  0
  141.1440   74.4250  222.3510 H   0  0  0  0  0  0  0  0  0  0  0  0
  139.2571   75.2359  221.2728 H   0  0  0  0  0  0  0  0  0  0  0  0
  139.7362   73.7553  220.3409 H   0  0  0  0  0  0  0  0  0  0  0  0
  137.4360   74.2100  222.1931 H   0  0  0  0  0  0  0  0  0  0  0  0
  137.5222   73.3450  220.6148 H   0  0  0  0  0  0  0  0  0  0  0  0
  1  2  2  0
  2  3  1  0
  3  4  2  0
  4  5  1  0
  5  6  2  0
  6  7  1  0
  7  8  2  0
  8  9  1  0
  4 10  1  0
 10 11  2  0
 11 12  1  0
 12 13  2  0
 13 14  1  0
 14 15  2  0
 15 16  1  0
 16 17  2  0
 17 18  1  0
 18 19  2  0
 19 20  1  0
 20 21  2  0
 21 22  1  0
 22 23  2  0
 15 24  1  0
 24 25  1  0
 25 26  1  0
 26 27  1  0
 27 28  1  0
 28 29  1  0
 29 30  1  0
 30 31  1  0
 24  2  1  0
 31 26  1  0
 13  3  1  0
 23 18  1  0
  9  5  1  0
  6 32  1  0
  7 33  1  0
  8 34  1  0
 10 35  1  0
 11 36  1  0
 12 37  1  0
 16 38  1  0
 17 39  1  0
 19 40  1  0
 20 41  1  0
 21 42  1  0
 22 43  1  0
 25 44  1  0
 25 45  1  0
 26 46  1  0
 27 47  1  0
 27 48  1  0
 28 49  1  0
 28 50  1  0
 29 51  1  0
 30 52  1  0
 30 53  1  0
 31 54  1  0
 31 55  1  0
M  END
>  <smiles>  (42) 
O=c1c2c(-c3cccs3)cccc2nc(/C=C/c2ccccn2)n1CC1CCNCC1

>  <score_type>  (42) 
oracle

>  <origin>  (42) 
autodockgpu

>  <m_score__min__energy>  (42) 
-7.7699999999999996

>  <m_primary>  (42) 
energy

>  <rmsd>  (42) 
6.231297885796071

>  <m_score__min__rmsd>  (42) 
6.231297885796071

>  <meeko>  (42) 
{"free_energy": -7.19, "intermolecular_energy": -8.98, "internal_energy": -2.23, "cluster_size": 10, "cluster_id": 4, "rank_in_cluster": 6}

>  <energy>  (42) 
-7.08

>  <cluster_rmsd>  (42) 
0.27

>  <cluster>  (42) 
4

$$$$

     RDKit          3D

 55 59  0  0  0  0  0  0  0  0999 V2000
  142.9390   75.8000  220.3610 O   0  0  0  0  0  0  0  0  0  0  0  0
  141.8460   75.5370  220.8810 C   0  0  0  0  0  0  0  0  0  0  0  0
  141.4540   74.2630  221.1730 C   0  0  0  0  0  0  0  0  0  0  0  0
  142.2530   73.1910  220.8860 C   0  0  0  0  0  0  0  0  0  0  0  0
  143.5800   73.1800  220.4110 C   0  0  0  0  0  0  0  0  0  0  0  0
  144.7120   73.3930  221.1920 C   0  0  0  0  0  0  0  0  0  0  0  0
  145.9060   73.3180  220.6130 C   0  0  0  0  0  0  0  0  0  0  0  0
  146.0260   73.0410  219.2970 C   0  0  0  0  0  0  0  0  0  0  0  0
  144.2980   72.8620  218.7910 S   0  0  0  0  0  0  0  0  0  0  0  0
  141.6880   71.9410  221.2190 C   0  0  0  0  0  0  0  0  0  0  0  0
  140.4530   71.8040  221.7820 C   0  0  0  0  0  0  0  0  0  0  0  0
  139.6720   72.8930  222.0630 C   0  0  0  0  0  0  0  0  0  0  0  0
  140.1890   74.1290  221.7510 C   0  0  0  0  0  0  0  0  0  0  0  0
  139.4430   75.1990  221.9900 N   0  0  0  0  0  0  0  0  0  0  0  0
  139.8320   76.4540  221.7040 C   0  0  0  0  0  0  0  0  0  0  0  0
  138.9340   77.5520  222.0260 C   0  0  0  0  0  0  0  0  0  0  0  0
  139.1660   78.2970  223.0900 C   0  0  0  0  0  0  0  0  0  0  0  0
  140.2210   79.2940  223.1760 C   0  0  0  0  0  0  0  0  0  0  0  0
  140.1100   80.5790  222.7180 C   0  0  0  0  0  0  0  0  0  0  0  0
  141.1570   81.4760  222.8340 C   0  0  0  0  0  0  0  0  0  0  0  0
  142.3390   81.1010  223.4140 C   0  0  0  0  0  0  0  0  0  0  0  0
  142.4390   79.8030  223.8730 C   0  0  0  0  0  0  0  0  0  0  0  0
  141.4090   78.9590  223.7460 N   0  0  0  0  0  0  0  0  0  0  0  0
  141.0420   76.6020  221.1470 N   0  0  0  0  0  0  0  0  0  0  0  0
  141.5090   77.9220  220.7940 C   0  0  0  0  0  0  0  0  0  0  0  0
  141.9760   78.0800  219.3910 C   0  0  0  0  0  0  0  0  0  0  0  0
  141.1460   77.4420  218.3320 C   0  0  0  0  0  0  0  0  0  0  0  0
  141.7580   77.5950  216.9530 C   0  0  0  0  0  0  0  0  0  0  0  0
  142.6360   78.7470  216.8920 N   0  0  0  0  0  0  0  0  0  0  0  0
  142.1250   79.8600  217.6640 C   0  0  0  0  0  0  0  0  0  0  0  0
  142.1620   79.5790  219.1330 C   0  0  0  0  0  0  0  0  0  0  0  0
  144.6206   73.6184  222.2648 H   0  0  0  0  0  0  0  0  0  0  0  0
  146.8111   73.4843  221.2157 H   0  0  0  0  0  0  0  0  0  0  0  0
  146.9383   72.9482  218.6895 H   0  0  0  0  0  0  0  0  0  0  0  0
  142.2727   71.0321  221.0143 H   0  0  0  0  0  0  0  0  0  0  0  0
  140.0765   70.7971  222.0152 H   0  0  0  0  0  0  0  0  0  0  0  0
  138.6763   72.7844  222.5176 H   0  0  0  0  0  0  0  0  0  0  0  0
  138.0648   77.7605  221.3849 H   0  0  0  0  0  0  0  0  0  0  0  0
  138.5197   78.1547  223.9686 H   0  0  0  0  0  0  0  0  0  0  0  0
  139.1701   80.9049  222.2486 H   0  0  0  0  0  0  0  0  0  0  0  0
  141.0383   82.5021  222.4559 H   0  0  0  0  0  0  0  0  0  0  0  0
  143.1770   81.8070  223.5106 H   0  0  0  0  0  0  0  0  0  0  0  0
  143.3712   79.4607  224.3460 H   0  0  0  0  0  0  0  0  0  0  0  0
  140.6827   78.6293  220.9582 H   0  0  0  0  0  0  0  0  0  0  0  0
  142.3871   78.1123  221.4287 H   0  0  0  0  0  0  0  0  0  0  0  0
  142.9203   77.5216  219.3105 H   0  0  0  0  0  0  0  0  0  0  0  0
  141.0463   76.3701  218.5581 H   0  0  0  0  0  0  0  0  0  0  0  0
  140.1667   77.9429  218.3237 H   0  0  0  0  0  0  0  0  0  0  0  0
  142.3367   76.6902  216.7153 H   0  0  0  0  0  0  0  0  0  0  0  0
  140.9451   77.7388  216.2260 H   0  0  0  0  0  0  0  0  0  0  0  0
  142.9120   79.0010  215.9400 H   0  0  0  0  0  0  0  0  0  0  0  0
  142.7380   80.7493  217.4558 H   0  0  0  0  0  0  0  0  0  0  0  0
  141.0772   80.0260  217.3733 H   0  0  0  0  0  0  0  0  0  0  0  0
  143.1324   79.8998  219.5398 H   0  0  0  0  0  0  0  0  0  0  0  0
  141.3472   80.1311  219.6242 H   0  0  0  0  0  0  0  0  0  0  0  0
  1  2  2  0
  2  3  1  0
  3  4  2  0
  4  5  1  0
  5  6  2  0
  6  7  1  0
  7  8  2  0
  8  9  1  0
  4 10  1  0
 10 11  2  0
 11 12  1  0
 12 13  2  0
 13 14  1  0
 14 15  2  0
 15 16  1  0
 16 17  2  0
 17 18  1  0
 18 19  2  0
 19 20  1  0
 20 21  2  0
 21 22  1  0
 22 23  2  0
 15 24  1  0
 24 25  1  0
 25 26  1  0
 26 27  1  0
 27 28  1  0
 28 29  1  0
 29 30  1  0
 30 31  1  0
 24  2  1  0
 31 26  1  0
 13  3  1  0
 23 18  1  0
  9  5  1  0
  6 32  1  0
  7 33  1  0
  8 34  1  0
 10 35  1  0
 11 36  1  0
 12 37  1  0
 16 38  1  0
 17 39  1  0
 19 40  1  0
 20 41  1  0
 21 42  1  0
 22 43  1  0
 25 44  1  0
 25 45  1  0
 26 46  1  0
 27 47  1  0
 27 48  1  0
 28 49  1  0
 28 50  1  0
 29 51  1  0
 30 52  1  0
 30 53  1  0
 31 54  1  0
 31 55  1  0
M  END
>  <smiles>  (43) 
O=c1c2c(-c3cccs3)cccc2nc(/C=C/c2ccccn2)n1CC1CCNCC1

>  <score_type>  (43) 
oracle

>  <origin>  (43) 
autodockgpu

>  <m_score__min__energy>  (43) 
-7.7699999999999996

>  <m_primary>  (43) 
energy

>  <rmsd>  (43) 
6.146415553838364

>  <m_score__min__rmsd>  (43) 
6.146415553838364

>  <meeko>  (43) 
{"free_energy": -7.61, "intermolecular_energy": -9.4, "internal_energy": -1.89, "cluster_size": 20, "cluster_id": 1, "rank_in_cluster": 14}

>  <energy>  (43) 
-7.08

>  <cluster_rmsd>  (43) 
0.39

>  <cluster>  (43) 
4

$$$$

     RDKit          3D

 55 59  0  0  0  0  0  0  0  0999 V2000
  135.4650   73.4550  223.4470 O   0  0  0  0  0  0  0  0  0  0  0  0
  135.5480   72.2860  223.8500 C   0  0  0  0  0  0  0  0  0  0  0  0
  134.9230   71.8460  224.9790 C   0  0  0  0  0  0  0  0  0  0  0  0
  134.1710   72.6910  225.7490 C   0  0  0  0  0  0  0  0  0  0  0  0
  133.7970   74.0250  225.4900 C   0  0  0  0  0  0  0  0  0  0  0  0
  132.5520   74.4310  225.0200 C   0  0  0  0  0  0  0  0  0  0  0  0
  132.3290   75.7310  224.8540 C   0  0  0  0  0  0  0  0  0  0  0  0
  133.2840   76.6420  225.1350 C   0  0  0  0  0  0  0  0  0  0  0  0
  134.6520   75.5970  225.6920 S   0  0  0  0  0  0  0  0  0  0  0  0
  133.6190   72.0890  226.9010 C   0  0  0  0  0  0  0  0  0  0  0  0
  133.8110   70.7780  227.2240 C   0  0  0  0  0  0  0  0  0  0  0  0
  134.5650   69.9510  226.4360 C   0  0  0  0  0  0  0  0  0  0  0  0
  135.1210   70.5020  225.3050 C   0  0  0  0  0  0  0  0  0  0  0  0
  135.8760   69.7290  224.5370 N   0  0  0  0  0  0  0  0  0  0  0  0
  136.4900   70.1630  223.4230 C   0  0  0  0  0  0  0  0  0  0  0  0
  137.2830   69.2190  222.6500 C   0  0  0  0  0  0  0  0  0  0  0  0
  138.0760   68.3680  223.2720 C   0  0  0  0  0  0  0  0  0  0  0  0
  138.8910   68.7050  224.4280 C   0  0  0  0  0  0  0  0  0  0  0  0
  139.3850   69.9550  224.6890 C   0  0  0  0  0  0  0  0  0  0  0  0
  140.1540   70.2030  225.8110 C   0  0  0  0  0  0  0  0  0  0  0  0
  140.4450   69.2010  226.6970 C   0  0  0  0  0  0  0  0  0  0  0  0
  139.9410   67.9450  226.4250 C   0  0  0  0  0  0  0  0  0  0  0  0
  139.1990   67.7360  225.3310 N   0  0  0  0  0  0  0  0  0  0  0  0
  136.3140   71.4500  223.0950 N   0  0  0  0  0  0  0  0  0  0  0  0
  136.9660   71.9860  221.9230 C   0  0  0  0  0  0  0  0  0  0  0  0
  138.2770   72.6450  222.1660 C   0  0  0  0  0  0  0  0  0  0  0  0
  139.4880   71.9290  221.6770 C   0  0  0  0  0  0  0  0  0  0  0  0
  140.7690   72.6490  222.0510 C   0  0  0  0  0  0  0  0  0  0  0  0
  140.5360   74.0640  222.2630 N   0  0  0  0  0  0  0  0  0  0  0  0
  139.5650   74.5990  221.3320 C   0  0  0  0  0  0  0  0  0  0  0  0
  138.1920   74.0640  221.5930 C   0  0  0  0  0  0  0  0  0  0  0  0
  131.7695   73.6926  224.7908 H   0  0  0  0  0  0  0  0  0  0  0  0
  131.3507   76.0693  224.4818 H   0  0  0  0  0  0  0  0  0  0  0  0
  133.2417   77.7377  225.0479 H   0  0  0  0  0  0  0  0  0  0  0  0
  133.0039   72.7079  227.5708 H   0  0  0  0  0  0  0  0  0  0  0  0
  133.3496   70.3763  228.1382 H   0  0  0  0  0  0  0  0  0  0  0  0
  134.7194   68.8933  226.6955 H   0  0  0  0  0  0  0  0  0  0  0  0
  137.2214   69.2151  221.5517 H   0  0  0  0  0  0  0  0  0  0  0  0
  138.1238   67.3370  222.8917 H   0  0  0  0  0  0  0  0  0  0  0  0
  139.1658   70.7778  223.9926 H   0  0  0  0  0  0  0  0  0  0  0  0
  140.5366   71.2180  225.9939 H   0  0  0  0  0  0  0  0  0  0  0  0
  141.0570   69.3894  227.5914 H   0  0  0  0  0  0  0  0  0  0  0  0
  140.1504   67.1112  227.1113 H   0  0  0  0  0  0  0  0  0  0  0  0
  137.1282   71.1583  221.2168 H   0  0  0  0  0  0  0  0  0  0  0  0
  136.2991   72.7718  221.5386 H   0  0  0  0  0  0  0  0  0  0  0  0
  138.4328   72.6425  223.2549 H   0  0  0  0  0  0  0  0  0  0  0  0
  139.5062   70.9215  222.1181 H   0  0  0  0  0  0  0  0  0  0  0  0
  139.4338   71.8844  220.5792 H   0  0  0  0  0  0  0  0  0  0  0  0
  141.1699   72.2094  222.9762 H   0  0  0  0  0  0  0  0  0  0  0  0
  141.4850   72.5355  221.2237 H   0  0  0  0  0  0  0  0  0  0  0  0
  141.3950   74.6160  222.3220 H   0  0  0  0  0  0  0  0  0  0  0  0
  139.5447   75.6945  221.4289 H   0  0  0  0  0  0  0  0  0  0  0  0
  139.8623   74.2976  220.3167 H   0  0  0  0  0  0  0  0  0  0  0  0
  137.6786   74.7169  222.3142 H   0  0  0  0  0  0  0  0  0  0  0  0
  137.6318   74.0361  220.6468 H   0  0  0  0  0  0  0  0  0  0  0  0
  1  2  2  0
  2  3  1  0
  3  4  2  0
  4  5  1  0
  5  6  2  0
  6  7  1  0
  7  8  2  0
  8  9  1  0
  4 10  1  0
 10 11  2  0
 11 12  1  0
 12 13  2  0
 13 14  1  0
 14 15  2  0
 15 16  1  0
 16 17  2  0
 17 18  1  0
 18 19  2  0
 19 20  1  0
 20 21  2  0
 21 22  1  0
 22 23  2  0
 15 24  1  0
 24 25  1  0
 25 26  1  0
 26 27  1  0
 27 28  1  0
 28 29  1  0
 29 30  1  0
 30 31  1  0
 24  2  1  0
 31 26  1  0
 13  3  1  0
 23 18  1  0
  9  5  1  0
  6 32  1  0
  7 33  1  0
  8 34  1  0
 10 35  1  0
 11 36  1  0
 12 37  1  0
 16 38  1  0
 17 39  1  0
 19 40  1  0
 20 41  1  0
 21 42  1  0
 22 43  1  0
 25 44  1  0
 25 45  1  0
 26 46  1  0
 27 47  1  0
 27 48  1  0
 28 49  1  0
 28 50  1  0
 29 51  1  0
 30 52  1  0
 30 53  1  0
 31 54  1  0
 31 55  1  0
M  END
>  <smiles>  (44) 
O=c1c2c(-c3cccs3)cccc2nc(/C=C/c2ccccn2)n1CC1CCNCC1

>  <score_type>  (44) 
oracle

>  <origin>  (44) 
autodockgpu

>  <m_score__min__energy>  (44) 
-7.7699999999999996

>  <m_primary>  (44) 
energy

>  <rmsd>  (44) 
6.133521342274558

>  <m_score__min__rmsd>  (44) 
6.133521342274558

>  <meeko>  (44) 
{"free_energy": -7.0, "intermolecular_energy": -8.79, "internal_energy": -2.16, "cluster_size": 10, "cluster_id": 4, "rank_in_cluster": 10}

>  <energy>  (44) 
-7.0

>  <cluster_rmsd>  (44) 
0.71

>  <cluster>  (44) 
4

$$$$

     RDKit          3D

 55 59  0  0  0  0  0  0  0  0999 V2000
  141.3930   76.2130  222.1880 O   0  0  0  0  0  0  0  0  0  0  0  0
  140.2180   75.8270  222.1070 C   0  0  0  0  0  0  0  0  0  0  0  0
  139.1530   76.6520  222.3150 C   0  0  0  0  0  0  0  0  0  0  0  0
  139.3270   77.9680  222.6460 C   0  0  0  0  0  0  0  0  0  0  0  0
  140.5210   78.7160  222.6940 C   0  0  0  0  0  0  0  0  0  0  0  0
  141.1400   79.1630  223.8570 C   0  0  0  0  0  0  0  0  0  0  0  0
  142.2850   79.8300  223.7500 C   0  0  0  0  0  0  0  0  0  0  0  0
  142.8400   80.0710  222.5440 C   0  0  0  0  0  0  0  0  0  0  0  0
  141.6550   79.2920  221.4200 S   0  0  0  0  0  0  0  0  0  0  0  0
  138.1250   78.6760  222.8600 C   0  0  0  0  0  0  0  0  0  0  0  0
  136.8910   78.1070  222.7460 C   0  0  0  0  0  0  0  0  0  0  0  0
  136.7410   76.7880  222.4110 C   0  0  0  0  0  0  0  0  0  0  0  0
  137.8910   76.0640  222.1950 C   0  0  0  0  0  0  0  0  0  0  0  0
  137.7740   74.7780  221.8930 N   0  0  0  0  0  0  0  0  0  0  0  0
  138.8260   73.9670  221.6860 C   0  0  0  0  0  0  0  0  0  0  0  0
  138.5760   72.5750  221.3450 C   0  0  0  0  0  0  0  0  0  0  0  0
  138.1050   71.7510  222.2610 C   0  0  0  0  0  0  0  0  0  0  0  0
  138.8790   71.2530  223.3880 C   0  0  0  0  0  0  0  0  0  0  0  0
  139.9930   71.8670  223.8930 C   0  0  0  0  0  0  0  0  0  0  0  0
  140.6790   71.3360  224.9700 C   0  0  0  0  0  0  0  0  0  0  0  0
  140.2600   70.1760  225.5640 C   0  0  0  0  0  0  0  0  0  0  0  0
  139.1350   69.5660  225.0470 C   0  0  0  0  0  0  0  0  0  0  0  0
  138.4930   70.1050  224.0040 N   0  0  0  0  0  0  0  0  0  0  0  0
  140.0450   74.5120  221.7990 N   0  0  0  0  0  0  0  0  0  0  0  0
  141.2160   73.6890  221.6120 C   0  0  0  0  0  0  0  0  0  0  0  0
  142.2430   74.2390  220.6870 C   0  0  0  0  0  0  0  0  0  0  0  0
  143.4710   73.4220  220.4870 C   0  0  0  0  0  0  0  0  0  0  0  0
  144.4820   74.1150  219.5940 C   0  0  0  0  0  0  0  0  0  0  0  0
  143.8400   75.0750  218.7180 N   0  0  0  0  0  0  0  0  0  0  0  0
  142.5530   74.6060  218.2500 C   0  0  0  0  0  0  0  0  0  0  0  0
  141.5480   74.5450  219.3560 C   0  0  0  0  0  0  0  0  0  0  0  0
  140.6921   78.9689  224.8428 H   0  0  0  0  0  0  0  0  0  0  0  0
  142.7880   80.1912  224.6592 H   0  0  0  0  0  0  0  0  0  0  0  0
  143.7724   80.6037  222.3056 H   0  0  0  0  0  0  0  0  0  0  0  0
  138.1867   79.7400  223.1324 H   0  0  0  0  0  0  0  0  0  0  0  0
  135.9966   78.7211  222.9272 H   0  0  0  0  0  0  0  0  0  0  0  0
  135.7461   76.3279  222.3187 H   0  0  0  0  0  0  0  0  0  0  0  0
  138.7790   72.2110  220.3270 H   0  0  0  0  0  0  0  0  0  0  0  0
  137.0605   71.4192  222.1669 H   0  0  0  0  0  0  0  0  0  0  0  0
  140.3495   72.8007  223.4335 H   0  0  0  0  0  0  0  0  0  0  0  0
  141.5716   71.8517  225.3538 H   0  0  0  0  0  0  0  0  0  0  0  0
  140.7995   69.7463  226.4209 H   0  0  0  0  0  0  0  0  0  0  0  0
  138.7643   68.6321  225.4946 H   0  0  0  0  0  0  0  0  0  0  0  0
  141.6882   73.5429  222.5947 H   0  0  0  0  0  0  0  0  0  0  0  0
  140.8598   72.7570  221.1488 H   0  0  0  0  0  0  0  0  0  0  0  0
  142.6444   75.1439  221.1667 H   0  0  0  0  0  0  0  0  0  0  0  0
  143.9344   73.2336  221.4667 H   0  0  0  0  0  0  0  0  0  0  0  0
  143.1752   72.4830  219.9963 H   0  0  0  0  0  0  0  0  0  0  0  0
  145.2162   74.6392  220.2234 H   0  0  0  0  0  0  0  0  0  0  0  0
  144.9757   73.3536  218.9723 H   0  0  0  0  0  0  0  0  0  0  0  0
  144.4480   75.4190  217.9700 H   0  0  0  0  0  0  0  0  0  0  0  0
  142.1854   75.2918  217.4724 H   0  0  0  0  0  0  0  0  0  0  0  0
  142.6842   73.5894  217.8509 H   0  0  0  0  0  0  0  0  0  0  0  0
  141.0306   75.5129  219.4305 H   0  0  0  0  0  0  0  0  0  0  0  0
  140.8229   73.7470  219.1382 H   0  0  0  0  0  0  0  0  0  0  0  0
  1  2  2  0
  2  3  1  0
  3  4  2  0
  4  5  1  0
  5  6  2  0
  6  7  1  0
  7  8  2  0
  8  9  1  0
  4 10  1  0
 10 11  2  0
 11 12  1  0
 12 13  2  0
 13 14  1  0
 14 15  2  0
 15 16  1  0
 16 17  2  0
 17 18  1  0
 18 19  2  0
 19 20  1  0
 20 21  2  0
 21 22  1  0
 22 23  2  0
 15 24  1  0
 24 25  1  0
 25 26  1  0
 26 27  1  0
 27 28  1  0
 28 29  1  0
 29 30  1  0
 30 31  1  0
 24  2  1  0
 31 26  1  0
 13  3  1  0
 23 18  1  0
  9  5  1  0
  6 32  1  0
  7 33  1  0
  8 34  1  0
 10 35  1  0
 11 36  1  0
 12 37  1  0
 16 38  1  0
 17 39  1  0
 19 40  1  0
 20 41  1  0
 21 42  1  0
 22 43  1  0
 25 44  1  0
 25 45  1  0
 26 46  1  0
 27 47  1  0
 27 48  1  0
 28 49  1  0
 28 50  1  0
 29 51  1  0
 30 52  1  0
 30 53  1  0
 31 54  1  0
 31 55  1  0
M  END
>  <smiles>  (45) 
O=c1c2c(-c3cccs3)cccc2nc(/C=C/c2ccccn2)n1CC1CCNCC1

>  <score_type>  (45) 
oracle

>  <origin>  (45) 
autodockgpu

>  <m_score__min__energy>  (45) 
-7.7699999999999996

>  <m_primary>  (45) 
energy

>  <rmsd>  (45) 
7.816140676517378

>  <m_score__min__rmsd>  (45) 
7.816140676517378

>  <meeko>  (45) 
{"free_energy": -7.36, "intermolecular_energy": -9.15, "internal_energy": -1.66, "cluster_size": 11, "cluster_id": 3, "rank_in_cluster": 3}

>  <energy>  (45) 
-7.12

>  <cluster_rmsd>  (45) 
0.0

>  <cluster>  (45) 
5

$$$$

     RDKit          3D

 55 59  0  0  0  0  0  0  0  0999 V2000
  143.1150   75.9660  220.3000 O   0  0  0  0  0  0  0  0  0  0  0  0
  142.0290   75.6620  220.8120 C   0  0  0  0  0  0  0  0  0  0  0  0
  141.6900   74.3760  221.1180 C   0  0  0  0  0  0  0  0  0  0  0  0
  142.5400   73.3370  220.8570 C   0  0  0  0  0  0  0  0  0  0  0  0
  143.8720   73.3790  220.3980 C   0  0  0  0  0  0  0  0  0  0  0  0
  145.0000   73.4030  221.2130 C   0  0  0  0  0  0  0  0  0  0  0  0
  146.1980   73.4060  220.6380 C   0  0  0  0  0  0  0  0  0  0  0  0
  146.3260   73.3860  219.2950 C   0  0  0  0  0  0  0  0  0  0  0  0
  144.6010   73.3590  218.7510 S   0  0  0  0  0  0  0  0  0  0  0  0
  142.0270   72.0670  221.2030 C   0  0  0  0  0  0  0  0  0  0  0  0
  140.7940   71.8840  221.7530 C   0  0  0  0  0  0  0  0  0  0  0  0
  139.9610   72.9410  222.0090 C   0  0  0  0  0  0  0  0  0  0  0  0
  140.4260   74.1940  221.6840 C   0  0  0  0  0  0  0  0  0  0  0  0
  139.6300   75.2330  221.8980 N   0  0  0  0  0  0  0  0  0  0  0  0
  139.9650   76.4990  221.5970 C   0  0  0  0  0  0  0  0  0  0  0  0
  139.0150   77.5610  221.8920 C   0  0  0  0  0  0  0  0  0  0  0  0
  139.1790   78.3050  222.9680 C   0  0  0  0  0  0  0  0  0  0  0  0
  140.2860   79.2290  223.1620 C   0  0  0  0  0  0  0  0  0  0  0  0
  141.4870   78.8900  223.7230 C   0  0  0  0  0  0  0  0  0  0  0  0
  142.4970   79.8220  223.8750 C   0  0  0  0  0  0  0  0  0  0  0  0
  142.3220   81.1170  223.4680 C   0  0  0  0  0  0  0  0  0  0  0  0
  141.1070   81.4480  222.9030 C   0  0  0  0  0  0  0  0  0  0  0  0
  140.1490   80.5230  222.7690 N   0  0  0  0  0  0  0  0  0  0  0  0
  141.1740   76.6930  221.0520 N   0  0  0  0  0  0  0  0  0  0  0  0
  141.5860   78.0270  220.6840 C   0  0  0  0  0  0  0  0  0  0  0  0
  142.0300   78.1930  219.2750 C   0  0  0  0  0  0  0  0  0  0  0  0
  141.1870   77.5540  218.2270 C   0  0  0  0  0  0  0  0  0  0  0  0
  141.7770   77.7150  216.8390 C   0  0  0  0  0  0  0  0  0  0  0  0
  142.6460   78.8730  216.7680 N   0  0  0  0  0  0  0  0  0  0  0  0
  142.1410   79.9800  217.5510 C   0  0  0  0  0  0  0  0  0  0  0  0
  142.2020   79.6940  219.0190 C   0  0  0  0  0  0  0  0  0  0  0  0
  144.9020   73.4191  222.3085 H   0  0  0  0  0  0  0  0  0  0  0  0
  147.1001   73.4251  221.2672 H   0  0  0  0  0  0  0  0  0  0  0  0
  147.2430   73.3861  218.6874 H   0  0  0  0  0  0  0  0  0  0  0  0
  142.6541   71.1821  221.0193 H   0  0  0  0  0  0  0  0  0  0  0  0
  140.4599   70.8647  221.9970 H   0  0  0  0  0  0  0  0  0  0  0  0
  138.9658   72.7944  222.4541 H   0  0  0  0  0  0  0  0  0  0  0  0
  138.1633   77.7424  221.2199 H   0  0  0  0  0  0  0  0  0  0  0  0
  138.4311   78.2219  223.7703 H   0  0  0  0  0  0  0  0  0  0  0  0
  141.6523   77.8559  224.0597 H   0  0  0  0  0  0  0  0  0  0  0  0
  143.4524   79.5191  224.3283 H   0  0  0  0  0  0  0  0  0  0  0  0
  143.1193   81.8655  223.5867 H   0  0  0  0  0  0  0  0  0  0  0  0
  140.9250   82.4775  222.5610 H   0  0  0  0  0  0  0  0  0  0  0  0
  140.7353   78.7034  220.8533 H   0  0  0  0  0  0  0  0  0  0  0  0
  142.4638   78.2549  221.3065 H   0  0  0  0  0  0  0  0  0  0  0  0
  142.9766   77.6411  219.1782 H   0  0  0  0  0  0  0  0  0  0  0  0
  141.0965   76.4809  218.4510 H   0  0  0  0  0  0  0  0  0  0  0  0
  140.2049   78.0494  218.2356 H   0  0  0  0  0  0  0  0  0  0  0  0
  142.3582   76.8149  216.5899 H   0  0  0  0  0  0  0  0  0  0  0  0
  140.9522   77.8552  216.1249 H   0  0  0  0  0  0  0  0  0  0  0  0
  142.9060   79.1320  215.8120 H   0  0  0  0  0  0  0  0  0  0  0  0
  142.7459   80.8734  217.3366 H   0  0  0  0  0  0  0  0  0  0  0  0
  141.0880   80.1414  217.2768 H   0  0  0  0  0  0  0  0  0  0  0  0
  143.1762   80.0201  219.4122 H   0  0  0  0  0  0  0  0  0  0  0  0
  141.3908   80.2388  219.5241 H   0  0  0  0  0  0  0  0  0  0  0  0
  1  2  2  0
  2  3  1  0
  3  4  2  0
  4  5  1  0
  5  6  2  0
  6  7  1  0
  7  8  2  0
  8  9  1  0
  4 10  1  0
 10 11  2  0
 11 12  1  0
 12 13  2  0
 13 14  1  0
 14 15  2  0
 15 16  1  0
 16 17  2  0
 17 18  1  0
 18 19  2  0
 19 20  1  0
 20 21  2  0
 21 22  1  0
 22 23  2  0
 15 24  1  0
 24 25  1  0
 25 26  1  0
 26 27  1  0
 27 28  1  0
 28 29  1  0
 29 30  1  0
 30 31  1  0
 24  2  1  0
 31 26  1  0
 13  3  1  0
 23 18  1  0
  9  5  1  0
  6 32  1  0
  7 33  1  0
  8 34  1  0
 10 35  1  0
 11 36  1  0
 12 37  1  0
 16 38  1  0
 17 39  1  0
 19 40  1  0
 20 41  1  0
 21 42  1  0
 22 43  1  0
 25 44  1  0
 25 45  1  0
 26 46  1  0
 27 47  1  0
 27 48  1  0
 28 49  1  0
 28 50  1  0
 29 51  1  0
 30 52  1  0
 30 53  1  0
 31 54  1  0
 31 55  1  0
M  END
>  <smiles>  (46) 
O=c1c2c(-c3cccs3)cccc2nc(/C=C/c2ccccn2)n1CC1CCNCC1

>  <score_type>  (46) 
oracle

>  <origin>  (46) 
autodockgpu

>  <m_score__min__energy>  (46) 
-7.7699999999999996

>  <m_primary>  (46) 
energy

>  <rmsd>  (46) 
6.304127125592357

>  <m_score__min__rmsd>  (46) 
6.304127125592357

>  <meeko>  (46) 
{"free_energy": -7.69, "intermolecular_energy": -9.48, "internal_energy": -1.91, "cluster_size": 20, "cluster_id": 1, "rank_in_cluster": 7}

>  <energy>  (46) 
-6.9

>  <cluster_rmsd>  (46) 
1.23

>  <cluster>  (46) 
5

$$$$

     RDKit          3D

 55 59  0  0  0  0  0  0  0  0999 V2000
  142.9040   75.8230  220.2090 O   0  0  0  0  0  0  0  0  0  0  0  0
  141.8530   75.5820  220.8180 C   0  0  0  0  0  0  0  0  0  0  0  0
  141.4970   74.3250  221.2100 C   0  0  0  0  0  0  0  0  0  0  0  0
  142.2890   73.2440  220.9340 C   0  0  0  0  0  0  0  0  0  0  0  0
  143.5810   73.2160  220.3710 C   0  0  0  0  0  0  0  0  0  0  0  0
  144.7630   73.4490  221.0670 C   0  0  0  0  0  0  0  0  0  0  0  0
  145.9150   73.3550  220.4110 C   0  0  0  0  0  0  0  0  0  0  0  0
  145.9450   73.0400  219.0990 C   0  0  0  0  0  0  0  0  0  0  0  0
  144.1870   72.8500  218.7160 S   0  0  0  0  0  0  0  0  0  0  0  0
  141.7630   72.0110  221.3780 C   0  0  0  0  0  0  0  0  0  0  0  0
  140.5710   71.8980  222.0310 C   0  0  0  0  0  0  0  0  0  0  0  0
  139.7970   72.9950  222.3000 C   0  0  0  0  0  0  0  0  0  0  0  0
  140.2760   74.2150  221.8810 C   0  0  0  0  0  0  0  0  0  0  0  0
  139.5340   75.2910  222.1060 N   0  0  0  0  0  0  0  0  0  0  0  0
  139.8870   76.5290  221.7210 C   0  0  0  0  0  0  0  0  0  0  0  0
  138.9990   77.6370  222.0380 C   0  0  0  0  0  0  0  0  0  0  0  0
  139.2360   78.3820  223.1000 C   0  0  0  0  0  0  0  0  0  0  0  0
  140.3460   79.3160  223.2120 C   0  0  0  0  0  0  0  0  0  0  0  0
  141.5400   79.0290  223.8160 C   0  0  0  0  0  0  0  0  0  0  0  0
  142.5530   79.9680  223.8850 C   0  0  0  0  0  0  0  0  0  0  0  0
  142.3890   81.2170  223.3480 C   0  0  0  0  0  0  0  0  0  0  0  0
  141.1820   81.4940  222.7410 C   0  0  0  0  0  0  0  0  0  0  0  0
  140.2200   80.5650  222.6900 N   0  0  0  0  0  0  0  0  0  0  0  0
  141.0540   76.6540  221.0750 N   0  0  0  0  0  0  0  0  0  0  0  0
  141.4800   77.9540  220.6130 C   0  0  0  0  0  0  0  0  0  0  0  0
  141.3930   78.1710  219.1440 C   0  0  0  0  0  0  0  0  0  0  0  0
  142.6530   78.0160  218.3670 C   0  0  0  0  0  0  0  0  0  0  0  0
  142.4650   78.3410  216.8980 C   0  0  0  0  0  0  0  0  0  0  0  0
  141.0850   78.1650  216.4930 N   0  0  0  0  0  0  0  0  0  0  0  0
  140.4690   77.0270  217.1410 C   0  0  0  0  0  0  0  0  0  0  0  0
  140.2860   77.2570  218.6080 C   0  0  0  0  0  0  0  0  0  0  0  0
  144.7444   73.7053  222.1366 H   0  0  0  0  0  0  0  0  0  0  0  0
  146.8589   73.5368  220.9458 H   0  0  0  0  0  0  0  0  0  0  0  0
  146.8141   72.9277  218.4341 H   0  0  0  0  0  0  0  0  0  0  0  0
  142.3435   71.0962  221.1877 H   0  0  0  0  0  0  0  0  0  0  0  0
  140.2238   70.9037  222.3486 H   0  0  0  0  0  0  0  0  0  0  0  0
  138.8358   72.9051  222.8272 H   0  0  0  0  0  0  0  0  0  0  0  0
  138.1334   77.8524  221.3944 H   0  0  0  0  0  0  0  0  0  0  0  0
  138.5508   78.2915  223.9558 H   0  0  0  0  0  0  0  0  0  0  0  0
  141.6970   78.0326  224.2549 H   0  0  0  0  0  0  0  0  0  0  0  0
  143.5019   79.7084  224.3772 H   0  0  0  0  0  0  0  0  0  0  0  0
  143.1890   81.9702  223.3988 H   0  0  0  0  0  0  0  0  0  0  0  0
  141.0089   82.4849  222.2959 H   0  0  0  0  0  0  0  0  0  0  0  0
  140.8522   78.7113  221.1053 H   0  0  0  0  0  0  0  0  0  0  0  0
  142.5475   78.0303  220.8672 H   0  0  0  0  0  0  0  0  0  0  0  0
  141.1631   79.2368  218.9983 H   0  0  0  0  0  0  0  0  0  0  0  0
  143.4123   78.6932  218.7851 H   0  0  0  0  0  0  0  0  0  0  0  0
  142.9683   76.9648  218.4421 H   0  0  0  0  0  0  0  0  0  0  0  0
  142.7599   79.3859  216.7215 H   0  0  0  0  0  0  0  0  0  0  0  0
  143.0906   77.6554  216.3076 H   0  0  0  0  0  0  0  0  0  0  0  0
  140.9500   78.1810  215.4780 H   0  0  0  0  0  0  0  0  0  0  0  0
  139.4853   76.8456  216.6833 H   0  0  0  0  0  0  0  0  0  0  0  0
  141.1311   76.1584  217.0103 H   0  0  0  0  0  0  0  0  0  0  0  0
  139.3084   77.7302  218.7822 H   0  0  0  0  0  0  0  0  0  0  0  0
  140.3347   76.2905  219.1310 H   0  0  0  0  0  0  0  0  0  0  0  0
  1  2  2  0
  2  3  1  0
  3  4  2  0
  4  5  1  0
  5  6  2  0
  6  7  1  0
  7  8  2  0
  8  9  1  0
  4 10  1  0
 10 11  2  0
 11 12  1  0
 12 13  2  0
 13 14  1  0
 14 15  2  0
 15 16  1  0
 16 17  2  0
 17 18  1  0
 18 19  2  0
 19 20  1  0
 20 21  2  0
 21 22  1  0
 22 23  2  0
 15 24  1  0
 24 25  1  0
 25 26  1  0
 26 27  1  0
 27 28  1  0
 28 29  1  0
 29 30  1  0
 30 31  1  0
 24  2  1  0
 31 26  1  0
 13  3  1  0
 23 18  1  0
  9  5  1  0
  6 32  1  0
  7 33  1  0
  8 34  1  0
 10 35  1  0
 11 36  1  0
 12 37  1  0
 16 38  1  0
 17 39  1  0
 19 40  1  0
 20 41  1  0
 21 42  1  0
 22 43  1  0
 25 44  1  0
 25 45  1  0
 26 46  1  0
 27 47  1  0
 27 48  1  0
 28 49  1  0
 28 50  1  0
 29 51  1  0
 30 52  1  0
 30 53  1  0
 31 54  1  0
 31 55  1  0
M  END
>  <smiles>  (47) 
O=c1c2c(-c3cccs3)cccc2nc(/C=C/c2ccccn2)n1CC1CCNCC1

>  <score_type>  (47) 
oracle

>  <origin>  (47) 
autodockgpu

>  <m_score__min__energy>  (47) 
-7.7699999999999996

>  <m_primary>  (47) 
energy

>  <rmsd>  (47) 
6.18502162632014

>  <m_score__min__rmsd>  (47) 
6.18502162632014

>  <meeko>  (47) 
{"free_energy": -7.16, "intermolecular_energy": -8.95, "internal_energy": -2.06, "cluster_size": 20, "cluster_id": 1, "rank_in_cluster": 20}

>  <energy>  (47) 
-6.83

>  <cluster_rmsd>  (47) 
0.0

>  <cluster>  (47) 
6

$$$$

     RDKit          3D

 55 59  0  0  0  0  0  0  0  0999 V2000
  135.6640   73.1150  223.3430 O   0  0  0  0  0  0  0  0  0  0  0  0
  135.6360   71.9850  223.8500 C   0  0  0  0  0  0  0  0  0  0  0  0
  134.9370   71.7020  224.9860 C   0  0  0  0  0  0  0  0  0  0  0  0
  134.2310   72.6710  225.6460 C   0  0  0  0  0  0  0  0  0  0  0  0
  133.9790   74.0010  225.2540 C   0  0  0  0  0  0  0  0  0  0  0  0
  134.6450   75.1200  225.7430 C   0  0  0  0  0  0  0  0  0  0  0  0
  134.3240   76.3140  225.2550 C   0  0  0  0  0  0  0  0  0  0  0  0
  133.3750   76.4450  224.3050 C   0  0  0  0  0  0  0  0  0  0  0  0
  132.8580   74.7300  224.0480 S   0  0  0  0  0  0  0  0  0  0  0  0
  133.5910   72.2220  226.8220 C   0  0  0  0  0  0  0  0  0  0  0  0
  133.6620   70.9360  227.2680 C   0  0  0  0  0  0  0  0  0  0  0  0
  134.3710   69.9820  226.5880 C   0  0  0  0  0  0  0  0  0  0  0  0
  135.0110   70.3820  225.4380 C   0  0  0  0  0  0  0  0  0  0  0  0
  135.7260   69.4840  224.7730 N   0  0  0  0  0  0  0  0  0  0  0  0
  136.4120   69.7640  223.6520 C   0  0  0  0  0  0  0  0  0  0  0  0
  137.1500   68.6930  223.0000 C   0  0  0  0  0  0  0  0  0  0  0  0
  138.4280   68.5190  223.2730 C   0  0  0  0  0  0  0  0  0  0  0  0
  139.0220   68.7380  224.5830 C   0  0  0  0  0  0  0  0  0  0  0  0
  139.4340   69.9560  225.0520 C   0  0  0  0  0  0  0  0  0  0  0  0
  139.9900   70.0890  226.3110 C   0  0  0  0  0  0  0  0  0  0  0  0
  140.1450   69.0010  227.1270 C   0  0  0  0  0  0  0  0  0  0  0  0
  139.7250   67.7790  226.6450 C   0  0  0  0  0  0  0  0  0  0  0  0
  139.1900   67.6810  225.4220 N   0  0  0  0  0  0  0  0  0  0  0  0
  136.3550   71.0260  223.2050 N   0  0  0  0  0  0  0  0  0  0  0  0
  137.0900   71.3980  222.0190 C   0  0  0  0  0  0  0  0  0  0  0  0
  138.2890   72.2470  222.2500 C   0  0  0  0  0  0  0  0  0  0  0  0
  139.6020   71.6780  221.8380 C   0  0  0  0  0  0  0  0  0  0  0  0
  140.7600   72.5900  222.1960 C   0  0  0  0  0  0  0  0  0  0  0  0
  140.3280   73.9690  222.3090 N   0  0  0  0  0  0  0  0  0  0  0  0
  139.3240   74.3070  221.3230 C   0  0  0  0  0  0  0  0  0  0  0  0
  138.0300   73.6030  221.5850 C   0  0  0  0  0  0  0  0  0  0  0  0
  135.4204   75.0190  226.5167 H   0  0  0  0  0  0  0  0  0  0  0  0
  134.8402   77.2094  225.6316 H   0  0  0  0  0  0  0  0  0  0  0  0
  133.0097   77.3587  223.8134 H   0  0  0  0  0  0  0  0  0  0  0  0
  133.0058   72.9464  227.4075 H   0  0  0  0  0  0  0  0  0  0  0  0
  133.1382   70.6583  228.1946 H   0  0  0  0  0  0  0  0  0  0  0  0
  134.4262   68.9431  226.9451 H   0  0  0  0  0  0  0  0  0  0  0  0
  136.6436   68.0310  222.2821 H   0  0  0  0  0  0  0  0  0  0  0  0
  139.0877   68.1868  222.4579 H   0  0  0  0  0  0  0  0  0  0  0  0
  139.3207   70.8459  224.4154 H   0  0  0  0  0  0  0  0  0  0  0  0
  140.3116   71.0810  226.6610 H   0  0  0  0  0  0  0  0  0  0  0  0
  140.5878   69.0977  228.1293 H   0  0  0  0  0  0  0  0  0  0  0  0
  139.8303   66.8795  227.2694 H   0  0  0  0  0  0  0  0  0  0  0  0
  137.4194   70.4744  221.5206 H   0  0  0  0  0  0  0  0  0  0  0  0
  136.4009   72.0059  221.4144 H   0  0  0  0  0  0  0  0  0  0  0  0
  138.4067   72.3327  223.3403 H   0  0  0  0  0  0  0  0  0  0  0  0
  139.7433   70.7112  222.3434 H   0  0  0  0  0  0  0  0  0  0  0  0
  139.5906   71.5605  220.7444 H   0  0  0  0  0  0  0  0  0  0  0  0
  141.1859   72.2678  223.1577 H   0  0  0  0  0  0  0  0  0  0  0  0
  141.5127   72.5261  221.3964 H   0  0  0  0  0  0  0  0  0  0  0  0
  141.1000   74.6390  222.3530 H   0  0  0  0  0  0  0  0  0  0  0  0
  139.1504   75.3929  221.3492 H   0  0  0  0  0  0  0  0  0  0  0  0
  139.6927   73.9897  220.3364 H   0  0  0  0  0  0  0  0  0  0  0  0
  137.4087   74.2208  222.2500 H   0  0  0  0  0  0  0  0  0  0  0  0
  137.5107   73.4400  220.6291 H   0  0  0  0  0  0  0  0  0  0  0  0
  1  2  2  0
  2  3  1  0
  3  4  2  0
  4  5  1  0
  5  6  2  0
  6  7  1  0
  7  8  2  0
  8  9  1  0
  4 10  1  0
 10 11  2  0
 11 12  1  0
 12 13  2  0
 13 14  1  0
 14 15  2  0
 15 16  1  0
 16 17  2  0
 17 18  1  0
 18 19  2  0
 19 20  1  0
 20 21  2  0
 21 22  1  0
 22 23  2  0
 15 24  1  0
 24 25  1  0
 25 26  1  0
 26 27  1  0
 27 28  1  0
 28 29  1  0
 29 30  1  0
 30 31  1  0
 24  2  1  0
 31 26  1  0
 13  3  1  0
 23 18  1  0
  9  5  1  0
  6 32  1  0
  7 33  1  0
  8 34  1  0
 10 35  1  0
 11 36  1  0
 12 37  1  0
 16 38  1  0
 17 39  1  0
 19 40  1  0
 20 41  1  0
 21 42  1  0
 22 43  1  0
 25 44  1  0
 25 45  1  0
 26 46  1  0
 27 47  1  0
 27 48  1  0
 28 49  1  0
 28 50  1  0
 29 51  1  0
 30 52  1  0
 30 53  1  0
 31 54  1  0
 31 55  1  0
M  END
>  <smiles>  (48) 
O=c1c2c(-c3cccs3)cccc2nc(/C=C/c2ccccn2)n1CC1CCNCC1

>  <score_type>  (48) 
oracle

>  <origin>  (48) 
autodockgpu

>  <m_score__min__energy>  (48) 
-7.7699999999999996

>  <m_primary>  (48) 
energy

>  <rmsd>  (48) 
5.783671563498262

>  <m_score__min__rmsd>  (48) 
5.783671563498262

>  <meeko>  (48) 
{"free_energy": -7.31, "intermolecular_energy": -9.1, "internal_energy": -2.24, "cluster_size": 10, "cluster_id": 4, "rank_in_cluster": 2}

>  <energy>  (48) 
-6.62

>  <cluster_rmsd>  (48) 
0.37

>  <cluster>  (48) 
6

$$$$

     RDKit          3D

 55 59  0  0  0  0  0  0  0  0999 V2000
  143.0180   75.9630  220.3390 O   0  0  0  0  0  0  0  0  0  0  0  0
  141.9390   75.6510  220.8620 C   0  0  0  0  0  0  0  0  0  0  0  0
  141.6080   74.3620  221.1610 C   0  0  0  0  0  0  0  0  0  0  0  0
  142.4560   73.3270  220.8790 C   0  0  0  0  0  0  0  0  0  0  0  0
  143.7820   73.3760  220.4030 C   0  0  0  0  0  0  0  0  0  0  0  0
  144.9190   73.4240  221.2040 C   0  0  0  0  0  0  0  0  0  0  0  0
  146.1110   73.4320  220.6150 C   0  0  0  0  0  0  0  0  0  0  0  0
  146.2220   73.3930  219.2700 C   0  0  0  0  0  0  0  0  0  0  0  0
  144.4910   73.3400  218.7480 S   0  0  0  0  0  0  0  0  0  0  0  0
  141.9510   72.0530  221.2200 C   0  0  0  0  0  0  0  0  0  0  0  0
  140.7250   71.8620  221.7840 C   0  0  0  0  0  0  0  0  0  0  0  0
  139.8930   72.9140  222.0600 C   0  0  0  0  0  0  0  0  0  0  0  0
  140.3510   74.1720  221.7410 C   0  0  0  0  0  0  0  0  0  0  0  0
  139.5550   75.2060  221.9750 N   0  0  0  0  0  0  0  0  0  0  0  0
  139.8840   76.4760  221.6820 C   0  0  0  0  0  0  0  0  0  0  0  0
  138.9360   77.5330  221.9990 C   0  0  0  0  0  0  0  0  0  0  0  0
  139.1270   78.2860  223.0640 C   0  0  0  0  0  0  0  0  0  0  0  0
  140.2040   79.2550  223.1980 C   0  0  0  0  0  0  0  0  0  0  0  0
  140.0920   80.5840  222.8920 C   0  0  0  0  0  0  0  0  0  0  0  0
  141.1600   81.4490  223.0460 C   0  0  0  0  0  0  0  0  0  0  0  0
  142.3660   80.9970  223.5110 C   0  0  0  0  0  0  0  0  0  0  0  0
  142.4670   79.6550  223.8180 C   0  0  0  0  0  0  0  0  0  0  0  0
  141.4150   78.8430  223.6580 N   0  0  0  0  0  0  0  0  0  0  0  0
  141.0850   76.6790  221.1230 N   0  0  0  0  0  0  0  0  0  0  0  0
  141.4900   78.0170  220.7620 C   0  0  0  0  0  0  0  0  0  0  0  0
  141.9640   78.1860  219.3630 C   0  0  0  0  0  0  0  0  0  0  0  0
  141.1250   77.5790  218.2930 C   0  0  0  0  0  0  0  0  0  0  0  0
  141.7450   77.7390  216.9180 C   0  0  0  0  0  0  0  0  0  0  0  0
  142.6440   78.8750  216.8750 N   0  0  0  0  0  0  0  0  0  0  0  0
  142.1530   79.9860  217.6610 C   0  0  0  0  0  0  0  0  0  0  0  0
  142.1790   79.6840  219.1260 C   0  0  0  0  0  0  0  0  0  0  0  0
  144.8335   73.4547  222.3002 H   0  0  0  0  0  0  0  0  0  0  0  0
  147.0203   73.4710  221.2328 H   0  0  0  0  0  0  0  0  0  0  0  0
  147.1312   73.3934  218.6509 H   0  0  0  0  0  0  0  0  0  0  0  0
  142.5780   71.1714  221.0206 H   0  0  0  0  0  0  0  0  0  0  0  0
  140.3965   70.8397  222.0229 H   0  0  0  0  0  0  0  0  0  0  0  0
  138.9037   72.7606  222.5159 H   0  0  0  0  0  0  0  0  0  0  0  0
  138.0627   77.7033  221.3521 H   0  0  0  0  0  0  0  0  0  0  0  0
  138.4272   78.1746  223.9054 H   0  0  0  0  0  0  0  0  0  0  0  0
  139.1337   80.9719  222.5162 H   0  0  0  0  0  0  0  0  0  0  0  0
  141.0393   82.5124  222.7920 H   0  0  0  0  0  0  0  0  0  0  0  0
  143.2215   81.6772  223.6351 H   0  0  0  0  0  0  0  0  0  0  0  0
  143.4174   79.2506  224.1963 H   0  0  0  0  0  0  0  0  0  0  0  0
  140.6280   78.6839  220.9108 H   0  0  0  0  0  0  0  0  0  0  0  0
  142.3509   78.2558  221.4038 H   0  0  0  0  0  0  0  0  0  0  0  0
  142.8980   77.6112  219.2778 H   0  0  0  0  0  0  0  0  0  0  0  0
  141.0034   76.5063  218.5040 H   0  0  0  0  0  0  0  0  0  0  0  0
  140.1556   78.0988  218.2886 H   0  0  0  0  0  0  0  0  0  0  0  0
  142.3079   76.8269  216.6703 H   0  0  0  0  0  0  0  0  0  0  0  0
  140.9375   77.9074  216.1903 H   0  0  0  0  0  0  0  0  0  0  0  0
  142.9280   79.1370  215.9280 H   0  0  0  0  0  0  0  0  0  0  0  0
  142.7844   80.8657  217.4675 H   0  0  0  0  0  0  0  0  0  0  0  0
  141.1096   80.1766  217.3695 H   0  0  0  0  0  0  0  0  0  0  0  0
  143.1536   79.9809  219.5406 H   0  0  0  0  0  0  0  0  0  0  0  0
  141.3726   80.2444  219.6216 H   0  0  0  0  0  0  0  0  0  0  0  0
  1  2  2  0
  2  3  1  0
  3  4  2  0
  4  5  1  0
  5  6  2  0
  6  7  1  0
  7  8  2  0
  8  9  1  0
  4 10  1  0
 10 11  2  0
 11 12  1  0
 12 13  2  0
 13 14  1  0
 14 15  2  0
 15 16  1  0
 16 17  2  0
 17 18  1  0
 18 19  2  0
 19 20  1  0
 20 21  2  0
 21 22  1  0
 22 23  2  0
 15 24  1  0
 24 25  1  0
 25 26  1  0
 26 27  1  0
 27 28  1  0
 28 29  1  0
 29 30  1  0
 30 31  1  0
 24  2  1  0
 31 26  1  0
 13  3  1  0
 23 18  1  0
  9  5  1  0
  6 32  1  0
  7 33  1  0
  8 34  1  0
 10 35  1  0
 11 36  1  0
 12 37  1  0
 16 38  1  0
 17 39  1  0
 19 40  1  0
 20 41  1  0
 21 42  1  0
 22 43  1  0
 25 44  1  0
 25 45  1  0
 26 46  1  0
 27 47  1  0
 27 48  1  0
 28 49  1  0
 28 50  1  0
 29 51  1  0
 30 52  1  0
 30 53  1  0
 31 54  1  0
 31 55  1  0
M  END
>  <smiles>  (49) 
O=c1c2c(-c3cccs3)cccc2nc(/C=C/c2ccccn2)n1CC1CCNCC1

>  <score_type>  (49) 
oracle

>  <origin>  (49) 
autodockgpu

>  <m_score__min__energy>  (49) 
-7.7699999999999996

>  <m_primary>  (49) 
energy

>  <rmsd>  (49) 
6.252115844416544

>  <m_score__min__rmsd>  (49) 
6.252115844416544

>  <meeko>  (49) 
{"free_energy": -7.65, "intermolecular_energy": -9.44, "internal_energy": -1.88, "cluster_size": 20, "cluster_id": 1, "rank_in_cluster": 13}

>  <energy>  (49) 
-6.57

>  <cluster_rmsd>  (49) 
0.72

>  <cluster>  (49) 
6

$$$$

     RDKit          3D

 55 59  0  0  0  0  0  0  0  0999 V2000
  143.0160   75.8440  220.2950 O   0  0  0  0  0  0  0  0  0  0  0  0
  141.9400   75.5660  220.8430 C   0  0  0  0  0  0  0  0  0  0  0  0
  141.5870   74.2900  221.1730 C   0  0  0  0  0  0  0  0  0  0  0  0
  142.4090   73.2320  220.8990 C   0  0  0  0  0  0  0  0  0  0  0  0
  143.7280   73.2440  220.4000 C   0  0  0  0  0  0  0  0  0  0  0  0
  144.0750   73.2200  219.0530 C   0  0  0  0  0  0  0  0  0  0  0  0
  145.3630   73.2710  218.7290 C   0  0  0  0  0  0  0  0  0  0  0  0
  146.3180   73.3460  219.6800 C   0  0  0  0  0  0  0  0  0  0  0  0
  145.3380   73.3460  221.2000 S   0  0  0  0  0  0  0  0  0  0  0  0
  141.8830   71.9770  221.2740 C   0  0  0  0  0  0  0  0  0  0  0  0
  140.6630   71.8230  221.8620 C   0  0  0  0  0  0  0  0  0  0  0  0
  139.8590   72.8980  222.1310 C   0  0  0  0  0  0  0  0  0  0  0  0
  140.3370   74.1380  221.7780 C   0  0  0  0  0  0  0  0  0  0  0  0
  139.5670   75.1940  222.0030 N   0  0  0  0  0  0  0  0  0  0  0  0
  139.9170   76.4500  221.6790 C   0  0  0  0  0  0  0  0  0  0  0  0
  138.9960   77.5330  221.9900 C   0  0  0  0  0  0  0  0  0  0  0  0
  139.2170   78.2990  223.0400 C   0  0  0  0  0  0  0  0  0  0  0  0
  140.3340   79.2240  223.1570 C   0  0  0  0  0  0  0  0  0  0  0  0
  141.5230   78.9280  223.7670 C   0  0  0  0  0  0  0  0  0  0  0  0
  142.5430   79.8590  223.8400 C   0  0  0  0  0  0  0  0  0  0  0  0
  142.3910   81.1080  223.3010 C   0  0  0  0  0  0  0  0  0  0  0  0
  141.1890   81.3950  222.6880 C   0  0  0  0  0  0  0  0  0  0  0  0
  140.2200   80.4730  222.6330 N   0  0  0  0  0  0  0  0  0  0  0  0
  141.1120   76.6160  221.0960 N   0  0  0  0  0  0  0  0  0  0  0  0
  141.5380   77.9380  220.7010 C   0  0  0  0  0  0  0  0  0  0  0  0
  142.0040   78.0650  219.2950 C   0  0  0  0  0  0  0  0  0  0  0  0
  141.1720   77.4080  218.2500 C   0  0  0  0  0  0  0  0  0  0  0  0
  141.7840   77.5300  216.8680 C   0  0  0  0  0  0  0  0  0  0  0  0
  142.6640   78.6780  216.7820 N   0  0  0  0  0  0  0  0  0  0  0  0
  142.1580   79.8090  217.5310 C   0  0  0  0  0  0  0  0  0  0  0  0
  142.1940   79.5580  219.0050 C   0  0  0  0  0  0  0  0  0  0  0  0
  143.3009   73.1602  218.2737 H   0  0  0  0  0  0  0  0  0  0  0  0
  145.6555   73.2518  217.6688 H   0  0  0  0  0  0  0  0  0  0  0  0
  147.4105   73.3946  219.5611 H   0  0  0  0  0  0  0  0  0  0  0  0
  142.4878   71.0784  221.0822 H   0  0  0  0  0  0  0  0  0  0  0  0
  140.3168   70.8129  222.1262 H   0  0  0  0  0  0  0  0  0  0  0  0
  138.8753   72.7753  222.6078 H   0  0  0  0  0  0  0  0  0  0  0  0
  138.1185   77.7118  221.3512 H   0  0  0  0  0  0  0  0  0  0  0  0
  138.5116   78.2347  223.8816 H   0  0  0  0  0  0  0  0  0  0  0  0
  141.6700   77.9308  224.2075 H   0  0  0  0  0  0  0  0  0  0  0  0
  143.4875   79.5927  224.3370 H   0  0  0  0  0  0  0  0  0  0  0  0
  143.1970   81.8547  223.3546 H   0  0  0  0  0  0  0  0  0  0  0  0
  141.0258   82.3871  222.2419 H   0  0  0  0  0  0  0  0  0  0  0  0
  140.6892   78.6237  220.8403 H   0  0  0  0  0  0  0  0  0  0  0  0
  142.4076   78.1767  221.3309 H   0  0  0  0  0  0  0  0  0  0  0  0
  142.9464   77.5018  219.2263 H   0  0  0  0  0  0  0  0  0  0  0  0
  141.0688   76.3414  218.4985 H   0  0  0  0  0  0  0  0  0  0  0  0
  140.1944   77.9119  218.2314 H   0  0  0  0  0  0  0  0  0  0  0  0
  142.3607   76.6191  216.6497 H   0  0  0  0  0  0  0  0  0  0  0  0
  140.9712   77.6598  216.1383 H   0  0  0  0  0  0  0  0  0  0  0  0
  142.9410   78.9120  215.8240 H   0  0  0  0  0  0  0  0  0  0  0  0
  142.7749   80.6911  217.3046 H   0  0  0  0  0  0  0  0  0  0  0  0
  141.1109   79.9738  217.2370 H   0  0  0  0  0  0  0  0  0  0  0  0
  143.1652   79.8847  219.4052 H   0  0  0  0  0  0  0  0  0  0  0  0
  141.3801   80.1220  219.4841 H   0  0  0  0  0  0  0  0  0  0  0  0
  1  2  2  0
  2  3  1  0
  3  4  2  0
  4  5  1  0
  5  6  2  0
  6  7  1  0
  7  8  2  0
  8  9  1  0
  4 10  1  0
 10 11  2  0
 11 12  1  0
 12 13  2  0
 13 14  1  0
 14 15  2  0
 15 16  1  0
 16 17  2  0
 17 18  1  0
 18 19  2  0
 19 20  1  0
 20 21  2  0
 21 22  1  0
 22 23  2  0
 15 24  1  0
 24 25  1  0
 25 26  1  0
 26 27  1  0
 27 28  1  0
 28 29  1  0
 29 30  1  0
 30 31  1  0
 24  2  1  0
 31 26  1  0
 13  3  1  0
 23 18  1  0
  9  5  1  0
  6 32  1  0
  7 33  1  0
  8 34  1  0
 10 35  1  0
 11 36  1  0
 12 37  1  0
 16 38  1  0
 17 39  1  0
 19 40  1  0
 20 41  1  0
 21 42  1  0
 22 43  1  0
 25 44  1  0
 25 45  1  0
 26 46  1  0
 27 47  1  0
 27 48  1  0
 28 49  1  0
 28 50  1  0
 29 51  1  0
 30 52  1  0
 30 53  1  0
 31 54  1  0
 31 55  1  0
M  END
>  <smiles>  (50) 
O=c1c2c(-c3cccs3)cccc2nc(/C=C/c2ccccn2)n1CC1CCNCC1

>  <score_type>  (50) 
oracle

>  <origin>  (50) 
autodockgpu

>  <m_score__min__energy>  (50) 
-7.7699999999999996

>  <m_primary>  (50) 
energy

>  <rmsd>  (50) 
6.497545499782888

>  <m_score__min__rmsd>  (50) 
6.497545499782888

>  <meeko>  (50) 
{"free_energy": -7.66, "intermolecular_energy": -9.45, "internal_energy": -1.88, "cluster_size": 20, "cluster_id": 1, "rank_in_cluster": 12}

>  <energy>  (50) 
-6.5

>  <cluster_rmsd>  (50) 
1.0

>  <cluster>  (50) 
6

$$$$
