
     RDKit          3D

 53 55  0  0  0  0  0  0  0  0999 V2000
  140.1320   80.4330  223.4650 C   0  0  0  0  0  0  0  0  0  0  0  0
  141.4240   79.8150  223.8830 C   0  0  0  0  0  0  0  0  0  0  0  0
  142.4980   80.9060  223.7530 C   0  0  0  0  0  0  0  0  0  0  0  0
  141.8960   78.6600  223.0870 C   0  0  0  0  0  0  0  0  0  0  0  0
  141.1210   78.2700  221.8890 C   0  0  2  0  0  0  0  0  0  0  0  0
  141.0360   76.8830  221.5780 N   0  0  0  0  0  0  0  0  0  0  0  0
  139.7650   76.3450  221.1630 C   0  0  0  0  0  0  0  0  0  0  0  0
  138.7360   77.0600  221.0680 O   0  0  0  0  0  0  0  0  0  0  0  0
  139.6310   74.8950  220.8270 C   0  0  0  0  0  0  0  0  0  0  0  0
  139.6760   74.1350  222.0500 N   0  0  0  0  0  0  0  0  0  0  0  0
  139.9600   72.7360  221.9290 C   0  0  0  0  0  0  0  0  0  0  0  0
  140.1420   72.3260  220.7380 O   0  0  0  0  0  0  0  0  0  0  0  0
  140.0360   71.8570  223.0670 C   0  0  0  0  0  0  0  0  0  0  0  0
  139.5850   70.5650  222.9250 C   0  0  0  0  0  0  0  0  0  0  0  0
  139.6050   69.6350  223.9310 C   0  0  0  0  0  0  0  0  0  0  0  0
  140.1030   70.0140  225.1580 C   0  0  0  0  0  0  0  0  0  0  0  0
  140.1440   69.1220  226.1950 C   0  0  0  0  0  0  0  0  0  0  0  0
  140.6340   69.4780  227.4160 C   0  0  0  0  0  0  0  0  0  0  0  0
  140.6790   68.3210  228.7380 Cl  0  0  0  0  0  0  0  0  0  0  0  0
  141.0970   70.7880  227.5810 C   0  0  0  0  0  0  0  0  0  0  0  0
  141.0550   71.6940  226.5220 C   0  0  0  0  0  0  0  0  0  0  0  0
  140.5550   71.3170  225.2940 C   0  0  0  0  0  0  0  0  0  0  0  0
  140.5190   72.2050  224.2740 N   0  0  0  0  0  0  0  0  0  0  0  0
  141.5480   79.0010  220.6590 C   0  0  0  0  0  0  0  0  0  0  0  0
  141.4210   80.3690  220.5290 C   0  0  0  0  0  0  0  0  0  0  0  0
  141.8290   81.0040  219.3740 C   0  0  0  0  0  0  0  0  0  0  0  0
  142.3740   80.3030  218.3170 C   0  0  0  0  0  0  0  0  0  0  0  0
  142.5110   78.9230  218.4300 C   0  0  0  0  0  0  0  0  0  0  0  0
  142.0960   78.2990  219.5940 C   0  0  0  0  0  0  0  0  0  0  0  0
  139.5524   80.7103  224.3578 H   0  0  0  0  0  0  0  0  0  0  0  0
  140.3331   81.3324  222.8645 H   0  0  0  0  0  0  0  0  0  0  0  0
  139.5580   79.7120  222.8645 H   0  0  0  0  0  0  0  0  0  0  0  0
  141.2530   79.4281  224.8984 H   0  0  0  0  0  0  0  0  0  0  0  0
  142.8159   81.2289  224.7554 H   0  0  0  0  0  0  0  0  0  0  0  0
  143.3636   80.5050  223.2053 H   0  0  0  0  0  0  0  0  0  0  0  0
  142.0835   81.7652  223.2053 H   0  0  0  0  0  0  0  0  0  0  0  0
  142.9182   78.8910  222.7526 H   0  0  0  0  0  0  0  0  0  0  0  0
  141.7940   77.8017  223.7674 H   0  0  0  0  0  0  0  0  0  0  0  0
  140.1094   78.5677  222.2022 H   0  0  0  0  0  0  0  0  0  0  0  0
  141.8100   76.1880  221.6090 H   0  0  0  0  0  0  0  0  0  0  0  0
  138.6725   74.7197  220.3165 H   0  0  0  0  0  0  0  0  0  0  0  0
  140.4503   74.5857  220.1613 H   0  0  0  0  0  0  0  0  0  0  0  0
  139.5130   74.5540  223.0010 H   0  0  0  0  0  0  0  0  0  0  0  0
  139.1849   70.2608  221.9465 H   0  0  0  0  0  0  0  0  0  0  0  0
  139.2334   68.6133  223.7633 H   0  0  0  0  0  0  0  0  0  0  0  0
  139.7743   68.0976  226.0401 H   0  0  0  0  0  0  0  0  0  0  0  0
  141.4977   71.1060  228.5548 H   0  0  0  0  0  0  0  0  0  0  0  0
  141.4245   72.7198  226.6679 H   0  0  0  0  0  0  0  0  0  0  0  0
  140.9911   80.9578  221.3527 H   0  0  0  0  0  0  0  0  0  0  0  0
  141.7173   82.0953  219.2935 H   0  0  0  0  0  0  0  0  0  0  0  0
  142.6937   80.8253  217.4032 H   0  0  0  0  0  0  0  0  0  0  0  0
  142.9430   78.3361  217.6060 H   0  0  0  0  0  0  0  0  0  0  0  0
  142.2043   77.2076  219.6781 H   0  0  0  0  0  0  0  0  0  0  0  0
  1  2  1  0
  2  3  1  0
  2  4  1  0
  4  5  1  0
  5  6  1  0
  6  7  1  0
  7  8  2  0
  7  9  1  0
  9 10  1  0
 10 11  1  0
 11 12  2  0
 11 13  1  0
 13 14  2  0
 14 15  1  0
 15 16  2  0
 16 17  1  0
 17 18  2  0
 18 19  1  0
 18 20  1  0
 20 21  2  0
 21 22  1  0
 22 23  2  0
  5 24  1  0
 24 25  2  0
 25 26  1  0
 26 27  2  0
 27 28  1  0
 28 29  2  0
 23 13  1  0
 29 24  1  0
 22 16  1  0
  1 30  1  0
  1 31  1  0
  1 32  1  0
  2 33  1  0
  3 34  1  0
  3 35  1  0
  3 36  1  0
  4 37  1  0
  4 38  1  0
  5 39  1  1
  6 40  1  0
  9 41  1  0
  9 42  1  0
 10 43  1  0
 14 44  1  0
 15 45  1  0
 17 46  1  0
 20 47  1  0
 21 48  1  0
 25 49  1  0
 26 50  1  0
 27 51  1  0
 28 52  1  0
 29 53  1  0
M  END
>  <smiles>  (1) 
CC(C)C[C@H](NC(=O)CNC(=O)c1ccc2cc(Cl)ccc2n1)c1ccccc1

>  <score_type>  (1) 
oracle

>  <origin>  (1) 
autodockgpu

>  <m_score__min__energy>  (1) 
-9

>  <m_primary>  (1) 
energy

>  <rmsd>  (1) 
3.98289437092364

>  <m_score__min__rmsd>  (1) 
3.98289437092364

>  <meeko>  (1) 
{"free_energy": -9.0, "intermolecular_energy": -11.09, "internal_energy": -1.43, "cluster_size": 16, "cluster_id": 1, "rank_in_cluster": 1}

>  <energy>  (1) 
-9.0

>  <cluster_rmsd>  (1) 
0.0

>  <cluster>  (1) 
1

$$$$

     RDKit          3D

 53 55  0  0  0  0  0  0  0  0999 V2000
  140.3380   80.2220  218.8670 C   0  0  0  0  0  0  0  0  0  0  0  0
  141.7750   79.9240  219.1370 C   0  0  0  0  0  0  0  0  0  0  0  0
  142.5720   80.4750  217.9450 C   0  0  0  0  0  0  0  0  0  0  0  0
  142.1430   78.4970  219.2700 C   0  0  0  0  0  0  0  0  0  0  0  0
  141.6890   77.7630  220.4720 C   0  0  2  0  0  0  0  0  0  0  0  0
  140.5640   76.9010  220.3350 N   0  0  0  0  0  0  0  0  0  0  0  0
  140.5050   75.7100  221.1450 C   0  0  0  0  0  0  0  0  0  0  0  0
  141.4110   75.4130  221.9620 O   0  0  0  0  0  0  0  0  0  0  0  0
  139.3430   74.7770  221.0340 C   0  0  0  0  0  0  0  0  0  0  0  0
  139.2960   73.9600  222.2200 N   0  0  0  0  0  0  0  0  0  0  0  0
  140.0710   72.7550  222.2040 C   0  0  0  0  0  0  0  0  0  0  0  0
  140.7190   72.5480  221.1290 O   0  0  0  0  0  0  0  0  0  0  0  0
  140.1170   71.8460  223.3200 C   0  0  0  0  0  0  0  0  0  0  0  0
  139.6360   70.5690  223.1420 C   0  0  0  0  0  0  0  0  0  0  0  0
  139.6250   69.6140  224.1230 C   0  0  0  0  0  0  0  0  0  0  0  0
  140.1230   69.9490  225.3630 C   0  0  0  0  0  0  0  0  0  0  0  0
  140.1330   69.0310  226.3780 C   0  0  0  0  0  0  0  0  0  0  0  0
  140.6210   69.3430  227.6110 C   0  0  0  0  0  0  0  0  0  0  0  0
  140.6280   68.1520  228.9030 Cl  0  0  0  0  0  0  0  0  0  0  0  0
  141.1140   70.6370  227.8130 C   0  0  0  0  0  0  0  0  0  0  0  0
  141.1030   71.5710  226.7780 C   0  0  0  0  0  0  0  0  0  0  0  0
  140.6040   71.2370  225.5360 C   0  0  0  0  0  0  0  0  0  0  0  0
  140.5980   72.1520  224.5390 N   0  0  0  0  0  0  0  0  0  0  0  0
  141.4540   78.6580  221.6430 C   0  0  0  0  0  0  0  0  0  0  0  0
  140.1940   78.8890  222.1580 C   0  0  0  0  0  0  0  0  0  0  0  0
  140.0220   79.7240  223.2420 C   0  0  0  0  0  0  0  0  0  0  0  0
  141.0920   80.3530  223.8470 C   0  0  0  0  0  0  0  0  0  0  0  0
  142.3690   80.1330  223.3430 C   0  0  0  0  0  0  0  0  0  0  0  0
  142.5270   79.2930  222.2530 C   0  0  0  0  0  0  0  0  0  0  0  0
  139.8012   80.3333  219.8206 H   0  0  0  0  0  0  0  0  0  0  0  0
  140.2591   81.1556  218.2907 H   0  0  0  0  0  0  0  0  0  0  0  0
  139.8944   79.3967  218.2907 H   0  0  0  0  0  0  0  0  0  0  0  0
  141.9950   80.3811  220.1130 H   0  0  0  0  0  0  0  0  0  0  0  0
  143.4242   81.0642  218.3146 H   0  0  0  0  0  0  0  0  0  0  0  0
  142.9420   79.6389  217.3334 H   0  0  0  0  0  0  0  0  0  0  0  0
  141.9205   81.1165  217.3334 H   0  0  0  0  0  0  0  0  0  0  0  0
  141.7333   77.9723  218.3943 H   0  0  0  0  0  0  0  0  0  0  0  0
  143.2395   78.5072  219.3571 H   0  0  0  0  0  0  0  0  0  0  0  0
  142.5524   77.1023  220.6390 H   0  0  0  0  0  0  0  0  0  0  0  0
  139.7480   77.0350  219.7040 H   0  0  0  0  0  0  0  0  0  0  0  0
  138.4111   75.3545  220.9444 H   0  0  0  0  0  0  0  0  0  0  0  0
  139.4546   74.1413  220.1433 H   0  0  0  0  0  0  0  0  0  0  0  0
  138.7310   74.2060  223.0720 H   0  0  0  0  0  0  0  0  0  0  0  0
  139.2367   70.2996  222.1531 H   0  0  0  0  0  0  0  0  0  0  0  0
  139.2293   68.6066  223.9264 H   0  0  0  0  0  0  0  0  0  0  0  0
  139.7389   68.0206  226.1944 H   0  0  0  0  0  0  0  0  0  0  0  0
  141.5140   70.9199  228.7978 H   0  0  0  0  0  0  0  0  0  0  0  0
  141.4958   72.5834  226.9533 H   0  0  0  0  0  0  0  0  0  0  0  0
  139.3200   78.4030  221.6999 H   0  0  0  0  0  0  0  0  0  0  0  0
  139.0082   79.8930  223.6340 H   0  0  0  0  0  0  0  0  0  0  0  0
  140.9370   81.0156  224.7113 H   0  0  0  0  0  0  0  0  0  0  0  0
  143.2417   80.6193  223.8034 H   0  0  0  0  0  0  0  0  0  0  0  0
  143.5389   79.1231  221.8567 H   0  0  0  0  0  0  0  0  0  0  0  0
  1  2  1  0
  2  3  1  0
  2  4  1  0
  4  5  1  0
  5  6  1  0
  6  7  1  0
  7  8  2  0
  7  9  1  0
  9 10  1  0
 10 11  1  0
 11 12  2  0
 11 13  1  0
 13 14  2  0
 14 15  1  0
 15 16  2  0
 16 17  1  0
 17 18  2  0
 18 19  1  0
 18 20  1  0
 20 21  2  0
 21 22  1  0
 22 23  2  0
  5 24  1  0
 24 25  2  0
 25 26  1  0
 26 27  2  0
 27 28  1  0
 28 29  2  0
 23 13  1  0
 29 24  1  0
 22 16  1  0
  1 30  1  0
  1 31  1  0
  1 32  1  0
  2 33  1  0
  3 34  1  0
  3 35  1  0
  3 36  1  0
  4 37  1  0
  4 38  1  0
  5 39  1  1
  6 40  1  0
  9 41  1  0
  9 42  1  0
 10 43  1  0
 14 44  1  0
 15 45  1  0
 17 46  1  0
 20 47  1  0
 21 48  1  0
 25 49  1  0
 26 50  1  0
 27 51  1  0
 28 52  1  0
 29 53  1  0
M  END
>  <smiles>  (2) 
CC(C)C[C@H](NC(=O)CNC(=O)c1ccc2cc(Cl)ccc2n1)c1ccccc1

>  <score_type>  (2) 
oracle

>  <origin>  (2) 
autodockgpu

>  <m_score__min__energy>  (2) 
-9

>  <m_primary>  (2) 
energy

>  <rmsd>  (2) 
2.6810490906984494

>  <m_score__min__rmsd>  (2) 
2.6810490906984494

>  <meeko>  (2) 
{"free_energy": -8.48, "intermolecular_energy": -10.57, "internal_energy": -1.47, "cluster_size": 16, "cluster_id": 1, "rank_in_cluster": 4}

>  <energy>  (2) 
-8.9

>  <cluster_rmsd>  (2) 
0.18

>  <cluster>  (2) 
1

$$$$

     RDKit          3D

 53 55  0  0  0  0  0  0  0  0999 V2000
  142.1280   79.3050  223.2760 C   0  0  0  0  0  0  0  0  0  0  0  0
  141.1780   78.6250  222.3480 C   0  0  0  0  0  0  0  0  0  0  0  0
  139.9080   79.4880  222.3070 C   0  0  0  0  0  0  0  0  0  0  0  0
  140.7490   77.2590  222.7190 C   0  0  0  0  0  0  0  0  0  0  0  0
  140.3460   76.3310  221.6400 C   0  0  2  0  0  0  0  0  0  0  0  0
  139.3860   75.3270  221.9540 N   0  0  0  0  0  0  0  0  0  0  0  0
  138.6450   74.7190  220.8770 C   0  0  0  0  0  0  0  0  0  0  0  0
  138.8210   75.0480  219.6770 O   0  0  0  0  0  0  0  0  0  0  0  0
  137.6290   73.6620  221.1600 C   0  0  0  0  0  0  0  0  0  0  0  0
  137.9810   73.0060  222.3940 N   0  0  0  0  0  0  0  0  0  0  0  0
  138.7610   71.8090  222.2890 C   0  0  0  0  0  0  0  0  0  0  0  0
  139.0540   71.4630  221.1000 O   0  0  0  0  0  0  0  0  0  0  0  0
  139.1830   71.0530  223.4390 C   0  0  0  0  0  0  0  0  0  0  0  0
  139.0030   69.6890  223.4260 C   0  0  0  0  0  0  0  0  0  0  0  0
  139.3630   68.8610  224.4560 C   0  0  0  0  0  0  0  0  0  0  0  0
  139.9380   69.4260  225.5740 C   0  0  0  0  0  0  0  0  0  0  0  0
  140.3140   68.6420  226.6300 C   0  0  0  0  0  0  0  0  0  0  0  0
  140.8850   69.1810  227.7440 C   0  0  0  0  0  0  0  0  0  0  0  0
  141.3630   68.1610  229.0930 Cl  0  0  0  0  0  0  0  0  0  0  0  0
  141.0770   70.5670  227.7780 C   0  0  0  0  0  0  0  0  0  0  0  0
  140.6920   71.3630  226.6990 C   0  0  0  0  0  0  0  0  0  0  0  0
  140.1150   70.8000  225.5810 C   0  0  0  0  0  0  0  0  0  0  0  0
  139.7470   71.5820  224.5400 N   0  0  0  0  0  0  0  0  0  0  0  0
  141.5100   75.6750  220.9740 C   0  0  0  0  0  0  0  0  0  0  0  0
  142.3390   76.3480  220.1000 C   0  0  0  0  0  0  0  0  0  0  0  0
  143.4050   75.7040  219.5070 C   0  0  0  0  0  0  0  0  0  0  0  0
  143.6780   74.3740  219.7630 C   0  0  0  0  0  0  0  0  0  0  0  0
  142.8540   73.6790  220.6410 C   0  0  0  0  0  0  0  0  0  0  0  0
  141.7880   74.3400  221.2290 C   0  0  0  0  0  0  0  0  0  0  0  0
  141.8369   79.0967  224.3161 H   0  0  0  0  0  0  0  0  0  0  0  0
  143.1465   78.9295  223.0980 H   0  0  0  0  0  0  0  0  0  0  0  0
  142.1010   80.3902  223.0980 H   0  0  0  0  0  0  0  0  0  0  0  0
  141.7184   78.5192  221.3957 H   0  0  0  0  0  0  0  0  0  0  0  0
  139.5819   79.7096  223.3339 H   0  0  0  0  0  0  0  0  0  0  0  0
  140.1211   80.4291  221.7789 H   0  0  0  0  0  0  0  0  0  0  0  0
  139.1115   78.9434  221.7789 H   0  0  0  0  0  0  0  0  0  0  0  0
  141.5866   76.7896  223.2557 H   0  0  0  0  0  0  0  0  0  0  0  0
  139.8283   77.4133  223.3009 H   0  0  0  0  0  0  0  0  0  0  0  0
  139.8357   77.0289  220.9599 H   0  0  0  0  0  0  0  0  0  0  0  0
  139.1520   74.9620  222.8990 H   0  0  0  0  0  0  0  0  0  0  0  0
  136.6335   74.1204  221.2546 H   0  0  0  0  0  0  0  0  0  0  0  0
  137.6075   72.9311  220.3382 H   0  0  0  0  0  0  0  0  0  0  0  0
  137.6960   73.3620  223.3420 H   0  0  0  0  0  0  0  0  0  0  0  0
  138.5426   69.2365  222.5354 H   0  0  0  0  0  0  0  0  0  0  0  0
  139.1978   67.7753  224.3927 H   0  0  0  0  0  0  0  0  0  0  0  0
  140.1523   67.5551  226.5791 H   0  0  0  0  0  0  0  0  0  0  0  0
  141.5353   71.0325  228.6630 H   0  0  0  0  0  0  0  0  0  0  0  0
  140.8505   72.4507  226.7408 H   0  0  0  0  0  0  0  0  0  0  0  0
  142.1481   77.4075  219.8742 H   0  0  0  0  0  0  0  0  0  0  0  0
  144.0524   76.2620  218.8146 H   0  0  0  0  0  0  0  0  0  0  0  0
  144.5313   73.8744  219.2811 H   0  0  0  0  0  0  0  0  0  0  0  0
  143.0458   72.6194  220.8656 H   0  0  0  0  0  0  0  0  0  0  0  0
  141.1386   73.7864  221.9231 H   0  0  0  0  0  0  0  0  0  0  0  0
  1  2  1  0
  2  3  1  0
  2  4  1  0
  4  5  1  0
  5  6  1  0
  6  7  1  0
  7  8  2  0
  7  9  1  0
  9 10  1  0
 10 11  1  0
 11 12  2  0
 11 13  1  0
 13 14  2  0
 14 15  1  0
 15 16  2  0
 16 17  1  0
 17 18  2  0
 18 19  1  0
 18 20  1  0
 20 21  2  0
 21 22  1  0
 22 23  2  0
  5 24  1  0
 24 25  2  0
 25 26  1  0
 26 27  2  0
 27 28  1  0
 28 29  2  0
 23 13  1  0
 29 24  1  0
 22 16  1  0
  1 30  1  0
  1 31  1  0
  1 32  1  0
  2 33  1  0
  3 34  1  0
  3 35  1  0
  3 36  1  0
  4 37  1  0
  4 38  1  0
  5 39  1  6
  6 40  1  0
  9 41  1  0
  9 42  1  0
 10 43  1  0
 14 44  1  0
 15 45  1  0
 17 46  1  0
 20 47  1  0
 21 48  1  0
 25 49  1  0
 26 50  1  0
 27 51  1  0
 28 52  1  0
 29 53  1  0
M  END
>  <smiles>  (3) 
CC(C)C[C@H](NC(=O)CNC(=O)c1ccc2cc(Cl)ccc2n1)c1ccccc1

>  <score_type>  (3) 
oracle

>  <origin>  (3) 
autodockgpu

>  <m_score__min__energy>  (3) 
-9

>  <m_primary>  (3) 
energy

>  <rmsd>  (3) 
3.299510753544162

>  <m_score__min__rmsd>  (3) 
3.299510753544162

>  <meeko>  (3) 
{"free_energy": -8.29, "intermolecular_energy": -10.38, "internal_energy": -1.74, "cluster_size": 16, "cluster_id": 1, "rank_in_cluster": 8}

>  <energy>  (3) 
-8.76

>  <cluster_rmsd>  (3) 
0.29

>  <cluster>  (3) 
1

$$$$

     RDKit          3D

 53 55  0  0  0  0  0  0  0  0999 V2000
  142.7750   73.3440  218.9680 C   0  0  0  0  0  0  0  0  0  0  0  0
  143.3840   74.6850  219.2120 C   0  0  0  0  0  0  0  0  0  0  0  0
  144.3880   74.5110  220.3610 C   0  0  0  0  0  0  0  0  0  0  0  0
  142.4620   75.7690  219.6160 C   0  0  0  0  0  0  0  0  0  0  0  0
  141.8270   75.6910  220.9500 C   0  0  2  0  0  0  0  0  0  0  0  0
  140.7340   74.7930  221.1110 N   0  0  0  0  0  0  0  0  0  0  0  0
  139.4530   75.1580  220.5570 C   0  0  0  0  0  0  0  0  0  0  0  0
  139.2760   76.2380  219.9400 O   0  0  0  0  0  0  0  0  0  0  0  0
  138.2790   74.2460  220.7020 C   0  0  0  0  0  0  0  0  0  0  0  0
  138.4170   73.5120  221.9340 N   0  0  0  0  0  0  0  0  0  0  0  0
  139.2550   72.3510  221.9020 C   0  0  0  0  0  0  0  0  0  0  0  0
  139.7850   72.1020  220.7720 O   0  0  0  0  0  0  0  0  0  0  0  0
  139.4830   71.5240  223.0590 C   0  0  0  0  0  0  0  0  0  0  0  0
  139.0440   70.2210  223.0280 C   0  0  0  0  0  0  0  0  0  0  0  0
  139.2010   69.3370  224.0630 C   0  0  0  0  0  0  0  0  0  0  0  0
  139.8350   69.7780  225.2040 C   0  0  0  0  0  0  0  0  0  0  0  0
  140.0160   68.9340  226.2660 C   0  0  0  0  0  0  0  0  0  0  0  0
  140.6400   69.3510  227.4030 C   0  0  0  0  0  0  0  0  0  0  0  0
  140.8650   68.2540  228.7580 Cl  0  0  0  0  0  0  0  0  0  0  0  0
  141.0950   70.6730  227.4560 C   0  0  0  0  0  0  0  0  0  0  0  0
  140.9090   71.5310  226.3720 C   0  0  0  0  0  0  0  0  0  0  0  0
  140.2740   71.0920  225.2290 C   0  0  0  0  0  0  0  0  0  0  0  0
  140.1000   71.9330  224.1840 N   0  0  0  0  0  0  0  0  0  0  0  0
  141.4180   77.0270  221.4760 C   0  0  0  0  0  0  0  0  0  0  0  0
  140.7330   77.1760  222.6650 C   0  0  0  0  0  0  0  0  0  0  0  0
  140.3740   78.4300  223.1150 C   0  0  0  0  0  0  0  0  0  0  0  0
  140.6830   79.5700  222.3990 C   0  0  0  0  0  0  0  0  0  0  0  0
  141.3730   79.4400  221.1990 C   0  0  0  0  0  0  0  0  0  0  0  0
  141.7260   78.1750  220.7600 C   0  0  0  0  0  0  0  0  0  0  0  0
  142.5553   72.8603  219.9312 H   0  0  0  0  0  0  0  0  0  0  0  0
  141.8427   73.4632  218.3965 H   0  0  0  0  0  0  0  0  0  0  0  0
  143.4782   72.7204  218.3965 H   0  0  0  0  0  0  0  0  0  0  0  0
  143.8086   74.9986  218.2470 H   0  0  0  0  0  0  0  0  0  0  0  0
  143.8632   74.6020  221.3234 H   0  0  0  0  0  0  0  0  0  0  0  0
  144.8566   73.5183  220.2913 H   0  0  0  0  0  0  0  0  0  0  0  0
  145.1633   75.2882  220.2913 H   0  0  0  0  0  0  0  0  0  0  0  0
  143.0308   76.7099  219.5809 H   0  0  0  0  0  0  0  0  0  0  0  0
  141.6217   75.6865  218.9109 H   0  0  0  0  0  0  0  0  0  0  0  0
  142.6526   75.2639  221.5381 H   0  0  0  0  0  0  0  0  0  0  0  0
  140.7490   73.8700  221.5910 H   0  0  0  0  0  0  0  0  0  0  0  0
  137.3513   74.8367  220.7244 H   0  0  0  0  0  0  0  0  0  0  0  0
  138.2370   73.5492  219.8519 H   0  0  0  0  0  0  0  0  0  0  0  0
  137.9420   73.7880  222.8310 H   0  0  0  0  0  0  0  0  0  0  0  0
  138.5367   69.8675  222.1182 H   0  0  0  0  0  0  0  0  0  0  0  0
  138.8312   68.3040  223.9852 H   0  0  0  0  0  0  0  0  0  0  0  0
  139.6505   67.8986  226.2003 H   0  0  0  0  0  0  0  0  0  0  0  0
  141.6037   71.0389  228.3601 H   0  0  0  0  0  0  0  0  0  0  0  0
  141.2722   72.5677  226.4293 H   0  0  0  0  0  0  0  0  0  0  0  0
  140.4711   76.2878  223.2587 H   0  0  0  0  0  0  0  0  0  0  0  0
  139.8291   78.5240  224.0659 H   0  0  0  0  0  0  0  0  0  0  0  0
  140.3886   80.5623  222.7713 H   0  0  0  0  0  0  0  0  0  0  0  0
  141.6348   80.3293  220.6068 H   0  0  0  0  0  0  0  0  0  0  0  0
  142.2703   78.0766  219.8092 H   0  0  0  0  0  0  0  0  0  0  0  0
  1  2  1  0
  2  3  1  0
  2  4  1  0
  4  5  1  0
  5  6  1  0
  6  7  1  0
  7  8  2  0
  7  9  1  0
  9 10  1  0
 10 11  1  0
 11 12  2  0
 11 13  1  0
 13 14  2  0
 14 15  1  0
 15 16  2  0
 16 17  1  0
 17 18  2  0
 18 19  1  0
 18 20  1  0
 20 21  2  0
 21 22  1  0
 22 23  2  0
  5 24  1  0
 24 25  2  0
 25 26  1  0
 26 27  2  0
 27 28  1  0
 28 29  2  0
 23 13  1  0
 29 24  1  0
 22 16  1  0
  1 30  1  0
  1 31  1  0
  1 32  1  0
  2 33  1  0
  3 34  1  0
  3 35  1  0
  3 36  1  0
  4 37  1  0
  4 38  1  0
  5 39  1  1
  6 40  1  0
  9 41  1  0
  9 42  1  0
 10 43  1  0
 14 44  1  0
 15 45  1  0
 17 46  1  0
 20 47  1  0
 21 48  1  0
 25 49  1  0
 26 50  1  0
 27 51  1  0
 28 52  1  0
 29 53  1  0
M  END
>  <smiles>  (4) 
CC(C)C[C@H](NC(=O)CNC(=O)c1ccc2cc(Cl)ccc2n1)c1ccccc1

>  <score_type>  (4) 
oracle

>  <origin>  (4) 
autodockgpu

>  <m_score__min__energy>  (4) 
-9

>  <m_primary>  (4) 
energy

>  <rmsd>  (4) 
2.0502026660483263

>  <m_score__min__rmsd>  (4) 
2.0502026660483263

>  <meeko>  (4) 
{"free_energy": -7.44, "intermolecular_energy": -9.53, "internal_energy": -2.21, "cluster_size": 16, "cluster_id": 1, "rank_in_cluster": 16}

>  <energy>  (4) 
-8.48

>  <cluster_rmsd>  (4) 
1.97

>  <cluster>  (4) 
1

$$$$

     RDKit          3D

 53 55  0  0  0  0  0  0  0  0999 V2000
  137.0130   79.8390  223.7680 C   0  0  0  0  0  0  0  0  0  0  0  0
  138.2240   79.9380  222.9010 C   0  0  0  0  0  0  0  0  0  0  0  0
  138.4330   81.4310  222.6030 C   0  0  0  0  0  0  0  0  0  0  0  0
  138.1610   79.2510  221.5920 C   0  0  0  0  0  0  0  0  0  0  0  0
  139.4310   78.8640  220.9400 C   0  0  2  0  0  0  0  0  0  0  0  0
  139.5650   77.5180  220.4970 N   0  0  0  0  0  0  0  0  0  0  0  0
  139.2520   76.4530  221.4170 C   0  0  0  0  0  0  0  0  0  0  0  0
  138.8670   76.6780  222.5920 O   0  0  0  0  0  0  0  0  0  0  0  0
  139.3780   75.0260  220.9950 C   0  0  0  0  0  0  0  0  0  0  0  0
  139.3670   74.1960  222.1720 N   0  0  0  0  0  0  0  0  0  0  0  0
  139.9500   72.8930  222.0480 C   0  0  0  0  0  0  0  0  0  0  0  0
  140.4140   72.6200  220.8940 O   0  0  0  0  0  0  0  0  0  0  0  0
  140.0080   71.9600  223.1430 C   0  0  0  0  0  0  0  0  0  0  0  0
  139.5620   70.6750  222.9310 C   0  0  0  0  0  0  0  0  0  0  0  0
  139.5660   69.6980  223.8900 C   0  0  0  0  0  0  0  0  0  0  0  0
  140.0430   70.0170  225.1430 C   0  0  0  0  0  0  0  0  0  0  0  0
  140.0680   69.0760  226.1360 C   0  0  0  0  0  0  0  0  0  0  0  0
  140.5360   69.3730  227.3800 C   0  0  0  0  0  0  0  0  0  0  0  0
  140.5610   68.1530  228.6460 Cl  0  0  0  0  0  0  0  0  0  0  0  0
  140.9940   70.6730  227.6170 C   0  0  0  0  0  0  0  0  0  0  0  0
  140.9680   71.6300  226.6030 C   0  0  0  0  0  0  0  0  0  0  0  0
  140.4900   71.3130  225.3500 C   0  0  0  0  0  0  0  0  0  0  0  0
  140.4700   72.2490  224.3730 N   0  0  0  0  0  0  0  0  0  0  0  0
  140.6320   79.2090  221.7580 C   0  0  0  0  0  0  0  0  0  0  0  0
  140.9960   78.4890  222.8780 C   0  0  0  0  0  0  0  0  0  0  0  0
  142.1130   78.8420  223.6060 C   0  0  0  0  0  0  0  0  0  0  0  0
  142.9000   79.9180  223.2450 C   0  0  0  0  0  0  0  0  0  0  0  0
  142.5500   80.6560  222.1190 C   0  0  0  0  0  0  0  0  0  0  0  0
  141.4250   80.2890  221.3990 C   0  0  0  0  0  0  0  0  0  0  0  0
  137.3159   79.8638  224.8252 H   0  0  0  0  0  0  0  0  0  0  0  0
  136.3421   80.6853  223.5589 H   0  0  0  0  0  0  0  0  0  0  0  0
  136.4885   78.8950  223.5589 H   0  0  0  0  0  0  0  0  0  0  0  0
  139.0310   79.4423  223.4605 H   0  0  0  0  0  0  0  0  0  0  0  0
  138.5107   81.9864  223.5493 H   0  0  0  0  0  0  0  0  0  0  0  0
  139.3584   81.5631  222.0232 H   0  0  0  0  0  0  0  0  0  0  0  0
  137.5795   81.8122  222.0232 H   0  0  0  0  0  0  0  0  0  0  0  0
  137.5752   78.3311  221.7352 H   0  0  0  0  0  0  0  0  0  0  0  0
  137.7255   79.9996  220.9138 H   0  0  0  0  0  0  0  0  0  0  0  0
  139.3775   79.4749  220.0268 H   0  0  0  0  0  0  0  0  0  0  0  0
  139.8650   77.1980  219.5530 H   0  0  0  0  0  0  0  0  0  0  0  0
  138.5337   74.7563  220.3435 H   0  0  0  0  0  0  0  0  0  0  0  0
  140.3168   74.8796  220.4407 H   0  0  0  0  0  0  0  0  0  0  0  0
  138.9610   74.5000  223.0940 H   0  0  0  0  0  0  0  0  0  0  0  0
  139.1798   70.4181  221.9320 H   0  0  0  0  0  0  0  0  0  0  0  0
  139.1984   68.6856  223.6665 H   0  0  0  0  0  0  0  0  0  0  0  0
  139.7030   68.0599  225.9255 H   0  0  0  0  0  0  0  0  0  0  0  0
  141.3781   70.9429  228.6118 H   0  0  0  0  0  0  0  0  0  0  0  0
  141.3326   72.6479  226.8053 H   0  0  0  0  0  0  0  0  0  0  0  0
  140.3901   77.6265  223.1926 H   0  0  0  0  0  0  0  0  0  0  0  0
  142.3833   78.2529  224.4947 H   0  0  0  0  0  0  0  0  0  0  0  0
  143.7873   80.1865  223.8370 H   0  0  0  0  0  0  0  0  0  0  0  0
  143.1573   81.5178  221.8052 H   0  0  0  0  0  0  0  0  0  0  0  0
  141.1504   80.8756  220.5099 H   0  0  0  0  0  0  0  0  0  0  0  0
  1  2  1  0
  2  3  1  0
  2  4  1  0
  4  5  1  0
  5  6  1  0
  6  7  1  0
  7  8  2  0
  7  9  1  0
  9 10  1  0
 10 11  1  0
 11 12  2  0
 11 13  1  0
 13 14  2  0
 14 15  1  0
 15 16  2  0
 16 17  1  0
 17 18  2  0
 18 19  1  0
 18 20  1  0
 20 21  2  0
 21 22  1  0
 22 23  2  0
  5 24  1  0
 24 25  2  0
 25 26  1  0
 26 27  2  0
 27 28  1  0
 28 29  2  0
 23 13  1  0
 29 24  1  0
 22 16  1  0
  1 30  1  0
  1 31  1  0
  1 32  1  0
  2 33  1  0
  3 34  1  0
  3 35  1  0
  3 36  1  0
  4 37  1  0
  4 38  1  0
  5 39  1  6
  6 40  1  0
  9 41  1  0
  9 42  1  0
 10 43  1  0
 14 44  1  0
 15 45  1  0
 17 46  1  0
 20 47  1  0
 21 48  1  0
 25 49  1  0
 26 50  1  0
 27 51  1  0
 28 52  1  0
 29 53  1  0
M  END
>  <smiles>  (5) 
CC(C)C[C@H](NC(=O)CNC(=O)c1ccc2cc(Cl)ccc2n1)c1ccccc1

>  <score_type>  (5) 
oracle

>  <origin>  (5) 
autodockgpu

>  <m_score__min__energy>  (5) 
-9

>  <m_primary>  (5) 
energy

>  <rmsd>  (5) 
3.83591535046438

>  <m_score__min__rmsd>  (5) 
3.83591535046438

>  <meeko>  (5) 
{"free_energy": -8.05, "intermolecular_energy": -10.14, "internal_energy": -1.8, "cluster_size": 16, "cluster_id": 1, "rank_in_cluster": 14}

>  <energy>  (5) 
-8.46

>  <cluster_rmsd>  (5) 
1.97

>  <cluster>  (5) 
1

$$$$

     RDKit          3D

 53 55  0  0  0  0  0  0  0  0999 V2000
  140.0510   80.3240  223.4780 C   0  0  0  0  0  0  0  0  0  0  0  0
  141.3830   79.7610  223.8480 C   0  0  0  0  0  0  0  0  0  0  0  0
  142.3880   80.9200  223.7780 C   0  0  0  0  0  0  0  0  0  0  0  0
  141.9140   78.6870  222.9810 C   0  0  0  0  0  0  0  0  0  0  0  0
  141.1470   78.3180  221.7700 C   0  0  2  0  0  0  0  0  0  0  0  0
  141.0810   76.9390  221.4230 N   0  0  0  0  0  0  0  0  0  0  0  0
  139.7850   76.3190  221.3020 C   0  0  0  0  0  0  0  0  0  0  0  0
  138.7190   76.9570  221.4910 O   0  0  0  0  0  0  0  0  0  0  0  0
  139.6680   74.8750  220.9400 C   0  0  0  0  0  0  0  0  0  0  0  0
  139.7060   74.0930  222.1500 N   0  0  0  0  0  0  0  0  0  0  0  0
  139.9830   72.6950  222.0060 C   0  0  0  0  0  0  0  0  0  0  0  0
  140.1640   72.3040  220.8090 O   0  0  0  0  0  0  0  0  0  0  0  0
  140.0510   71.7970  223.1300 C   0  0  0  0  0  0  0  0  0  0  0  0
  139.5930   70.5100  222.9660 C   0  0  0  0  0  0  0  0  0  0  0  0
  139.6040   69.5640  223.9560 C   0  0  0  0  0  0  0  0  0  0  0  0
  140.1030   69.9190  225.1900 C   0  0  0  0  0  0  0  0  0  0  0  0
  140.1350   69.0100  226.2120 C   0  0  0  0  0  0  0  0  0  0  0  0
  140.6250   69.3430  227.4400 C   0  0  0  0  0  0  0  0  0  0  0  0
  140.6600   68.1640  228.7430 Cl  0  0  0  0  0  0  0  0  0  0  0  0
  141.0960   70.6470  227.6280 C   0  0  0  0  0  0  0  0  0  0  0  0
  141.0610   71.5710  226.5840 C   0  0  0  0  0  0  0  0  0  0  0  0
  140.5620   71.2170  225.3490 C   0  0  0  0  0  0  0  0  0  0  0  0
  140.5330   72.1220  224.3430 N   0  0  0  0  0  0  0  0  0  0  0  0
  141.5690   79.0860  220.5610 C   0  0  0  0  0  0  0  0  0  0  0  0
  142.0700   78.4710  219.4310 C   0  0  0  0  0  0  0  0  0  0  0  0
  142.4480   79.2190  218.3350 C   0  0  0  0  0  0  0  0  0  0  0  0
  142.3410   80.5960  218.3280 C   0  0  0  0  0  0  0  0  0  0  0  0
  141.8390   81.2330  219.4580 C   0  0  0  0  0  0  0  0  0  0  0  0
  141.4640   80.4690  220.5500 C   0  0  0  0  0  0  0  0  0  0  0  0
  139.4870   80.5624  224.3918 H   0  0  0  0  0  0  0  0  0  0  0  0
  140.1919   81.2395  222.8847 H   0  0  0  0  0  0  0  0  0  0  0  0
  139.4925   79.5850  222.8847 H   0  0  0  0  0  0  0  0  0  0  0  0
  141.2465   79.3039  224.8392 H   0  0  0  0  0  0  0  0  0  0  0  0
  142.6589   81.2324  224.7973 H   0  0  0  0  0  0  0  0  0  0  0  0
  143.2910   80.5905  223.2433 H   0  0  0  0  0  0  0  0  0  0  0  0
  141.9339   81.7673  223.2433 H   0  0  0  0  0  0  0  0  0  0  0  0
  142.9146   79.0012  222.6494 H   0  0  0  0  0  0  0  0  0  0  0  0
  141.8757   77.7861  223.6111 H   0  0  0  0  0  0  0  0  0  0  0  0
  140.1306   78.5943  222.0870 H   0  0  0  0  0  0  0  0  0  0  0  0
  141.8830   76.3030  221.2340 H   0  0  0  0  0  0  0  0  0  0  0  0
  138.7170   74.7003  220.4156 H   0  0  0  0  0  0  0  0  0  0  0  0
  140.4979   74.5849  220.2789 H   0  0  0  0  0  0  0  0  0  0  0  0
  139.5440   74.4980  223.1070 H   0  0  0  0  0  0  0  0  0  0  0  0
  139.1944   70.2241  221.9814 H   0  0  0  0  0  0  0  0  0  0  0  0
  139.2247   68.5482  223.7709 H   0  0  0  0  0  0  0  0  0  0  0  0
  139.7582   67.9910  226.0397 H   0  0  0  0  0  0  0  0  0  0  0  0
  141.4973   70.9459  228.6076 H   0  0  0  0  0  0  0  0  0  0  0  0
  141.4353   72.5923  226.7478 H   0  0  0  0  0  0  0  0  0  0  0  0
  142.1686   77.3758  219.4043 H   0  0  0  0  0  0  0  0  0  0  0  0
  142.8439   78.7066  217.4458 H   0  0  0  0  0  0  0  0  0  0  0  0
  142.6469   81.1776  217.4459 H   0  0  0  0  0  0  0  0  0  0  0  0
  141.7413   82.3284  219.4837 H   0  0  0  0  0  0  0  0  0  0  0  0
  141.0683   80.9774  221.4416 H   0  0  0  0  0  0  0  0  0  0  0  0
  1  2  1  0
  2  3  1  0
  2  4  1  0
  4  5  1  0
  5  6  1  0
  6  7  1  0
  7  8  2  0
  7  9  1  0
  9 10  1  0
 10 11  1  0
 11 12  2  0
 11 13  1  0
 13 14  2  0
 14 15  1  0
 15 16  2  0
 16 17  1  0
 17 18  2  0
 18 19  1  0
 18 20  1  0
 20 21  2  0
 21 22  1  0
 22 23  2  0
  5 24  1  0
 24 25  2  0
 25 26  1  0
 26 27  2  0
 27 28  1  0
 28 29  2  0
 23 13  1  0
 29 24  1  0
 22 16  1  0
  1 30  1  0
  1 31  1  0
  1 32  1  0
  2 33  1  0
  3 34  1  0
  3 35  1  0
  3 36  1  0
  4 37  1  0
  4 38  1  0
  5 39  1  1
  6 40  1  0
  9 41  1  0
  9 42  1  0
 10 43  1  0
 14 44  1  0
 15 45  1  0
 17 46  1  0
 20 47  1  0
 21 48  1  0
 25 49  1  0
 26 50  1  0
 27 51  1  0
 28 52  1  0
 29 53  1  0
M  END
>  <smiles>  (6) 
CC(C)C[C@H](NC(=O)CNC(=O)c1ccc2cc(Cl)ccc2n1)c1ccccc1

>  <score_type>  (6) 
oracle

>  <origin>  (6) 
autodockgpu

>  <m_score__min__energy>  (6) 
-9

>  <m_primary>  (6) 
energy

>  <rmsd>  (6) 
3.9364926520377796

>  <m_score__min__rmsd>  (6) 
3.9364926520377796

>  <meeko>  (6) 
{"free_energy": -8.9, "intermolecular_energy": -10.99, "internal_energy": -1.43, "cluster_size": 16, "cluster_id": 1, "rank_in_cluster": 2}

>  <energy>  (6) 
-8.43

>  <cluster_rmsd>  (6) 
0.67

>  <cluster>  (6) 
1

$$$$

     RDKit          3D

 53 55  0  0  0  0  0  0  0  0999 V2000
  138.4570   81.6490  221.2210 C   0  0  0  0  0  0  0  0  0  0  0  0
  137.7150   80.6350  222.0260 C   0  0  0  0  0  0  0  0  0  0  0  0
  138.0770   80.8880  223.4980 C   0  0  0  0  0  0  0  0  0  0  0  0
  138.0240   79.2140  221.7530 C   0  0  0  0  0  0  0  0  0  0  0  0
  139.2900   78.8920  221.0580 C   0  0  2  0  0  0  0  0  0  0  0  0
  139.4830   77.5500  220.6230 N   0  0  0  0  0  0  0  0  0  0  0  0
  139.2230   76.4780  221.5510 C   0  0  0  0  0  0  0  0  0  0  0  0
  138.8330   76.6930  222.7260 O   0  0  0  0  0  0  0  0  0  0  0  0
  139.4130   75.0560  221.1370 C   0  0  0  0  0  0  0  0  0  0  0  0
  139.5210   74.2430  222.3210 N   0  0  0  0  0  0  0  0  0  0  0  0
  139.7730   72.8460  222.1240 C   0  0  0  0  0  0  0  0  0  0  0  0
  139.8710   72.4850  220.9080 O   0  0  0  0  0  0  0  0  0  0  0  0
  139.9050   71.9190  223.2180 C   0  0  0  0  0  0  0  0  0  0  0  0
  139.5160   70.6140  223.0170 C   0  0  0  0  0  0  0  0  0  0  0  0
  139.5930   69.6390  223.9760 C   0  0  0  0  0  0  0  0  0  0  0  0
  140.0860   69.9830  225.2160 C   0  0  0  0  0  0  0  0  0  0  0  0
  140.1820   69.0450  226.2080 C   0  0  0  0  0  0  0  0  0  0  0  0
  140.6670   69.3660  227.4400 C   0  0  0  0  0  0  0  0  0  0  0  0
  140.7840   68.1500  228.7040 Cl  0  0  0  0  0  0  0  0  0  0  0  0
  141.0670   70.6880  227.6650 C   0  0  0  0  0  0  0  0  0  0  0  0
  140.9680   71.6410  226.6520 C   0  0  0  0  0  0  0  0  0  0  0  0
  140.4740   71.2990  225.4110 C   0  0  0  0  0  0  0  0  0  0  0  0
  140.3830   72.2320  224.4360 N   0  0  0  0  0  0  0  0  0  0  0  0
  140.4970   79.3130  221.8290 C   0  0  0  0  0  0  0  0  0  0  0  0
  141.4660   80.1380  221.2960 C   0  0  0  0  0  0  0  0  0  0  0  0
  142.5670   80.5030  222.0440 C   0  0  0  0  0  0  0  0  0  0  0  0
  142.7380   80.0590  223.3410 C   0  0  0  0  0  0  0  0  0  0  0  0
  141.7720   79.2270  223.8960 C   0  0  0  0  0  0  0  0  0  0  0  0
  140.6730   78.8690  223.1330 C   0  0  0  0  0  0  0  0  0  0  0  0
  138.9697   82.3497  221.8964 H   0  0  0  0  0  0  0  0  0  0  0  0
  139.1989   81.1420  220.5866 H   0  0  0  0  0  0  0  0  0  0  0  0
  137.7493   82.2028  220.5866 H   0  0  0  0  0  0  0  0  0  0  0  0
  136.6550   80.7659  221.7628 H   0  0  0  0  0  0  0  0  0  0  0  0
  137.3492   80.3793  224.1472 H   0  0  0  0  0  0  0  0  0  0  0  0
  139.0850   80.4967  223.7002 H   0  0  0  0  0  0  0  0  0  0  0  0
  138.0560   81.9691  223.7002 H   0  0  0  0  0  0  0  0  0  0  0  0
  138.0427   78.6930  222.7216 H   0  0  0  0  0  0  0  0  0  0  0  0
  137.2401   78.8962  221.0498 H   0  0  0  0  0  0  0  0  0  0  0  0
  139.1708   79.4884  220.1414 H   0  0  0  0  0  0  0  0  0  0  0  0
  139.7950   77.2390  219.6800 H   0  0  0  0  0  0  0  0  0  0  0  0
  138.5512   74.7261  220.5383 H   0  0  0  0  0  0  0  0  0  0  0  0
  140.3258   74.9600  220.5307 H   0  0  0  0  0  0  0  0  0  0  0  0
  139.4260   74.6240  223.2970 H   0  0  0  0  0  0  0  0  0  0  0  0
  139.1202   70.3380  222.0285 H   0  0  0  0  0  0  0  0  0  0  0  0
  139.2701   68.6094  223.7621 H   0  0  0  0  0  0  0  0  0  0  0  0
  139.8615   68.0122  226.0067 H   0  0  0  0  0  0  0  0  0  0  0  0
  141.4629   70.9778  228.6495 H   0  0  0  0  0  0  0  0  0  0  0  0
  141.2872   72.6759  226.8448 H   0  0  0  0  0  0  0  0  0  0  0  0
  141.3601   80.5082  220.2656 H   0  0  0  0  0  0  0  0  0  0  0  0
  143.3256   81.1625  221.5973 H   0  0  0  0  0  0  0  0  0  0  0  0
  143.6218   80.3580  223.9237 H   0  0  0  0  0  0  0  0  0  0  0  0
  141.8792   78.8582  224.9268 H   0  0  0  0  0  0  0  0  0  0  0  0
  139.9122   78.2093  223.5758 H   0  0  0  0  0  0  0  0  0  0  0  0
  1  2  1  0
  2  3  1  0
  2  4  1  0
  4  5  1  0
  5  6  1  0
  6  7  1  0
  7  8  2  0
  7  9  1  0
  9 10  1  0
 10 11  1  0
 11 12  2  0
 11 13  1  0
 13 14  2  0
 14 15  1  0
 15 16  2  0
 16 17  1  0
 17 18  2  0
 18 19  1  0
 18 20  1  0
 20 21  2  0
 21 22  1  0
 22 23  2  0
  5 24  1  0
 24 25  2  0
 25 26  1  0
 26 27  2  0
 27 28  1  0
 28 29  2  0
 23 13  1  0
 29 24  1  0
 22 16  1  0
  1 30  1  0
  1 31  1  0
  1 32  1  0
  2 33  1  0
  3 34  1  0
  3 35  1  0
  3 36  1  0
  4 37  1  0
  4 38  1  0
  5 39  1  6
  6 40  1  0
  9 41  1  0
  9 42  1  0
 10 43  1  0
 14 44  1  0
 15 45  1  0
 17 46  1  0
 20 47  1  0
 21 48  1  0
 25 49  1  0
 26 50  1  0
 27 51  1  0
 28 52  1  0
 29 53  1  0
M  END
>  <smiles>  (7) 
CC(C)C[C@H](NC(=O)CNC(=O)c1ccc2cc(Cl)ccc2n1)c1ccccc1

>  <score_type>  (7) 
oracle

>  <origin>  (7) 
autodockgpu

>  <m_score__min__energy>  (7) 
-9

>  <m_primary>  (7) 
energy

>  <rmsd>  (7) 
3.811416991644991

>  <m_score__min__rmsd>  (7) 
3.811416991644991

>  <meeko>  (7) 
{"free_energy": -8.01, "intermolecular_energy": -10.1, "internal_energy": -1.92, "cluster_size": 16, "cluster_id": 1, "rank_in_cluster": 15}

>  <energy>  (7) 
-8.29

>  <cluster_rmsd>  (7) 
1.72

>  <cluster>  (7) 
1

$$$$

     RDKit          3D

 53 55  0  0  0  0  0  0  0  0999 V2000
  135.6710   72.4470  224.0560 C   0  0  0  0  0  0  0  0  0  0  0  0
  136.6670   71.9030  223.0870 C   0  0  0  0  0  0  0  0  0  0  0  0
  135.9080   70.9310  222.1710 C   0  0  0  0  0  0  0  0  0  0  0  0
  137.8030   71.1460  223.6580 C   0  0  0  0  0  0  0  0  0  0  0  0
  137.5170   69.8850  224.3770 C   0  0  2  0  0  0  0  0  0  0  0  0
  136.2890   69.7940  225.0910 N   0  0  0  0  0  0  0  0  0  0  0  0
  135.2720   68.8940  224.6050 C   0  0  0  0  0  0  0  0  0  0  0  0
  135.4390   68.1910  223.5770 O   0  0  0  0  0  0  0  0  0  0  0  0
  133.9690   68.7670  225.3230 C   0  0  0  0  0  0  0  0  0  0  0  0
  133.3690   70.0730  225.4220 N   0  0  0  0  0  0  0  0  0  0  0  0
  133.6750   70.8370  226.5950 C   0  0  0  0  0  0  0  0  0  0  0  0
  134.4510   70.2600  227.4230 O   0  0  0  0  0  0  0  0  0  0  0  0
  133.1460   72.1560  226.8230 C   0  0  0  0  0  0  0  0  0  0  0  0
  131.8960   72.2710  227.3870 C   0  0  0  0  0  0  0  0  0  0  0  0
  131.2860   73.4670  227.6540 C   0  0  0  0  0  0  0  0  0  0  0  0
  131.9610   74.6260  227.3390 C   0  0  0  0  0  0  0  0  0  0  0  0
  131.3930   75.8470  227.5850 C   0  0  0  0  0  0  0  0  0  0  0  0
  132.0450   77.0040  227.2810 C   0  0  0  0  0  0  0  0  0  0  0  0
  131.3030   78.5650  227.6030 Cl  0  0  0  0  0  0  0  0  0  0  0  0
  133.3170   76.9110  226.7060 C   0  0  0  0  0  0  0  0  0  0  0  0
  133.8930   75.6650  226.4560 C   0  0  0  0  0  0  0  0  0  0  0  0
  133.2190   74.5040  226.7700 C   0  0  0  0  0  0  0  0  0  0  0  0
  133.7870   73.3010  226.5240 N   0  0  0  0  0  0  0  0  0  0  0  0
  138.6230   69.4760  225.2930 C   0  0  0  0  0  0  0  0  0  0  0  0
  139.5560   70.3730  225.7720 C   0  0  0  0  0  0  0  0  0  0  0  0
  140.5630   69.9520  226.6170 C   0  0  0  0  0  0  0  0  0  0  0  0
  140.6720   68.6330  227.0100 C   0  0  0  0  0  0  0  0  0  0  0  0
  139.7400   67.7150  226.5380 C   0  0  0  0  0  0  0  0  0  0  0  0
  138.7360   68.1520  225.6900 C   0  0  0  0  0  0  0  0  0  0  0  0
  136.0173   72.2579  225.0828 H   0  0  0  0  0  0  0  0  0  0  0  0
  135.5613   73.5303  223.8997 H   0  0  0  0  0  0  0  0  0  0  0  0
  134.7003   71.9538  223.8997 H   0  0  0  0  0  0  0  0  0  0  0  0
  137.1101   72.7804  222.5931 H   0  0  0  0  0  0  0  0  0  0  0  0
  135.3463   70.2116  222.7849 H   0  0  0  0  0  0  0  0  0  0  0  0
  135.2092   71.4955  221.5361 H   0  0  0  0  0  0  0  0  0  0  0  0
  136.6250   70.3899  221.5361 H   0  0  0  0  0  0  0  0  0  0  0  0
  138.4807   70.9003  222.8271 H   0  0  0  0  0  0  0  0  0  0  0  0
  138.2106   71.8126  224.4323 H   0  0  0  0  0  0  0  0  0  0  0  0
  137.4209   69.1913  223.5287 H   0  0  0  0  0  0  0  0  0  0  0  0
  136.0290   70.3130  225.9550 H   0  0  0  0  0  0  0  0  0  0  0  0
  133.3020   68.0943  224.7640 H   0  0  0  0  0  0  0  0  0  0  0  0
  134.1331   68.3519  226.3284 H   0  0  0  0  0  0  0  0  0  0  0  0
  132.7350   70.4780  224.6860 H   0  0  0  0  0  0  0  0  0  0  0  0
  131.3548   71.3469  227.6382 H   0  0  0  0  0  0  0  0  0  0  0  0
  130.2845   73.5018  228.1076 H   0  0  0  0  0  0  0  0  0  0  0  0
  130.3912   75.8949  228.0367 H   0  0  0  0  0  0  0  0  0  0  0  0
  133.8676   77.8279  226.4488 H   0  0  0  0  0  0  0  0  0  0  0  0
  134.8943   75.6085  226.0041 H   0  0  0  0  0  0  0  0  0  0  0  0
  139.4967   71.4314  225.4782 H   0  0  0  0  0  0  0  0  0  0  0  0
  141.2959   70.6846  226.9860 H   0  0  0  0  0  0  0  0  0  0  0  0
  141.4809   68.3142  227.6838 H   0  0  0  0  0  0  0  0  0  0  0  0
  139.7994   66.6572  226.8339 H   0  0  0  0  0  0  0  0  0  0  0  0
  138.0016   67.4225  225.3179 H   0  0  0  0  0  0  0  0  0  0  0  0
  1  2  1  0
  2  3  1  0
  2  4  1  0
  4  5  1  0
  5  6  1  0
  6  7  1  0
  7  8  2  0
  7  9  1  0
  9 10  1  0
 10 11  1  0
 11 12  2  0
 11 13  1  0
 13 14  2  0
 14 15  1  0
 15 16  2  0
 16 17  1  0
 17 18  2  0
 18 19  1  0
 18 20  1  0
 20 21  2  0
 21 22  1  0
 22 23  2  0
  5 24  1  0
 24 25  2  0
 25 26  1  0
 26 27  2  0
 27 28  1  0
 28 29  2  0
 23 13  1  0
 29 24  1  0
 22 16  1  0
  1 30  1  0
  1 31  1  0
  1 32  1  0
  2 33  1  0
  3 34  1  0
  3 35  1  0
  3 36  1  0
  4 37  1  0
  4 38  1  0
  5 39  1  6
  6 40  1  0
  9 41  1  0
  9 42  1  0
 10 43  1  0
 14 44  1  0
 15 45  1  0
 17 46  1  0
 20 47  1  0
 21 48  1  0
 25 49  1  0
 26 50  1  0
 27 51  1  0
 28 52  1  0
 29 53  1  0
M  END
>  <smiles>  (8) 
CC(C)C[C@H](NC(=O)CNC(=O)c1ccc2cc(Cl)ccc2n1)c1ccccc1

>  <score_type>  (8) 
oracle

>  <origin>  (8) 
autodockgpu

>  <m_score__min__energy>  (8) 
-9

>  <m_primary>  (8) 
energy

>  <rmsd>  (8) 
8.700322835476706

>  <m_score__min__rmsd>  (8) 
8.700322835476706

>  <meeko>  (8) 
{"free_energy": -7.41, "intermolecular_energy": -9.5, "internal_energy": -2.48, "cluster_size": 6, "cluster_id": 3, "rank_in_cluster": 5}

>  <energy>  (8) 
-8.29

>  <cluster_rmsd>  (8) 
1.88

>  <cluster>  (8) 
1

$$$$

     RDKit          3D

 53 55  0  0  0  0  0  0  0  0999 V2000
  143.6900   72.2100  220.7960 C   0  0  0  0  0  0  0  0  0  0  0  0
  144.4550   73.0390  219.8180 C   0  0  0  0  0  0  0  0  0  0  0  0
  145.2220   74.0910  220.6350 C   0  0  0  0  0  0  0  0  0  0  0  0
  143.6620   73.7800  218.8120 C   0  0  0  0  0  0  0  0  0  0  0  0
  142.7770   74.8690  219.2800 C   0  0  2  0  0  0  0  0  0  0  0  0
  141.4510   74.5240  219.6680 N   0  0  0  0  0  0  0  0  0  0  0  0
  140.8010   75.3130  220.6850 C   0  0  0  0  0  0  0  0  0  0  0  0
  141.3680   76.2900  221.2340 O   0  0  0  0  0  0  0  0  0  0  0  0
  139.4110   74.9870  221.1230 C   0  0  0  0  0  0  0  0  0  0  0  0
  139.4830   74.1780  222.3130 N   0  0  0  0  0  0  0  0  0  0  0  0
  139.8850   72.8140  222.1430 C   0  0  0  0  0  0  0  0  0  0  0  0
  140.1340   72.4730  220.9420 O   0  0  0  0  0  0  0  0  0  0  0  0
  139.9990   71.8940  223.2450 C   0  0  0  0  0  0  0  0  0  0  0  0
  139.6050   70.5900  223.0510 C   0  0  0  0  0  0  0  0  0  0  0  0
  139.6660   69.6220  224.0180 C   0  0  0  0  0  0  0  0  0  0  0  0
  140.1470   69.9730  225.2600 C   0  0  0  0  0  0  0  0  0  0  0  0
  140.2260   69.0430  226.2610 C   0  0  0  0  0  0  0  0  0  0  0  0
  140.7000   69.3700  227.4960 C   0  0  0  0  0  0  0  0  0  0  0  0
  140.7960   68.1640  228.7710 Cl  0  0  0  0  0  0  0  0  0  0  0  0
  141.1060   70.6920  227.7150 C   0  0  0  0  0  0  0  0  0  0  0  0
  141.0240   71.6370  226.6930 C   0  0  0  0  0  0  0  0  0  0  0  0
  140.5410   71.2880  225.4490 C   0  0  0  0  0  0  0  0  0  0  0  0
  140.4660   72.2140  224.4660 N   0  0  0  0  0  0  0  0  0  0  0  0
  142.7010   76.0080  218.3170 C   0  0  0  0  0  0  0  0  0  0  0  0
  142.3310   75.8400  216.9980 C   0  0  0  0  0  0  0  0  0  0  0  0
  142.2740   76.9200  216.1420 C   0  0  0  0  0  0  0  0  0  0  0  0
  142.5840   78.1970  216.5690 C   0  0  0  0  0  0  0  0  0  0  0  0
  142.9600   78.3860  217.8940 C   0  0  0  0  0  0  0  0  0  0  0  0
  143.0120   77.2920  218.7420 C   0  0  0  0  0  0  0  0  0  0  0  0
  143.9629   72.5057  221.8198 H   0  0  0  0  0  0  0  0  0  0  0  0
  142.6117   72.3659  220.6444 H   0  0  0  0  0  0  0  0  0  0  0  0
  143.9318   71.1477  220.6444 H   0  0  0  0  0  0  0  0  0  0  0  0
  145.0732   72.3301  219.2476 H   0  0  0  0  0  0  0  0  0  0  0  0
  145.0802   73.8965  221.7083 H   0  0  0  0  0  0  0  0  0  0  0  0
  146.2931   74.0356  220.3907 H   0  0  0  0  0  0  0  0  0  0  0  0
  144.8416   75.0938  220.3907 H   0  0  0  0  0  0  0  0  0  0  0  0
  144.3728   74.2220  218.0983 H   0  0  0  0  0  0  0  0  0  0  0  0
  142.9726   73.0274  218.4018 H   0  0  0  0  0  0  0  0  0  0  0  0
  143.2934   75.1594  220.2068 H   0  0  0  0  0  0  0  0  0  0  0  0
  140.8710   73.7480  219.2880 H   0  0  0  0  0  0  0  0  0  0  0  0
  138.8628   75.9159  221.3388 H   0  0  0  0  0  0  0  0  0  0  0  0
  138.8844   74.4397  220.3273 H   0  0  0  0  0  0  0  0  0  0  0  0
  139.2580   74.5400  223.2750 H   0  0  0  0  0  0  0  0  0  0  0  0
  139.2181   70.3083  222.0606 H   0  0  0  0  0  0  0  0  0  0  0  0
  139.3398   68.5926  223.8085 H   0  0  0  0  0  0  0  0  0  0  0  0
  139.9003   68.0108  226.0646 H   0  0  0  0  0  0  0  0  0  0  0  0
  141.4928   70.9875  228.7014 H   0  0  0  0  0  0  0  0  0  0  0  0
  141.3478   72.6714  226.8807 H   0  0  0  0  0  0  0  0  0  0  0  0
  142.0793   74.8358  216.6261 H   0  0  0  0  0  0  0  0  0  0  0  0
  141.9749   76.7611  215.0954 H   0  0  0  0  0  0  0  0  0  0  0  0
  142.5342   79.0480  215.8737 H   0  0  0  0  0  0  0  0  0  0  0  0
  143.2128   79.3906  218.2639 H   0  0  0  0  0  0  0  0  0  0  0  0
  143.3104   77.4464  219.7894 H   0  0  0  0  0  0  0  0  0  0  0  0
  1  2  1  0
  2  3  1  0
  2  4  1  0
  4  5  1  0
  5  6  1  0
  6  7  1  0
  7  8  2  0
  7  9  1  0
  9 10  1  0
 10 11  1  0
 11 12  2  0
 11 13  1  0
 13 14  2  0
 14 15  1  0
 15 16  2  0
 16 17  1  0
 17 18  2  0
 18 19  1  0
 18 20  1  0
 20 21  2  0
 21 22  1  0
 22 23  2  0
  5 24  1  0
 24 25  2  0
 25 26  1  0
 26 27  2  0
 27 28  1  0
 28 29  2  0
 23 13  1  0
 29 24  1  0
 22 16  1  0
  1 30  1  0
  1 31  1  0
  1 32  1  0
  2 33  1  0
  3 34  1  0
  3 35  1  0
  3 36  1  0
  4 37  1  0
  4 38  1  0
  5 39  1  1
  6 40  1  0
  9 41  1  0
  9 42  1  0
 10 43  1  0
 14 44  1  0
 15 45  1  0
 17 46  1  0
 20 47  1  0
 21 48  1  0
 25 49  1  0
 26 50  1  0
 27 51  1  0
 28 52  1  0
 29 53  1  0
M  END
>  <smiles>  (9) 
CC(C)C[C@H](NC(=O)CNC(=O)c1ccc2cc(Cl)ccc2n1)c1ccccc1

>  <score_type>  (9) 
oracle

>  <origin>  (9) 
autodockgpu

>  <m_score__min__energy>  (9) 
-9

>  <m_primary>  (9) 
energy

>  <rmsd>  (9) 
3.080832025589951

>  <m_score__min__rmsd>  (9) 
3.080832025589951

>  <meeko>  (9) 
{"free_energy": -7.16, "intermolecular_energy": -9.25, "internal_energy": -2.4, "cluster_size": 11, "cluster_id": 4, "rank_in_cluster": 11}

>  <energy>  (9) 
-8.27

>  <cluster_rmsd>  (9) 
1.97

>  <cluster>  (9) 
1

$$$$

     RDKit          3D

 53 55  0  0  0  0  0  0  0  0999 V2000
  143.7550   74.9850  220.0470 C   0  0  0  0  0  0  0  0  0  0  0  0
  142.3950   75.4360  219.6280 C   0  0  0  0  0  0  0  0  0  0  0  0
  142.5290   75.9740  218.1950 C   0  0  0  0  0  0  0  0  0  0  0  0
  141.7780   76.5150  220.4290 C   0  0  0  0  0  0  0  0  0  0  0  0
  141.1700   76.1640  221.7320 C   0  0  2  0  0  0  0  0  0  0  0  0
  140.1950   75.1260  221.7490 N   0  0  0  0  0  0  0  0  0  0  0  0
  139.1120   75.1800  220.7980 C   0  0  0  0  0  0  0  0  0  0  0  0
  139.0050   76.1100  219.9610 O   0  0  0  0  0  0  0  0  0  0  0  0
  138.0680   74.1120  220.7810 C   0  0  0  0  0  0  0  0  0  0  0  0
  138.2050   73.3160  221.9740 N   0  0  0  0  0  0  0  0  0  0  0  0
  139.3050   72.3990  222.0150 C   0  0  0  0  0  0  0  0  0  0  0  0
  140.0410   72.3980  220.9770 O   0  0  0  0  0  0  0  0  0  0  0  0
  139.5620   71.5430  223.1440 C   0  0  0  0  0  0  0  0  0  0  0  0
  139.1890   70.2210  223.0600 C   0  0  0  0  0  0  0  0  0  0  0  0
  139.3790   69.3090  224.0630 C   0  0  0  0  0  0  0  0  0  0  0  0
  139.9780   69.7390  225.2280 C   0  0  0  0  0  0  0  0  0  0  0  0
  140.1900   68.8660  226.2600 C   0  0  0  0  0  0  0  0  0  0  0  0
  140.7800   69.2710  227.4190 C   0  0  0  0  0  0  0  0  0  0  0  0
  141.0450   68.1380  228.7370 Cl  0  0  0  0  0  0  0  0  0  0  0  0
  141.1670   70.6120  227.5260 C   0  0  0  0  0  0  0  0  0  0  0  0
  140.9500   71.4990  226.4720 C   0  0  0  0  0  0  0  0  0  0  0  0
  140.3500   71.0710  225.3060 C   0  0  0  0  0  0  0  0  0  0  0  0
  140.1450   71.9400  224.2900 N   0  0  0  0  0  0  0  0  0  0  0  0
  140.6060   77.3470  222.4460 C   0  0  0  0  0  0  0  0  0  0  0  0
  139.2530   77.6200  222.4750 C   0  0  0  0  0  0  0  0  0  0  0  0
  138.7750   78.7250  223.1480 C   0  0  0  0  0  0  0  0  0  0  0  0
  139.6220   79.5900  223.8110 C   0  0  0  0  0  0  0  0  0  0  0  0
  140.9890   79.3320  223.7930 C   0  0  0  0  0  0  0  0  0  0  0  0
  141.4550   78.2190  223.1140 C   0  0  0  0  0  0  0  0  0  0  0  0
  143.8128   74.9658  221.1453 H   0  0  0  0  0  0  0  0  0  0  0  0
  143.9445   73.9759  219.6522 H   0  0  0  0  0  0  0  0  0  0  0  0
  144.5099   75.6809  219.6522 H   0  0  0  0  0  0  0  0  0  0  0  0
  141.7409   74.5604  219.7522 H   0  0  0  0  0  0  0  0  0  0  0  0
  142.7948   77.0409  218.2273 H   0  0  0  0  0  0  0  0  0  0  0  0
  143.3156   75.4160  217.6659 H   0  0  0  0  0  0  0  0  0  0  0  0
  141.5726   75.8502  217.6659 H   0  0  0  0  0  0  0  0  0  0  0  0
  142.5609   77.2622  220.6261 H   0  0  0  0  0  0  0  0  0  0  0  0
  140.9294   76.8548  219.8171 H   0  0  0  0  0  0  0  0  0  0  0  0
  142.0475   75.7587  222.2571 H   0  0  0  0  0  0  0  0  0  0  0  0
  140.1730   74.3010  222.3820 H   0  0  0  0  0  0  0  0  0  0  0  0
  137.0687   74.5711  220.7546 H   0  0  0  0  0  0  0  0  0  0  0  0
  138.1929   73.4786  219.8904 H   0  0  0  0  0  0  0  0  0  0  0  0
  137.5480   73.3800  222.7930 H   0  0  0  0  0  0  0  0  0  0  0  0
  138.7097   69.8767  222.1317 H   0  0  0  0  0  0  0  0  0  0  0  0
  139.0626   68.2623  223.9429 H   0  0  0  0  0  0  0  0  0  0  0  0
  139.8780   67.8168  226.1516 H   0  0  0  0  0  0  0  0  0  0  0  0
  141.6464   70.9692  228.4494 H   0  0  0  0  0  0  0  0  0  0  0  0
  141.2602   72.5497  226.5714 H   0  0  0  0  0  0  0  0  0  0  0  0
  138.5503   76.9507  221.9571 H   0  0  0  0  0  0  0  0  0  0  0  0
  137.6927   78.9216  223.1565 H   0  0  0  0  0  0  0  0  0  0  0  0
  139.2239   80.4664  224.3433 H   0  0  0  0  0  0  0  0  0  0  0  0
  141.6899   80.0030  224.3111 H   0  0  0  0  0  0  0  0  0  0  0  0
  142.5365   78.0185  223.1034 H   0  0  0  0  0  0  0  0  0  0  0  0
  1  2  1  0
  2  3  1  0
  2  4  1  0
  4  5  1  0
  5  6  1  0
  6  7  1  0
  7  8  2  0
  7  9  1  0
  9 10  1  0
 10 11  1  0
 11 12  2  0
 11 13  1  0
 13 14  2  0
 14 15  1  0
 15 16  2  0
 16 17  1  0
 17 18  2  0
 18 19  1  0
 18 20  1  0
 20 21  2  0
 21 22  1  0
 22 23  2  0
  5 24  1  0
 24 25  2  0
 25 26  1  0
 26 27  2  0
 27 28  1  0
 28 29  2  0
 23 13  1  0
 29 24  1  0
 22 16  1  0
  1 30  1  0
  1 31  1  0
  1 32  1  0
  2 33  1  0
  3 34  1  0
  3 35  1  0
  3 36  1  0
  4 37  1  0
  4 38  1  0
  5 39  1  1
  6 40  1  0
  9 41  1  0
  9 42  1  0
 10 43  1  0
 14 44  1  0
 15 45  1  0
 17 46  1  0
 20 47  1  0
 21 48  1  0
 25 49  1  0
 26 50  1  0
 27 51  1  0
 28 52  1  0
 29 53  1  0
M  END
>  <smiles>  (10) 
CC(C)C[C@H](NC(=O)CNC(=O)c1ccc2cc(Cl)ccc2n1)c1ccccc1

>  <score_type>  (10) 
oracle

>  <origin>  (10) 
autodockgpu

>  <m_score__min__energy>  (10) 
-9

>  <m_primary>  (10) 
energy

>  <rmsd>  (10) 
2.172569119491228

>  <m_score__min__rmsd>  (10) 
2.172569119491228

>  <meeko>  (10) 
{"free_energy": -7.95, "intermolecular_energy": -10.04, "internal_energy": -1.74, "cluster_size": 7, "cluster_id": 2, "rank_in_cluster": 7}

>  <energy>  (10) 
-8.24

>  <cluster_rmsd>  (10) 
1.64

>  <cluster>  (10) 
1

$$$$

     RDKit          3D

 53 55  0  0  0  0  0  0  0  0999 V2000
  142.5920   79.9240  218.1350 C   0  0  0  0  0  0  0  0  0  0  0  0
  142.3880   78.5560  218.6930 C   0  0  0  0  0  0  0  0  0  0  0  0
  142.3760   77.5880  217.5000 C   0  0  0  0  0  0  0  0  0  0  0  0
  141.1310   78.3230  219.4390 C   0  0  0  0  0  0  0  0  0  0  0  0
  141.2000   77.5830  220.7180 C   0  0  2  0  0  0  0  0  0  0  0  0
  140.0840   76.7740  221.0750 N   0  0  0  0  0  0  0  0  0  0  0  0
  140.0700   75.3940  220.6600 C   0  0  0  0  0  0  0  0  0  0  0  0
  141.0090   74.8870  219.9970 O   0  0  0  0  0  0  0  0  0  0  0  0
  138.9190   74.5090  221.0130 C   0  0  0  0  0  0  0  0  0  0  0  0
  139.2460   73.7880  222.2160 N   0  0  0  0  0  0  0  0  0  0  0  0
  139.1400   72.3600  222.1620 C   0  0  0  0  0  0  0  0  0  0  0  0
  138.7630   71.8930  221.0400 O   0  0  0  0  0  0  0  0  0  0  0  0
  139.4370   71.5150  223.2890 C   0  0  0  0  0  0  0  0  0  0  0  0
  139.1330   70.1760  223.1990 C   0  0  0  0  0  0  0  0  0  0  0  0
  139.3660   69.2710  224.2000 C   0  0  0  0  0  0  0  0  0  0  0  0
  139.9380   69.7270  225.3690 C   0  0  0  0  0  0  0  0  0  0  0  0
  140.1900   68.8630  226.3990 C   0  0  0  0  0  0  0  0  0  0  0  0
  140.7550   69.2940  227.5620 C   0  0  0  0  0  0  0  0  0  0  0  0
  141.0740   68.1720  228.8770 Cl  0  0  0  0  0  0  0  0  0  0  0  0
  141.0710   70.6520  227.6740 C   0  0  0  0  0  0  0  0  0  0  0  0
  140.8130   71.5310  226.6220 C   0  0  0  0  0  0  0  0  0  0  0  0
  140.2400   71.0770  225.4530 C   0  0  0  0  0  0  0  0  0  0  0  0
  139.9940   71.9380  224.4390 N   0  0  0  0  0  0  0  0  0  0  0  0
  141.5330   78.4610  221.8790 C   0  0  0  0  0  0  0  0  0  0  0  0
  141.3400   78.0640  223.1860 C   0  0  0  0  0  0  0  0  0  0  0  0
  141.6620   78.9070  224.2300 C   0  0  0  0  0  0  0  0  0  0  0  0
  142.1840   80.1660  224.0060 C   0  0  0  0  0  0  0  0  0  0  0  0
  142.3860   80.5840  222.6950 C   0  0  0  0  0  0  0  0  0  0  0  0
  142.0580   79.7260  221.6580 C   0  0  0  0  0  0  0  0  0  0  0  0
  142.6994   80.6441  218.9596 H   0  0  0  0  0  0  0  0  0  0  0  0
  143.5019   79.9360  217.5169 H   0  0  0  0  0  0  0  0  0  0  0  0
  141.7252   80.2009  217.5169 H   0  0  0  0  0  0  0  0  0  0  0  0
  143.1993   78.4099  219.4213 H   0  0  0  0  0  0  0  0  0  0  0  0
  142.3632   76.5517  217.8688 H   0  0  0  0  0  0  0  0  0  0  0  0
  141.4801   77.7707  216.8885 H   0  0  0  0  0  0  0  0  0  0  0  0
  143.2762   77.7485  216.8885 H   0  0  0  0  0  0  0  0  0  0  0  0
  140.6942   79.3088  219.6566 H   0  0  0  0  0  0  0  0  0  0  0  0
  140.5417   77.6692  218.7792 H   0  0  0  0  0  0  0  0  0  0  0  0
  142.0186   76.8821  220.4975 H   0  0  0  0  0  0  0  0  0  0  0  0
  139.2500   77.0680  221.6240 H   0  0  0  0  0  0  0  0  0  0  0  0
  138.0195   75.1198  221.1799 H   0  0  0  0  0  0  0  0  0  0  0  0
  138.7228   73.8025  220.1930 H   0  0  0  0  0  0  0  0  0  0  0  0
  139.5520   74.2550  223.1080 H   0  0  0  0  0  0  0  0  0  0  0  0
  138.6756   69.8108  222.2676 H   0  0  0  0  0  0  0  0  0  0  0  0
  139.1042   68.2099  224.0751 H   0  0  0  0  0  0  0  0  0  0  0  0
  139.9316   67.7997  226.2865 H   0  0  0  0  0  0  0  0  0  0  0  0
  141.5273   71.0304  228.6006 H   0  0  0  0  0  0  0  0  0  0  0  0
  141.0690   72.5957  226.7260 H   0  0  0  0  0  0  0  0  0  0  0  0
  140.9260   77.0671  223.3977 H   0  0  0  0  0  0  0  0  0  0  0  0
  141.4993   78.5687  225.2639 H   0  0  0  0  0  0  0  0  0  0  0  0
  142.4354   80.8261  224.8492 H   0  0  0  0  0  0  0  0  0  0  0  0
  142.8001   81.5811  222.4846 H   0  0  0  0  0  0  0  0  0  0  0  0
  142.2196   80.0596  220.6224 H   0  0  0  0  0  0  0  0  0  0  0  0
  1  2  1  0
  2  3  1  0
  2  4  1  0
  4  5  1  0
  5  6  1  0
  6  7  1  0
  7  8  2  0
  7  9  1  0
  9 10  1  0
 10 11  1  0
 11 12  2  0
 11 13  1  0
 13 14  2  0
 14 15  1  0
 15 16  2  0
 16 17  1  0
 17 18  2  0
 18 19  1  0
 18 20  1  0
 20 21  2  0
 21 22  1  0
 22 23  2  0
  5 24  1  0
 24 25  2  0
 25 26  1  0
 26 27  2  0
 27 28  1  0
 28 29  2  0
 23 13  1  0
 29 24  1  0
 22 16  1  0
  1 30  1  0
  1 31  1  0
  1 32  1  0
  2 33  1  0
  3 34  1  0
  3 35  1  0
  3 36  1  0
  4 37  1  0
  4 38  1  0
  5 39  1  6
  6 40  1  0
  9 41  1  0
  9 42  1  0
 10 43  1  0
 14 44  1  0
 15 45  1  0
 17 46  1  0
 20 47  1  0
 21 48  1  0
 25 49  1  0
 26 50  1  0
 27 51  1  0
 28 52  1  0
 29 53  1  0
M  END
>  <smiles>  (11) 
CC(C)C[C@H](NC(=O)CNC(=O)c1ccc2cc(Cl)ccc2n1)c1ccccc1

>  <score_type>  (11) 
oracle

>  <origin>  (11) 
autodockgpu

>  <m_score__min__energy>  (11) 
-9

>  <m_primary>  (11) 
energy

>  <rmsd>  (11) 
2.4987199489875436

>  <m_score__min__rmsd>  (11) 
2.4987199489875436

>  <meeko>  (11) 
{"free_energy": -8.3, "intermolecular_energy": -10.39, "internal_energy": -1.41, "cluster_size": 7, "cluster_id": 2, "rank_in_cluster": 4}

>  <energy>  (11) 
-8.22

>  <cluster_rmsd>  (11) 
1.65

>  <cluster>  (11) 
1

$$$$

     RDKit          3D

 53 55  0  0  0  0  0  0  0  0999 V2000
  146.0330   73.6130  220.9360 C   0  0  0  0  0  0  0  0  0  0  0  0
  144.5580   73.8130  220.8280 C   0  0  0  0  0  0  0  0  0  0  0  0
  143.9550   72.4530  220.4450 C   0  0  0  0  0  0  0  0  0  0  0  0
  144.0920   74.7830  219.8130 C   0  0  0  0  0  0  0  0  0  0  0  0
  142.8500   75.5410  220.0820 C   0  0  2  0  0  0  0  0  0  0  0  0
  141.6210   74.8210  220.0770 N   0  0  0  0  0  0  0  0  0  0  0  0
  140.5140   75.3390  220.8430 C   0  0  0  0  0  0  0  0  0  0  0  0
  140.6020   76.4000  221.5090 O   0  0  0  0  0  0  0  0  0  0  0  0
  139.2070   74.6160  220.8660 C   0  0  0  0  0  0  0  0  0  0  0  0
  139.1510   73.8080  222.0570 N   0  0  0  0  0  0  0  0  0  0  0  0
  140.0390   72.6860  222.1180 C   0  0  0  0  0  0  0  0  0  0  0  0
  140.7840   72.5350  221.0970 O   0  0  0  0  0  0  0  0  0  0  0  0
  140.0890   71.7950  223.2480 C   0  0  0  0  0  0  0  0  0  0  0  0
  139.5990   70.5180  223.0950 C   0  0  0  0  0  0  0  0  0  0  0  0
  139.5910   69.5790  224.0920 C   0  0  0  0  0  0  0  0  0  0  0  0
  140.1020   69.9320  225.3220 C   0  0  0  0  0  0  0  0  0  0  0  0
  140.1160   69.0290  226.3510 C   0  0  0  0  0  0  0  0  0  0  0  0
  140.6170   69.3590  227.5740 C   0  0  0  0  0  0  0  0  0  0  0  0
  140.6280   68.1890  228.8860 Cl  0  0  0  0  0  0  0  0  0  0  0  0
  141.1200   70.6520  227.7520 C   0  0  0  0  0  0  0  0  0  0  0  0
  141.1050   71.5690  226.7010 C   0  0  0  0  0  0  0  0  0  0  0  0
  140.5930   71.2190  225.4700 C   0  0  0  0  0  0  0  0  0  0  0  0
  140.5830   72.1170  224.4580 N   0  0  0  0  0  0  0  0  0  0  0  0
  142.6970   76.7350  219.2000 C   0  0  0  0  0  0  0  0  0  0  0  0
  142.2030   77.9390  219.6630 C   0  0  0  0  0  0  0  0  0  0  0  0
  142.0780   79.0180  218.8130 C   0  0  0  0  0  0  0  0  0  0  0  0
  142.4380   78.9360  217.4820 C   0  0  0  0  0  0  0  0  0  0  0  0
  142.9380   77.7310  216.9980 C   0  0  0  0  0  0  0  0  0  0  0  0
  143.0570   76.6560  217.8630 C   0  0  0  0  0  0  0  0  0  0  0  0
  146.3210   73.5739  221.9969 H   0  0  0  0  0  0  0  0  0  0  0  0
  146.3119   72.6688  220.4454 H   0  0  0  0  0  0  0  0  0  0  0  0
  146.5533   74.4488  220.4454 H   0  0  0  0  0  0  0  0  0  0  0  0
  144.2421   74.2221  221.7990 H   0  0  0  0  0  0  0  0  0  0  0  0
  143.7063   71.8920  221.3579 H   0  0  0  0  0  0  0  0  0  0  0  0
  143.0424   72.6106  219.8514 H   0  0  0  0  0  0  0  0  0  0  0  0
  144.6845   71.8825  219.8514 H   0  0  0  0  0  0  0  0  0  0  0  0
  144.8977   75.5184  219.6720 H   0  0  0  0  0  0  0  0  0  0  0  0
  143.8460   74.1624  218.9388 H   0  0  0  0  0  0  0  0  0  0  0  0
  143.0198   75.8344  221.1285 H   0  0  0  0  0  0  0  0  0  0  0  0
  141.4170   73.9390  219.5650 H   0  0  0  0  0  0  0  0  0  0  0  0
  138.3813   75.3428  220.8718 H   0  0  0  0  0  0  0  0  0  0  0  0
  139.1137   73.9787  219.9742 H   0  0  0  0  0  0  0  0  0  0  0  0
  138.5010   74.0040  222.8620 H   0  0  0  0  0  0  0  0  0  0  0  0
  139.1896   70.2348  222.1141 H   0  0  0  0  0  0  0  0  0  0  0  0
  139.1878   68.5709  223.9157 H   0  0  0  0  0  0  0  0  0  0  0  0
  139.7151   68.0179  226.1871 H   0  0  0  0  0  0  0  0  0  0  0  0
  141.5307   70.9481  228.7286 H   0  0  0  0  0  0  0  0  0  0  0  0
  141.5058   72.5816  226.8561 H   0  0  0  0  0  0  0  0  0  0  0  0
  141.9070   78.0380  220.7178 H   0  0  0  0  0  0  0  0  0  0  0  0
  141.6821   79.9667  219.2045 H   0  0  0  0  0  0  0  0  0  0  0  0
  142.3315   79.8062  216.8176 H   0  0  0  0  0  0  0  0  0  0  0  0
  143.2346   77.6336  215.9432 H   0  0  0  0  0  0  0  0  0  0  0  0
  143.4514   75.7050  217.4756 H   0  0  0  0  0  0  0  0  0  0  0  0
  1  2  1  0
  2  3  1  0
  2  4  1  0
  4  5  1  0
  5  6  1  0
  6  7  1  0
  7  8  2  0
  7  9  1  0
  9 10  1  0
 10 11  1  0
 11 12  2  0
 11 13  1  0
 13 14  2  0
 14 15  1  0
 15 16  2  0
 16 17  1  0
 17 18  2  0
 18 19  1  0
 18 20  1  0
 20 21  2  0
 21 22  1  0
 22 23  2  0
  5 24  1  0
 24 25  2  0
 25 26  1  0
 26 27  2  0
 27 28  1  0
 28 29  2  0
 23 13  1  0
 29 24  1  0
 22 16  1  0
  1 30  1  0
  1 31  1  0
  1 32  1  0
  2 33  1  0
  3 34  1  0
  3 35  1  0
  3 36  1  0
  4 37  1  0
  4 38  1  0
  5 39  1  1
  6 40  1  0
  9 41  1  0
  9 42  1  0
 10 43  1  0
 14 44  1  0
 15 45  1  0
 17 46  1  0
 20 47  1  0
 21 48  1  0
 25 49  1  0
 26 50  1  0
 27 51  1  0
 28 52  1  0
 29 53  1  0
M  END
>  <smiles>  (12) 
CC(C)C[C@H](NC(=O)CNC(=O)c1ccc2cc(Cl)ccc2n1)c1ccccc1

>  <score_type>  (12) 
oracle

>  <origin>  (12) 
autodockgpu

>  <m_score__min__energy>  (12) 
-9

>  <m_primary>  (12) 
energy

>  <rmsd>  (12) 
3.3496970394032193

>  <m_score__min__rmsd>  (12) 
3.3496970394032193

>  <meeko>  (12) 
{"free_energy": -8.22, "intermolecular_energy": -10.31, "internal_energy": -2.13, "cluster_size": 11, "cluster_id": 4, "rank_in_cluster": 1}

>  <energy>  (12) 
-8.22

>  <cluster_rmsd>  (12) 
1.64

>  <cluster>  (12) 
1

$$$$

     RDKit          3D

 53 55  0  0  0  0  0  0  0  0999 V2000
  141.8030   78.7930  223.2240 C   0  0  0  0  0  0  0  0  0  0  0  0
  141.0560   78.0730  222.1510 C   0  0  0  0  0  0  0  0  0  0  0  0
  139.8480   78.9500  221.7890 C   0  0  0  0  0  0  0  0  0  0  0  0
  140.5200   76.7380  222.4970 C   0  0  0  0  0  0  0  0  0  0  0  0
  140.3550   75.7450  221.4130 C   0  0  2  0  0  0  0  0  0  0  0  0
  139.5740   74.5870  221.6900 N   0  0  0  0  0  0  0  0  0  0  0  0
  138.3200   74.4190  220.9980 C   0  0  0  0  0  0  0  0  0  0  0  0
  137.9000   75.2590  220.1630 O   0  0  0  0  0  0  0  0  0  0  0  0
  137.4680   73.2190  221.2570 C   0  0  0  0  0  0  0  0  0  0  0  0
  137.8540   72.6470  222.5220 N   0  0  0  0  0  0  0  0  0  0  0  0
  139.0580   71.8700  222.5370 C   0  0  0  0  0  0  0  0  0  0  0  0
  139.6510   71.7770  221.4150 O   0  0  0  0  0  0  0  0  0  0  0  0
  139.5610   71.2410  223.7310 C   0  0  0  0  0  0  0  0  0  0  0  0
  140.5480   71.8850  224.4420 C   0  0  0  0  0  0  0  0  0  0  0  0
  141.1070   71.3900  225.5900 C   0  0  0  0  0  0  0  0  0  0  0  0
  140.6580   70.1760  226.0620 C   0  0  0  0  0  0  0  0  0  0  0  0
  141.1850   69.6400  227.2050 C   0  0  0  0  0  0  0  0  0  0  0  0
  140.7540   68.4410  227.6890 C   0  0  0  0  0  0  0  0  0  0  0  0
  141.4410   67.7650  229.1580 Cl  0  0  0  0  0  0  0  0  0  0  0  0
  139.7520   67.7690  226.9800 C   0  0  0  0  0  0  0  0  0  0  0  0
  139.2160   68.3190  225.8160 C   0  0  0  0  0  0  0  0  0  0  0  0
  139.6650   69.5330  225.3410 C   0  0  0  0  0  0  0  0  0  0  0  0
  139.1380   70.0570  224.2100 N   0  0  0  0  0  0  0  0  0  0  0  0
  141.6560   75.3030  220.8280 C   0  0  0  0  0  0  0  0  0  0  0  0
  142.4700   76.1530  220.1080 C   0  0  0  0  0  0  0  0  0  0  0  0
  143.6650   75.7040  219.5850 C   0  0  0  0  0  0  0  0  0  0  0  0
  144.0860   74.4000  219.7600 C   0  0  0  0  0  0  0  0  0  0  0  0
  143.2790   73.5290  220.4830 C   0  0  0  0  0  0  0  0  0  0  0  0
  142.0820   73.9940  221.0020 C   0  0  0  0  0  0  0  0  0  0  0  0
  141.4497   78.4525  224.2085 H   0  0  0  0  0  0  0  0  0  0  0  0
  142.8782   78.5819  223.1271 H   0  0  0  0  0  0  0  0  0  0  0  0
  141.6316   79.8752  223.1271 H   0  0  0  0  0  0  0  0  0  0  0  0
  141.7848   77.9031  221.3448 H   0  0  0  0  0  0  0  0  0  0  0  0
  139.3619   79.3029  222.7105 H   0  0  0  0  0  0  0  0  0  0  0  0
  140.1862   79.8144  221.1986 H   0  0  0  0  0  0  0  0  0  0  0  0
  139.1309   78.3607  221.1986 H   0  0  0  0  0  0  0  0  0  0  0  0
  141.1995   76.2974  223.2414 H   0  0  0  0  0  0  0  0  0  0  0  0
  139.4941   76.9383  222.8395 H   0  0  0  0  0  0  0  0  0  0  0  0
  139.7702   76.3348  220.6917 H   0  0  0  0  0  0  0  0  0  0  0  0
  139.8090   73.8170  222.3490 H   0  0  0  0  0  0  0  0  0  0  0  0
  136.4095   73.5163  221.2920 H   0  0  0  0  0  0  0  0  0  0  0  0
  137.6036   72.4806  220.4531 H   0  0  0  0  0  0  0  0  0  0  0  0
  137.3030   72.7730  223.4090 H   0  0  0  0  0  0  0  0  0  0  0  0
  140.9088   72.8538  224.0662 H   0  0  0  0  0  0  0  0  0  0  0  0
  141.8933   71.9466  226.1209 H   0  0  0  0  0  0  0  0  0  0  0  0
  141.9721   70.1875  227.7441 H   0  0  0  0  0  0  0  0  0  0  0  0
  139.3839   66.7984  227.3440 H   0  0  0  0  0  0  0  0  0  0  0  0
  138.4273   67.7791  225.2715 H   0  0  0  0  0  0  0  0  0  0  0  0
  142.1636   77.1975  219.9496 H   0  0  0  0  0  0  0  0  0  0  0  0
  144.2974   76.4007  219.0153 H   0  0  0  0  0  0  0  0  0  0  0  0
  145.0412   74.0575  219.3355 H   0  0  0  0  0  0  0  0  0  0  0  0
  143.5869   72.4848  220.6407 H   0  0  0  0  0  0  0  0  0  0  0  0
  141.4464   73.3008  221.5725 H   0  0  0  0  0  0  0  0  0  0  0  0
  1  2  1  0
  2  3  1  0
  2  4  1  0
  4  5  1  0
  5  6  1  0
  6  7  1  0
  7  8  2  0
  7  9  1  0
  9 10  1  0
 10 11  1  0
 11 12  2  0
 11 13  1  0
 13 14  2  0
 14 15  1  0
 15 16  2  0
 16 17  1  0
 17 18  2  0
 18 19  1  0
 18 20  1  0
 20 21  2  0
 21 22  1  0
 22 23  2  0
  5 24  1  0
 24 25  2  0
 25 26  1  0
 26 27  2  0
 27 28  1  0
 28 29  2  0
 23 13  1  0
 29 24  1  0
 22 16  1  0
  1 30  1  0
  1 31  1  0
  1 32  1  0
  2 33  1  0
  3 34  1  0
  3 35  1  0
  3 36  1  0
  4 37  1  0
  4 38  1  0
  5 39  1  6
  6 40  1  0
  9 41  1  0
  9 42  1  0
 10 43  1  0
 14 44  1  0
 15 45  1  0
 17 46  1  0
 20 47  1  0
 21 48  1  0
 25 49  1  0
 26 50  1  0
 27 51  1  0
 28 52  1  0
 29 53  1  0
M  END
>  <smiles>  (13) 
CC(C)C[C@H](NC(=O)CNC(=O)c1ccc2cc(Cl)ccc2n1)c1ccccc1

>  <score_type>  (13) 
oracle

>  <origin>  (13) 
autodockgpu

>  <m_score__min__energy>  (13) 
-9

>  <m_primary>  (13) 
energy

>  <rmsd>  (13) 
3.821163889665391

>  <m_score__min__rmsd>  (13) 
3.821163889665391

>  <meeko>  (13) 
{"free_energy": -7.74, "intermolecular_energy": -9.83, "internal_energy": -2.13, "cluster_size": 5, "cluster_id": 5, "rank_in_cluster": 2}

>  <energy>  (13) 
-8.12

>  <cluster_rmsd>  (13) 
1.92

>  <cluster>  (13) 
1

$$$$

     RDKit          3D

 53 55  0  0  0  0  0  0  0  0999 V2000
  137.0290   80.1780  223.8470 C   0  0  0  0  0  0  0  0  0  0  0  0
  138.1540   80.2280  222.8660 C   0  0  0  0  0  0  0  0  0  0  0  0
  138.0960   81.6100  222.1980 C   0  0  0  0  0  0  0  0  0  0  0  0
  138.1280   79.2280  221.7760 C   0  0  0  0  0  0  0  0  0  0  0  0
  139.4030   78.8850  221.1080 C   0  0  2  0  0  0  0  0  0  0  0  0
  139.5810   77.5410  220.6730 N   0  0  0  0  0  0  0  0  0  0  0  0
  139.2170   76.4710  221.5680 C   0  0  0  0  0  0  0  0  0  0  0  0
  138.7490   76.6890  222.7130 O   0  0  0  0  0  0  0  0  0  0  0  0
  139.3860   75.0460  221.1520 C   0  0  0  0  0  0  0  0  0  0  0  0
  139.4480   74.2270  222.3360 N   0  0  0  0  0  0  0  0  0  0  0  0
  139.8460   72.8620  222.1550 C   0  0  0  0  0  0  0  0  0  0  0  0
  140.1000   72.5320  220.9530 O   0  0  0  0  0  0  0  0  0  0  0  0
  139.9510   71.9320  223.2500 C   0  0  0  0  0  0  0  0  0  0  0  0
  139.5280   70.6380  223.0500 C   0  0  0  0  0  0  0  0  0  0  0  0
  139.5760   69.6630  224.0100 C   0  0  0  0  0  0  0  0  0  0  0  0
  140.0760   69.9940  225.2500 C   0  0  0  0  0  0  0  0  0  0  0  0
  140.1450   69.0550  226.2430 C   0  0  0  0  0  0  0  0  0  0  0  0
  140.6370   69.3640  227.4760 C   0  0  0  0  0  0  0  0  0  0  0  0
  140.7190   68.1460  228.7410 Cl  0  0  0  0  0  0  0  0  0  0  0  0
  141.0730   70.6740  227.7000 C   0  0  0  0  0  0  0  0  0  0  0  0
  141.0020   71.6290  226.6860 C   0  0  0  0  0  0  0  0  0  0  0  0
  140.5000   71.2990  225.4450 C   0  0  0  0  0  0  0  0  0  0  0  0
  140.4360   72.2330  224.4680 N   0  0  0  0  0  0  0  0  0  0  0  0
  140.6010   79.2810  221.9070 C   0  0  0  0  0  0  0  0  0  0  0  0
  141.4530   80.2920  221.5110 C   0  0  0  0  0  0  0  0  0  0  0  0
  142.5490   80.6260  222.2790 C   0  0  0  0  0  0  0  0  0  0  0  0
  142.8310   79.9680  223.4600 C   0  0  0  0  0  0  0  0  0  0  0  0
  141.9840   78.9460  223.8760 C   0  0  0  0  0  0  0  0  0  0  0  0
  140.8880   78.6220  223.0940 C   0  0  0  0  0  0  0  0  0  0  0  0
  137.4334   80.1960  224.8698 H   0  0  0  0  0  0  0  0  0  0  0  0
  136.3727   81.0479  223.6969 H   0  0  0  0  0  0  0  0  0  0  0  0
  136.4524   79.2533  223.6969 H   0  0  0  0  0  0  0  0  0  0  0  0
  139.0642   80.0138  223.4454 H   0  0  0  0  0  0  0  0  0  0  0  0
  138.0632   82.3905  222.9724 H   0  0  0  0  0  0  0  0  0  0  0  0
  138.9890   81.7523  221.5716 H   0  0  0  0  0  0  0  0  0  0  0  0
  137.1942   81.6769  221.5716 H   0  0  0  0  0  0  0  0  0  0  0  0
  137.7206   78.2973  222.1976 H   0  0  0  0  0  0  0  0  0  0  0  0
  137.5271   79.7028  220.9864 H   0  0  0  0  0  0  0  0  0  0  0  0
  139.3148   79.4867  220.1914 H   0  0  0  0  0  0  0  0  0  0  0  0
  139.9490   77.2270  219.7510 H   0  0  0  0  0  0  0  0  0  0  0  0
  138.5318   74.7370  220.5317 H   0  0  0  0  0  0  0  0  0  0  0  0
  140.3103   74.9319  220.5667 H   0  0  0  0  0  0  0  0  0  0  0  0
  139.2200   74.5810  223.3000 H   0  0  0  0  0  0  0  0  0  0  0  0
  139.1278   70.3712  222.0607 H   0  0  0  0  0  0  0  0  0  0  0  0
  139.2247   68.6427  223.7967 H   0  0  0  0  0  0  0  0  0  0  0  0
  139.7967   68.0311  226.0423 H   0  0  0  0  0  0  0  0  0  0  0  0
  141.4755   70.9536  228.6848 H   0  0  0  0  0  0  0  0  0  0  0  0
  141.3497   72.6548  226.8781 H   0  0  0  0  0  0  0  0  0  0  0  0
  141.2564   80.8359  220.5753 H   0  0  0  0  0  0  0  0  0  0  0  0
  143.2139   81.4353  221.9430 H   0  0  0  0  0  0  0  0  0  0  0  0
  143.7093   80.2470  224.0607 H   0  0  0  0  0  0  0  0  0  0  0  0
  142.1818   78.4033  224.8121 H   0  0  0  0  0  0  0  0  0  0  0  0
  140.2207   77.8129  223.4258 H   0  0  0  0  0  0  0  0  0  0  0  0
  1  2  1  0
  2  3  1  0
  2  4  1  0
  4  5  1  0
  5  6  1  0
  6  7  1  0
  7  8  2  0
  7  9  1  0
  9 10  1  0
 10 11  1  0
 11 12  2  0
 11 13  1  0
 13 14  2  0
 14 15  1  0
 15 16  2  0
 16 17  1  0
 17 18  2  0
 18 19  1  0
 18 20  1  0
 20 21  2  0
 21 22  1  0
 22 23  2  0
  5 24  1  0
 24 25  2  0
 25 26  1  0
 26 27  2  0
 27 28  1  0
 28 29  2  0
 23 13  1  0
 29 24  1  0
 22 16  1  0
  1 30  1  0
  1 31  1  0
  1 32  1  0
  2 33  1  0
  3 34  1  0
  3 35  1  0
  3 36  1  0
  4 37  1  0
  4 38  1  0
  5 39  1  6
  6 40  1  0
  9 41  1  0
  9 42  1  0
 10 43  1  0
 14 44  1  0
 15 45  1  0
 17 46  1  0
 20 47  1  0
 21 48  1  0
 25 49  1  0
 26 50  1  0
 27 51  1  0
 28 52  1  0
 29 53  1  0
M  END
>  <smiles>  (14) 
CC(C)C[C@H](NC(=O)CNC(=O)c1ccc2cc(Cl)ccc2n1)c1ccccc1

>  <score_type>  (14) 
oracle

>  <origin>  (14) 
autodockgpu

>  <m_score__min__energy>  (14) 
-9

>  <m_primary>  (14) 
energy

>  <rmsd>  (14) 
3.9236942860212154

>  <m_score__min__rmsd>  (14) 
3.9236942860212154

>  <meeko>  (14) 
{"free_energy": -8.22, "intermolecular_energy": -10.31, "internal_energy": -1.88, "cluster_size": 16, "cluster_id": 1, "rank_in_cluster": 11}

>  <energy>  (14) 
-8.05

>  <cluster_rmsd>  (14) 
1.6

>  <cluster>  (14) 
1

$$$$

     RDKit          3D

 53 55  0  0  0  0  0  0  0  0999 V2000
  141.4200   78.8720  221.1370 C   0  0  0  0  0  0  0  0  0  0  0  0
  140.9050   78.3780  222.4480 C   0  0  0  0  0  0  0  0  0  0  0  0
  141.7550   79.0500  223.5370 C   0  0  0  0  0  0  0  0  0  0  0  0
  140.9860   76.9210  222.6860 C   0  0  0  0  0  0  0  0  0  0  0  0
  140.5090   76.0070  221.6250 C   0  0  2  0  0  0  0  0  0  0  0  0
  139.4400   75.1220  221.9440 N   0  0  0  0  0  0  0  0  0  0  0  0
  138.6370   74.5930  220.8690 C   0  0  0  0  0  0  0  0  0  0  0  0
  138.8520   74.8890  219.6670 O   0  0  0  0  0  0  0  0  0  0  0  0
  137.5060   73.6620  221.1580 C   0  0  0  0  0  0  0  0  0  0  0  0
  137.7960   72.9520  222.3780 N   0  0  0  0  0  0  0  0  0  0  0  0
  138.8220   71.9530  222.3150 C   0  0  0  0  0  0  0  0  0  0  0  0
  139.3620   71.8100  221.1710 O   0  0  0  0  0  0  0  0  0  0  0  0
  139.2140   71.1690  223.4570 C   0  0  0  0  0  0  0  0  0  0  0  0
  138.9950   69.8110  223.4230 C   0  0  0  0  0  0  0  0  0  0  0  0
  139.3240   68.9590  224.4440 C   0  0  0  0  0  0  0  0  0  0  0  0
  139.9070   69.4910  225.5730 C   0  0  0  0  0  0  0  0  0  0  0  0
  140.2540   68.6820  226.6210 C   0  0  0  0  0  0  0  0  0  0  0  0
  140.8320   69.1890  227.7450 C   0  0  0  0  0  0  0  0  0  0  0  0
  141.2720   68.1370  229.0830 Cl  0  0  0  0  0  0  0  0  0  0  0  0
  141.0640   70.5680  227.8000 C   0  0  0  0  0  0  0  0  0  0  0  0
  140.7100   71.3900  226.7310 C   0  0  0  0  0  0  0  0  0  0  0  0
  140.1250   70.8600  225.6010 C   0  0  0  0  0  0  0  0  0  0  0  0
  139.7860   71.6660  224.5690 N   0  0  0  0  0  0  0  0  0  0  0  0
  141.6100   75.2100  221.0080 C   0  0  0  0  0  0  0  0  0  0  0  0
  141.7540   73.8540  221.2260 C   0  0  0  0  0  0  0  0  0  0  0  0
  142.7860   73.1550  220.6360 C   0  0  0  0  0  0  0  0  0  0  0  0
  143.7050   73.7790  219.8150 C   0  0  0  0  0  0  0  0  0  0  0  0
  143.5770   75.1440  219.5830 C   0  0  0  0  0  0  0  0  0  0  0  0
  142.5350   75.8330  220.1830 C   0  0  0  0  0  0  0  0  0  0  0  0
  142.2039   79.6239  221.3108 H   0  0  0  0  0  0  0  0  0  0  0  0
  141.8396   78.0299  220.5670 H   0  0  0  0  0  0  0  0  0  0  0  0
  140.5961   79.3262  220.5670 H   0  0  0  0  0  0  0  0  0  0  0  0
  139.8325   78.6222  222.4575 H   0  0  0  0  0  0  0  0  0  0  0  0
  141.3812   78.7545  224.5284 H   0  0  0  0  0  0  0  0  0  0  0  0
  142.8033   78.7338  223.4312 H   0  0  0  0  0  0  0  0  0  0  0  0
  141.6892   80.1429  223.4312 H   0  0  0  0  0  0  0  0  0  0  0  0
  142.0431   76.6801  222.8717 H   0  0  0  0  0  0  0  0  0  0  0  0
  140.2960   76.7453  223.5244 H   0  0  0  0  0  0  0  0  0  0  0  0
  140.0913   76.7331  220.9121 H   0  0  0  0  0  0  0  0  0  0  0  0
  139.1630   74.7940  222.8920 H   0  0  0  0  0  0  0  0  0  0  0  0
  136.5746   74.2354  221.2752 H   0  0  0  0  0  0  0  0  0  0  0  0
  137.3837   72.9500  220.3285 H   0  0  0  0  0  0  0  0  0  0  0  0
  137.3000   73.1330  223.2880 H   0  0  0  0  0  0  0  0  0  0  0  0
  138.5282   69.3844  222.5229 H   0  0  0  0  0  0  0  0  0  0  0  0
  139.1280   67.8795  224.3645 H   0  0  0  0  0  0  0  0  0  0  0  0
  140.0622   67.6009  226.5541 H   0  0  0  0  0  0  0  0  0  0  0  0
  141.5297   71.0072  228.6945 H   0  0  0  0  0  0  0  0  0  0  0  0
  140.8994   72.4720  226.7899 H   0  0  0  0  0  0  0  0  0  0  0  0
  141.0396   73.3271  221.8756 H   0  0  0  0  0  0  0  0  0  0  0  0
  142.8795   72.0752  220.8236 H   0  0  0  0  0  0  0  0  0  0  0  0
  144.5230   73.2066  219.3533 H   0  0  0  0  0  0  0  0  0  0  0  0
  144.2922   75.6691  218.9328 H   0  0  0  0  0  0  0  0  0  0  0  0
  142.4379   76.9130  219.9984 H   0  0  0  0  0  0  0  0  0  0  0  0
  1  2  1  0
  2  3  1  0
  2  4  1  0
  4  5  1  0
  5  6  1  0
  6  7  1  0
  7  8  2  0
  7  9  1  0
  9 10  1  0
 10 11  1  0
 11 12  2  0
 11 13  1  0
 13 14  2  0
 14 15  1  0
 15 16  2  0
 16 17  1  0
 17 18  2  0
 18 19  1  0
 18 20  1  0
 20 21  2  0
 21 22  1  0
 22 23  2  0
  5 24  1  0
 24 25  2  0
 25 26  1  0
 26 27  2  0
 27 28  1  0
 28 29  2  0
 23 13  1  0
 29 24  1  0
 22 16  1  0
  1 30  1  0
  1 31  1  0
  1 32  1  0
  2 33  1  0
  3 34  1  0
  3 35  1  0
  3 36  1  0
  4 37  1  0
  4 38  1  0
  5 39  1  6
  6 40  1  0
  9 41  1  0
  9 42  1  0
 10 43  1  0
 14 44  1  0
 15 45  1  0
 17 46  1  0
 20 47  1  0
 21 48  1  0
 25 49  1  0
 26 50  1  0
 27 51  1  0
 28 52  1  0
 29 53  1  0
M  END
>  <smiles>  (15) 
CC(C)C[C@H](NC(=O)CNC(=O)c1ccc2cc(Cl)ccc2n1)c1ccccc1

>  <score_type>  (15) 
oracle

>  <origin>  (15) 
autodockgpu

>  <m_score__min__energy>  (15) 
-9

>  <m_primary>  (15) 
energy

>  <rmsd>  (15) 
3.056951953728883

>  <m_score__min__rmsd>  (15) 
3.056951953728883

>  <meeko>  (15) 
{"free_energy": -8.27, "intermolecular_energy": -10.36, "internal_energy": -1.86, "cluster_size": 16, "cluster_id": 1, "rank_in_cluster": 9}

>  <energy>  (15) 
-8.01

>  <cluster_rmsd>  (15) 
1.66

>  <cluster>  (15) 
1

$$$$

     RDKit          3D

 53 55  0  0  0  0  0  0  0  0999 V2000
  141.6270   78.6320  223.3090 C   0  0  0  0  0  0  0  0  0  0  0  0
  140.9270   78.0520  222.1250 C   0  0  0  0  0  0  0  0  0  0  0  0
  139.8820   79.0860  221.6800 C   0  0  0  0  0  0  0  0  0  0  0  0
  140.2010   76.7820  222.3410 C   0  0  0  0  0  0  0  0  0  0  0  0
  140.1570   75.8000  221.2350 C   0  0  2  0  0  0  0  0  0  0  0  0
  139.4610   74.5790  221.4600 N   0  0  0  0  0  0  0  0  0  0  0  0
  138.0470   74.5280  221.1820 C   0  0  0  0  0  0  0  0  0  0  0  0
  137.4160   75.5250  220.7490 O   0  0  0  0  0  0  0  0  0  0  0  0
  137.2770   73.2680  221.4040 C   0  0  0  0  0  0  0  0  0  0  0  0
  137.7000   72.6850  222.6520 N   0  0  0  0  0  0  0  0  0  0  0  0
  138.9030   71.9060  222.6250 C   0  0  0  0  0  0  0  0  0  0  0  0
  139.4620   71.8210  221.4850 O   0  0  0  0  0  0  0  0  0  0  0  0
  139.4410   71.2670  223.7980 C   0  0  0  0  0  0  0  0  0  0  0  0
  140.4880   71.8770  224.4520 C   0  0  0  0  0  0  0  0  0  0  0  0
  141.0840   71.3700  225.5750 C   0  0  0  0  0  0  0  0  0  0  0  0
  140.6120   70.1790  226.0820 C   0  0  0  0  0  0  0  0  0  0  0  0
  141.1750   69.6320  227.2030 C   0  0  0  0  0  0  0  0  0  0  0  0
  140.7220   68.4550  227.7200 C   0  0  0  0  0  0  0  0  0  0  0  0
  141.4560   67.7640  229.1600 Cl  0  0  0  0  0  0  0  0  0  0  0  0
  139.6590   67.8180  227.0700 C   0  0  0  0  0  0  0  0  0  0  0  0
  139.0870   68.3790  225.9280 C   0  0  0  0  0  0  0  0  0  0  0  0
  139.5590   69.5700  225.4190 C   0  0  0  0  0  0  0  0  0  0  0  0
  138.9960   70.1060  224.3110 N   0  0  0  0  0  0  0  0  0  0  0  0
  141.5110   75.4750  220.6950 C   0  0  0  0  0  0  0  0  0  0  0  0
  142.1350   74.2690  220.9390 C   0  0  0  0  0  0  0  0  0  0  0  0
  143.3870   74.0090  220.4200 C   0  0  0  0  0  0  0  0  0  0  0  0
  144.0550   74.9380  219.6460 C   0  0  0  0  0  0  0  0  0  0  0  0
  143.4420   76.1600  219.3900 C   0  0  0  0  0  0  0  0  0  0  0  0
  142.1850   76.4060  219.9170 C   0  0  0  0  0  0  0  0  0  0  0  0
  141.1655   78.2496  224.2314 H   0  0  0  0  0  0  0  0  0  0  0  0
  142.6887   78.3453  223.2840 H   0  0  0  0  0  0  0  0  0  0  0  0
  141.5426   79.7285  223.2840 H   0  0  0  0  0  0  0  0  0  0  0  0
  141.7170   77.8238  221.3944 H   0  0  0  0  0  0  0  0  0  0  0  0
  139.4190   79.5442  222.5664 H   0  0  0  0  0  0  0  0  0  0  0  0
  140.3710   79.8656  221.0775 H   0  0  0  0  0  0  0  0  0  0  0  0
  139.1076   78.5887  221.0775 H   0  0  0  0  0  0  0  0  0  0  0  0
  140.6694   76.2819  223.2016 H   0  0  0  0  0  0  0  0  0  0  0  0
  139.1528   77.0886  222.4724 H   0  0  0  0  0  0  0  0  0  0  0  0
  139.5538   76.3552  220.5016 H   0  0  0  0  0  0  0  0  0  0  0  0
  139.8650   73.6850  221.8080 H   0  0  0  0  0  0  0  0  0  0  0  0
  136.2012   73.4936  221.4461 H   0  0  0  0  0  0  0  0  0  0  0  0
  137.4613   72.5644  220.5788 H   0  0  0  0  0  0  0  0  0  0  0  0
  137.1770   72.8060  223.5560 H   0  0  0  0  0  0  0  0  0  0  0  0
  140.8676   72.8272  224.0483 H   0  0  0  0  0  0  0  0  0  0  0  0
  141.9176   71.8993  226.0598 H   0  0  0  0  0  0  0  0  0  0  0  0
  142.0092   70.1523  227.6964 H   0  0  0  0  0  0  0  0  0  0  0  0
  139.2711   66.8666  227.4630 H   0  0  0  0  0  0  0  0  0  0  0  0
  138.2515   67.8662  225.4290 H   0  0  0  0  0  0  0  0  0  0  0  0
  141.6302   73.5082  221.5525 H   0  0  0  0  0  0  0  0  0  0  0  0
  143.8640   73.0397  220.6274 H   0  0  0  0  0  0  0  0  0  0  0  0
  145.0528   74.7155  219.2398 H   0  0  0  0  0  0  0  0  0  0  0  0
  143.9485   76.9205  218.7775 H   0  0  0  0  0  0  0  0  0  0  0  0
  141.7038   77.3736  219.7117 H   0  0  0  0  0  0  0  0  0  0  0  0
  1  2  1  0
  2  3  1  0
  2  4  1  0
  4  5  1  0
  5  6  1  0
  6  7  1  0
  7  8  2  0
  7  9  1  0
  9 10  1  0
 10 11  1  0
 11 12  2  0
 11 13  1  0
 13 14  2  0
 14 15  1  0
 15 16  2  0
 16 17  1  0
 17 18  2  0
 18 19  1  0
 18 20  1  0
 20 21  2  0
 21 22  1  0
 22 23  2  0
  5 24  1  0
 24 25  2  0
 25 26  1  0
 26 27  2  0
 27 28  1  0
 28 29  2  0
 23 13  1  0
 29 24  1  0
 22 16  1  0
  1 30  1  0
  1 31  1  0
  1 32  1  0
  2 33  1  0
  3 34  1  0
  3 35  1  0
  3 36  1  0
  4 37  1  0
  4 38  1  0
  5 39  1  6
  6 40  1  0
  9 41  1  0
  9 42  1  0
 10 43  1  0
 14 44  1  0
 15 45  1  0
 17 46  1  0
 20 47  1  0
 21 48  1  0
 25 49  1  0
 26 50  1  0
 27 51  1  0
 28 52  1  0
 29 53  1  0
M  END
>  <smiles>  (16) 
CC(C)C[C@H](NC(=O)CNC(=O)c1ccc2cc(Cl)ccc2n1)c1ccccc1

>  <score_type>  (16) 
oracle

>  <origin>  (16) 
autodockgpu

>  <m_score__min__energy>  (16) 
-9

>  <m_primary>  (16) 
energy

>  <rmsd>  (16) 
3.7845835836944346

>  <m_score__min__rmsd>  (16) 
3.7845835836944346

>  <meeko>  (16) 
{"free_energy": -7.59, "intermolecular_energy": -9.68, "internal_energy": -2.15, "cluster_size": 5, "cluster_id": 5, "rank_in_cluster": 4}

>  <energy>  (16) 
-7.44

>  <cluster_rmsd>  (16) 
1.92

>  <cluster>  (16) 
1

$$$$

     RDKit          3D

 53 55  0  0  0  0  0  0  0  0999 V2000
  139.1150   77.8930  222.6640 C   0  0  0  0  0  0  0  0  0  0  0  0
  140.5050   77.3680  222.5280 C   0  0  0  0  0  0  0  0  0  0  0  0
  141.4460   78.4690  223.0400 C   0  0  0  0  0  0  0  0  0  0  0  0
  140.9550   77.0280  221.1600 C   0  0  0  0  0  0  0  0  0  0  0  0
  140.6430   75.6820  220.6310 C   0  0  2  0  0  0  0  0  0  0  0  0
  139.5830   74.9580  221.2470 N   0  0  0  0  0  0  0  0  0  0  0  0
  138.7530   74.1150  220.4230 C   0  0  0  0  0  0  0  0  0  0  0  0
  138.9380   74.0010  219.1860 O   0  0  0  0  0  0  0  0  0  0  0  0
  137.6290   73.3380  221.0270 C   0  0  0  0  0  0  0  0  0  0  0  0
  138.0460   72.8570  222.3200 N   0  0  0  0  0  0  0  0  0  0  0  0
  138.9720   71.7640  222.3330 C   0  0  0  0  0  0  0  0  0  0  0  0
  139.3210   71.3420  221.1840 O   0  0  0  0  0  0  0  0  0  0  0  0
  139.4730   71.1840  223.5530 C   0  0  0  0  0  0  0  0  0  0  0  0
  140.3990   71.8950  224.2820 C   0  0  0  0  0  0  0  0  0  0  0  0
  140.9490   71.4530  225.4550 C   0  0  0  0  0  0  0  0  0  0  0  0
  140.5550   70.2230  225.9360 C   0  0  0  0  0  0  0  0  0  0  0  0
  141.0750   69.7370  227.1040 C   0  0  0  0  0  0  0  0  0  0  0  0
  140.6980   68.5230  227.5950 C   0  0  0  0  0  0  0  0  0  0  0  0
  141.3760   67.9120  229.0980 Cl  0  0  0  0  0  0  0  0  0  0  0  0
  139.7580   67.7830  226.8690 C   0  0  0  0  0  0  0  0  0  0  0  0
  139.2290   68.2820  225.6790 C   0  0  0  0  0  0  0  0  0  0  0  0
  139.6230   69.5120  225.1960 C   0  0  0  0  0  0  0  0  0  0  0  0
  139.1030   69.9860  224.0410 N   0  0  0  0  0  0  0  0  0  0  0  0
  141.8410   74.7930  220.5660 C   0  0  0  0  0  0  0  0  0  0  0  0
  141.8000   73.4660  220.9410 C   0  0  0  0  0  0  0  0  0  0  0  0
  142.9310   72.6800  220.8650 C   0  0  0  0  0  0  0  0  0  0  0  0
  144.1340   73.1870  220.4150 C   0  0  0  0  0  0  0  0  0  0  0  0
  144.1960   74.5220  220.0320 C   0  0  0  0  0  0  0  0  0  0  0  0
  143.0520   75.2990  220.1150 C   0  0  0  0  0  0  0  0  0  0  0  0
  138.8619   77.9886  223.7302 H   0  0  0  0  0  0  0  0  0  0  0  0
  139.0465   78.8789  222.1810 H   0  0  0  0  0  0  0  0  0  0  0  0
  138.4119   77.1985  222.1810 H   0  0  0  0  0  0  0  0  0  0  0  0
  140.5218   76.4233  223.0912 H   0  0  0  0  0  0  0  0  0  0  0  0
  141.4460   78.4690  224.1400 H   0  0  0  0  0  0  0  0  0  0  0  0
  142.4656   78.2797  222.6733 H   0  0  0  0  0  0  0  0  0  0  0  0
  141.1001   79.4467  222.6733 H   0  0  0  0  0  0  0  0  0  0  0  0
  140.4995   77.7597  220.4765 H   0  0  0  0  0  0  0  0  0  0  0  0
  142.0530   77.0455  221.2243 H   0  0  0  0  0  0  0  0  0  0  0  0
  140.2812   75.9433  219.6256 H   0  0  0  0  0  0  0  0  0  0  0  0
  139.3300   74.9590  222.2560 H   0  0  0  0  0  0  0  0  0  0  0  0
  136.7480   73.9870  221.1394 H   0  0  0  0  0  0  0  0  0  0  0  0
  137.3660   72.4902  220.3773 H   0  0  0  0  0  0  0  0  0  0  0  0
  137.7080   73.2650  223.2280 H   0  0  0  0  0  0  0  0  0  0  0  0
  140.7158   72.8764  223.8994 H   0  0  0  0  0  0  0  0  0  0  0  0
  141.6854   72.0629  225.9989 H   0  0  0  0  0  0  0  0  0  0  0  0
  141.8117   70.3376  227.6576 H   0  0  0  0  0  0  0  0  0  0  0  0
  139.4336   66.7996  227.2400 H   0  0  0  0  0  0  0  0  0  0  0  0
  138.4903   67.6886  225.1203 H   0  0  0  0  0  0  0  0  0  0  0  0
  140.8571   73.0309  221.3038 H   0  0  0  0  0  0  0  0  0  0  0  0
  142.8732   71.6247  221.1700 H   0  0  0  0  0  0  0  0  0  0  0  0
  145.0266   72.5465  220.3606 H   0  0  0  0  0  0  0  0  0  0  0  0
  145.1395   74.9550  219.6684 H   0  0  0  0  0  0  0  0  0  0  0  0
  143.1055   76.3552  219.8125 H   0  0  0  0  0  0  0  0  0  0  0  0
  1  2  1  0
  2  3  1  0
  2  4  1  0
  4  5  1  0
  5  6  1  0
  6  7  1  0
  7  8  2  0
  7  9  1  0
  9 10  1  0
 10 11  1  0
 11 12  2  0
 11 13  1  0
 13 14  2  0
 14 15  1  0
 15 16  2  0
 16 17  1  0
 17 18  2  0
 18 19  1  0
 18 20  1  0
 20 21  2  0
 21 22  1  0
 22 23  2  0
  5 24  1  0
 24 25  2  0
 25 26  1  0
 26 27  2  0
 27 28  1  0
 28 29  2  0
 23 13  1  0
 29 24  1  0
 22 16  1  0
  1 30  1  0
  1 31  1  0
  1 32  1  0
  2 33  1  0
  3 34  1  0
  3 35  1  0
  3 36  1  0
  4 37  1  0
  4 38  1  0
  5 39  1  6
  6 40  1  0
  9 41  1  0
  9 42  1  0
 10 43  1  0
 14 44  1  0
 15 45  1  0
 17 46  1  0
 20 47  1  0
 21 48  1  0
 25 49  1  0
 26 50  1  0
 27 51  1  0
 28 52  1  0
 29 53  1  0
M  END
>  <smiles>  (17) 
CC(C)C[C@H](NC(=O)CNC(=O)c1ccc2cc(Cl)ccc2n1)c1ccccc1

>  <score_type>  (17) 
oracle

>  <origin>  (17) 
autodockgpu

>  <m_score__min__energy>  (17) 
-9

>  <m_primary>  (17) 
energy

>  <rmsd>  (17) 
3.4846363181832527

>  <m_score__min__rmsd>  (17) 
3.4846363181832527

>  <meeko>  (17) 
{"free_energy": -7.73, "intermolecular_energy": -9.82, "internal_energy": -1.91, "cluster_size": 5, "cluster_id": 5, "rank_in_cluster": 3}

>  <energy>  (17) 
-8.71

>  <cluster_rmsd>  (17) 
0.0

>  <cluster>  (17) 
2

$$$$

     RDKit          3D

 53 55  0  0  0  0  0  0  0  0999 V2000
  142.5250   78.0070  216.9380 C   0  0  0  0  0  0  0  0  0  0  0  0
  143.2470   76.8820  217.6020 C   0  0  0  0  0  0  0  0  0  0  0  0
  143.2530   75.7120  216.6060 C   0  0  0  0  0  0  0  0  0  0  0  0
  142.6590   76.3660  218.8580 C   0  0  0  0  0  0  0  0  0  0  0  0
  142.3430   74.9230  218.9450 C   0  0  2  0  0  0  0  0  0  0  0  0
  141.0400   74.5560  219.3840 N   0  0  0  0  0  0  0  0  0  0  0  0
  140.4300   75.3160  220.4460 C   0  0  0  0  0  0  0  0  0  0  0  0
  141.0110   76.2870  220.9920 O   0  0  0  0  0  0  0  0  0  0  0  0
  139.0640   74.9660  220.9390 C   0  0  0  0  0  0  0  0  0  0  0  0
  139.1960   74.1670  222.1310 N   0  0  0  0  0  0  0  0  0  0  0  0
  139.6470   72.8190  221.9570 C   0  0  0  0  0  0  0  0  0  0  0  0
  139.8810   72.4820  220.7520 O   0  0  0  0  0  0  0  0  0  0  0  0
  139.8250   71.9110  223.0600 C   0  0  0  0  0  0  0  0  0  0  0  0
  139.4620   70.5950  222.8870 C   0  0  0  0  0  0  0  0  0  0  0  0
  139.5820   69.6360  223.8580 C   0  0  0  0  0  0  0  0  0  0  0  0
  140.0950   70.0090  225.0810 C   0  0  0  0  0  0  0  0  0  0  0  0
  140.2340   69.0890  226.0840 C   0  0  0  0  0  0  0  0  0  0  0  0
  140.7390   69.4380  227.3000 C   0  0  0  0  0  0  0  0  0  0  0  0
  140.9120   68.2440  228.5780 Cl  0  0  0  0  0  0  0  0  0  0  0  0
  141.1150   70.7710  227.4970 C   0  0  0  0  0  0  0  0  0  0  0  0
  140.9720   71.7070  226.4730 C   0  0  0  0  0  0  0  0  0  0  0  0
  140.4580   71.3360  225.2490 C   0  0  0  0  0  0  0  0  0  0  0  0
  140.3240   72.2520  224.2620 N   0  0  0  0  0  0  0  0  0  0  0  0
  143.3420   74.1590  219.7500 C   0  0  0  0  0  0  0  0  0  0  0  0
  144.5210   74.7210  220.1950 C   0  0  0  0  0  0  0  0  0  0  0  0
  145.4160   73.9790  220.9370 C   0  0  0  0  0  0  0  0  0  0  0  0
  145.1680   72.6580  221.2580 C   0  0  0  0  0  0  0  0  0  0  0  0
  143.9850   72.0740  220.8180 C   0  0  0  0  0  0  0  0  0  0  0  0
  143.0960   72.8320  220.0740 C   0  0  0  0  0  0  0  0  0  0  0  0
  142.0984   78.6717  217.7037 H   0  0  0  0  0  0  0  0  0  0  0  0
  143.2281   78.5743  216.3105 H   0  0  0  0  0  0  0  0  0  0  0  0
  141.7164   77.6041  216.3105 H   0  0  0  0  0  0  0  0  0  0  0  0
  144.2338   77.2830  217.8768 H   0  0  0  0  0  0  0  0  0  0  0  0
  143.2579   74.7606  217.1580 H   0  0  0  0  0  0  0  0  0  0  0  0
  142.3546   75.7643  215.9735 H   0  0  0  0  0  0  0  0  0  0  0  0
  144.1508   75.7735  215.9735 H   0  0  0  0  0  0  0  0  0  0  0  0
  143.3689   76.5931  219.6670 H   0  0  0  0  0  0  0  0  0  0  0  0
  141.6794   76.8622  218.9224 H   0  0  0  0  0  0  0  0  0  0  0  0
  142.3876   74.6457  217.8815 H   0  0  0  0  0  0  0  0  0  0  0  0
  140.4510   73.7820  219.0140 H   0  0  0  0  0  0  0  0  0  0  0  0
  138.5062   75.8857  221.1693 H   0  0  0  0  0  0  0  0  0  0  0  0
  138.5190   74.4025  220.1674 H   0  0  0  0  0  0  0  0  0  0  0  0
  138.9800   74.5260  223.0960 H   0  0  0  0  0  0  0  0  0  0  0  0
  139.0513   70.2953  221.9115 H   0  0  0  0  0  0  0  0  0  0  0  0
  139.2771   68.5966  223.6664 H   0  0  0  0  0  0  0  0  0  0  0  0
  139.9319   68.0466  225.9049 H   0  0  0  0  0  0  0  0  0  0  0  0
  141.5270   71.0836  228.4679 H   0  0  0  0  0  0  0  0  0  0  0  0
  141.2723   72.7513  226.6438 H   0  0  0  0  0  0  0  0  0  0  0  0
  144.7491   75.7702  219.9558 H   0  0  0  0  0  0  0  0  0  0  0  0
  146.3488   74.4496  221.2812 H   0  0  0  0  0  0  0  0  0  0  0  0
  145.8924   72.0795  221.8502 H   0  0  0  0  0  0  0  0  0  0  0  0
  143.7585   71.0246  221.0575 H   0  0  0  0  0  0  0  0  0  0  0  0
  142.1618   72.3658  219.7276 H   0  0  0  0  0  0  0  0  0  0  0  0
  1  2  1  0
  2  3  1  0
  2  4  1  0
  4  5  1  0
  5  6  1  0
  6  7  1  0
  7  8  2  0
  7  9  1  0
  9 10  1  0
 10 11  1  0
 11 12  2  0
 11 13  1  0
 13 14  2  0
 14 15  1  0
 15 16  2  0
 16 17  1  0
 17 18  2  0
 18 19  1  0
 18 20  1  0
 20 21  2  0
 21 22  1  0
 22 23  2  0
  5 24  1  0
 24 25  2  0
 25 26  1  0
 26 27  2  0
 27 28  1  0
 28 29  2  0
 23 13  1  0
 29 24  1  0
 22 16  1  0
  1 30  1  0
  1 31  1  0
  1 32  1  0
  2 33  1  0
  3 34  1  0
  3 35  1  0
  3 36  1  0
  4 37  1  0
  4 38  1  0
  5 39  1  6
  6 40  1  0
  9 41  1  0
  9 42  1  0
 10 43  1  0
 14 44  1  0
 15 45  1  0
 17 46  1  0
 20 47  1  0
 21 48  1  0
 25 49  1  0
 26 50  1  0
 27 51  1  0
 28 52  1  0
 29 53  1  0
M  END
>  <smiles>  (18) 
CC(C)C[C@H](NC(=O)CNC(=O)c1ccc2cc(Cl)ccc2n1)c1ccccc1

>  <score_type>  (18) 
oracle

>  <origin>  (18) 
autodockgpu

>  <m_score__min__energy>  (18) 
-9

>  <m_primary>  (18) 
energy

>  <rmsd>  (18) 
2.4964528677904507

>  <m_score__min__rmsd>  (18) 
2.4964528677904507

>  <meeko>  (18) 
{"free_energy": -7.55, "intermolecular_energy": -9.64, "internal_energy": -2.36, "cluster_size": 3, "cluster_id": 6, "rank_in_cluster": 3}

>  <energy>  (18) 
-8.7

>  <cluster_rmsd>  (18) 
0.34

>  <cluster>  (18) 
2

$$$$

     RDKit          3D

 53 55  0  0  0  0  0  0  0  0999 V2000
  137.7030   69.1490  221.6340 C   0  0  0  0  0  0  0  0  0  0  0  0
  139.0120   68.7120  222.2040 C   0  0  0  0  0  0  0  0  0  0  0  0
  138.8160   67.2740  222.7070 C   0  0  0  0  0  0  0  0  0  0  0  0
  139.5310   69.4940  223.3480 C   0  0  0  0  0  0  0  0  0  0  0  0
  139.1680   69.0630  224.7160 C   0  0  2  0  0  0  0  0  0  0  0  0
  137.7850   68.9170  225.0190 N   0  0  0  0  0  0  0  0  0  0  0  0
  136.8960   70.0160  224.7360 C   0  0  0  0  0  0  0  0  0  0  0  0
  137.3050   71.0920  224.2330 O   0  0  0  0  0  0  0  0  0  0  0  0
  135.4370   69.9060  225.0380 C   0  0  0  0  0  0  0  0  0  0  0  0
  134.9310   71.2200  225.3440 N   0  0  0  0  0  0  0  0  0  0  0  0
  133.8740   71.2960  226.3080 C   0  0  0  0  0  0  0  0  0  0  0  0
  133.5030   70.1760  226.7860 O   0  0  0  0  0  0  0  0  0  0  0  0
  133.2750   72.5430  226.7090 C   0  0  0  0  0  0  0  0  0  0  0  0
  132.0530   72.5070  227.3390 C   0  0  0  0  0  0  0  0  0  0  0  0
  131.3830   73.6220  227.7680 C   0  0  0  0  0  0  0  0  0  0  0  0
  131.9640   74.8530  227.5540 C   0  0  0  0  0  0  0  0  0  0  0  0
  131.3340   75.9970  227.9630 C   0  0  0  0  0  0  0  0  0  0  0  0
  131.8920   77.2230  227.7620 C   0  0  0  0  0  0  0  0  0  0  0  0
  131.0710   78.6830  228.2930 Cl  0  0  0  0  0  0  0  0  0  0  0  0
  133.1350   77.2820  227.1220 C   0  0  0  0  0  0  0  0  0  0  0  0
  133.7750   76.1140  226.7070 C   0  0  0  0  0  0  0  0  0  0  0  0
  133.1940   74.8810  226.9180 C   0  0  0  0  0  0  0  0  0  0  0  0
  133.8240   73.7550  226.5110 N   0  0  0  0  0  0  0  0  0  0  0  0
  139.7930   69.9100  225.7750 C   0  0  0  0  0  0  0  0  0  0  0  0
  140.5120   71.0510  225.4820 C   0  0  0  0  0  0  0  0  0  0  0  0
  141.0730   71.8050  226.4920 C   0  0  0  0  0  0  0  0  0  0  0  0
  140.9370   71.4500  227.8200 C   0  0  0  0  0  0  0  0  0  0  0  0
  140.2150   70.3040  228.1350 C   0  0  0  0  0  0  0  0  0  0  0  0
  139.6580   69.5570  227.1100 C   0  0  0  0  0  0  0  0  0  0  0  0
  137.0060   69.3817  222.4526 H   0  0  0  0  0  0  0  0  0  0  0  0
  137.8537   70.0456  221.0148 H   0  0  0  0  0  0  0  0  0  0  0  0
  137.2849   68.3417  221.0148 H   0  0  0  0  0  0  0  0  0  0  0  0
  139.7468   68.8414  221.3957 H   0  0  0  0  0  0  0  0  0  0  0  0
  138.8151   67.2672  223.8070 H   0  0  0  0  0  0  0  0  0  0  0  0
  137.8564   66.8838  222.3371 H   0  0  0  0  0  0  0  0  0  0  0  0
  139.6362   66.6412  222.3371 H   0  0  0  0  0  0  0  0  0  0  0  0
  140.6289   69.4775  223.2822 H   0  0  0  0  0  0  0  0  0  0  0  0
  139.0561   70.4803  223.2397 H   0  0  0  0  0  0  0  0  0  0  0  0
  139.5827   68.0442  224.7194 H   0  0  0  0  0  0  0  0  0  0  0  0
  137.3210   68.0800  225.4280 H   0  0  0  0  0  0  0  0  0  0  0  0
  134.9072   69.4990  224.1641 H   0  0  0  0  0  0  0  0  0  0  0  0
  135.2799   69.2338  225.8944 H   0  0  0  0  0  0  0  0  0  0  0  0
  135.2980   72.1010  224.9010 H   0  0  0  0  0  0  0  0  0  0  0  0
  131.5864   71.5254  227.5083 H   0  0  0  0  0  0  0  0  0  0  0  0
  130.4077   73.5371  228.2697 H   0  0  0  0  0  0  0  0  0  0  0  0
  130.3574   75.9249  228.4641 H   0  0  0  0  0  0  0  0  0  0  0  0
  133.6114   78.2575  226.9447 H   0  0  0  0  0  0  0  0  0  0  0  0
  134.7526   76.1770  226.2066 H   0  0  0  0  0  0  0  0  0  0  0  0
  140.6388   71.3618  224.4345 H   0  0  0  0  0  0  0  0  0  0  0  0
  141.6420   72.7102  226.2337 H   0  0  0  0  0  0  0  0  0  0  0  0
  141.3911   72.0621  228.6132 H   0  0  0  0  0  0  0  0  0  0  0  0
  140.0880   69.9951  229.1831 H   0  0  0  0  0  0  0  0  0  0  0  0
  139.0880   68.6511  227.3637 H   0  0  0  0  0  0  0  0  0  0  0  0
  1  2  1  0
  2  3  1  0
  2  4  1  0
  4  5  1  0
  5  6  1  0
  6  7  1  0
  7  8  2  0
  7  9  1  0
  9 10  1  0
 10 11  1  0
 11 12  2  0
 11 13  1  0
 13 14  2  0
 14 15  1  0
 15 16  2  0
 16 17  1  0
 17 18  2  0
 18 19  1  0
 18 20  1  0
 20 21  2  0
 21 22  1  0
 22 23  2  0
  5 24  1  0
 24 25  2  0
 25 26  1  0
 26 27  2  0
 27 28  1  0
 28 29  2  0
 23 13  1  0
 29 24  1  0
 22 16  1  0
  1 30  1  0
  1 31  1  0
  1 32  1  0
  2 33  1  0
  3 34  1  0
  3 35  1  0
  3 36  1  0
  4 37  1  0
  4 38  1  0
  5 39  1  1
  6 40  1  0
  9 41  1  0
  9 42  1  0
 10 43  1  0
 14 44  1  0
 15 45  1  0
 17 46  1  0
 20 47  1  0
 21 48  1  0
 25 49  1  0
 26 50  1  0
 27 51  1  0
 28 52  1  0
 29 53  1  0
M  END
>  <smiles>  (19) 
CC(C)C[C@H](NC(=O)CNC(=O)c1ccc2cc(Cl)ccc2n1)c1ccccc1

>  <score_type>  (19) 
oracle

>  <origin>  (19) 
autodockgpu

>  <m_score__min__energy>  (19) 
-9

>  <m_primary>  (19) 
energy

>  <rmsd>  (19) 
8.60148686814138

>  <m_score__min__rmsd>  (19) 
8.60148686814138

>  <meeko>  (19) 
{"free_energy": -8.0, "intermolecular_energy": -10.09, "internal_energy": -1.94, "cluster_size": 6, "cluster_id": 3, "rank_in_cluster": 4}

>  <energy>  (19) 
-8.55

>  <cluster_rmsd>  (19) 
0.48

>  <cluster>  (19) 
2

$$$$

     RDKit          3D

 53 55  0  0  0  0  0  0  0  0999 V2000
  140.2000   80.2460  223.5380 C   0  0  0  0  0  0  0  0  0  0  0  0
  141.4680   79.5630  223.9300 C   0  0  0  0  0  0  0  0  0  0  0  0
  142.6050   80.5660  223.6830 C   0  0  0  0  0  0  0  0  0  0  0  0
  141.8180   78.3350  223.1840 C   0  0  0  0  0  0  0  0  0  0  0  0
  141.0400   78.0040  221.9690 C   0  0  2  0  0  0  0  0  0  0  0  0
  140.8370   76.6280  221.6670 N   0  0  0  0  0  0  0  0  0  0  0  0
  139.5850   76.2280  221.0740 C   0  0  0  0  0  0  0  0  0  0  0  0
  138.6740   77.0540  220.8180 O   0  0  0  0  0  0  0  0  0  0  0  0
  139.3300   74.7950  220.7400 C   0  0  0  0  0  0  0  0  0  0  0  0
  139.3460   74.0290  221.9600 N   0  0  0  0  0  0  0  0  0  0  0  0
  139.8970   72.7090  221.8860 C   0  0  0  0  0  0  0  0  0  0  0  0
  140.3130   72.3640  220.7340 O   0  0  0  0  0  0  0  0  0  0  0  0
  139.9760   71.8340  223.0280 C   0  0  0  0  0  0  0  0  0  0  0  0
  139.5010   70.5490  222.9000 C   0  0  0  0  0  0  0  0  0  0  0  0
  139.5210   69.6250  223.9100 C   0  0  0  0  0  0  0  0  0  0  0  0
  140.0460   70.0010  225.1270 C   0  0  0  0  0  0  0  0  0  0  0  0
  140.0880   69.1140  226.1680 C   0  0  0  0  0  0  0  0  0  0  0  0
  140.6030   69.4680  227.3790 C   0  0  0  0  0  0  0  0  0  0  0  0
  140.6500   68.3170  228.7070 Cl  0  0  0  0  0  0  0  0  0  0  0  0
  141.0910   70.7700  227.5300 C   0  0  0  0  0  0  0  0  0  0  0  0
  141.0470   71.6720  226.4670 C   0  0  0  0  0  0  0  0  0  0  0  0
  140.5220   71.2970  225.2490 C   0  0  0  0  0  0  0  0  0  0  0  0
  140.4840   72.1800  224.2250 N   0  0  0  0  0  0  0  0  0  0  0  0
  141.5610   78.6820  220.7450 C   0  0  0  0  0  0  0  0  0  0  0  0
  141.5190   80.0510  220.5820 C   0  0  0  0  0  0  0  0  0  0  0  0
  142.0120   80.6370  219.4340 C   0  0  0  0  0  0  0  0  0  0  0  0
  142.5600   79.8810  218.4160 C   0  0  0  0  0  0  0  0  0  0  0  0
  142.6120   78.4990  218.5620 C   0  0  0  0  0  0  0  0  0  0  0  0
  142.1120   77.9260  219.7200 C   0  0  0  0  0  0  0  0  0  0  0  0
  139.6487   80.5429  224.4424 H   0  0  0  0  0  0  0  0  0  0  0  0
  140.4343   81.1399  222.9414 H   0  0  0  0  0  0  0  0  0  0  0  0
  139.5825   79.5585  222.9414 H   0  0  0  0  0  0  0  0  0  0  0  0
  141.3247   79.2478  224.9741 H   0  0  0  0  0  0  0  0  0  0  0  0
  143.0014   80.9157  224.6476 H   0  0  0  0  0  0  0  0  0  0  0  0
  143.4080   80.0767  223.1122 H   0  0  0  0  0  0  0  0  0  0  0  0
  142.2197   81.4238  223.1122 H   0  0  0  0  0  0  0  0  0  0  0  0
  142.8712   78.4278  222.8806 H   0  0  0  0  0  0  0  0  0  0  0  0
  141.5873   77.5183  223.8838 H   0  0  0  0  0  0  0  0  0  0  0  0
  140.0518   78.3943  222.2540 H   0  0  0  0  0  0  0  0  0  0  0  0
  141.5100   75.8490  221.8210 H   0  0  0  0  0  0  0  0  0  0  0  0
  138.3483   74.6968  220.2536 H   0  0  0  0  0  0  0  0  0  0  0  0
  140.1061   74.4251  220.0538 H   0  0  0  0  0  0  0  0  0  0  0  0
  138.9800   74.3910  222.8780 H   0  0  0  0  0  0  0  0  0  0  0  0
  139.0807   70.2465  221.9295 H   0  0  0  0  0  0  0  0  0  0  0  0
  139.1283   68.6094  223.7540 H   0  0  0  0  0  0  0  0  0  0  0  0
  139.6985   68.0953  226.0246 H   0  0  0  0  0  0  0  0  0  0  0  0
  141.5132   71.0854  228.4955 H   0  0  0  0  0  0  0  0  0  0  0  0
  141.4350   72.6924  226.6020 H   0  0  0  0  0  0  0  0  0  0  0  0
  141.0887   80.6813  221.3742 H   0  0  0  0  0  0  0  0  0  0  0  0
  141.9676   81.7309  219.3271 H   0  0  0  0  0  0  0  0  0  0  0  0
  142.9481   80.3632  217.5067 H   0  0  0  0  0  0  0  0  0  0  0  0
  143.0438   77.8700  217.7696 H   0  0  0  0  0  0  0  0  0  0  0  0
  142.1532   76.8324  219.8310 H   0  0  0  0  0  0  0  0  0  0  0  0
  1  2  1  0
  2  3  1  0
  2  4  1  0
  4  5  1  0
  5  6  1  0
  6  7  1  0
  7  8  2  0
  7  9  1  0
  9 10  1  0
 10 11  1  0
 11 12  2  0
 11 13  1  0
 13 14  2  0
 14 15  1  0
 15 16  2  0
 16 17  1  0
 17 18  2  0
 18 19  1  0
 18 20  1  0
 20 21  2  0
 21 22  1  0
 22 23  2  0
  5 24  1  0
 24 25  2  0
 25 26  1  0
 26 27  2  0
 27 28  1  0
 28 29  2  0
 23 13  1  0
 29 24  1  0
 22 16  1  0
  1 30  1  0
  1 31  1  0
  1 32  1  0
  2 33  1  0
  3 34  1  0
  3 35  1  0
  3 36  1  0
  4 37  1  0
  4 38  1  0
  5 39  1  1
  6 40  1  0
  9 41  1  0
  9 42  1  0
 10 43  1  0
 14 44  1  0
 15 45  1  0
 17 46  1  0
 20 47  1  0
 21 48  1  0
 25 49  1  0
 26 50  1  0
 27 51  1  0
 28 52  1  0
 29 53  1  0
M  END
>  <smiles>  (20) 
CC(C)C[C@H](NC(=O)CNC(=O)c1ccc2cc(Cl)ccc2n1)c1ccccc1

>  <score_type>  (20) 
oracle

>  <origin>  (20) 
autodockgpu

>  <m_score__min__energy>  (20) 
-9

>  <m_primary>  (20) 
energy

>  <rmsd>  (20) 
3.9297564493252324

>  <m_score__min__rmsd>  (20) 
3.9297564493252324

>  <meeko>  (20) 
{"free_energy": -8.76, "intermolecular_energy": -10.84, "internal_energy": -1.43, "cluster_size": 16, "cluster_id": 1, "rank_in_cluster": 3}

>  <energy>  (20) 
-8.3

>  <cluster_rmsd>  (20) 
0.79

>  <cluster>  (20) 
2

$$$$

     RDKit          3D

 53 55  0  0  0  0  0  0  0  0999 V2000
  146.1660   73.6770  221.1710 C   0  0  0  0  0  0  0  0  0  0  0  0
  144.9440   73.0860  220.5500 C   0  0  0  0  0  0  0  0  0  0  0  0
  145.4230   71.9800  219.5970 C   0  0  0  0  0  0  0  0  0  0  0  0
  144.0990   73.9990  219.7480 C   0  0  0  0  0  0  0  0  0  0  0  0
  143.0500   74.7770  220.4430 C   0  0  2  0  0  0  0  0  0  0  0  0
  141.8060   74.1320  220.6960 N   0  0  0  0  0  0  0  0  0  0  0  0
  140.9220   73.8760  219.5850 C   0  0  0  0  0  0  0  0  0  0  0  0
  141.2170   74.2030  218.4090 O   0  0  0  0  0  0  0  0  0  0  0  0
  139.6070   73.2020  219.8050 C   0  0  0  0  0  0  0  0  0  0  0  0
  139.7710   72.1960  220.8230 N   0  0  0  0  0  0  0  0  0  0  0  0
  139.7230   72.6420  222.1840 C   0  0  0  0  0  0  0  0  0  0  0  0
  139.5390   73.8930  222.3320 O   0  0  0  0  0  0  0  0  0  0  0  0
  139.8720   71.7460  223.3010 C   0  0  0  0  0  0  0  0  0  0  0  0
  139.4920   70.4330  223.1400 C   0  0  0  0  0  0  0  0  0  0  0  0
  139.5840   69.4860  224.1250 C   0  0  0  0  0  0  0  0  0  0  0  0
  140.0840   69.8680  225.3510 C   0  0  0  0  0  0  0  0  0  0  0  0
  140.1950   68.9590  226.3680 C   0  0  0  0  0  0  0  0  0  0  0  0
  140.6880   69.3170  227.5860 C   0  0  0  0  0  0  0  0  0  0  0  0
  140.8250   68.1380  228.8830 Cl  0  0  0  0  0  0  0  0  0  0  0  0
  141.0790   70.6480  227.7710 C   0  0  0  0  0  0  0  0  0  0  0  0
  140.9650   71.5720  226.7330 C   0  0  0  0  0  0  0  0  0  0  0  0
  140.4640   71.1920  225.5060 C   0  0  0  0  0  0  0  0  0  0  0  0
  140.3570   72.0970  224.5060 N   0  0  0  0  0  0  0  0  0  0  0  0
  142.7720   76.0900  219.7880 C   0  0  0  0  0  0  0  0  0  0  0  0
  143.2370   76.4000  218.5260 C   0  0  0  0  0  0  0  0  0  0  0  0
  142.9570   77.6260  217.9580 C   0  0  0  0  0  0  0  0  0  0  0  0
  142.2100   78.5770  218.6240 C   0  0  0  0  0  0  0  0  0  0  0  0
  141.7320   78.2820  219.8970 C   0  0  0  0  0  0  0  0  0  0  0  0
  142.0220   77.0480  220.4540 C   0  0  0  0  0  0  0  0  0  0  0  0
  146.0778   73.6343  222.2666 H   0  0  0  0  0  0  0  0  0  0  0  0
  147.0514   73.1076  220.8520 H   0  0  0  0  0  0  0  0  0  0  0  0
  146.2693   74.7246  220.8520 H   0  0  0  0  0  0  0  0  0  0  0  0
  144.3144   72.7563  221.3896 H   0  0  0  0  0  0  0  0  0  0  0  0
  145.7930   71.1258  220.1831 H   0  0  0  0  0  0  0  0  0  0  0  0
  144.5853   71.6543  218.9628 H   0  0  0  0  0  0  0  0  0  0  0  0
  146.2337   72.3681  218.9628 H   0  0  0  0  0  0  0  0  0  0  0  0
  144.7710   74.7211  219.2612 H   0  0  0  0  0  0  0  0  0  0  0  0
  143.5405   73.3310  219.0758 H   0  0  0  0  0  0  0  0  0  0  0  0
  143.5225   74.9112  221.4273 H   0  0  0  0  0  0  0  0  0  0  0  0
  141.4470   73.8060  221.6160 H   0  0  0  0  0  0  0  0  0  0  0  0
  138.8614   73.9418  220.1318 H   0  0  0  0  0  0  0  0  0  0  0  0
  139.2616   72.7374  218.8696 H   0  0  0  0  0  0  0  0  0  0  0  0
  139.9200   71.1760  220.6130 H   0  0  0  0  0  0  0  0  0  0  0  0
  139.0909   70.1262  222.1628 H   0  0  0  0  0  0  0  0  0  0  0  0
  139.2673   68.4485  223.9425 H   0  0  0  0  0  0  0  0  0  0  0  0
  139.8799   67.9189  226.1983 H   0  0  0  0  0  0  0  0  0  0  0  0
  141.4799   70.9681  228.7441 H   0  0  0  0  0  0  0  0  0  0  0  0
  141.2778   72.6141  226.8946 H   0  0  0  0  0  0  0  0  0  0  0  0
  143.8353   75.6642  217.9688 H   0  0  0  0  0  0  0  0  0  0  0  0
  143.3379   77.8509  216.9509 H   0  0  0  0  0  0  0  0  0  0  0  0
  141.9967   79.5498  218.1570 H   0  0  0  0  0  0  0  0  0  0  0  0
  141.1326   79.0182  220.4526 H   0  0  0  0  0  0  0  0  0  0  0  0
  141.6439   76.8191  221.4613 H   0  0  0  0  0  0  0  0  0  0  0  0
  1  2  1  0
  2  3  1  0
  2  4  1  0
  4  5  1  0
  5  6  1  0
  6  7  1  0
  7  8  2  0
  7  9  1  0
  9 10  1  0
 10 11  1  0
 11 12  2  0
 11 13  1  0
 13 14  2  0
 14 15  1  0
 15 16  2  0
 16 17  1  0
 17 18  2  0
 18 19  1  0
 18 20  1  0
 20 21  2  0
 21 22  1  0
 22 23  2  0
  5 24  1  0
 24 25  2  0
 25 26  1  0
 26 27  2  0
 27 28  1  0
 28 29  2  0
 23 13  1  0
 29 24  1  0
 22 16  1  0
  1 30  1  0
  1 31  1  0
  1 32  1  0
  2 33  1  0
  3 34  1  0
  3 35  1  0
  3 36  1  0
  4 37  1  0
  4 38  1  0
  5 39  1  1
  6 40  1  0
  9 41  1  0
  9 42  1  0
 10 43  1  0
 14 44  1  0
 15 45  1  0
 17 46  1  0
 20 47  1  0
 21 48  1  0
 25 49  1  0
 26 50  1  0
 27 51  1  0
 28 52  1  0
 29 53  1  0
M  END
>  <smiles>  (21) 
CC(C)C[C@H](NC(=O)CNC(=O)c1ccc2cc(Cl)ccc2n1)c1ccccc1

>  <score_type>  (21) 
oracle

>  <origin>  (21) 
autodockgpu

>  <m_score__min__energy>  (21) 
-9

>  <m_primary>  (21) 
energy

>  <rmsd>  (21) 
3.6756849256998088

>  <m_score__min__rmsd>  (21) 
3.6756849256998088

>  <meeko>  (21) 
{"free_energy": -7.99, "intermolecular_energy": -10.08, "internal_energy": -2.05, "cluster_size": 11, "cluster_id": 4, "rank_in_cluster": 5}

>  <energy>  (21) 
-8.29

>  <cluster_rmsd>  (21) 
0.77

>  <cluster>  (21) 
2

$$$$

     RDKit          3D

 53 55  0  0  0  0  0  0  0  0999 V2000
  139.3730   76.9200  222.3590 C   0  0  0  0  0  0  0  0  0  0  0  0
  140.8570   76.7690  222.3020 C   0  0  0  0  0  0  0  0  0  0  0  0
  141.4550   78.0530  222.8950 C   0  0  0  0  0  0  0  0  0  0  0  0
  141.4560   76.6030  220.9600 C   0  0  0  0  0  0  0  0  0  0  0  0
  141.3640   75.2780  220.3080 C   0  0  2  0  0  0  0  0  0  0  0  0
  140.2700   74.4390  220.6640 N   0  0  0  0  0  0  0  0  0  0  0  0
  138.9450   74.8130  220.2320 C   0  0  0  0  0  0  0  0  0  0  0  0
  138.7310   75.8490  219.5560 O   0  0  0  0  0  0  0  0  0  0  0  0
  137.7680   73.9630  220.5830 C   0  0  0  0  0  0  0  0  0  0  0  0
  138.0320   73.3080  221.8390 N   0  0  0  0  0  0  0  0  0  0  0  0
  138.8220   72.1140  221.7900 C   0  0  0  0  0  0  0  0  0  0  0  0
  139.2020   71.7690  220.6260 O   0  0  0  0  0  0  0  0  0  0  0  0
  139.1630   71.3590  222.9680 C   0  0  0  0  0  0  0  0  0  0  0  0
  138.7660   70.0430  223.0380 C   0  0  0  0  0  0  0  0  0  0  0  0
  139.0290   69.2230  224.1020 C   0  0  0  0  0  0  0  0  0  0  0  0
  139.7310   69.7430  225.1680 C   0  0  0  0  0  0  0  0  0  0  0  0
  140.0180   68.9640  226.2550 C   0  0  0  0  0  0  0  0  0  0  0  0
  140.7110   69.4600  227.3180 C   0  0  0  0  0  0  0  0  0  0  0  0
  141.0720   68.4460  228.7080 Cl  0  0  0  0  0  0  0  0  0  0  0  0
  141.1240   70.7960  227.2680 C   0  0  0  0  0  0  0  0  0  0  0  0
  140.8300   71.5870  226.1580 C   0  0  0  0  0  0  0  0  0  0  0  0
  140.1270   71.0690  225.0910 C   0  0  0  0  0  0  0  0  0  0  0  0
  139.8470   71.8460  224.0200 N   0  0  0  0  0  0  0  0  0  0  0  0
  142.6220   74.4830  220.4310 C   0  0  0  0  0  0  0  0  0  0  0  0
  143.8710   75.0400  220.2450 C   0  0  0  0  0  0  0  0  0  0  0  0
  145.0080   74.2690  220.3680 C   0  0  0  0  0  0  0  0  0  0  0  0
  144.9400   72.9250  220.6790 C   0  0  0  0  0  0  0  0  0  0  0  0
  143.6900   72.3460  220.8710 C   0  0  0  0  0  0  0  0  0  0  0  0
  142.5580   73.1320  220.7440 C   0  0  0  0  0  0  0  0  0  0  0  0
  139.0479   76.9531  223.4093 H   0  0  0  0  0  0  0  0  0  0  0  0
  139.0797   77.8526  221.8548 H   0  0  0  0  0  0  0  0  0  0  0  0
  138.8979   76.0656  221.8548 H   0  0  0  0  0  0  0  0  0  0  0  0
  141.0819   75.8398  222.8460 H   0  0  0  0  0  0  0  0  0  0  0  0
  141.4287   77.9965  223.9932 H   0  0  0  0  0  0  0  0  0  0  0  0
  142.4965   78.1619  222.5583 H   0  0  0  0  0  0  0  0  0  0  0  0
  140.8682   78.9203  222.5583 H   0  0  0  0  0  0  0  0  0  0  0  0
  140.9666   77.3283  220.2933 H   0  0  0  0  0  0  0  0  0  0  0  0
  142.5337   76.7494  221.1247 H   0  0  0  0  0  0  0  0  0  0  0  0
  141.1804   75.5825  219.2670 H   0  0  0  0  0  0  0  0  0  0  0  0
  140.3120   73.5560  221.2110 H   0  0  0  0  0  0  0  0  0  0  0  0
  136.8706   74.5924  220.6748 H   0  0  0  0  0  0  0  0  0  0  0  0
  137.5983   73.2129  219.7965 H   0  0  0  0  0  0  0  0  0  0  0  0
  137.6780   73.6630  222.7640 H   0  0  0  0  0  0  0  0  0  0  0  0
  138.2045   69.6257  222.1891 H   0  0  0  0  0  0  0  0  0  0  0  0
  138.6891   68.1768  224.1061 H   0  0  0  0  0  0  0  0  0  0  0  0
  139.6827   67.9165  226.2713 H   0  0  0  0  0  0  0  0  0  0  0  0
  141.6850   71.2256  228.1110 H   0  0  0  0  0  0  0  0  0  0  0  0
  141.1624   72.6353  226.1333 H   0  0  0  0  0  0  0  0  0  0  0  0
  143.9604   76.1078  219.9966 H   0  0  0  0  0  0  0  0  0  0  0  0
  145.9923   74.7355  220.2148 H   0  0  0  0  0  0  0  0  0  0  0  0
  145.8566   72.3242  220.7730 H   0  0  0  0  0  0  0  0  0  0  0  0
  143.6024   71.2782  221.1203 H   0  0  0  0  0  0  0  0  0  0  0  0
  141.5717   72.6694  220.8966 H   0  0  0  0  0  0  0  0  0  0  0  0
  1  2  1  0
  2  3  1  0
  2  4  1  0
  4  5  1  0
  5  6  1  0
  6  7  1  0
  7  8  2  0
  7  9  1  0
  9 10  1  0
 10 11  1  0
 11 12  2  0
 11 13  1  0
 13 14  2  0
 14 15  1  0
 15 16  2  0
 16 17  1  0
 17 18  2  0
 18 19  1  0
 18 20  1  0
 20 21  2  0
 21 22  1  0
 22 23  2  0
  5 24  1  0
 24 25  2  0
 25 26  1  0
 26 27  2  0
 27 28  1  0
 28 29  2  0
 23 13  1  0
 29 24  1  0
 22 16  1  0
  1 30  1  0
  1 31  1  0
  1 32  1  0
  2 33  1  0
  3 34  1  0
  3 35  1  0
  3 36  1  0
  4 37  1  0
  4 38  1  0
  5 39  1  6
  6 40  1  0
  9 41  1  0
  9 42  1  0
 10 43  1  0
 14 44  1  0
 15 45  1  0
 17 46  1  0
 20 47  1  0
 21 48  1  0
 25 49  1  0
 26 50  1  0
 27 51  1  0
 28 52  1  0
 29 53  1  0
M  END
>  <smiles>  (22) 
CC(C)C[C@H](NC(=O)CNC(=O)c1ccc2cc(Cl)ccc2n1)c1ccccc1

>  <score_type>  (22) 
oracle

>  <origin>  (22) 
autodockgpu

>  <m_score__min__energy>  (22) 
-9

>  <m_primary>  (22) 
energy

>  <rmsd>  (22) 
2.600221503172465

>  <m_score__min__rmsd>  (22) 
2.600221503172465

>  <meeko>  (22) 
{"free_energy": -7.55, "intermolecular_energy": -9.64, "internal_energy": -2.33, "cluster_size": 5, "cluster_id": 5, "rank_in_cluster": 5}

>  <energy>  (22) 
-8.22

>  <cluster_rmsd>  (22) 
0.95

>  <cluster>  (22) 
2

$$$$

     RDKit          3D

 53 55  0  0  0  0  0  0  0  0999 V2000
  140.4590   80.7880  219.1160 C   0  0  0  0  0  0  0  0  0  0  0  0
  141.8040   80.1550  219.2430 C   0  0  0  0  0  0  0  0  0  0  0  0
  142.6040   80.5640  217.9960 C   0  0  0  0  0  0  0  0  0  0  0  0
  141.8390   78.6780  219.3030 C   0  0  0  0  0  0  0  0  0  0  0  0
  141.5150   78.0190  220.5870 C   0  0  2  0  0  0  0  0  0  0  0  0
  140.3550   77.1950  220.6340 N   0  0  0  0  0  0  0  0  0  0  0  0
  140.5110   75.8010  220.9680 C   0  0  0  0  0  0  0  0  0  0  0  0
  141.6350   75.2960  221.2160 O   0  0  0  0  0  0  0  0  0  0  0  0
  139.3220   74.9000  221.0280 C   0  0  0  0  0  0  0  0  0  0  0  0
  139.4070   74.1060  222.2280 N   0  0  0  0  0  0  0  0  0  0  0  0
  139.7710   72.7300  222.0660 C   0  0  0  0  0  0  0  0  0  0  0  0
  139.9780   72.3670  220.8640 O   0  0  0  0  0  0  0  0  0  0  0  0
  139.8950   71.8230  223.1780 C   0  0  0  0  0  0  0  0  0  0  0  0
  139.4860   70.5200  223.0060 C   0  0  0  0  0  0  0  0  0  0  0  0
  139.5520   69.5640  223.9850 C   0  0  0  0  0  0  0  0  0  0  0  0
  140.0570   69.9260  225.2150 C   0  0  0  0  0  0  0  0  0  0  0  0
  140.1440   69.0080  226.2250 C   0  0  0  0  0  0  0  0  0  0  0  0
  140.6400   69.3460  227.4480 C   0  0  0  0  0  0  0  0  0  0  0  0
  140.7450   68.1550  228.7370 Cl  0  0  0  0  0  0  0  0  0  0  0  0
  141.0610   70.6660  227.6440 C   0  0  0  0  0  0  0  0  0  0  0  0
  140.9720   71.6000  226.6120 C   0  0  0  0  0  0  0  0  0  0  0  0
  140.4660   71.2400  225.3810 C   0  0  0  0  0  0  0  0  0  0  0  0
  140.3840   72.1540  224.3870 N   0  0  0  0  0  0  0  0  0  0  0  0
  141.4570   78.9760  221.7310 C   0  0  0  0  0  0  0  0  0  0  0  0
  142.5910   79.4540  222.3560 C   0  0  0  0  0  0  0  0  0  0  0  0
  142.4910   80.3380  223.4100 C   0  0  0  0  0  0  0  0  0  0  0  0
  141.2650   80.7730  223.8750 C   0  0  0  0  0  0  0  0  0  0  0  0
  140.1110   80.3030  223.2580 C   0  0  0  0  0  0  0  0  0  0  0  0
  140.2270   79.4160  222.2010 C   0  0  0  0  0  0  0  0  0  0  0  0
  140.0486   80.9812  220.1181 H   0  0  0  0  0  0  0  0  0  0  0  0
  140.5508   81.7374  218.5681 H   0  0  0  0  0  0  0  0  0  0  0  0
  139.7859   80.1121  218.5681 H   0  0  0  0  0  0  0  0  0  0  0  0
  142.2061   80.5022  220.2062 H   0  0  0  0  0  0  0  0  0  0  0  0
  143.5440   81.0446  218.3048 H   0  0  0  0  0  0  0  0  0  0  0  0
  142.8291   79.6704  217.3954 H   0  0  0  0  0  0  0  0  0  0  0  0
  142.0114   81.2698  217.3954 H   0  0  0  0  0  0  0  0  0  0  0  0
  141.1229   78.3050  218.5560 H   0  0  0  0  0  0  0  0  0  0  0  0
  142.8950   78.4249  219.1276 H   0  0  0  0  0  0  0  0  0  0  0  0
  142.3708   77.3341  220.6795 H   0  0  0  0  0  0  0  0  0  0  0  0
  139.3730   77.4890  220.4570 H   0  0  0  0  0  0  0  0  0  0  0  0
  138.4015   75.5019  221.0463 H   0  0  0  0  0  0  0  0  0  0  0  0
  139.3018   74.2450  220.1445 H   0  0  0  0  0  0  0  0  0  0  0  0
  139.2200   74.4870  223.1910 H   0  0  0  0  0  0  0  0  0  0  0  0
  139.0824   70.2293  222.0249 H   0  0  0  0  0  0  0  0  0  0  0  0
  139.2112   68.5356  223.7945 H   0  0  0  0  0  0  0  0  0  0  0  0
  139.8068   67.9763  226.0463 H   0  0  0  0  0  0  0  0  0  0  0  0
  141.4658   70.9697  228.6207 H   0  0  0  0  0  0  0  0  0  0  0  0
  141.3086   72.6334  226.7818 H   0  0  0  0  0  0  0  0  0  0  0  0
  143.5829   79.1272  222.0106 H   0  0  0  0  0  0  0  0  0  0  0  0
  143.4091   80.7053  223.8917 H   0  0  0  0  0  0  0  0  0  0  0  0
  141.2029   81.4778  224.7173 H   0  0  0  0  0  0  0  0  0  0  0  0
  139.1199   80.6311  223.6046 H   0  0  0  0  0  0  0  0  0  0  0  0
  139.3113   79.0466  221.7161 H   0  0  0  0  0  0  0  0  0  0  0  0
  1  2  1  0
  2  3  1  0
  2  4  1  0
  4  5  1  0
  5  6  1  0
  6  7  1  0
  7  8  2  0
  7  9  1  0
  9 10  1  0
 10 11  1  0
 11 12  2  0
 11 13  1  0
 13 14  2  0
 14 15  1  0
 15 16  2  0
 16 17  1  0
 17 18  2  0
 18 19  1  0
 18 20  1  0
 20 21  2  0
 21 22  1  0
 22 23  2  0
  5 24  1  0
 24 25  2  0
 25 26  1  0
 26 27  2  0
 27 28  1  0
 28 29  2  0
 23 13  1  0
 29 24  1  0
 22 16  1  0
  1 30  1  0
  1 31  1  0
  1 32  1  0
  2 33  1  0
  3 34  1  0
  3 35  1  0
  3 36  1  0
  4 37  1  0
  4 38  1  0
  5 39  1  1
  6 40  1  0
  9 41  1  0
  9 42  1  0
 10 43  1  0
 14 44  1  0
 15 45  1  0
 17 46  1  0
 20 47  1  0
 21 48  1  0
 25 49  1  0
 26 50  1  0
 27 51  1  0
 28 52  1  0
 29 53  1  0
M  END
>  <smiles>  (23) 
CC(C)C[C@H](NC(=O)CNC(=O)c1ccc2cc(Cl)ccc2n1)c1ccccc1

>  <score_type>  (23) 
oracle

>  <origin>  (23) 
autodockgpu

>  <m_score__min__energy>  (23) 
-9

>  <m_primary>  (23) 
energy

>  <rmsd>  (23) 
2.826208272813598

>  <m_score__min__rmsd>  (23) 
2.826208272813598

>  <meeko>  (23) 
{"free_energy": -8.46, "intermolecular_energy": -10.55, "internal_energy": -1.44, "cluster_size": 16, "cluster_id": 1, "rank_in_cluster": 5}

>  <energy>  (23) 
-7.95

>  <cluster_rmsd>  (23) 
1.3

>  <cluster>  (23) 
2

$$$$

     RDKit          3D

 53 55  0  0  0  0  0  0  0  0999 V2000
  141.1880   78.9790  221.1910 C   0  0  0  0  0  0  0  0  0  0  0  0
  140.8160   78.4690  222.5430 C   0  0  0  0  0  0  0  0  0  0  0  0
  141.8090   79.0880  223.5380 C   0  0  0  0  0  0  0  0  0  0  0  0
  140.8770   77.0040  222.7390 C   0  0  0  0  0  0  0  0  0  0  0  0
  140.4480   76.1270  221.6270 C   0  0  2  0  0  0  0  0  0  0  0  0
  139.4120   75.1870  221.8870 N   0  0  0  0  0  0  0  0  0  0  0  0
  138.4770   74.8790  220.8340 C   0  0  0  0  0  0  0  0  0  0  0  0
  138.5510   75.4140  219.6990 O   0  0  0  0  0  0  0  0  0  0  0  0
  137.3740   73.8980  221.0630 C   0  0  0  0  0  0  0  0  0  0  0  0
  137.6530   73.1690  222.2740 N   0  0  0  0  0  0  0  0  0  0  0  0
  138.6360   72.1300  222.1900 C   0  0  0  0  0  0  0  0  0  0  0  0
  139.1540   71.9730  221.0380 O   0  0  0  0  0  0  0  0  0  0  0  0
  139.0130   71.3230  223.3210 C   0  0  0  0  0  0  0  0  0  0  0  0
  138.6300   70.0020  223.3380 C   0  0  0  0  0  0  0  0  0  0  0  0
  138.9270   69.1340  224.3540 C   0  0  0  0  0  0  0  0  0  0  0  0
  139.6510   69.6090  225.4260 C   0  0  0  0  0  0  0  0  0  0  0  0
  139.9720   68.7820  226.4670 C   0  0  0  0  0  0  0  0  0  0  0  0
  140.6880   69.2330  227.5350 C   0  0  0  0  0  0  0  0  0  0  0  0
  141.0930   68.1580  228.8650 Cl  0  0  0  0  0  0  0  0  0  0  0  0
  141.0870   70.5740  227.5390 C   0  0  0  0  0  0  0  0  0  0  0  0
  140.7580   71.4150  226.4760 C   0  0  0  0  0  0  0  0  0  0  0  0
  140.0330   70.9410  225.4030 C   0  0  0  0  0  0  0  0  0  0  0  0
  139.7190   71.7660  224.3780 N   0  0  0  0  0  0  0  0  0  0  0  0
  141.5860   75.4050  220.9860 C   0  0  0  0  0  0  0  0  0  0  0  0
  141.8010   74.0530  221.1660 C   0  0  0  0  0  0  0  0  0  0  0  0
  142.8660   73.4250  220.5540 C   0  0  0  0  0  0  0  0  0  0  0  0
  143.7480   74.1170  219.7480 C   0  0  0  0  0  0  0  0  0  0  0  0
  143.5480   75.4800  219.5540 C   0  0  0  0  0  0  0  0  0  0  0  0
  142.4750   76.0970  220.1750 C   0  0  0  0  0  0  0  0  0  0  0  0
  141.8332   79.8635  221.2975 H   0  0  0  0  0  0  0  0  0  0  0  0
  141.7281   78.1954  220.6394 H   0  0  0  0  0  0  0  0  0  0  0  0
  140.2769   79.2540  220.6394 H   0  0  0  0  0  0  0  0  0  0  0  0
  139.7608   78.7455  222.6847 H   0  0  0  0  0  0  0  0  0  0  0  0
  141.4759   78.8804  224.5656 H   0  0  0  0  0  0  0  0  0  0  0  0
  142.8062   78.6513  223.3805 H   0  0  0  0  0  0  0  0  0  0  0  0
  141.8560   80.1756  223.3805 H   0  0  0  0  0  0  0  0  0  0  0  0
  141.9222   76.7499  222.9690 H   0  0  0  0  0  0  0  0  0  0  0  0
  140.1454   76.8071  223.5365 H   0  0  0  0  0  0  0  0  0  0  0  0
  140.0103   76.8717  220.9459 H   0  0  0  0  0  0  0  0  0  0  0  0
  139.2450   74.6710  222.7760 H   0  0  0  0  0  0  0  0  0  0  0  0
  136.4177   74.4321  221.1637 H   0  0  0  0  0  0  0  0  0  0  0  0
  137.3056   73.2034  220.2128 H   0  0  0  0  0  0  0  0  0  0  0  0
  137.1770   73.3640  223.1920 H   0  0  0  0  0  0  0  0  0  0  0  0
  138.0506   69.6204  222.4844 H   0  0  0  0  0  0  0  0  0  0  0  0
  138.5966   68.0855  224.3157 H   0  0  0  0  0  0  0  0  0  0  0  0
  139.6456   67.7318  226.4415 H   0  0  0  0  0  0  0  0  0  0  0  0
  141.6651   70.9684  228.3877 H   0  0  0  0  0  0  0  0  0  0  0  0
  141.0800   72.4667  226.4938 H   0  0  0  0  0  0  0  0  0  0  0  0
  141.1175   73.4719  221.8026 H   0  0  0  0  0  0  0  0  0  0  0  0
  143.0162   72.3468  220.7120 H   0  0  0  0  0  0  0  0  0  0  0  0
  144.5926   73.6005  219.2685 H   0  0  0  0  0  0  0  0  0  0  0  0
  144.2323   76.0592  218.9166 H   0  0  0  0  0  0  0  0  0  0  0  0
  142.3215   77.1751  220.0199 H   0  0  0  0  0  0  0  0  0  0  0  0
  1  2  1  0
  2  3  1  0
  2  4  1  0
  4  5  1  0
  5  6  1  0
  6  7  1  0
  7  8  2  0
  7  9  1  0
  9 10  1  0
 10 11  1  0
 11 12  2  0
 11 13  1  0
 13 14  2  0
 14 15  1  0
 15 16  2  0
 16 17  1  0
 17 18  2  0
 18 19  1  0
 18 20  1  0
 20 21  2  0
 21 22  1  0
 22 23  2  0
  5 24  1  0
 24 25  2  0
 25 26  1  0
 26 27  2  0
 27 28  1  0
 28 29  2  0
 23 13  1  0
 29 24  1  0
 22 16  1  0
  1 30  1  0
  1 31  1  0
  1 32  1  0
  2 33  1  0
  3 34  1  0
  3 35  1  0
  3 36  1  0
  4 37  1  0
  4 38  1  0
  5 39  1  6
  6 40  1  0
  9 41  1  0
  9 42  1  0
 10 43  1  0
 14 44  1  0
 15 45  1  0
 17 46  1  0
 20 47  1  0
 21 48  1  0
 25 49  1  0
 26 50  1  0
 27 51  1  0
 28 52  1  0
 29 53  1  0
M  END
>  <smiles>  (24) 
CC(C)C[C@H](NC(=O)CNC(=O)c1ccc2cc(Cl)ccc2n1)c1ccccc1

>  <score_type>  (24) 
oracle

>  <origin>  (24) 
autodockgpu

>  <m_score__min__energy>  (24) 
-9

>  <m_primary>  (24) 
energy

>  <rmsd>  (24) 
3.1097805672858017

>  <m_score__min__rmsd>  (24) 
3.1097805672858017

>  <meeko>  (24) 
{"free_energy": -8.12, "intermolecular_energy": -10.21, "internal_energy": -1.91, "cluster_size": 16, "cluster_id": 1, "rank_in_cluster": 13}

>  <energy>  (24) 
-8.49

>  <cluster_rmsd>  (24) 
0.0

>  <cluster>  (24) 
3

$$$$

     RDKit          3D

 53 55  0  0  0  0  0  0  0  0999 V2000
  137.8490   69.2540  221.4530 C   0  0  0  0  0  0  0  0  0  0  0  0
  139.0950   68.8020  222.1380 C   0  0  0  0  0  0  0  0  0  0  0  0
  138.8250   67.3800  222.6530 C   0  0  0  0  0  0  0  0  0  0  0  0
  139.5380   69.5980  223.3040 C   0  0  0  0  0  0  0  0  0  0  0  0
  139.1720   69.1250  224.6570 C   0  0  2  0  0  0  0  0  0  0  0  0
  137.7890   68.9630  224.9500 N   0  0  0  0  0  0  0  0  0  0  0  0
  136.8930   70.0610  224.6810 C   0  0  0  0  0  0  0  0  0  0  0  0
  137.2960   71.1480  224.1980 O   0  0  0  0  0  0  0  0  0  0  0  0
  135.4340   69.9350  224.9740 C   0  0  0  0  0  0  0  0  0  0  0  0
  134.9100   71.2450  225.2680 N   0  0  0  0  0  0  0  0  0  0  0  0
  133.9180   71.3260  226.2990 C   0  0  0  0  0  0  0  0  0  0  0  0
  133.6140   70.2150  226.8390 O   0  0  0  0  0  0  0  0  0  0  0  0
  133.3100   72.5700  226.6960 C   0  0  0  0  0  0  0  0  0  0  0  0
  132.0750   72.5290  227.3020 C   0  0  0  0  0  0  0  0  0  0  0  0
  131.3960   73.6400  227.7240 C   0  0  0  0  0  0  0  0  0  0  0  0
  131.9800   74.8730  227.5310 C   0  0  0  0  0  0  0  0  0  0  0  0
  131.3410   76.0130  227.9360 C   0  0  0  0  0  0  0  0  0  0  0  0
  131.9020   77.2410  227.7540 C   0  0  0  0  0  0  0  0  0  0  0  0
  131.0680   78.6970  228.2790 Cl  0  0  0  0  0  0  0  0  0  0  0  0
  133.1570   77.3060  227.1400 C   0  0  0  0  0  0  0  0  0  0  0  0
  133.8070   76.1420  226.7290 C   0  0  0  0  0  0  0  0  0  0  0  0
  133.2230   74.9070  226.9200 C   0  0  0  0  0  0  0  0  0  0  0  0
  133.8620   73.7840  226.5180 N   0  0  0  0  0  0  0  0  0  0  0  0
  139.7890   69.9420  225.7430 C   0  0  0  0  0  0  0  0  0  0  0  0
  140.5010   71.0960  225.4880 C   0  0  0  0  0  0  0  0  0  0  0  0
  141.0550   71.8230  226.5220 C   0  0  0  0  0  0  0  0  0  0  0  0
  140.9190   71.4250  227.8370 C   0  0  0  0  0  0  0  0  0  0  0  0
  140.2040   70.2650  228.1150 C   0  0  0  0  0  0  0  0  0  0  0  0
  139.6540   69.5470  227.0670 C   0  0  0  0  0  0  0  0  0  0  0  0
  137.0952   69.5274  222.2060 H   0  0  0  0  0  0  0  0  0  0  0  0
  138.0729   70.1282  220.8240 H   0  0  0  0  0  0  0  0  0  0  0  0
  137.4603   68.4396  220.8240 H   0  0  0  0  0  0  0  0  0  0  0  0
  139.8961   68.8974  221.3902 H   0  0  0  0  0  0  0  0  0  0  0  0
  138.8254   67.3822  223.7530 H   0  0  0  0  0  0  0  0  0  0  0  0
  137.8457   67.0374  222.2874 H   0  0  0  0  0  0  0  0  0  0  0  0
  139.6105   66.7023  222.2874 H   0  0  0  0  0  0  0  0  0  0  0  0
  140.6360   69.6510  223.2637 H   0  0  0  0  0  0  0  0  0  0  0  0
  139.0048   70.5542  223.1977 H   0  0  0  0  0  0  0  0  0  0  0  0
  139.5918   68.1086  224.6315 H   0  0  0  0  0  0  0  0  0  0  0  0
  137.3280   68.1170  225.3430 H   0  0  0  0  0  0  0  0  0  0  0  0
  134.9151   69.5159  224.0993 H   0  0  0  0  0  0  0  0  0  0  0  0
  135.2794   69.2664  225.8337 H   0  0  0  0  0  0  0  0  0  0  0  0
  135.2190   72.1190  224.7710 H   0  0  0  0  0  0  0  0  0  0  0  0
  131.6062   71.5459  227.4562 H   0  0  0  0  0  0  0  0  0  0  0  0
  130.4104   73.5509  228.2044 H   0  0  0  0  0  0  0  0  0  0  0  0
  130.3552   75.9365  228.4179 H   0  0  0  0  0  0  0  0  0  0  0  0
  133.6356   78.2834  226.9798 H   0  0  0  0  0  0  0  0  0  0  0  0
  134.7941   76.2097  226.2483 H   0  0  0  0  0  0  0  0  0  0  0  0
  140.6283   71.4398  224.4509 H   0  0  0  0  0  0  0  0  0  0  0  0
  141.6175   72.7402  226.2933 H   0  0  0  0  0  0  0  0  0  0  0  0
  141.3680   72.0146  228.6499 H   0  0  0  0  0  0  0  0  0  0  0  0
  140.0773   69.9229  229.1528 H   0  0  0  0  0  0  0  0  0  0  0  0
  139.0894   68.6300  227.2915 H   0  0  0  0  0  0  0  0  0  0  0  0
  1  2  1  0
  2  3  1  0
  2  4  1  0
  4  5  1  0
  5  6  1  0
  6  7  1  0
  7  8  2  0
  7  9  1  0
  9 10  1  0
 10 11  1  0
 11 12  2  0
 11 13  1  0
 13 14  2  0
 14 15  1  0
 15 16  2  0
 16 17  1  0
 17 18  2  0
 18 19  1  0
 18 20  1  0
 20 21  2  0
 21 22  1  0
 22 23  2  0
  5 24  1  0
 24 25  2  0
 25 26  1  0
 26 27  2  0
 27 28  1  0
 28 29  2  0
 23 13  1  0
 29 24  1  0
 22 16  1  0
  1 30  1  0
  1 31  1  0
  1 32  1  0
  2 33  1  0
  3 34  1  0
  3 35  1  0
  3 36  1  0
  4 37  1  0
  4 38  1  0
  5 39  1  1
  6 40  1  0
  9 41  1  0
  9 42  1  0
 10 43  1  0
 14 44  1  0
 15 45  1  0
 17 46  1  0
 20 47  1  0
 21 48  1  0
 25 49  1  0
 26 50  1  0
 27 51  1  0
 28 52  1  0
 29 53  1  0
M  END
>  <smiles>  (25) 
CC(C)C[C@H](NC(=O)CNC(=O)c1ccc2cc(Cl)ccc2n1)c1ccccc1

>  <score_type>  (25) 
oracle

>  <origin>  (25) 
autodockgpu

>  <m_score__min__energy>  (25) 
-9

>  <m_primary>  (25) 
energy

>  <rmsd>  (25) 
8.548517336610105

>  <m_score__min__rmsd>  (25) 
8.548517336610105

>  <meeko>  (25) 
{"free_energy": -8.02, "intermolecular_energy": -10.11, "internal_energy": -1.91, "cluster_size": 6, "cluster_id": 3, "rank_in_cluster": 3}

>  <energy>  (25) 
-8.18

>  <cluster_rmsd>  (25) 
1.88

>  <cluster>  (25) 
3

$$$$

     RDKit          3D

 53 55  0  0  0  0  0  0  0  0999 V2000
  141.7520   77.1380  216.8970 C   0  0  0  0  0  0  0  0  0  0  0  0
  142.7300   77.5670  217.9380 C   0  0  0  0  0  0  0  0  0  0  0  0
  143.2850   76.2850  218.5780 C   0  0  0  0  0  0  0  0  0  0  0  0
  142.2030   78.3980  219.0430 C   0  0  0  0  0  0  0  0  0  0  0  0
  141.7450   77.7190  220.2760 C   0  0  2  0  0  0  0  0  0  0  0  0
  140.6020   76.8760  220.1820 N   0  0  0  0  0  0  0  0  0  0  0  0
  140.5090   75.7380  221.0630 C   0  0  0  0  0  0  0  0  0  0  0  0
  141.4020   75.4720  221.9060 O   0  0  0  0  0  0  0  0  0  0  0  0
  139.3270   74.8270  220.9990 C   0  0  0  0  0  0  0  0  0  0  0  0
  139.3070   74.0170  222.1900 N   0  0  0  0  0  0  0  0  0  0  0  0
  139.9850   72.7570  222.1250 C   0  0  0  0  0  0  0  0  0  0  0  0
  140.5320   72.4990  221.0050 O   0  0  0  0  0  0  0  0  0  0  0  0
  140.0450   71.8470  223.2400 C   0  0  0  0  0  0  0  0  0  0  0  0
  139.5730   70.5670  223.0650 C   0  0  0  0  0  0  0  0  0  0  0  0
  139.5760   69.6120  224.0460 C   0  0  0  0  0  0  0  0  0  0  0  0
  140.0790   69.9510  225.2830 C   0  0  0  0  0  0  0  0  0  0  0  0
  140.1040   69.0320  226.2970 C   0  0  0  0  0  0  0  0  0  0  0  0
  140.5980   69.3480  227.5270 C   0  0  0  0  0  0  0  0  0  0  0  0
  140.6230   68.1570  228.8190 Cl  0  0  0  0  0  0  0  0  0  0  0  0
  141.0830   70.6450  227.7260 C   0  0  0  0  0  0  0  0  0  0  0  0
  141.0570   71.5790  226.6910 C   0  0  0  0  0  0  0  0  0  0  0  0
  140.5530   71.2420  225.4530 C   0  0  0  0  0  0  0  0  0  0  0  0
  140.5330   72.1560  224.4560 N   0  0  0  0  0  0  0  0  0  0  0  0
  141.5400   78.6620  221.4140 C   0  0  0  0  0  0  0  0  0  0  0  0
  141.4130   78.2320  222.7190 C   0  0  0  0  0  0  0  0  0  0  0  0
  141.2240   79.1380  223.7420 C   0  0  0  0  0  0  0  0  0  0  0  0
  141.1550   80.4960  223.5000 C   0  0  0  0  0  0  0  0  0  0  0  0
  141.2810   80.9500  222.1910 C   0  0  0  0  0  0  0  0  0  0  0  0
  141.4700   80.0280  221.1750 C   0  0  0  0  0  0  0  0  0  0  0  0
  140.8486   76.7417  217.3837 H   0  0  0  0  0  0  0  0  0  0  0  0
  141.4822   78.0004  216.2697 H   0  0  0  0  0  0  0  0  0  0  0  0
  142.2038   76.3554  216.2697 H   0  0  0  0  0  0  0  0  0  0  0  0
  143.4629   78.1981  217.4140 H   0  0  0  0  0  0  0  0  0  0  0  0
  143.2458   76.3755  219.6736 H   0  0  0  0  0  0  0  0  0  0  0  0
  142.6790   75.4241  218.2593 H   0  0  0  0  0  0  0  0  0  0  0  0
  144.3275   76.1377  218.2593 H   0  0  0  0  0  0  0  0  0  0  0  0
  143.0010   79.0971  219.3336 H   0  0  0  0  0  0  0  0  0  0  0  0
  141.2908   78.8525  218.6291 H   0  0  0  0  0  0  0  0  0  0  0  0
  142.5960   77.0467  220.4599 H   0  0  0  0  0  0  0  0  0  0  0  0
  139.7940   76.9890  219.5360 H   0  0  0  0  0  0  0  0  0  0  0  0
  138.4035   75.4216  220.9395 H   0  0  0  0  0  0  0  0  0  0  0  0
  139.3948   74.1848  220.1085 H   0  0  0  0  0  0  0  0  0  0  0  0
  138.8280   74.3060  223.0810 H   0  0  0  0  0  0  0  0  0  0  0  0
  139.1693   70.2946  222.0787 H   0  0  0  0  0  0  0  0  0  0  0  0
  139.1874   68.6014  223.8518 H   0  0  0  0  0  0  0  0  0  0  0  0
  139.7177   68.0182  226.1154 H   0  0  0  0  0  0  0  0  0  0  0  0
  141.4885   70.9306  228.7078 H   0  0  0  0  0  0  0  0  0  0  0  0
  141.4424   72.5946  226.8641 H   0  0  0  0  0  0  0  0  0  0  0  0
  141.4629   77.1568  222.9457 H   0  0  0  0  0  0  0  0  0  0  0  0
  141.1260   78.7704  224.7741 H   0  0  0  0  0  0  0  0  0  0  0  0
  141.0032   81.2054  224.3269 H   0  0  0  0  0  0  0  0  0  0  0  0
  141.2312   82.0256  221.9662 H   0  0  0  0  0  0  0  0  0  0  0  0
  141.5682   80.3910  220.1413 H   0  0  0  0  0  0  0  0  0  0  0  0
  1  2  1  0
  2  3  1  0
  2  4  1  0
  4  5  1  0
  5  6  1  0
  6  7  1  0
  7  8  2  0
  7  9  1  0
  9 10  1  0
 10 11  1  0
 11 12  2  0
 11 13  1  0
 13 14  2  0
 14 15  1  0
 15 16  2  0
 16 17  1  0
 17 18  2  0
 18 19  1  0
 18 20  1  0
 20 21  2  0
 21 22  1  0
 22 23  2  0
  5 24  1  0
 24 25  2  0
 25 26  1  0
 26 27  2  0
 27 28  1  0
 28 29  2  0
 23 13  1  0
 29 24  1  0
 22 16  1  0
  1 30  1  0
  1 31  1  0
  1 32  1  0
  2 33  1  0
  3 34  1  0
  3 35  1  0
  3 36  1  0
  4 37  1  0
  4 38  1  0
  5 39  1  1
  6 40  1  0
  9 41  1  0
  9 42  1  0
 10 43  1  0
 14 44  1  0
 15 45  1  0
 17 46  1  0
 20 47  1  0
 21 48  1  0
 25 49  1  0
 26 50  1  0
 27 51  1  0
 28 52  1  0
 29 53  1  0
M  END
>  <smiles>  (26) 
CC(C)C[C@H](NC(=O)CNC(=O)c1ccc2cc(Cl)ccc2n1)c1ccccc1

>  <score_type>  (26) 
oracle

>  <origin>  (26) 
autodockgpu

>  <m_score__min__energy>  (26) 
-9

>  <m_primary>  (26) 
energy

>  <rmsd>  (26) 
2.033229924751157

>  <m_score__min__rmsd>  (26) 
2.033229924751157

>  <meeko>  (26) 
{"free_energy": -8.55, "intermolecular_energy": -10.64, "internal_energy": -1.41, "cluster_size": 7, "cluster_id": 2, "rank_in_cluster": 3}

>  <energy>  (26) 
-8.02

>  <cluster_rmsd>  (26) 
1.71

>  <cluster>  (26) 
3

$$$$

     RDKit          3D

 53 55  0  0  0  0  0  0  0  0999 V2000
  140.7000   71.4960  224.8100 C   0  0  0  0  0  0  0  0  0  0  0  0
  139.7190   71.0490  223.7770 C   0  0  0  0  0  0  0  0  0  0  0  0
  139.7200   72.1180  222.6740 C   0  0  0  0  0  0  0  0  0  0  0  0
  138.3150   70.8960  224.2180 C   0  0  0  0  0  0  0  0  0  0  0  0
  137.8790   69.5780  224.7290 C   0  0  2  0  0  0  0  0  0  0  0  0
  136.5680   69.4820  225.2770 N   0  0  0  0  0  0  0  0  0  0  0  0
  135.5230   68.9020  224.4700 C   0  0  0  0  0  0  0  0  0  0  0  0
  135.7350   68.4820  223.3050 O   0  0  0  0  0  0  0  0  0  0  0  0
  134.1340   68.7810  225.0040 C   0  0  0  0  0  0  0  0  0  0  0  0
  133.5810   70.1040  225.1490 N   0  0  0  0  0  0  0  0  0  0  0  0
  133.7520   70.7380  226.4220 C   0  0  0  0  0  0  0  0  0  0  0  0
  134.3810   70.0470  227.2860 O   0  0  0  0  0  0  0  0  0  0  0  0
  133.2510   72.0580  226.7060 C   0  0  0  0  0  0  0  0  0  0  0  0
  132.0300   72.1730  227.3300 C   0  0  0  0  0  0  0  0  0  0  0  0
  131.4480   73.3700  227.6540 C   0  0  0  0  0  0  0  0  0  0  0  0
  132.1220   74.5290  227.3350 C   0  0  0  0  0  0  0  0  0  0  0  0
  131.5830   75.7490  227.6370 C   0  0  0  0  0  0  0  0  0  0  0  0
  132.2340   76.9060  227.3300 C   0  0  0  0  0  0  0  0  0  0  0  0
  131.5280   78.4670  227.7250 Cl  0  0  0  0  0  0  0  0  0  0  0  0
  133.4780   76.8120  226.6950 C   0  0  0  0  0  0  0  0  0  0  0  0
  134.0250   75.5660  226.3890 C   0  0  0  0  0  0  0  0  0  0  0  0
  133.3510   74.4050  226.7060 C   0  0  0  0  0  0  0  0  0  0  0  0
  133.8920   73.2020  226.4050 N   0  0  0  0  0  0  0  0  0  0  0  0
  138.8400   68.9890  225.7080 C   0  0  0  0  0  0  0  0  0  0  0  0
  139.4930   67.7960  225.4780 C   0  0  0  0  0  0  0  0  0  0  0  0
  140.3740   67.2870  226.4090 C   0  0  0  0  0  0  0  0  0  0  0  0
  140.6320   67.9460  227.5950 C   0  0  0  0  0  0  0  0  0  0  0  0
  139.9830   69.1510  227.8460 C   0  0  0  0  0  0  0  0  0  0  0  0
  139.1020   69.6490  226.9010 C   0  0  0  0  0  0  0  0  0  0  0  0
  140.2880   71.3083  225.8125 H   0  0  0  0  0  0  0  0  0  0  0  0
  141.6398   70.9372  224.6893 H   0  0  0  0  0  0  0  0  0  0  0  0
  140.8950   72.5718  224.6893 H   0  0  0  0  0  0  0  0  0  0  0  0
  140.0469   70.0446  223.4709 H   0  0  0  0  0  0  0  0  0  0  0  0
  139.7209   73.1179  223.1325 H   0  0  0  0  0  0  0  0  0  0  0  0
  140.6180   72.0000  222.0498 H   0  0  0  0  0  0  0  0  0  0  0  0
  138.8217   72.0017  222.0498 H   0  0  0  0  0  0  0  0  0  0  0  0
  138.1442   71.6289  225.0203 H   0  0  0  0  0  0  0  0  0  0  0  0
  137.7256   71.0393  223.3004 H   0  0  0  0  0  0  0  0  0  0  0  0
  137.8549   69.0004  223.7932 H   0  0  0  0  0  0  0  0  0  0  0  0
  136.2640   69.7840  226.2250 H   0  0  0  0  0  0  0  0  0  0  0  0
  133.5178   68.1962  224.3052 H   0  0  0  0  0  0  0  0  0  0  0  0
  134.1488   68.2707  225.9783 H   0  0  0  0  0  0  0  0  0  0  0  0
  133.0720   70.6080  224.3790 H   0  0  0  0  0  0  0  0  0  0  0  0
  131.4894   71.2492  227.5836 H   0  0  0  0  0  0  0  0  0  0  0  0
  130.4694   73.4052  228.1551 H   0  0  0  0  0  0  0  0  0  0  0  0
  130.6047   75.7973  228.1376 H   0  0  0  0  0  0  0  0  0  0  0  0
  134.0286   77.7282  226.4353 H   0  0  0  0  0  0  0  0  0  0  0  0
  135.0036   75.5086  225.8899 H   0  0  0  0  0  0  0  0  0  0  0  0
  139.3094   67.2456  224.5435 H   0  0  0  0  0  0  0  0  0  0  0  0
  140.8830   66.3340  226.2022 H   0  0  0  0  0  0  0  0  0  0  0  0
  141.3373   67.5262  228.3274 H   0  0  0  0  0  0  0  0  0  0  0  0
  140.1671   69.6998  228.7813 H   0  0  0  0  0  0  0  0  0  0  0  0
  138.5912   70.6021  227.1028 H   0  0  0  0  0  0  0  0  0  0  0  0
  1  2  1  0
  2  3  1  0
  2  4  1  0
  4  5  1  0
  5  6  1  0
  6  7  1  0
  7  8  2  0
  7  9  1  0
  9 10  1  0
 10 11  1  0
 11 12  2  0
 11 13  1  0
 13 14  2  0
 14 15  1  0
 15 16  2  0
 16 17  1  0
 17 18  2  0
 18 19  1  0
 18 20  1  0
 20 21  2  0
 21 22  1  0
 22 23  2  0
  5 24  1  0
 24 25  2  0
 25 26  1  0
 26 27  2  0
 27 28  1  0
 28 29  2  0
 23 13  1  0
 29 24  1  0
 22 16  1  0
  1 30  1  0
  1 31  1  0
  1 32  1  0
  2 33  1  0
  3 34  1  0
  3 35  1  0
  3 36  1  0
  4 37  1  0
  4 38  1  0
  5 39  1  6
  6 40  1  0
  9 41  1  0
  9 42  1  0
 10 43  1  0
 14 44  1  0
 15 45  1  0
 17 46  1  0
 20 47  1  0
 21 48  1  0
 25 49  1  0
 26 50  1  0
 27 51  1  0
 28 52  1  0
 29 53  1  0
M  END
>  <smiles>  (27) 
CC(C)C[C@H](NC(=O)CNC(=O)c1ccc2cc(Cl)ccc2n1)c1ccccc1

>  <score_type>  (27) 
oracle

>  <origin>  (27) 
autodockgpu

>  <m_score__min__energy>  (27) 
-9

>  <m_primary>  (27) 
energy

>  <rmsd>  (27) 
8.683613061667755

>  <m_score__min__rmsd>  (27) 
8.683613061667755

>  <meeko>  (27) 
{"free_energy": -8.18, "intermolecular_energy": -10.26, "internal_energy": -2.11, "cluster_size": 6, "cluster_id": 3, "rank_in_cluster": 2}

>  <energy>  (27) 
-8.0

>  <cluster_rmsd>  (27) 
1.71

>  <cluster>  (27) 
3

$$$$

     RDKit          3D

 53 55  0  0  0  0  0  0  0  0999 V2000
  137.8970   79.7490  221.4360 C   0  0  0  0  0  0  0  0  0  0  0  0
  137.9720   78.9360  222.6860 C   0  0  0  0  0  0  0  0  0  0  0  0
  138.3920   79.8940  223.8110 C   0  0  0  0  0  0  0  0  0  0  0  0
  138.9430   77.8210  222.6950 C   0  0  0  0  0  0  0  0  0  0  0  0
  140.1620   77.9430  221.8640 C   0  0  2  0  0  0  0  0  0  0  0  0
  140.8660   76.7490  221.5420 N   0  0  0  0  0  0  0  0  0  0  0  0
  140.2070   75.7560  220.7300 C   0  0  0  0  0  0  0  0  0  0  0  0
  139.0370   75.9140  220.3010 O   0  0  0  0  0  0  0  0  0  0  0  0
  140.9080   74.4880  220.3680 C   0  0  0  0  0  0  0  0  0  0  0  0
  141.0720   73.6970  221.5610 N   0  0  0  0  0  0  0  0  0  0  0  0
  140.0600   72.7190  221.8310 C   0  0  0  0  0  0  0  0  0  0  0  0
  139.1230   72.6660  220.9720 O   0  0  0  0  0  0  0  0  0  0  0  0
  140.0980   71.8600  222.9860 C   0  0  0  0  0  0  0  0  0  0  0  0
  139.5700   70.5940  222.8750 C   0  0  0  0  0  0  0  0  0  0  0  0
  139.5470   69.6850  223.8990 C   0  0  0  0  0  0  0  0  0  0  0  0
  140.0810   70.0580  225.1130 C   0  0  0  0  0  0  0  0  0  0  0  0
  140.0820   69.1870  226.1680 C   0  0  0  0  0  0  0  0  0  0  0  0
  140.6060   69.5370  227.3760 C   0  0  0  0  0  0  0  0  0  0  0  0
  140.5980   68.4060  228.7210 Cl  0  0  0  0  0  0  0  0  0  0  0  0
  141.1470   70.8200  227.5100 C   0  0  0  0  0  0  0  0  0  0  0  0
  141.1460   71.7070  226.4330 C   0  0  0  0  0  0  0  0  0  0  0  0
  140.6100   71.3350  225.2180 C   0  0  0  0  0  0  0  0  0  0  0  0
  140.6150   72.2030  224.1800 N   0  0  0  0  0  0  0  0  0  0  0  0
  141.1390   78.9300  222.4110 C   0  0  0  0  0  0  0  0  0  0  0  0
  141.5940   78.8780  223.7130 C   0  0  0  0  0  0  0  0  0  0  0  0
  142.4980   79.8110  224.1780 C   0  0  0  0  0  0  0  0  0  0  0  0
  142.9760   80.8210  223.3660 C   0  0  0  0  0  0  0  0  0  0  0  0
  142.5290   80.8900  222.0510 C   0  0  0  0  0  0  0  0  0  0  0  0
  141.6210   79.9470  221.5990 C   0  0  0  0  0  0  0  0  0  0  0  0
  137.7988   80.8133  221.6962 H   0  0  0  0  0  0  0  0  0  0  0  0
  138.8128   79.5989  220.8455 H   0  0  0  0  0  0  0  0  0  0  0  0
  137.0241   79.4339  220.8455 H   0  0  0  0  0  0  0  0  0  0  0  0
  136.9818   78.4700  222.7972 H   0  0  0  0  0  0  0  0  0  0  0  0
  138.1873   79.4271  224.7857 H   0  0  0  0  0  0  0  0  0  0  0  0
  139.4673   80.1098  223.7264 H   0  0  0  0  0  0  0  0  0  0  0  0
  137.8222   80.8311  223.7264 H   0  0  0  0  0  0  0  0  0  0  0  0
  139.2712   77.6839  223.7359 H   0  0  0  0  0  0  0  0  0  0  0  0
  138.3934   76.9798  222.2474 H   0  0  0  0  0  0  0  0  0  0  0  0
  139.7228   78.2938  220.9184 H   0  0  0  0  0  0  0  0  0  0  0  0
  141.8350   76.4990  221.8260 H   0  0  0  0  0  0  0  0  0  0  0  0
  140.3092   73.9303  219.6329 H   0  0  0  0  0  0  0  0  0  0  0  0
  141.8909   74.7140  219.9288 H   0  0  0  0  0  0  0  0  0  0  0  0
  141.8830   73.8050  222.2220 H   0  0  0  0  0  0  0  0  0  0  0  0
  139.1414   70.2947  221.9072 H   0  0  0  0  0  0  0  0  0  0  0  0
  139.1138   68.6840  223.7561 H   0  0  0  0  0  0  0  0  0  0  0  0
  139.6509   68.1834  226.0383 H   0  0  0  0  0  0  0  0  0  0  0  0
  141.5771   71.1324  228.4730 H   0  0  0  0  0  0  0  0  0  0  0  0
  141.5766   72.7120  226.5541 H   0  0  0  0  0  0  0  0  0  0  0  0
  141.2329   78.0861  224.3857 H   0  0  0  0  0  0  0  0  0  0  0  0
  142.8461   79.7490  225.2196 H   0  0  0  0  0  0  0  0  0  0  0  0
  143.6966   81.5569  223.7523 H   0  0  0  0  0  0  0  0  0  0  0  0
  142.8914   81.6822  221.3794 H   0  0  0  0  0  0  0  0  0  0  0  0
  141.2690   80.0063  220.5585 H   0  0  0  0  0  0  0  0  0  0  0  0
  1  2  1  0
  2  3  1  0
  2  4  1  0
  4  5  1  0
  5  6  1  0
  6  7  1  0
  7  8  2  0
  7  9  1  0
  9 10  1  0
 10 11  1  0
 11 12  2  0
 11 13  1  0
 13 14  2  0
 14 15  1  0
 15 16  2  0
 16 17  1  0
 17 18  2  0
 18 19  1  0
 18 20  1  0
 20 21  2  0
 21 22  1  0
 22 23  2  0
  5 24  1  0
 24 25  2  0
 25 26  1  0
 26 27  2  0
 27 28  1  0
 28 29  2  0
 23 13  1  0
 29 24  1  0
 22 16  1  0
  1 30  1  0
  1 31  1  0
  1 32  1  0
  2 33  1  0
  3 34  1  0
  3 35  1  0
  3 36  1  0
  4 37  1  0
  4 38  1  0
  5 39  1  6
  6 40  1  0
  9 41  1  0
  9 42  1  0
 10 43  1  0
 14 44  1  0
 15 45  1  0
 17 46  1  0
 20 47  1  0
 21 48  1  0
 25 49  1  0
 26 50  1  0
 27 51  1  0
 28 52  1  0
 29 53  1  0
M  END
>  <smiles>  (28) 
CC(C)C[C@H](NC(=O)CNC(=O)c1ccc2cc(Cl)ccc2n1)c1ccccc1

>  <score_type>  (28) 
oracle

>  <origin>  (28) 
autodockgpu

>  <m_score__min__energy>  (28) 
-9

>  <m_primary>  (28) 
energy

>  <rmsd>  (28) 
3.6072992423081662

>  <m_score__min__rmsd>  (28) 
3.6072992423081662

>  <meeko>  (28) 
{"free_energy": -8.24, "intermolecular_energy": -10.32, "internal_energy": -1.54, "cluster_size": 16, "cluster_id": 1, "rank_in_cluster": 10}

>  <energy>  (28) 
-7.41

>  <cluster_rmsd>  (28) 
1.93

>  <cluster>  (28) 
3

$$$$

     RDKit          3D

 53 55  0  0  0  0  0  0  0  0999 V2000
  140.6960   70.6340  220.4780 C   0  0  0  0  0  0  0  0  0  0  0  0
  139.8960   71.0360  221.6720 C   0  0  0  0  0  0  0  0  0  0  0  0
  140.7180   72.0980  222.4180 C   0  0  0  0  0  0  0  0  0  0  0  0
  139.5870   69.9730  222.6530 C   0  0  0  0  0  0  0  0  0  0  0  0
  138.6520   70.2850  223.7560 C   0  0  2  0  0  0  0  0  0  0  0  0
  137.8600   71.4620  223.6390 N   0  0  0  0  0  0  0  0  0  0  0  0
  136.9830   71.5940  222.5020 C   0  0  0  0  0  0  0  0  0  0  0  0
  136.8980   70.7060  221.6180 O   0  0  0  0  0  0  0  0  0  0  0  0
  136.1340   72.8120  222.3400 C   0  0  0  0  0  0  0  0  0  0  0  0
  136.9140   73.9680  222.7010 N   0  0  0  0  0  0  0  0  0  0  0  0
  137.9630   74.3450  221.8010 C   0  0  0  0  0  0  0  0  0  0  0  0
  138.0820   73.6030  220.7750 O   0  0  0  0  0  0  0  0  0  0  0  0
  138.8200   75.4780  222.0370 C   0  0  0  0  0  0  0  0  0  0  0  0
  140.1600   75.3560  221.7470 C   0  0  0  0  0  0  0  0  0  0  0  0
  141.0740   76.3590  221.9270 C   0  0  0  0  0  0  0  0  0  0  0  0
  140.6300   77.5630  222.4290 C   0  0  0  0  0  0  0  0  0  0  0  0
  141.5040   78.5960  222.6270 C   0  0  0  0  0  0  0  0  0  0  0  0
  141.0840   79.7940  223.1230 C   0  0  0  0  0  0  0  0  0  0  0  0
  142.2200   81.1120  223.3720 Cl  0  0  0  0  0  0  0  0  0  0  0  0
  139.7260   79.9390  223.4250 C   0  0  0  0  0  0  0  0  0  0  0  0
  138.8360   78.8840  223.2220 C   0  0  0  0  0  0  0  0  0  0  0  0
  139.2800   77.6790  222.7200 C   0  0  0  0  0  0  0  0  0  0  0  0
  138.4080   76.6620  222.5270 N   0  0  0  0  0  0  0  0  0  0  0  0
  139.3170   70.2980  225.0930 C   0  0  0  0  0  0  0  0  0  0  0  0
  139.1910   69.2600  225.9930 C   0  0  0  0  0  0  0  0  0  0  0  0
  139.8220   69.3130  227.2180 C   0  0  0  0  0  0  0  0  0  0  0  0
  140.5960   70.3960  227.5860 C   0  0  0  0  0  0  0  0  0  0  0  0
  140.7350   71.4530  226.6920 C   0  0  0  0  0  0  0  0  0  0  0  0
  140.0950   71.3850  225.4660 C   0  0  0  0  0  0  0  0  0  0  0  0
  141.6339   70.1627  220.8068 H   0  0  0  0  0  0  0  0  0  0  0  0
  140.1186   69.9190  219.8736 H   0  0  0  0  0  0  0  0  0  0  0  0
  140.9251   71.5240  219.8736 H   0  0  0  0  0  0  0  0  0  0  0  0
  138.9245   71.3703  221.2790 H   0  0  0  0  0  0  0  0  0  0  0  0
  140.6059   71.9532  223.5027 H   0  0  0  0  0  0  0  0  0  0  0  0
  141.7786   72.0009  222.1428 H   0  0  0  0  0  0  0  0  0  0  0  0
  140.3581   73.1003  222.1428 H   0  0  0  0  0  0  0  0  0  0  0  0
  139.1596   69.1280  222.0933 H   0  0  0  0  0  0  0  0  0  0  0  0
  140.5461   69.7823  223.1568 H   0  0  0  0  0  0  0  0  0  0  0  0
  137.9498   69.4432  223.6650 H   0  0  0  0  0  0  0  0  0  0  0  0
  137.8310   72.2640  224.3020 H   0  0  0  0  0  0  0  0  0  0  0  0
  135.8060   72.8984  221.2936 H   0  0  0  0  0  0  0  0  0  0  0  0
  135.2472   72.7404  222.9869 H   0  0  0  0  0  0  0  0  0  0  0  0
  136.7490   74.5310  223.5750 H   0  0  0  0  0  0  0  0  0  0  0  0
  140.5175   74.3957  221.3469 H   0  0  0  0  0  0  0  0  0  0  0  0
  142.1346   76.2079  221.6776 H   0  0  0  0  0  0  0  0  0  0  0  0
  142.5671   78.4573  222.3811 H   0  0  0  0  0  0  0  0  0  0  0  0
  139.3562   80.8940  223.8264 H   0  0  0  0  0  0  0  0  0  0  0  0
  137.7710   79.0146  223.4645 H   0  0  0  0  0  0  0  0  0  0  0  0
  138.5818   68.3823  225.7311 H   0  0  0  0  0  0  0  0  0  0  0  0
  139.7062   68.4729  227.9186 H   0  0  0  0  0  0  0  0  0  0  0  0
  141.0930   70.4224  228.5670 H   0  0  0  0  0  0  0  0  0  0  0  0
  141.3445   72.3300  226.9553 H   0  0  0  0  0  0  0  0  0  0  0  0
  140.2073   72.2229  224.7622 H   0  0  0  0  0  0  0  0  0  0  0  0
  1  2  1  0
  2  3  1  0
  2  4  1  0
  4  5  1  0
  5  6  1  0
  6  7  1  0
  7  8  2  0
  7  9  1  0
  9 10  1  0
 10 11  1  0
 11 12  2  0
 11 13  1  0
 13 14  2  0
 14 15  1  0
 15 16  2  0
 16 17  1  0
 17 18  2  0
 18 19  1  0
 18 20  1  0
 20 21  2  0
 21 22  1  0
 22 23  2  0
  5 24  1  0
 24 25  2  0
 25 26  1  0
 26 27  2  0
 27 28  1  0
 28 29  2  0
 23 13  1  0
 29 24  1  0
 22 16  1  0
  1 30  1  0
  1 31  1  0
  1 32  1  0
  2 33  1  0
  3 34  1  0
  3 35  1  0
  3 36  1  0
  4 37  1  0
  4 38  1  0
  5 39  1  1
  6 40  1  0
  9 41  1  0
  9 42  1  0
 10 43  1  0
 14 44  1  0
 15 45  1  0
 17 46  1  0
 20 47  1  0
 21 48  1  0
 25 49  1  0
 26 50  1  0
 27 51  1  0
 28 52  1  0
 29 53  1  0
M  END
>  <smiles>  (29) 
CC(C)C[C@H](NC(=O)CNC(=O)c1ccc2cc(Cl)ccc2n1)c1ccccc1

>  <score_type>  (29) 
oracle

>  <origin>  (29) 
autodockgpu

>  <m_score__min__energy>  (29) 
-9

>  <m_primary>  (29) 
energy

>  <rmsd>  (29) 
7.363275414561206

>  <m_score__min__rmsd>  (29) 
7.363275414561206

>  <meeko>  (29) 
{"free_energy": -7.7, "intermolecular_energy": -9.79, "internal_energy": -1.93, "cluster_size": 1, "cluster_id": 8, "rank_in_cluster": 1}

>  <energy>  (29) 
-7.09

>  <cluster_rmsd>  (29) 
1.65

>  <cluster>  (29) 
3

$$$$

     RDKit          3D

 53 55  0  0  0  0  0  0  0  0999 V2000
  139.0340   71.9970  221.4300 C   0  0  0  0  0  0  0  0  0  0  0  0
  140.0250   72.5260  222.4120 C   0  0  0  0  0  0  0  0  0  0  0  0
  141.1750   73.1350  221.5950 C   0  0  0  0  0  0  0  0  0  0  0  0
  140.6350   71.5440  223.3340 C   0  0  0  0  0  0  0  0  0  0  0  0
  139.7510   70.8180  224.2730 C   0  0  2  0  0  0  0  0  0  0  0  0
  138.3700   71.1630  224.2820 N   0  0  0  0  0  0  0  0  0  0  0  0
  137.3960   70.1160  224.0960 C   0  0  0  0  0  0  0  0  0  0  0  0
  137.7290   68.9160  223.9280 O   0  0  0  0  0  0  0  0  0  0  0  0
  135.9360   70.4320  224.0990 C   0  0  0  0  0  0  0  0  0  0  0  0
  135.7590   71.7790  224.5790 N   0  0  0  0  0  0  0  0  0  0  0  0
  134.4880   72.0950  225.1600 C   0  0  0  0  0  0  0  0  0  0  0  0
  133.6540   71.1330  225.1820 O   0  0  0  0  0  0  0  0  0  0  0  0
  134.1740   73.4000  225.6800 C   0  0  0  0  0  0  0  0  0  0  0  0
  134.9410   74.4670  225.2730 C   0  0  0  0  0  0  0  0  0  0  0  0
  134.7420   75.7550  225.6960 C   0  0  0  0  0  0  0  0  0  0  0  0
  133.7150   75.9980  226.5820 C   0  0  0  0  0  0  0  0  0  0  0  0
  133.4760   77.2670  227.0340 C   0  0  0  0  0  0  0  0  0  0  0  0
  132.4660   77.5280  227.9100 C   0  0  0  0  0  0  0  0  0  0  0  0
  132.1720   79.1640  228.4820 Cl  0  0  0  0  0  0  0  0  0  0  0  0
  131.6740   76.4560  228.3370 C   0  0  0  0  0  0  0  0  0  0  0  0
  131.9190   75.1640  227.8740 C   0  0  0  0  0  0  0  0  0  0  0  0
  132.9470   74.9190  226.9880 C   0  0  0  0  0  0  0  0  0  0  0  0
  133.1760   73.6610  226.5460 N   0  0  0  0  0  0  0  0  0  0  0  0
  140.2510   70.8480  225.6800 C   0  0  0  0  0  0  0  0  0  0  0  0
  141.0000   71.8950  226.1770 C   0  0  0  0  0  0  0  0  0  0  0  0
  141.4420   71.8820  227.4840 C   0  0  0  0  0  0  0  0  0  0  0  0
  141.1540   70.8310  228.3340 C   0  0  0  0  0  0  0  0  0  0  0  0
  140.4010   69.7670  227.8500 C   0  0  0  0  0  0  0  0  0  0  0  0
  139.9650   69.7940  226.5360 C   0  0  0  0  0  0  0  0  0  0  0  0
  138.1883   71.5456  221.9695 H   0  0  0  0  0  0  0  0  0  0  0  0
  138.6686   72.8200  220.7983 H   0  0  0  0  0  0  0  0  0  0  0  0
  139.5145   71.2354  220.7983 H   0  0  0  0  0  0  0  0  0  0  0  0
  139.4657   73.2265  223.0496 H   0  0  0  0  0  0  0  0  0  0  0  0
  141.9368   73.5384  222.2784 H   0  0  0  0  0  0  0  0  0  0  0  0
  141.6261   72.3576  220.9609 H   0  0  0  0  0  0  0  0  0  0  0  0
  140.7854   73.9450  220.9609 H   0  0  0  0  0  0  0  0  0  0  0  0
  141.1430   70.7892  222.7158 H   0  0  0  0  0  0  0  0  0  0  0  0
  141.2825   72.1497  223.9851 H   0  0  0  0  0  0  0  0  0  0  0  0
  139.8023   69.8038  223.8502 H   0  0  0  0  0  0  0  0  0  0  0  0
  137.9640   72.1110  224.4180 H   0  0  0  0  0  0  0  0  0  0  0  0
  135.5361   70.3468  223.0778 H   0  0  0  0  0  0  0  0  0  0  0  0
  135.3999   69.7268  224.7511 H   0  0  0  0  0  0  0  0  0  0  0  0
  136.5050   72.5180  224.5230 H   0  0  0  0  0  0  0  0  0  0  0  0
  135.7621   74.2750  224.5666 H   0  0  0  0  0  0  0  0  0  0  0  0
  135.3847   76.5728  225.3380 H   0  0  0  0  0  0  0  0  0  0  0  0
  134.1121   78.0930  226.6830 H   0  0  0  0  0  0  0  0  0  0  0  0
  130.8507   76.6345  229.0444 H   0  0  0  0  0  0  0  0  0  0  0  0
  131.2866   74.3325  228.2185 H   0  0  0  0  0  0  0  0  0  0  0  0
  141.2466   72.7467  225.5260 H   0  0  0  0  0  0  0  0  0  0  0  0
  142.0375   72.7278  227.8581 H   0  0  0  0  0  0  0  0  0  0  0  0
  141.5136   70.8361  229.3735 H   0  0  0  0  0  0  0  0  0  0  0  0
  140.1551   68.9157  228.5018 H   0  0  0  0  0  0  0  0  0  0  0  0
  139.3705   68.9496  226.1571 H   0  0  0  0  0  0  0  0  0  0  0  0
  1  2  1  0
  2  3  1  0
  2  4  1  0
  4  5  1  0
  5  6  1  0
  6  7  1  0
  7  8  2  0
  7  9  1  0
  9 10  1  0
 10 11  1  0
 11 12  2  0
 11 13  1  0
 13 14  2  0
 14 15  1  0
 15 16  2  0
 16 17  1  0
 17 18  2  0
 18 19  1  0
 18 20  1  0
 20 21  2  0
 21 22  1  0
 22 23  2  0
  5 24  1  0
 24 25  2  0
 25 26  1  0
 26 27  2  0
 27 28  1  0
 28 29  2  0
 23 13  1  0
 29 24  1  0
 22 16  1  0
  1 30  1  0
  1 31  1  0
  1 32  1  0
  2 33  1  0
  3 34  1  0
  3 35  1  0
  3 36  1  0
  4 37  1  0
  4 38  1  0
  5 39  1  6
  6 40  1  0
  9 41  1  0
  9 42  1  0
 10 43  1  0
 14 44  1  0
 15 45  1  0
 17 46  1  0
 20 47  1  0
 21 48  1  0
 25 49  1  0
 26 50  1  0
 27 51  1  0
 28 52  1  0
 29 53  1  0
M  END
>  <smiles>  (30) 
CC(C)C[C@H](NC(=O)CNC(=O)c1ccc2cc(Cl)ccc2n1)c1ccccc1

>  <score_type>  (30) 
oracle

>  <origin>  (30) 
autodockgpu

>  <m_score__min__energy>  (30) 
-9

>  <m_primary>  (30) 
energy

>  <rmsd>  (30) 
7.704209125529081

>  <m_score__min__rmsd>  (30) 
7.704209125529081

>  <meeko>  (30) 
{"free_energy": -8.49, "intermolecular_energy": -10.58, "internal_energy": -1.37, "cluster_size": 6, "cluster_id": 3, "rank_in_cluster": 1}

>  <energy>  (30) 
-8.22

>  <cluster_rmsd>  (30) 
0.0

>  <cluster>  (30) 
4

$$$$

     RDKit          3D

 53 55  0  0  0  0  0  0  0  0999 V2000
  143.6720   72.0830  220.8190 C   0  0  0  0  0  0  0  0  0  0  0  0
  144.4270   73.0990  220.0280 C   0  0  0  0  0  0  0  0  0  0  0  0
  145.9130   72.7260  220.1330 C   0  0  0  0  0  0  0  0  0  0  0  0
  144.3120   74.5060  220.4730 C   0  0  0  0  0  0  0  0  0  0  0  0
  143.0920   75.2600  220.1100 C   0  0  2  0  0  0  0  0  0  0  0  0
  141.8450   74.5770  220.1850 N   0  0  0  0  0  0  0  0  0  0  0  0
  140.7280   75.2440  220.8070 C   0  0  0  0  0  0  0  0  0  0  0  0
  140.8240   76.4040  221.2810 O   0  0  0  0  0  0  0  0  0  0  0  0
  139.4020   74.5650  220.9080 C   0  0  0  0  0  0  0  0  0  0  0  0
  139.3700   73.7960  222.1260 N   0  0  0  0  0  0  0  0  0  0  0  0
  140.0200   72.5200  222.0990 C   0  0  0  0  0  0  0  0  0  0  0  0
  140.5560   72.2130  220.9860 O   0  0  0  0  0  0  0  0  0  0  0  0
  140.0670   71.6480  223.2440 C   0  0  0  0  0  0  0  0  0  0  0  0
  139.5870   70.3650  223.1080 C   0  0  0  0  0  0  0  0  0  0  0  0
  139.5770   69.4430  224.1200 C   0  0  0  0  0  0  0  0  0  0  0  0
  140.0750   69.8190  225.3480 C   0  0  0  0  0  0  0  0  0  0  0  0
  140.0860   68.9340  226.3920 C   0  0  0  0  0  0  0  0  0  0  0  0
  140.5740   69.2870  227.6140 C   0  0  0  0  0  0  0  0  0  0  0  0
  140.5820   68.1380  228.9450 Cl  0  0  0  0  0  0  0  0  0  0  0  0
  141.0660   70.5860  227.7740 C   0  0  0  0  0  0  0  0  0  0  0  0
  141.0540   71.4860  226.7090 C   0  0  0  0  0  0  0  0  0  0  0  0
  140.5550   71.1120  225.4790 C   0  0  0  0  0  0  0  0  0  0  0  0
  140.5480   71.9930  224.4520 N   0  0  0  0  0  0  0  0  0  0  0  0
  143.1900   75.9110  218.7700 C   0  0  0  0  0  0  0  0  0  0  0  0
  143.6110   75.2310  217.6460 C   0  0  0  0  0  0  0  0  0  0  0  0
  143.6870   75.8710  216.4260 C   0  0  0  0  0  0  0  0  0  0  0  0
  143.3480   77.2030  216.2870 C   0  0  0  0  0  0  0  0  0  0  0  0
  142.9200   77.9050  217.4090 C   0  0  0  0  0  0  0  0  0  0  0  0
  142.8500   77.2490  218.6270 C   0  0  0  0  0  0  0  0  0  0  0  0
  143.8143   72.2745  221.8928 H   0  0  0  0  0  0  0  0  0  0  0  0
  142.6017   72.1486  220.5736 H   0  0  0  0  0  0  0  0  0  0  0  0
  144.0435   71.0772  220.5736 H   0  0  0  0  0  0  0  0  0  0  0  0
  143.9949   73.0686  219.0169 H   0  0  0  0  0  0  0  0  0  0  0  0
  146.1990   72.6542  221.1927 H   0  0  0  0  0  0  0  0  0  0  0  0
  146.0835   71.7572  219.6407 H   0  0  0  0  0  0  0  0  0  0  0  0
  146.5208   73.4994  219.6407 H   0  0  0  0  0  0  0  0  0  0  0  0
  144.3805   74.5067  221.5709 H   0  0  0  0  0  0  0  0  0  0  0  0
  145.1209   75.0261  219.9390 H   0  0  0  0  0  0  0  0  0  0  0  0
  143.0725   76.0060  220.9182 H   0  0  0  0  0  0  0  0  0  0  0  0
  141.6330   73.6230  219.8270 H   0  0  0  0  0  0  0  0  0  0  0  0
  138.6004   75.3182  220.9243 H   0  0  0  0  0  0  0  0  0  0  0  0
  139.2521   73.9033  220.0422 H   0  0  0  0  0  0  0  0  0  0  0  0
  138.9030   74.1260  223.0090 H   0  0  0  0  0  0  0  0  0  0  0  0
  139.1880   70.0628  222.1285 H   0  0  0  0  0  0  0  0  0  0  0  0
  139.1820   68.4294  223.9569 H   0  0  0  0  0  0  0  0  0  0  0  0
  139.6931   67.9177  226.2414 H   0  0  0  0  0  0  0  0  0  0  0  0
  141.4662   70.9009  228.7490 H   0  0  0  0  0  0  0  0  0  0  0  0
  141.4462   72.5038  226.8513 H   0  0  0  0  0  0  0  0  0  0  0  0
  143.8885   74.1694  217.7230 H   0  0  0  0  0  0  0  0  0  0  0  0
  144.0253   75.3077  215.5438 H   0  0  0  0  0  0  0  0  0  0  0  0
  143.4153   77.6991  215.3075 H   0  0  0  0  0  0  0  0  0  0  0  0
  142.6410   78.9661  217.3302 H   0  0  0  0  0  0  0  0  0  0  0  0
  142.5130   77.8083  219.5122 H   0  0  0  0  0  0  0  0  0  0  0  0
  1  2  1  0
  2  3  1  0
  2  4  1  0
  4  5  1  0
  5  6  1  0
  6  7  1  0
  7  8  2  0
  7  9  1  0
  9 10  1  0
 10 11  1  0
 11 12  2  0
 11 13  1  0
 13 14  2  0
 14 15  1  0
 15 16  2  0
 16 17  1  0
 17 18  2  0
 18 19  1  0
 18 20  1  0
 20 21  2  0
 21 22  1  0
 22 23  2  0
  5 24  1  0
 24 25  2  0
 25 26  1  0
 26 27  2  0
 27 28  1  0
 28 29  2  0
 23 13  1  0
 29 24  1  0
 22 16  1  0
  1 30  1  0
  1 31  1  0
  1 32  1  0
  2 33  1  0
  3 34  1  0
  3 35  1  0
  3 36  1  0
  4 37  1  0
  4 38  1  0
  5 39  1  1
  6 40  1  0
  9 41  1  0
  9 42  1  0
 10 43  1  0
 14 44  1  0
 15 45  1  0
 17 46  1  0
 20 47  1  0
 21 48  1  0
 25 49  1  0
 26 50  1  0
 27 51  1  0
 28 52  1  0
 29 53  1  0
M  END
>  <smiles>  (31) 
CC(C)C[C@H](NC(=O)CNC(=O)c1ccc2cc(Cl)ccc2n1)c1ccccc1

>  <score_type>  (31) 
oracle

>  <origin>  (31) 
autodockgpu

>  <m_score__min__energy>  (31) 
-9

>  <m_primary>  (31) 
energy

>  <rmsd>  (31) 
3.0534802049790497

>  <m_score__min__rmsd>  (31) 
3.0534802049790497

>  <meeko>  (31) 
{"free_energy": -7.81, "intermolecular_energy": -9.9, "internal_energy": -2.36, "cluster_size": 11, "cluster_id": 4, "rank_in_cluster": 7}

>  <energy>  (31) 
-8.16

>  <cluster_rmsd>  (31) 
0.92

>  <cluster>  (31) 
4

$$$$

     RDKit          3D

 53 55  0  0  0  0  0  0  0  0999 V2000
  143.3290   76.0450  218.4780 C   0  0  0  0  0  0  0  0  0  0  0  0
  142.3750   77.1580  218.1970 C   0  0  0  0  0  0  0  0  0  0  0  0
  142.9370   77.9280  216.9930 C   0  0  0  0  0  0  0  0  0  0  0  0
  142.1750   78.1480  219.2770 C   0  0  0  0  0  0  0  0  0  0  0  0
  141.7280   77.6630  220.6020 C   0  0  2  0  0  0  0  0  0  0  0  0
  140.4830   76.9770  220.6700 N   0  0  0  0  0  0  0  0  0  0  0  0
  140.4910   75.5500  220.8790 C   0  0  0  0  0  0  0  0  0  0  0  0
  141.5590   74.9000  221.0030 O   0  0  0  0  0  0  0  0  0  0  0  0
  139.2080   74.7900  220.9570 C   0  0  0  0  0  0  0  0  0  0  0  0
  139.2220   73.9880  222.1550 N   0  0  0  0  0  0  0  0  0  0  0  0
  139.8780   72.7170  222.0730 C   0  0  0  0  0  0  0  0  0  0  0  0
  140.3780   72.4440  220.9350 O   0  0  0  0  0  0  0  0  0  0  0  0
  139.9670   71.8150  223.1920 C   0  0  0  0  0  0  0  0  0  0  0  0
  139.5170   70.5250  223.0280 C   0  0  0  0  0  0  0  0  0  0  0  0
  139.5480   69.5750  224.0140 C   0  0  0  0  0  0  0  0  0  0  0  0
  140.0590   69.9300  225.2430 C   0  0  0  0  0  0  0  0  0  0  0  0
  140.1110   69.0170  226.2610 C   0  0  0  0  0  0  0  0  0  0  0  0
  140.6130   69.3480  227.4840 C   0  0  0  0  0  0  0  0  0  0  0  0
  140.6740   68.1640  228.7810 Cl  0  0  0  0  0  0  0  0  0  0  0  0
  141.0760   70.6550  227.6720 C   0  0  0  0  0  0  0  0  0  0  0  0
  141.0210   71.5830  226.6320 C   0  0  0  0  0  0  0  0  0  0  0  0
  140.5100   71.2300  225.4020 C   0  0  0  0  0  0  0  0  0  0  0  0
  140.4620   72.1390  224.4000 N   0  0  0  0  0  0  0  0  0  0  0  0
  141.7310   78.7340  221.6420 C   0  0  0  0  0  0  0  0  0  0  0  0
  141.5880   78.4600  222.9870 C   0  0  0  0  0  0  0  0  0  0  0  0
  141.5960   79.4810  223.9160 C   0  0  0  0  0  0  0  0  0  0  0  0
  141.7450   80.8010  223.5370 C   0  0  0  0  0  0  0  0  0  0  0  0
  141.8910   81.0970  222.1860 C   0  0  0  0  0  0  0  0  0  0  0  0
  141.8800   80.0620  221.2660 C   0  0  0  0  0  0  0  0  0  0  0  0
  143.4363   75.9198  219.5656 H   0  0  0  0  0  0  0  0  0  0  0  0
  142.9450   75.1130  218.0378 H   0  0  0  0  0  0  0  0  0  0  0  0
  144.3088   76.2820  218.0378 H   0  0  0  0  0  0  0  0  0  0  0  0
  141.3962   76.6795  218.0455 H   0  0  0  0  0  0  0  0  0  0  0  0
  143.5505   78.7686  217.3493 H   0  0  0  0  0  0  0  0  0  0  0  0
  143.5570   77.2540  216.3836 H   0  0  0  0  0  0  0  0  0  0  0  0
  142.1060   78.3130  216.3836 H   0  0  0  0  0  0  0  0  0  0  0  0
  143.1345   78.6647  219.4265 H   0  0  0  0  0  0  0  0  0  0  0  0
  141.3413   78.7714  218.9216 H   0  0  0  0  0  0  0  0  0  0  0  0
  142.4976   76.9038  220.8053 H   0  0  0  0  0  0  0  0  0  0  0  0
  139.5340   77.3960  220.5910 H   0  0  0  0  0  0  0  0  0  0  0  0
  138.3623   75.4926  220.9910 H   0  0  0  0  0  0  0  0  0  0  0  0
  139.0987   74.1444  220.0731 H   0  0  0  0  0  0  0  0  0  0  0  0
  138.7820   74.2910  223.0610 H   0  0  0  0  0  0  0  0  0  0  0  0
  139.1083   70.2401  222.0473 H   0  0  0  0  0  0  0  0  0  0  0  0
  139.1752   68.5567  223.8297 H   0  0  0  0  0  0  0  0  0  0  0  0
  139.7403   67.9958  226.0888 H   0  0  0  0  0  0  0  0  0  0  0  0
  141.4867   70.9531  228.6479 H   0  0  0  0  0  0  0  0  0  0  0  0
  141.3892   72.6066  226.7954 H   0  0  0  0  0  0  0  0  0  0  0  0
  141.4666   77.4192  223.3216 H   0  0  0  0  0  0  0  0  0  0  0  0
  141.4811   79.2379  224.9826 H   0  0  0  0  0  0  0  0  0  0  0  0
  141.7481   81.6031  224.2898 H   0  0  0  0  0  0  0  0  0  0  0  0
  142.0135   82.1382  221.8530 H   0  0  0  0  0  0  0  0  0  0  0  0
  141.9935   80.3009  220.1983 H   0  0  0  0  0  0  0  0  0  0  0  0
  1  2  1  0
  2  3  1  0
  2  4  1  0
  4  5  1  0
  5  6  1  0
  6  7  1  0
  7  8  2  0
  7  9  1  0
  9 10  1  0
 10 11  1  0
 11 12  2  0
 11 13  1  0
 13 14  2  0
 14 15  1  0
 15 16  2  0
 16 17  1  0
 17 18  2  0
 18 19  1  0
 18 20  1  0
 20 21  2  0
 21 22  1  0
 22 23  2  0
  5 24  1  0
 24 25  2  0
 25 26  1  0
 26 27  2  0
 27 28  1  0
 28 29  2  0
 23 13  1  0
 29 24  1  0
 22 16  1  0
  1 30  1  0
  1 31  1  0
  1 32  1  0
  2 33  1  0
  3 34  1  0
  3 35  1  0
  3 36  1  0
  4 37  1  0
  4 38  1  0
  5 39  1  1
  6 40  1  0
  9 41  1  0
  9 42  1  0
 10 43  1  0
 14 44  1  0
 15 45  1  0
 17 46  1  0
 20 47  1  0
 21 48  1  0
 25 49  1  0
 26 50  1  0
 27 51  1  0
 28 52  1  0
 29 53  1  0
M  END
>  <smiles>  (32) 
CC(C)C[C@H](NC(=O)CNC(=O)c1ccc2cc(Cl)ccc2n1)c1ccccc1

>  <score_type>  (32) 
oracle

>  <origin>  (32) 
autodockgpu

>  <m_score__min__energy>  (32) 
-9

>  <m_primary>  (32) 
energy

>  <rmsd>  (32) 
2.0164372190961797

>  <m_score__min__rmsd>  (32) 
2.0164372190961797

>  <meeko>  (32) 
{"free_energy": -8.71, "intermolecular_energy": -10.8, "internal_energy": -1.36, "cluster_size": 7, "cluster_id": 2, "rank_in_cluster": 1}

>  <energy>  (32) 
-8.14

>  <cluster_rmsd>  (32) 
0.12

>  <cluster>  (32) 
4

$$$$

     RDKit          3D

 53 55  0  0  0  0  0  0  0  0999 V2000
  146.1160   73.3150  220.9610 C   0  0  0  0  0  0  0  0  0  0  0  0
  144.6310   73.4110  220.8430 C   0  0  0  0  0  0  0  0  0  0  0  0
  144.1220   71.9990  220.5150 C   0  0  0  0  0  0  0  0  0  0  0  0
  144.1050   74.3060  219.7900 C   0  0  0  0  0  0  0  0  0  0  0  0
  143.0380   75.2650  220.1510 C   0  0  2  0  0  0  0  0  0  0  0  0
  141.7480   74.7400  220.4470 N   0  0  0  0  0  0  0  0  0  0  0  0
  141.0860   73.9340  219.4520 C   0  0  0  0  0  0  0  0  0  0  0  0
  141.6120   73.6820  218.3390 O   0  0  0  0  0  0  0  0  0  0  0  0
  139.7320   73.3630  219.7200 C   0  0  0  0  0  0  0  0  0  0  0  0
  139.8570   72.3390  220.7260 N   0  0  0  0  0  0  0  0  0  0  0  0
  139.8100   72.7680  222.0920 C   0  0  0  0  0  0  0  0  0  0  0  0
  139.6620   74.0210  222.2560 O   0  0  0  0  0  0  0  0  0  0  0  0
  139.9210   71.8530  223.1980 C   0  0  0  0  0  0  0  0  0  0  0  0
  139.5020   70.5550  223.0170 C   0  0  0  0  0  0  0  0  0  0  0  0
  139.5560   69.5920  223.9890 C   0  0  0  0  0  0  0  0  0  0  0  0
  140.0580   69.9420  225.2240 C   0  0  0  0  0  0  0  0  0  0  0  0
  140.1320   69.0170  226.2290 C   0  0  0  0  0  0  0  0  0  0  0  0
  140.6260   69.3440  227.4570 C   0  0  0  0  0  0  0  0  0  0  0  0
  140.7150   68.1440  228.7380 Cl  0  0  0  0  0  0  0  0  0  0  0  0
  141.0560   70.6590  227.6630 C   0  0  0  0  0  0  0  0  0  0  0  0
  140.9790   71.6000  226.6360 C   0  0  0  0  0  0  0  0  0  0  0  0
  140.4770   71.2510  225.4000 C   0  0  0  0  0  0  0  0  0  0  0  0
  140.4070   72.1720  224.4120 N   0  0  0  0  0  0  0  0  0  0  0  0
  142.8800   76.3600  219.1490 C   0  0  0  0  0  0  0  0  0  0  0  0
  143.3270   76.2440  217.8480 C   0  0  0  0  0  0  0  0  0  0  0  0
  143.1600   77.2810  216.9540 C   0  0  0  0  0  0  0  0  0  0  0  0
  142.5450   78.4620  217.3230 C   0  0  0  0  0  0  0  0  0  0  0  0
  142.0880   78.5980  218.6290 C   0  0  0  0  0  0  0  0  0  0  0  0
  142.2630   77.5480  219.5160 C   0  0  0  0  0  0  0  0  0  0  0  0
  146.3989   73.2967  222.0238 H   0  0  0  0  0  0  0  0  0  0  0  0
  146.4637   72.3925  220.4731 H   0  0  0  0  0  0  0  0  0  0  0  0
  146.5796   74.1851  220.4731 H   0  0  0  0  0  0  0  0  0  0  0  0
  144.2844   73.8367  221.7962 H   0  0  0  0  0  0  0  0  0  0  0  0
  143.9254   71.4537  221.4499 H   0  0  0  0  0  0  0  0  0  0  0  0
  143.1931   72.0707  219.9301 H   0  0  0  0  0  0  0  0  0  0  0  0
  144.8830   71.4616  219.9301 H   0  0  0  0  0  0  0  0  0  0  0  0
  144.9536   74.8922  219.4075 H   0  0  0  0  0  0  0  0  0  0  0  0
  143.6254   73.6255  219.0710 H   0  0  0  0  0  0  0  0  0  0  0  0
  143.4299   75.6472  221.1051 H   0  0  0  0  0  0  0  0  0  0  0  0
  141.2100   74.8670  221.3280 H   0  0  0  0  0  0  0  0  0  0  0  0
  139.0597   74.1559  220.0796 H   0  0  0  0  0  0  0  0  0  0  0  0
  139.3149   72.9345  218.7967 H   0  0  0  0  0  0  0  0  0  0  0  0
  139.9760   71.3170  220.5030 H   0  0  0  0  0  0  0  0  0  0  0  0
  139.0996   70.2741  222.0326 H   0  0  0  0  0  0  0  0  0  0  0  0
  139.2084   68.5676  223.7897 H   0  0  0  0  0  0  0  0  0  0  0  0
  139.7863   67.9895  226.0429 H   0  0  0  0  0  0  0  0  0  0  0  0
  141.4584   70.9537  228.6434 H   0  0  0  0  0  0  0  0  0  0  0  0
  141.3219   72.6299  226.8138 H   0  0  0  0  0  0  0  0  0  0  0  0
  143.8205   75.3167  217.5216 H   0  0  0  0  0  0  0  0  0  0  0  0
  143.5251   77.1651  215.9228 H   0  0  0  0  0  0  0  0  0  0  0  0
  142.4194   79.2790  216.5973 H   0  0  0  0  0  0  0  0  0  0  0  0
  141.5945   79.5260  218.9535 H   0  0  0  0  0  0  0  0  0  0  0  0
  141.8999   77.6599  220.5483 H   0  0  0  0  0  0  0  0  0  0  0  0
  1  2  1  0
  2  3  1  0
  2  4  1  0
  4  5  1  0
  5  6  1  0
  6  7  1  0
  7  8  2  0
  7  9  1  0
  9 10  1  0
 10 11  1  0
 11 12  2  0
 11 13  1  0
 13 14  2  0
 14 15  1  0
 15 16  2  0
 16 17  1  0
 17 18  2  0
 18 19  1  0
 18 20  1  0
 20 21  2  0
 21 22  1  0
 22 23  2  0
  5 24  1  0
 24 25  2  0
 25 26  1  0
 26 27  2  0
 27 28  1  0
 28 29  2  0
 23 13  1  0
 29 24  1  0
 22 16  1  0
  1 30  1  0
  1 31  1  0
  1 32  1  0
  2 33  1  0
  3 34  1  0
  3 35  1  0
  3 36  1  0
  4 37  1  0
  4 38  1  0
  5 39  1  1
  6 40  1  0
  9 41  1  0
  9 42  1  0
 10 43  1  0
 14 44  1  0
 15 45  1  0
 17 46  1  0
 20 47  1  0
 21 48  1  0
 25 49  1  0
 26 50  1  0
 27 51  1  0
 28 52  1  0
 29 53  1  0
M  END
>  <smiles>  (33) 
CC(C)C[C@H](NC(=O)CNC(=O)c1ccc2cc(Cl)ccc2n1)c1ccccc1

>  <score_type>  (33) 
oracle

>  <origin>  (33) 
autodockgpu

>  <m_score__min__energy>  (33) 
-9

>  <m_primary>  (33) 
energy

>  <rmsd>  (33) 
3.6294879370393027

>  <m_score__min__rmsd>  (33) 
3.6294879370393027

>  <meeko>  (33) 
{"free_energy": -7.86, "intermolecular_energy": -9.95, "internal_energy": -2.29, "cluster_size": 11, "cluster_id": 4, "rank_in_cluster": 6}

>  <energy>  (33) 
-8.0

>  <cluster_rmsd>  (33) 
1.01

>  <cluster>  (33) 
4

$$$$

     RDKit          3D

 53 55  0  0  0  0  0  0  0  0999 V2000
  143.0950   76.6300  217.8050 C   0  0  0  0  0  0  0  0  0  0  0  0
  142.0460   77.6740  217.9950 C   0  0  0  0  0  0  0  0  0  0  0  0
  142.2030   78.6750  216.8400 C   0  0  0  0  0  0  0  0  0  0  0  0
  142.1100   78.4600  219.2470 C   0  0  0  0  0  0  0  0  0  0  0  0
  141.7630   77.7860  220.5180 C   0  0  2  0  0  0  0  0  0  0  0  0
  140.5560   77.0310  220.5590 N   0  0  0  0  0  0  0  0  0  0  0  0
  140.6340   75.6210  220.8510 C   0  0  0  0  0  0  0  0  0  0  0  0
  141.7280   75.0440  221.0690 O   0  0  0  0  0  0  0  0  0  0  0  0
  139.3940   74.7900  220.9040 C   0  0  0  0  0  0  0  0  0  0  0  0
  139.4200   74.0030  222.1100 N   0  0  0  0  0  0  0  0  0  0  0  0
  139.9350   72.6710  222.0000 C   0  0  0  0  0  0  0  0  0  0  0  0
  140.3140   72.3370  220.8310 O   0  0  0  0  0  0  0  0  0  0  0  0
  140.0200   71.7740  223.1240 C   0  0  0  0  0  0  0  0  0  0  0  0
  139.5600   70.4870  222.9680 C   0  0  0  0  0  0  0  0  0  0  0  0
  139.5870   69.5420  223.9590 C   0  0  0  0  0  0  0  0  0  0  0  0
  140.1020   69.9000  225.1860 C   0  0  0  0  0  0  0  0  0  0  0  0
  140.1500   68.9920  226.2090 C   0  0  0  0  0  0  0  0  0  0  0  0
  140.6570   69.3270  227.4290 C   0  0  0  0  0  0  0  0  0  0  0  0
  140.7120   68.1500  228.7330 Cl  0  0  0  0  0  0  0  0  0  0  0  0
  141.1290   70.6320  227.6080 C   0  0  0  0  0  0  0  0  0  0  0  0
  141.0790   71.5550  226.5640 C   0  0  0  0  0  0  0  0  0  0  0  0
  140.5630   71.1990  225.3360 C   0  0  0  0  0  0  0  0  0  0  0  0
  140.5190   72.1020  224.3300 N   0  0  0  0  0  0  0  0  0  0  0  0
  141.7750   78.7140  221.6880 C   0  0  0  0  0  0  0  0  0  0  0  0
  141.4470   78.3010  222.9630 C   0  0  0  0  0  0  0  0  0  0  0  0
  141.4710   79.1920  224.0160 C   0  0  0  0  0  0  0  0  0  0  0  0
  141.8210   80.5150  223.8350 C   0  0  0  0  0  0  0  0  0  0  0  0
  142.1550   80.9500  222.5570 C   0  0  0  0  0  0  0  0  0  0  0  0
  142.1250   80.0440  221.5100 C   0  0  0  0  0  0  0  0  0  0  0  0
  143.4464   76.2803  218.7870 H   0  0  0  0  0  0  0  0  0  0  0  0
  142.6724   75.7834  217.2440 H   0  0  0  0  0  0  0  0  0  0  0  0
  143.9395   77.0566  217.2440 H   0  0  0  0  0  0  0  0  0  0  0  0
  141.0906   77.1301  218.0321 H   0  0  0  0  0  0  0  0  0  0  0  0
  142.3613   79.6841  217.2483 H   0  0  0  0  0  0  0  0  0  0  0  0
  143.0674   78.3896  216.2224 H   0  0  0  0  0  0  0  0  0  0  0  0
  141.2928   78.6680  216.2224 H   0  0  0  0  0  0  0  0  0  0  0  0
  143.1408   78.8309  219.3461 H   0  0  0  0  0  0  0  0  0  0  0  0
  141.3311   79.2272  219.1255 H   0  0  0  0  0  0  0  0  0  0  0  0
  142.5778   77.0496  220.5808 H   0  0  0  0  0  0  0  0  0  0  0  0
  139.5910   77.3870  220.4040 H   0  0  0  0  0  0  0  0  0  0  0  0
  138.5094   75.4439  220.9071 H   0  0  0  0  0  0  0  0  0  0  0  0
  139.3458   74.1300  220.0253 H   0  0  0  0  0  0  0  0  0  0  0  0
  139.0850   74.3570  223.0430 H   0  0  0  0  0  0  0  0  0  0  0  0
  139.1462   70.2000  221.9900 H   0  0  0  0  0  0  0  0  0  0  0  0
  139.2079   68.5250  223.7803 H   0  0  0  0  0  0  0  0  0  0  0  0
  139.7721   67.9723  226.0434 H   0  0  0  0  0  0  0  0  0  0  0  0
  141.5434   70.9327  228.5816 H   0  0  0  0  0  0  0  0  0  0  0  0
  141.4547   72.5767  226.7216 H   0  0  0  0  0  0  0  0  0  0  0  0
  141.1642   77.2530  223.1413 H   0  0  0  0  0  0  0  0  0  0  0  0
  141.2049   78.8399  225.0236 H   0  0  0  0  0  0  0  0  0  0  0  0
  141.8355   81.2122  224.6858 H   0  0  0  0  0  0  0  0  0  0  0  0
  142.4388   81.9980  222.3804 H   0  0  0  0  0  0  0  0  0  0  0  0
  142.3884   80.3921  220.5003 H   0  0  0  0  0  0  0  0  0  0  0  0
  1  2  1  0
  2  3  1  0
  2  4  1  0
  4  5  1  0
  5  6  1  0
  6  7  1  0
  7  8  2  0
  7  9  1  0
  9 10  1  0
 10 11  1  0
 11 12  2  0
 11 13  1  0
 13 14  2  0
 14 15  1  0
 15 16  2  0
 16 17  1  0
 17 18  2  0
 18 19  1  0
 18 20  1  0
 20 21  2  0
 21 22  1  0
 22 23  2  0
  5 24  1  0
 24 25  2  0
 25 26  1  0
 26 27  2  0
 27 28  1  0
 28 29  2  0
 23 13  1  0
 29 24  1  0
 22 16  1  0
  1 30  1  0
  1 31  1  0
  1 32  1  0
  2 33  1  0
  3 34  1  0
  3 35  1  0
  3 36  1  0
  4 37  1  0
  4 38  1  0
  5 39  1  1
  6 40  1  0
  9 41  1  0
  9 42  1  0
 10 43  1  0
 14 44  1  0
 15 45  1  0
 17 46  1  0
 20 47  1  0
 21 48  1  0
 25 49  1  0
 26 50  1  0
 27 51  1  0
 28 52  1  0
 29 53  1  0
M  END
>  <smiles>  (34) 
CC(C)C[C@H](NC(=O)CNC(=O)c1ccc2cc(Cl)ccc2n1)c1ccccc1

>  <score_type>  (34) 
oracle

>  <origin>  (34) 
autodockgpu

>  <m_score__min__energy>  (34) 
-9

>  <m_primary>  (34) 
energy

>  <rmsd>  (34) 
2.0730744802451224

>  <m_score__min__rmsd>  (34) 
2.0730744802451224

>  <meeko>  (34) 
{"free_energy": -8.7, "intermolecular_energy": -10.79, "internal_energy": -1.4, "cluster_size": 7, "cluster_id": 2, "rank_in_cluster": 2}

>  <energy>  (34) 
-7.99

>  <cluster_rmsd>  (34) 
1.31

>  <cluster>  (34) 
4

$$$$

     RDKit          3D

 53 55  0  0  0  0  0  0  0  0999 V2000
  145.9330   73.4810  221.0040 C   0  0  0  0  0  0  0  0  0  0  0  0
  144.4700   73.7270  220.8410 C   0  0  0  0  0  0  0  0  0  0  0  0
  143.8500   72.4050  220.3650 C   0  0  0  0  0  0  0  0  0  0  0  0
  144.0770   74.7590  219.8570 C   0  0  0  0  0  0  0  0  0  0  0  0
  142.8170   75.5010  220.0830 C   0  0  2  0  0  0  0  0  0  0  0  0
  141.6030   74.7580  220.0910 N   0  0  0  0  0  0  0  0  0  0  0  0
  140.4580   75.3120  220.7720 C   0  0  0  0  0  0  0  0  0  0  0  0
  140.5020   76.4250  221.3540 O   0  0  0  0  0  0  0  0  0  0  0  0
  139.1650   74.5660  220.8060 C   0  0  0  0  0  0  0  0  0  0  0  0
  139.1210   73.7780  222.0120 N   0  0  0  0  0  0  0  0  0  0  0  0
  139.9440   72.6060  222.0460 C   0  0  0  0  0  0  0  0  0  0  0  0
  140.6270   72.3980  220.9920 O   0  0  0  0  0  0  0  0  0  0  0  0
  139.9990   71.7280  223.1860 C   0  0  0  0  0  0  0  0  0  0  0  0
  139.5010   70.4520  223.0510 C   0  0  0  0  0  0  0  0  0  0  0  0
  139.4960   69.5250  224.0590 C   0  0  0  0  0  0  0  0  0  0  0  0
  140.0190   69.8880  225.2810 C   0  0  0  0  0  0  0  0  0  0  0  0
  140.0370   68.9980  226.3200 C   0  0  0  0  0  0  0  0  0  0  0  0
  140.5500   69.3390  227.5350 C   0  0  0  0  0  0  0  0  0  0  0  0
  140.5650   68.1840  228.8600 Cl  0  0  0  0  0  0  0  0  0  0  0  0
  141.0610   70.6320  227.6930 C   0  0  0  0  0  0  0  0  0  0  0  0
  141.0420   71.5370  226.6330 C   0  0  0  0  0  0  0  0  0  0  0  0
  140.5180   71.1750  225.4100 C   0  0  0  0  0  0  0  0  0  0  0  0
  140.5050   72.0610  224.3870 N   0  0  0  0  0  0  0  0  0  0  0  0
  142.6510   76.6580  219.1540 C   0  0  0  0  0  0  0  0  0  0  0  0
  142.9450   76.5750  217.8080 C   0  0  0  0  0  0  0  0  0  0  0  0
  142.7770   77.6690  216.9840 C   0  0  0  0  0  0  0  0  0  0  0  0
  142.3150   78.8760  217.4710 C   0  0  0  0  0  0  0  0  0  0  0  0
  142.0130   78.9790  218.8250 C   0  0  0  0  0  0  0  0  0  0  0  0
  142.1870   77.8720  219.6390 C   0  0  0  0  0  0  0  0  0  0  0  0
  146.1807   73.4393  222.0749 H   0  0  0  0  0  0  0  0  0  0  0  0
  146.1993   72.5255  220.5286 H   0  0  0  0  0  0  0  0  0  0  0  0
  146.4972   74.2969  220.5286 H   0  0  0  0  0  0  0  0  0  0  0  0
  144.1199   74.0963  221.8162 H   0  0  0  0  0  0  0  0  0  0  0  0
  143.5655   71.7984  221.2374 H   0  0  0  0  0  0  0  0  0  0  0  0
  142.9571   72.6162  219.7584 H   0  0  0  0  0  0  0  0  0  0  0  0
  144.5834   71.8535  219.7584 H   0  0  0  0  0  0  0  0  0  0  0  0
  144.8891   75.5000  219.8205 H   0  0  0  0  0  0  0  0  0  0  0  0
  143.8970   74.1950  218.9299 H   0  0  0  0  0  0  0  0  0  0  0  0
  142.9686   75.8360  221.1197 H   0  0  0  0  0  0  0  0  0  0  0  0
  141.4330   73.8340  219.6450 H   0  0  0  0  0  0  0  0  0  0  0  0
  138.3262   75.2775  220.7973 H   0  0  0  0  0  0  0  0  0  0  0  0
  139.0854   73.9111  219.9258 H   0  0  0  0  0  0  0  0  0  0  0  0
  138.5250   74.0220  222.8440 H   0  0  0  0  0  0  0  0  0  0  0  0
  139.0826   70.1598  222.0766 H   0  0  0  0  0  0  0  0  0  0  0  0
  139.0854   68.5174  223.8974 H   0  0  0  0  0  0  0  0  0  0  0  0
  139.6292   67.9873  226.1713 H   0  0  0  0  0  0  0  0  0  0  0  0
  141.4816   70.9371  228.6626 H   0  0  0  0  0  0  0  0  0  0  0  0
  141.4488   72.5493  226.7734 H   0  0  0  0  0  0  0  0  0  0  0  0
  143.3165   75.6284  217.3885 H   0  0  0  0  0  0  0  0  0  0  0  0
  143.0166   77.5776  215.9143 H   0  0  0  0  0  0  0  0  0  0  0  0
  142.1883   79.7392  216.8011 H   0  0  0  0  0  0  0  0  0  0  0  0
  141.6413   79.9261  219.2432 H   0  0  0  0  0  0  0  0  0  0  0  0
  141.9485   77.9587  220.7093 H   0  0  0  0  0  0  0  0  0  0  0  0
  1  2  1  0
  2  3  1  0
  2  4  1  0
  4  5  1  0
  5  6  1  0
  6  7  1  0
  7  8  2  0
  7  9  1  0
  9 10  1  0
 10 11  1  0
 11 12  2  0
 11 13  1  0
 13 14  2  0
 14 15  1  0
 15 16  2  0
 16 17  1  0
 17 18  2  0
 18 19  1  0
 18 20  1  0
 20 21  2  0
 21 22  1  0
 22 23  2  0
  5 24  1  0
 24 25  2  0
 25 26  1  0
 26 27  2  0
 27 28  1  0
 28 29  2  0
 23 13  1  0
 29 24  1  0
 22 16  1  0
  1 30  1  0
  1 31  1  0
  1 32  1  0
  2 33  1  0
  3 34  1  0
  3 35  1  0
  3 36  1  0
  4 37  1  0
  4 38  1  0
  5 39  1  1
  6 40  1  0
  9 41  1  0
  9 42  1  0
 10 43  1  0
 14 44  1  0
 15 45  1  0
 17 46  1  0
 20 47  1  0
 21 48  1  0
 25 49  1  0
 26 50  1  0
 27 51  1  0
 28 52  1  0
 29 53  1  0
M  END
>  <smiles>  (35) 
CC(C)C[C@H](NC(=O)CNC(=O)c1ccc2cc(Cl)ccc2n1)c1ccccc1

>  <score_type>  (35) 
oracle

>  <origin>  (35) 
autodockgpu

>  <m_score__min__energy>  (35) 
-9

>  <m_primary>  (35) 
energy

>  <rmsd>  (35) 
3.319824229934386

>  <m_score__min__rmsd>  (35) 
3.319824229934386

>  <meeko>  (35) 
{"free_energy": -8.14, "intermolecular_energy": -10.23, "internal_energy": -2.16, "cluster_size": 11, "cluster_id": 4, "rank_in_cluster": 3}

>  <energy>  (35) 
-7.86

>  <cluster_rmsd>  (35) 
1.17

>  <cluster>  (35) 
4

$$$$

     RDKit          3D

 53 55  0  0  0  0  0  0  0  0999 V2000
  139.8210   79.9190  223.5010 C   0  0  0  0  0  0  0  0  0  0  0  0
  141.0920   79.2110  223.8340 C   0  0  0  0  0  0  0  0  0  0  0  0
  142.2190   80.2490  223.7200 C   0  0  0  0  0  0  0  0  0  0  0  0
  141.4700   78.0790  222.9610 C   0  0  0  0  0  0  0  0  0  0  0  0
  140.7450   77.9050  221.6830 C   0  0  2  0  0  0  0  0  0  0  0  0
  140.4900   76.5750  221.2420 N   0  0  0  0  0  0  0  0  0  0  0  0
  139.2200   75.9730  221.5620 C   0  0  0  0  0  0  0  0  0  0  0  0
  138.3370   76.5850  222.2150 O   0  0  0  0  0  0  0  0  0  0  0  0
  138.9100   74.5810  221.1200 C   0  0  0  0  0  0  0  0  0  0  0  0
  138.8920   73.7240  222.2780 N   0  0  0  0  0  0  0  0  0  0  0  0
  139.9600   72.7760  222.3950 C   0  0  0  0  0  0  0  0  0  0  0  0
  140.8080   72.8030  221.4470 O   0  0  0  0  0  0  0  0  0  0  0  0
  140.0680   71.8590  223.5000 C   0  0  0  0  0  0  0  0  0  0  0  0
  139.6620   70.5570  223.3110 C   0  0  0  0  0  0  0  0  0  0  0  0
  139.7160   69.5930  224.2820 C   0  0  0  0  0  0  0  0  0  0  0  0
  140.2020   69.9440  225.5220 C   0  0  0  0  0  0  0  0  0  0  0  0
  140.2750   69.0170  226.5260 C   0  0  0  0  0  0  0  0  0  0  0  0
  140.7530   69.3450  227.7590 C   0  0  0  0  0  0  0  0  0  0  0  0
  140.8400   68.1430  229.0380 Cl  0  0  0  0  0  0  0  0  0  0  0  0
  141.1700   70.6630  227.9730 C   0  0  0  0  0  0  0  0  0  0  0  0
  141.0950   71.6060  226.9480 C   0  0  0  0  0  0  0  0  0  0  0  0
  140.6080   71.2570  225.7060 C   0  0  0  0  0  0  0  0  0  0  0  0
  140.5390   72.1790  224.7190 N   0  0  0  0  0  0  0  0  0  0  0  0
  141.3670   78.6610  220.5560 C   0  0  0  0  0  0  0  0  0  0  0  0
  142.0230   78.0340  219.5160 C   0  0  0  0  0  0  0  0  0  0  0  0
  142.5840   78.7710  218.4940 C   0  0  0  0  0  0  0  0  0  0  0  0
  142.5110   80.1500  218.4740 C   0  0  0  0  0  0  0  0  0  0  0  0
  141.8540   80.8010  219.5130 C   0  0  0  0  0  0  0  0  0  0  0  0
  141.2960   80.0470  220.5320 C   0  0  0  0  0  0  0  0  0  0  0  0
  139.3066   80.2055  224.4302 H   0  0  0  0  0  0  0  0  0  0  0  0
  140.0469   80.8213  222.9137 H   0  0  0  0  0  0  0  0  0  0  0  0
  139.1727   79.2520  222.9137 H   0  0  0  0  0  0  0  0  0  0  0  0
  140.9371   78.7782  224.8334 H   0  0  0  0  0  0  0  0  0  0  0  0
  142.5446   80.5488  224.7270 H   0  0  0  0  0  0  0  0  0  0  0  0
  143.0681   79.8100  223.1757 H   0  0  0  0  0  0  0  0  0  0  0  0
  141.8512   81.1313  223.1757 H   0  0  0  0  0  0  0  0  0  0  0  0
  142.5359   78.1981  222.7169 H   0  0  0  0  0  0  0  0  0  0  0  0
  141.2061   77.1857  223.5461 H   0  0  0  0  0  0  0  0  0  0  0  0
  139.7641   78.3227  221.9537 H   0  0  0  0  0  0  0  0  0  0  0  0
  141.1300   75.9670  220.6920 H   0  0  0  0  0  0  0  0  0  0  0  0
  137.9267   74.5590  220.6274 H   0  0  0  0  0  0  0  0  0  0  0  0
  139.6733   74.2342  220.4078 H   0  0  0  0  0  0  0  0  0  0  0  0
  138.1490   73.7670  223.0210 H   0  0  0  0  0  0  0  0  0  0  0  0
  139.2714   70.2747  222.3222 H   0  0  0  0  0  0  0  0  0  0  0  0
  139.3802   68.5657  224.0772 H   0  0  0  0  0  0  0  0  0  0  0  0
  139.9411   67.9867  226.3338 H   0  0  0  0  0  0  0  0  0  0  0  0
  141.5604   70.9583  228.9581 H   0  0  0  0  0  0  0  0  0  0  0  0
  141.4276   72.6382  227.1322 H   0  0  0  0  0  0  0  0  0  0  0  0
  142.0991   76.9367  219.5021 H   0  0  0  0  0  0  0  0  0  0  0  0
  143.1015   78.2484  217.6760 H   0  0  0  0  0  0  0  0  0  0  0  0
  142.9641   80.7230  217.6516 H   0  0  0  0  0  0  0  0  0  0  0  0
  141.7788   81.8984  219.5251 H   0  0  0  0  0  0  0  0  0  0  0  0
  140.7777   80.5654  221.3521 H   0  0  0  0  0  0  0  0  0  0  0  0
  1  2  1  0
  2  3  1  0
  2  4  1  0
  4  5  1  0
  5  6  1  0
  6  7  1  0
  7  8  2  0
  7  9  1  0
  9 10  1  0
 10 11  1  0
 11 12  2  0
 11 13  1  0
 13 14  2  0
 14 15  1  0
 15 16  2  0
 16 17  1  0
 17 18  2  0
 18 19  1  0
 18 20  1  0
 20 21  2  0
 21 22  1  0
 22 23  2  0
  5 24  1  0
 24 25  2  0
 25 26  1  0
 26 27  2  0
 27 28  1  0
 28 29  2  0
 23 13  1  0
 29 24  1  0
 22 16  1  0
  1 30  1  0
  1 31  1  0
  1 32  1  0
  2 33  1  0
  3 34  1  0
  3 35  1  0
  3 36  1  0
  4 37  1  0
  4 38  1  0
  5 39  1  1
  6 40  1  0
  9 41  1  0
  9 42  1  0
 10 43  1  0
 14 44  1  0
 15 45  1  0
 17 46  1  0
 20 47  1  0
 21 48  1  0
 25 49  1  0
 26 50  1  0
 27 51  1  0
 28 52  1  0
 29 53  1  0
M  END
>  <smiles>  (36) 
CC(C)C[C@H](NC(=O)CNC(=O)c1ccc2cc(Cl)ccc2n1)c1ccccc1

>  <score_type>  (36) 
oracle

>  <origin>  (36) 
autodockgpu

>  <m_score__min__energy>  (36) 
-9

>  <m_primary>  (36) 
energy

>  <rmsd>  (36) 
3.762465391357357

>  <m_score__min__rmsd>  (36) 
3.762465391357357

>  <meeko>  (36) 
{"free_energy": -8.43, "intermolecular_energy": -10.52, "internal_energy": -1.48, "cluster_size": 16, "cluster_id": 1, "rank_in_cluster": 6}

>  <energy>  (36) 
-7.81

>  <cluster_rmsd>  (36) 
0.64

>  <cluster>  (36) 
4

$$$$

     RDKit          3D

 53 55  0  0  0  0  0  0  0  0999 V2000
  141.8800   77.9550  216.7270 C   0  0  0  0  0  0  0  0  0  0  0  0
  142.6040   78.2170  218.0050 C   0  0  0  0  0  0  0  0  0  0  0  0
  143.0910   76.8550  218.5240 C   0  0  0  0  0  0  0  0  0  0  0  0
  141.8190   78.8300  219.0990 C   0  0  0  0  0  0  0  0  0  0  0  0
  141.5430   78.0190  220.3060 C   0  0  2  0  0  0  0  0  0  0  0  0
  140.4860   77.0670  220.2370 N   0  0  0  0  0  0  0  0  0  0  0  0
  140.4760   75.9770  221.1800 C   0  0  0  0  0  0  0  0  0  0  0  0
  141.3670   75.8440  222.0560 O   0  0  0  0  0  0  0  0  0  0  0  0
  139.3870   74.9550  221.1440 C   0  0  0  0  0  0  0  0  0  0  0  0
  139.4740   74.1500  222.3350 N   0  0  0  0  0  0  0  0  0  0  0  0
  139.8320   72.7740  222.1590 C   0  0  0  0  0  0  0  0  0  0  0  0
  140.0340   72.4220  220.9530 O   0  0  0  0  0  0  0  0  0  0  0  0
  139.9550   71.8560  223.2610 C   0  0  0  0  0  0  0  0  0  0  0  0
  139.5520   70.5530  223.0740 C   0  0  0  0  0  0  0  0  0  0  0  0
  139.6200   69.5870  224.0430 C   0  0  0  0  0  0  0  0  0  0  0  0
  140.1180   69.9380  225.2780 C   0  0  0  0  0  0  0  0  0  0  0  0
  140.2050   69.0090  226.2800 C   0  0  0  0  0  0  0  0  0  0  0  0
  140.6950   69.3370  227.5080 C   0  0  0  0  0  0  0  0  0  0  0  0
  140.8010   68.1320  228.7840 Cl  0  0  0  0  0  0  0  0  0  0  0  0
  141.1100   70.6560  227.7190 C   0  0  0  0  0  0  0  0  0  0  0  0
  141.0210   71.6000  226.6970 C   0  0  0  0  0  0  0  0  0  0  0  0
  140.5210   71.2510  225.4600 C   0  0  0  0  0  0  0  0  0  0  0  0
  140.4390   72.1760  224.4760 N   0  0  0  0  0  0  0  0  0  0  0  0
  141.3440   78.8510  221.5300 C   0  0  0  0  0  0  0  0  0  0  0  0
  140.1100   79.3490  221.8940 C   0  0  0  0  0  0  0  0  0  0  0  0
  139.9710   80.1140  223.0340 C   0  0  0  0  0  0  0  0  0  0  0  0
  141.0510   80.4060  223.8440 C   0  0  0  0  0  0  0  0  0  0  0  0
  142.3040   79.9130  223.4930 C   0  0  0  0  0  0  0  0  0  0  0  0
  142.4270   79.1470  222.3460 C   0  0  0  0  0  0  0  0  0  0  0  0
  140.8668   77.5883  216.9481 H   0  0  0  0  0  0  0  0  0  0  0  0
  141.8141   78.8863  216.1453 H   0  0  0  0  0  0  0  0  0  0  0  0
  142.4254   77.1972  216.1453 H   0  0  0  0  0  0  0  0  0  0  0  0
  143.3901   78.9453  217.7569 H   0  0  0  0  0  0  0  0  0  0  0  0
  143.0893   76.8598  219.6240 H   0  0  0  0  0  0  0  0  0  0  0  0
  142.4205   76.0627  218.1598 H   0  0  0  0  0  0  0  0  0  0  0  0
  144.1119   76.6675  218.1598 H   0  0  0  0  0  0  0  0  0  0  0  0
  142.3641   79.7272  219.4275 H   0  0  0  0  0  0  0  0  0  0  0  0
  140.8270   79.0032  218.6564 H   0  0  0  0  0  0  0  0  0  0  0  0
  142.4708   77.4310  220.3656 H   0  0  0  0  0  0  0  0  0  0  0  0
  139.6890   77.0670  219.5680 H   0  0  0  0  0  0  0  0  0  0  0  0
  138.4088   75.4567  221.1063 H   0  0  0  0  0  0  0  0  0  0  0  0
  139.4960   74.3203  220.2522 H   0  0  0  0  0  0  0  0  0  0  0  0
  139.2900   74.5220  223.3020 H   0  0  0  0  0  0  0  0  0  0  0  0
  139.1520   70.2710  222.0889 H   0  0  0  0  0  0  0  0  0  0  0  0
  139.2858   68.5588  223.8401 H   0  0  0  0  0  0  0  0  0  0  0  0
  139.8728   67.9778  226.0897 H   0  0  0  0  0  0  0  0  0  0  0  0
  141.5102   70.9511  228.7002 H   0  0  0  0  0  0  0  0  0  0  0  0
  141.3527   72.6329  226.8790 H   0  0  0  0  0  0  0  0  0  0  0  0
  139.2296   79.1345  221.2703 H   0  0  0  0  0  0  0  0  0  0  0  0
  138.9770   80.5002  223.3039 H   0  0  0  0  0  0  0  0  0  0  0  0
  140.9230   81.0169  224.7497 H   0  0  0  0  0  0  0  0  0  0  0  0
  143.1836   80.1285  224.1173 H   0  0  0  0  0  0  0  0  0  0  0  0
  143.4191   78.7590  222.0716 H   0  0  0  0  0  0  0  0  0  0  0  0
  1  2  1  0
  2  3  1  0
  2  4  1  0
  4  5  1  0
  5  6  1  0
  6  7  1  0
  7  8  2  0
  7  9  1  0
  9 10  1  0
 10 11  1  0
 11 12  2  0
 11 13  1  0
 13 14  2  0
 14 15  1  0
 15 16  2  0
 16 17  1  0
 17 18  2  0
 18 19  1  0
 18 20  1  0
 20 21  2  0
 21 22  1  0
 22 23  2  0
  5 24  1  0
 24 25  2  0
 25 26  1  0
 26 27  2  0
 27 28  1  0
 28 29  2  0
 23 13  1  0
 29 24  1  0
 22 16  1  0
  1 30  1  0
  1 31  1  0
  1 32  1  0
  2 33  1  0
  3 34  1  0
  3 35  1  0
  3 36  1  0
  4 37  1  0
  4 38  1  0
  5 39  1  1
  6 40  1  0
  9 41  1  0
  9 42  1  0
 10 43  1  0
 14 44  1  0
 15 45  1  0
 17 46  1  0
 20 47  1  0
 21 48  1  0
 25 49  1  0
 26 50  1  0
 27 51  1  0
 28 52  1  0
 29 53  1  0
M  END
>  <smiles>  (37) 
CC(C)C[C@H](NC(=O)CNC(=O)c1ccc2cc(Cl)ccc2n1)c1ccccc1

>  <score_type>  (37) 
oracle

>  <origin>  (37) 
autodockgpu

>  <m_score__min__energy>  (37) 
-9

>  <m_primary>  (37) 
energy

>  <rmsd>  (37) 
2.230575206562049

>  <m_score__min__rmsd>  (37) 
2.230575206562049

>  <meeko>  (37) 
{"free_energy": -8.29, "intermolecular_energy": -10.37, "internal_energy": -1.58, "cluster_size": 7, "cluster_id": 2, "rank_in_cluster": 5}

>  <energy>  (37) 
-7.8

>  <cluster_rmsd>  (37) 
1.19

>  <cluster>  (37) 
4

$$$$

     RDKit          3D

 53 55  0  0  0  0  0  0  0  0999 V2000
  138.2180   80.2090  224.0380 C   0  0  0  0  0  0  0  0  0  0  0  0
  138.1340   80.3970  222.5600 C   0  0  0  0  0  0  0  0  0  0  0  0
  136.7590   81.0180  222.2710 C   0  0  0  0  0  0  0  0  0  0  0  0
  138.2310   79.1770  221.7290 C   0  0  0  0  0  0  0  0  0  0  0  0
  139.5380   78.8440  221.1200 C   0  0  2  0  0  0  0  0  0  0  0  0
  139.7490   77.5010  220.6980 N   0  0  0  0  0  0  0  0  0  0  0  0
  139.2450   76.4310  221.5220 C   0  0  0  0  0  0  0  0  0  0  0  0
  138.6290   76.6490  222.5960 O   0  0  0  0  0  0  0  0  0  0  0  0
  139.4440   75.0070  221.1180 C   0  0  0  0  0  0  0  0  0  0  0  0
  139.4760   74.1930  222.3060 N   0  0  0  0  0  0  0  0  0  0  0  0
  139.9090   72.8360  222.1470 C   0  0  0  0  0  0  0  0  0  0  0  0
  140.2170   72.5070  220.9560 O   0  0  0  0  0  0  0  0  0  0  0  0
  139.9900   71.9120  223.2480 C   0  0  0  0  0  0  0  0  0  0  0  0
  139.5460   70.6240  223.0540 C   0  0  0  0  0  0  0  0  0  0  0  0
  139.5710   69.6540  224.0200 C   0  0  0  0  0  0  0  0  0  0  0  0
  140.0690   69.9850  225.2620 C   0  0  0  0  0  0  0  0  0  0  0  0
  140.1150   69.0520  226.2610 C   0  0  0  0  0  0  0  0  0  0  0  0
  140.6040   69.3600  227.4950 C   0  0  0  0  0  0  0  0  0  0  0  0
  140.6560   68.1500  228.7690 Cl  0  0  0  0  0  0  0  0  0  0  0  0
  141.0600   70.6640  227.7140 C   0  0  0  0  0  0  0  0  0  0  0  0
  141.0130   71.6130  226.6930 C   0  0  0  0  0  0  0  0  0  0  0  0
  140.5140   71.2840  225.4510 C   0  0  0  0  0  0  0  0  0  0  0  0
  140.4720   72.2130  224.4680 N   0  0  0  0  0  0  0  0  0  0  0  0
  140.6950   79.2550  221.9690 C   0  0  0  0  0  0  0  0  0  0  0  0
  141.0530   78.5720  223.1130 C   0  0  0  0  0  0  0  0  0  0  0  0
  142.1300   78.9860  223.8700 C   0  0  0  0  0  0  0  0  0  0  0  0
  142.8820   80.0890  223.5140 C   0  0  0  0  0  0  0  0  0  0  0  0
  142.5360   80.7910  222.3640 C   0  0  0  0  0  0  0  0  0  0  0  0
  141.4530   80.3630  221.6150 C   0  0  0  0  0  0  0  0  0  0  0  0
  137.8196   81.1006  224.5443 H   0  0  0  0  0  0  0  0  0  0  0  0
  137.6281   79.3275  224.3296 H   0  0  0  0  0  0  0  0  0  0  0  0
  139.2682   80.0603  224.3296 H   0  0  0  0  0  0  0  0  0  0  0  0
  139.0047   81.0123  222.2891 H   0  0  0  0  0  0  0  0  0  0  0  0
  136.2530   81.2465  223.2206 H   0  0  0  0  0  0  0  0  0  0  0  0
  136.8894   81.9446  221.6927 H   0  0  0  0  0  0  0  0  0  0  0  0
  136.1500   80.3075  221.6927 H   0  0  0  0  0  0  0  0  0  0  0  0
  137.9418   78.3267  222.3641 H   0  0  0  0  0  0  0  0  0  0  0  0
  137.5758   79.3817  220.8695 H   0  0  0  0  0  0  0  0  0  0  0  0
  139.4839   79.4415  220.1980 H   0  0  0  0  0  0  0  0  0  0  0  0
  140.2340   77.1870  219.8320 H   0  0  0  0  0  0  0  0  0  0  0  0
  138.6145   74.6859  220.4709 H   0  0  0  0  0  0  0  0  0  0  0  0
  140.3887   74.9017  220.5644 H   0  0  0  0  0  0  0  0  0  0  0  0
  139.2040   74.5450  223.2590 H   0  0  0  0  0  0  0  0  0  0  0  0
  139.1473   70.3579  222.0639 H   0  0  0  0  0  0  0  0  0  0  0  0
  139.2038   68.6385  223.8107 H   0  0  0  0  0  0  0  0  0  0  0  0
  139.7501   68.0331  226.0645 H   0  0  0  0  0  0  0  0  0  0  0  0
  141.4592   70.9435  228.7002 H   0  0  0  0  0  0  0  0  0  0  0  0
  141.3776   72.6337  226.8807 H   0  0  0  0  0  0  0  0  0  0  0  0
  140.4748   77.6896  223.4245 H   0  0  0  0  0  0  0  0  0  0  0  0
  142.3960   78.4248  224.7779 H   0  0  0  0  0  0  0  0  0  0  0  0
  143.7378   80.4059  224.1281 H   0  0  0  0  0  0  0  0  0  0  0  0
  143.1146   81.6737  222.0540 H   0  0  0  0  0  0  0  0  0  0  0  0
  141.1833   80.9212  220.7063 H   0  0  0  0  0  0  0  0  0  0  0  0
  1  2  1  0
  2  3  1  0
  2  4  1  0
  4  5  1  0
  5  6  1  0
  6  7  1  0
  7  8  2  0
  7  9  1  0
  9 10  1  0
 10 11  1  0
 11 12  2  0
 11 13  1  0
 13 14  2  0
 14 15  1  0
 15 16  2  0
 16 17  1  0
 17 18  2  0
 18 19  1  0
 18 20  1  0
 20 21  2  0
 21 22  1  0
 22 23  2  0
  5 24  1  0
 24 25  2  0
 25 26  1  0
 26 27  2  0
 27 28  1  0
 28 29  2  0
 23 13  1  0
 29 24  1  0
 22 16  1  0
  1 30  1  0
  1 31  1  0
  1 32  1  0
  2 33  1  0
  3 34  1  0
  3 35  1  0
  3 36  1  0
  4 37  1  0
  4 38  1  0
  5 39  1  6
  6 40  1  0
  9 41  1  0
  9 42  1  0
 10 43  1  0
 14 44  1  0
 15 45  1  0
 17 46  1  0
 20 47  1  0
 21 48  1  0
 25 49  1  0
 26 50  1  0
 27 51  1  0
 28 52  1  0
 29 53  1  0
M  END
>  <smiles>  (38) 
CC(C)C[C@H](NC(=O)CNC(=O)c1ccc2cc(Cl)ccc2n1)c1ccccc1

>  <score_type>  (38) 
oracle

>  <origin>  (38) 
autodockgpu

>  <m_score__min__energy>  (38) 
-9

>  <m_primary>  (38) 
energy

>  <rmsd>  (38) 
3.8650625703503385

>  <m_score__min__rmsd>  (38) 
3.8650625703503385

>  <meeko>  (38) 
{"free_energy": -8.22, "intermolecular_energy": -10.3, "internal_energy": -1.85, "cluster_size": 16, "cluster_id": 1, "rank_in_cluster": 12}

>  <energy>  (38) 
-7.78

>  <cluster_rmsd>  (38) 
0.6

>  <cluster>  (38) 
4

$$$$

     RDKit          3D

 53 55  0  0  0  0  0  0  0  0999 V2000
  146.0220   73.3120  221.1180 C   0  0  0  0  0  0  0  0  0  0  0  0
  144.5490   73.3900  220.8890 C   0  0  0  0  0  0  0  0  0  0  0  0
  144.0690   71.9580  220.6070 C   0  0  0  0  0  0  0  0  0  0  0  0
  144.0970   74.2190  219.7510 C   0  0  0  0  0  0  0  0  0  0  0  0
  143.0770   75.2610  220.0020 C   0  0  2  0  0  0  0  0  0  0  0  0
  141.7540   74.8330  220.3060 N   0  0  0  0  0  0  0  0  0  0  0  0
  141.1640   73.7910  219.5030 C   0  0  0  0  0  0  0  0  0  0  0  0
  141.7800   73.2530  218.5500 O   0  0  0  0  0  0  0  0  0  0  0  0
  139.7780   73.3100  219.7870 C   0  0  0  0  0  0  0  0  0  0  0  0
  139.8450   72.2900  220.8030 N   0  0  0  0  0  0  0  0  0  0  0  0
  139.9830   72.7360  222.1570 C   0  0  0  0  0  0  0  0  0  0  0  0
  140.0310   73.9990  222.3040 O   0  0  0  0  0  0  0  0  0  0  0  0
  140.0610   71.8270  223.2710 C   0  0  0  0  0  0  0  0  0  0  0  0
  139.6320   70.5320  223.0880 C   0  0  0  0  0  0  0  0  0  0  0  0
  139.6560   69.5750  224.0670 C   0  0  0  0  0  0  0  0  0  0  0  0
  140.1350   69.9270  225.3100 C   0  0  0  0  0  0  0  0  0  0  0  0
  140.1790   69.0070  226.3220 C   0  0  0  0  0  0  0  0  0  0  0  0
  140.6500   69.3360  227.5570 C   0  0  0  0  0  0  0  0  0  0  0  0
  140.7000   68.1420  228.8470 Cl  0  0  0  0  0  0  0  0  0  0  0  0
  141.0910   70.6470  227.7650 C   0  0  0  0  0  0  0  0  0  0  0  0
  141.0460   71.5830  226.7310 C   0  0  0  0  0  0  0  0  0  0  0  0
  140.5650   71.2330  225.4870 C   0  0  0  0  0  0  0  0  0  0  0  0
  140.5260   72.1480  224.4920 N   0  0  0  0  0  0  0  0  0  0  0  0
  143.0010   76.2740  218.9070 C   0  0  0  0  0  0  0  0  0  0  0  0
  143.3770   75.9910  217.6100 C   0  0  0  0  0  0  0  0  0  0  0  0
  143.2910   76.9570  216.6290 C   0  0  0  0  0  0  0  0  0  0  0  0
  142.8310   78.2300  216.9060 C   0  0  0  0  0  0  0  0  0  0  0  0
  142.4470   78.5340  218.2070 C   0  0  0  0  0  0  0  0  0  0  0  0
  142.5400   77.5540  219.1820 C   0  0  0  0  0  0  0  0  0  0  0  0
  146.2250   73.3012  222.1991 H   0  0  0  0  0  0  0  0  0  0  0  0
  146.4158   72.3917  220.6618 H   0  0  0  0  0  0  0  0  0  0  0  0
  146.5108   74.1855  220.6618 H   0  0  0  0  0  0  0  0  0  0  0  0
  144.1340   73.8669  221.7892 H   0  0  0  0  0  0  0  0  0  0  0  0
  143.8939   71.4358  221.5592 H   0  0  0  0  0  0  0  0  0  0  0  0
  143.1331   71.9919  220.0300 H   0  0  0  0  0  0  0  0  0  0  0  0
  144.8363   71.4211  220.0300 H   0  0  0  0  0  0  0  0  0  0  0  0
  144.9851   74.7244  219.3436 H   0  0  0  0  0  0  0  0  0  0  0  0
  143.5965   73.5065  219.0788 H   0  0  0  0  0  0  0  0  0  0  0  0
  143.4691   75.7013  220.9307 H   0  0  0  0  0  0  0  0  0  0  0  0
  141.1420   75.1890  221.0690 H   0  0  0  0  0  0  0  0  0  0  0  0
  139.1605   74.1478  220.1430 H   0  0  0  0  0  0  0  0  0  0  0  0
  139.3274   72.8996  218.8713 H   0  0  0  0  0  0  0  0  0  0  0  0
  139.7960   71.2600  220.5950 H   0  0  0  0  0  0  0  0  0  0  0  0
  139.2473   70.2493  222.0970 H   0  0  0  0  0  0  0  0  0  0  0  0
  139.3025   68.5528  223.8665 H   0  0  0  0  0  0  0  0  0  0  0  0
  139.8272   67.9818  226.1345 H   0  0  0  0  0  0  0  0  0  0  0  0
  141.4765   70.9426  228.7519 H   0  0  0  0  0  0  0  0  0  0  0  0
  141.3976   72.6098  226.9100 H   0  0  0  0  0  0  0  0  0  0  0  0
  143.7483   74.9871  217.3562 H   0  0  0  0  0  0  0  0  0  0  0  0
  143.5959   76.7079  215.6019 H   0  0  0  0  0  0  0  0  0  0  0  0
  142.7697   78.9888  216.1119 H   0  0  0  0  0  0  0  0  0  0  0  0
  142.0747   79.5380  218.4587 H   0  0  0  0  0  0  0  0  0  0  0  0
  142.2376   77.7991  220.2108 H   0  0  0  0  0  0  0  0  0  0  0  0
  1  2  1  0
  2  3  1  0
  2  4  1  0
  4  5  1  0
  5  6  1  0
  6  7  1  0
  7  8  2  0
  7  9  1  0
  9 10  1  0
 10 11  1  0
 11 12  2  0
 11 13  1  0
 13 14  2  0
 14 15  1  0
 15 16  2  0
 16 17  1  0
 17 18  2  0
 18 19  1  0
 18 20  1  0
 20 21  2  0
 21 22  1  0
 22 23  2  0
  5 24  1  0
 24 25  2  0
 25 26  1  0
 26 27  2  0
 27 28  1  0
 28 29  2  0
 23 13  1  0
 29 24  1  0
 22 16  1  0
  1 30  1  0
  1 31  1  0
  1 32  1  0
  2 33  1  0
  3 34  1  0
  3 35  1  0
  3 36  1  0
  4 37  1  0
  4 38  1  0
  5 39  1  1
  6 40  1  0
  9 41  1  0
  9 42  1  0
 10 43  1  0
 14 44  1  0
 15 45  1  0
 17 46  1  0
 20 47  1  0
 21 48  1  0
 25 49  1  0
 26 50  1  0
 27 51  1  0
 28 52  1  0
 29 53  1  0
M  END
>  <smiles>  (39) 
CC(C)C[C@H](NC(=O)CNC(=O)c1ccc2cc(Cl)ccc2n1)c1ccccc1

>  <score_type>  (39) 
oracle

>  <origin>  (39) 
autodockgpu

>  <m_score__min__energy>  (39) 
-9

>  <m_primary>  (39) 
energy

>  <rmsd>  (39) 
3.6356880353334406

>  <m_score__min__rmsd>  (39) 
3.6356880353334406

>  <meeko>  (39) 
{"free_energy": -7.8, "intermolecular_energy": -9.89, "internal_energy": -2.23, "cluster_size": 11, "cluster_id": 4, "rank_in_cluster": 8}

>  <energy>  (39) 
-7.73

>  <cluster_rmsd>  (39) 
1.25

>  <cluster>  (39) 
4

$$$$

     RDKit          3D

 53 55  0  0  0  0  0  0  0  0999 V2000
  142.9230   77.7230  217.0440 C   0  0  0  0  0  0  0  0  0  0  0  0
  142.1670   77.5250  218.3150 C   0  0  0  0  0  0  0  0  0  0  0  0
  142.0780   78.9000  218.9950 C   0  0  0  0  0  0  0  0  0  0  0  0
  142.7640   76.6010  219.3050 C   0  0  0  0  0  0  0  0  0  0  0  0
  142.4810   75.1550  219.1760 C   0  0  2  0  0  0  0  0  0  0  0  0
  141.1740   74.7030  219.5140 N   0  0  0  0  0  0  0  0  0  0  0  0
  140.4420   75.4080  220.5370 C   0  0  0  0  0  0  0  0  0  0  0  0
  140.9230   76.4040  221.1340 O   0  0  0  0  0  0  0  0  0  0  0  0
  139.0680   74.9690  220.9240 C   0  0  0  0  0  0  0  0  0  0  0  0
  139.1630   74.1600  222.1130 N   0  0  0  0  0  0  0  0  0  0  0  0
  139.7150   72.8470  221.9570 C   0  0  0  0  0  0  0  0  0  0  0  0
  140.0610   72.5480  220.7690 O   0  0  0  0  0  0  0  0  0  0  0  0
  139.8680   71.9330  223.0590 C   0  0  0  0  0  0  0  0  0  0  0  0
  139.4950   70.6210  222.8750 C   0  0  0  0  0  0  0  0  0  0  0  0
  139.5930   69.6570  223.8440 C   0  0  0  0  0  0  0  0  0  0  0  0
  140.0920   70.0210  225.0750 C   0  0  0  0  0  0  0  0  0  0  0  0
  140.2090   69.0950  226.0760 C   0  0  0  0  0  0  0  0  0  0  0  0
  140.7000   69.4340  227.3010 C   0  0  0  0  0  0  0  0  0  0  0  0
  140.8440   68.2340  228.5760 Cl  0  0  0  0  0  0  0  0  0  0  0  0
  141.0850   70.7640  227.5080 C   0  0  0  0  0  0  0  0  0  0  0  0
  140.9650   71.7050  226.4860 C   0  0  0  0  0  0  0  0  0  0  0  0
  140.4650   71.3430  225.2530 C   0  0  0  0  0  0  0  0  0  0  0  0
  140.3530   72.2650  224.2690 N   0  0  0  0  0  0  0  0  0  0  0  0
  143.4720   74.3040  219.8980 C   0  0  0  0  0  0  0  0  0  0  0  0
  143.2320   72.9780  220.1960 C   0  0  0  0  0  0  0  0  0  0  0  0
  144.1760   72.2270  220.8650 C   0  0  0  0  0  0  0  0  0  0  0  0
  145.3840   72.7690  221.2570 C   0  0  0  0  0  0  0  0  0  0  0  0
  145.6450   74.1040  220.9660 C   0  0  0  0  0  0  0  0  0  0  0  0
  144.6870   74.8450  220.2940 C   0  0  0  0  0  0  0  0  0  0  0  0
  143.9634   77.9955  217.2749 H   0  0  0  0  0  0  0  0  0  0  0  0
  142.9090   76.7909  216.4601 H   0  0  0  0  0  0  0  0  0  0  0  0
  142.4539   78.5286  216.4601 H   0  0  0  0  0  0  0  0  0  0  0  0
  141.2084   77.0714  218.0229 H   0  0  0  0  0  0  0  0  0  0  0  0
  142.0864   78.7701  220.0873 H   0  0  0  0  0  0  0  0  0  0  0  0
  142.9382   79.5151  218.6923 H   0  0  0  0  0  0  0  0  0  0  0  0
  141.1457   79.3991  218.6923 H   0  0  0  0  0  0  0  0  0  0  0  0
  143.8555   76.7252  219.2492 H   0  0  0  0  0  0  0  0  0  0  0  0
  142.2943   76.8850  220.2583 H   0  0  0  0  0  0  0  0  0  0  0  0
  142.5656   75.0337  218.0860 H   0  0  0  0  0  0  0  0  0  0  0  0
  140.6620   73.9010  219.0930 H   0  0  0  0  0  0  0  0  0  0  0  0
  138.4399   75.8496  221.1239 H   0  0  0  0  0  0  0  0  0  0  0  0
  138.6150   74.3869  220.1079 H   0  0  0  0  0  0  0  0  0  0  0  0
  138.8510   74.4860  223.0630 H   0  0  0  0  0  0  0  0  0  0  0  0
  139.0949   70.3292  221.8928 H   0  0  0  0  0  0  0  0  0  0  0  0
  139.2817   68.6211  223.6442 H   0  0  0  0  0  0  0  0  0  0  0  0
  139.9004   68.0561  225.8878 H   0  0  0  0  0  0  0  0  0  0  0  0
  141.4858   71.0695  228.4858 H   0  0  0  0  0  0  0  0  0  0  0  0
  141.2721   72.7460  226.6651 H   0  0  0  0  0  0  0  0  0  0  0  0
  142.2795   72.5159  219.8974 H   0  0  0  0  0  0  0  0  0  0  0  0
  143.9616   71.1721  221.0914 H   0  0  0  0  0  0  0  0  0  0  0  0
  146.1263   72.1563  221.7896 H   0  0  0  0  0  0  0  0  0  0  0  0
  146.5982   74.5644  221.2652 H   0  0  0  0  0  0  0  0  0  0  0  0
  144.8968   75.9005  220.0660 H   0  0  0  0  0  0  0  0  0  0  0  0
  1  2  1  0
  2  3  1  0
  2  4  1  0
  4  5  1  0
  5  6  1  0
  6  7  1  0
  7  8  2  0
  7  9  1  0
  9 10  1  0
 10 11  1  0
 11 12  2  0
 11 13  1  0
 13 14  2  0
 14 15  1  0
 15 16  2  0
 16 17  1  0
 17 18  2  0
 18 19  1  0
 18 20  1  0
 20 21  2  0
 21 22  1  0
 22 23  2  0
  5 24  1  0
 24 25  2  0
 25 26  1  0
 26 27  2  0
 27 28  1  0
 28 29  2  0
 23 13  1  0
 29 24  1  0
 22 16  1  0
  1 30  1  0
  1 31  1  0
  1 32  1  0
  2 33  1  0
  3 34  1  0
  3 35  1  0
  3 36  1  0
  4 37  1  0
  4 38  1  0
  5 39  1  6
  6 40  1  0
  9 41  1  0
  9 42  1  0
 10 43  1  0
 14 44  1  0
 15 45  1  0
 17 46  1  0
 20 47  1  0
 21 48  1  0
 25 49  1  0
 26 50  1  0
 27 51  1  0
 28 52  1  0
 29 53  1  0
M  END
>  <smiles>  (40) 
CC(C)C[C@H](NC(=O)CNC(=O)c1ccc2cc(Cl)ccc2n1)c1ccccc1

>  <score_type>  (40) 
oracle

>  <origin>  (40) 
autodockgpu

>  <m_score__min__energy>  (40) 
-9

>  <m_primary>  (40) 
energy

>  <rmsd>  (40) 
2.4691441161864636

>  <m_score__min__rmsd>  (40) 
2.4691441161864636

>  <meeko>  (40) 
{"free_energy": -7.9, "intermolecular_energy": -9.99, "internal_energy": -2.16, "cluster_size": 3, "cluster_id": 6, "rank_in_cluster": 1}

>  <energy>  (40) 
-7.16

>  <cluster_rmsd>  (40) 
0.7

>  <cluster>  (40) 
4

$$$$

     RDKit          3D

 53 55  0  0  0  0  0  0  0  0999 V2000
  134.9250   74.4300  222.6300 C   0  0  0  0  0  0  0  0  0  0  0  0
  135.8290   74.9170  223.7130 C   0  0  0  0  0  0  0  0  0  0  0  0
  134.9630   75.0850  224.9700 C   0  0  0  0  0  0  0  0  0  0  0  0
  136.4990   76.2150  223.4840 C   0  0  0  0  0  0  0  0  0  0  0  0
  137.5130   76.3040  222.4090 C   0  0  2  0  0  0  0  0  0  0  0  0
  138.1530   75.0990  222.0030 N   0  0  0  0  0  0  0  0  0  0  0  0
  138.0560   74.6960  220.6220 C   0  0  0  0  0  0  0  0  0  0  0  0
  137.4260   75.3750  219.7720 O   0  0  0  0  0  0  0  0  0  0  0  0
  138.7120   73.4400  220.1520 C   0  0  0  0  0  0  0  0  0  0  0  0
  138.7120   72.4890  221.2350 N   0  0  0  0  0  0  0  0  0  0  0  0
  139.7560   72.6190  222.2070 C   0  0  0  0  0  0  0  0  0  0  0  0
  140.5710   73.5730  221.9950 O   0  0  0  0  0  0  0  0  0  0  0  0
  139.8770   71.7390  223.3410 C   0  0  0  0  0  0  0  0  0  0  0  0
  139.4390   70.4410  223.2090 C   0  0  0  0  0  0  0  0  0  0  0  0
  139.5000   69.5100  224.2110 C   0  0  0  0  0  0  0  0  0  0  0  0
  140.0290   69.8930  225.4240 C   0  0  0  0  0  0  0  0  0  0  0  0
  140.1110   69.0000  226.4580 C   0  0  0  0  0  0  0  0  0  0  0  0
  140.6320   69.3590  227.6640 C   0  0  0  0  0  0  0  0  0  0  0  0
  140.7310   68.2000  228.9820 Cl  0  0  0  0  0  0  0  0  0  0  0  0
  141.0830   70.6740  227.8190 C   0  0  0  0  0  0  0  0  0  0  0  0
  140.9980   71.5830  226.7640 C   0  0  0  0  0  0  0  0  0  0  0  0
  140.4680   71.2010  225.5500 C   0  0  0  0  0  0  0  0  0  0  0  0
  140.3900   72.0910  224.5340 N   0  0  0  0  0  0  0  0  0  0  0  0
  138.5660   77.3240  222.6890 C   0  0  0  0  0  0  0  0  0  0  0  0
  138.2660   78.5970  223.1280 C   0  0  0  0  0  0  0  0  0  0  0  0
  139.2720   79.5090  223.3750 C   0  0  0  0  0  0  0  0  0  0  0  0
  140.6020   79.1850  223.1920 C   0  0  0  0  0  0  0  0  0  0  0  0
  140.9240   77.9060  222.7500 C   0  0  0  0  0  0  0  0  0  0  0  0
  139.9040   77.0020  222.5070 C   0  0  0  0  0  0  0  0  0  0  0  0
  134.0403   73.9534  223.0775 H   0  0  0  0  0  0  0  0  0  0  0  0
  134.6082   75.2795  222.0071 H   0  0  0  0  0  0  0  0  0  0  0  0
  135.4602   73.6981  222.0071 H   0  0  0  0  0  0  0  0  0  0  0  0
  136.6359   74.1727  223.7828 H   0  0  0  0  0  0  0  0  0  0  0  0
  135.5896   74.9634  225.8659 H   0  0  0  0  0  0  0  0  0  0  0  0
  134.5106   76.0877  224.9723 H   0  0  0  0  0  0  0  0  0  0  0  0
  134.1685   74.3242  224.9723 H   0  0  0  0  0  0  0  0  0  0  0  0
  135.7139   76.9498  223.2521 H   0  0  0  0  0  0  0  0  0  0  0  0
  137.0686   76.3920  224.4082 H   0  0  0  0  0  0  0  0  0  0  0  0
  136.8792   76.6049  221.5618 H   0  0  0  0  0  0  0  0  0  0  0  0
  138.7080   74.4540  222.6020 H   0  0  0  0  0  0  0  0  0  0  0  0
  138.1552   73.0284  219.2972 H   0  0  0  0  0  0  0  0  0  0  0  0
  139.7445   73.6504  219.8362 H   0  0  0  0  0  0  0  0  0  0  0  0
  137.9960   71.7260  221.3370 H   0  0  0  0  0  0  0  0  0  0  0  0
  139.0150   70.1335  222.2417 H   0  0  0  0  0  0  0  0  0  0  0  0
  139.1365   68.4841  224.0518 H   0  0  0  0  0  0  0  0  0  0  0  0
  139.7488   67.9717  226.3120 H   0  0  0  0  0  0  0  0  0  0  0  0
  141.5085   70.9943  228.7814 H   0  0  0  0  0  0  0  0  0  0  0  0
  141.3570   72.6136  226.9021 H   0  0  0  0  0  0  0  0  0  0  0  0
  137.2164   78.8875  223.2825 H   0  0  0  0  0  0  0  0  0  0  0  0
  139.0083   80.5176  223.7259 H   0  0  0  0  0  0  0  0  0  0  0  0
  141.3916   79.9243  223.3920 H   0  0  0  0  0  0  0  0  0  0  0  0
  141.9741   77.6170  222.5957 H   0  0  0  0  0  0  0  0  0  0  0  0
  140.1632   75.9919  222.1570 H   0  0  0  0  0  0  0  0  0  0  0  0
  1  2  1  0
  2  3  1  0
  2  4  1  0
  4  5  1  0
  5  6  1  0
  6  7  1  0
  7  8  2  0
  7  9  1  0
  9 10  1  0
 10 11  1  0
 11 12  2  0
 11 13  1  0
 13 14  2  0
 14 15  1  0
 15 16  2  0
 16 17  1  0
 17 18  2  0
 18 19  1  0
 18 20  1  0
 20 21  2  0
 21 22  1  0
 22 23  2  0
  5 24  1  0
 24 25  2  0
 25 26  1  0
 26 27  2  0
 27 28  1  0
 28 29  2  0
 23 13  1  0
 29 24  1  0
 22 16  1  0
  1 30  1  0
  1 31  1  0
  1 32  1  0
  2 33  1  0
  3 34  1  0
  3 35  1  0
  3 36  1  0
  4 37  1  0
  4 38  1  0
  5 39  1  6
  6 40  1  0
  9 41  1  0
  9 42  1  0
 10 43  1  0
 14 44  1  0
 15 45  1  0
 17 46  1  0
 20 47  1  0
 21 48  1  0
 25 49  1  0
 26 50  1  0
 27 51  1  0
 28 52  1  0
 29 53  1  0
M  END
>  <smiles>  (41) 
CC(C)C[C@H](NC(=O)CNC(=O)c1ccc2cc(Cl)ccc2n1)c1ccccc1

>  <score_type>  (41) 
oracle

>  <origin>  (41) 
autodockgpu

>  <m_score__min__energy>  (41) 
-9

>  <m_primary>  (41) 
energy

>  <rmsd>  (41) 
4.055570977851701

>  <m_score__min__rmsd>  (41) 
4.055570977851701

>  <meeko>  (41) 
{"free_energy": -7.74, "intermolecular_energy": -9.83, "internal_energy": -2.32, "cluster_size": 1, "cluster_id": 7, "rank_in_cluster": 1}

>  <energy>  (41) 
-8.19

>  <cluster_rmsd>  (41) 
0.0

>  <cluster>  (41) 
5

$$$$

     RDKit          3D

 53 55  0  0  0  0  0  0  0  0999 V2000
  137.5950   79.0060  221.1780 C   0  0  0  0  0  0  0  0  0  0  0  0
  137.8530   78.4710  222.5470 C   0  0  0  0  0  0  0  0  0  0  0  0
  138.1600   79.6800  223.4440 C   0  0  0  0  0  0  0  0  0  0  0  0
  138.9910   77.5360  222.6920 C   0  0  0  0  0  0  0  0  0  0  0  0
  140.1660   77.7200  221.8120 C   0  0  2  0  0  0  0  0  0  0  0  0
  140.9260   76.5650  221.4730 N   0  0  0  0  0  0  0  0  0  0  0  0
  140.3200   75.5610  220.6340 C   0  0  0  0  0  0  0  0  0  0  0  0
  139.1490   75.6770  220.1960 O   0  0  0  0  0  0  0  0  0  0  0  0
  141.0810   74.3340  220.2540 C   0  0  0  0  0  0  0  0  0  0  0  0
  141.2400   73.5100  221.4250 N   0  0  0  0  0  0  0  0  0  0  0  0
  140.0950   72.7580  221.8450 C   0  0  0  0  0  0  0  0  0  0  0  0
  139.0590   72.9100  221.1220 O   0  0  0  0  0  0  0  0  0  0  0  0
  140.1120   71.8950  222.9970 C   0  0  0  0  0  0  0  0  0  0  0  0
  139.5800   70.6310  222.8750 C   0  0  0  0  0  0  0  0  0  0  0  0
  139.5380   69.7190  223.8950 C   0  0  0  0  0  0  0  0  0  0  0  0
  140.0560   70.0860  225.1180 C   0  0  0  0  0  0  0  0  0  0  0  0
  140.0370   69.2100  226.1690 C   0  0  0  0  0  0  0  0  0  0  0  0
  140.5450   69.5540  227.3860 C   0  0  0  0  0  0  0  0  0  0  0  0
  140.5130   68.4170  228.7270 Cl  0  0  0  0  0  0  0  0  0  0  0  0
  141.0900   70.8340  227.5320 C   0  0  0  0  0  0  0  0  0  0  0  0
  141.1080   71.7240  226.4590 C   0  0  0  0  0  0  0  0  0  0  0  0
  140.5890   71.3590  225.2350 C   0  0  0  0  0  0  0  0  0  0  0  0
  140.6120   72.2310  224.2000 N   0  0  0  0  0  0  0  0  0  0  0  0
  141.1050   78.7690  222.3110 C   0  0  0  0  0  0  0  0  0  0  0  0
  141.6830   79.7030  221.4750 C   0  0  0  0  0  0  0  0  0  0  0  0
  142.5450   80.6550  221.9780 C   0  0  0  0  0  0  0  0  0  0  0  0
  142.8590   80.7080  223.3220 C   0  0  0  0  0  0  0  0  0  0  0  0
  142.2860   79.7760  224.1800 C   0  0  0  0  0  0  0  0  0  0  0  0
  141.4220   78.8250  223.6610 C   0  0  0  0  0  0  0  0  0  0  0  0
  137.1183   79.9944  221.2544 H   0  0  0  0  0  0  0  0  0  0  0  0
  138.5472   79.0991  220.6352 H   0  0  0  0  0  0  0  0  0  0  0  0
  136.9292   78.3188  220.6352 H   0  0  0  0  0  0  0  0  0  0  0  0
  136.9561   77.8922  222.8125 H   0  0  0  0  0  0  0  0  0  0  0  0
  138.0842   79.3817  224.5001 H   0  0  0  0  0  0  0  0  0  0  0  0
  139.1783   80.0409  223.2371 H   0  0  0  0  0  0  0  0  0  0  0  0
  137.4373   80.4830  223.2371 H   0  0  0  0  0  0  0  0  0  0  0  0
  139.3462   77.6137  223.7302 H   0  0  0  0  0  0  0  0  0  0  0  0
  138.5799   76.5597  222.3956 H   0  0  0  0  0  0  0  0  0  0  0  0
  139.6700   78.0343  220.8818 H   0  0  0  0  0  0  0  0  0  0  0  0
  141.9030   76.3530  221.7630 H   0  0  0  0  0  0  0  0  0  0  0  0
  140.5273   73.7787  219.4826 H   0  0  0  0  0  0  0  0  0  0  0  0
  142.0671   74.6125  219.8541 H   0  0  0  0  0  0  0  0  0  0  0  0
  142.1380   73.4400  221.9690 H   0  0  0  0  0  0  0  0  0  0  0  0
  139.1641   70.3365  221.9002 H   0  0  0  0  0  0  0  0  0  0  0  0
  139.1026   68.7204  223.7425 H   0  0  0  0  0  0  0  0  0  0  0  0
  139.6034   68.2088  226.0290 H   0  0  0  0  0  0  0  0  0  0  0  0
  141.5081   71.1411  228.5020 H   0  0  0  0  0  0  0  0  0  0  0  0
  141.5404   72.7269  226.5902 H   0  0  0  0  0  0  0  0  0  0  0  0
  141.4543   79.6879  220.3991 H   0  0  0  0  0  0  0  0  0  0  0  0
  142.9930   81.3894  221.2925 H   0  0  0  0  0  0  0  0  0  0  0  0
  143.5494   81.4732  223.7064 H   0  0  0  0  0  0  0  0  0  0  0  0
  142.5153   79.7933  225.2557 H   0  0  0  0  0  0  0  0  0  0  0  0
  140.9716   78.0887  224.3429 H   0  0  0  0  0  0  0  0  0  0  0  0
  1  2  1  0
  2  3  1  0
  2  4  1  0
  4  5  1  0
  5  6  1  0
  6  7  1  0
  7  8  2  0
  7  9  1  0
  9 10  1  0
 10 11  1  0
 11 12  2  0
 11 13  1  0
 13 14  2  0
 14 15  1  0
 15 16  2  0
 16 17  1  0
 17 18  2  0
 18 19  1  0
 18 20  1  0
 20 21  2  0
 21 22  1  0
 22 23  2  0
  5 24  1  0
 24 25  2  0
 25 26  1  0
 26 27  2  0
 27 28  1  0
 28 29  2  0
 23 13  1  0
 29 24  1  0
 22 16  1  0
  1 30  1  0
  1 31  1  0
  1 32  1  0
  2 33  1  0
  3 34  1  0
  3 35  1  0
  3 36  1  0
  4 37  1  0
  4 38  1  0
  5 39  1  6
  6 40  1  0
  9 41  1  0
  9 42  1  0
 10 43  1  0
 14 44  1  0
 15 45  1  0
 17 46  1  0
 20 47  1  0
 21 48  1  0
 25 49  1  0
 26 50  1  0
 27 51  1  0
 28 52  1  0
 29 53  1  0
M  END
>  <smiles>  (42) 
CC(C)C[C@H](NC(=O)CNC(=O)c1ccc2cc(Cl)ccc2n1)c1ccccc1

>  <score_type>  (42) 
oracle

>  <origin>  (42) 
autodockgpu

>  <m_score__min__energy>  (42) 
-9

>  <m_primary>  (42) 
energy

>  <rmsd>  (42) 
3.495140031283436

>  <m_score__min__rmsd>  (42) 
3.495140031283436

>  <meeko>  (42) 
{"free_energy": -8.29, "intermolecular_energy": -10.38, "internal_energy": -1.54, "cluster_size": 16, "cluster_id": 1, "rank_in_cluster": 7}

>  <energy>  (42) 
-7.74

>  <cluster_rmsd>  (42) 
0.35

>  <cluster>  (42) 
5

$$$$

     RDKit          3D

 53 55  0  0  0  0  0  0  0  0999 V2000
  138.2670   72.1650  221.9140 C   0  0  0  0  0  0  0  0  0  0  0  0
  139.5000   72.3280  222.7380 C   0  0  0  0  0  0  0  0  0  0  0  0
  140.4560   73.2190  221.9300 C   0  0  0  0  0  0  0  0  0  0  0  0
  140.2480   71.0940  223.0650 C   0  0  0  0  0  0  0  0  0  0  0  0
  139.6320   70.1270  224.0000 C   0  0  2  0  0  0  0  0  0  0  0  0
  138.2340   69.8860  223.8780 N   0  0  0  0  0  0  0  0  0  0  0  0
  137.7810   68.9320  222.8960 C   0  0  0  0  0  0  0  0  0  0  0  0
  138.5790   68.3110  222.1510 O   0  0  0  0  0  0  0  0  0  0  0  0
  136.3230   68.6480  222.7330 C   0  0  0  0  0  0  0  0  0  0  0  0
  135.5780   69.7820  223.2180 N   0  0  0  0  0  0  0  0  0  0  0  0
  135.4170   69.8900  224.6370 C   0  0  0  0  0  0  0  0  0  0  0  0
  135.9590   68.9570  225.3110 O   0  0  0  0  0  0  0  0  0  0  0  0
  134.6960   70.9710  225.2580 C   0  0  0  0  0  0  0  0  0  0  0  0
  133.7220   70.6630  226.1790 C   0  0  0  0  0  0  0  0  0  0  0  0
  132.9700   71.5990  226.8370 C   0  0  0  0  0  0  0  0  0  0  0  0
  133.1990   72.9300  226.5600 C   0  0  0  0  0  0  0  0  0  0  0  0
  132.4730   73.9040  227.1900 C   0  0  0  0  0  0  0  0  0  0  0  0
  132.6850   75.2240  226.9300 C   0  0  0  0  0  0  0  0  0  0  0  0
  131.7450   76.4640  227.7480 Cl  0  0  0  0  0  0  0  0  0  0  0  0
  133.6710   75.5600  225.9950 C   0  0  0  0  0  0  0  0  0  0  0  0
  134.4090   74.5650  225.3550 C   0  0  0  0  0  0  0  0  0  0  0  0
  134.1810   73.2330  225.6300 C   0  0  0  0  0  0  0  0  0  0  0  0
  134.9030   72.2760  225.0030 N   0  0  0  0  0  0  0  0  0  0  0  0
  139.9310   70.4320  225.4310 C   0  0  0  0  0  0  0  0  0  0  0  0
  140.6870   71.5220  225.8120 C   0  0  0  0  0  0  0  0  0  0  0  0
  140.9400   71.7680  227.1460 C   0  0  0  0  0  0  0  0  0  0  0  0
  140.4500   70.9410  228.1380 C   0  0  0  0  0  0  0  0  0  0  0  0
  139.6850   69.8390  227.7740 C   0  0  0  0  0  0  0  0  0  0  0  0
  139.4410   69.6050  226.4310 C   0  0  0  0  0  0  0  0  0  0  0  0
  137.3961   72.0499  222.5761 H   0  0  0  0  0  0  0  0  0  0  0  0
  138.1302   73.0529  221.2792 H   0  0  0  0  0  0  0  0  0  0  0  0
  138.3656   71.2721  221.2792 H   0  0  0  0  0  0  0  0  0  0  0  0
  139.1613   72.7365  223.7016 H   0  0  0  0  0  0  0  0  0  0  0  0
  141.0831   73.8035  222.6193 H   0  0  0  0  0  0  0  0  0  0  0  0
  141.0970   72.5887  221.2961 H   0  0  0  0  0  0  0  0  0  0  0  0
  139.8723   73.9027  221.2961 H   0  0  0  0  0  0  0  0  0  0  0  0
  140.4286   70.5624  222.1191 H   0  0  0  0  0  0  0  0  0  0  0  0
  141.1429   71.4517  223.5953 H   0  0  0  0  0  0  0  0  0  0  0  0
  140.1245   69.1985  223.6756 H   0  0  0  0  0  0  0  0  0  0  0  0
  137.4730   70.3250  224.4360 H   0  0  0  0  0  0  0  0  0  0  0  0
  136.0943   68.4812  221.6701 H   0  0  0  0  0  0  0  0  0  0  0  0
  136.0493   67.7469  223.3014 H   0  0  0  0  0  0  0  0  0  0  0  0
  135.1600   70.5140  222.5880 H   0  0  0  0  0  0  0  0  0  0  0  0
  133.5362   69.6016  226.4001 H   0  0  0  0  0  0  0  0  0  0  0  0
  132.2041   71.2973  227.5667 H   0  0  0  0  0  0  0  0  0  0  0  0
  131.7032   73.6152  227.9207 H   0  0  0  0  0  0  0  0  0  0  0  0
  133.8652   76.6176  225.7632 H   0  0  0  0  0  0  0  0  0  0  0  0
  135.1810   74.8454  224.6232 H   0  0  0  0  0  0  0  0  0  0  0  0
  141.0911   72.2002  225.0460 H   0  0  0  0  0  0  0  0  0  0  0  0
  141.5457   72.6426  227.4258 H   0  0  0  0  0  0  0  0  0  0  0  0
  140.6614   71.1507  229.1969 H   0  0  0  0  0  0  0  0  0  0  0  0
  139.2795   69.1629  228.5411 H   0  0  0  0  0  0  0  0  0  0  0  0
  138.8363   68.7311  226.1468 H   0  0  0  0  0  0  0  0  0  0  0  0
  1  2  1  0
  2  3  1  0
  2  4  1  0
  4  5  1  0
  5  6  1  0
  6  7  1  0
  7  8  2  0
  7  9  1  0
  9 10  1  0
 10 11  1  0
 11 12  2  0
 11 13  1  0
 13 14  2  0
 14 15  1  0
 15 16  2  0
 16 17  1  0
 17 18  2  0
 18 19  1  0
 18 20  1  0
 20 21  2  0
 21 22  1  0
 22 23  2  0
  5 24  1  0
 24 25  2  0
 25 26  1  0
 26 27  2  0
 27 28  1  0
 28 29  2  0
 23 13  1  0
 29 24  1  0
 22 16  1  0
  1 30  1  0
  1 31  1  0
  1 32  1  0
  2 33  1  0
  3 34  1  0
  3 35  1  0
  3 36  1  0
  4 37  1  0
  4 38  1  0
  5 39  1  6
  6 40  1  0
  9 41  1  0
  9 42  1  0
 10 43  1  0
 14 44  1  0
 15 45  1  0
 17 46  1  0
 20 47  1  0
 21 48  1  0
 25 49  1  0
 26 50  1  0
 27 51  1  0
 28 52  1  0
 29 53  1  0
M  END
>  <smiles>  (43) 
CC(C)C[C@H](NC(=O)CNC(=O)c1ccc2cc(Cl)ccc2n1)c1ccccc1

>  <score_type>  (43) 
oracle

>  <origin>  (43) 
autodockgpu

>  <m_score__min__energy>  (43) 
-9

>  <m_primary>  (43) 
energy

>  <rmsd>  (43) 
7.014465710973706

>  <m_score__min__rmsd>  (43) 
7.014465710973706

>  <meeko>  (43) 
{"free_energy": -7.09, "intermolecular_energy": -9.18, "internal_energy": -2.4, "cluster_size": 6, "cluster_id": 3, "rank_in_cluster": 6}

>  <energy>  (43) 
-7.73

>  <cluster_rmsd>  (43) 
0.69

>  <cluster>  (43) 
5

$$$$

     RDKit          3D

 53 55  0  0  0  0  0  0  0  0999 V2000
  145.8850   73.7620  220.9470 C   0  0  0  0  0  0  0  0  0  0  0  0
  144.7520   72.8990  220.5030 C   0  0  0  0  0  0  0  0  0  0  0  0
  145.3410   71.8550  219.5420 C   0  0  0  0  0  0  0  0  0  0  0  0
  143.6520   73.5700  219.7760 C   0  0  0  0  0  0  0  0  0  0  0  0
  143.1260   74.8430  220.3170 C   0  0  2  0  0  0  0  0  0  0  0  0
  141.8850   74.8030  221.0130 N   0  0  0  0  0  0  0  0  0  0  0  0
  140.6650   74.7370  220.2470 C   0  0  0  0  0  0  0  0  0  0  0  0
  140.6670   74.7130  218.9900 O   0  0  0  0  0  0  0  0  0  0  0  0
  139.3400   74.6940  220.9350 C   0  0  0  0  0  0  0  0  0  0  0  0
  139.4820   73.9410  222.1560 N   0  0  0  0  0  0  0  0  0  0  0  0
  139.6610   72.5260  222.0230 C   0  0  0  0  0  0  0  0  0  0  0  0
  139.6740   72.0970  220.8250 O   0  0  0  0  0  0  0  0  0  0  0  0
  139.8160   71.6520  223.1570 C   0  0  0  0  0  0  0  0  0  0  0  0
  139.4270   70.3390  223.0280 C   0  0  0  0  0  0  0  0  0  0  0  0
  139.5230   69.4120  224.0310 C   0  0  0  0  0  0  0  0  0  0  0  0
  140.0380   69.8160  225.2430 C   0  0  0  0  0  0  0  0  0  0  0  0
  140.1550   68.9280  226.2780 C   0  0  0  0  0  0  0  0  0  0  0  0
  140.6620   69.3080  227.4840 C   0  0  0  0  0  0  0  0  0  0  0  0
  140.8060   68.1560  228.8030 Cl  0  0  0  0  0  0  0  0  0  0  0  0
  141.0630   70.6400  227.6370 C   0  0  0  0  0  0  0  0  0  0  0  0
  140.9430   71.5430  226.5810 C   0  0  0  0  0  0  0  0  0  0  0  0
  140.4270   71.1410  225.3670 C   0  0  0  0  0  0  0  0  0  0  0  0
  140.3160   72.0250  224.3500 N   0  0  0  0  0  0  0  0  0  0  0  0
  143.0530   75.9240  219.2890 C   0  0  0  0  0  0  0  0  0  0  0  0
  143.4250   75.7220  217.9750 C   0  0  0  0  0  0  0  0  0  0  0  0
  143.3410   76.7490  217.0580 C   0  0  0  0  0  0  0  0  0  0  0  0
  142.8870   78.0030  217.4160 C   0  0  0  0  0  0  0  0  0  0  0  0
  142.5070   78.2250  218.7350 C   0  0  0  0  0  0  0  0  0  0  0  0
  142.5970   77.1850  219.6450 C   0  0  0  0  0  0  0  0  0  0  0  0
  145.9179   73.7871  222.0462 H   0  0  0  0  0  0  0  0  0  0  0  0
  146.8305   73.3531  220.5611 H   0  0  0  0  0  0  0  0  0  0  0  0
  145.7420   74.7821  220.5611 H   0  0  0  0  0  0  0  0  0  0  0  0
  144.3025   72.5022  221.4252 H   0  0  0  0  0  0  0  0  0  0  0  0
  145.8003   71.0409  220.1218 H   0  0  0  0  0  0  0  0  0  0  0  0
  144.5400   71.4470  218.9081 H   0  0  0  0  0  0  0  0  0  0  0  0
  146.1044   72.3297  218.9081 H   0  0  0  0  0  0  0  0  0  0  0  0
  144.0121   73.7736  218.7568 H   0  0  0  0  0  0  0  0  0  0  0  0
  142.8068   72.8708  219.8582 H   0  0  0  0  0  0  0  0  0  0  0  0
  143.8881   75.0648  221.0786 H   0  0  0  0  0  0  0  0  0  0  0  0
  141.7470   74.8100  222.0440 H   0  0  0  0  0  0  0  0  0  0  0  0
  139.0089   75.7171  221.1666 H   0  0  0  0  0  0  0  0  0  0  0  0
  138.5927   74.2175  220.2835 H   0  0  0  0  0  0  0  0  0  0  0  0
  139.4600   74.3770  223.1130 H   0  0  0  0  0  0  0  0  0  0  0  0
  139.0142   70.0144  222.0614 H   0  0  0  0  0  0  0  0  0  0  0  0
  139.1978   68.3731  223.8733 H   0  0  0  0  0  0  0  0  0  0  0  0
  139.8331   67.8862  226.1330 H   0  0  0  0  0  0  0  0  0  0  0  0
  141.4765   70.9777  228.5987 H   0  0  0  0  0  0  0  0  0  0  0  0
  141.2632   72.5864  226.7178 H   0  0  0  0  0  0  0  0  0  0  0  0
  143.7911   74.7347  217.6569 H   0  0  0  0  0  0  0  0  0  0  0  0
  143.6430   76.5646  216.0164 H   0  0  0  0  0  0  0  0  0  0  0  0
  142.8271   78.8109  216.6719 H   0  0  0  0  0  0  0  0  0  0  0  0
  142.1401   79.2127  219.0511 H   0  0  0  0  0  0  0  0  0  0  0  0
  142.2961   77.3652  220.6876 H   0  0  0  0  0  0  0  0  0  0  0  0
  1  2  1  0
  2  3  1  0
  2  4  1  0
  4  5  1  0
  5  6  1  0
  6  7  1  0
  7  8  2  0
  7  9  1  0
  9 10  1  0
 10 11  1  0
 11 12  2  0
 11 13  1  0
 13 14  2  0
 14 15  1  0
 15 16  2  0
 16 17  1  0
 17 18  2  0
 18 19  1  0
 18 20  1  0
 20 21  2  0
 21 22  1  0
 22 23  2  0
  5 24  1  0
 24 25  2  0
 25 26  1  0
 26 27  2  0
 27 28  1  0
 28 29  2  0
 23 13  1  0
 29 24  1  0
 22 16  1  0
  1 30  1  0
  1 31  1  0
  1 32  1  0
  2 33  1  0
  3 34  1  0
  3 35  1  0
  3 36  1  0
  4 37  1  0
  4 38  1  0
  5 39  1  1
  6 40  1  0
  9 41  1  0
  9 42  1  0
 10 43  1  0
 14 44  1  0
 15 45  1  0
 17 46  1  0
 20 47  1  0
 21 48  1  0
 25 49  1  0
 26 50  1  0
 27 51  1  0
 28 52  1  0
 29 53  1  0
M  END
>  <smiles>  (44) 
CC(C)C[C@H](NC(=O)CNC(=O)c1ccc2cc(Cl)ccc2n1)c1ccccc1

>  <score_type>  (44) 
oracle

>  <origin>  (44) 
autodockgpu

>  <m_score__min__energy>  (44) 
-9

>  <m_primary>  (44) 
energy

>  <rmsd>  (44) 
3.529058595125731

>  <m_score__min__rmsd>  (44) 
3.529058595125731

>  <meeko>  (44) 
{"free_energy": -8.0, "intermolecular_energy": -10.09, "internal_energy": -1.6, "cluster_size": 11, "cluster_id": 4, "rank_in_cluster": 4}

>  <energy>  (44) 
-7.59

>  <cluster_rmsd>  (44) 
0.55

>  <cluster>  (44) 
5

$$$$

     RDKit          3D

 53 55  0  0  0  0  0  0  0  0999 V2000
  143.6880   72.1300  220.8280 C   0  0  0  0  0  0  0  0  0  0  0  0
  144.4070   73.1480  220.0080 C   0  0  0  0  0  0  0  0  0  0  0  0
  145.8980   72.7800  220.0540 C   0  0  0  0  0  0  0  0  0  0  0  0
  144.3040   74.5540  220.4550 C   0  0  0  0  0  0  0  0  0  0  0  0
  143.0760   75.3090  220.1220 C   0  0  2  0  0  0  0  0  0  0  0  0
  141.8380   74.6060  220.1520 N   0  0  0  0  0  0  0  0  0  0  0  0
  140.6930   75.2500  220.7450 C   0  0  0  0  0  0  0  0  0  0  0  0
  140.7550   76.4060  221.2330 O   0  0  0  0  0  0  0  0  0  0  0  0
  139.3740   74.5500  220.7980 C   0  0  0  0  0  0  0  0  0  0  0  0
  139.3170   73.7700  222.0080 N   0  0  0  0  0  0  0  0  0  0  0  0
  140.0670   72.5490  222.0250 C   0  0  0  0  0  0  0  0  0  0  0  0
  140.7040   72.2960  220.9530 O   0  0  0  0  0  0  0  0  0  0  0  0
  140.1000   71.6730  223.1670 C   0  0  0  0  0  0  0  0  0  0  0  0
  139.5980   70.4000  223.0280 C   0  0  0  0  0  0  0  0  0  0  0  0
  139.5740   69.4750  224.0380 C   0  0  0  0  0  0  0  0  0  0  0  0
  140.0800   69.8390  225.2670 C   0  0  0  0  0  0  0  0  0  0  0  0
  140.0780   68.9510  226.3080 C   0  0  0  0  0  0  0  0  0  0  0  0
  140.5740   69.2920  227.5300 C   0  0  0  0  0  0  0  0  0  0  0  0
  140.5650   68.1400  228.8570 Cl  0  0  0  0  0  0  0  0  0  0  0  0
  141.0900   70.5820  227.6930 C   0  0  0  0  0  0  0  0  0  0  0  0
  141.0910   71.4850  226.6300 C   0  0  0  0  0  0  0  0  0  0  0  0
  140.5840   71.1230  225.4000 C   0  0  0  0  0  0  0  0  0  0  0  0
  140.5900   72.0070  224.3760 N   0  0  0  0  0  0  0  0  0  0  0  0
  143.1740   76.0300  218.8180 C   0  0  0  0  0  0  0  0  0  0  0  0
  143.6820   75.4360  217.6810 C   0  0  0  0  0  0  0  0  0  0  0  0
  143.7550   76.1390  216.4960 C   0  0  0  0  0  0  0  0  0  0  0  0
  143.3270   77.4490  216.4050 C   0  0  0  0  0  0  0  0  0  0  0  0
  142.8130   78.0650  217.5410 C   0  0  0  0  0  0  0  0  0  0  0  0
  142.7460   77.3460  218.7230 C   0  0  0  0  0  0  0  0  0  0  0  0
  143.8401   72.3454  221.8959 H   0  0  0  0  0  0  0  0  0  0  0  0
  142.6132   72.1651  220.5964 H   0  0  0  0  0  0  0  0  0  0  0  0
  144.0805   71.1289  220.5964 H   0  0  0  0  0  0  0  0  0  0  0  0
  143.9353   73.1156  219.0148 H   0  0  0  0  0  0  0  0  0  0  0  0
  146.2237   72.6996  221.1016 H   0  0  0  0  0  0  0  0  0  0  0  0
  146.0537   71.8165  219.5467 H   0  0  0  0  0  0  0  0  0  0  0  0
  146.4841   73.5604  219.5467 H   0  0  0  0  0  0  0  0  0  0  0  0
  144.3994   74.5549  221.5509 H   0  0  0  0  0  0  0  0  0  0  0  0
  145.0999   75.0733  219.9010 H   0  0  0  0  0  0  0  0  0  0  0  0
  143.0406   76.0117  220.9675 H   0  0  0  0  0  0  0  0  0  0  0  0
  141.6520   73.6530  219.7780 H   0  0  0  0  0  0  0  0  0  0  0  0
  138.5608   75.2907  220.7957 H   0  0  0  0  0  0  0  0  0  0  0  0
  139.2605   73.8944  219.9220 H   0  0  0  0  0  0  0  0  0  0  0  0
  138.7620   74.0530  222.8560 H   0  0  0  0  0  0  0  0  0  0  0  0
  139.1920   70.1076  222.0484 H   0  0  0  0  0  0  0  0  0  0  0  0
  139.1619   68.4686  223.8725 H   0  0  0  0  0  0  0  0  0  0  0  0
  139.6678   67.9419  226.1551 H   0  0  0  0  0  0  0  0  0  0  0  0
  141.4984   70.8868  228.6678 H   0  0  0  0  0  0  0  0  0  0  0  0
  141.5003   72.4958  226.7744 H   0  0  0  0  0  0  0  0  0  0  0  0
  144.0316   74.3937  217.7196 H   0  0  0  0  0  0  0  0  0  0  0  0
  144.1638   75.6444  215.6026 H   0  0  0  0  0  0  0  0  0  0  0  0
  143.3914   77.9947  215.4521 H   0  0  0  0  0  0  0  0  0  0  0  0
  142.4649   79.1077  217.5014 H   0  0  0  0  0  0  0  0  0  0  0  0
  142.3384   77.8366  219.6192 H   0  0  0  0  0  0  0  0  0  0  0  0
  1  2  1  0
  2  3  1  0
  2  4  1  0
  4  5  1  0
  5  6  1  0
  6  7  1  0
  7  8  2  0
  7  9  1  0
  9 10  1  0
 10 11  1  0
 11 12  2  0
 11 13  1  0
 13 14  2  0
 14 15  1  0
 15 16  2  0
 16 17  1  0
 17 18  2  0
 18 19  1  0
 18 20  1  0
 20 21  2  0
 21 22  1  0
 22 23  2  0
  5 24  1  0
 24 25  2  0
 25 26  1  0
 26 27  2  0
 27 28  1  0
 28 29  2  0
 23 13  1  0
 29 24  1  0
 22 16  1  0
  1 30  1  0
  1 31  1  0
  1 32  1  0
  2 33  1  0
  3 34  1  0
  3 35  1  0
  3 36  1  0
  4 37  1  0
  4 38  1  0
  5 39  1  1
  6 40  1  0
  9 41  1  0
  9 42  1  0
 10 43  1  0
 14 44  1  0
 15 45  1  0
 17 46  1  0
 20 47  1  0
 21 48  1  0
 25 49  1  0
 26 50  1  0
 27 51  1  0
 28 52  1  0
 29 53  1  0
M  END
>  <smiles>  (45) 
CC(C)C[C@H](NC(=O)CNC(=O)c1ccc2cc(Cl)ccc2n1)c1ccccc1

>  <score_type>  (45) 
oracle

>  <origin>  (45) 
autodockgpu

>  <m_score__min__energy>  (45) 
-9

>  <m_primary>  (45) 
energy

>  <rmsd>  (45) 
3.041023005836823

>  <m_score__min__rmsd>  (45) 
3.041023005836823

>  <meeko>  (45) 
{"free_energy": -7.78, "intermolecular_energy": -9.87, "internal_energy": -2.33, "cluster_size": 11, "cluster_id": 4, "rank_in_cluster": 9}

>  <energy>  (45) 
-7.55

>  <cluster_rmsd>  (45) 
1.24

>  <cluster>  (45) 
5

$$$$

     RDKit          3D

 53 55  0  0  0  0  0  0  0  0999 V2000
  141.9940   79.0310  223.1370 C   0  0  0  0  0  0  0  0  0  0  0  0
  141.0380   78.3600  222.2070 C   0  0  0  0  0  0  0  0  0  0  0  0
  139.8210   79.2890  222.0790 C   0  0  0  0  0  0  0  0  0  0  0  0
  140.5210   77.0400  222.6270 C   0  0  0  0  0  0  0  0  0  0  0  0
  140.2140   76.0400  221.5800 C   0  0  2  0  0  0  0  0  0  0  0  0
  139.3430   74.9670  221.9240 N   0  0  0  0  0  0  0  0  0  0  0  0
  138.5520   74.3590  220.8830 C   0  0  0  0  0  0  0  0  0  0  0  0
  138.6100   74.7460  219.6880 O   0  0  0  0  0  0  0  0  0  0  0  0
  137.6260   73.2310  221.1980 C   0  0  0  0  0  0  0  0  0  0  0  0
  137.9950   72.6760  222.4750 N   0  0  0  0  0  0  0  0  0  0  0  0
  139.1570   71.8380  222.5020 C   0  0  0  0  0  0  0  0  0  0  0  0
  139.7320   71.6820  221.3780 O   0  0  0  0  0  0  0  0  0  0  0  0
  139.6410   71.2190  223.7090 C   0  0  0  0  0  0  0  0  0  0  0  0
  140.5810   71.8910  224.4560 C   0  0  0  0  0  0  0  0  0  0  0  0
  141.1170   71.4080  225.6200 C   0  0  0  0  0  0  0  0  0  0  0  0
  140.6930   70.1770  226.0710 C   0  0  0  0  0  0  0  0  0  0  0  0
  141.1990   69.6510  227.2290 C   0  0  0  0  0  0  0  0  0  0  0  0
  140.7920   68.4360  227.6910 C   0  0  0  0  0  0  0  0  0  0  0  0
  141.4510   67.7740  229.1800 Cl  0  0  0  0  0  0  0  0  0  0  0  0
  139.8370   67.7360  226.9460 C   0  0  0  0  0  0  0  0  0  0  0  0
  139.3230   68.2750  225.7670 C   0  0  0  0  0  0  0  0  0  0  0  0
  139.7470   69.5060  225.3130 C   0  0  0  0  0  0  0  0  0  0  0  0
  139.2410   70.0190  224.1680 N   0  0  0  0  0  0  0  0  0  0  0  0
  141.4400   75.4650  220.9510 C   0  0  0  0  0  0  0  0  0  0  0  0
  141.8420   74.1630  221.1680 C   0  0  0  0  0  0  0  0  0  0  0  0
  142.9820   73.6720  220.5660 C   0  0  0  0  0  0  0  0  0  0  0  0
  143.7550   74.4570  219.7330 C   0  0  0  0  0  0  0  0  0  0  0  0
  143.3650   75.7720  219.5020 C   0  0  0  0  0  0  0  0  0  0  0  0
  142.2190   76.2510  220.1130 C   0  0  0  0  0  0  0  0  0  0  0  0
  141.7000   78.8247  224.1767 H   0  0  0  0  0  0  0  0  0  0  0  0
  143.0091   78.6462  222.9597 H   0  0  0  0  0  0  0  0  0  0  0  0
  141.9772   80.1165  222.9597 H   0  0  0  0  0  0  0  0  0  0  0  0
  141.6022   78.1785  221.2803 H   0  0  0  0  0  0  0  0  0  0  0  0
  139.4619   79.5631  223.0819 H   0  0  0  0  0  0  0  0  0  0  0  0
  140.1099   80.1984  221.5317 H   0  0  0  0  0  0  0  0  0  0  0  0
  139.0199   78.7706  221.5317 H   0  0  0  0  0  0  0  0  0  0  0  0
  141.2732   76.5929  223.2935 H   0  0  0  0  0  0  0  0  0  0  0  0
  139.5450   77.2637  223.0825 H   0  0  0  0  0  0  0  0  0  0  0  0
  139.6522   76.6636  220.8690 H   0  0  0  0  0  0  0  0  0  0  0  0
  139.2080   74.5510  222.8670 H   0  0  0  0  0  0  0  0  0  0  0  0
  136.5913   73.6018  221.2402 H   0  0  0  0  0  0  0  0  0  0  0  0
  137.6962   72.4584  220.4182 H   0  0  0  0  0  0  0  0  0  0  0  0
  137.4620   72.8570  223.3630 H   0  0  0  0  0  0  0  0  0  0  0  0
  140.9218   72.8735  224.0973 H   0  0  0  0  0  0  0  0  0  0  0  0
  141.8660   71.9873  226.1799 H   0  0  0  0  0  0  0  0  0  0  0  0
  141.9489   70.2206  227.7975 H   0  0  0  0  0  0  0  0  0  0  0  0
  139.4886   66.7521  227.2931 H   0  0  0  0  0  0  0  0  0  0  0  0
  138.5717   67.7124  225.1934 H   0  0  0  0  0  0  0  0  0  0  0  0
  141.2487   73.5113  221.8263 H   0  0  0  0  0  0  0  0  0  0  0  0
  143.2825   72.6306  220.7538 H   0  0  0  0  0  0  0  0  0  0  0  0
  144.6616   74.0501  219.2614 H   0  0  0  0  0  0  0  0  0  0  0  0
  143.9590   76.4223  218.8429 H   0  0  0  0  0  0  0  0  0  0  0  0
  141.9147   77.2917  219.9279 H   0  0  0  0  0  0  0  0  0  0  0  0
  1  2  1  0
  2  3  1  0
  2  4  1  0
  4  5  1  0
  5  6  1  0
  6  7  1  0
  7  8  2  0
  7  9  1  0
  9 10  1  0
 10 11  1  0
 11 12  2  0
 11 13  1  0
 13 14  2  0
 14 15  1  0
 15 16  2  0
 16 17  1  0
 17 18  2  0
 18 19  1  0
 18 20  1  0
 20 21  2  0
 21 22  1  0
 22 23  2  0
  5 24  1  0
 24 25  2  0
 25 26  1  0
 26 27  2  0
 27 28  1  0
 28 29  2  0
 23 13  1  0
 29 24  1  0
 22 16  1  0
  1 30  1  0
  1 31  1  0
  1 32  1  0
  2 33  1  0
  3 34  1  0
  3 35  1  0
  3 36  1  0
  4 37  1  0
  4 38  1  0
  5 39  1  6
  6 40  1  0
  9 41  1  0
  9 42  1  0
 10 43  1  0
 14 44  1  0
 15 45  1  0
 17 46  1  0
 20 47  1  0
 21 48  1  0
 25 49  1  0
 26 50  1  0
 27 51  1  0
 28 52  1  0
 29 53  1  0
M  END
>  <smiles>  (46) 
CC(C)C[C@H](NC(=O)CNC(=O)c1ccc2cc(Cl)ccc2n1)c1ccccc1

>  <score_type>  (46) 
oracle

>  <origin>  (46) 
autodockgpu

>  <m_score__min__energy>  (46) 
-9

>  <m_primary>  (46) 
energy

>  <rmsd>  (46) 
3.876943225289079

>  <m_score__min__rmsd>  (46) 
3.876943225289079

>  <meeko>  (46) 
{"free_energy": -8.19, "intermolecular_energy": -10.28, "internal_energy": -1.86, "cluster_size": 5, "cluster_id": 5, "rank_in_cluster": 1}

>  <energy>  (46) 
-7.9

>  <cluster_rmsd>  (46) 
0.0

>  <cluster>  (46) 
6

$$$$

     RDKit          3D

 53 55  0  0  0  0  0  0  0  0999 V2000
  142.5050   80.5230  217.9460 C   0  0  0  0  0  0  0  0  0  0  0  0
  142.3910   79.0950  218.3660 C   0  0  0  0  0  0  0  0  0  0  0  0
  142.6470   78.2440  217.1120 C   0  0  0  0  0  0  0  0  0  0  0  0
  141.0840   78.6660  218.9090 C   0  0  0  0  0  0  0  0  0  0  0  0
  141.0720   77.7720  220.0880 C   0  0  2  0  0  0  0  0  0  0  0  0
  140.0740   76.7580  220.1410 N   0  0  0  0  0  0  0  0  0  0  0  0
  140.2730   75.6390  221.0290 C   0  0  0  0  0  0  0  0  0  0  0  0
  141.2950   75.5350  221.7530 O   0  0  0  0  0  0  0  0  0  0  0  0
  139.2520   74.5530  221.1160 C   0  0  0  0  0  0  0  0  0  0  0  0
  139.4640   73.8200  222.3380 N   0  0  0  0  0  0  0  0  0  0  0  0
  139.5480   72.3940  222.2300 C   0  0  0  0  0  0  0  0  0  0  0  0
  139.4220   71.9380  221.0490 O   0  0  0  0  0  0  0  0  0  0  0  0
  139.7580   71.5390  223.3690 C   0  0  0  0  0  0  0  0  0  0  0  0
  139.4250   70.2080  223.2570 C   0  0  0  0  0  0  0  0  0  0  0  0
  139.5780   69.2960  224.2670 C   0  0  0  0  0  0  0  0  0  0  0  0
  140.0930   69.7340  225.4670 C   0  0  0  0  0  0  0  0  0  0  0  0
  140.2650   68.8610  226.5070 C   0  0  0  0  0  0  0  0  0  0  0  0
  140.7740   69.2750  227.7010 C   0  0  0  0  0  0  0  0  0  0  0  0
  140.9880   68.1420  229.0280 Cl  0  0  0  0  0  0  0  0  0  0  0  0
  141.1190   70.6240  227.8370 C   0  0  0  0  0  0  0  0  0  0  0  0
  140.9430   71.5110  226.7750 C   0  0  0  0  0  0  0  0  0  0  0  0
  140.4260   71.0750  225.5730 C   0  0  0  0  0  0  0  0  0  0  0  0
  140.2600   71.9440  224.5500 N   0  0  0  0  0  0  0  0  0  0  0  0
  141.0500   78.5190  221.3810 C   0  0  0  0  0  0  0  0  0  0  0  0
  139.8950   78.6910  222.1170 C   0  0  0  0  0  0  0  0  0  0  0  0
  139.9190   79.3890  223.3070 C   0  0  0  0  0  0  0  0  0  0  0  0
  141.0870   79.9360  223.8000 C   0  0  0  0  0  0  0  0  0  0  0  0
  142.2610   79.7730  223.0730 C   0  0  0  0  0  0  0  0  0  0  0  0
  142.2210   79.0700  221.8800 C   0  0  0  0  0  0  0  0  0  0  0  0
  142.5562   81.1646  218.8380 H   0  0  0  0  0  0  0  0  0  0  0  0
  143.4167   80.6568  217.3452 H   0  0  0  0  0  0  0  0  0  0  0  0
  141.6261   80.7998  217.3452 H   0  0  0  0  0  0  0  0  0  0  0  0
  143.1118   78.9681  219.1872 H   0  0  0  0  0  0  0  0  0  0  0  0
  142.9518   77.2307  217.4125 H   0  0  0  0  0  0  0  0  0  0  0  0
  141.7261   78.1874  216.5130 H   0  0  0  0  0  0  0  0  0  0  0  0
  143.4463   78.7049  216.5130 H   0  0  0  0  0  0  0  0  0  0  0  0
  140.5318   79.5763  219.1853 H   0  0  0  0  0  0  0  0  0  0  0  0
  140.6425   78.0593  218.1046 H   0  0  0  0  0  0  0  0  0  0  0  0
  142.0259   77.2433  219.9448 H   0  0  0  0  0  0  0  0  0  0  0  0
  139.1850   76.7290  219.6020 H   0  0  0  0  0  0  0  0  0  0  0  0
  138.2433   74.9918  221.1173 H   0  0  0  0  0  0  0  0  0  0  0  0
  139.3459   73.8787  220.2520 H   0  0  0  0  0  0  0  0  0  0  0  0
  139.5590   74.2780  223.2810 H   0  0  0  0  0  0  0  0  0  0  0  0
  139.0118   69.8564  222.3001 H   0  0  0  0  0  0  0  0  0  0  0  0
  139.2972   68.2421  224.1238 H   0  0  0  0  0  0  0  0  0  0  0  0
  139.9869   67.8048  226.3763 H   0  0  0  0  0  0  0  0  0  0  0  0
  141.5324   70.9881  228.7891 H   0  0  0  0  0  0  0  0  0  0  0  0
  141.2193   72.5687  226.8974 H   0  0  0  0  0  0  0  0  0  0  0  0
  138.9475   78.2681  221.7518 H   0  0  0  0  0  0  0  0  0  0  0  0
  138.9859   79.5126  223.8762 H   0  0  0  0  0  0  0  0  0  0  0  0
  141.0887   80.4903  224.7501 H   0  0  0  0  0  0  0  0  0  0  0  0
  143.2078   80.1961  223.4398 H   0  0  0  0  0  0  0  0  0  0  0  0
  143.1518   78.9442  221.3076 H   0  0  0  0  0  0  0  0  0  0  0  0
  1  2  1  0
  2  3  1  0
  2  4  1  0
  4  5  1  0
  5  6  1  0
  6  7  1  0
  7  8  2  0
  7  9  1  0
  9 10  1  0
 10 11  1  0
 11 12  2  0
 11 13  1  0
 13 14  2  0
 14 15  1  0
 15 16  2  0
 16 17  1  0
 17 18  2  0
 18 19  1  0
 18 20  1  0
 20 21  2  0
 21 22  1  0
 22 23  2  0
  5 24  1  0
 24 25  2  0
 25 26  1  0
 26 27  2  0
 27 28  1  0
 28 29  2  0
 23 13  1  0
 29 24  1  0
 22 16  1  0
  1 30  1  0
  1 31  1  0
  1 32  1  0
  2 33  1  0
  3 34  1  0
  3 35  1  0
  3 36  1  0
  4 37  1  0
  4 38  1  0
  5 39  1  1
  6 40  1  0
  9 41  1  0
  9 42  1  0
 10 43  1  0
 14 44  1  0
 15 45  1  0
 17 46  1  0
 20 47  1  0
 21 48  1  0
 25 49  1  0
 26 50  1  0
 27 51  1  0
 28 52  1  0
 29 53  1  0
M  END
>  <smiles>  (47) 
CC(C)C[C@H](NC(=O)CNC(=O)c1ccc2cc(Cl)ccc2n1)c1ccccc1

>  <score_type>  (47) 
oracle

>  <origin>  (47) 
autodockgpu

>  <m_score__min__energy>  (47) 
-9

>  <m_primary>  (47) 
energy

>  <rmsd>  (47) 
2.63139935238115

>  <m_score__min__rmsd>  (47) 
2.63139935238115

>  <meeko>  (47) 
{"free_energy": -8.22, "intermolecular_energy": -10.31, "internal_energy": -1.6, "cluster_size": 7, "cluster_id": 2, "rank_in_cluster": 6}

>  <energy>  (47) 
-7.68

>  <cluster_rmsd>  (47) 
0.94

>  <cluster>  (47) 
6

$$$$

     RDKit          3D

 53 55  0  0  0  0  0  0  0  0999 V2000
  141.5960   78.0910  217.8800 C   0  0  0  0  0  0  0  0  0  0  0  0
  142.8700   77.4850  218.3680 C   0  0  0  0  0  0  0  0  0  0  0  0
  143.2490   76.3850  217.3650 C   0  0  0  0  0  0  0  0  0  0  0  0
  142.8340   76.8480  219.7020 C   0  0  0  0  0  0  0  0  0  0  0  0
  142.2810   75.4800  219.8120 C   0  0  2  0  0  0  0  0  0  0  0  0
  141.1100   75.3010  220.6030 N   0  0  0  0  0  0  0  0  0  0  0  0
  139.9590   74.6760  220.0010 C   0  0  0  0  0  0  0  0  0  0  0  0
  139.9590   74.2870  218.8060 O   0  0  0  0  0  0  0  0  0  0  0  0
  138.7100   74.4690  220.7930 C   0  0  0  0  0  0  0  0  0  0  0  0
  139.0470   73.7690  222.0070 N   0  0  0  0  0  0  0  0  0  0  0  0
  139.0540   72.3380  221.9450 C   0  0  0  0  0  0  0  0  0  0  0  0
  138.7580   71.8480  220.8090 O   0  0  0  0  0  0  0  0  0  0  0  0
  139.3730   71.5130  223.0810 C   0  0  0  0  0  0  0  0  0  0  0  0
  139.0750   70.1710  223.0180 C   0  0  0  0  0  0  0  0  0  0  0  0
  139.3290   69.2850  224.0310 C   0  0  0  0  0  0  0  0  0  0  0  0
  139.9170   69.7620  225.1820 C   0  0  0  0  0  0  0  0  0  0  0  0
  140.1900   68.9160  226.2220 C   0  0  0  0  0  0  0  0  0  0  0  0
  140.7710   69.3690  227.3680 C   0  0  0  0  0  0  0  0  0  0  0  0
  141.1170   68.2700  228.6960 Cl  0  0  0  0  0  0  0  0  0  0  0  0
  141.0830   70.7310  227.4530 C   0  0  0  0  0  0  0  0  0  0  0  0
  140.8030   71.5900  226.3910 C   0  0  0  0  0  0  0  0  0  0  0  0
  140.2140   71.1140  225.2390 C   0  0  0  0  0  0  0  0  0  0  0  0
  139.9470   71.9570  224.2150 N   0  0  0  0  0  0  0  0  0  0  0  0
  143.2970   74.4760  220.2460 C   0  0  0  0  0  0  0  0  0  0  0  0
  142.9810   73.1520  220.4710 C   0  0  0  0  0  0  0  0  0  0  0  0
  143.9520   72.2570  220.8720 C   0  0  0  0  0  0  0  0  0  0  0  0
  145.2620   72.6500  221.0610 C   0  0  0  0  0  0  0  0  0  0  0  0
  145.6000   73.9810  220.8390 C   0  0  0  0  0  0  0  0  0  0  0  0
  144.6150   74.8670  220.4380 C   0  0  0  0  0  0  0  0  0  0  0  0
  140.9769   78.3855  218.7403 H   0  0  0  0  0  0  0  0  0  0  0  0
  141.8219   78.9781  217.2701 H   0  0  0  0  0  0  0  0  0  0  0  0
  141.0503   77.3560  217.2701 H   0  0  0  0  0  0  0  0  0  0  0  0
  143.5810   78.3198  218.4555 H   0  0  0  0  0  0  0  0  0  0  0  0
  143.5600   75.4822  217.9111 H   0  0  0  0  0  0  0  0  0  0  0  0
  142.3800   76.1500  216.7328 H   0  0  0  0  0  0  0  0  0  0  0  0
  144.0783   76.7351  216.7328 H   0  0  0  0  0  0  0  0  0  0  0  0
  143.8687   76.8117  220.0735 H   0  0  0  0  0  0  0  0  0  0  0  0
  142.1356   77.4702  220.2809 H   0  0  0  0  0  0  0  0  0  0  0  0
  141.9679   75.3096  218.7714 H   0  0  0  0  0  0  0  0  0  0  0  0
  140.9830   75.5710  221.6000 H   0  0  0  0  0  0  0  0  0  0  0  0
  138.2613   75.4427  221.0389 H   0  0  0  0  0  0  0  0  0  0  0  0
  137.9869   73.8814  220.2083 H   0  0  0  0  0  0  0  0  0  0  0  0
  139.2810   74.2540  222.9100 H   0  0  0  0  0  0  0  0  0  0  0  0
  138.6053   69.7874  222.1003 H   0  0  0  0  0  0  0  0  0  0  0  0
  139.0704   68.2208  223.9284 H   0  0  0  0  0  0  0  0  0  0  0  0
  139.9355   67.8497  226.1311 H   0  0  0  0  0  0  0  0  0  0  0  0
  141.5530   71.1269  228.3653 H   0  0  0  0  0  0  0  0  0  0  0  0
  141.0545   72.6577  226.4731 H   0  0  0  0  0  0  0  0  0  0  0  0
  141.9462   72.8068  220.3295 H   0  0  0  0  0  0  0  0  0  0  0  0
  143.6759   71.2064  221.0450 H   0  0  0  0  0  0  0  0  0  0  0  0
  146.0241   71.9242  221.3811 H   0  0  0  0  0  0  0  0  0  0  0  0
  146.6354   74.3246  220.9801 H   0  0  0  0  0  0  0  0  0  0  0  0
  144.8865   75.9189  220.2652 H   0  0  0  0  0  0  0  0  0  0  0  0
  1  2  1  0
  2  3  1  0
  2  4  1  0
  4  5  1  0
  5  6  1  0
  6  7  1  0
  7  8  2  0
  7  9  1  0
  9 10  1  0
 10 11  1  0
 11 12  2  0
 11 13  1  0
 13 14  2  0
 14 15  1  0
 15 16  2  0
 16 17  1  0
 17 18  2  0
 18 19  1  0
 18 20  1  0
 20 21  2  0
 21 22  1  0
 22 23  2  0
  5 24  1  0
 24 25  2  0
 25 26  1  0
 26 27  2  0
 27 28  1  0
 28 29  2  0
 23 13  1  0
 29 24  1  0
 22 16  1  0
  1 30  1  0
  1 31  1  0
  1 32  1  0
  2 33  1  0
  3 34  1  0
  3 35  1  0
  3 36  1  0
  4 37  1  0
  4 38  1  0
  5 39  1  6
  6 40  1  0
  9 41  1  0
  9 42  1  0
 10 43  1  0
 14 44  1  0
 15 45  1  0
 17 46  1  0
 20 47  1  0
 21 48  1  0
 25 49  1  0
 26 50  1  0
 27 51  1  0
 28 52  1  0
 29 53  1  0
M  END
>  <smiles>  (48) 
CC(C)C[C@H](NC(=O)CNC(=O)c1ccc2cc(Cl)ccc2n1)c1ccccc1

>  <score_type>  (48) 
oracle

>  <origin>  (48) 
autodockgpu

>  <m_score__min__energy>  (48) 
-9

>  <m_primary>  (48) 
energy

>  <rmsd>  (48) 
2.2823710409644002

>  <m_score__min__rmsd>  (48) 
2.2823710409644002

>  <meeko>  (48) 
{"free_energy": -7.68, "intermolecular_energy": -9.77, "internal_energy": -1.87, "cluster_size": 3, "cluster_id": 6, "rank_in_cluster": 2}

>  <energy>  (48) 
-7.55

>  <cluster_rmsd>  (48) 
0.47

>  <cluster>  (48) 
6

$$$$

     RDKit          3D

 53 55  0  0  0  0  0  0  0  0999 V2000
  143.9230   71.9980  220.8390 C   0  0  0  0  0  0  0  0  0  0  0  0
  144.7450   73.0120  220.1160 C   0  0  0  0  0  0  0  0  0  0  0  0
  145.6910   73.6360  221.1530 C   0  0  0  0  0  0  0  0  0  0  0  0
  144.0130   74.1310  219.4840 C   0  0  0  0  0  0  0  0  0  0  0  0
  143.0310   74.8780  220.3000 C   0  0  2  0  0  0  0  0  0  0  0  0
  141.7910   74.2420  220.5920 N   0  0  0  0  0  0  0  0  0  0  0  0
  140.8660   74.0030  219.5110 C   0  0  0  0  0  0  0  0  0  0  0  0
  141.1220   74.3390  218.3280 O   0  0  0  0  0  0  0  0  0  0  0  0
  139.5540   73.3380  219.7720 C   0  0  0  0  0  0  0  0  0  0  0  0
  139.7470   72.3180  220.7710 N   0  0  0  0  0  0  0  0  0  0  0  0
  139.6870   72.7370  222.1400 C   0  0  0  0  0  0  0  0  0  0  0  0
  139.4680   73.9780  222.3120 O   0  0  0  0  0  0  0  0  0  0  0  0
  139.8600   71.8240  223.2400 C   0  0  0  0  0  0  0  0  0  0  0  0
  139.5220   70.5030  223.0520 C   0  0  0  0  0  0  0  0  0  0  0  0
  139.6410   69.5410  224.0190 C   0  0  0  0  0  0  0  0  0  0  0  0
  140.1270   69.9140  225.2530 C   0  0  0  0  0  0  0  0  0  0  0  0
  140.2640   68.9890  226.2520 C   0  0  0  0  0  0  0  0  0  0  0  0
  140.7430   69.3380  227.4790 C   0  0  0  0  0  0  0  0  0  0  0  0
  140.9140   68.1390  228.7520 Cl  0  0  0  0  0  0  0  0  0  0  0  0
  141.0930   70.6760  227.6910 C   0  0  0  0  0  0  0  0  0  0  0  0
  140.9530   71.6170  226.6700 C   0  0  0  0  0  0  0  0  0  0  0  0
  140.4650   71.2450  225.4350 C   0  0  0  0  0  0  0  0  0  0  0  0
  140.3330   72.1660  224.4520 N   0  0  0  0  0  0  0  0  0  0  0  0
  142.7420   76.2390  219.7580 C   0  0  0  0  0  0  0  0  0  0  0  0
  142.0360   77.1860  220.4720 C   0  0  0  0  0  0  0  0  0  0  0  0
  141.7920   78.4320  219.9330 C   0  0  0  0  0  0  0  0  0  0  0  0
  142.2410   78.7750  218.6730 C   0  0  0  0  0  0  0  0  0  0  0  0
  142.9550   77.8350  217.9380 C   0  0  0  0  0  0  0  0  0  0  0  0
  143.1920   76.5880  218.4920 C   0  0  0  0  0  0  0  0  0  0  0  0
  144.0375   72.1392  221.9239 H   0  0  0  0  0  0  0  0  0  0  0  0
  142.8651   72.1192  220.5631 H   0  0  0  0  0  0  0  0  0  0  0  0
  144.2605   70.9881  220.5631 H   0  0  0  0  0  0  0  0  0  0  0  0
  145.2291   72.4679  219.2916 H   0  0  0  0  0  0  0  0  0  0  0  0
  145.3324   73.3994  222.1656 H   0  0  0  0  0  0  0  0  0  0  0  0
  146.7036   73.2280  221.0180 H   0  0  0  0  0  0  0  0  0  0  0  0
  145.7145   74.7274  221.0180 H   0  0  0  0  0  0  0  0  0  0  0  0
  144.7639   74.8551  219.1348 H   0  0  0  0  0  0  0  0  0  0  0  0
  143.4061   73.6506  218.7024 H   0  0  0  0  0  0  0  0  0  0  0  0
  143.5711   74.9322  221.2567 H   0  0  0  0  0  0  0  0  0  0  0  0
  141.4630   73.9100  221.5220 H   0  0  0  0  0  0  0  0  0  0  0  0
  138.8280   74.0802  220.1355 H   0  0  0  0  0  0  0  0  0  0  0  0
  139.1694   72.8882  218.8448 H   0  0  0  0  0  0  0  0  0  0  0  0
  139.9230   71.3070  220.5410 H   0  0  0  0  0  0  0  0  0  0  0  0
  139.1337   70.2027  222.0676 H   0  0  0  0  0  0  0  0  0  0  0  0
  139.3562   68.4981  223.8160 H   0  0  0  0  0  0  0  0  0  0  0  0
  139.9819   67.9431  226.0608 H   0  0  0  0  0  0  0  0  0  0  0  0
  141.4820   70.9890  228.6712 H   0  0  0  0  0  0  0  0  0  0  0  0
  141.2344   72.6647  226.8519 H   0  0  0  0  0  0  0  0  0  0  0  0
  141.6649   76.9451  221.4791 H   0  0  0  0  0  0  0  0  0  0  0  0
  141.2264   79.1699  220.5208 H   0  0  0  0  0  0  0  0  0  0  0  0
  142.0376   79.7734  218.2584 H   0  0  0  0  0  0  0  0  0  0  0  0
  143.3261   78.0782  216.9315 H   0  0  0  0  0  0  0  0  0  0  0  0
  143.7574   75.8472  217.9076 H   0  0  0  0  0  0  0  0  0  0  0  0
  1  2  1  0
  2  3  1  0
  2  4  1  0
  4  5  1  0
  5  6  1  0
  6  7  1  0
  7  8  2  0
  7  9  1  0
  9 10  1  0
 10 11  1  0
 11 12  2  0
 11 13  1  0
 13 14  2  0
 14 15  1  0
 15 16  2  0
 16 17  1  0
 17 18  2  0
 18 19  1  0
 18 20  1  0
 20 21  2  0
 21 22  1  0
 22 23  2  0
  5 24  1  0
 24 25  2  0
 25 26  1  0
 26 27  2  0
 27 28  1  0
 28 29  2  0
 23 13  1  0
 29 24  1  0
 22 16  1  0
  1 30  1  0
  1 31  1  0
  1 32  1  0
  2 33  1  0
  3 34  1  0
  3 35  1  0
  3 36  1  0
  4 37  1  0
  4 38  1  0
  5 39  1  1
  6 40  1  0
  9 41  1  0
  9 42  1  0
 10 43  1  0
 14 44  1  0
 15 45  1  0
 17 46  1  0
 20 47  1  0
 21 48  1  0
 25 49  1  0
 26 50  1  0
 27 51  1  0
 28 52  1  0
 29 53  1  0
M  END
>  <smiles>  (49) 
CC(C)C[C@H](NC(=O)CNC(=O)c1ccc2cc(Cl)ccc2n1)c1ccccc1

>  <score_type>  (49) 
oracle

>  <origin>  (49) 
autodockgpu

>  <m_score__min__energy>  (49) 
-9

>  <m_primary>  (49) 
energy

>  <rmsd>  (49) 
3.2831045408948385

>  <m_score__min__rmsd>  (49) 
3.2831045408948385

>  <meeko>  (49) 
{"free_energy": -7.73, "intermolecular_energy": -9.82, "internal_energy": -2.29, "cluster_size": 11, "cluster_id": 4, "rank_in_cluster": 10}

>  <energy>  (49) 
-7.74

>  <cluster_rmsd>  (49) 
0.0

>  <cluster>  (49) 
7

$$$$

     RDKit          3D

 53 55  0  0  0  0  0  0  0  0999 V2000
  145.8560   73.3470  220.8350 C   0  0  0  0  0  0  0  0  0  0  0  0
  144.3670   73.4420  220.8630 C   0  0  0  0  0  0  0  0  0  0  0  0
  143.8310   72.0050  220.7700 C   0  0  0  0  0  0  0  0  0  0  0  0
  143.7290   74.2030  219.7670 C   0  0  0  0  0  0  0  0  0  0  0  0
  143.1590   75.5330  220.0750 C   0  0  2  0  0  0  0  0  0  0  0  0
  141.9220   75.5770  220.7780 N   0  0  0  0  0  0  0  0  0  0  0  0
  140.7860   74.8870  220.2210 C   0  0  0  0  0  0  0  0  0  0  0  0
  140.8560   74.2520  219.1380 O   0  0  0  0  0  0  0  0  0  0  0  0
  139.4690   74.9060  220.9250 C   0  0  0  0  0  0  0  0  0  0  0  0
  139.5850   74.1350  222.1370 N   0  0  0  0  0  0  0  0  0  0  0  0
  139.7250   72.7170  221.9880 C   0  0  0  0  0  0  0  0  0  0  0  0
  139.7290   72.3010  220.7850 O   0  0  0  0  0  0  0  0  0  0  0  0
  139.8510   71.8260  223.1120 C   0  0  0  0  0  0  0  0  0  0  0  0
  139.4380   70.5220  222.9620 C   0  0  0  0  0  0  0  0  0  0  0  0
  139.5070   69.5800  223.9540 C   0  0  0  0  0  0  0  0  0  0  0  0
  140.0180   69.9590  225.1760 C   0  0  0  0  0  0  0  0  0  0  0  0
  140.1070   69.0560  226.2000 C   0  0  0  0  0  0  0  0  0  0  0  0
  140.6090   69.4110  227.4160 C   0  0  0  0  0  0  0  0  0  0  0  0
  140.7170   68.2390  228.7210 Cl  0  0  0  0  0  0  0  0  0  0  0  0
  141.0340   70.7330  227.5900 C   0  0  0  0  0  0  0  0  0  0  0  0
  140.9420   71.6510  226.5450 C   0  0  0  0  0  0  0  0  0  0  0  0
  140.4300   71.2740  225.3210 C   0  0  0  0  0  0  0  0  0  0  0  0
  140.3460   72.1740  224.3140 N   0  0  0  0  0  0  0  0  0  0  0  0
  143.0430   76.4070  218.8700 C   0  0  0  0  0  0  0  0  0  0  0  0
  143.4040   75.9800  217.6080 C   0  0  0  0  0  0  0  0  0  0  0  0
  143.2800   76.8200  216.5210 C   0  0  0  0  0  0  0  0  0  0  0  0
  142.7970   78.1070  216.6540 C   0  0  0  0  0  0  0  0  0  0  0  0
  142.4290   78.5560  217.9180 C   0  0  0  0  0  0  0  0  0  0  0  0
  142.5590   77.7010  218.9990 C   0  0  0  0  0  0  0  0  0  0  0  0
  146.2413   73.3224  221.8650 H   0  0  0  0  0  0  0  0  0  0  0  0
  146.1550   72.4280  220.3097 H   0  0  0  0  0  0  0  0  0  0  0  0
  146.2693   74.2206  220.3097 H   0  0  0  0  0  0  0  0  0  0  0  0
  144.1221   73.9872  221.7865 H   0  0  0  0  0  0  0  0  0  0  0  0
  143.6811   71.6033  221.7830 H   0  0  0  0  0  0  0  0  0  0  0  0
  142.8725   72.0054  220.2302 H   0  0  0  0  0  0  0  0  0  0  0  0
  144.5556   71.3776  220.2302 H   0  0  0  0  0  0  0  0  0  0  0  0
  144.4895   74.3478  218.9855 H   0  0  0  0  0  0  0  0  0  0  0  0
  142.8579   73.5934  219.4849 H   0  0  0  0  0  0  0  0  0  0  0  0
  143.9152   75.9138  220.7773 H   0  0  0  0  0  0  0  0  0  0  0  0
  141.7340   76.0580  221.6820 H   0  0  0  0  0  0  0  0  0  0  0  0
  139.1945   75.9427  221.1700 H   0  0  0  0  0  0  0  0  0  0  0  0
  138.6906   74.4750  220.2782 H   0  0  0  0  0  0  0  0  0  0  0  0
  139.5720   74.5600  223.0990 H   0  0  0  0  0  0  0  0  0  0  0  0
  139.0281   70.2180  221.9876 H   0  0  0  0  0  0  0  0  0  0  0  0
  139.1639   68.5495  223.7798 H   0  0  0  0  0  0  0  0  0  0  0  0
  139.7664   68.0226  226.0384 H   0  0  0  0  0  0  0  0  0  0  0  0
  141.4443   71.0505  228.5600 H   0  0  0  0  0  0  0  0  0  0  0  0
  141.2811   72.6862  226.6980 H   0  0  0  0  0  0  0  0  0  0  0  0
  143.7940   74.9610  217.4680 H   0  0  0  0  0  0  0  0  0  0  0  0
  143.5726   76.4563  215.5249 H   0  0  0  0  0  0  0  0  0  0  0  0
  142.7051   78.7645  215.7770 H   0  0  0  0  0  0  0  0  0  0  0  0
  142.0403   79.5757  218.0567 H   0  0  0  0  0  0  0  0  0  0  0  0
  142.2679   78.0607  219.9969 H   0  0  0  0  0  0  0  0  0  0  0  0
  1  2  1  0
  2  3  1  0
  2  4  1  0
  4  5  1  0
  5  6  1  0
  6  7  1  0
  7  8  2  0
  7  9  1  0
  9 10  1  0
 10 11  1  0
 11 12  2  0
 11 13  1  0
 13 14  2  0
 14 15  1  0
 15 16  2  0
 16 17  1  0
 17 18  2  0
 18 19  1  0
 18 20  1  0
 20 21  2  0
 21 22  1  0
 22 23  2  0
  5 24  1  0
 24 25  2  0
 25 26  1  0
 26 27  2  0
 27 28  1  0
 28 29  2  0
 23 13  1  0
 29 24  1  0
 22 16  1  0
  1 30  1  0
  1 31  1  0
  1 32  1  0
  2 33  1  0
  3 34  1  0
  3 35  1  0
  3 36  1  0
  4 37  1  0
  4 38  1  0
  5 39  1  1
  6 40  1  0
  9 41  1  0
  9 42  1  0
 10 43  1  0
 14 44  1  0
 15 45  1  0
 17 46  1  0
 20 47  1  0
 21 48  1  0
 25 49  1  0
 26 50  1  0
 27 51  1  0
 28 52  1  0
 29 53  1  0
M  END
>  <smiles>  (50) 
CC(C)C[C@H](NC(=O)CNC(=O)c1ccc2cc(Cl)ccc2n1)c1ccccc1

>  <score_type>  (50) 
oracle

>  <origin>  (50) 
autodockgpu

>  <m_score__min__energy>  (50) 
-9

>  <m_primary>  (50) 
energy

>  <rmsd>  (50) 
3.4391970521038493

>  <m_score__min__rmsd>  (50) 
3.4391970521038493

>  <meeko>  (50) 
{"free_energy": -8.16, "intermolecular_energy": -10.25, "internal_energy": -1.77, "cluster_size": 11, "cluster_id": 4, "rank_in_cluster": 2}

>  <energy>  (50) 
-7.7

>  <cluster_rmsd>  (50) 
0.0

>  <cluster>  (50) 
8

$$$$
