
     RDKit          3D

 41 43  0  0  0  0  0  0  0  0999 V2000
  141.5690   72.0920  220.9230 O   0  0  0  0  0  0  0  0  0  0  0  0
  140.9810   72.9970  221.5580 C   0  0  0  0  0  0  0  0  0  0  0  0
  140.0540   72.6090  222.5740 N   0  0  0  0  0  0  0  0  0  0  0  0
  139.8040   71.2090  222.8580 C   0  0  0  0  0  0  0  0  0  0  0  0
  139.0450   71.0340  224.1230 C   0  0  0  0  0  0  0  0  0  0  0  0
  137.8240   71.3110  224.2440 O   0  0  0  0  0  0  0  0  0  0  0  0
  139.7430   70.5270  225.2520 N   0  0  0  0  0  0  0  0  0  0  0  0
  140.9160   71.2080  225.7110 C   0  0  0  0  0  0  0  0  0  0  0  0
  140.7600   71.5230  227.1790 C   0  0  0  0  0  0  0  0  0  0  0  0
  140.4100   70.3090  227.9850 C   0  0  0  0  0  0  0  0  0  0  0  0
  140.2340   69.0780  227.1160 C   0  0  0  0  0  0  0  0  0  0  0  0
  139.5820   68.1470  227.9360 F   0  0  0  0  0  0  0  0  0  0  0  0
  141.4280   68.5440  226.7120 F   0  0  0  0  0  0  0  0  0  0  0  0
  139.3120   69.3430  225.9580 C   0  0  0  0  0  0  0  0  0  0  0  0
  141.2030   74.4170  221.3050 C   0  0  0  0  0  0  0  0  0  0  0  0
  142.0240   74.8020  220.2640 C   0  0  0  0  0  0  0  0  0  0  0  0
  142.2140   76.1560  220.0500 C   0  0  0  0  0  0  0  0  0  0  0  0
  141.6110   77.1190  220.8410 C   0  0  0  0  0  0  0  0  0  0  0  0
  141.7840   78.4690  220.6480 C   0  0  0  0  0  0  0  0  0  0  0  0
  141.1610   79.4050  221.4630 C   0  0  0  0  0  0  0  0  0  0  0  0
  140.3560   78.9350  222.4830 C   0  0  0  0  0  0  0  0  0  0  0  0
  140.1690   77.5710  222.6910 C   0  0  0  0  0  0  0  0  0  0  0  0
  140.8020   76.6680  221.8650 C   0  0  0  0  0  0  0  0  0  0  0  0
  140.6220   75.3500  222.0670 N   0  0  0  0  0  0  0  0  0  0  0  0
  139.5670   73.3920  223.0990 H   0  0  0  0  0  0  0  0  0  0  0  0
  139.2234   70.7752  222.0305 H   0  0  0  0  0  0  0  0  0  0  0  0
  140.7740   70.7016  222.9661 H   0  0  0  0  0  0  0  0  0  0  0  0
  141.7966   70.5656  225.5634 H   0  0  0  0  0  0  0  0  0  0  0  0
  141.0497   72.1407  225.1434 H   0  0  0  0  0  0  0  0  0  0  0  0
  141.7073   71.9367  227.5550 H   0  0  0  0  0  0  0  0  0  0  0  0
  139.9376   72.2460  227.2834 H   0  0  0  0  0  0  0  0  0  0  0  0
  141.2161   70.1196  228.7092 H   0  0  0  0  0  0  0  0  0  0  0  0
  139.4542   70.5041  228.4934 H   0  0  0  0  0  0  0  0  0  0  0  0
  139.3291   68.4825  225.2729 H   0  0  0  0  0  0  0  0  0  0  0  0
  138.2898   69.4959  226.3345 H   0  0  0  0  0  0  0  0  0  0  0  0
  142.5132   74.0539  219.6229 H   0  0  0  0  0  0  0  0  0  0  0  0
  142.8656   76.4777  219.2242 H   0  0  0  0  0  0  0  0  0  0  0  0
  142.4310   78.8159  219.8289 H   0  0  0  0  0  0  0  0  0  0  0  0
  141.3035   80.4838  221.3021 H   0  0  0  0  0  0  0  0  0  0  0  0
  139.8518   79.6542  223.1452 H   0  0  0  0  0  0  0  0  0  0  0  0
  139.5219   77.2176  223.5073 H   0  0  0  0  0  0  0  0  0  0  0  0
  1  2  2  0
  2  3  1  0
  3  4  1  0
  4  5  1  0
  5  6  2  0
  5  7  1  0
  7  8  1  0
  8  9  1  0
  9 10  1  0
 10 11  1  0
 11 12  1  0
 11 13  1  0
 11 14  1  0
  2 15  1  0
 15 16  2  0
 16 17  1  0
 17 18  2  0
 18 19  1  0
 19 20  2  0
 20 21  1  0
 21 22  2  0
 22 23  1  0
 23 24  2  0
 14  7  1  0
 24 15  1  0
 23 18  1  0
  3 25  1  0
  4 26  1  0
  4 27  1  0
  8 28  1  0
  8 29  1  0
  9 30  1  0
  9 31  1  0
 10 32  1  0
 10 33  1  0
 14 34  1  0
 14 35  1  0
 16 36  1  0
 17 37  1  0
 19 38  1  0
 20 39  1  0
 21 40  1  0
 22 41  1  0
M  END
>  <smiles>  (1) 
O=C(NCC(=O)N1CCCC(F)(F)C1)c1ccc2ccccc2n1

>  <score_type>  (1) 
oracle

>  <origin>  (1) 
autodockgpu

>  <m_score__min__energy>  (1) 
-7.3099999999999996

>  <m_primary>  (1) 
energy

>  <rmsd>  (1) 
8.549130037956061

>  <m_score__min__rmsd>  (1) 
8.549130037956061

>  <meeko>  (1) 
{"free_energy": -6.84, "intermolecular_energy": -8.04, "internal_energy": -1.13, "cluster_size": 20, "cluster_id": 3, "rank_in_cluster": 9}

>  <energy>  (1) 
-7.31

>  <cluster_rmsd>  (1) 
0.0

>  <cluster>  (1) 
1

$$$$

     RDKit          3D

 41 43  0  0  0  0  0  0  0  0999 V2000
  139.8390   73.6170  222.6680 O   0  0  0  0  0  0  0  0  0  0  0  0
  140.2860   72.4480  222.6340 C   0  0  0  0  0  0  0  0  0  0  0  0
  140.9160   72.0070  221.4310 N   0  0  0  0  0  0  0  0  0  0  0  0
  141.0340   72.8880  220.2850 C   0  0  0  0  0  0  0  0  0  0  0  0
  142.1130   73.8920  220.4740 C   0  0  0  0  0  0  0  0  0  0  0  0
  141.9150   75.0450  220.9370 O   0  0  0  0  0  0  0  0  0  0  0  0
  143.4360   73.5220  220.1100 N   0  0  0  0  0  0  0  0  0  0  0  0
  144.4510   74.5300  220.0510 C   0  0  0  0  0  0  0  0  0  0  0  0
  145.6180   74.1060  220.9080 C   0  0  0  0  0  0  0  0  0  0  0  0
  146.1070   72.7320  220.5610 C   0  0  0  0  0  0  0  0  0  0  0  0
  145.2650   72.0840  219.4780 C   0  0  0  0  0  0  0  0  0  0  0  0
  145.6090   70.7260  219.5170 F   0  0  0  0  0  0  0  0  0  0  0  0
  145.5470   72.5690  218.2300 F   0  0  0  0  0  0  0  0  0  0  0  0
  143.7970   72.1600  219.7960 C   0  0  0  0  0  0  0  0  0  0  0  0
  140.1890   71.5280  223.7630 C   0  0  0  0  0  0  0  0  0  0  0  0
  139.6020   70.2920  223.5860 C   0  0  0  0  0  0  0  0  0  0  0  0
  139.5270   69.4430  224.6760 C   0  0  0  0  0  0  0  0  0  0  0  0
  140.0150   69.7980  225.9210 C   0  0  0  0  0  0  0  0  0  0  0  0
  139.9510   68.9720  227.0190 C   0  0  0  0  0  0  0  0  0  0  0  0
  140.4540   69.3650  228.2520 C   0  0  0  0  0  0  0  0  0  0  0  0
  141.0240   70.6200  228.3460 C   0  0  0  0  0  0  0  0  0  0  0  0
  141.0980   71.4680  227.2430 C   0  0  0  0  0  0  0  0  0  0  0  0
  140.5900   71.0480  226.0330 C   0  0  0  0  0  0  0  0  0  0  0  0
  140.6610   71.8680  224.9690 N   0  0  0  0  0  0  0  0  0  0  0  0
  141.2880   71.0130  221.4230 H   0  0  0  0  0  0  0  0  0  0  0  0
  141.2601   72.2850  219.3932 H   0  0  0  0  0  0  0  0  0  0  0  0
  140.0818   73.4256  220.1655 H   0  0  0  0  0  0  0  0  0  0  0  0
  144.7848   74.6562  219.0105 H   0  0  0  0  0  0  0  0  0  0  0  0
  144.0475   75.4844  220.4202 H   0  0  0  0  0  0  0  0  0  0  0  0
  146.4411   74.8215  220.7645 H   0  0  0  0  0  0  0  0  0  0  0  0
  145.2794   74.0892  221.9545 H   0  0  0  0  0  0  0  0  0  0  0  0
  147.1460   72.8040  220.2072 H   0  0  0  0  0  0  0  0  0  0  0  0
  146.0357   72.1085  221.4644 H   0  0  0  0  0  0  0  0  0  0  0  0
  143.2165   71.8194  218.9260 H   0  0  0  0  0  0  0  0  0  0  0  0
  143.5784   71.5170  220.6613 H   0  0  0  0  0  0  0  0  0  0  0  0
  139.2047   69.9900  222.6057 H   0  0  0  0  0  0  0  0  0  0  0  0
  139.0642   68.4533  224.5485 H   0  0  0  0  0  0  0  0  0  0  0  0
  139.4911   67.9779  226.9180 H   0  0  0  0  0  0  0  0  0  0  0  0
  140.4004   68.6988  229.1257 H   0  0  0  0  0  0  0  0  0  0  0  0
  141.4280   70.9568  229.3121 H   0  0  0  0  0  0  0  0  0  0  0  0
  141.5575   72.4630  227.3372 H   0  0  0  0  0  0  0  0  0  0  0  0
  1  2  2  0
  2  3  1  0
  3  4  1  0
  4  5  1  0
  5  6  2  0
  5  7  1  0
  7  8  1  0
  8  9  1  0
  9 10  1  0
 10 11  1  0
 11 12  1  0
 11 13  1  0
 11 14  1  0
  2 15  1  0
 15 16  2  0
 16 17  1  0
 17 18  2  0
 18 19  1  0
 19 20  2  0
 20 21  1  0
 21 22  2  0
 22 23  1  0
 23 24  2  0
 14  7  1  0
 24 15  1  0
 23 18  1  0
  3 25  1  0
  4 26  1  0
  4 27  1  0
  8 28  1  0
  8 29  1  0
  9 30  1  0
  9 31  1  0
 10 32  1  0
 10 33  1  0
 14 34  1  0
 14 35  1  0
 16 36  1  0
 17 37  1  0
 19 38  1  0
 20 39  1  0
 21 40  1  0
 22 41  1  0
M  END
>  <smiles>  (2) 
O=C(NCC(=O)N1CCCC(F)(F)C1)c1ccc2ccccc2n1

>  <score_type>  (2) 
oracle

>  <origin>  (2) 
autodockgpu

>  <m_score__min__energy>  (2) 
-7.3099999999999996

>  <m_primary>  (2) 
energy

>  <rmsd>  (2) 
4.069383867993512

>  <m_score__min__rmsd>  (2) 
4.069383867993512

>  <meeko>  (2) 
{"free_energy": -7.24, "intermolecular_energy": -8.43, "internal_energy": -0.78, "cluster_size": 17, "cluster_id": 1, "rank_in_cluster": 9}

>  <energy>  (2) 
-7.31

>  <cluster_rmsd>  (2) 
0.06

>  <cluster>  (2) 
1

$$$$

     RDKit          3D

 41 43  0  0  0  0  0  0  0  0999 V2000
  141.1710   72.9530  222.0660 O   0  0  0  0  0  0  0  0  0  0  0  0
  140.1320   72.6500  222.6950 C   0  0  0  0  0  0  0  0  0  0  0  0
  138.9250   73.3400  222.3670 N   0  0  0  0  0  0  0  0  0  0  0  0
  138.9070   74.3600  221.3370 C   0  0  0  0  0  0  0  0  0  0  0  0
  138.6560   75.7100  221.9060 C   0  0  0  0  0  0  0  0  0  0  0  0
  137.5150   76.1200  222.2400 O   0  0  0  0  0  0  0  0  0  0  0  0
  139.7690   76.5760  222.0770 N   0  0  0  0  0  0  0  0  0  0  0  0
  141.0580   76.1560  221.6180 C   0  0  0  0  0  0  0  0  0  0  0  0
  141.6240   77.2120  220.7010 C   0  0  0  0  0  0  0  0  0  0  0  0
  141.6200   78.5720  221.3320 C   0  0  0  0  0  0  0  0  0  0  0  0
  140.9870   78.5590  222.7110 C   0  0  0  0  0  0  0  0  0  0  0  0
  140.7390   79.9060  223.0080 F   0  0  0  0  0  0  0  0  0  0  0  0
  141.8200   78.0470  223.6680 F   0  0  0  0  0  0  0  0  0  0  0  0
  139.6480   77.8730  222.7000 C   0  0  0  0  0  0  0  0  0  0  0  0
  140.1050   71.6300  223.7390 C   0  0  0  0  0  0  0  0  0  0  0  0
  139.5850   70.3830  223.4590 C   0  0  0  0  0  0  0  0  0  0  0  0
  139.5750   69.4390  224.4710 C   0  0  0  0  0  0  0  0  0  0  0  0
  140.0650   69.7090  225.7360 C   0  0  0  0  0  0  0  0  0  0  0  0
  140.0660   68.7880  226.7570 C   0  0  0  0  0  0  0  0  0  0  0  0
  140.5670   69.0980  228.0140 C   0  0  0  0  0  0  0  0  0  0  0  0
  141.0690   70.3700  228.2120 C   0  0  0  0  0  0  0  0  0  0  0  0
  141.0770   71.3140  227.1880 C   0  0  0  0  0  0  0  0  0  0  0  0
  140.5720   70.9760  225.9520 C   0  0  0  0  0  0  0  0  0  0  0  0
  140.5790   71.8890  224.9640 N   0  0  0  0  0  0  0  0  0  0  0  0
  138.0560   73.0680  222.9130 H   0  0  0  0  0  0  0  0  0  0  0  0
  139.8794   74.3648  220.8228 H   0  0  0  0  0  0  0  0  0  0  0  0
  138.0922   74.1259  220.6361 H   0  0  0  0  0  0  0  0  0  0  0  0
  141.7286   76.0180  222.4790 H   0  0  0  0  0  0  0  0  0  0  0  0
  140.9657   75.2041  221.0744 H   0  0  0  0  0  0  0  0  0  0  0  0
  142.6598   76.9424  220.4472 H   0  0  0  0  0  0  0  0  0  0  0  0
  140.9897   77.2546  219.8033 H   0  0  0  0  0  0  0  0  0  0  0  0
  142.6581   78.9247  221.4214 H   0  0  0  0  0  0  0  0  0  0  0  0
  141.0253   79.2407  220.6923 H   0  0  0  0  0  0  0  0  0  0  0  0
  139.2920   77.7501  223.7335 H   0  0  0  0  0  0  0  0  0  0  0  0
  138.9312   78.4839  222.1317 H   0  0  0  0  0  0  0  0  0  0  0  0
  139.1898   70.1460  222.4602 H   0  0  0  0  0  0  0  0  0  0  0  0
  139.1635   68.4404  224.2623 H   0  0  0  0  0  0  0  0  0  0  0  0
  139.6603   67.7821  226.5735 H   0  0  0  0  0  0  0  0  0  0  0  0
  140.5644   68.3555  228.8256 H   0  0  0  0  0  0  0  0  0  0  0  0
  141.4707   70.6428  229.1990 H   0  0  0  0  0  0  0  0  0  0  0  0
  141.4831   72.3209  227.3649 H   0  0  0  0  0  0  0  0  0  0  0  0
  1  2  2  0
  2  3  1  0
  3  4  1  0
  4  5  1  0
  5  6  2  0
  5  7  1  0
  7  8  1  0
  8  9  1  0
  9 10  1  0
 10 11  1  0
 11 12  1  0
 11 13  1  0
 11 14  1  0
  2 15  1  0
 15 16  2  0
 16 17  1  0
 17 18  2  0
 18 19  1  0
 19 20  2  0
 20 21  1  0
 21 22  2  0
 22 23  1  0
 23 24  2  0
 14  7  1  0
 24 15  1  0
 23 18  1  0
  3 25  1  0
  4 26  1  0
  4 27  1  0
  8 28  1  0
  8 29  1  0
  9 30  1  0
  9 31  1  0
 10 32  1  0
 10 33  1  0
 14 34  1  0
 14 35  1  0
 16 36  1  0
 17 37  1  0
 19 38  1  0
 20 39  1  0
 21 40  1  0
 22 41  1  0
M  END
>  <smiles>  (3) 
O=C(NCC(=O)N1CCCC(F)(F)C1)c1ccc2ccccc2n1

>  <score_type>  (3) 
oracle

>  <origin>  (3) 
autodockgpu

>  <m_score__min__energy>  (3) 
-7.3099999999999996

>  <m_primary>  (3) 
energy

>  <rmsd>  (3) 
2.4683398614524994

>  <m_score__min__rmsd>  (3) 
2.4683398614524994

>  <meeko>  (3) 
{"free_energy": -7.07, "intermolecular_energy": -8.27, "internal_energy": -0.84, "cluster_size": 11, "cluster_id": 2, "rank_in_cluster": 6}

>  <energy>  (3) 
-7.31

>  <cluster_rmsd>  (3) 
0.1

>  <cluster>  (3) 
1

$$$$

     RDKit          3D

 41 43  0  0  0  0  0  0  0  0999 V2000
  139.9280   73.6400  222.6570 O   0  0  0  0  0  0  0  0  0  0  0  0
  140.3130   72.4500  222.6130 C   0  0  0  0  0  0  0  0  0  0  0  0
  140.9050   71.9810  221.4010 N   0  0  0  0  0  0  0  0  0  0  0  0
  141.0540   72.8600  220.2570 C   0  0  0  0  0  0  0  0  0  0  0  0
  142.1630   73.8290  220.4500 C   0  0  0  0  0  0  0  0  0  0  0  0
  141.9960   75.0750  220.4960 O   0  0  0  0  0  0  0  0  0  0  0  0
  143.4800   73.3130  220.5880 N   0  0  0  0  0  0  0  0  0  0  0  0
  143.6600   71.9100  220.8090 C   0  0  0  0  0  0  0  0  0  0  0  0
  144.6100   71.3640  219.7710 C   0  0  0  0  0  0  0  0  0  0  0  0
  145.8920   72.1380  219.7140 C   0  0  0  0  0  0  0  0  0  0  0  0
  145.8900   73.3170  220.6690 C   0  0  0  0  0  0  0  0  0  0  0  0
  146.9630   74.1190  220.2560 F   0  0  0  0  0  0  0  0  0  0  0  0
  146.0990   72.9430  221.9690 F   0  0  0  0  0  0  0  0  0  0  0  0
  144.6500   74.1550  220.5130 C   0  0  0  0  0  0  0  0  0  0  0  0
  140.1830   71.5320  223.7410 C   0  0  0  0  0  0  0  0  0  0  0  0
  139.5680   70.3100  223.5560 C   0  0  0  0  0  0  0  0  0  0  0  0
  139.4610   69.4630  224.6450 C   0  0  0  0  0  0  0  0  0  0  0  0
  139.9460   69.8040  225.8950 C   0  0  0  0  0  0  0  0  0  0  0  0
  139.8510   68.9800  226.9920 C   0  0  0  0  0  0  0  0  0  0  0  0
  140.3520   69.3590  228.2300 C   0  0  0  0  0  0  0  0  0  0  0  0
  140.9530   70.6000  228.3300 C   0  0  0  0  0  0  0  0  0  0  0  0
  141.0580   71.4460  227.2290 C   0  0  0  0  0  0  0  0  0  0  0  0
  140.5510   71.0400  226.0130 C   0  0  0  0  0  0  0  0  0  0  0  0
  140.6520   71.8590  224.9510 N   0  0  0  0  0  0  0  0  0  0  0  0
  141.2250   70.9690  221.3860 H   0  0  0  0  0  0  0  0  0  0  0  0
  141.2633   72.2516  219.3648 H   0  0  0  0  0  0  0  0  0  0  0  0
  140.1195   73.4276  220.1365 H   0  0  0  0  0  0  0  0  0  0  0  0
  144.0779   71.7460  221.8132 H   0  0  0  0  0  0  0  0  0  0  0  0
  142.6909   71.3954  220.7313 H   0  0  0  0  0  0  0  0  0  0  0  0
  144.8392   70.3166  220.0166 H   0  0  0  0  0  0  0  0  0  0  0  0
  144.1214   71.4472  218.7890 H   0  0  0  0  0  0  0  0  0  0  0  0
  146.7230   71.4679  219.9795 H   0  0  0  0  0  0  0  0  0  0  0  0
  146.0059   72.5298  218.6925 H   0  0  0  0  0  0  0  0  0  0  0  0
  144.6124   74.9053  221.3166 H   0  0  0  0  0  0  0  0  0  0  0  0
  144.6727   74.6601  219.5361 H   0  0  0  0  0  0  0  0  0  0  0  0
  139.1743   70.0180  222.5712 H   0  0  0  0  0  0  0  0  0  0  0  0
  138.9739   68.4857  224.5124 H   0  0  0  0  0  0  0  0  0  0  0  0
  139.3669   67.9980  226.8860 H   0  0  0  0  0  0  0  0  0  0  0  0
  140.2734   68.6938  229.1026 H   0  0  0  0  0  0  0  0  0  0  0  0
  141.3568   70.9260  229.2999 H   0  0  0  0  0  0  0  0  0  0  0  0
  141.5410   72.4292  227.3286 H   0  0  0  0  0  0  0  0  0  0  0  0
  1  2  2  0
  2  3  1  0
  3  4  1  0
  4  5  1  0
  5  6  2  0
  5  7  1  0
  7  8  1  0
  8  9  1  0
  9 10  1  0
 10 11  1  0
 11 12  1  0
 11 13  1  0
 11 14  1  0
  2 15  1  0
 15 16  2  0
 16 17  1  0
 17 18  2  0
 18 19  1  0
 19 20  2  0
 20 21  1  0
 21 22  2  0
 22 23  1  0
 23 24  2  0
 14  7  1  0
 24 15  1  0
 23 18  1  0
  3 25  1  0
  4 26  1  0
  4 27  1  0
  8 28  1  0
  8 29  1  0
  9 30  1  0
  9 31  1  0
 10 32  1  0
 10 33  1  0
 14 34  1  0
 14 35  1  0
 16 36  1  0
 17 37  1  0
 19 38  1  0
 20 39  1  0
 21 40  1  0
 22 41  1  0
M  END
>  <smiles>  (4) 
O=C(NCC(=O)N1CCCC(F)(F)C1)c1ccc2ccccc2n1

>  <score_type>  (4) 
oracle

>  <origin>  (4) 
autodockgpu

>  <m_score__min__energy>  (4) 
-7.3099999999999996

>  <m_primary>  (4) 
energy

>  <rmsd>  (4) 
4.052940133580414

>  <m_score__min__rmsd>  (4) 
4.052940133580414

>  <meeko>  (4) 
{"free_energy": -7.16, "intermolecular_energy": -8.36, "internal_energy": -0.73, "cluster_size": 17, "cluster_id": 1, "rank_in_cluster": 11}

>  <energy>  (4) 
-7.31

>  <cluster_rmsd>  (4) 
0.06

>  <cluster>  (4) 
1

$$$$

     RDKit          3D

 41 43  0  0  0  0  0  0  0  0999 V2000
  141.2580   72.0340  221.5920 O   0  0  0  0  0  0  0  0  0  0  0  0
  140.4330   72.3290  222.4850 C   0  0  0  0  0  0  0  0  0  0  0  0
  139.6650   73.5220  222.3220 N   0  0  0  0  0  0  0  0  0  0  0  0
  139.8390   74.3650  221.1550 C   0  0  0  0  0  0  0  0  0  0  0  0
  141.1050   75.1400  221.2220 C   0  0  0  0  0  0  0  0  0  0  0  0
  142.2450   74.6080  221.2070 O   0  0  0  0  0  0  0  0  0  0  0  0
  141.0150   76.5550  221.3080 N   0  0  0  0  0  0  0  0  0  0  0  0
  140.3530   77.1450  222.4310 C   0  0  0  0  0  0  0  0  0  0  0  0
  141.2780   78.1460  223.0800 C   0  0  0  0  0  0  0  0  0  0  0  0
  141.8100   79.1450  222.0980 C   0  0  0  0  0  0  0  0  0  0  0  0
  141.3390   78.8620  220.6840 C   0  0  0  0  0  0  0  0  0  0  0  0
  142.1740   79.6310  219.8620 F   0  0  0  0  0  0  0  0  0  0  0  0
  140.0430   79.2490  220.4730 F   0  0  0  0  0  0  0  0  0  0  0  0
  141.5690   77.4260  220.2980 C   0  0  0  0  0  0  0  0  0  0  0  0
  140.2260   71.5090  223.6760 C   0  0  0  0  0  0  0  0  0  0  0  0
  139.5050   70.3370  223.5780 C   0  0  0  0  0  0  0  0  0  0  0  0
  139.3280   69.5830  224.7240 C   0  0  0  0  0  0  0  0  0  0  0  0
  139.8460   69.9680  225.9480 C   0  0  0  0  0  0  0  0  0  0  0  0
  139.6830   69.2360  227.1000 C   0  0  0  0  0  0  0  0  0  0  0  0
  140.2200   69.6570  228.3100 C   0  0  0  0  0  0  0  0  0  0  0  0
  140.9280   70.8440  228.3220 C   0  0  0  0  0  0  0  0  0  0  0  0
  141.1030   71.5960  227.1630 C   0  0  0  0  0  0  0  0  0  0  0  0
  140.5580   71.1510  225.9790 C   0  0  0  0  0  0  0  0  0  0  0  0
  140.7270   71.8800  224.8600 N   0  0  0  0  0  0  0  0  0  0  0  0
  138.9710   73.7530  223.0910 H   0  0  0  0  0  0  0  0  0  0  0  0
  139.8561   73.7309  220.2563 H   0  0  0  0  0  0  0  0  0  0  0  0
  139.0018   75.0775  221.1182 H   0  0  0  0  0  0  0  0  0  0  0  0
  139.4380   77.6538  222.0936 H   0  0  0  0  0  0  0  0  0  0  0  0
  140.0859   76.3626  223.1566 H   0  0  0  0  0  0  0  0  0  0  0  0
  140.7251   78.6816  223.8658 H   0  0  0  0  0  0  0  0  0  0  0  0
  142.1333   77.5943  223.4972 H   0  0  0  0  0  0  0  0  0  0  0  0
  141.4675   80.1482  222.3918 H   0  0  0  0  0  0  0  0  0  0  0  0
  142.9080   79.0790  222.1089 H   0  0  0  0  0  0  0  0  0  0  0  0
  141.0805   77.2241  219.3333 H   0  0  0  0  0  0  0  0  0  0  0  0
  142.6499   77.2411  220.2110 H   0  0  0  0  0  0  0  0  0  0  0  0
  139.0829   70.0114  222.6158 H   0  0  0  0  0  0  0  0  0  0  0  0
  138.7561   68.6455  224.6602 H   0  0  0  0  0  0  0  0  0  0  0  0
  139.1142   68.2952  227.0629 H   0  0  0  0  0  0  0  0  0  0  0  0
  140.0863   69.0655  229.2278 H   0  0  0  0  0  0  0  0  0  0  0  0
  141.3624   71.2023  229.2670 H   0  0  0  0  0  0  0  0  0  0  0  0
  141.6716   72.5372  227.1929 H   0  0  0  0  0  0  0  0  0  0  0  0
  1  2  2  0
  2  3  1  0
  3  4  1  0
  4  5  1  0
  5  6  2  0
  5  7  1  0
  7  8  1  0
  8  9  1  0
  9 10  1  0
 10 11  1  0
 11 12  1  0
 11 13  1  0
 11 14  1  0
  2 15  1  0
 15 16  2  0
 16 17  1  0
 17 18  2  0
 18 19  1  0
 19 20  2  0
 20 21  1  0
 21 22  2  0
 22 23  1  0
 23 24  2  0
 14  7  1  0
 24 15  1  0
 23 18  1  0
  3 25  1  0
  4 26  1  0
  4 27  1  0
  8 28  1  0
  8 29  1  0
  9 30  1  0
  9 31  1  0
 10 32  1  0
 10 33  1  0
 14 34  1  0
 14 35  1  0
 16 36  1  0
 17 37  1  0
 19 38  1  0
 20 39  1  0
 21 40  1  0
 22 41  1  0
M  END
>  <smiles>  (5) 
O=C(NCC(=O)N1CCCC(F)(F)C1)c1ccc2ccccc2n1

>  <score_type>  (5) 
oracle

>  <origin>  (5) 
autodockgpu

>  <m_score__min__energy>  (5) 
-7.3099999999999996

>  <m_primary>  (5) 
energy

>  <rmsd>  (5) 
2.8324448012679015

>  <m_score__min__rmsd>  (5) 
2.8324448012679015

>  <meeko>  (5) 
{"free_energy": -7.26, "intermolecular_energy": -8.46, "internal_energy": -0.77, "cluster_size": 11, "cluster_id": 2, "rank_in_cluster": 1}

>  <energy>  (5) 
-7.3

>  <cluster_rmsd>  (5) 
0.13

>  <cluster>  (5) 
1

$$$$

     RDKit          3D

 41 43  0  0  0  0  0  0  0  0999 V2000
  141.0190   71.9100  221.3880 O   0  0  0  0  0  0  0  0  0  0  0  0
  140.3710   72.2920  222.3880 C   0  0  0  0  0  0  0  0  0  0  0  0
  139.7620   73.5820  222.3390 N   0  0  0  0  0  0  0  0  0  0  0  0
  139.8920   74.4230  221.1650 C   0  0  0  0  0  0  0  0  0  0  0  0
  141.2170   75.0930  221.1150 C   0  0  0  0  0  0  0  0  0  0  0  0
  142.2860   74.4960  220.8260 O   0  0  0  0  0  0  0  0  0  0  0  0
  141.2710   76.4820  221.4110 N   0  0  0  0  0  0  0  0  0  0  0  0
  141.8790   77.3720  220.4690 C   0  0  0  0  0  0  0  0  0  0  0  0
  140.9090   78.4810  220.1400 C   0  0  0  0  0  0  0  0  0  0  0  0
  140.3880   79.1620  221.3700 C   0  0  0  0  0  0  0  0  0  0  0  0
  140.9160   78.5250  222.6420 C   0  0  0  0  0  0  0  0  0  0  0  0
  140.0920   79.0180  223.6630 F   0  0  0  0  0  0  0  0  0  0  0  0
  142.2090   78.8830  222.9130 F   0  0  0  0  0  0  0  0  0  0  0  0
  140.7330   77.0310  222.6320 C   0  0  0  0  0  0  0  0  0  0  0  0
  140.2150   71.4780  223.5900 C   0  0  0  0  0  0  0  0  0  0  0  0
  139.5880   70.2510  223.5050 C   0  0  0  0  0  0  0  0  0  0  0  0
  139.4570   69.5050  224.6620 C   0  0  0  0  0  0  0  0  0  0  0  0
  139.9300   69.9490  225.8850 C   0  0  0  0  0  0  0  0  0  0  0  0
  139.8110   69.2260  227.0480 C   0  0  0  0  0  0  0  0  0  0  0  0
  140.2990   69.7070  228.2550 C   0  0  0  0  0  0  0  0  0  0  0  0
  140.9130   70.9450  228.2540 C   0  0  0  0  0  0  0  0  0  0  0  0
  141.0420   71.6900  227.0850 C   0  0  0  0  0  0  0  0  0  0  0  0
  140.5470   71.1850  225.9030 C   0  0  0  0  0  0  0  0  0  0  0  0
  140.6720   71.9060  224.7730 N   0  0  0  0  0  0  0  0  0  0  0  0
  139.2170   73.8860  223.1980 H   0  0  0  0  0  0  0  0  0  0  0  0
  139.7725   73.8011  220.2656 H   0  0  0  0  0  0  0  0  0  0  0  0
  139.1153   75.2005  221.2116 H   0  0  0  0  0  0  0  0  0  0  0  0
  142.7940   77.8001  220.9043 H   0  0  0  0  0  0  0  0  0  0  0  0
  142.1372   76.8215  219.5524 H   0  0  0  0  0  0  0  0  0  0  0  0
  141.4217   79.2255  219.5132 H   0  0  0  0  0  0  0  0  0  0  0  0
  140.0527   78.0350  219.6129 H   0  0  0  0  0  0  0  0  0  0  0  0
  140.6955   80.2179  221.3480 H   0  0  0  0  0  0  0  0  0  0  0  0
  139.2923   79.0654  221.3723 H   0  0  0  0  0  0  0  0  0  0  0  0
  141.2593   76.5926  223.4927 H   0  0  0  0  0  0  0  0  0  0  0  0
  139.6603   76.7955  222.6950 H   0  0  0  0  0  0  0  0  0  0  0  0
  139.2036   69.8774  222.5444 H   0  0  0  0  0  0  0  0  0  0  0  0
  138.9599   68.5252  224.6088 H   0  0  0  0  0  0  0  0  0  0  0  0
  139.3175   68.2433  227.0215 H   0  0  0  0  0  0  0  0  0  0  0  0
  140.2003   69.1223  229.1815 H   0  0  0  0  0  0  0  0  0  0  0  0
  141.3083   71.3505  229.1970 H   0  0  0  0  0  0  0  0  0  0  0  0
  141.5349   72.6732  227.1052 H   0  0  0  0  0  0  0  0  0  0  0  0
  1  2  2  0
  2  3  1  0
  3  4  1  0
  4  5  1  0
  5  6  2  0
  5  7  1  0
  7  8  1  0
  8  9  1  0
  9 10  1  0
 10 11  1  0
 11 12  1  0
 11 13  1  0
 11 14  1  0
  2 15  1  0
 15 16  2  0
 16 17  1  0
 17 18  2  0
 18 19  1  0
 19 20  2  0
 20 21  1  0
 21 22  2  0
 22 23  1  0
 23 24  2  0
 14  7  1  0
 24 15  1  0
 23 18  1  0
  3 25  1  0
  4 26  1  0
  4 27  1  0
  8 28  1  0
  8 29  1  0
  9 30  1  0
  9 31  1  0
 10 32  1  0
 10 33  1  0
 14 34  1  0
 14 35  1  0
 16 36  1  0
 17 37  1  0
 19 38  1  0
 20 39  1  0
 21 40  1  0
 22 41  1  0
M  END
>  <smiles>  (6) 
O=C(NCC(=O)N1CCCC(F)(F)C1)c1ccc2ccccc2n1

>  <score_type>  (6) 
oracle

>  <origin>  (6) 
autodockgpu

>  <m_score__min__energy>  (6) 
-7.3099999999999996

>  <m_primary>  (6) 
energy

>  <rmsd>  (6) 
2.47905921539839

>  <m_score__min__rmsd>  (6) 
2.47905921539839

>  <meeko>  (6) 
{"free_energy": -6.96, "intermolecular_energy": -8.16, "internal_energy": -0.8, "cluster_size": 11, "cluster_id": 2, "rank_in_cluster": 10}

>  <energy>  (6) 
-7.3

>  <cluster_rmsd>  (6) 
0.14

>  <cluster>  (6) 
1

$$$$

     RDKit          3D

 41 43  0  0  0  0  0  0  0  0999 V2000
  139.4820   70.7480  221.4900 O   0  0  0  0  0  0  0  0  0  0  0  0
  139.6580   71.2220  222.6350 C   0  0  0  0  0  0  0  0  0  0  0  0
  139.7990   72.6380  222.7600 N   0  0  0  0  0  0  0  0  0  0  0  0
  139.7410   73.4980  221.5940 C   0  0  0  0  0  0  0  0  0  0  0  0
  140.9610   74.3370  221.4690 C   0  0  0  0  0  0  0  0  0  0  0  0
  141.0540   75.4990  221.9400 O   0  0  0  0  0  0  0  0  0  0  0  0
  142.0760   73.7890  220.7800 N   0  0  0  0  0  0  0  0  0  0  0  0
  142.9130   74.6570  220.0070 C   0  0  0  0  0  0  0  0  0  0  0  0
  144.3460   74.4830  220.4490 C   0  0  0  0  0  0  0  0  0  0  0  0
  144.7760   73.0480  220.4260 C   0  0  0  0  0  0  0  0  0  0  0  0
  143.6440   72.1190  220.0270 C   0  0  0  0  0  0  0  0  0  0  0  0
  144.0830   70.8380  220.3870 F   0  0  0  0  0  0  0  0  0  0  0  0
  143.4000   72.1340  218.6800 F   0  0  0  0  0  0  0  0  0  0  0  0
  142.4000   72.3830  220.8300 C   0  0  0  0  0  0  0  0  0  0  0  0
  139.7230   70.3940  223.8350 C   0  0  0  0  0  0  0  0  0  0  0  0
  139.1800   69.1250  223.8160 C   0  0  0  0  0  0  0  0  0  0  0  0
  139.2590   68.3650  224.9690 C   0  0  0  0  0  0  0  0  0  0  0  0
  139.8580   68.8370  226.1240 C   0  0  0  0  0  0  0  0  0  0  0  0
  139.9480   68.1010  227.2820 C   0  0  0  0  0  0  0  0  0  0  0  0
  140.5580   68.6110  228.4210 C   0  0  0  0  0  0  0  0  0  0  0  0
  141.0750   69.8910  228.3560 C   0  0  0  0  0  0  0  0  0  0  0  0
  140.9930   70.6490  227.1910 C   0  0  0  0  0  0  0  0  0  0  0  0
  140.3820   70.1140  226.0780 C   0  0  0  0  0  0  0  0  0  0  0  0
  140.3020   70.8480  224.9530 N   0  0  0  0  0  0  0  0  0  0  0  0
  139.9470   73.0180  223.7390 H   0  0  0  0  0  0  0  0  0  0  0  0
  139.6446   72.8727  220.6942 H   0  0  0  0  0  0  0  0  0  0  0  0
  138.8746   74.1668  221.7038 H   0  0  0  0  0  0  0  0  0  0  0  0
  142.8228   74.4023  218.9407 H   0  0  0  0  0  0  0  0  0  0  0  0
  142.6029   75.7016  220.1571 H   0  0  0  0  0  0  0  0  0  0  0  0
  144.9970   75.0586  219.7745 H   0  0  0  0  0  0  0  0  0  0  0  0
  144.4252   74.8423  221.4857 H   0  0  0  0  0  0  0  0  0  0  0  0
  145.5982   72.9357  219.7040 H   0  0  0  0  0  0  0  0  0  0  0  0
  145.0967   72.7742  221.4420 H   0  0  0  0  0  0  0  0  0  0  0  0
  141.5653   71.8007  220.4127 H   0  0  0  0  0  0  0  0  0  0  0  0
  142.5721   72.0865  221.8752 H   0  0  0  0  0  0  0  0  0  0  0  0
  138.6982   68.7294  222.9097 H   0  0  0  0  0  0  0  0  0  0  0  0
  138.8314   67.3515  224.9679 H   0  0  0  0  0  0  0  0  0  0  0  0
  139.5272   67.0850  227.3070 H   0  0  0  0  0  0  0  0  0  0  0  0
  140.6272   68.0161  229.3437 H   0  0  0  0  0  0  0  0  0  0  0  0
  141.5619   70.3203  229.2440 H   0  0  0  0  0  0  0  0  0  0  0  0
  141.4121   71.6655  227.1595 H   0  0  0  0  0  0  0  0  0  0  0  0
  1  2  2  0
  2  3  1  0
  3  4  1  0
  4  5  1  0
  5  6  2  0
  5  7  1  0
  7  8  1  0
  8  9  1  0
  9 10  1  0
 10 11  1  0
 11 12  1  0
 11 13  1  0
 11 14  1  0
  2 15  1  0
 15 16  2  0
 16 17  1  0
 17 18  2  0
 18 19  1  0
 19 20  2  0
 20 21  1  0
 21 22  2  0
 22 23  1  0
 23 24  2  0
 14  7  1  0
 24 15  1  0
 23 18  1  0
  3 25  1  0
  4 26  1  0
  4 27  1  0
  8 28  1  0
  8 29  1  0
  9 30  1  0
  9 31  1  0
 10 32  1  0
 10 33  1  0
 14 34  1  0
 14 35  1  0
 16 36  1  0
 17 37  1  0
 19 38  1  0
 20 39  1  0
 21 40  1  0
 22 41  1  0
M  END
>  <smiles>  (7) 
O=C(NCC(=O)N1CCCC(F)(F)C1)c1ccc2ccccc2n1

>  <score_type>  (7) 
oracle

>  <origin>  (7) 
autodockgpu

>  <m_score__min__energy>  (7) 
-7.3099999999999996

>  <m_primary>  (7) 
energy

>  <rmsd>  (7) 
3.172141760122465

>  <m_score__min__rmsd>  (7) 
3.172141760122465

>  <meeko>  (7) 
{"free_energy": -6.79, "intermolecular_energy": -7.98, "internal_energy": -1.17, "cluster_size": 17, "cluster_id": 1, "rank_in_cluster": 14}

>  <energy>  (7) 
-7.29

>  <cluster_rmsd>  (7) 
0.14

>  <cluster>  (7) 
1

$$$$

     RDKit          3D

 41 43  0  0  0  0  0  0  0  0999 V2000
  141.5800   72.1000  220.9190 O   0  0  0  0  0  0  0  0  0  0  0  0
  140.9890   73.0010  221.5560 C   0  0  0  0  0  0  0  0  0  0  0  0
  140.0680   72.6070  222.5740 N   0  0  0  0  0  0  0  0  0  0  0  0
  139.8270   71.2060  222.8580 C   0  0  0  0  0  0  0  0  0  0  0  0
  139.0840   71.0240  224.1320 C   0  0  0  0  0  0  0  0  0  0  0  0
  137.8410   71.1810  224.2390 O   0  0  0  0  0  0  0  0  0  0  0  0
  139.8260   70.6550  225.2870 N   0  0  0  0  0  0  0  0  0  0  0  0
  141.0850   71.2880  225.5390 C   0  0  0  0  0  0  0  0  0  0  0  0
  141.0760   71.8670  226.9330 C   0  0  0  0  0  0  0  0  0  0  0  0
  140.6900   70.8520  227.9660 C   0  0  0  0  0  0  0  0  0  0  0  0
  140.3420   69.5110  227.3460 C   0  0  0  0  0  0  0  0  0  0  0  0
  139.6820   68.8040  228.3600 F   0  0  0  0  0  0  0  0  0  0  0  0
  141.4490   68.8010  226.9690 F   0  0  0  0  0  0  0  0  0  0  0  0
  139.3550   69.6600  226.2210 C   0  0  0  0  0  0  0  0  0  0  0  0
  141.2030   74.4230  221.3030 C   0  0  0  0  0  0  0  0  0  0  0  0
  142.0380   74.8140  220.2770 C   0  0  0  0  0  0  0  0  0  0  0  0
  142.2180   76.1680  220.0630 C   0  0  0  0  0  0  0  0  0  0  0  0
  141.5930   77.1270  220.8400 C   0  0  0  0  0  0  0  0  0  0  0  0
  141.7570   78.4790  220.6480 C   0  0  0  0  0  0  0  0  0  0  0  0
  141.1110   79.4100  221.4500 C   0  0  0  0  0  0  0  0  0  0  0  0
  140.2920   78.9350  222.4560 C   0  0  0  0  0  0  0  0  0  0  0  0
  140.1150   77.5700  222.6650 C   0  0  0  0  0  0  0  0  0  0  0  0
  140.7700   76.6710  221.8510 C   0  0  0  0  0  0  0  0  0  0  0  0
  140.5990   75.3520  222.0540 N   0  0  0  0  0  0  0  0  0  0  0  0
  139.5790   73.3860  223.1030 H   0  0  0  0  0  0  0  0  0  0  0  0
  139.2381   70.7718  222.0366 H   0  0  0  0  0  0  0  0  0  0  0  0
  140.8005   70.7028  222.9536 H   0  0  0  0  0  0  0  0  0  0  0  0
  141.8936   70.5472  225.4530 H   0  0  0  0  0  0  0  0  0  0  0  0
  141.2499   72.0907  224.8052 H   0  0  0  0  0  0  0  0  0  0  0  0
  142.0826   72.2444  227.1662 H   0  0  0  0  0  0  0  0  0  0  0  0
  140.3295   72.6745  226.9581 H   0  0  0  0  0  0  0  0  0  0  0  0
  141.5322   70.7141  228.6600 H   0  0  0  0  0  0  0  0  0  0  0  0
  139.7978   71.2246  228.4906 H   0  0  0  0  0  0  0  0  0  0  0  0
  139.2435   68.6962  225.7027 H   0  0  0  0  0  0  0  0  0  0  0  0
  138.3834   69.9754  226.6291 H   0  0  0  0  0  0  0  0  0  0  0  0
  142.5464   74.0694  219.6468 H   0  0  0  0  0  0  0  0  0  0  0  0
  142.8805   76.4937  219.2475 H   0  0  0  0  0  0  0  0  0  0  0  0
  142.4154   78.8308  219.8401 H   0  0  0  0  0  0  0  0  0  0  0  0
  141.2467   80.4898  221.2898 H   0  0  0  0  0  0  0  0  0  0  0  0
  139.7682   79.6511  223.1062 H   0  0  0  0  0  0  0  0  0  0  0  0
  139.4587   77.2124  223.4720 H   0  0  0  0  0  0  0  0  0  0  0  0
  1  2  2  0
  2  3  1  0
  3  4  1  0
  4  5  1  0
  5  6  2  0
  5  7  1  0
  7  8  1  0
  8  9  1  0
  9 10  1  0
 10 11  1  0
 11 12  1  0
 11 13  1  0
 11 14  1  0
  2 15  1  0
 15 16  2  0
 16 17  1  0
 17 18  2  0
 18 19  1  0
 19 20  2  0
 20 21  1  0
 21 22  2  0
 22 23  1  0
 23 24  2  0
 14  7  1  0
 24 15  1  0
 23 18  1  0
  3 25  1  0
  4 26  1  0
  4 27  1  0
  8 28  1  0
  8 29  1  0
  9 30  1  0
  9 31  1  0
 10 32  1  0
 10 33  1  0
 14 34  1  0
 14 35  1  0
 16 36  1  0
 17 37  1  0
 19 38  1  0
 20 39  1  0
 21 40  1  0
 22 41  1  0
M  END
>  <smiles>  (8) 
O=C(NCC(=O)N1CCCC(F)(F)C1)c1ccc2ccccc2n1

>  <score_type>  (8) 
oracle

>  <origin>  (8) 
autodockgpu

>  <m_score__min__energy>  (8) 
-7.3099999999999996

>  <m_primary>  (8) 
energy

>  <rmsd>  (8) 
8.466886830655522

>  <m_score__min__rmsd>  (8) 
8.466886830655522

>  <meeko>  (8) 
{"free_energy": -6.87, "intermolecular_energy": -8.06, "internal_energy": -1.13, "cluster_size": 20, "cluster_id": 3, "rank_in_cluster": 2}

>  <energy>  (8) 
-7.28

>  <cluster_rmsd>  (8) 
0.17

>  <cluster>  (8) 
1

$$$$

     RDKit          3D

 41 43  0  0  0  0  0  0  0  0999 V2000
  141.5690   72.0660  220.9330 O   0  0  0  0  0  0  0  0  0  0  0  0
  140.9860   72.9730  221.5680 C   0  0  0  0  0  0  0  0  0  0  0  0
  140.0580   72.5910  222.5840 N   0  0  0  0  0  0  0  0  0  0  0  0
  139.8010   71.1920  222.8690 C   0  0  0  0  0  0  0  0  0  0  0  0
  139.0630   71.0200  224.1470 C   0  0  0  0  0  0  0  0  0  0  0  0
  137.8220   71.1890  224.2600 O   0  0  0  0  0  0  0  0  0  0  0  0
  139.8070   70.6460  225.2980 N   0  0  0  0  0  0  0  0  0  0  0  0
  141.0680   71.2750  225.5490 C   0  0  0  0  0  0  0  0  0  0  0  0
  141.0640   71.8500  226.9450 C   0  0  0  0  0  0  0  0  0  0  0  0
  140.6790   70.8310  227.9760 C   0  0  0  0  0  0  0  0  0  0  0  0
  140.3260   69.4940  227.3530 C   0  0  0  0  0  0  0  0  0  0  0  0
  139.6670   68.7850  228.3660 F   0  0  0  0  0  0  0  0  0  0  0  0
  141.4310   68.7830  226.9700 F   0  0  0  0  0  0  0  0  0  0  0  0
  139.3360   69.6480  226.2300 C   0  0  0  0  0  0  0  0  0  0  0  0
  141.2150   74.3930  221.3130 C   0  0  0  0  0  0  0  0  0  0  0  0
  142.0480   74.7730  220.2800 C   0  0  0  0  0  0  0  0  0  0  0  0
  142.2430   76.1260  220.0650 C   0  0  0  0  0  0  0  0  0  0  0  0
  141.6360   77.0920  220.8480 C   0  0  0  0  0  0  0  0  0  0  0  0
  141.8150   78.4420  220.6540 C   0  0  0  0  0  0  0  0  0  0  0  0
  141.1870   79.3810  221.4610 C   0  0  0  0  0  0  0  0  0  0  0  0
  140.3700   78.9160  222.4740 C   0  0  0  0  0  0  0  0  0  0  0  0
  140.1770   77.5530  222.6830 C   0  0  0  0  0  0  0  0  0  0  0  0
  140.8150   76.6460  221.8650 C   0  0  0  0  0  0  0  0  0  0  0  0
  140.6290   75.3290  222.0680 N   0  0  0  0  0  0  0  0  0  0  0  0
  139.5750   73.3760  223.1090 H   0  0  0  0  0  0  0  0  0  0  0  0
  139.2021   70.7653  222.0509 H   0  0  0  0  0  0  0  0  0  0  0  0
  140.7684   70.6761  222.9586 H   0  0  0  0  0  0  0  0  0  0  0  0
  141.8745   70.5324  225.4588 H   0  0  0  0  0  0  0  0  0  0  0  0
  141.2330   72.0796  224.8173 H   0  0  0  0  0  0  0  0  0  0  0  0
  142.0718   72.2250  227.1766 H   0  0  0  0  0  0  0  0  0  0  0  0
  140.3193   72.6590  226.9750 H   0  0  0  0  0  0  0  0  0  0  0  0
  141.5233   70.6886  228.6665 H   0  0  0  0  0  0  0  0  0  0  0  0
  139.7893   71.2037  228.5048 H   0  0  0  0  0  0  0  0  0  0  0  0
  139.2220   68.6861  225.7088 H   0  0  0  0  0  0  0  0  0  0  0  0
  138.3656   69.9632  226.6410 H   0  0  0  0  0  0  0  0  0  0  0  0
  142.5424   74.0221  219.6462 H   0  0  0  0  0  0  0  0  0  0  0  0
  142.9026   76.4442  219.2442 H   0  0  0  0  0  0  0  0  0  0  0  0
  142.4710   78.7855  219.8406 H   0  0  0  0  0  0  0  0  0  0  0  0
  141.3347   80.4590  221.2995 H   0  0  0  0  0  0  0  0  0  0  0  0
  139.8612   79.6383  223.1293 H   0  0  0  0  0  0  0  0  0  0  0  0
  139.5211   77.2034  223.4939 H   0  0  0  0  0  0  0  0  0  0  0  0
  1  2  2  0
  2  3  1  0
  3  4  1  0
  4  5  1  0
  5  6  2  0
  5  7  1  0
  7  8  1  0
  8  9  1  0
  9 10  1  0
 10 11  1  0
 11 12  1  0
 11 13  1  0
 11 14  1  0
  2 15  1  0
 15 16  2  0
 16 17  1  0
 17 18  2  0
 18 19  1  0
 19 20  2  0
 20 21  1  0
 21 22  2  0
 22 23  1  0
 23 24  2  0
 14  7  1  0
 24 15  1  0
 23 18  1  0
  3 25  1  0
  4 26  1  0
  4 27  1  0
  8 28  1  0
  8 29  1  0
  9 30  1  0
  9 31  1  0
 10 32  1  0
 10 33  1  0
 14 34  1  0
 14 35  1  0
 16 36  1  0
 17 37  1  0
 19 38  1  0
 20 39  1  0
 21 40  1  0
 22 41  1  0
M  END
>  <smiles>  (9) 
O=C(NCC(=O)N1CCCC(F)(F)C1)c1ccc2ccccc2n1

>  <score_type>  (9) 
oracle

>  <origin>  (9) 
autodockgpu

>  <m_score__min__energy>  (9) 
-7.3099999999999996

>  <m_primary>  (9) 
energy

>  <rmsd>  (9) 
8.460964028104735

>  <m_score__min__rmsd>  (9) 
8.460964028104735

>  <meeko>  (9) 
{"free_energy": -6.87, "intermolecular_energy": -8.06, "internal_energy": -1.13, "cluster_size": 20, "cluster_id": 3, "rank_in_cluster": 1}

>  <energy>  (9) 
-7.24

>  <cluster_rmsd>  (9) 
0.23

>  <cluster>  (9) 
1

$$$$

     RDKit          3D

 41 43  0  0  0  0  0  0  0  0999 V2000
  139.8000   71.3400  221.2340 O   0  0  0  0  0  0  0  0  0  0  0  0
  139.7560   71.9000  222.3530 C   0  0  0  0  0  0  0  0  0  0  0  0
  139.6030   73.3200  222.3860 N   0  0  0  0  0  0  0  0  0  0  0  0
  139.5030   74.0870  221.1590 C   0  0  0  0  0  0  0  0  0  0  0  0
  140.6730   74.9820  220.9750 C   0  0  0  0  0  0  0  0  0  0  0  0
  140.6560   76.2110  221.2450 O   0  0  0  0  0  0  0  0  0  0  0  0
  141.8720   74.4140  220.4660 N   0  0  0  0  0  0  0  0  0  0  0  0
  142.6670   75.1700  219.5460 C   0  0  0  0  0  0  0  0  0  0  0  0
  144.0830   75.2460  220.0650 C   0  0  0  0  0  0  0  0  0  0  0  0
  144.6440   73.8930  220.3810 C   0  0  0  0  0  0  0  0  0  0  0  0
  143.6270   72.7880  220.1630 C   0  0  0  0  0  0  0  0  0  0  0  0
  144.1610   71.6700  220.8180 F   0  0  0  0  0  0  0  0  0  0  0  0
  143.4590   72.4800  218.8400 F   0  0  0  0  0  0  0  0  0  0  0  0
  142.3200   73.0940  220.8430 C   0  0  0  0  0  0  0  0  0  0  0  0
  139.8540   71.1670  223.6120 C   0  0  0  0  0  0  0  0  0  0  0  0
  139.4610   69.8450  223.6610 C   0  0  0  0  0  0  0  0  0  0  0  0
  139.5670   69.1790  224.8690 C   0  0  0  0  0  0  0  0  0  0  0  0
  140.0480   69.7940  226.0110 C   0  0  0  0  0  0  0  0  0  0  0  0
  140.1620   69.1530  227.2220 C   0  0  0  0  0  0  0  0  0  0  0  0
  140.6510   69.8060  228.3460 C   0  0  0  0  0  0  0  0  0  0  0  0
  141.0220   71.1310  228.2110 C   0  0  0  0  0  0  0  0  0  0  0  0
  140.9130   71.7940  226.9920 C   0  0  0  0  0  0  0  0  0  0  0  0
  140.4250   71.1180  225.8950 C   0  0  0  0  0  0  0  0  0  0  0  0
  140.3190   71.7600  224.7170 N   0  0  0  0  0  0  0  0  0  0  0  0
  139.5690   73.7740  223.3450 H   0  0  0  0  0  0  0  0  0  0  0  0
  139.4479   73.3925  220.3078 H   0  0  0  0  0  0  0  0  0  0  0  0
  138.5991   74.7112  221.2171 H   0  0  0  0  0  0  0  0  0  0  0  0
  142.6609   74.6775  218.5624 H   0  0  0  0  0  0  0  0  0  0  0  0
  142.2538   76.1844  219.4450 H   0  0  0  0  0  0  0  0  0  0  0  0
  144.7152   75.7219  219.3009 H   0  0  0  0  0  0  0  0  0  0  0  0
  144.0702   75.8318  220.9959 H   0  0  0  0  0  0  0  0  0  0  0  0
  145.5126   73.7087  219.7317 H   0  0  0  0  0  0  0  0  0  0  0  0
  144.9306   73.8848  221.4430 H   0  0  0  0  0  0  0  0  0  0  0  0
  141.5672   72.3518  220.5390 H   0  0  0  0  0  0  0  0  0  0  0  0
  142.4589   73.0543  221.9335 H   0  0  0  0  0  0  0  0  0  0  0  0
  139.0748   69.3357  222.7658 H   0  0  0  0  0  0  0  0  0  0  0  0
  139.2583   68.1246  224.9233 H   0  0  0  0  0  0  0  0  0  0  0  0
  139.8589   68.0986  227.3025 H   0  0  0  0  0  0  0  0  0  0  0  0
  140.7401   69.2863  229.3114 H   0  0  0  0  0  0  0  0  0  0  0  0
  141.4116   71.6727  229.0855 H   0  0  0  0  0  0  0  0  0  0  0  0
  141.2138   72.8485  226.9052 H   0  0  0  0  0  0  0  0  0  0  0  0
  1  2  2  0
  2  3  1  0
  3  4  1  0
  4  5  1  0
  5  6  2  0
  5  7  1  0
  7  8  1  0
  8  9  1  0
  9 10  1  0
 10 11  1  0
 11 12  1  0
 11 13  1  0
 11 14  1  0
  2 15  1  0
 15 16  2  0
 16 17  1  0
 17 18  2  0
 18 19  1  0
 19 20  2  0
 20 21  1  0
 21 22  2  0
 22 23  1  0
 23 24  2  0
 14  7  1  0
 24 15  1  0
 23 18  1  0
  3 25  1  0
  4 26  1  0
  4 27  1  0
  8 28  1  0
  8 29  1  0
  9 30  1  0
  9 31  1  0
 10 32  1  0
 10 33  1  0
 14 34  1  0
 14 35  1  0
 16 36  1  0
 17 37  1  0
 19 38  1  0
 20 39  1  0
 21 40  1  0
 22 41  1  0
M  END
>  <smiles>  (10) 
O=C(NCC(=O)N1CCCC(F)(F)C1)c1ccc2ccccc2n1

>  <score_type>  (10) 
oracle

>  <origin>  (10) 
autodockgpu

>  <m_score__min__energy>  (10) 
-7.3099999999999996

>  <m_primary>  (10) 
energy

>  <rmsd>  (10) 
2.869838003110036

>  <m_score__min__rmsd>  (10) 
2.869838003110036

>  <meeko>  (10) 
{"free_energy": -6.73, "intermolecular_energy": -7.93, "internal_energy": -1.14, "cluster_size": 17, "cluster_id": 1, "rank_in_cluster": 16}

>  <energy>  (10) 
-7.23

>  <cluster_rmsd>  (10) 
0.23

>  <cluster>  (10) 
1

$$$$

     RDKit          3D

 41 43  0  0  0  0  0  0  0  0999 V2000
  141.1790   71.8880  221.4610 O   0  0  0  0  0  0  0  0  0  0  0  0
  140.4420   72.2680  222.3990 C   0  0  0  0  0  0  0  0  0  0  0  0
  139.7850   73.5290  222.2650 N   0  0  0  0  0  0  0  0  0  0  0  0
  139.9680   74.3420  221.0790 C   0  0  0  0  0  0  0  0  0  0  0  0
  141.2160   75.1450  221.1520 C   0  0  0  0  0  0  0  0  0  0  0  0
  142.3680   74.6390  221.1340 O   0  0  0  0  0  0  0  0  0  0  0  0
  141.0940   76.5570  221.2480 N   0  0  0  0  0  0  0  0  0  0  0  0
  140.4020   77.1230  222.3660 C   0  0  0  0  0  0  0  0  0  0  0  0
  141.2950   78.1390  223.0360 C   0  0  0  0  0  0  0  0  0  0  0  0
  141.8200   79.1570  222.0700 C   0  0  0  0  0  0  0  0  0  0  0  0
  141.3760   78.8760  220.6470 C   0  0  0  0  0  0  0  0  0  0  0  0
  142.2070   79.6690  219.8450 F   0  0  0  0  0  0  0  0  0  0  0  0
  140.0760   79.2370  220.4190 F   0  0  0  0  0  0  0  0  0  0  0  0
  141.6440   77.4480  220.2540 C   0  0  0  0  0  0  0  0  0  0  0  0
  140.2290   71.4810  223.6100 C   0  0  0  0  0  0  0  0  0  0  0  0
  139.5390   70.2890  223.5340 C   0  0  0  0  0  0  0  0  0  0  0  0
  139.3550   69.5670  224.7000 C   0  0  0  0  0  0  0  0  0  0  0  0
  139.8380   70.0030  225.9220 C   0  0  0  0  0  0  0  0  0  0  0  0
  139.6670   69.3040  227.0930 C   0  0  0  0  0  0  0  0  0  0  0  0
  140.1680   69.7760  228.3000 C   0  0  0  0  0  0  0  0  0  0  0  0
  140.8470   70.9800  228.2880 C   0  0  0  0  0  0  0  0  0  0  0  0
  141.0290   71.7000  227.1100 C   0  0  0  0  0  0  0  0  0  0  0  0
  140.5200   71.2040  225.9300 C   0  0  0  0  0  0  0  0  0  0  0  0
  140.6950   71.9010  224.7920 N   0  0  0  0  0  0  0  0  0  0  0  0
  139.1640   73.8320  223.0710 H   0  0  0  0  0  0  0  0  0  0  0  0
  140.0185   73.6835  220.1994 H   0  0  0  0  0  0  0  0  0  0  0  0
  139.1174   75.0353  221.0032 H   0  0  0  0  0  0  0  0  0  0  0  0
  139.4808   77.6140  222.0190 H   0  0  0  0  0  0  0  0  0  0  0  0
  140.1415   76.3291  223.0815 H   0  0  0  0  0  0  0  0  0  0  0  0
  140.7187   78.6564  223.8172 H   0  0  0  0  0  0  0  0  0  0  0  0
  142.1559   77.6027  223.4617 H   0  0  0  0  0  0  0  0  0  0  0  0
  141.4521   80.1503  222.3667 H   0  0  0  0  0  0  0  0  0  0  0  0
  142.9188   79.1139  222.0966 H   0  0  0  0  0  0  0  0  0  0  0  0
  141.1754   77.2429  219.2802 H   0  0  0  0  0  0  0  0  0  0  0  0
  142.7300   77.2879  220.1831 H   0  0  0  0  0  0  0  0  0  0  0  0
  139.1463   69.9229  222.5739 H   0  0  0  0  0  0  0  0  0  0  0  0
  138.8065   68.6146  224.6544 H   0  0  0  0  0  0  0  0  0  0  0  0
  139.1211   68.3492  227.0742 H   0  0  0  0  0  0  0  0  0  0  0  0
  140.0290   69.2108  229.2334 H   0  0  0  0  0  0  0  0  0  0  0  0
  141.2525   71.3782  229.2298 H   0  0  0  0  0  0  0  0  0  0  0  0
  141.5739   72.6555  227.1217 H   0  0  0  0  0  0  0  0  0  0  0  0
  1  2  2  0
  2  3  1  0
  3  4  1  0
  4  5  1  0
  5  6  2  0
  5  7  1  0
  7  8  1  0
  8  9  1  0
  9 10  1  0
 10 11  1  0
 11 12  1  0
 11 13  1  0
 11 14  1  0
  2 15  1  0
 15 16  2  0
 16 17  1  0
 17 18  2  0
 18 19  1  0
 19 20  2  0
 20 21  1  0
 21 22  2  0
 22 23  1  0
 23 24  2  0
 14  7  1  0
 24 15  1  0
 23 18  1  0
  3 25  1  0
  4 26  1  0
  4 27  1  0
  8 28  1  0
  8 29  1  0
  9 30  1  0
  9 31  1  0
 10 32  1  0
 10 33  1  0
 14 34  1  0
 14 35  1  0
 16 36  1  0
 17 37  1  0
 19 38  1  0
 20 39  1  0
 21 40  1  0
 22 41  1  0
M  END
>  <smiles>  (11) 
O=C(NCC(=O)N1CCCC(F)(F)C1)c1ccc2ccccc2n1

>  <score_type>  (11) 
oracle

>  <origin>  (11) 
autodockgpu

>  <m_score__min__energy>  (11) 
-7.3099999999999996

>  <m_primary>  (11) 
energy

>  <rmsd>  (11) 
2.822861046037052

>  <m_score__min__rmsd>  (11) 
2.822861046037052

>  <meeko>  (11) 
{"free_energy": -7.24, "intermolecular_energy": -8.43, "internal_energy": -0.8, "cluster_size": 11, "cluster_id": 2, "rank_in_cluster": 2}

>  <energy>  (11) 
-7.16

>  <cluster_rmsd>  (11) 
0.97

>  <cluster>  (11) 
1

$$$$

     RDKit          3D

 41 43  0  0  0  0  0  0  0  0999 V2000
  141.5700   72.0770  220.9090 O   0  0  0  0  0  0  0  0  0  0  0  0
  140.9870   72.9790  221.5510 C   0  0  0  0  0  0  0  0  0  0  0  0
  140.0660   72.5890  222.5700 N   0  0  0  0  0  0  0  0  0  0  0  0
  139.8150   71.1880  222.8500 C   0  0  0  0  0  0  0  0  0  0  0  0
  139.0770   71.0080  224.1270 C   0  0  0  0  0  0  0  0  0  0  0  0
  137.8340   71.1670  224.2380 O   0  0  0  0  0  0  0  0  0  0  0  0
  139.8220   70.6370  225.2780 N   0  0  0  0  0  0  0  0  0  0  0  0
  141.0780   71.2760  225.5320 C   0  0  0  0  0  0  0  0  0  0  0  0
  141.0680   71.8480  226.9290 C   0  0  0  0  0  0  0  0  0  0  0  0
  140.6890   70.8250  227.9570 C   0  0  0  0  0  0  0  0  0  0  0  0
  140.3470   69.4860  227.3310 C   0  0  0  0  0  0  0  0  0  0  0  0
  139.6920   68.7700  228.3430 F   0  0  0  0  0  0  0  0  0  0  0  0
  141.4580   68.7840  226.9490 F   0  0  0  0  0  0  0  0  0  0  0  0
  139.3570   69.6350  226.2080 C   0  0  0  0  0  0  0  0  0  0  0  0
  141.2100   74.4000  221.3010 C   0  0  0  0  0  0  0  0  0  0  0  0
  142.0520   74.7880  220.2790 C   0  0  0  0  0  0  0  0  0  0  0  0
  142.2410   76.1430  220.0690 C   0  0  0  0  0  0  0  0  0  0  0  0
  141.6180   77.1040  220.8450 C   0  0  0  0  0  0  0  0  0  0  0  0
  141.7910   78.4550  220.6560 C   0  0  0  0  0  0  0  0  0  0  0  0
  141.1460   79.3880  221.4570 C   0  0  0  0  0  0  0  0  0  0  0  0
  140.3200   78.9160  222.4600 C   0  0  0  0  0  0  0  0  0  0  0  0
  140.1340   77.5510  222.6640 C   0  0  0  0  0  0  0  0  0  0  0  0
  140.7880   76.6500  221.8520 C   0  0  0  0  0  0  0  0  0  0  0  0
  140.6080   75.3320  222.0510 N   0  0  0  0  0  0  0  0  0  0  0  0
  139.5830   73.3700  223.1010 H   0  0  0  0  0  0  0  0  0  0  0  0
  139.2185   70.7616  222.0300 H   0  0  0  0  0  0  0  0  0  0  0  0
  140.7847   70.6762  222.9385 H   0  0  0  0  0  0  0  0  0  0  0  0
  141.8906   70.5402  225.4411 H   0  0  0  0  0  0  0  0  0  0  0  0
  141.2371   72.0835  224.8022 H   0  0  0  0  0  0  0  0  0  0  0  0
  142.0728   72.2297  227.1627 H   0  0  0  0  0  0  0  0  0  0  0  0
  140.3174   72.6516  226.9595 H   0  0  0  0  0  0  0  0  0  0  0  0
  141.5331   70.6878  228.6488 H   0  0  0  0  0  0  0  0  0  0  0  0
  139.7956   71.1901  228.4847 H   0  0  0  0  0  0  0  0  0  0  0  0
  139.2496   68.6731  225.6854 H   0  0  0  0  0  0  0  0  0  0  0  0
  138.3843   69.9432  226.6188 H   0  0  0  0  0  0  0  0  0  0  0  0
  142.5585   74.0418  219.6492 H   0  0  0  0  0  0  0  0  0  0  0  0
  142.9093   76.4667  219.2575 H   0  0  0  0  0  0  0  0  0  0  0  0
  142.4554   78.8046  219.8520 H   0  0  0  0  0  0  0  0  0  0  0  0
  141.2876   80.4673  221.2986 H   0  0  0  0  0  0  0  0  0  0  0  0
  139.7988   79.6336  223.1106 H   0  0  0  0  0  0  0  0  0  0  0  0
  139.4709   77.1952  223.4663 H   0  0  0  0  0  0  0  0  0  0  0  0
  1  2  2  0
  2  3  1  0
  3  4  1  0
  4  5  1  0
  5  6  2  0
  5  7  1  0
  7  8  1  0
  8  9  1  0
  9 10  1  0
 10 11  1  0
 11 12  1  0
 11 13  1  0
 11 14  1  0
  2 15  1  0
 15 16  2  0
 16 17  1  0
 17 18  2  0
 18 19  1  0
 19 20  2  0
 20 21  1  0
 21 22  2  0
 22 23  1  0
 23 24  2  0
 14  7  1  0
 24 15  1  0
 23 18  1  0
  3 25  1  0
  4 26  1  0
  4 27  1  0
  8 28  1  0
  8 29  1  0
  9 30  1  0
  9 31  1  0
 10 32  1  0
 10 33  1  0
 14 34  1  0
 14 35  1  0
 16 36  1  0
 17 37  1  0
 19 38  1  0
 20 39  1  0
 21 40  1  0
 22 41  1  0
M  END
>  <smiles>  (12) 
O=C(NCC(=O)N1CCCC(F)(F)C1)c1ccc2ccccc2n1

>  <score_type>  (12) 
oracle

>  <origin>  (12) 
autodockgpu

>  <m_score__min__energy>  (12) 
-7.3099999999999996

>  <m_primary>  (12) 
energy

>  <rmsd>  (12) 
8.461057982479574

>  <m_score__min__rmsd>  (12) 
8.461057982479574

>  <meeko>  (12) 
{"free_energy": -6.86, "intermolecular_energy": -8.06, "internal_energy": -1.14, "cluster_size": 20, "cluster_id": 3, "rank_in_cluster": 6}

>  <energy>  (12) 
-6.87

>  <cluster_rmsd>  (12) 
1.38

>  <cluster>  (12) 
1

$$$$

     RDKit          3D

 41 43  0  0  0  0  0  0  0  0999 V2000
  141.5240   72.0790  220.8880 O   0  0  0  0  0  0  0  0  0  0  0  0
  140.9530   72.9810  221.5410 C   0  0  0  0  0  0  0  0  0  0  0  0
  140.0400   72.5910  222.5680 N   0  0  0  0  0  0  0  0  0  0  0  0
  139.7840   71.1900  222.8440 C   0  0  0  0  0  0  0  0  0  0  0  0
  139.0530   71.0080  224.1240 C   0  0  0  0  0  0  0  0  0  0  0  0
  137.8100   71.1640  224.2420 O   0  0  0  0  0  0  0  0  0  0  0  0
  139.8050   70.6390  225.2720 N   0  0  0  0  0  0  0  0  0  0  0  0
  141.0640   71.2750  225.5150 C   0  0  0  0  0  0  0  0  0  0  0  0
  141.0640   71.8510  226.9110 C   0  0  0  0  0  0  0  0  0  0  0  0
  140.6900   70.8330  227.9450 C   0  0  0  0  0  0  0  0  0  0  0  0
  140.3400   69.4930  227.3250 C   0  0  0  0  0  0  0  0  0  0  0  0
  139.6900   68.7820  228.3440 F   0  0  0  0  0  0  0  0  0  0  0  0
  141.4460   68.7860  226.9380 F   0  0  0  0  0  0  0  0  0  0  0  0
  139.3430   69.6410  226.2080 C   0  0  0  0  0  0  0  0  0  0  0  0
  141.1810   74.4020  221.2970 C   0  0  0  0  0  0  0  0  0  0  0  0
  142.0210   74.7910  220.2740 C   0  0  0  0  0  0  0  0  0  0  0  0
  142.2160   76.1450  220.0680 C   0  0  0  0  0  0  0  0  0  0  0  0
  141.6000   77.1060  220.8510 C   0  0  0  0  0  0  0  0  0  0  0  0
  141.7780   78.4570  220.6670 C   0  0  0  0  0  0  0  0  0  0  0  0
  141.1410   79.3900  221.4740 C   0  0  0  0  0  0  0  0  0  0  0  0
  140.3160   78.9170  222.4770 C   0  0  0  0  0  0  0  0  0  0  0  0
  140.1240   77.5520  222.6760 C   0  0  0  0  0  0  0  0  0  0  0  0
  140.7710   76.6520  221.8580 C   0  0  0  0  0  0  0  0  0  0  0  0
  140.5860   75.3330  222.0520 N   0  0  0  0  0  0  0  0  0  0  0  0
  139.5680   73.3720  223.1090 H   0  0  0  0  0  0  0  0  0  0  0  0
  139.1807   70.7697  222.0258 H   0  0  0  0  0  0  0  0  0  0  0  0
  140.7518   70.6735  222.9249 H   0  0  0  0  0  0  0  0  0  0  0  0
  141.8741   70.5368  225.4209 H   0  0  0  0  0  0  0  0  0  0  0  0
  141.2210   72.0796  224.7816 H   0  0  0  0  0  0  0  0  0  0  0  0
  142.0711   72.2315  227.1369 H   0  0  0  0  0  0  0  0  0  0  0  0
  140.3146   72.6555  226.9436 H   0  0  0  0  0  0  0  0  0  0  0  0
  141.5388   70.6957  228.6311 H   0  0  0  0  0  0  0  0  0  0  0  0
  139.8018   71.2021  228.4786 H   0  0  0  0  0  0  0  0  0  0  0  0
  139.2297   68.6777  225.6891 H   0  0  0  0  0  0  0  0  0  0  0  0
  138.3736   69.9529  226.6240 H   0  0  0  0  0  0  0  0  0  0  0  0
  142.5219   74.0450  219.6396 H   0  0  0  0  0  0  0  0  0  0  0  0
  142.8826   76.4686  219.2551 H   0  0  0  0  0  0  0  0  0  0  0  0
  142.4406   78.8067  219.8616 H   0  0  0  0  0  0  0  0  0  0  0  0
  141.2879   80.4693  221.3203 H   0  0  0  0  0  0  0  0  0  0  0  0
  139.7999   79.6342  223.1322 H   0  0  0  0  0  0  0  0  0  0  0  0
  139.4618   77.1958  223.4789 H   0  0  0  0  0  0  0  0  0  0  0  0
  1  2  2  0
  2  3  1  0
  3  4  1  0
  4  5  1  0
  5  6  2  0
  5  7  1  0
  7  8  1  0
  8  9  1  0
  9 10  1  0
 10 11  1  0
 11 12  1  0
 11 13  1  0
 11 14  1  0
  2 15  1  0
 15 16  2  0
 16 17  1  0
 17 18  2  0
 18 19  1  0
 19 20  2  0
 20 21  1  0
 21 22  2  0
 22 23  1  0
 23 24  2  0
 14  7  1  0
 24 15  1  0
 23 18  1  0
  3 25  1  0
  4 26  1  0
  4 27  1  0
  8 28  1  0
  8 29  1  0
  9 30  1  0
  9 31  1  0
 10 32  1  0
 10 33  1  0
 14 34  1  0
 14 35  1  0
 16 36  1  0
 17 37  1  0
 19 38  1  0
 20 39  1  0
 21 40  1  0
 22 41  1  0
M  END
>  <smiles>  (13) 
O=C(NCC(=O)N1CCCC(F)(F)C1)c1ccc2ccccc2n1

>  <score_type>  (13) 
oracle

>  <origin>  (13) 
autodockgpu

>  <m_score__min__energy>  (13) 
-7.3099999999999996

>  <m_primary>  (13) 
energy

>  <rmsd>  (13) 
8.451543537978717

>  <m_score__min__rmsd>  (13) 
8.451543537978717

>  <meeko>  (13) 
{"free_energy": -6.86, "intermolecular_energy": -8.06, "internal_energy": -1.13, "cluster_size": 20, "cluster_id": 3, "rank_in_cluster": 5}

>  <energy>  (13) 
-6.81

>  <cluster_rmsd>  (13) 
1.59

>  <cluster>  (13) 
1

$$$$

     RDKit          3D

 41 43  0  0  0  0  0  0  0  0999 V2000
  139.9480   73.5020  222.4490 O   0  0  0  0  0  0  0  0  0  0  0  0
  140.3610   72.3220  222.5160 C   0  0  0  0  0  0  0  0  0  0  0  0
  141.0200   71.7780  221.3720 N   0  0  0  0  0  0  0  0  0  0  0  0
  141.2040   72.5700  220.1710 C   0  0  0  0  0  0  0  0  0  0  0  0
  142.1850   73.6660  220.3820 C   0  0  0  0  0  0  0  0  0  0  0  0
  141.8760   74.7940  220.8440 O   0  0  0  0  0  0  0  0  0  0  0  0
  143.5420   73.4170  220.0420 N   0  0  0  0  0  0  0  0  0  0  0  0
  144.4770   74.5010  220.0680 C   0  0  0  0  0  0  0  0  0  0  0  0
  145.6500   74.1200  220.9390 C   0  0  0  0  0  0  0  0  0  0  0  0
  146.2530   72.8090  220.5370 C   0  0  0  0  0  0  0  0  0  0  0  0
  145.4950   72.1590  219.3950 C   0  0  0  0  0  0  0  0  0  0  0  0
  145.9410   70.8300  219.3740 F   0  0  0  0  0  0  0  0  0  0  0  0
  145.7730   72.7320  218.1830 F   0  0  0  0  0  0  0  0  0  0  0  0
  144.0160   72.1060  219.6690 C   0  0  0  0  0  0  0  0  0  0  0  0
  140.1970   71.4900  223.7040 C   0  0  0  0  0  0  0  0  0  0  0  0
  139.5250   70.2880  223.6050 C   0  0  0  0  0  0  0  0  0  0  0  0
  139.3870   69.5230  224.7490 C   0  0  0  0  0  0  0  0  0  0  0  0
  139.8970   69.9250  225.9720 C   0  0  0  0  0  0  0  0  0  0  0  0
  139.7720   69.1830  227.1220 C   0  0  0  0  0  0  0  0  0  0  0  0
  140.2980   69.6220  228.3300 C   0  0  0  0  0  0  0  0  0  0  0  0
  140.9560   70.8370  228.3420 C   0  0  0  0  0  0  0  0  0  0  0  0
  141.0910   71.6010  227.1860 C   0  0  0  0  0  0  0  0  0  0  0  0
  140.5580   71.1370  226.0030 C   0  0  0  0  0  0  0  0  0  0  0  0
  140.6880   71.8770  224.8870 N   0  0  0  0  0  0  0  0  0  0  0  0
  141.3620   70.7760  221.4500 H   0  0  0  0  0  0  0  0  0  0  0  0
  141.5676   71.9161  219.3647 H   0  0  0  0  0  0  0  0  0  0  0  0
  140.2366   73.0213  219.9056 H   0  0  0  0  0  0  0  0  0  0  0  0
  144.8286   74.7089  219.0466 H   0  0  0  0  0  0  0  0  0  0  0  0
  143.9908   75.4006  220.4734 H   0  0  0  0  0  0  0  0  0  0  0  0
  146.4189   74.9026  220.8593 H   0  0  0  0  0  0  0  0  0  0  0  0
  145.2846   74.0203  221.9717 H   0  0  0  0  0  0  0  0  0  0  0  0
  147.2930   72.9788  220.2214 H   0  0  0  0  0  0  0  0  0  0  0  0
  146.2045   72.1336  221.4039 H   0  0  0  0  0  0  0  0  0  0  0  0
  143.4885   71.7705  218.7639 H   0  0  0  0  0  0  0  0  0  0  0  0
  143.8235   71.4018  220.4919 H   0  0  0  0  0  0  0  0  0  0  0  0
  139.1113   69.9485  222.6440 H   0  0  0  0  0  0  0  0  0  0  0  0
  138.8541   68.5628  224.6851 H   0  0  0  0  0  0  0  0  0  0  0  0
  139.2432   68.2192  227.0848 H   0  0  0  0  0  0  0  0  0  0  0  0
  140.1943   69.0226  229.2465 H   0  0  0  0  0  0  0  0  0  0  0  0
  141.3824   71.2087  229.2854 H   0  0  0  0  0  0  0  0  0  0  0  0
  141.6182   72.5660  227.2167 H   0  0  0  0  0  0  0  0  0  0  0  0
  1  2  2  0
  2  3  1  0
  3  4  1  0
  4  5  1  0
  5  6  2  0
  5  7  1  0
  7  8  1  0
  8  9  1  0
  9 10  1  0
 10 11  1  0
 11 12  1  0
 11 13  1  0
 11 14  1  0
  2 15  1  0
 15 16  2  0
 16 17  1  0
 17 18  2  0
 18 19  1  0
 19 20  2  0
 20 21  1  0
 21 22  2  0
 22 23  1  0
 23 24  2  0
 14  7  1  0
 24 15  1  0
 23 18  1  0
  3 25  1  0
  4 26  1  0
  4 27  1  0
  8 28  1  0
  8 29  1  0
  9 30  1  0
  9 31  1  0
 10 32  1  0
 10 33  1  0
 14 34  1  0
 14 35  1  0
 16 36  1  0
 17 37  1  0
 19 38  1  0
 20 39  1  0
 21 40  1  0
 22 41  1  0
M  END
>  <smiles>  (14) 
O=C(NCC(=O)N1CCCC(F)(F)C1)c1ccc2ccccc2n1

>  <score_type>  (14) 
oracle

>  <origin>  (14) 
autodockgpu

>  <m_score__min__energy>  (14) 
-7.3099999999999996

>  <m_primary>  (14) 
energy

>  <rmsd>  (14) 
4.135285442722396

>  <m_score__min__rmsd>  (14) 
4.135285442722396

>  <meeko>  (14) 
{"free_energy": -7.31, "intermolecular_energy": -8.51, "internal_energy": -0.76, "cluster_size": 17, "cluster_id": 1, "rank_in_cluster": 1}

>  <energy>  (14) 
-6.79

>  <cluster_rmsd>  (14) 
1.6

>  <cluster>  (14) 
1

$$$$

     RDKit          3D

 41 43  0  0  0  0  0  0  0  0999 V2000
  140.5590   73.4020  222.2780 O   0  0  0  0  0  0  0  0  0  0  0  0
  140.4940   72.1530  222.3380 C   0  0  0  0  0  0  0  0  0  0  0  0
  140.6750   71.4140  221.1290 N   0  0  0  0  0  0  0  0  0  0  0  0
  140.9250   72.0920  219.8720 C   0  0  0  0  0  0  0  0  0  0  0  0
  142.1940   71.6380  219.2470 C   0  0  0  0  0  0  0  0  0  0  0  0
  142.2960   70.5810  218.5740 O   0  0  0  0  0  0  0  0  0  0  0  0
  143.3490   72.4470  219.4250 N   0  0  0  0  0  0  0  0  0  0  0  0
  143.5190   73.6090  218.6070 C   0  0  0  0  0  0  0  0  0  0  0  0
  143.7450   74.8090  219.4950 C   0  0  0  0  0  0  0  0  0  0  0  0
  144.8580   74.5880  220.4730 C   0  0  0  0  0  0  0  0  0  0  0  0
  145.4380   73.1900  220.3720 C   0  0  0  0  0  0  0  0  0  0  0  0
  146.1900   73.0240  221.5430 F   0  0  0  0  0  0  0  0  0  0  0  0
  146.2690   73.0410  219.2950 F   0  0  0  0  0  0  0  0  0  0  0  0
  144.3620   72.1390  220.4060 C   0  0  0  0  0  0  0  0  0  0  0  0
  140.2450   71.4300  223.5820 C   0  0  0  0  0  0  0  0  0  0  0  0
  139.5280   70.2510  223.5520 C   0  0  0  0  0  0  0  0  0  0  0  0
  139.3100   69.5900  224.7470 C   0  0  0  0  0  0  0  0  0  0  0  0
  139.7830   70.0740  225.9550 C   0  0  0  0  0  0  0  0  0  0  0  0
  139.5780   69.4360  227.1550 C   0  0  0  0  0  0  0  0  0  0  0  0
  140.0710   69.9540  228.3460 C   0  0  0  0  0  0  0  0  0  0  0  0
  140.7780   71.1400  228.2890 C   0  0  0  0  0  0  0  0  0  0  0  0
  140.9940   71.7980  227.0810 C   0  0  0  0  0  0  0  0  0  0  0  0
  140.4930   71.2580  225.9170 C   0  0  0  0  0  0  0  0  0  0  0  0
  140.7020   71.8960  224.7500 N   0  0  0  0  0  0  0  0  0  0  0  0
  140.6160   70.3570  221.2030 H   0  0  0  0  0  0  0  0  0  0  0  0
  140.0934   71.8836  219.1828 H   0  0  0  0  0  0  0  0  0  0  0  0
  141.0081   73.1701  220.0739 H   0  0  0  0  0  0  0  0  0  0  0  0
  144.3876   73.4707  217.9464 H   0  0  0  0  0  0  0  0  0  0  0  0
  142.6193   73.7657  217.9939 H   0  0  0  0  0  0  0  0  0  0  0  0
  143.9947   75.6746  218.8639 H   0  0  0  0  0  0  0  0  0  0  0  0
  142.8222   74.9838  220.0676 H   0  0  0  0  0  0  0  0  0  0  0  0
  145.6560   75.3182  220.2730 H   0  0  0  0  0  0  0  0  0  0  0  0
  144.4479   74.7119  221.4862 H   0  0  0  0  0  0  0  0  0  0  0  0
  144.8030   71.1569  220.1801 H   0  0  0  0  0  0  0  0  0  0  0  0
  143.9053   72.1179  221.4065 H   0  0  0  0  0  0  0  0  0  0  0  0
  139.1409   69.8485  222.6043 H   0  0  0  0  0  0  0  0  0  0  0  0
  138.7418   68.6482  224.7375 H   0  0  0  0  0  0  0  0  0  0  0  0
  139.0107   68.4938  227.1727 H   0  0  0  0  0  0  0  0  0  0  0  0
  139.9041   69.4373  229.3026 H   0  0  0  0  0  0  0  0  0  0  0  0
  141.1785   71.5733  229.2174 H   0  0  0  0  0  0  0  0  0  0  0  0
  141.5599   72.7410  227.0564 H   0  0  0  0  0  0  0  0  0  0  0  0
  1  2  2  0
  2  3  1  0
  3  4  1  0
  4  5  1  0
  5  6  2  0
  5  7  1  0
  7  8  1  0
  8  9  1  0
  9 10  1  0
 10 11  1  0
 11 12  1  0
 11 13  1  0
 11 14  1  0
  2 15  1  0
 15 16  2  0
 16 17  1  0
 17 18  2  0
 18 19  1  0
 19 20  2  0
 20 21  1  0
 21 22  2  0
 22 23  1  0
 23 24  2  0
 14  7  1  0
 24 15  1  0
 23 18  1  0
  3 25  1  0
  4 26  1  0
  4 27  1  0
  8 28  1  0
  8 29  1  0
  9 30  1  0
  9 31  1  0
 10 32  1  0
 10 33  1  0
 14 34  1  0
 14 35  1  0
 16 36  1  0
 17 37  1  0
 19 38  1  0
 20 39  1  0
 21 40  1  0
 22 41  1  0
M  END
>  <smiles>  (15) 
O=C(NCC(=O)N1CCCC(F)(F)C1)c1ccc2ccccc2n1

>  <score_type>  (15) 
oracle

>  <origin>  (15) 
autodockgpu

>  <m_score__min__energy>  (15) 
-7.3099999999999996

>  <m_primary>  (15) 
energy

>  <rmsd>  (15) 
3.602683800165868

>  <m_score__min__rmsd>  (15) 
3.602683800165868

>  <meeko>  (15) 
{"free_energy": -6.87, "intermolecular_energy": -8.07, "internal_energy": -0.85, "cluster_size": 17, "cluster_id": 1, "rank_in_cluster": 12}

>  <energy>  (15) 
-6.75

>  <cluster_rmsd>  (15) 
1.38

>  <cluster>  (15) 
1

$$$$

     RDKit          3D

 41 43  0  0  0  0  0  0  0  0999 V2000
  141.4360   72.9850  221.5530 O   0  0  0  0  0  0  0  0  0  0  0  0
  140.4640   72.9870  222.3420 C   0  0  0  0  0  0  0  0  0  0  0  0
  139.6060   74.1290  222.3450 N   0  0  0  0  0  0  0  0  0  0  0  0
  139.8560   75.2510  221.4610 C   0  0  0  0  0  0  0  0  0  0  0  0
  139.5130   76.5450  222.1060 C   0  0  0  0  0  0  0  0  0  0  0  0
  138.4110   76.7680  222.6690 O   0  0  0  0  0  0  0  0  0  0  0  0
  140.4870   77.5800  222.0800 N   0  0  0  0  0  0  0  0  0  0  0  0
  141.4480   77.6060  221.0200 C   0  0  0  0  0  0  0  0  0  0  0  0
  141.4150   78.9630  220.3580 C   0  0  0  0  0  0  0  0  0  0  0  0
  141.5720   80.0790  221.3470 C   0  0  0  0  0  0  0  0  0  0  0  0
  141.6580   79.5700  222.7730 C   0  0  0  0  0  0  0  0  0  0  0  0
  141.4470   80.7000  223.5750 F   0  0  0  0  0  0  0  0  0  0  0  0
  142.8870   79.0470  223.0730 F   0  0  0  0  0  0  0  0  0  0  0  0
  140.5430   78.6110  223.0890 C   0  0  0  0  0  0  0  0  0  0  0  0
  140.1750   71.8800  223.2480 C   0  0  0  0  0  0  0  0  0  0  0  0
  139.4200   70.8140  222.8010 C   0  0  0  0  0  0  0  0  0  0  0  0
  139.1650   69.7810  223.6850 C   0  0  0  0  0  0  0  0  0  0  0  0
  139.6390   69.7880  224.9850 C   0  0  0  0  0  0  0  0  0  0  0  0
  139.3980   68.7730  225.8810 C   0  0  0  0  0  0  0  0  0  0  0  0
  139.8920   68.8180  227.1780 C   0  0  0  0  0  0  0  0  0  0  0  0
  140.6380   69.9210  227.5450 C   0  0  0  0  0  0  0  0  0  0  0  0
  140.8920   70.9570  226.6500 C   0  0  0  0  0  0  0  0  0  0  0  0
  140.3870   70.8830  225.3700 C   0  0  0  0  0  0  0  0  0  0  0  0
  140.6320   71.8840  224.5050 N   0  0  0  0  0  0  0  0  0  0  0  0
  138.7880   74.1100  223.0200 H   0  0  0  0  0  0  0  0  0  0  0  0
  140.9217   75.2598  221.1885 H   0  0  0  0  0  0  0  0  0  0  0  0
  139.2225   75.1333  220.5695 H   0  0  0  0  0  0  0  0  0  0  0  0
  142.4522   77.4194  221.4283 H   0  0  0  0  0  0  0  0  0  0  0  0
  141.2074   76.8269  220.2817 H   0  0  0  0  0  0  0  0  0  0  0  0
  142.2342   79.0202  219.6261 H   0  0  0  0  0  0  0  0  0  0  0  0
  140.4351   79.0779  219.8715 H   0  0  0  0  0  0  0  0  0  0  0  0
  142.4924   80.6339  221.1124 H   0  0  0  0  0  0  0  0  0  0  0  0
  140.6855   80.7258  221.2712 H   0  0  0  0  0  0  0  0  0  0  0  0
  140.7237   78.1513  224.0718 H   0  0  0  0  0  0  0  0  0  0  0  0
  139.5877   79.1561  223.1061 H   0  0  0  0  0  0  0  0  0  0  0  0
  139.0325   70.7869  221.7719 H   0  0  0  0  0  0  0  0  0  0  0  0
  138.5650   68.9249  223.3429 H   0  0  0  0  0  0  0  0  0  0  0  0
  138.8004   67.9059  225.5631 H   0  0  0  0  0  0  0  0  0  0  0  0
  139.6957   68.0024  227.8895 H   0  0  0  0  0  0  0  0  0  0  0  0
  141.0404   69.9823  228.5669 H   0  0  0  0  0  0  0  0  0  0  0  0
  141.4900   71.8261  226.9617 H   0  0  0  0  0  0  0  0  0  0  0  0
  1  2  2  0
  2  3  1  0
  3  4  1  0
  4  5  1  0
  5  6  2  0
  5  7  1  0
  7  8  1  0
  8  9  1  0
  9 10  1  0
 10 11  1  0
 11 12  1  0
 11 13  1  0
 11 14  1  0
  2 15  1  0
 15 16  2  0
 16 17  1  0
 17 18  2  0
 18 19  1  0
 19 20  2  0
 20 21  1  0
 21 22  2  0
 22 23  1  0
 23 24  2  0
 14  7  1  0
 24 15  1  0
 23 18  1  0
  3 25  1  0
  4 26  1  0
  4 27  1  0
  8 28  1  0
  8 29  1  0
  9 30  1  0
  9 31  1  0
 10 32  1  0
 10 33  1  0
 14 34  1  0
 14 35  1  0
 16 36  1  0
 17 37  1  0
 19 38  1  0
 20 39  1  0
 21 40  1  0
 22 41  1  0
M  END
>  <smiles>  (16) 
O=C(NCC(=O)N1CCCC(F)(F)C1)c1ccc2ccccc2n1

>  <score_type>  (16) 
oracle

>  <origin>  (16) 
autodockgpu

>  <m_score__min__energy>  (16) 
-7.3099999999999996

>  <m_primary>  (16) 
energy

>  <rmsd>  (16) 
2.8719928486856703

>  <m_score__min__rmsd>  (16) 
2.8719928486856703

>  <meeko>  (16) 
{"free_energy": -7.04, "intermolecular_energy": -8.24, "internal_energy": -0.83, "cluster_size": 11, "cluster_id": 2, "rank_in_cluster": 7}

>  <energy>  (16) 
-6.73

>  <cluster_rmsd>  (16) 
1.61

>  <cluster>  (16) 
1

$$$$

     RDKit          3D

 41 43  0  0  0  0  0  0  0  0999 V2000
  141.1650   71.8650  221.4740 O   0  0  0  0  0  0  0  0  0  0  0  0
  140.4380   72.2520  222.4170 C   0  0  0  0  0  0  0  0  0  0  0  0
  139.7950   73.5210  222.2900 N   0  0  0  0  0  0  0  0  0  0  0  0
  139.9810   74.3350  221.1040 C   0  0  0  0  0  0  0  0  0  0  0  0
  141.2250   75.1440  221.1850 C   0  0  0  0  0  0  0  0  0  0  0  0
  142.3790   74.6450  221.1680 O   0  0  0  0  0  0  0  0  0  0  0  0
  141.0940   76.5550  221.2870 N   0  0  0  0  0  0  0  0  0  0  0  0
  140.4040   77.1120  222.4110 C   0  0  0  0  0  0  0  0  0  0  0  0
  141.2950   78.1300  223.0820 C   0  0  0  0  0  0  0  0  0  0  0  0
  141.8090   79.1560  222.1170 C   0  0  0  0  0  0  0  0  0  0  0  0
  141.3590   78.8770  220.6950 C   0  0  0  0  0  0  0  0  0  0  0  0
  142.1810   79.6800  219.8920 F   0  0  0  0  0  0  0  0  0  0  0  0
  140.0550   79.2310  220.4760 F   0  0  0  0  0  0  0  0  0  0  0  0
  141.6330   77.4540  220.2940 C   0  0  0  0  0  0  0  0  0  0  0  0
  140.2230   71.4650  223.6270 C   0  0  0  0  0  0  0  0  0  0  0  0
  139.5420   70.2670  223.5490 C   0  0  0  0  0  0  0  0  0  0  0  0
  139.3560   69.5450  224.7140 C   0  0  0  0  0  0  0  0  0  0  0  0
  139.8270   69.9860  225.9380 C   0  0  0  0  0  0  0  0  0  0  0  0
  139.6530   69.2870  227.1090 C   0  0  0  0  0  0  0  0  0  0  0  0
  140.1420   69.7640  228.3180 C   0  0  0  0  0  0  0  0  0  0  0  0
  140.8120   70.9730  228.3100 C   0  0  0  0  0  0  0  0  0  0  0  0
  140.9970   71.6930  227.1330 C   0  0  0  0  0  0  0  0  0  0  0  0
  140.5000   71.1920  225.9490 C   0  0  0  0  0  0  0  0  0  0  0  0
  140.6770   71.8890  224.8120 N   0  0  0  0  0  0  0  0  0  0  0  0
  139.1830   73.8290  223.1000 H   0  0  0  0  0  0  0  0  0  0  0  0
  140.0401   73.6765  220.2248 H   0  0  0  0  0  0  0  0  0  0  0  0
  139.1274   75.0240  221.0224 H   0  0  0  0  0  0  0  0  0  0  0  0
  139.4786   77.5997  222.0706 H   0  0  0  0  0  0  0  0  0  0  0  0
  140.1510   76.3134  223.1239 H   0  0  0  0  0  0  0  0  0  0  0  0
  140.7200   78.6403  223.8687 H   0  0  0  0  0  0  0  0  0  0  0  0
  142.1610   77.5968  223.5012 H   0  0  0  0  0  0  0  0  0  0  0  0
  141.4362   80.1457  222.4194 H   0  0  0  0  0  0  0  0  0  0  0  0
  142.9082   79.1205  222.1379 H   0  0  0  0  0  0  0  0  0  0  0  0
  141.1600   77.2507  219.3219 H   0  0  0  0  0  0  0  0  0  0  0  0
  142.7195   77.3008  220.2161 H   0  0  0  0  0  0  0  0  0  0  0  0
  139.1579   69.8967  222.5871 H   0  0  0  0  0  0  0  0  0  0  0  0
  138.8155   68.5881  224.6658 H   0  0  0  0  0  0  0  0  0  0  0  0
  139.1142   68.3282  227.0877 H   0  0  0  0  0  0  0  0  0  0  0  0
  140.0009   69.1986  229.2509 H   0  0  0  0  0  0  0  0  0  0  0  0
  141.2077   71.3750  229.2544 H   0  0  0  0  0  0  0  0  0  0  0  0
  141.5346   72.6525  227.1477 H   0  0  0  0  0  0  0  0  0  0  0  0
  1  2  2  0
  2  3  1  0
  3  4  1  0
  4  5  1  0
  5  6  2  0
  5  7  1  0
  7  8  1  0
  8  9  1  0
  9 10  1  0
 10 11  1  0
 11 12  1  0
 11 13  1  0
 11 14  1  0
  2 15  1  0
 15 16  2  0
 16 17  1  0
 17 18  2  0
 18 19  1  0
 19 20  2  0
 20 21  1  0
 21 22  2  0
 22 23  1  0
 23 24  2  0
 14  7  1  0
 24 15  1  0
 23 18  1  0
  3 25  1  0
  4 26  1  0
  4 27  1  0
  8 28  1  0
  8 29  1  0
  9 30  1  0
  9 31  1  0
 10 32  1  0
 10 33  1  0
 14 34  1  0
 14 35  1  0
 16 36  1  0
 17 37  1  0
 19 38  1  0
 20 39  1  0
 21 40  1  0
 22 41  1  0
M  END
>  <smiles>  (17) 
O=C(NCC(=O)N1CCCC(F)(F)C1)c1ccc2ccccc2n1

>  <score_type>  (17) 
oracle

>  <origin>  (17) 
autodockgpu

>  <m_score__min__energy>  (17) 
-7.3099999999999996

>  <m_primary>  (17) 
energy

>  <rmsd>  (17) 
2.83748930049415

>  <m_score__min__rmsd>  (17) 
2.83748930049415

>  <meeko>  (17) 
{"free_energy": -7.23, "intermolecular_energy": -8.43, "internal_energy": -0.8, "cluster_size": 11, "cluster_id": 2, "rank_in_cluster": 3}

>  <energy>  (17) 
-6.73

>  <cluster_rmsd>  (17) 
1.63

>  <cluster>  (17) 
1

$$$$

     RDKit          3D

 41 43  0  0  0  0  0  0  0  0999 V2000
  141.5290   72.0720  220.8980 O   0  0  0  0  0  0  0  0  0  0  0  0
  140.9580   72.9740  221.5520 C   0  0  0  0  0  0  0  0  0  0  0  0
  140.0470   72.5820  222.5790 N   0  0  0  0  0  0  0  0  0  0  0  0
  139.7920   71.1810  222.8530 C   0  0  0  0  0  0  0  0  0  0  0  0
  139.0570   70.9980  224.1320 C   0  0  0  0  0  0  0  0  0  0  0  0
  137.8140   71.1530  224.2460 O   0  0  0  0  0  0  0  0  0  0  0  0
  139.8060   70.6280  225.2810 N   0  0  0  0  0  0  0  0  0  0  0  0
  141.0640   71.2650  225.5300 C   0  0  0  0  0  0  0  0  0  0  0  0
  141.0590   71.8390  226.9260 C   0  0  0  0  0  0  0  0  0  0  0  0
  140.6830   70.8180  227.9570 C   0  0  0  0  0  0  0  0  0  0  0  0
  140.3370   69.4790  227.3340 C   0  0  0  0  0  0  0  0  0  0  0  0
  139.6850   68.7650  228.3490 F   0  0  0  0  0  0  0  0  0  0  0  0
  141.4460   68.7750  226.9490 F   0  0  0  0  0  0  0  0  0  0  0  0
  139.3440   69.6270  226.2140 C   0  0  0  0  0  0  0  0  0  0  0  0
  141.1860   74.3950  221.3090 C   0  0  0  0  0  0  0  0  0  0  0  0
  142.0340   74.7850  220.2920 C   0  0  0  0  0  0  0  0  0  0  0  0
  142.2270   76.1390  220.0870 C   0  0  0  0  0  0  0  0  0  0  0  0
  141.6030   77.0990  220.8650 C   0  0  0  0  0  0  0  0  0  0  0  0
  141.7800   78.4500  220.6810 C   0  0  0  0  0  0  0  0  0  0  0  0
  141.1350   79.3820  221.4830 C   0  0  0  0  0  0  0  0  0  0  0  0
  140.3030   78.9090  222.4800 C   0  0  0  0  0  0  0  0  0  0  0  0
  140.1130   77.5440  222.6790 C   0  0  0  0  0  0  0  0  0  0  0  0
  140.7670   76.6440  221.8660 C   0  0  0  0  0  0  0  0  0  0  0  0
  140.5840   75.3250  222.0590 N   0  0  0  0  0  0  0  0  0  0  0  0
  139.5740   73.3620  223.1210 H   0  0  0  0  0  0  0  0  0  0  0  0
  139.1914   70.7605  222.0329 H   0  0  0  0  0  0  0  0  0  0  0  0
  140.7600   70.6651  222.9359 H   0  0  0  0  0  0  0  0  0  0  0  0
  141.8750   70.5275  225.4378 H   0  0  0  0  0  0  0  0  0  0  0  0
  141.2226   72.0710  224.7984 H   0  0  0  0  0  0  0  0  0  0  0  0
  142.0648   72.2205  227.1557 H   0  0  0  0  0  0  0  0  0  0  0  0
  140.3088   72.6429  226.9577 H   0  0  0  0  0  0  0  0  0  0  0  0
  141.5298   70.6807  228.6456 H   0  0  0  0  0  0  0  0  0  0  0  0
  139.7923   71.1849  228.4881 H   0  0  0  0  0  0  0  0  0  0  0  0
  139.2349   68.6644  225.6929 H   0  0  0  0  0  0  0  0  0  0  0  0
  138.3727   69.9361  226.6276 H   0  0  0  0  0  0  0  0  0  0  0  0
  142.5420   74.0397  219.6623 H   0  0  0  0  0  0  0  0  0  0  0  0
  142.8987   76.4639  219.2788 H   0  0  0  0  0  0  0  0  0  0  0  0
  142.4478   78.8005  219.8802 H   0  0  0  0  0  0  0  0  0  0  0  0
  141.2814   80.4614  221.3299 H   0  0  0  0  0  0  0  0  0  0  0  0
  139.7799   79.6259  223.1300 H   0  0  0  0  0  0  0  0  0  0  0  0
  139.4467   77.1873  223.4782 H   0  0  0  0  0  0  0  0  0  0  0  0
  1  2  2  0
  2  3  1  0
  3  4  1  0
  4  5  1  0
  5  6  2  0
  5  7  1  0
  7  8  1  0
  8  9  1  0
  9 10  1  0
 10 11  1  0
 11 12  1  0
 11 13  1  0
 11 14  1  0
  2 15  1  0
 15 16  2  0
 16 17  1  0
 17 18  2  0
 18 19  1  0
 19 20  2  0
 20 21  1  0
 21 22  2  0
 22 23  1  0
 23 24  2  0
 14  7  1  0
 24 15  1  0
 23 18  1  0
  3 25  1  0
  4 26  1  0
  4 27  1  0
  8 28  1  0
  8 29  1  0
  9 30  1  0
  9 31  1  0
 10 32  1  0
 10 33  1  0
 14 34  1  0
 14 35  1  0
 16 36  1  0
 17 37  1  0
 19 38  1  0
 20 39  1  0
 21 40  1  0
 22 41  1  0
M  END
>  <smiles>  (18) 
O=C(NCC(=O)N1CCCC(F)(F)C1)c1ccc2ccccc2n1

>  <score_type>  (18) 
oracle

>  <origin>  (18) 
autodockgpu

>  <m_score__min__energy>  (18) 
-7.3099999999999996

>  <m_primary>  (18) 
energy

>  <rmsd>  (18) 
8.455245172343798

>  <m_score__min__rmsd>  (18) 
8.455245172343798

>  <meeko>  (18) 
{"free_energy": -6.86, "intermolecular_energy": -8.06, "internal_energy": -1.13, "cluster_size": 20, "cluster_id": 3, "rank_in_cluster": 7}

>  <energy>  (18) 
-7.26

>  <cluster_rmsd>  (18) 
0.0

>  <cluster>  (18) 
2

$$$$

     RDKit          3D

 41 43  0  0  0  0  0  0  0  0999 V2000
  139.1480   74.9650  222.0040 O   0  0  0  0  0  0  0  0  0  0  0  0
  140.2120   75.6230  222.0210 C   0  0  0  0  0  0  0  0  0  0  0  0
  141.4130   74.9650  221.6130 N   0  0  0  0  0  0  0  0  0  0  0  0
  141.3960   73.5770  221.1940 C   0  0  0  0  0  0  0  0  0  0  0  0
  141.9490   73.4120  219.8250 C   0  0  0  0  0  0  0  0  0  0  0  0
  141.2360   73.3790  218.7890 O   0  0  0  0  0  0  0  0  0  0  0  0
  143.3570   73.2840  219.6870 N   0  0  0  0  0  0  0  0  0  0  0  0
  144.1780   74.4510  219.8040 C   0  0  0  0  0  0  0  0  0  0  0  0
  145.2430   74.2040  220.8440 C   0  0  0  0  0  0  0  0  0  0  0  0
  146.0130   72.9460  220.5790 C   0  0  0  0  0  0  0  0  0  0  0  0
  145.4870   72.2000  219.3670 C   0  0  0  0  0  0  0  0  0  0  0  0
  146.0490   70.9190  219.4590 F   0  0  0  0  0  0  0  0  0  0  0  0
  145.8830   72.7670  218.1860 F   0  0  0  0  0  0  0  0  0  0  0  0
  143.9950   72.0140  219.4340 C   0  0  0  0  0  0  0  0  0  0  0  0
  140.2740   77.0210  222.4360 C   0  0  0  0  0  0  0  0  0  0  0  0
  139.1040   77.7100  222.6830 C   0  0  0  0  0  0  0  0  0  0  0  0
  139.1970   79.0330  223.0750 C   0  0  0  0  0  0  0  0  0  0  0  0
  140.4140   79.6750  223.2230 C   0  0  0  0  0  0  0  0  0  0  0  0
  140.5320   80.9890  223.6110 C   0  0  0  0  0  0  0  0  0  0  0  0
  141.7730   81.5970  223.7480 C   0  0  0  0  0  0  0  0  0  0  0  0
  142.8960   80.8360  223.4800 C   0  0  0  0  0  0  0  0  0  0  0  0
  142.7940   79.5040  223.0870 C   0  0  0  0  0  0  0  0  0  0  0  0
  141.5480   78.9300  222.9600 C   0  0  0  0  0  0  0  0  0  0  0  0
  141.4500   77.6440  222.5790 N   0  0  0  0  0  0  0  0  0  0  0  0
  142.3040   75.5420  221.6350 H   0  0  0  0  0  0  0  0  0  0  0  0
  142.0002   72.9846  221.8968 H   0  0  0  0  0  0  0  0  0  0  0  0
  140.3513   73.2326  221.1868 H   0  0  0  0  0  0  0  0  0  0  0  0
  144.6523   74.6662  218.8351 H   0  0  0  0  0  0  0  0  0  0  0  0
  143.5599   75.3101  220.1038 H   0  0  0  0  0  0  0  0  0  0  0  0
  145.9418   75.0535  220.8440 H   0  0  0  0  0  0  0  0  0  0  0  0
  144.7443   74.0954  221.8184 H   0  0  0  0  0  0  0  0  0  0  0  0
  147.0678   73.2055  220.4056 H   0  0  0  0  0  0  0  0  0  0  0  0
  145.9024   72.2900  221.4551 H   0  0  0  0  0  0  0  0  0  0  0  0
  143.6339   71.6075  218.4778 H   0  0  0  0  0  0  0  0  0  0  0  0
  143.7513   71.3154  220.2480 H   0  0  0  0  0  0  0  0  0  0  0  0
  138.1252   77.2207  222.5712 H   0  0  0  0  0  0  0  0  0  0  0  0
  138.2724   79.5940  223.2759 H   0  0  0  0  0  0  0  0  0  0  0  0
  139.6223   81.5720  223.8176 H   0  0  0  0  0  0  0  0  0  0  0  0
  141.8597   82.6485  224.0592 H   0  0  0  0  0  0  0  0  0  0  0  0
  143.8917   81.2928  223.5794 H   0  0  0  0  0  0  0  0  0  0  0  0
  143.7000   78.9155  222.8799 H   0  0  0  0  0  0  0  0  0  0  0  0
  1  2  2  0
  2  3  1  0
  3  4  1  0
  4  5  1  0
  5  6  2  0
  5  7  1  0
  7  8  1  0
  8  9  1  0
  9 10  1  0
 10 11  1  0
 11 12  1  0
 11 13  1  0
 11 14  1  0
  2 15  1  0
 15 16  2  0
 16 17  1  0
 17 18  2  0
 18 19  1  0
 19 20  2  0
 20 21  1  0
 21 22  2  0
 22 23  1  0
 23 24  2  0
 14  7  1  0
 24 15  1  0
 23 18  1  0
  3 25  1  0
  4 26  1  0
  4 27  1  0
  8 28  1  0
  8 29  1  0
  9 30  1  0
  9 31  1  0
 10 32  1  0
 10 33  1  0
 14 34  1  0
 14 35  1  0
 16 36  1  0
 17 37  1  0
 19 38  1  0
 20 39  1  0
 21 40  1  0
 22 41  1  0
M  END
>  <smiles>  (19) 
O=C(NCC(=O)N1CCCC(F)(F)C1)c1ccc2ccccc2n1

>  <score_type>  (19) 
oracle

>  <origin>  (19) 
autodockgpu

>  <m_score__min__energy>  (19) 
-7.3099999999999996

>  <m_primary>  (19) 
energy

>  <rmsd>  (19) 
7.93769210509999

>  <m_score__min__rmsd>  (19) 
7.93769210509999

>  <meeko>  (19) 
{"free_energy": -6.64, "intermolecular_energy": -7.84, "internal_energy": -1.12, "cluster_size": 1, "cluster_id": 4, "rank_in_cluster": 1}

>  <energy>  (19) 
-7.24

>  <cluster_rmsd>  (19) 
0.11

>  <cluster>  (19) 
2

$$$$

     RDKit          3D

 41 43  0  0  0  0  0  0  0  0999 V2000
  139.9680   69.8660  222.0850 O   0  0  0  0  0  0  0  0  0  0  0  0
  139.6160   70.9840  222.5230 C   0  0  0  0  0  0  0  0  0  0  0  0
  138.6110   71.0220  223.5370 N   0  0  0  0  0  0  0  0  0  0  0  0
  138.0170   69.7990  224.0420 C   0  0  0  0  0  0  0  0  0  0  0  0
  138.9980   68.9910  224.8120 C   0  0  0  0  0  0  0  0  0  0  0  0
  139.1900   67.7630  224.6170 O   0  0  0  0  0  0  0  0  0  0  0  0
  139.7540   69.6470  225.8210 N   0  0  0  0  0  0  0  0  0  0  0  0
  141.0830   70.0850  225.5220 C   0  0  0  0  0  0  0  0  0  0  0  0
  141.2050   71.5530  225.8530 C   0  0  0  0  0  0  0  0  0  0  0  0
  140.7680   71.8560  227.2540 C   0  0  0  0  0  0  0  0  0  0  0  0
  140.2500   70.6230  227.9690 C   0  0  0  0  0  0  0  0  0  0  0  0
  139.5710   71.1150  229.0930 F   0  0  0  0  0  0  0  0  0  0  0  0
  141.2560   69.7980  228.3940 F   0  0  0  0  0  0  0  0  0  0  0  0
  139.2280   69.8900  227.1430 C   0  0  0  0  0  0  0  0  0  0  0  0
  140.1880   72.2390  222.0430 C   0  0  0  0  0  0  0  0  0  0  0  0
  141.3060   72.2130  221.2350 C   0  0  0  0  0  0  0  0  0  0  0  0
  141.8220   73.4190  220.7960 C   0  0  0  0  0  0  0  0  0  0  0  0
  141.2560   74.6330  221.1430 C   0  0  0  0  0  0  0  0  0  0  0  0
  141.7510   75.8440  220.7210 C   0  0  0  0  0  0  0  0  0  0  0  0
  141.1530   77.0420  221.0910 C   0  0  0  0  0  0  0  0  0  0  0  0
  140.0370   76.9800  221.9030 C   0  0  0  0  0  0  0  0  0  0  0  0
  139.5220   75.7620  222.3390 C   0  0  0  0  0  0  0  0  0  0  0  0
  140.1390   74.5910  221.9540 C   0  0  0  0  0  0  0  0  0  0  0  0
  139.6420   73.4150  222.3770 N   0  0  0  0  0  0  0  0  0  0  0  0
  138.3290   71.9800  223.8940 H   0  0  0  0  0  0  0  0  0  0  0  0
  137.1732   70.0569  224.6989 H   0  0  0  0  0  0  0  0  0  0  0  0
  137.6781   69.2012  223.1830 H   0  0  0  0  0  0  0  0  0  0  0  0
  141.8040   69.5108  226.1224 H   0  0  0  0  0  0  0  0  0  0  0  0
  141.2941   69.9269  224.4541 H   0  0  0  0  0  0  0  0  0  0  0  0
  142.2559   71.8562  225.7364 H   0  0  0  0  0  0  0  0  0  0  0  0
  140.5492   72.1093  225.1671 H   0  0  0  0  0  0  0  0  0  0  0  0
  141.6256   72.2569  227.8142 H   0  0  0  0  0  0  0  0  0  0  0  0
  139.9480   72.5874  227.2025 H   0  0  0  0  0  0  0  0  0  0  0  0
  138.9898   68.9298  227.6239 H   0  0  0  0  0  0  0  0  0  0  0  0
  138.3164   70.5007  227.0656 H   0  0  0  0  0  0  0  0  0  0  0  0
  141.7740   71.2598  220.9479 H   0  0  0  0  0  0  0  0  0  0  0  0
  142.7120   73.4127  220.1495 H   0  0  0  0  0  0  0  0  0  0  0  0
  142.6413   75.8649  220.0753 H   0  0  0  0  0  0  0  0  0  0  0  0
  141.5545   78.0073  220.7490 H   0  0  0  0  0  0  0  0  0  0  0  0
  139.5443   77.9137  222.2120 H   0  0  0  0  0  0  0  0  0  0  0  0
  138.6316   75.7345  222.9843 H   0  0  0  0  0  0  0  0  0  0  0  0
  1  2  2  0
  2  3  1  0
  3  4  1  0
  4  5  1  0
  5  6  2  0
  5  7  1  0
  7  8  1  0
  8  9  1  0
  9 10  1  0
 10 11  1  0
 11 12  1  0
 11 13  1  0
 11 14  1  0
  2 15  1  0
 15 16  2  0
 16 17  1  0
 17 18  2  0
 18 19  1  0
 19 20  2  0
 20 21  1  0
 21 22  2  0
 22 23  1  0
 23 24  2  0
 14  7  1  0
 24 15  1  0
 23 18  1  0
  3 25  1  0
  4 26  1  0
  4 27  1  0
  8 28  1  0
  8 29  1  0
  9 30  1  0
  9 31  1  0
 10 32  1  0
 10 33  1  0
 14 34  1  0
 14 35  1  0
 16 36  1  0
 17 37  1  0
 19 38  1  0
 20 39  1  0
 21 40  1  0
 22 41  1  0
M  END
>  <smiles>  (20) 
O=C(NCC(=O)N1CCCC(F)(F)C1)c1ccc2ccccc2n1

>  <score_type>  (20) 
oracle

>  <origin>  (20) 
autodockgpu

>  <m_score__min__energy>  (20) 
-7.3099999999999996

>  <m_primary>  (20) 
energy

>  <rmsd>  (20) 
7.729686789961632

>  <m_score__min__rmsd>  (20) 
7.729686789961632

>  <meeko>  (20) 
{"free_energy": -6.42, "intermolecular_energy": -7.62, "internal_energy": -1.48, "cluster_size": 20, "cluster_id": 3, "rank_in_cluster": 20}

>  <energy>  (20) 
-7.23

>  <cluster_rmsd>  (20) 
0.11

>  <cluster>  (20) 
2

$$$$

     RDKit          3D

 41 43  0  0  0  0  0  0  0  0999 V2000
  139.0880   70.7430  221.5430 O   0  0  0  0  0  0  0  0  0  0  0  0
  139.4290   71.2200  222.6490 C   0  0  0  0  0  0  0  0  0  0  0  0
  139.6830   72.6240  222.7240 N   0  0  0  0  0  0  0  0  0  0  0  0
  139.5500   73.4680  221.5520 C   0  0  0  0  0  0  0  0  0  0  0  0
  140.6580   74.4540  221.4590 C   0  0  0  0  0  0  0  0  0  0  0  0
  140.6310   75.5830  222.0120 O   0  0  0  0  0  0  0  0  0  0  0  0
  141.8060   74.0940  220.7020 N   0  0  0  0  0  0  0  0  0  0  0  0
  142.3470   75.0320  219.7660 C   0  0  0  0  0  0  0  0  0  0  0  0
  143.8140   75.2320  220.0600 C   0  0  0  0  0  0  0  0  0  0  0  0
  144.5620   73.9350  220.1190 C   0  0  0  0  0  0  0  0  0  0  0  0
  143.6470   72.7400  219.9330 C   0  0  0  0  0  0  0  0  0  0  0  0
  144.4010   71.6370  220.3560 F   0  0  0  0  0  0  0  0  0  0  0  0
  143.2890   72.5480  218.6250 F   0  0  0  0  0  0  0  0  0  0  0  0
  142.4510   72.8090  220.8420 C   0  0  0  0  0  0  0  0  0  0  0  0
  139.5740   70.4070  223.8520 C   0  0  0  0  0  0  0  0  0  0  0  0
  139.1170   69.1050  223.8530 C   0  0  0  0  0  0  0  0  0  0  0  0
  139.2700   68.3610  225.0090 C   0  0  0  0  0  0  0  0  0  0  0  0
  139.8600   68.8810  226.1480 C   0  0  0  0  0  0  0  0  0  0  0  0
  140.0230   68.1620  227.3090 C   0  0  0  0  0  0  0  0  0  0  0  0
  140.6200   68.7200  228.4310 C   0  0  0  0  0  0  0  0  0  0  0  0
  141.0490   70.0310  228.3470 C   0  0  0  0  0  0  0  0  0  0  0  0
  140.8920   70.7730  227.1790 C   0  0  0  0  0  0  0  0  0  0  0  0
  140.2960   70.1900  226.0830 C   0  0  0  0  0  0  0  0  0  0  0  0
  140.1430   70.9080  224.9550 N   0  0  0  0  0  0  0  0  0  0  0  0
  139.9700   73.0070  223.6710 H   0  0  0  0  0  0  0  0  0  0  0  0
  139.5597   72.8344  220.6529 H   0  0  0  0  0  0  0  0  0  0  0  0
  138.6028   74.0216  221.6325 H   0  0  0  0  0  0  0  0  0  0  0  0
  142.2256   74.6442  218.7438 H   0  0  0  0  0  0  0  0  0  0  0  0
  141.8169   75.9918  219.8543 H   0  0  0  0  0  0  0  0  0  0  0  0
  144.2518   75.8576  219.2682 H   0  0  0  0  0  0  0  0  0  0  0  0
  143.8980   75.7151  221.0447 H   0  0  0  0  0  0  0  0  0  0  0  0
  145.3218   73.9272  219.3236 H   0  0  0  0  0  0  0  0  0  0  0  0
  145.0248   73.8558  221.1137 H   0  0  0  0  0  0  0  0  0  0  0  0
  141.7413   72.0126  220.5735 H   0  0  0  0  0  0  0  0  0  0  0  0
  142.7776   72.6772  221.8841 H   0  0  0  0  0  0  0  0  0  0  0  0
  138.6443   68.6710  222.9596 H   0  0  0  0  0  0  0  0  0  0  0  0
  138.9108   67.3214  225.0236 H   0  0  0  0  0  0  0  0  0  0  0  0
  139.6720   67.1203  227.3494 H   0  0  0  0  0  0  0  0  0  0  0  0
  140.7473   68.1383  229.3559 H   0  0  0  0  0  0  0  0  0  0  0  0
  141.5248   70.4986  229.2217 H   0  0  0  0  0  0  0  0  0  0  0  0
  141.2409   71.8152  227.1324 H   0  0  0  0  0  0  0  0  0  0  0  0
  1  2  2  0
  2  3  1  0
  3  4  1  0
  4  5  1  0
  5  6  2  0
  5  7  1  0
  7  8  1  0
  8  9  1  0
  9 10  1  0
 10 11  1  0
 11 12  1  0
 11 13  1  0
 11 14  1  0
  2 15  1  0
 15 16  2  0
 16 17  1  0
 17 18  2  0
 18 19  1  0
 19 20  2  0
 20 21  1  0
 21 22  2  0
 22 23  1  0
 23 24  2  0
 14  7  1  0
 24 15  1  0
 23 18  1  0
  3 25  1  0
  4 26  1  0
  4 27  1  0
  8 28  1  0
  8 29  1  0
  9 30  1  0
  9 31  1  0
 10 32  1  0
 10 33  1  0
 14 34  1  0
 14 35  1  0
 16 36  1  0
 17 37  1  0
 19 38  1  0
 20 39  1  0
 21 40  1  0
 22 41  1  0
M  END
>  <smiles>  (21) 
O=C(NCC(=O)N1CCCC(F)(F)C1)c1ccc2ccccc2n1

>  <score_type>  (21) 
oracle

>  <origin>  (21) 
autodockgpu

>  <m_score__min__energy>  (21) 
-7.3099999999999996

>  <m_primary>  (21) 
energy

>  <rmsd>  (21) 
2.7795886753032666

>  <m_score__min__rmsd>  (21) 
2.7795886753032666

>  <meeko>  (21) 
{"free_energy": -6.73, "intermolecular_energy": -7.92, "internal_energy": -1.15, "cluster_size": 17, "cluster_id": 1, "rank_in_cluster": 17}

>  <energy>  (21) 
-7.18

>  <cluster_rmsd>  (21) 
0.28

>  <cluster>  (21) 
2

$$$$

     RDKit          3D

 41 43  0  0  0  0  0  0  0  0999 V2000
  140.7790   71.6320  221.2650 O   0  0  0  0  0  0  0  0  0  0  0  0
  140.3370   72.1420  222.3200 C   0  0  0  0  0  0  0  0  0  0  0  0
  139.9360   73.5120  222.2850 N   0  0  0  0  0  0  0  0  0  0  0  0
  140.0400   74.2880  221.0640 C   0  0  0  0  0  0  0  0  0  0  0  0
  141.2710   75.1190  221.0460 C   0  0  0  0  0  0  0  0  0  0  0  0
  142.4260   74.6460  220.8930 O   0  0  0  0  0  0  0  0  0  0  0  0
  141.1270   76.5230  221.2120 N   0  0  0  0  0  0  0  0  0  0  0  0
  140.4200   77.0220  222.3530 C   0  0  0  0  0  0  0  0  0  0  0  0
  141.2940   78.0140  223.0810 C   0  0  0  0  0  0  0  0  0  0  0  0
  141.8100   79.0880  222.1710 C   0  0  0  0  0  0  0  0  0  0  0  0
  141.3790   78.8730  220.7320 C   0  0  0  0  0  0  0  0  0  0  0  0
  142.2040   79.7180  219.9770 F   0  0  0  0  0  0  0  0  0  0  0  0
  140.0750   79.2260  220.5140 F   0  0  0  0  0  0  0  0  0  0  0  0
  141.6710   77.4710  220.2690 C   0  0  0  0  0  0  0  0  0  0  0  0
  140.2150   71.3980  223.5700 C   0  0  0  0  0  0  0  0  0  0  0  0
  139.6030   70.1610  223.5690 C   0  0  0  0  0  0  0  0  0  0  0  0
  139.5040   69.4820  224.7700 C   0  0  0  0  0  0  0  0  0  0  0  0
  139.9950   70.0030  225.9550 C   0  0  0  0  0  0  0  0  0  0  0  0
  139.9080   69.3480  227.1600 C   0  0  0  0  0  0  0  0  0  0  0  0
  140.4140   69.9050  228.3280 C   0  0  0  0  0  0  0  0  0  0  0  0
  141.0110   71.1480  228.2420 C   0  0  0  0  0  0  0  0  0  0  0  0
  141.1080   71.8240  227.0280 C   0  0  0  0  0  0  0  0  0  0  0  0
  140.5960   71.2450  225.8880 C   0  0  0  0  0  0  0  0  0  0  0  0
  140.6890   71.9000  224.7170 N   0  0  0  0  0  0  0  0  0  0  0  0
  139.5640   73.9240  223.1890 H   0  0  0  0  0  0  0  0  0  0  0  0
  140.0609   73.6009  220.2053 H   0  0  0  0  0  0  0  0  0  0  0  0
  139.1710   74.9601  221.0091 H   0  0  0  0  0  0  0  0  0  0  0  0
  139.4945   77.5178  222.0249 H   0  0  0  0  0  0  0  0  0  0  0  0
  140.1661   76.1889  223.0250 H   0  0  0  0  0  0  0  0  0  0  0  0
  140.7057   78.4823  223.8839 H   0  0  0  0  0  0  0  0  0  0  0  0
  142.1597   77.4688  223.4852 H   0  0  0  0  0  0  0  0  0  0  0  0
  141.4253   80.0594  222.5151 H   0  0  0  0  0  0  0  0  0  0  0  0
  142.9092   79.0598  222.2031 H   0  0  0  0  0  0  0  0  0  0  0  0
  141.2126   77.3090  219.2823 H   0  0  0  0  0  0  0  0  0  0  0  0
  142.7597   77.3304  220.1986 H   0  0  0  0  0  0  0  0  0  0  0  0
  139.2053   69.7274  222.6396 H   0  0  0  0  0  0  0  0  0  0  0  0
  139.0188   68.4949  224.7841 H   0  0  0  0  0  0  0  0  0  0  0  0
  139.4266   68.3598  227.2008 H   0  0  0  0  0  0  0  0  0  0  0  0
  140.3417   69.3742  229.2888 H   0  0  0  0  0  0  0  0  0  0  0  0
  141.4183   71.6137  229.1515 H   0  0  0  0  0  0  0  0  0  0  0  0
  141.5894   72.8119  226.9802 H   0  0  0  0  0  0  0  0  0  0  0  0
  1  2  2  0
  2  3  1  0
  3  4  1  0
  4  5  1  0
  5  6  2  0
  5  7  1  0
  7  8  1  0
  8  9  1  0
  9 10  1  0
 10 11  1  0
 11 12  1  0
 11 13  1  0
 11 14  1  0
  2 15  1  0
 15 16  2  0
 16 17  1  0
 17 18  2  0
 18 19  1  0
 19 20  2  0
 20 21  1  0
 21 22  2  0
 22 23  1  0
 23 24  2  0
 14  7  1  0
 24 15  1  0
 23 18  1  0
  3 25  1  0
  4 26  1  0
  4 27  1  0
  8 28  1  0
  8 29  1  0
  9 30  1  0
  9 31  1  0
 10 32  1  0
 10 33  1  0
 14 34  1  0
 14 35  1  0
 16 36  1  0
 17 37  1  0
 19 38  1  0
 20 39  1  0
 21 40  1  0
 22 41  1  0
M  END
>  <smiles>  (22) 
O=C(NCC(=O)N1CCCC(F)(F)C1)c1ccc2ccccc2n1

>  <score_type>  (22) 
oracle

>  <origin>  (22) 
autodockgpu

>  <m_score__min__energy>  (22) 
-7.3099999999999996

>  <m_primary>  (22) 
energy

>  <rmsd>  (22) 
2.819557621460805

>  <m_score__min__rmsd>  (22) 
2.819557621460805

>  <meeko>  (22) 
{"free_energy": -7.18, "intermolecular_energy": -8.37, "internal_energy": -0.87, "cluster_size": 11, "cluster_id": 2, "rank_in_cluster": 5}

>  <energy>  (22) 
-7.18

>  <cluster_rmsd>  (22) 
0.28

>  <cluster>  (22) 
2

$$$$

     RDKit          3D

 41 43  0  0  0  0  0  0  0  0999 V2000
  141.4220   71.6500  221.3380 O   0  0  0  0  0  0  0  0  0  0  0  0
  140.7370   72.5710  221.8370 C   0  0  0  0  0  0  0  0  0  0  0  0
  139.6640   72.2120  222.7090 N   0  0  0  0  0  0  0  0  0  0  0  0
  139.3790   70.8220  223.0040 C   0  0  0  0  0  0  0  0  0  0  0  0
  138.7700   70.6610  224.3500 C   0  0  0  0  0  0  0  0  0  0  0  0
  137.5320   70.7340  224.5640 O   0  0  0  0  0  0  0  0  0  0  0  0
  139.6380   70.4140  225.4480 N   0  0  0  0  0  0  0  0  0  0  0  0
  140.9140   71.0610  225.4870 C   0  0  0  0  0  0  0  0  0  0  0  0
  141.0590   71.7890  226.8020 C   0  0  0  0  0  0  0  0  0  0  0  0
  140.7960   70.8950  227.9760 C   0  0  0  0  0  0  0  0  0  0  0  0
  140.3860   69.4980  227.5490 C   0  0  0  0  0  0  0  0  0  0  0  0
  139.8470   68.9100  228.7010 F   0  0  0  0  0  0  0  0  0  0  0  0
  141.4480   68.7420  227.1290 F   0  0  0  0  0  0  0  0  0  0  0  0
  139.2790   69.5300  226.5310 C   0  0  0  0  0  0  0  0  0  0  0  0
  140.9890   73.9840  221.5660 C   0  0  0  0  0  0  0  0  0  0  0  0
  141.9700   74.3390  220.6620 C   0  0  0  0  0  0  0  0  0  0  0  0
  142.1840   75.6850  220.4270 C   0  0  0  0  0  0  0  0  0  0  0  0
  141.4510   76.6700  221.0660 C   0  0  0  0  0  0  0  0  0  0  0  0
  141.6460   78.0140  220.8500 C   0  0  0  0  0  0  0  0  0  0  0  0
  140.8890   78.9730  221.5110 C   0  0  0  0  0  0  0  0  0  0  0  0
  139.9270   78.5330  222.4010 C   0  0  0  0  0  0  0  0  0  0  0  0
  139.7170   77.1760  222.6310 C   0  0  0  0  0  0  0  0  0  0  0  0
  140.4850   76.2490  221.9580 C   0  0  0  0  0  0  0  0  0  0  0  0
  140.2820   74.9380  222.1820 N   0  0  0  0  0  0  0  0  0  0  0  0
  139.0970   73.0090  223.1210 H   0  0  0  0  0  0  0  0  0  0  0  0
  138.6814   70.4326  222.2479 H   0  0  0  0  0  0  0  0  0  0  0  0
  140.3278   70.2657  222.9874 H   0  0  0  0  0  0  0  0  0  0  0  0
  141.7113   70.3091  225.3924 H   0  0  0  0  0  0  0  0  0  0  0  0
  140.9916   71.7777  224.6562 H   0  0  0  0  0  0  0  0  0  0  0  0
  142.0836   72.1818  226.8784 H   0  0  0  0  0  0  0  0  0  0  0  0
  140.3167   72.6005  226.8224 H   0  0  0  0  0  0  0  0  0  0  0  0
  141.7117   70.8264  228.5817 H   0  0  0  0  0  0  0  0  0  0  0  0
  139.9670   71.3296  228.5537 H   0  0  0  0  0  0  0  0  0  0  0  0
  139.1159   68.5162  226.1365 H   0  0  0  0  0  0  0  0  0  0  0  0
  138.3569   69.8943  227.0076 H   0  0  0  0  0  0  0  0  0  0  0  0
  142.5648   73.5728  220.1431 H   0  0  0  0  0  0  0  0  0  0  0  0
  142.9622   75.9825  219.7088 H   0  0  0  0  0  0  0  0  0  0  0  0
  142.4192   78.3371  220.1374 H   0  0  0  0  0  0  0  0  0  0  0  0
  141.0496   80.0464  221.3323 H   0  0  0  0  0  0  0  0  0  0  0  0
  139.3141   79.2711  222.9392 H   0  0  0  0  0  0  0  0  0  0  0  0
  138.9458   76.8464  223.3428 H   0  0  0  0  0  0  0  0  0  0  0  0
  1  2  2  0
  2  3  1  0
  3  4  1  0
  4  5  1  0
  5  6  2  0
  5  7  1  0
  7  8  1  0
  8  9  1  0
  9 10  1  0
 10 11  1  0
 11 12  1  0
 11 13  1  0
 11 14  1  0
  2 15  1  0
 15 16  2  0
 16 17  1  0
 17 18  2  0
 18 19  1  0
 19 20  2  0
 20 21  1  0
 21 22  2  0
 22 23  1  0
 23 24  2  0
 14  7  1  0
 24 15  1  0
 23 18  1  0
  3 25  1  0
  4 26  1  0
  4 27  1  0
  8 28  1  0
  8 29  1  0
  9 30  1  0
  9 31  1  0
 10 32  1  0
 10 33  1  0
 14 34  1  0
 14 35  1  0
 16 36  1  0
 17 37  1  0
 19 38  1  0
 20 39  1  0
 21 40  1  0
 22 41  1  0
M  END
>  <smiles>  (23) 
O=C(NCC(=O)N1CCCC(F)(F)C1)c1ccc2ccccc2n1

>  <score_type>  (23) 
oracle

>  <origin>  (23) 
autodockgpu

>  <m_score__min__energy>  (23) 
-7.3099999999999996

>  <m_primary>  (23) 
energy

>  <rmsd>  (23) 
8.312488469588505

>  <m_score__min__rmsd>  (23) 
8.312488469588505

>  <meeko>  (23) 
{"free_energy": -6.8, "intermolecular_energy": -7.99, "internal_energy": -1.18, "cluster_size": 20, "cluster_id": 3, "rank_in_cluster": 14}

>  <energy>  (23) 
-7.07

>  <cluster_rmsd>  (23) 
1.59

>  <cluster>  (23) 
2

$$$$

     RDKit          3D

 41 43  0  0  0  0  0  0  0  0999 V2000
  139.4110   71.3110  221.2570 O   0  0  0  0  0  0  0  0  0  0  0  0
  139.5370   71.9020  222.3530 C   0  0  0  0  0  0  0  0  0  0  0  0
  139.4810   73.3290  222.3560 N   0  0  0  0  0  0  0  0  0  0  0  0
  139.2840   74.0690  221.1250 C   0  0  0  0  0  0  0  0  0  0  0  0
  138.8850   75.4760  221.3890 C   0  0  0  0  0  0  0  0  0  0  0  0
  137.6940   75.8780  221.3470 O   0  0  0  0  0  0  0  0  0  0  0  0
  139.9090   76.4090  221.7030 N   0  0  0  0  0  0  0  0  0  0  0  0
  141.2370   76.1760  221.2230 C   0  0  0  0  0  0  0  0  0  0  0  0
  141.7120   77.3960  220.4720 C   0  0  0  0  0  0  0  0  0  0  0  0
  141.5720   78.6490  221.2810 C   0  0  0  0  0  0  0  0  0  0  0  0
  140.9270   78.3890  222.6290 C   0  0  0  0  0  0  0  0  0  0  0  0
  140.5500   79.6540  223.1000 F   0  0  0  0  0  0  0  0  0  0  0  0
  141.7940   77.8290  223.5290 F   0  0  0  0  0  0  0  0  0  0  0  0
  139.6590   77.5910  222.4930 C   0  0  0  0  0  0  0  0  0  0  0  0
  139.7370   71.1960  223.6160 C   0  0  0  0  0  0  0  0  0  0  0  0
  139.4550   69.8480  223.6940 C   0  0  0  0  0  0  0  0  0  0  0  0
  139.6560   69.2090  224.9040 C   0  0  0  0  0  0  0  0  0  0  0  0
  140.1240   69.8770  226.0220 C   0  0  0  0  0  0  0  0  0  0  0  0
  140.3310   69.2640  227.2360 C   0  0  0  0  0  0  0  0  0  0  0  0
  140.8030   69.9700  228.3340 C   0  0  0  0  0  0  0  0  0  0  0  0
  141.0610   71.3180  228.1720 C   0  0  0  0  0  0  0  0  0  0  0  0
  140.8570   71.9530  226.9490 C   0  0  0  0  0  0  0  0  0  0  0  0
  140.3880   71.2250  225.8780 C   0  0  0  0  0  0  0  0  0  0  0  0
  140.1900   71.8400  224.6980 N   0  0  0  0  0  0  0  0  0  0  0  0
  139.5910   73.8090  223.2970 H   0  0  0  0  0  0  0  0  0  0  0  0
  140.2234   74.0660  220.5527 H   0  0  0  0  0  0  0  0  0  0  0  0
  138.4762   73.5835  220.5578 H   0  0  0  0  0  0  0  0  0  0  0  0
  141.9074   75.9828  222.0734 H   0  0  0  0  0  0  0  0  0  0  0  0
  141.2411   75.3036  220.5530 H   0  0  0  0  0  0  0  0  0  0  0  0
  142.7716   77.2602  220.2098 H   0  0  0  0  0  0  0  0  0  0  0  0
  141.0875   77.5032  219.5728 H   0  0  0  0  0  0  0  0  0  0  0  0
  142.5710   79.0800  221.4431 H   0  0  0  0  0  0  0  0  0  0  0  0
  140.9241   79.3414  220.7235 H   0  0  0  0  0  0  0  0  0  0  0  0
  139.3046   77.2950  223.4914 H   0  0  0  0  0  0  0  0  0  0  0  0
  138.8940   78.2056  221.9960 H   0  0  0  0  0  0  0  0  0  0  0  0
  139.0809   69.2969  222.8186 H   0  0  0  0  0  0  0  0  0  0  0  0
  139.4365   68.1338  224.9803 H   0  0  0  0  0  0  0  0  0  0  0  0
  140.1176   68.1898  227.3390 H   0  0  0  0  0  0  0  0  0  0  0  0
  140.9663   69.4727  229.3015 H   0  0  0  0  0  0  0  0  0  0  0  0
  141.4351   71.9014  229.0262 H   0  0  0  0  0  0  0  0  0  0  0  0
  141.0687   73.0269  226.8396 H   0  0  0  0  0  0  0  0  0  0  0  0
  1  2  2  0
  2  3  1  0
  3  4  1  0
  4  5  1  0
  5  6  2  0
  5  7  1  0
  7  8  1  0
  8  9  1  0
  9 10  1  0
 10 11  1  0
 11 12  1  0
 11 13  1  0
 11 14  1  0
  2 15  1  0
 15 16  2  0
 16 17  1  0
 17 18  2  0
 18 19  1  0
 19 20  2  0
 20 21  1  0
 21 22  2  0
 22 23  1  0
 23 24  2  0
 14  7  1  0
 24 15  1  0
 23 18  1  0
  3 25  1  0
  4 26  1  0
  4 27  1  0
  8 28  1  0
  8 29  1  0
  9 30  1  0
  9 31  1  0
 10 32  1  0
 10 33  1  0
 14 34  1  0
 14 35  1  0
 16 36  1  0
 17 37  1  0
 19 38  1  0
 20 39  1  0
 21 40  1  0
 22 41  1  0
M  END
>  <smiles>  (24) 
O=C(NCC(=O)N1CCCC(F)(F)C1)c1ccc2ccccc2n1

>  <score_type>  (24) 
oracle

>  <origin>  (24) 
autodockgpu

>  <m_score__min__energy>  (24) 
-7.3099999999999996

>  <m_primary>  (24) 
energy

>  <rmsd>  (24) 
2.326784286431596

>  <m_score__min__rmsd>  (24) 
2.326784286431596

>  <meeko>  (24) 
{"free_energy": -6.77, "intermolecular_energy": -7.96, "internal_energy": -1.03, "cluster_size": 11, "cluster_id": 2, "rank_in_cluster": 11}

>  <energy>  (24) 
-7.04

>  <cluster_rmsd>  (24) 
1.57

>  <cluster>  (24) 
2

$$$$

     RDKit          3D

 41 43  0  0  0  0  0  0  0  0999 V2000
  139.9360   69.8600  222.4470 O   0  0  0  0  0  0  0  0  0  0  0  0
  139.6240   71.0320  222.7590 C   0  0  0  0  0  0  0  0  0  0  0  0
  138.5990   71.2140  223.7370 N   0  0  0  0  0  0  0  0  0  0  0  0
  137.9420   70.0750  224.3480 C   0  0  0  0  0  0  0  0  0  0  0  0
  138.8910   69.2600  225.1500 C   0  0  0  0  0  0  0  0  0  0  0  0
  139.2020   68.0760  224.8620 O   0  0  0  0  0  0  0  0  0  0  0  0
  139.4720   69.8570  226.3010 N   0  0  0  0  0  0  0  0  0  0  0  0
  139.2310   69.2730  227.5860 C   0  0  0  0  0  0  0  0  0  0  0  0
  140.5540   69.0060  228.2630 C   0  0  0  0  0  0  0  0  0  0  0  0
  141.4250   70.2250  228.3040 C   0  0  0  0  0  0  0  0  0  0  0  0
  140.7870   71.4070  227.5980 C   0  0  0  0  0  0  0  0  0  0  0  0
  141.8300   72.3250  227.4140 F   0  0  0  0  0  0  0  0  0  0  0  0
  139.8080   72.0030  228.3460 F   0  0  0  0  0  0  0  0  0  0  0  0
  140.3020   71.0360  226.2230 C   0  0  0  0  0  0  0  0  0  0  0  0
  140.2600   72.2060  222.1690 C   0  0  0  0  0  0  0  0  0  0  0  0
  141.3950   72.0510  221.4000 C   0  0  0  0  0  0  0  0  0  0  0  0
  141.9730   73.1830  220.8550 C   0  0  0  0  0  0  0  0  0  0  0  0
  141.4500   74.4480  221.0580 C   0  0  0  0  0  0  0  0  0  0  0  0
  142.0070   75.5880  220.5270 C   0  0  0  0  0  0  0  0  0  0  0  0
  141.4510   76.8410  220.7540 C   0  0  0  0  0  0  0  0  0  0  0  0
  140.3140   76.9090  221.5350 C   0  0  0  0  0  0  0  0  0  0  0  0
  139.7370   75.7640  222.0800 C   0  0  0  0  0  0  0  0  0  0  0  0
  140.3130   74.5360  221.8360 C   0  0  0  0  0  0  0  0  0  0  0  0
  139.7560   73.4300  222.3630 N   0  0  0  0  0  0  0  0  0  0  0  0
  138.3510   72.2150  223.9870 H   0  0  0  0  0  0  0  0  0  0  0  0
  137.1385   70.4374  225.0061 H   0  0  0  0  0  0  0  0  0  0  0  0
  137.5374   69.4406  223.5456 H   0  0  0  0  0  0  0  0  0  0  0  0
  138.6363   69.9656  228.1997 H   0  0  0  0  0  0  0  0  0  0  0  0
  138.6786   68.3293  227.4666 H   0  0  0  0  0  0  0  0  0  0  0  0
  140.3635   68.6718  229.2936 H   0  0  0  0  0  0  0  0  0  0  0  0
  141.0806   68.2340  227.6828 H   0  0  0  0  0  0  0  0  0  0  0  0
  141.6071   70.4955  229.3545 H   0  0  0  0  0  0  0  0  0  0  0  0
  142.3648   69.9872  227.7842 H   0  0  0  0  0  0  0  0  0  0  0  0
  139.7166   71.8682  225.8049 H   0  0  0  0  0  0  0  0  0  0  0  0
  141.1668   70.8303  225.5751 H   0  0  0  0  0  0  0  0  0  0  0  0
  141.8280   71.0550  221.2253 H   0  0  0  0  0  0  0  0  0  0  0  0
  142.8784   73.0743  220.2398 H   0  0  0  0  0  0  0  0  0  0  0  0
  142.9131   75.5059  219.9087 H   0  0  0  0  0  0  0  0  0  0  0  0
  141.9015   77.7486  220.3259 H   0  0  0  0  0  0  0  0  0  0  0  0
  139.8539   77.8887  221.7311 H   0  0  0  0  0  0  0  0  0  0  0  0
  138.8307   75.8394  222.6989 H   0  0  0  0  0  0  0  0  0  0  0  0
  1  2  2  0
  2  3  1  0
  3  4  1  0
  4  5  1  0
  5  6  2  0
  5  7  1  0
  7  8  1  0
  8  9  1  0
  9 10  1  0
 10 11  1  0
 11 12  1  0
 11 13  1  0
 11 14  1  0
  2 15  1  0
 15 16  2  0
 16 17  1  0
 17 18  2  0
 18 19  1  0
 19 20  2  0
 20 21  1  0
 21 22  2  0
 22 23  1  0
 23 24  2  0
 14  7  1  0
 24 15  1  0
 23 18  1  0
  3 25  1  0
  4 26  1  0
  4 27  1  0
  8 28  1  0
  8 29  1  0
  9 30  1  0
  9 31  1  0
 10 32  1  0
 10 33  1  0
 14 34  1  0
 14 35  1  0
 16 36  1  0
 17 37  1  0
 19 38  1  0
 20 39  1  0
 21 40  1  0
 22 41  1  0
M  END
>  <smiles>  (25) 
O=C(NCC(=O)N1CCCC(F)(F)C1)c1ccc2ccccc2n1

>  <score_type>  (25) 
oracle

>  <origin>  (25) 
autodockgpu

>  <m_score__min__energy>  (25) 
-7.3099999999999996

>  <m_primary>  (25) 
energy

>  <rmsd>  (25) 
8.314240865638668

>  <m_score__min__rmsd>  (25) 
8.314240865638668

>  <meeko>  (25) 
{"free_energy": -6.72, "intermolecular_energy": -7.92, "internal_energy": -1.21, "cluster_size": 20, "cluster_id": 3, "rank_in_cluster": 15}

>  <energy>  (25) 
-7.04

>  <cluster_rmsd>  (25) 
1.61

>  <cluster>  (25) 
2

$$$$

     RDKit          3D

 41 43  0  0  0  0  0  0  0  0999 V2000
  139.6740   70.7440  221.4560 O   0  0  0  0  0  0  0  0  0  0  0  0
  139.7380   71.2300  222.6070 C   0  0  0  0  0  0  0  0  0  0  0  0
  139.7760   72.6520  222.7330 N   0  0  0  0  0  0  0  0  0  0  0  0
  139.7430   73.5050  221.5610 C   0  0  0  0  0  0  0  0  0  0  0  0
  140.9650   74.3420  221.4570 C   0  0  0  0  0  0  0  0  0  0  0  0
  141.0580   75.4970  221.9480 O   0  0  0  0  0  0  0  0  0  0  0  0
  142.0830   73.8040  220.7650 N   0  0  0  0  0  0  0  0  0  0  0  0
  142.9180   74.6800  220.0000 C   0  0  0  0  0  0  0  0  0  0  0  0
  144.3510   74.5080  220.4420 C   0  0  0  0  0  0  0  0  0  0  0  0
  144.7860   73.0740  220.4090 C   0  0  0  0  0  0  0  0  0  0  0  0
  143.6580   72.1440  220.0020 C   0  0  0  0  0  0  0  0  0  0  0  0
  144.1000   70.8620  220.3530 F   0  0  0  0  0  0  0  0  0  0  0  0
  143.4150   72.1690  218.6550 F   0  0  0  0  0  0  0  0  0  0  0  0
  142.4110   72.3990  220.8050 C   0  0  0  0  0  0  0  0  0  0  0  0
  139.7730   70.4090  223.8140 C   0  0  0  0  0  0  0  0  0  0  0  0
  139.2020   69.1530  223.8000 C   0  0  0  0  0  0  0  0  0  0  0  0
  139.2530   68.4000  224.9600 C   0  0  0  0  0  0  0  0  0  0  0  0
  139.8530   68.8680  226.1160 C   0  0  0  0  0  0  0  0  0  0  0  0
  139.9150   68.1390  227.2800 C   0  0  0  0  0  0  0  0  0  0  0  0
  140.5270   68.6430  228.4200 C   0  0  0  0  0  0  0  0  0  0  0  0
  141.0750   69.9100  228.3510 C   0  0  0  0  0  0  0  0  0  0  0  0
  141.0200   70.6610  227.1790 C   0  0  0  0  0  0  0  0  0  0  0  0
  140.4060   70.1320  226.0650 C   0  0  0  0  0  0  0  0  0  0  0  0
  140.3530   70.8580  224.9340 N   0  0  0  0  0  0  0  0  0  0  0  0
  139.8300   73.0430  223.7190 H   0  0  0  0  0  0  0  0  0  0  0  0
  139.6653   72.8744  220.6631 H   0  0  0  0  0  0  0  0  0  0  0  0
  138.8748   74.1747  221.6484 H   0  0  0  0  0  0  0  0  0  0  0  0
  142.8299   74.4329  218.9317 H   0  0  0  0  0  0  0  0  0  0  0  0
  142.6042   75.7224  220.1580 H   0  0  0  0  0  0  0  0  0  0  0  0
  145.0006   75.0906  219.7722 H   0  0  0  0  0  0  0  0  0  0  0  0
  144.4282   74.8602  221.4812 H   0  0  0  0  0  0  0  0  0  0  0  0
  145.6095   72.9698  219.6872 H   0  0  0  0  0  0  0  0  0  0  0  0
  145.1063   72.7940  221.4234 H   0  0  0  0  0  0  0  0  0  0  0  0
  141.5787   71.8174  220.3818 H   0  0  0  0  0  0  0  0  0  0  0  0
  142.5822   72.0954  221.8483 H   0  0  0  0  0  0  0  0  0  0  0  0
  138.7198   68.7612  222.8923 H   0  0  0  0  0  0  0  0  0  0  0  0
  138.8019   67.3967  224.9633 H   0  0  0  0  0  0  0  0  0  0  0  0
  139.4696   67.1336  227.3089 H   0  0  0  0  0  0  0  0  0  0  0  0
  140.5741   68.0533  229.3474 H   0  0  0  0  0  0  0  0  0  0  0  0
  141.5647   70.3341  229.2400 H   0  0  0  0  0  0  0  0  0  0  0  0
  141.4628   71.6673  227.1434 H   0  0  0  0  0  0  0  0  0  0  0  0
  1  2  2  0
  2  3  1  0
  3  4  1  0
  4  5  1  0
  5  6  2  0
  5  7  1  0
  7  8  1  0
  8  9  1  0
  9 10  1  0
 10 11  1  0
 11 12  1  0
 11 13  1  0
 11 14  1  0
  2 15  1  0
 15 16  2  0
 16 17  1  0
 17 18  2  0
 18 19  1  0
 19 20  2  0
 20 21  1  0
 21 22  2  0
 22 23  1  0
 23 24  2  0
 14  7  1  0
 24 15  1  0
 23 18  1  0
  3 25  1  0
  4 26  1  0
  4 27  1  0
  8 28  1  0
  8 29  1  0
  9 30  1  0
  9 31  1  0
 10 32  1  0
 10 33  1  0
 14 34  1  0
 14 35  1  0
 16 36  1  0
 17 37  1  0
 19 38  1  0
 20 39  1  0
 21 40  1  0
 22 41  1  0
M  END
>  <smiles>  (26) 
O=C(NCC(=O)N1CCCC(F)(F)C1)c1ccc2ccccc2n1

>  <score_type>  (26) 
oracle

>  <origin>  (26) 
autodockgpu

>  <m_score__min__energy>  (26) 
-7.3099999999999996

>  <m_primary>  (26) 
energy

>  <rmsd>  (26) 
3.164999130293952

>  <m_score__min__rmsd>  (26) 
3.164999130293952

>  <meeko>  (26) 
{"free_energy": -6.81, "intermolecular_energy": -8.0, "internal_energy": -1.14, "cluster_size": 17, "cluster_id": 1, "rank_in_cluster": 13}

>  <energy>  (26) 
-7.03

>  <cluster_rmsd>  (26) 
1.54

>  <cluster>  (26) 
2

$$$$

     RDKit          3D

 41 43  0  0  0  0  0  0  0  0999 V2000
  140.7650   71.6280  221.2790 O   0  0  0  0  0  0  0  0  0  0  0  0
  140.3320   72.1400  222.3360 C   0  0  0  0  0  0  0  0  0  0  0  0
  139.9390   73.5130  222.3030 N   0  0  0  0  0  0  0  0  0  0  0  0
  140.0400   74.2870  221.0810 C   0  0  0  0  0  0  0  0  0  0  0  0
  141.2710   75.1180  221.0600 C   0  0  0  0  0  0  0  0  0  0  0  0
  142.4260   74.6430  220.9120 O   0  0  0  0  0  0  0  0  0  0  0  0
  141.1280   76.5230  221.2150 N   0  0  0  0  0  0  0  0  0  0  0  0
  140.4220   77.0310  222.3530 C   0  0  0  0  0  0  0  0  0  0  0  0
  141.2970   78.0290  223.0710 C   0  0  0  0  0  0  0  0  0  0  0  0
  141.8130   79.0960  222.1520 C   0  0  0  0  0  0  0  0  0  0  0  0
  141.3790   78.8690  220.7150 C   0  0  0  0  0  0  0  0  0  0  0  0
  142.2030   79.7080  219.9520 F   0  0  0  0  0  0  0  0  0  0  0  0
  140.0750   79.2210  220.4970 F   0  0  0  0  0  0  0  0  0  0  0  0
  141.6700   77.4640  220.2630 C   0  0  0  0  0  0  0  0  0  0  0  0
  140.2140   71.3970  223.5870 C   0  0  0  0  0  0  0  0  0  0  0  0
  139.5970   70.1620  223.5900 C   0  0  0  0  0  0  0  0  0  0  0  0
  139.5020   69.4840  224.7910 C   0  0  0  0  0  0  0  0  0  0  0  0
  140.0000   70.0030  225.9730 C   0  0  0  0  0  0  0  0  0  0  0  0
  139.9170   69.3490  227.1790 C   0  0  0  0  0  0  0  0  0  0  0  0
  140.4300   69.9050  228.3440 C   0  0  0  0  0  0  0  0  0  0  0  0
  141.0310   71.1460  228.2550 C   0  0  0  0  0  0  0  0  0  0  0  0
  141.1240   71.8220  227.0410 C   0  0  0  0  0  0  0  0  0  0  0  0
  140.6050   71.2430  225.9030 C   0  0  0  0  0  0  0  0  0  0  0  0
  140.6940   71.8970  224.7310 N   0  0  0  0  0  0  0  0  0  0  0  0
  139.5740   73.9260  223.2100 H   0  0  0  0  0  0  0  0  0  0  0  0
  140.0593   73.5988  220.2231 H   0  0  0  0  0  0  0  0  0  0  0  0
  139.1706   74.9587  221.0264 H   0  0  0  0  0  0  0  0  0  0  0  0
  139.4959   77.5238  222.0222 H   0  0  0  0  0  0  0  0  0  0  0  0
  140.1689   76.2035  223.0321 H   0  0  0  0  0  0  0  0  0  0  0  0
  140.7096   78.5041  223.8706 H   0  0  0  0  0  0  0  0  0  0  0  0
  142.1632   77.4867  223.4780 H   0  0  0  0  0  0  0  0  0  0  0  0
  141.4296   80.0705  222.4888 H   0  0  0  0  0  0  0  0  0  0  0  0
  142.9122   79.0680  222.1829 H   0  0  0  0  0  0  0  0  0  0  0  0
  141.2095   77.2941  219.2786 H   0  0  0  0  0  0  0  0  0  0  0  0
  142.7586   77.3230  220.1916 H   0  0  0  0  0  0  0  0  0  0  0  0
  139.1924   69.7297  222.6630 H   0  0  0  0  0  0  0  0  0  0  0  0
  139.0139   68.4984  224.8075 H   0  0  0  0  0  0  0  0  0  0  0  0
  139.4330   68.3622  227.2227 H   0  0  0  0  0  0  0  0  0  0  0  0
  140.3601   69.3750  229.3054 H   0  0  0  0  0  0  0  0  0  0  0  0
  141.4449   71.6099  229.1625 H   0  0  0  0  0  0  0  0  0  0  0  0
  141.6072   72.8089  226.9908 H   0  0  0  0  0  0  0  0  0  0  0  0
  1  2  2  0
  2  3  1  0
  3  4  1  0
  4  5  1  0
  5  6  2  0
  5  7  1  0
  7  8  1  0
  8  9  1  0
  9 10  1  0
 10 11  1  0
 11 12  1  0
 11 13  1  0
 11 14  1  0
  2 15  1  0
 15 16  2  0
 16 17  1  0
 17 18  2  0
 18 19  1  0
 19 20  2  0
 20 21  1  0
 21 22  2  0
 22 23  1  0
 23 24  2  0
 14  7  1  0
 24 15  1  0
 23 18  1  0
  3 25  1  0
  4 26  1  0
  4 27  1  0
  8 28  1  0
  8 29  1  0
  9 30  1  0
  9 31  1  0
 10 32  1  0
 10 33  1  0
 14 34  1  0
 14 35  1  0
 16 36  1  0
 17 37  1  0
 19 38  1  0
 20 39  1  0
 21 40  1  0
 22 41  1  0
M  END
>  <smiles>  (27) 
O=C(NCC(=O)N1CCCC(F)(F)C1)c1ccc2ccccc2n1

>  <score_type>  (27) 
oracle

>  <origin>  (27) 
autodockgpu

>  <m_score__min__energy>  (27) 
-7.3099999999999996

>  <m_primary>  (27) 
energy

>  <rmsd>  (27) 
2.8186796820179296

>  <m_score__min__rmsd>  (27) 
2.8186796820179296

>  <meeko>  (27) 
{"free_energy": -7.18, "intermolecular_energy": -8.38, "internal_energy": -0.87, "cluster_size": 11, "cluster_id": 2, "rank_in_cluster": 4}

>  <energy>  (27) 
-6.96

>  <cluster_rmsd>  (27) 
0.97

>  <cluster>  (27) 
2

$$$$

     RDKit          3D

 41 43  0  0  0  0  0  0  0  0999 V2000
  139.9500   73.5160  222.4540 O   0  0  0  0  0  0  0  0  0  0  0  0
  140.3730   72.3400  222.5290 C   0  0  0  0  0  0  0  0  0  0  0  0
  141.0620   71.8030  221.3990 N   0  0  0  0  0  0  0  0  0  0  0  0
  141.2630   72.5980  220.2020 C   0  0  0  0  0  0  0  0  0  0  0  0
  142.2300   73.7010  220.4330 C   0  0  0  0  0  0  0  0  0  0  0  0
  141.9040   74.8230  220.8990 O   0  0  0  0  0  0  0  0  0  0  0  0
  143.5930   73.4700  220.1050 N   0  0  0  0  0  0  0  0  0  0  0  0
  144.5620   74.4830  220.3950 C   0  0  0  0  0  0  0  0  0  0  0  0
  145.6760   73.8800  221.2170 C   0  0  0  0  0  0  0  0  0  0  0  0
  146.2530   72.6550  220.5760 C   0  0  0  0  0  0  0  0  0  0  0  0
  145.5320   72.2870  219.2930 C   0  0  0  0  0  0  0  0  0  0  0  0
  145.9330   70.9740  219.0160 F   0  0  0  0  0  0  0  0  0  0  0  0
  145.8900   73.0850  218.2400 F   0  0  0  0  0  0  0  0  0  0  0  0
  144.0410   72.2430  219.4880 C   0  0  0  0  0  0  0  0  0  0  0  0
  140.1940   71.5060  223.7130 C   0  0  0  0  0  0  0  0  0  0  0  0
  139.5050   70.3150  223.6090 C   0  0  0  0  0  0  0  0  0  0  0  0
  139.3520   69.5480  224.7490 C   0  0  0  0  0  0  0  0  0  0  0  0
  139.8640   69.9380  225.9750 C   0  0  0  0  0  0  0  0  0  0  0  0
  139.7250   69.1930  227.1220 C   0  0  0  0  0  0  0  0  0  0  0  0
  140.2540   69.6200  228.3330 C   0  0  0  0  0  0  0  0  0  0  0  0
  140.9300   70.8250  228.3520 C   0  0  0  0  0  0  0  0  0  0  0  0
  141.0800   71.5910  227.1980 C   0  0  0  0  0  0  0  0  0  0  0  0
  140.5430   71.1400  226.0120 C   0  0  0  0  0  0  0  0  0  0  0  0
  140.6880   71.8810  224.8990 N   0  0  0  0  0  0  0  0  0  0  0  0
  141.4130   70.8050  221.4840 H   0  0  0  0  0  0  0  0  0  0  0  0
  141.6477   71.9479  219.4024 H   0  0  0  0  0  0  0  0  0  0  0  0
  140.2973   73.0416  219.9180 H   0  0  0  0  0  0  0  0  0  0  0  0
  144.9717   74.8808  219.4549 H   0  0  0  0  0  0  0  0  0  0  0  0
  144.0869   75.3003  220.9575 H   0  0  0  0  0  0  0  0  0  0  0  0
  146.4742   74.6277  221.3345 H   0  0  0  0  0  0  0  0  0  0  0  0
  145.2564   73.5860  222.1904 H   0  0  0  0  0  0  0  0  0  0  0  0
  147.3126   72.8408  220.3463 H   0  0  0  0  0  0  0  0  0  0  0  0
  146.1374   71.8183  221.2807 H   0  0  0  0  0  0  0  0  0  0  0  0
  143.5482   72.1237  218.5119 H   0  0  0  0  0  0  0  0  0  0  0  0
  143.7841   71.3939  220.1384 H   0  0  0  0  0  0  0  0  0  0  0  0
  139.0890   69.9850  222.6457 H   0  0  0  0  0  0  0  0  0  0  0  0
  138.8052   68.5960  224.6798 H   0  0  0  0  0  0  0  0  0  0  0  0
  139.1825   68.2370  227.0796 H   0  0  0  0  0  0  0  0  0  0  0  0
  140.1387   69.0188  229.2469 H   0  0  0  0  0  0  0  0  0  0  0  0
  141.3587   71.1870  229.2981 H   0  0  0  0  0  0  0  0  0  0  0  0
  141.6223   72.5474  227.2334 H   0  0  0  0  0  0  0  0  0  0  0  0
  1  2  2  0
  2  3  1  0
  3  4  1  0
  4  5  1  0
  5  6  2  0
  5  7  1  0
  7  8  1  0
  8  9  1  0
  9 10  1  0
 10 11  1  0
 11 12  1  0
 11 13  1  0
 11 14  1  0
  2 15  1  0
 15 16  2  0
 16 17  1  0
 17 18  2  0
 18 19  1  0
 19 20  2  0
 20 21  1  0
 21 22  2  0
 22 23  1  0
 23 24  2  0
 14  7  1  0
 24 15  1  0
 23 18  1  0
  3 25  1  0
  4 26  1  0
  4 27  1  0
  8 28  1  0
  8 29  1  0
  9 30  1  0
  9 31  1  0
 10 32  1  0
 10 33  1  0
 14 34  1  0
 14 35  1  0
 16 36  1  0
 17 37  1  0
 19 38  1  0
 20 39  1  0
 21 40  1  0
 22 41  1  0
M  END
>  <smiles>  (28) 
O=C(NCC(=O)N1CCCC(F)(F)C1)c1ccc2ccccc2n1

>  <score_type>  (28) 
oracle

>  <origin>  (28) 
autodockgpu

>  <m_score__min__energy>  (28) 
-7.3099999999999996

>  <m_primary>  (28) 
energy

>  <rmsd>  (28) 
4.20289032631542

>  <m_score__min__rmsd>  (28) 
4.20289032631542

>  <meeko>  (28) 
{"free_energy": -7.28, "intermolecular_energy": -8.47, "internal_energy": -0.76, "cluster_size": 17, "cluster_id": 1, "rank_in_cluster": 8}

>  <energy>  (28) 
-6.77

>  <cluster_rmsd>  (28) 
1.54

>  <cluster>  (28) 
2

$$$$

     RDKit          3D

 41 43  0  0  0  0  0  0  0  0999 V2000
  141.4670   71.7320  221.2480 O   0  0  0  0  0  0  0  0  0  0  0  0
  140.7880   72.6410  221.7770 C   0  0  0  0  0  0  0  0  0  0  0  0
  139.7420   72.2610  222.6730 N   0  0  0  0  0  0  0  0  0  0  0  0
  139.4770   70.8640  222.9590 C   0  0  0  0  0  0  0  0  0  0  0  0
  138.8340   70.6890  224.2860 C   0  0  0  0  0  0  0  0  0  0  0  0
  137.5910   70.7560  224.4690 O   0  0  0  0  0  0  0  0  0  0  0  0
  139.6740   70.4330  225.4040 N   0  0  0  0  0  0  0  0  0  0  0  0
  140.9470   71.0840  225.4820 C   0  0  0  0  0  0  0  0  0  0  0  0
  141.0540   71.7980  226.8080 C   0  0  0  0  0  0  0  0  0  0  0  0
  140.7640   70.8920  227.9660 C   0  0  0  0  0  0  0  0  0  0  0  0
  140.3700   69.4980  227.5140 C   0  0  0  0  0  0  0  0  0  0  0  0
  139.8030   68.8980  228.6470 F   0  0  0  0  0  0  0  0  0  0  0  0
  141.4440   68.7500  227.1150 F   0  0  0  0  0  0  0  0  0  0  0  0
  139.2890   69.5380  226.4690 C   0  0  0  0  0  0  0  0  0  0  0  0
  141.0200   74.0580  221.5170 C   0  0  0  0  0  0  0  0  0  0  0  0
  141.9720   74.4340  220.5910 C   0  0  0  0  0  0  0  0  0  0  0  0
  142.1670   75.7850  220.3680 C   0  0  0  0  0  0  0  0  0  0  0  0
  141.4440   76.7550  221.0390 C   0  0  0  0  0  0  0  0  0  0  0  0
  141.6200   78.1040  220.8340 C   0  0  0  0  0  0  0  0  0  0  0  0
  140.8740   79.0470  221.5280 C   0  0  0  0  0  0  0  0  0  0  0  0
  139.9410   78.5870  222.4380 C   0  0  0  0  0  0  0  0  0  0  0  0
  139.7490   77.2250  222.6560 C   0  0  0  0  0  0  0  0  0  0  0  0
  140.5060   76.3150  221.9520 C   0  0  0  0  0  0  0  0  0  0  0  0
  140.3220   74.9990  222.1640 N   0  0  0  0  0  0  0  0  0  0  0  0
  139.1790   73.0470  223.1100 H   0  0  0  0  0  0  0  0  0  0  0  0
  138.8092   70.4614  222.1831 H   0  0  0  0  0  0  0  0  0  0  0  0
  140.4371   70.3272  222.9690 H   0  0  0  0  0  0  0  0  0  0  0  0
  141.7493   70.3359  225.4002 H   0  0  0  0  0  0  0  0  0  0  0  0
  141.0443   71.8092  224.6607 H   0  0  0  0  0  0  0  0  0  0  0  0
  142.0746   72.1939  226.9154 H   0  0  0  0  0  0  0  0  0  0  0  0
  140.3072   72.6056  226.8169 H   0  0  0  0  0  0  0  0  0  0  0  0
  141.6639   70.8202  228.5945 H   0  0  0  0  0  0  0  0  0  0  0  0
  139.9192   71.3182  228.5269 H   0  0  0  0  0  0  0  0  0  0  0  0
  139.1377   68.5278  226.0608 H   0  0  0  0  0  0  0  0  0  0  0  0
  138.3545   69.8961  226.9255 H   0  0  0  0  0  0  0  0  0  0  0  0
  142.5591   73.6804  220.0457 H   0  0  0  0  0  0  0  0  0  0  0  0
  142.9223   76.0987  219.6324 H   0  0  0  0  0  0  0  0  0  0  0  0
  142.3691   78.4432  220.1034 H   0  0  0  0  0  0  0  0  0  0  0  0
  141.0206   80.1241  221.3593 H   0  0  0  0  0  0  0  0  0  0  0  0
  139.3369   79.3126  223.0024 H   0  0  0  0  0  0  0  0  0  0  0  0
  138.9999   76.8793  223.3835 H   0  0  0  0  0  0  0  0  0  0  0  0
  1  2  2  0
  2  3  1  0
  3  4  1  0
  4  5  1  0
  5  6  2  0
  5  7  1  0
  7  8  1  0
  8  9  1  0
  9 10  1  0
 10 11  1  0
 11 12  1  0
 11 13  1  0
 11 14  1  0
  2 15  1  0
 15 16  2  0
 16 17  1  0
 17 18  2  0
 18 19  1  0
 19 20  2  0
 20 21  1  0
 21 22  2  0
 22 23  1  0
 23 24  2  0
 14  7  1  0
 24 15  1  0
 23 18  1  0
  3 25  1  0
  4 26  1  0
  4 27  1  0
  8 28  1  0
  8 29  1  0
  9 30  1  0
  9 31  1  0
 10 32  1  0
 10 33  1  0
 14 34  1  0
 14 35  1  0
 16 36  1  0
 17 37  1  0
 19 38  1  0
 20 39  1  0
 21 40  1  0
 22 41  1  0
M  END
>  <smiles>  (29) 
O=C(NCC(=O)N1CCCC(F)(F)C1)c1ccc2ccccc2n1

>  <score_type>  (29) 
oracle

>  <origin>  (29) 
autodockgpu

>  <m_score__min__energy>  (29) 
-7.3099999999999996

>  <m_primary>  (29) 
energy

>  <rmsd>  (29) 
8.3334654928337

>  <m_score__min__rmsd>  (29) 
8.3334654928337

>  <meeko>  (29) 
{"free_energy": -6.82, "intermolecular_energy": -8.01, "internal_energy": -1.17, "cluster_size": 20, "cluster_id": 3, "rank_in_cluster": 12}

>  <energy>  (29) 
-6.87

>  <cluster_rmsd>  (29) 
0.0

>  <cluster>  (29) 
3

$$$$

     RDKit          3D

 41 43  0  0  0  0  0  0  0  0999 V2000
  139.9080   73.5600  222.5940 O   0  0  0  0  0  0  0  0  0  0  0  0
  140.3320   72.3830  222.5940 C   0  0  0  0  0  0  0  0  0  0  0  0
  140.9620   71.8970  221.4080 N   0  0  0  0  0  0  0  0  0  0  0  0
  141.1050   72.7460  220.2400 C   0  0  0  0  0  0  0  0  0  0  0  0
  142.1380   73.7940  220.4480 C   0  0  0  0  0  0  0  0  0  0  0  0
  141.8880   74.9270  220.9330 O   0  0  0  0  0  0  0  0  0  0  0  0
  143.4750   73.4920  220.0740 N   0  0  0  0  0  0  0  0  0  0  0  0
  144.4480   74.5420  220.0550 C   0  0  0  0  0  0  0  0  0  0  0  0
  145.6310   74.1360  220.9010 C   0  0  0  0  0  0  0  0  0  0  0  0
  146.1760   72.7970  220.5050 C   0  0  0  0  0  0  0  0  0  0  0  0
  145.3640   72.1540  219.3960 C   0  0  0  0  0  0  0  0  0  0  0  0
  145.7630   70.8110  219.3870 F   0  0  0  0  0  0  0  0  0  0  0  0
  145.6270   72.6970  218.1680 F   0  0  0  0  0  0  0  0  0  0  0  0
  143.8930   72.1580  219.7120 C   0  0  0  0  0  0  0  0  0  0  0  0
  140.2080   71.4950  223.7460 C   0  0  0  0  0  0  0  0  0  0  0  0
  139.5680   70.2800  223.6040 C   0  0  0  0  0  0  0  0  0  0  0  0
  139.4690   69.4620  224.7150 C   0  0  0  0  0  0  0  0  0  0  0  0
  139.9850   69.8250  225.9470 C   0  0  0  0  0  0  0  0  0  0  0  0
  139.8980   69.0300  227.0650 C   0  0  0  0  0  0  0  0  0  0  0  0
  140.4300   69.4300  228.2840 C   0  0  0  0  0  0  0  0  0  0  0  0
  141.0550   70.6610  228.3410 C   0  0  0  0  0  0  0  0  0  0  0  0
  141.1520   71.4790  227.2170 C   0  0  0  0  0  0  0  0  0  0  0  0
  140.6140   71.0530  226.0230 C   0  0  0  0  0  0  0  0  0  0  0  0
  140.7070   71.8430  224.9380 N   0  0  0  0  0  0  0  0  0  0  0  0
  141.3140   70.8960  221.4290 H   0  0  0  0  0  0  0  0  0  0  0  0
  141.3954   72.1243  219.3803 H   0  0  0  0  0  0  0  0  0  0  0  0
  140.1416   73.2444  220.0571 H   0  0  0  0  0  0  0  0  0  0  0  0
  144.7784   74.7191  219.0208 H   0  0  0  0  0  0  0  0  0  0  0  0
  144.0046   75.4649  220.4571 H   0  0  0  0  0  0  0  0  0  0  0  0
  146.4241   74.8895  220.7862 H   0  0  0  0  0  0  0  0  0  0  0  0
  145.2924   74.0679  221.9454 H   0  0  0  0  0  0  0  0  0  0  0  0
  147.2119   72.9246  220.1576 H   0  0  0  0  0  0  0  0  0  0  0  0
  146.1276   72.1386  221.3849 H   0  0  0  0  0  0  0  0  0  0  0  0
  143.3286   71.8254  218.8284 H   0  0  0  0  0  0  0  0  0  0  0  0
  143.6999   71.4757  220.5529 H   0  0  0  0  0  0  0  0  0  0  0  0
  139.1488   69.9713  222.6350 H   0  0  0  0  0  0  0  0  0  0  0  0
  138.9631   68.4902  224.6161 H   0  0  0  0  0  0  0  0  0  0  0  0
  139.3953   68.0543  226.9925 H   0  0  0  0  0  0  0  0  0  0  0  0
  140.3562   68.7882  229.1743 H   0  0  0  0  0  0  0  0  0  0  0  0
  141.4852   71.0026  229.2940 H   0  0  0  0  0  0  0  0  0  0  0  0
  141.6536   72.4558  227.2828 H   0  0  0  0  0  0  0  0  0  0  0  0
  1  2  2  0
  2  3  1  0
  3  4  1  0
  4  5  1  0
  5  6  2  0
  5  7  1  0
  7  8  1  0
  8  9  1  0
  9 10  1  0
 10 11  1  0
 11 12  1  0
 11 13  1  0
 11 14  1  0
  2 15  1  0
 15 16  2  0
 16 17  1  0
 17 18  2  0
 18 19  1  0
 19 20  2  0
 20 21  1  0
 21 22  2  0
 22 23  1  0
 23 24  2  0
 14  7  1  0
 24 15  1  0
 23 18  1  0
  3 25  1  0
  4 26  1  0
  4 27  1  0
  8 28  1  0
  8 29  1  0
  9 30  1  0
  9 31  1  0
 10 32  1  0
 10 33  1  0
 14 34  1  0
 14 35  1  0
 16 36  1  0
 17 37  1  0
 19 38  1  0
 20 39  1  0
 21 40  1  0
 22 41  1  0
M  END
>  <smiles>  (30) 
O=C(NCC(=O)N1CCCC(F)(F)C1)c1ccc2ccccc2n1

>  <score_type>  (30) 
oracle

>  <origin>  (30) 
autodockgpu

>  <m_score__min__energy>  (30) 
-7.3099999999999996

>  <m_primary>  (30) 
energy

>  <rmsd>  (30) 
4.084890828839016

>  <m_score__min__rmsd>  (30) 
4.084890828839016

>  <meeko>  (30) 
{"free_energy": -7.29, "intermolecular_energy": -8.48, "internal_energy": -0.77, "cluster_size": 17, "cluster_id": 1, "rank_in_cluster": 7}

>  <energy>  (30) 
-6.87

>  <cluster_rmsd>  (30) 
0.04

>  <cluster>  (30) 
3

$$$$

     RDKit          3D

 41 43  0  0  0  0  0  0  0  0999 V2000
  141.5520   72.0820  220.9040 O   0  0  0  0  0  0  0  0  0  0  0  0
  140.9730   72.9840  221.5520 C   0  0  0  0  0  0  0  0  0  0  0  0
  140.0560   72.5910  222.5740 N   0  0  0  0  0  0  0  0  0  0  0  0
  139.8050   71.1900  222.8510 C   0  0  0  0  0  0  0  0  0  0  0  0
  139.0670   71.0070  224.1270 C   0  0  0  0  0  0  0  0  0  0  0  0
  137.8230   71.1620  224.2370 O   0  0  0  0  0  0  0  0  0  0  0  0
  139.8120   70.6390  225.2800 N   0  0  0  0  0  0  0  0  0  0  0  0
  141.0660   71.2800  225.5330 C   0  0  0  0  0  0  0  0  0  0  0  0
  141.0540   71.8530  226.9300 C   0  0  0  0  0  0  0  0  0  0  0  0
  140.6770   70.8310  227.9590 C   0  0  0  0  0  0  0  0  0  0  0  0
  140.3380   69.4910  227.3340 C   0  0  0  0  0  0  0  0  0  0  0  0
  139.6840   68.7750  228.3460 F   0  0  0  0  0  0  0  0  0  0  0  0
  141.4500   68.7900  226.9530 F   0  0  0  0  0  0  0  0  0  0  0  0
  139.3490   69.6370  226.2100 C   0  0  0  0  0  0  0  0  0  0  0  0
  141.1960   74.4050  221.3050 C   0  0  0  0  0  0  0  0  0  0  0  0
  142.0430   74.7950  220.2880 C   0  0  0  0  0  0  0  0  0  0  0  0
  142.2320   76.1500  220.0810 C   0  0  0  0  0  0  0  0  0  0  0  0
  141.6040   77.1090  220.8550 C   0  0  0  0  0  0  0  0  0  0  0  0
  141.7770   78.4610  220.6690 C   0  0  0  0  0  0  0  0  0  0  0  0
  141.1280   79.3920  221.4680 C   0  0  0  0  0  0  0  0  0  0  0  0
  140.2970   78.9180  222.4650 C   0  0  0  0  0  0  0  0  0  0  0  0
  140.1110   77.5530  222.6670 C   0  0  0  0  0  0  0  0  0  0  0  0
  140.7690   76.6540  221.8570 C   0  0  0  0  0  0  0  0  0  0  0  0
  140.5900   75.3350  222.0530 N   0  0  0  0  0  0  0  0  0  0  0  0
  139.5760   73.3710  223.1100 H   0  0  0  0  0  0  0  0  0  0  0  0
  139.2086   70.7654  222.0300 H   0  0  0  0  0  0  0  0  0  0  0  0
  140.7747   70.6782  222.9387 H   0  0  0  0  0  0  0  0  0  0  0  0
  141.8800   70.5457  225.4429 H   0  0  0  0  0  0  0  0  0  0  0  0
  141.2242   72.0870  224.8024 H   0  0  0  0  0  0  0  0  0  0  0  0
  142.0579   72.2371  227.1637 H   0  0  0  0  0  0  0  0  0  0  0  0
  140.3012   72.6545  226.9592 H   0  0  0  0  0  0  0  0  0  0  0  0
  141.5213   70.6962  228.6512 H   0  0  0  0  0  0  0  0  0  0  0  0
  139.7830   71.1949  228.4865 H   0  0  0  0  0  0  0  0  0  0  0  0
  139.2444   68.6744  225.6880 H   0  0  0  0  0  0  0  0  0  0  0  0
  138.3753   69.9434  226.6198 H   0  0  0  0  0  0  0  0  0  0  0  0
  142.5534   74.0501  219.6598 H   0  0  0  0  0  0  0  0  0  0  0  0
  142.9044   76.4755  219.2736 H   0  0  0  0  0  0  0  0  0  0  0  0
  142.4450   78.8123  219.8687 H   0  0  0  0  0  0  0  0  0  0  0  0
  141.2705   80.4716  221.3127 H   0  0  0  0  0  0  0  0  0  0  0  0
  139.7710   79.6345  223.1131 H   0  0  0  0  0  0  0  0  0  0  0  0
  139.4447   77.1958  223.4661 H   0  0  0  0  0  0  0  0  0  0  0  0
  1  2  2  0
  2  3  1  0
  3  4  1  0
  4  5  1  0
  5  6  2  0
  5  7  1  0
  7  8  1  0
  8  9  1  0
  9 10  1  0
 10 11  1  0
 11 12  1  0
 11 13  1  0
 11 14  1  0
  2 15  1  0
 15 16  2  0
 16 17  1  0
 17 18  2  0
 18 19  1  0
 19 20  2  0
 20 21  1  0
 21 22  2  0
 22 23  1  0
 23 24  2  0
 14  7  1  0
 24 15  1  0
 23 18  1  0
  3 25  1  0
  4 26  1  0
  4 27  1  0
  8 28  1  0
  8 29  1  0
  9 30  1  0
  9 31  1  0
 10 32  1  0
 10 33  1  0
 14 34  1  0
 14 35  1  0
 16 36  1  0
 17 37  1  0
 19 38  1  0
 20 39  1  0
 21 40  1  0
 22 41  1  0
M  END
>  <smiles>  (31) 
O=C(NCC(=O)N1CCCC(F)(F)C1)c1ccc2ccccc2n1

>  <score_type>  (31) 
oracle

>  <origin>  (31) 
autodockgpu

>  <m_score__min__energy>  (31) 
-7.3099999999999996

>  <m_primary>  (31) 
energy

>  <rmsd>  (31) 
8.459392390723776

>  <m_score__min__rmsd>  (31) 
8.459392390723776

>  <meeko>  (31) 
{"free_energy": -6.87, "intermolecular_energy": -8.06, "internal_energy": -1.13, "cluster_size": 20, "cluster_id": 3, "rank_in_cluster": 3}

>  <energy>  (31) 
-6.87

>  <cluster_rmsd>  (31) 
0.04

>  <cluster>  (31) 
3

$$$$

     RDKit          3D

 41 43  0  0  0  0  0  0  0  0999 V2000
  139.9550   73.5940  222.5910 O   0  0  0  0  0  0  0  0  0  0  0  0
  140.3320   72.4010  222.5800 C   0  0  0  0  0  0  0  0  0  0  0  0
  140.9140   71.8930  221.3790 N   0  0  0  0  0  0  0  0  0  0  0  0
  141.0620   72.7360  220.2080 C   0  0  0  0  0  0  0  0  0  0  0  0
  142.0930   73.7860  220.4160 C   0  0  0  0  0  0  0  0  0  0  0  0
  141.8370   74.9270  220.8800 O   0  0  0  0  0  0  0  0  0  0  0  0
  143.4350   73.4770  220.0690 N   0  0  0  0  0  0  0  0  0  0  0  0
  144.4090   74.5250  220.0470 C   0  0  0  0  0  0  0  0  0  0  0  0
  145.5780   74.1310  220.9180 C   0  0  0  0  0  0  0  0  0  0  0  0
  146.1280   72.7860  220.5530 C   0  0  0  0  0  0  0  0  0  0  0  0
  145.3320   72.1260  219.4420 C   0  0  0  0  0  0  0  0  0  0  0  0
  145.7300   70.7820  219.4610 F   0  0  0  0  0  0  0  0  0  0  0  0
  145.6160   72.6470  218.2090 F   0  0  0  0  0  0  0  0  0  0  0  0
  143.8570   72.1360  219.7350 C   0  0  0  0  0  0  0  0  0  0  0  0
  140.2020   71.5170  223.7350 C   0  0  0  0  0  0  0  0  0  0  0  0
  139.5890   70.2890  223.5870 C   0  0  0  0  0  0  0  0  0  0  0  0
  139.4830   69.4760  224.7010 C   0  0  0  0  0  0  0  0  0  0  0  0
  139.9660   69.8550  225.9410 C   0  0  0  0  0  0  0  0  0  0  0  0
  139.8720   69.0650  227.0620 C   0  0  0  0  0  0  0  0  0  0  0  0
  140.3700   69.4820  228.2880 C   0  0  0  0  0  0  0  0  0  0  0  0
  140.9690   70.7260  228.3510 C   0  0  0  0  0  0  0  0  0  0  0  0
  141.0740   71.5390  227.2250 C   0  0  0  0  0  0  0  0  0  0  0  0
  140.5690   71.0960  226.0220 C   0  0  0  0  0  0  0  0  0  0  0  0
  140.6690   71.8820  224.9350 N   0  0  0  0  0  0  0  0  0  0  0  0
  141.2270   70.8790  221.3920 H   0  0  0  0  0  0  0  0  0  0  0  0
  141.3573   72.1103  219.3528 H   0  0  0  0  0  0  0  0  0  0  0  0
  140.0990   73.2325  220.0178 H   0  0  0  0  0  0  0  0  0  0  0  0
  144.7555   74.6843  219.0152 H   0  0  0  0  0  0  0  0  0  0  0  0
  143.9611   75.4554  220.4262 H   0  0  0  0  0  0  0  0  0  0  0  0
  146.3737   74.8819  220.8039 H   0  0  0  0  0  0  0  0  0  0  0  0
  145.2222   74.0794  221.9576 H   0  0  0  0  0  0  0  0  0  0  0  0
  147.1692   72.9072  220.2195 H   0  0  0  0  0  0  0  0  0  0  0  0
  146.0662   72.1420  221.4426 H   0  0  0  0  0  0  0  0  0  0  0  0
  143.3059   71.7896  218.8483 H   0  0  0  0  0  0  0  0  0  0  0  0
  143.6500   71.4674  220.5836 H   0  0  0  0  0  0  0  0  0  0  0  0
  139.1962   69.9664  222.6115 H   0  0  0  0  0  0  0  0  0  0  0  0
  138.9979   68.4942  224.5976 H   0  0  0  0  0  0  0  0  0  0  0  0
  139.3906   68.0789  226.9852 H   0  0  0  0  0  0  0  0  0  0  0  0
  140.2907   68.8437  229.1803 H   0  0  0  0  0  0  0  0  0  0  0  0
  141.3714   71.0816  229.3110 H   0  0  0  0  0  0  0  0  0  0  0  0
  141.5556   72.5255  227.2955 H   0  0  0  0  0  0  0  0  0  0  0  0
  1  2  2  0
  2  3  1  0
  3  4  1  0
  4  5  1  0
  5  6  2  0
  5  7  1  0
  7  8  1  0
  8  9  1  0
  9 10  1  0
 10 11  1  0
 11 12  1  0
 11 13  1  0
 11 14  1  0
  2 15  1  0
 15 16  2  0
 16 17  1  0
 17 18  2  0
 18 19  1  0
 19 20  2  0
 20 21  1  0
 21 22  2  0
 22 23  1  0
 23 24  2  0
 14  7  1  0
 24 15  1  0
 23 18  1  0
  3 25  1  0
  4 26  1  0
  4 27  1  0
  8 28  1  0
  8 29  1  0
  9 30  1  0
  9 31  1  0
 10 32  1  0
 10 33  1  0
 14 34  1  0
 14 35  1  0
 16 36  1  0
 17 37  1  0
 19 38  1  0
 20 39  1  0
 21 40  1  0
 22 41  1  0
M  END
>  <smiles>  (32) 
O=C(NCC(=O)N1CCCC(F)(F)C1)c1ccc2ccccc2n1

>  <score_type>  (32) 
oracle

>  <origin>  (32) 
autodockgpu

>  <m_score__min__energy>  (32) 
-7.3099999999999996

>  <m_primary>  (32) 
energy

>  <rmsd>  (32) 
4.0721141707485

>  <m_score__min__rmsd>  (32) 
4.0721141707485

>  <meeko>  (32) 
{"free_energy": -7.3, "intermolecular_energy": -8.49, "internal_energy": -0.77, "cluster_size": 17, "cluster_id": 1, "rank_in_cluster": 6}

>  <energy>  (32) 
-6.87

>  <cluster_rmsd>  (32) 
0.05

>  <cluster>  (32) 
3

$$$$

     RDKit          3D

 41 43  0  0  0  0  0  0  0  0999 V2000
  141.0880   73.0240  222.2520 O   0  0  0  0  0  0  0  0  0  0  0  0
  140.0150   72.6470  222.7740 C   0  0  0  0  0  0  0  0  0  0  0  0
  138.8040   73.2710  222.3440 N   0  0  0  0  0  0  0  0  0  0  0  0
  138.8210   74.3110  221.3330 C   0  0  0  0  0  0  0  0  0  0  0  0
  138.5960   75.6550  221.9250 C   0  0  0  0  0  0  0  0  0  0  0  0
  137.4670   76.0680  222.2970 O   0  0  0  0  0  0  0  0  0  0  0  0
  139.7190   76.5120  222.0740 N   0  0  0  0  0  0  0  0  0  0  0  0
  140.9980   76.0750  221.6040 C   0  0  0  0  0  0  0  0  0  0  0  0
  141.5630   77.1170  220.6690 C   0  0  0  0  0  0  0  0  0  0  0  0
  141.5790   78.4820  221.2860 C   0  0  0  0  0  0  0  0  0  0  0  0
  140.9630   78.4900  222.6720 C   0  0  0  0  0  0  0  0  0  0  0  0
  140.7310   79.8420  222.9590 F   0  0  0  0  0  0  0  0  0  0  0  0
  141.8030   77.9790  223.6250 F   0  0  0  0  0  0  0  0  0  0  0  0
  139.6180   77.8170  222.6850 C   0  0  0  0  0  0  0  0  0  0  0  0
  139.9530   71.6050  223.7940 C   0  0  0  0  0  0  0  0  0  0  0  0
  139.3150   70.4140  223.5130 C   0  0  0  0  0  0  0  0  0  0  0  0
  139.2750   69.4460  224.5010 C   0  0  0  0  0  0  0  0  0  0  0  0
  139.8470   69.6400  225.7460 C   0  0  0  0  0  0  0  0  0  0  0  0
  139.8180   68.6940  226.7440 C   0  0  0  0  0  0  0  0  0  0  0  0
  140.4050   68.9260  227.9810 C   0  0  0  0  0  0  0  0  0  0  0  0
  141.0230   70.1460  228.1820 C   0  0  0  0  0  0  0  0  0  0  0  0
  141.0610   71.1140  227.1810 C   0  0  0  0  0  0  0  0  0  0  0  0
  140.4690   70.8530  225.9650 C   0  0  0  0  0  0  0  0  0  0  0  0
  140.5050   71.7890  224.9990 N   0  0  0  0  0  0  0  0  0  0  0  0
  137.9070   72.9360  222.8000 H   0  0  0  0  0  0  0  0  0  0  0  0
  139.7986   74.3024  220.8288 H   0  0  0  0  0  0  0  0  0  0  0  0
  138.0084   74.1096  220.6195 H   0  0  0  0  0  0  0  0  0  0  0  0
  141.6776   75.9392  222.4582 H   0  0  0  0  0  0  0  0  0  0  0  0
  140.8902   75.1186  221.0714 H   0  0  0  0  0  0  0  0  0  0  0  0
  142.5932   76.8353  220.4056 H   0  0  0  0  0  0  0  0  0  0  0  0
  140.9185   77.1565  219.7785 H   0  0  0  0  0  0  0  0  0  0  0  0
  142.6213   78.8257  221.3593 H   0  0  0  0  0  0  0  0  0  0  0  0
  140.9822   79.1492  220.6467 H   0  0  0  0  0  0  0  0  0  0  0  0
  139.2739   77.7083  223.7241 H   0  0  0  0  0  0  0  0  0  0  0  0
  138.8998   78.4287  222.1193 H   0  0  0  0  0  0  0  0  0  0  0  0
  138.8512   70.2391  222.5310 H   0  0  0  0  0  0  0  0  0  0  0  0
  138.7719   68.4908  224.2898 H   0  0  0  0  0  0  0  0  0  0  0  0
  139.3185   67.7318  226.5581 H   0  0  0  0  0  0  0  0  0  0  0  0
  140.3790   68.1644  228.7743 H   0  0  0  0  0  0  0  0  0  0  0  0
  141.4948   70.3570  229.1530 H   0  0  0  0  0  0  0  0  0  0  0  0
  141.5593   72.0782  227.3600 H   0  0  0  0  0  0  0  0  0  0  0  0
  1  2  2  0
  2  3  1  0
  3  4  1  0
  4  5  1  0
  5  6  2  0
  5  7  1  0
  7  8  1  0
  8  9  1  0
  9 10  1  0
 10 11  1  0
 11 12  1  0
 11 13  1  0
 11 14  1  0
  2 15  1  0
 15 16  2  0
 16 17  1  0
 17 18  2  0
 18 19  1  0
 19 20  2  0
 20 21  1  0
 21 22  2  0
 22 23  1  0
 23 24  2  0
 14  7  1  0
 24 15  1  0
 23 18  1  0
  3 25  1  0
  4 26  1  0
  4 27  1  0
  8 28  1  0
  8 29  1  0
  9 30  1  0
  9 31  1  0
 10 32  1  0
 10 33  1  0
 14 34  1  0
 14 35  1  0
 16 36  1  0
 17 37  1  0
 19 38  1  0
 20 39  1  0
 21 40  1  0
 22 41  1  0
M  END
>  <smiles>  (33) 
O=C(NCC(=O)N1CCCC(F)(F)C1)c1ccc2ccccc2n1

>  <score_type>  (33) 
oracle

>  <origin>  (33) 
autodockgpu

>  <m_score__min__energy>  (33) 
-7.3099999999999996

>  <m_primary>  (33) 
energy

>  <rmsd>  (33) 
2.4328164133608894

>  <m_score__min__rmsd>  (33) 
2.4328164133608894

>  <meeko>  (33) 
{"free_energy": -7.04, "intermolecular_energy": -8.24, "internal_energy": -0.84, "cluster_size": 11, "cluster_id": 2, "rank_in_cluster": 8}

>  <energy>  (33) 
-6.86

>  <cluster_rmsd>  (33) 
0.04

>  <cluster>  (33) 
3

$$$$

     RDKit          3D

 41 43  0  0  0  0  0  0  0  0999 V2000
  139.9870   73.6020  222.6230 O   0  0  0  0  0  0  0  0  0  0  0  0
  140.3320   72.4000  222.5710 C   0  0  0  0  0  0  0  0  0  0  0  0
  140.8470   71.9030  221.3350 N   0  0  0  0  0  0  0  0  0  0  0  0
  140.9650   72.7680  220.1770 C   0  0  0  0  0  0  0  0  0  0  0  0
  142.0130   73.8030  220.3710 C   0  0  0  0  0  0  0  0  0  0  0  0
  141.7760   74.9550  220.8160 O   0  0  0  0  0  0  0  0  0  0  0  0
  143.3520   73.4660  220.0320 N   0  0  0  0  0  0  0  0  0  0  0  0
  144.3360   74.5030  219.9620 C   0  0  0  0  0  0  0  0  0  0  0  0
  145.5040   74.1340  220.8440 C   0  0  0  0  0  0  0  0  0  0  0  0
  146.0390   72.7690  220.5350 C   0  0  0  0  0  0  0  0  0  0  0  0
  145.2320   72.0710  219.4560 C   0  0  0  0  0  0  0  0  0  0  0  0
  145.6160   70.7250  219.5300 F   0  0  0  0  0  0  0  0  0  0  0  0
  145.5160   72.5370  218.2010 F   0  0  0  0  0  0  0  0  0  0  0  0
  143.7580   72.1080  219.7540 C   0  0  0  0  0  0  0  0  0  0  0  0
  140.2290   71.4950  223.7120 C   0  0  0  0  0  0  0  0  0  0  0  0
  139.6730   70.2440  223.5410 C   0  0  0  0  0  0  0  0  0  0  0  0
  139.5910   69.4110  224.6430 C   0  0  0  0  0  0  0  0  0  0  0  0
  140.0450   69.7940  225.8930 C   0  0  0  0  0  0  0  0  0  0  0  0
  139.9730   68.9840  227.0020 C   0  0  0  0  0  0  0  0  0  0  0  0
  140.4410   69.4060  228.2390 C   0  0  0  0  0  0  0  0  0  0  0  0
  140.9830   70.6740  228.3250 C   0  0  0  0  0  0  0  0  0  0  0  0
  141.0630   71.5060  227.2120 C   0  0  0  0  0  0  0  0  0  0  0  0
  140.5910   71.0580  225.9970 C   0  0  0  0  0  0  0  0  0  0  0  0
  140.6670   71.8630  224.9220 N   0  0  0  0  0  0  0  0  0  0  0  0
  141.1330   70.8810  221.3130 H   0  0  0  0  0  0  0  0  0  0  0  0
  141.2250   72.1569  219.3001 H   0  0  0  0  0  0  0  0  0  0  0  0
  140.0016   73.2779  220.0293 H   0  0  0  0  0  0  0  0  0  0  0  0
  144.6797   74.6155  218.9231 H   0  0  0  0  0  0  0  0  0  0  0  0
  143.8989   75.4531  220.3031 H   0  0  0  0  0  0  0  0  0  0  0  0
  146.3069   74.8710  220.6950 H   0  0  0  0  0  0  0  0  0  0  0  0
  145.1516   74.1301  221.8860 H   0  0  0  0  0  0  0  0  0  0  0  0
  147.0801   72.8650  220.1932 H   0  0  0  0  0  0  0  0  0  0  0  0
  145.9743   72.1641  221.4515 H   0  0  0  0  0  0  0  0  0  0  0  0
  143.1996   71.7299  218.8850 H   0  0  0  0  0  0  0  0  0  0  0  0
  143.5474   71.4779  220.6307 H   0  0  0  0  0  0  0  0  0  0  0  0
  139.3054   69.9180  222.5568 H   0  0  0  0  0  0  0  0  0  0  0  0
  139.1501   68.4106  224.5213 H   0  0  0  0  0  0  0  0  0  0  0  0
  139.5349   67.9795  226.9068 H   0  0  0  0  0  0  0  0  0  0  0  0
  140.3822   68.7523  229.1217 H   0  0  0  0  0  0  0  0  0  0  0  0
  141.3594   71.0338  229.2940 H   0  0  0  0  0  0  0  0  0  0  0  0
  141.4990   72.5120  227.3013 H   0  0  0  0  0  0  0  0  0  0  0  0
  1  2  2  0
  2  3  1  0
  3  4  1  0
  4  5  1  0
  5  6  2  0
  5  7  1  0
  7  8  1  0
  8  9  1  0
  9 10  1  0
 10 11  1  0
 11 12  1  0
 11 13  1  0
 11 14  1  0
  2 15  1  0
 15 16  2  0
 16 17  1  0
 17 18  2  0
 18 19  1  0
 19 20  2  0
 20 21  1  0
 21 22  2  0
 22 23  1  0
 23 24  2  0
 14  7  1  0
 24 15  1  0
 23 18  1  0
  3 25  1  0
  4 26  1  0
  4 27  1  0
  8 28  1  0
  8 29  1  0
  9 30  1  0
  9 31  1  0
 10 32  1  0
 10 33  1  0
 14 34  1  0
 14 35  1  0
 16 36  1  0
 17 37  1  0
 19 38  1  0
 20 39  1  0
 21 40  1  0
 22 41  1  0
M  END
>  <smiles>  (34) 
O=C(NCC(=O)N1CCCC(F)(F)C1)c1ccc2ccccc2n1

>  <score_type>  (34) 
oracle

>  <origin>  (34) 
autodockgpu

>  <m_score__min__energy>  (34) 
-7.3099999999999996

>  <m_primary>  (34) 
energy

>  <rmsd>  (34) 
4.025320380454222

>  <m_score__min__rmsd>  (34) 
4.025320380454222

>  <meeko>  (34) 
{"free_energy": -7.23, "intermolecular_energy": -8.42, "internal_energy": -0.78, "cluster_size": 17, "cluster_id": 1, "rank_in_cluster": 10}

>  <energy>  (34) 
-6.86

>  <cluster_rmsd>  (34) 
0.03

>  <cluster>  (34) 
3

$$$$

     RDKit          3D

 41 43  0  0  0  0  0  0  0  0999 V2000
  141.5500   72.1040  220.9100 O   0  0  0  0  0  0  0  0  0  0  0  0
  140.9570   73.0010  221.5500 C   0  0  0  0  0  0  0  0  0  0  0  0
  140.0370   72.6030  222.5670 N   0  0  0  0  0  0  0  0  0  0  0  0
  139.7980   71.2000  222.8470 C   0  0  0  0  0  0  0  0  0  0  0  0
  139.0310   71.0150  224.1060 C   0  0  0  0  0  0  0  0  0  0  0  0
  137.8060   71.2760  224.2170 O   0  0  0  0  0  0  0  0  0  0  0  0
  139.7270   70.5170  225.2410 N   0  0  0  0  0  0  0  0  0  0  0  0
  140.8900   71.2100  225.7060 C   0  0  0  0  0  0  0  0  0  0  0  0
  140.7220   71.5270  227.1720 C   0  0  0  0  0  0  0  0  0  0  0  0
  140.3780   70.3120  227.9790 C   0  0  0  0  0  0  0  0  0  0  0  0
  140.2190   69.0770  227.1120 C   0  0  0  0  0  0  0  0  0  0  0  0
  139.5710   68.1410  227.9290 F   0  0  0  0  0  0  0  0  0  0  0  0
  141.4200   68.5530  226.7160 F   0  0  0  0  0  0  0  0  0  0  0  0
  139.3020   69.3310  225.9470 C   0  0  0  0  0  0  0  0  0  0  0  0
  141.1670   74.4240  221.3010 C   0  0  0  0  0  0  0  0  0  0  0  0
  141.9970   74.8200  220.2710 C   0  0  0  0  0  0  0  0  0  0  0  0
  142.1740   76.1750  220.0610 C   0  0  0  0  0  0  0  0  0  0  0  0
  141.5530   77.1310  220.8460 C   0  0  0  0  0  0  0  0  0  0  0  0
  141.7140   78.4830  220.6570 C   0  0  0  0  0  0  0  0  0  0  0  0
  141.0710   79.4110  221.4660 C   0  0  0  0  0  0  0  0  0  0  0  0
  140.2590   78.9310  222.4760 C   0  0  0  0  0  0  0  0  0  0  0  0
  140.0840   77.5650  222.6800 C   0  0  0  0  0  0  0  0  0  0  0  0
  140.7350   76.6700  221.8590 C   0  0  0  0  0  0  0  0  0  0  0  0
  140.5670   75.3500  222.0580 N   0  0  0  0  0  0  0  0  0  0  0  0
  139.5460   73.3800  223.0980 H   0  0  0  0  0  0  0  0  0  0  0  0
  139.2279   70.7622  222.0144 H   0  0  0  0  0  0  0  0  0  0  0  0
  140.7720   70.7020  222.9619 H   0  0  0  0  0  0  0  0  0  0  0  0
  141.7776   70.5757  225.5655 H   0  0  0  0  0  0  0  0  0  0  0  0
  141.0181   72.1428  225.1372 H   0  0  0  0  0  0  0  0  0  0  0  0
  141.6632   71.9502  227.5529 H   0  0  0  0  0  0  0  0  0  0  0  0
  139.8923   72.2426  227.2694 H   0  0  0  0  0  0  0  0  0  0  0  0
  141.1811   70.1320  228.7089 H   0  0  0  0  0  0  0  0  0  0  0  0
  139.4172   70.4995  228.4808 H   0  0  0  0  0  0  0  0  0  0  0  0
  139.3313   68.4691  225.2642 H   0  0  0  0  0  0  0  0  0  0  0  0
  138.2760   69.4757  226.3165 H   0  0  0  0  0  0  0  0  0  0  0  0
  142.5031   74.0784  219.6355 H   0  0  0  0  0  0  0  0  0  0  0  0
  142.8306   76.5045  219.2423 H   0  0  0  0  0  0  0  0  0  0  0  0
  142.3672   78.8382  219.8463 H   0  0  0  0  0  0  0  0  0  0  0  0
  141.2036   80.4915  221.3081 H   0  0  0  0  0  0  0  0  0  0  0  0
  139.7395   79.6439  223.1332 H   0  0  0  0  0  0  0  0  0  0  0  0
  139.4322   77.2035  223.4890 H   0  0  0  0  0  0  0  0  0  0  0  0
  1  2  2  0
  2  3  1  0
  3  4  1  0
  4  5  1  0
  5  6  2  0
  5  7  1  0
  7  8  1  0
  8  9  1  0
  9 10  1  0
 10 11  1  0
 11 12  1  0
 11 13  1  0
 11 14  1  0
  2 15  1  0
 15 16  2  0
 16 17  1  0
 17 18  2  0
 18 19  1  0
 19 20  2  0
 20 21  1  0
 21 22  2  0
 22 23  1  0
 23 24  2  0
 14  7  1  0
 24 15  1  0
 23 18  1  0
  3 25  1  0
  4 26  1  0
  4 27  1  0
  8 28  1  0
  8 29  1  0
  9 30  1  0
  9 31  1  0
 10 32  1  0
 10 33  1  0
 14 34  1  0
 14 35  1  0
 16 36  1  0
 17 37  1  0
 19 38  1  0
 20 39  1  0
 21 40  1  0
 22 41  1  0
M  END
>  <smiles>  (35) 
O=C(NCC(=O)N1CCCC(F)(F)C1)c1ccc2ccccc2n1

>  <score_type>  (35) 
oracle

>  <origin>  (35) 
autodockgpu

>  <m_score__min__energy>  (35) 
-7.3099999999999996

>  <m_primary>  (35) 
energy

>  <rmsd>  (35) 
8.547489423465839

>  <m_score__min__rmsd>  (35) 
8.547489423465839

>  <meeko>  (35) 
{"free_energy": -6.84, "intermolecular_energy": -8.03, "internal_energy": -1.13, "cluster_size": 20, "cluster_id": 3, "rank_in_cluster": 10}

>  <energy>  (35) 
-6.86

>  <cluster_rmsd>  (35) 
0.04

>  <cluster>  (35) 
3

$$$$

     RDKit          3D

 41 43  0  0  0  0  0  0  0  0999 V2000
  139.9200   69.9260  222.3610 O   0  0  0  0  0  0  0  0  0  0  0  0
  139.5800   71.0740  222.7240 C   0  0  0  0  0  0  0  0  0  0  0  0
  138.5590   71.1890  223.7170 N   0  0  0  0  0  0  0  0  0  0  0  0
  137.9370   70.0080  224.2840 C   0  0  0  0  0  0  0  0  0  0  0  0
  138.8930   69.2300  225.1140 C   0  0  0  0  0  0  0  0  0  0  0  0
  139.1960   68.0310  224.8840 O   0  0  0  0  0  0  0  0  0  0  0  0
  139.4920   69.8830  226.2250 N   0  0  0  0  0  0  0  0  0  0  0  0
  139.2110   69.4100  227.5470 C   0  0  0  0  0  0  0  0  0  0  0  0
  140.5130   69.1310  228.2590 C   0  0  0  0  0  0  0  0  0  0  0  0
  141.4420   70.3060  228.2210 C   0  0  0  0  0  0  0  0  0  0  0  0
  140.8700   71.4610  227.4200 C   0  0  0  0  0  0  0  0  0  0  0  0
  141.9580   72.3110  227.1820 F   0  0  0  0  0  0  0  0  0  0  0  0
  139.9140   72.1570  228.1090 F   0  0  0  0  0  0  0  0  0  0  0  0
  140.3790   71.0120  226.0710 C   0  0  0  0  0  0  0  0  0  0  0  0
  140.1790   72.2890  222.1790 C   0  0  0  0  0  0  0  0  0  0  0  0
  141.3060   72.1960  221.3880 C   0  0  0  0  0  0  0  0  0  0  0  0
  141.8490   73.3650  220.8860 C   0  0  0  0  0  0  0  0  0  0  0  0
  141.3010   74.6070  221.1540 C   0  0  0  0  0  0  0  0  0  0  0  0
  141.8230   75.7830  220.6690 C   0  0  0  0  0  0  0  0  0  0  0  0
  141.2420   77.0100  220.9600 C   0  0  0  0  0  0  0  0  0  0  0  0
  140.1160   77.0160  221.7610 C   0  0  0  0  0  0  0  0  0  0  0  0
  139.5750   75.8340  222.2610 C   0  0  0  0  0  0  0  0  0  0  0  0
  140.1740   74.6320  221.9530 C   0  0  0  0  0  0  0  0  0  0  0  0
  139.6510   73.4910  222.4370 N   0  0  0  0  0  0  0  0  0  0  0  0
  138.2860   72.1710  224.0100 H   0  0  0  0  0  0  0  0  0  0  0  0
  137.0892   70.3182  224.9125 H   0  0  0  0  0  0  0  0  0  0  0  0
  137.5994   69.3666  223.4566 H   0  0  0  0  0  0  0  0  0  0  0  0
  138.6456   70.1749  228.0995 H   0  0  0  0  0  0  0  0  0  0  0  0
  138.6139   68.4878  227.4916 H   0  0  0  0  0  0  0  0  0  0  0  0
  140.2968   68.8842  229.3089 H   0  0  0  0  0  0  0  0  0  0  0  0
  141.0066   68.2935  227.7443 H   0  0  0  0  0  0  0  0  0  0  0  0
  141.6264   70.6457  229.2509 H   0  0  0  0  0  0  0  0  0  0  0  0
  142.3742   69.9848  227.7334 H   0  0  0  0  0  0  0  0  0  0  0  0
  139.8383   71.8378  225.5856 H   0  0  0  0  0  0  0  0  0  0  0  0
  141.2385   70.7171  225.4510 H   0  0  0  0  0  0  0  0  0  0  0  0
  141.7598   71.2196  221.1630 H   0  0  0  0  0  0  0  0  0  0  0  0
  142.7464   73.3053  220.2526 H   0  0  0  0  0  0  0  0  0  0  0  0
  142.7218   75.7509  220.0357 H   0  0  0  0  0  0  0  0  0  0  0  0
  141.6641   77.9463  220.5660 H   0  0  0  0  0  0  0  0  0  0  0  0
  139.6368   77.9746  222.0090 H   0  0  0  0  0  0  0  0  0  0  0  0
  138.6773   75.8598  222.8962 H   0  0  0  0  0  0  0  0  0  0  0  0
  1  2  2  0
  2  3  1  0
  3  4  1  0
  4  5  1  0
  5  6  2  0
  5  7  1  0
  7  8  1  0
  8  9  1  0
  9 10  1  0
 10 11  1  0
 11 12  1  0
 11 13  1  0
 11 14  1  0
  2 15  1  0
 15 16  2  0
 16 17  1  0
 17 18  2  0
 18 19  1  0
 19 20  2  0
 20 21  1  0
 21 22  2  0
 22 23  1  0
 23 24  2  0
 14  7  1  0
 24 15  1  0
 23 18  1  0
  3 25  1  0
  4 26  1  0
  4 27  1  0
  8 28  1  0
  8 29  1  0
  9 30  1  0
  9 31  1  0
 10 32  1  0
 10 33  1  0
 14 34  1  0
 14 35  1  0
 16 36  1  0
 17 37  1  0
 19 38  1  0
 20 39  1  0
 21 40  1  0
 22 41  1  0
M  END
>  <smiles>  (36) 
O=C(NCC(=O)N1CCCC(F)(F)C1)c1ccc2ccccc2n1

>  <score_type>  (36) 
oracle

>  <origin>  (36) 
autodockgpu

>  <m_score__min__energy>  (36) 
-7.3099999999999996

>  <m_primary>  (36) 
energy

>  <rmsd>  (36) 
8.267481895218934

>  <m_score__min__rmsd>  (36) 
8.267481895218934

>  <meeko>  (36) 
{"free_energy": -6.66, "intermolecular_energy": -7.85, "internal_energy": -1.23, "cluster_size": 20, "cluster_id": 3, "rank_in_cluster": 17}

>  <energy>  (36) 
-6.84

>  <cluster_rmsd>  (36) 
0.27

>  <cluster>  (36) 
3

$$$$

     RDKit          3D

 41 43  0  0  0  0  0  0  0  0999 V2000
  139.9420   73.5630  222.5740 O   0  0  0  0  0  0  0  0  0  0  0  0
  140.3350   72.3750  222.5690 C   0  0  0  0  0  0  0  0  0  0  0  0
  140.9370   71.8730  221.3750 N   0  0  0  0  0  0  0  0  0  0  0  0
  141.0880   72.7170  220.2060 C   0  0  0  0  0  0  0  0  0  0  0  0
  142.1160   73.7690  220.4180 C   0  0  0  0  0  0  0  0  0  0  0  0
  141.8570   74.9060  220.8900 O   0  0  0  0  0  0  0  0  0  0  0  0
  143.4590   73.4670  220.0660 N   0  0  0  0  0  0  0  0  0  0  0  0
  144.4310   74.5170  220.0600 C   0  0  0  0  0  0  0  0  0  0  0  0
  145.6010   74.1120  220.9250 C   0  0  0  0  0  0  0  0  0  0  0  0
  146.1530   72.7730  220.5400 C   0  0  0  0  0  0  0  0  0  0  0  0
  145.3580   72.1280  219.4200 C   0  0  0  0  0  0  0  0  0  0  0  0
  145.7570   70.7850  219.4200 F   0  0  0  0  0  0  0  0  0  0  0  0
  145.6400   72.6680  218.1950 F   0  0  0  0  0  0  0  0  0  0  0  0
  143.8820   72.1330  219.7130 C   0  0  0  0  0  0  0  0  0  0  0  0
  140.2020   71.4910  223.7230 C   0  0  0  0  0  0  0  0  0  0  0  0
  139.5800   70.2680  223.5760 C   0  0  0  0  0  0  0  0  0  0  0  0
  139.4710   69.4540  224.6890 C   0  0  0  0  0  0  0  0  0  0  0  0
  139.9620   69.8280  225.9280 C   0  0  0  0  0  0  0  0  0  0  0  0
  139.8660   69.0370  227.0480 C   0  0  0  0  0  0  0  0  0  0  0  0
  140.3720   69.4490  228.2740 C   0  0  0  0  0  0  0  0  0  0  0  0
  140.9810   70.6880  228.3360 C   0  0  0  0  0  0  0  0  0  0  0  0
  141.0870   71.5010  227.2100 C   0  0  0  0  0  0  0  0  0  0  0  0
  140.5740   71.0630  226.0090 C   0  0  0  0  0  0  0  0  0  0  0  0
  140.6770   71.8500  224.9220 N   0  0  0  0  0  0  0  0  0  0  0  0
  141.2630   70.8630  221.3930 H   0  0  0  0  0  0  0  0  0  0  0  0
  141.3877   72.0925  219.3515 H   0  0  0  0  0  0  0  0  0  0  0  0
  140.1248   73.2120  220.0131 H   0  0  0  0  0  0  0  0  0  0  0  0
  144.7772   74.6927  219.0308 H   0  0  0  0  0  0  0  0  0  0  0  0
  143.9814   75.4406  220.4534 H   0  0  0  0  0  0  0  0  0  0  0  0
  146.3955   74.8657  220.8217 H   0  0  0  0  0  0  0  0  0  0  0  0
  145.2456   74.0447  221.9638 H   0  0  0  0  0  0  0  0  0  0  0  0
  147.1939   72.9007  220.2080 H   0  0  0  0  0  0  0  0  0  0  0  0
  146.0923   72.1160  221.4201 H   0  0  0  0  0  0  0  0  0  0  0  0
  143.3314   71.7991  218.8212 H   0  0  0  0  0  0  0  0  0  0  0  0
  143.6756   71.4522  220.5520 H   0  0  0  0  0  0  0  0  0  0  0  0
  139.1821   69.9494  222.6012 H   0  0  0  0  0  0  0  0  0  0  0  0
  138.9774   68.4764  224.5860 H   0  0  0  0  0  0  0  0  0  0  0  0
  139.3769   68.0547  226.9715 H   0  0  0  0  0  0  0  0  0  0  0  0
  140.2907   68.8104  229.1660 H   0  0  0  0  0  0  0  0  0  0  0  0
  141.3905   71.0395  229.2945 H   0  0  0  0  0  0  0  0  0  0  0  0
  141.5760   72.4839  227.2792 H   0  0  0  0  0  0  0  0  0  0  0  0
  1  2  2  0
  2  3  1  0
  3  4  1  0
  4  5  1  0
  5  6  2  0
  5  7  1  0
  7  8  1  0
  8  9  1  0
  9 10  1  0
 10 11  1  0
 11 12  1  0
 11 13  1  0
 11 14  1  0
  2 15  1  0
 15 16  2  0
 16 17  1  0
 17 18  2  0
 18 19  1  0
 19 20  2  0
 20 21  1  0
 21 22  2  0
 22 23  1  0
 23 24  2  0
 14  7  1  0
 24 15  1  0
 23 18  1  0
  3 25  1  0
  4 26  1  0
  4 27  1  0
  8 28  1  0
  8 29  1  0
  9 30  1  0
  9 31  1  0
 10 32  1  0
 10 33  1  0
 14 34  1  0
 14 35  1  0
 16 36  1  0
 17 37  1  0
 19 38  1  0
 20 39  1  0
 21 40  1  0
 22 41  1  0
M  END
>  <smiles>  (37) 
O=C(NCC(=O)N1CCCC(F)(F)C1)c1ccc2ccccc2n1

>  <score_type>  (37) 
oracle

>  <origin>  (37) 
autodockgpu

>  <m_score__min__energy>  (37) 
-7.3099999999999996

>  <m_primary>  (37) 
energy

>  <rmsd>  (37) 
4.084717788628655

>  <m_score__min__rmsd>  (37) 
4.084717788628655

>  <meeko>  (37) 
{"free_energy": -7.3, "intermolecular_energy": -8.49, "internal_energy": -0.77, "cluster_size": 17, "cluster_id": 1, "rank_in_cluster": 5}

>  <energy>  (37) 
-6.84

>  <cluster_rmsd>  (37) 
0.27

>  <cluster>  (37) 
3

$$$$

     RDKit          3D

 41 43  0  0  0  0  0  0  0  0999 V2000
  141.4450   71.7140  221.2250 O   0  0  0  0  0  0  0  0  0  0  0  0
  140.7800   72.6250  221.7680 C   0  0  0  0  0  0  0  0  0  0  0  0
  139.7480   72.2490  222.6810 N   0  0  0  0  0  0  0  0  0  0  0  0
  139.4800   70.8520  222.9670 C   0  0  0  0  0  0  0  0  0  0  0  0
  138.8310   70.6790  224.2920 C   0  0  0  0  0  0  0  0  0  0  0  0
  137.5870   70.7440  224.4690 O   0  0  0  0  0  0  0  0  0  0  0  0
  139.6660   70.4280  225.4140 N   0  0  0  0  0  0  0  0  0  0  0  0
  140.9380   71.0800  225.4960 C   0  0  0  0  0  0  0  0  0  0  0  0
  141.0390   71.7990  226.8200 C   0  0  0  0  0  0  0  0  0  0  0  0
  140.7450   70.8960  227.9790 C   0  0  0  0  0  0  0  0  0  0  0  0
  140.3550   69.5000  227.5300 C   0  0  0  0  0  0  0  0  0  0  0  0
  139.7840   68.9020  228.6620 F   0  0  0  0  0  0  0  0  0  0  0  0
  141.4320   68.7520  227.1380 F   0  0  0  0  0  0  0  0  0  0  0  0
  139.2780   69.5350  226.4800 C   0  0  0  0  0  0  0  0  0  0  0  0
  141.0160   74.0420  221.5090 C   0  0  0  0  0  0  0  0  0  0  0  0
  141.9790   74.4150  220.5930 C   0  0  0  0  0  0  0  0  0  0  0  0
  142.1770   75.7660  220.3700 C   0  0  0  0  0  0  0  0  0  0  0  0
  141.4480   76.7380  221.0320 C   0  0  0  0  0  0  0  0  0  0  0  0
  141.6280   78.0860  220.8270 C   0  0  0  0  0  0  0  0  0  0  0  0
  140.8750   79.0310  221.5120 C   0  0  0  0  0  0  0  0  0  0  0  0
  139.9320   78.5730  222.4130 C   0  0  0  0  0  0  0  0  0  0  0  0
  139.7370   77.2120  222.6310 C   0  0  0  0  0  0  0  0  0  0  0  0
  140.5010   76.2990  221.9360 C   0  0  0  0  0  0  0  0  0  0  0  0
  140.3120   74.9840  222.1480 N   0  0  0  0  0  0  0  0  0  0  0  0
  139.1970   73.0370  223.1300 H   0  0  0  0  0  0  0  0  0  0  0  0
  138.8149   70.4496  222.1887 H   0  0  0  0  0  0  0  0  0  0  0  0
  140.4393   70.3139  222.9813 H   0  0  0  0  0  0  0  0  0  0  0  0
  141.7411   70.3321  225.4206 H   0  0  0  0  0  0  0  0  0  0  0  0
  141.0383   71.8026  224.6727 H   0  0  0  0  0  0  0  0  0  0  0  0
  142.0588   72.1962  226.9304 H   0  0  0  0  0  0  0  0  0  0  0  0
  140.2920   72.6064  226.8234 H   0  0  0  0  0  0  0  0  0  0  0  0
  141.6421   70.8274  228.6118 H   0  0  0  0  0  0  0  0  0  0  0  0
  139.8967   71.3227  228.5343 H   0  0  0  0  0  0  0  0  0  0  0  0
  139.1303   68.5234  226.0739 H   0  0  0  0  0  0  0  0  0  0  0  0
  138.3408   69.8925  226.9315 H   0  0  0  0  0  0  0  0  0  0  0  0
  142.5718   73.6599  220.0559 H   0  0  0  0  0  0  0  0  0  0  0  0
  142.9400   76.0780  219.6416 H   0  0  0  0  0  0  0  0  0  0  0  0
  142.3855   78.4234  220.1042 H   0  0  0  0  0  0  0  0  0  0  0  0
  141.0241   80.1077  221.3432 H   0  0  0  0  0  0  0  0  0  0  0  0
  139.3224   79.2998  222.9699 H   0  0  0  0  0  0  0  0  0  0  0  0
  138.9801   76.8682  223.3513 H   0  0  0  0  0  0  0  0  0  0  0  0
  1  2  2  0
  2  3  1  0
  3  4  1  0
  4  5  1  0
  5  6  2  0
  5  7  1  0
  7  8  1  0
  8  9  1  0
  9 10  1  0
 10 11  1  0
 11 12  1  0
 11 13  1  0
 11 14  1  0
  2 15  1  0
 15 16  2  0
 16 17  1  0
 17 18  2  0
 18 19  1  0
 19 20  2  0
 20 21  1  0
 21 22  2  0
 22 23  1  0
 23 24  2  0
 14  7  1  0
 24 15  1  0
 23 18  1  0
  3 25  1  0
  4 26  1  0
  4 27  1  0
  8 28  1  0
  8 29  1  0
  9 30  1  0
  9 31  1  0
 10 32  1  0
 10 33  1  0
 14 34  1  0
 14 35  1  0
 16 36  1  0
 17 37  1  0
 19 38  1  0
 20 39  1  0
 21 40  1  0
 22 41  1  0
M  END
>  <smiles>  (38) 
O=C(NCC(=O)N1CCCC(F)(F)C1)c1ccc2ccccc2n1

>  <score_type>  (38) 
oracle

>  <origin>  (38) 
autodockgpu

>  <m_score__min__energy>  (38) 
-7.3099999999999996

>  <m_primary>  (38) 
energy

>  <rmsd>  (38) 
8.335792208430174

>  <m_score__min__rmsd>  (38) 
8.335792208430174

>  <meeko>  (38) 
{"free_energy": -6.81, "intermolecular_energy": -8.01, "internal_energy": -1.16, "cluster_size": 20, "cluster_id": 3, "rank_in_cluster": 13}

>  <energy>  (38) 
-6.84

>  <cluster_rmsd>  (38) 
0.28

>  <cluster>  (38) 
3

$$$$

     RDKit          3D

 41 43  0  0  0  0  0  0  0  0999 V2000
  141.5440   72.1180  220.8880 O   0  0  0  0  0  0  0  0  0  0  0  0
  140.9650   73.0140  221.5420 C   0  0  0  0  0  0  0  0  0  0  0  0
  140.0580   72.6140  222.5700 N   0  0  0  0  0  0  0  0  0  0  0  0
  139.8170   71.2110  222.8460 C   0  0  0  0  0  0  0  0  0  0  0  0
  139.0570   71.0230  224.1090 C   0  0  0  0  0  0  0  0  0  0  0  0
  137.8300   71.2780  224.2250 O   0  0  0  0  0  0  0  0  0  0  0  0
  139.7600   70.5300  225.2410 N   0  0  0  0  0  0  0  0  0  0  0  0
  140.9240   71.2270  225.6960 C   0  0  0  0  0  0  0  0  0  0  0  0
  140.7650   71.5490  227.1620 C   0  0  0  0  0  0  0  0  0  0  0  0
  140.4280   70.3360  227.9750 C   0  0  0  0  0  0  0  0  0  0  0  0
  140.2660   69.0980  227.1130 C   0  0  0  0  0  0  0  0  0  0  0  0
  139.6250   68.1640  227.9380 F   0  0  0  0  0  0  0  0  0  0  0  0
  141.4660   68.5750  226.7120 F   0  0  0  0  0  0  0  0  0  0  0  0
  139.3410   69.3460  225.9530 C   0  0  0  0  0  0  0  0  0  0  0  0
  141.1780   74.4380  221.2980 C   0  0  0  0  0  0  0  0  0  0  0  0
  142.0270   74.8350  220.2850 C   0  0  0  0  0  0  0  0  0  0  0  0
  142.2080   76.1910  220.0790 C   0  0  0  0  0  0  0  0  0  0  0  0
  141.5690   77.1450  220.8510 C   0  0  0  0  0  0  0  0  0  0  0  0
  141.7320   78.4980  220.6670 C   0  0  0  0  0  0  0  0  0  0  0  0
  141.0720   79.4240  221.4630 C   0  0  0  0  0  0  0  0  0  0  0  0
  140.2400   78.9430  222.4560 C   0  0  0  0  0  0  0  0  0  0  0  0
  140.0630   77.5770  222.6560 C   0  0  0  0  0  0  0  0  0  0  0  0
  140.7320   76.6830  221.8480 C   0  0  0  0  0  0  0  0  0  0  0  0
  140.5620   75.3630  222.0430 N   0  0  0  0  0  0  0  0  0  0  0  0
  139.5780   73.3910  223.1120 H   0  0  0  0  0  0  0  0  0  0  0  0
  139.2407   70.7779  222.0151 H   0  0  0  0  0  0  0  0  0  0  0  0
  140.7904   70.7100  222.9532 H   0  0  0  0  0  0  0  0  0  0  0  0
  141.8121   70.5941  225.5520 H   0  0  0  0  0  0  0  0  0  0  0  0
  141.0461   72.1581  225.1231 H   0  0  0  0  0  0  0  0  0  0  0  0
  141.7080   71.9749  227.5354 H   0  0  0  0  0  0  0  0  0  0  0  0
  139.9351   72.2640  227.2625 H   0  0  0  0  0  0  0  0  0  0  0  0
  141.2357   70.1597  228.7006 H   0  0  0  0  0  0  0  0  0  0  0  0
  139.4699   70.5235  228.4819 H   0  0  0  0  0  0  0  0  0  0  0  0
  139.3675   68.4818  225.2730 H   0  0  0  0  0  0  0  0  0  0  0  0
  138.3169   69.4897  226.3280 H   0  0  0  0  0  0  0  0  0  0  0  0
  142.5453   74.0939  219.6588 H   0  0  0  0  0  0  0  0  0  0  0  0
  142.8821   76.5216  219.2750 H   0  0  0  0  0  0  0  0  0  0  0  0
  142.4012   78.8549  219.8702 H   0  0  0  0  0  0  0  0  0  0  0  0
  141.2068   80.5047  221.3085 H   0  0  0  0  0  0  0  0  0  0  0  0
  139.7060   79.6551  223.1024 H   0  0  0  0  0  0  0  0  0  0  0  0
  139.3954   77.2143  223.4515 H   0  0  0  0  0  0  0  0  0  0  0  0
  1  2  2  0
  2  3  1  0
  3  4  1  0
  4  5  1  0
  5  6  2  0
  5  7  1  0
  7  8  1  0
  8  9  1  0
  9 10  1  0
 10 11  1  0
 11 12  1  0
 11 13  1  0
 11 14  1  0
  2 15  1  0
 15 16  2  0
 16 17  1  0
 17 18  2  0
 18 19  1  0
 19 20  2  0
 20 21  1  0
 21 22  2  0
 22 23  1  0
 23 24  2  0
 14  7  1  0
 24 15  1  0
 23 18  1  0
  3 25  1  0
  4 26  1  0
  4 27  1  0
  8 28  1  0
  8 29  1  0
  9 30  1  0
  9 31  1  0
 10 32  1  0
 10 33  1  0
 14 34  1  0
 14 35  1  0
 16 36  1  0
 17 37  1  0
 19 38  1  0
 20 39  1  0
 21 40  1  0
 22 41  1  0
M  END
>  <smiles>  (39) 
O=C(NCC(=O)N1CCCC(F)(F)C1)c1ccc2ccccc2n1

>  <score_type>  (39) 
oracle

>  <origin>  (39) 
autodockgpu

>  <m_score__min__energy>  (39) 
-7.3099999999999996

>  <m_primary>  (39) 
energy

>  <rmsd>  (39) 
8.549258644869203

>  <m_score__min__rmsd>  (39) 
8.549258644869203

>  <meeko>  (39) 
{"free_energy": -6.84, "intermolecular_energy": -8.03, "internal_energy": -1.12, "cluster_size": 20, "cluster_id": 3, "rank_in_cluster": 11}

>  <energy>  (39) 
-6.84

>  <cluster_rmsd>  (39) 
0.27

>  <cluster>  (39) 
3

$$$$

     RDKit          3D

 41 43  0  0  0  0  0  0  0  0999 V2000
  141.4500   72.9650  221.5460 O   0  0  0  0  0  0  0  0  0  0  0  0
  140.4870   72.9800  222.3460 C   0  0  0  0  0  0  0  0  0  0  0  0
  139.6360   74.1270  222.3480 N   0  0  0  0  0  0  0  0  0  0  0  0
  139.8830   75.2390  221.4500 C   0  0  0  0  0  0  0  0  0  0  0  0
  139.5640   76.5420  222.0900 C   0  0  0  0  0  0  0  0  0  0  0  0
  138.4770   76.7790  222.6760 O   0  0  0  0  0  0  0  0  0  0  0  0
  140.5450   77.5680  222.0330 N   0  0  0  0  0  0  0  0  0  0  0  0
  141.4950   77.5670  220.9610 C   0  0  0  0  0  0  0  0  0  0  0  0
  141.4640   78.9100  220.2740 C   0  0  0  0  0  0  0  0  0  0  0  0
  141.6400   80.0440  221.2380 C   0  0  0  0  0  0  0  0  0  0  0  0
  141.7400   79.5630  222.6730 C   0  0  0  0  0  0  0  0  0  0  0  0
  141.5450   80.7100  223.4540 F   0  0  0  0  0  0  0  0  0  0  0  0
  142.9680   79.0370  222.9690 F   0  0  0  0  0  0  0  0  0  0  0  0
  140.6210   78.6190  223.0200 C   0  0  0  0  0  0  0  0  0  0  0  0
  140.2020   71.8830  223.2660 C   0  0  0  0  0  0  0  0  0  0  0  0
  139.4440   70.8140  222.8350 C   0  0  0  0  0  0  0  0  0  0  0  0
  139.1920   69.7900  223.7310 C   0  0  0  0  0  0  0  0  0  0  0  0
  139.6740   69.8110  225.0290 C   0  0  0  0  0  0  0  0  0  0  0  0
  139.4370   68.8070  225.9380 C   0  0  0  0  0  0  0  0  0  0  0  0
  139.9380   68.8650  227.2310 C   0  0  0  0  0  0  0  0  0  0  0  0
  140.6880   69.9720  227.5820 C   0  0  0  0  0  0  0  0  0  0  0  0
  140.9380   70.9970  226.6740 C   0  0  0  0  0  0  0  0  0  0  0  0
  140.4260   70.9090  225.3970 C   0  0  0  0  0  0  0  0  0  0  0  0
  140.6670   71.9010  224.5210 N   0  0  0  0  0  0  0  0  0  0  0  0
  138.8260   74.1190  223.0330 H   0  0  0  0  0  0  0  0  0  0  0  0
  140.9440   75.2343  221.1598 H   0  0  0  0  0  0  0  0  0  0  0  0
  139.2339   75.1205  220.5699 H   0  0  0  0  0  0  0  0  0  0  0  0
  142.5025   77.3811  221.3616 H   0  0  0  0  0  0  0  0  0  0  0  0
  141.2405   76.7757  220.2405 H   0  0  0  0  0  0  0  0  0  0  0  0
  142.2751   78.9470  219.5319 H   0  0  0  0  0  0  0  0  0  0  0  0
  140.4792   79.0224  219.7971 H   0  0  0  0  0  0  0  0  0  0  0  0
  142.5610   80.5880  220.9813 H   0  0  0  0  0  0  0  0  0  0  0  0
  140.7568   80.6950  221.1599 H   0  0  0  0  0  0  0  0  0  0  0  0
  140.8091   78.1777  224.0099 H   0  0  0  0  0  0  0  0  0  0  0  0
  139.6704   79.1723  223.0358 H   0  0  0  0  0  0  0  0  0  0  0  0
  139.0511   70.7767  221.8083 H   0  0  0  0  0  0  0  0  0  0  0  0
  138.5890   68.9311  223.4013 H   0  0  0  0  0  0  0  0  0  0  0  0
  138.8362   67.9374  225.6333 H   0  0  0  0  0  0  0  0  0  0  0  0
  139.7448   68.0573  227.9523 H   0  0  0  0  0  0  0  0  0  0  0  0
  141.0961   70.0444  228.6009 H   0  0  0  0  0  0  0  0  0  0  0  0
  141.5384   71.8690  226.9725 H   0  0  0  0  0  0  0  0  0  0  0  0
  1  2  2  0
  2  3  1  0
  3  4  1  0
  4  5  1  0
  5  6  2  0
  5  7  1  0
  7  8  1  0
  8  9  1  0
  9 10  1  0
 10 11  1  0
 11 12  1  0
 11 13  1  0
 11 14  1  0
  2 15  1  0
 15 16  2  0
 16 17  1  0
 17 18  2  0
 18 19  1  0
 19 20  2  0
 20 21  1  0
 21 22  2  0
 22 23  1  0
 23 24  2  0
 14  7  1  0
 24 15  1  0
 23 18  1  0
  3 25  1  0
  4 26  1  0
  4 27  1  0
  8 28  1  0
  8 29  1  0
  9 30  1  0
  9 31  1  0
 10 32  1  0
 10 33  1  0
 14 34  1  0
 14 35  1  0
 16 36  1  0
 17 37  1  0
 19 38  1  0
 20 39  1  0
 21 40  1  0
 22 41  1  0
M  END
>  <smiles>  (40) 
O=C(NCC(=O)N1CCCC(F)(F)C1)c1ccc2ccccc2n1

>  <score_type>  (40) 
oracle

>  <origin>  (40) 
autodockgpu

>  <m_score__min__energy>  (40) 
-7.3099999999999996

>  <m_primary>  (40) 
energy

>  <rmsd>  (40) 
2.8388640983266487

>  <m_score__min__rmsd>  (40) 
2.8388640983266487

>  <meeko>  (40) 
{"free_energy": -7.03, "intermolecular_energy": -8.23, "internal_energy": -0.83, "cluster_size": 11, "cluster_id": 2, "rank_in_cluster": 9}

>  <energy>  (40) 
-6.82

>  <cluster_rmsd>  (40) 
0.41

>  <cluster>  (40) 
3

$$$$

     RDKit          3D

 41 43  0  0  0  0  0  0  0  0999 V2000
  139.8920   70.0140  221.8460 O   0  0  0  0  0  0  0  0  0  0  0  0
  139.5970   71.1050  222.3840 C   0  0  0  0  0  0  0  0  0  0  0  0
  138.6400   71.0910  223.4440 N   0  0  0  0  0  0  0  0  0  0  0  0
  138.0310   69.8500  223.8820 C   0  0  0  0  0  0  0  0  0  0  0  0
  138.9970   68.9960  224.6200 C   0  0  0  0  0  0  0  0  0  0  0  0
  139.1880   67.7800  224.3600 O   0  0  0  0  0  0  0  0  0  0  0  0
  139.7390   69.5910  225.6750 N   0  0  0  0  0  0  0  0  0  0  0  0
  141.0370   70.1280  225.3980 C   0  0  0  0  0  0  0  0  0  0  0  0
  141.0900   71.5610  225.8690 C   0  0  0  0  0  0  0  0  0  0  0  0
  140.6670   71.7040  227.3000 C   0  0  0  0  0  0  0  0  0  0  0  0
  140.2300   70.3810  227.9000 C   0  0  0  0  0  0  0  0  0  0  0  0
  139.5510   70.7250  229.0770 F   0  0  0  0  0  0  0  0  0  0  0  0
  141.2870   69.5750  228.2260 F   0  0  0  0  0  0  0  0  0  0  0  0
  139.2300   69.6770  227.0240 C   0  0  0  0  0  0  0  0  0  0  0  0
  140.1850   72.3770  221.9750 C   0  0  0  0  0  0  0  0  0  0  0  0
  141.3470   72.3810  221.2310 C   0  0  0  0  0  0  0  0  0  0  0  0
  141.8790   73.6030  220.8590 C   0  0  0  0  0  0  0  0  0  0  0  0
  141.2850   74.8030  221.2090 C   0  0  0  0  0  0  0  0  0  0  0  0
  141.7950   76.0290  220.8520 C   0  0  0  0  0  0  0  0  0  0  0  0
  141.1680   77.2110  221.2230 C   0  0  0  0  0  0  0  0  0  0  0  0
  140.0080   77.1190  221.9680 C   0  0  0  0  0  0  0  0  0  0  0  0
  139.4790   75.8850  222.3380 C   0  0  0  0  0  0  0  0  0  0  0  0
  140.1240   74.7300  221.9540 C   0  0  0  0  0  0  0  0  0  0  0  0
  139.6130   73.5380  222.3120 N   0  0  0  0  0  0  0  0  0  0  0  0
  138.4040   72.0260  223.8860 H   0  0  0  0  0  0  0  0  0  0  0  0
  137.1830   70.0825  224.5429 H   0  0  0  0  0  0  0  0  0  0  0  0
  137.6959   69.2986  222.9911 H   0  0  0  0  0  0  0  0  0  0  0  0
  141.8001   69.5381  225.9268 H   0  0  0  0  0  0  0  0  0  0  0  0
  141.2319   70.0862  224.3162 H   0  0  0  0  0  0  0  0  0  0  0  0
  142.1213   71.9295  225.7662 H   0  0  0  0  0  0  0  0  0  0  0  0
  140.3920   72.1450  225.2511 H   0  0  0  0  0  0  0  0  0  0  0  0
  141.5137   72.0955  227.8829 H   0  0  0  0  0  0  0  0  0  0  0  0
  139.8087   72.3912  227.3328 H   0  0  0  0  0  0  0  0  0  0  0  0
  139.0528   68.6635  227.4131 H   0  0  0  0  0  0  0  0  0  0  0  0
  138.2864   70.2424  227.0217 H   0  0  0  0  0  0  0  0  0  0  0  0
  141.8366   71.4394  220.9418 H   0  0  0  0  0  0  0  0  0  0  0  0
  142.8049   73.6213  220.2653 H   0  0  0  0  0  0  0  0  0  0  0  0
  142.7205   76.0744  220.2592 H   0  0  0  0  0  0  0  0  0  0  0  0
  141.5812   78.1884  220.9334 H   0  0  0  0  0  0  0  0  0  0  0  0
  139.4913   78.0401  222.2754 H   0  0  0  0  0  0  0  0  0  0  0  0
  138.5544   75.8331  222.9316 H   0  0  0  0  0  0  0  0  0  0  0  0
  1  2  2  0
  2  3  1  0
  3  4  1  0
  4  5  1  0
  5  6  2  0
  5  7  1  0
  7  8  1  0
  8  9  1  0
  9 10  1  0
 10 11  1  0
 11 12  1  0
 11 13  1  0
 11 14  1  0
  2 15  1  0
 15 16  2  0
 16 17  1  0
 17 18  2  0
 18 19  1  0
 19 20  2  0
 20 21  1  0
 21 22  2  0
 22 23  1  0
 23 24  2  0
 14  7  1  0
 24 15  1  0
 23 18  1  0
  3 25  1  0
  4 26  1  0
  4 27  1  0
  8 28  1  0
  8 29  1  0
  9 30  1  0
  9 31  1  0
 10 32  1  0
 10 33  1  0
 14 34  1  0
 14 35  1  0
 16 36  1  0
 17 37  1  0
 19 38  1  0
 20 39  1  0
 21 40  1  0
 22 41  1  0
M  END
>  <smiles>  (41) 
O=C(NCC(=O)N1CCCC(F)(F)C1)c1ccc2ccccc2n1

>  <score_type>  (41) 
oracle

>  <origin>  (41) 
autodockgpu

>  <m_score__min__energy>  (41) 
-7.3099999999999996

>  <m_primary>  (41) 
energy

>  <rmsd>  (41) 
7.753373775316541

>  <m_score__min__rmsd>  (41) 
7.753373775316541

>  <meeko>  (41) 
{"free_energy": -6.44, "intermolecular_energy": -7.63, "internal_energy": -1.43, "cluster_size": 20, "cluster_id": 3, "rank_in_cluster": 19}

>  <energy>  (41) 
-6.81

>  <cluster_rmsd>  (41) 
0.42

>  <cluster>  (41) 
3

$$$$

     RDKit          3D

 41 43  0  0  0  0  0  0  0  0999 V2000
  136.1730   69.3590  224.1950 O   0  0  0  0  0  0  0  0  0  0  0  0
  136.1080   70.5600  224.5390 C   0  0  0  0  0  0  0  0  0  0  0  0
  137.1660   71.4310  224.1330 N   0  0  0  0  0  0  0  0  0  0  0  0
  138.2790   70.9350  223.3480 C   0  0  0  0  0  0  0  0  0  0  0  0
  139.5850   71.3350  223.9340 C   0  0  0  0  0  0  0  0  0  0  0  0
  140.2970   72.2630  223.4710 O   0  0  0  0  0  0  0  0  0  0  0  0
  140.0460   70.6270  225.0760 N   0  0  0  0  0  0  0  0  0  0  0  0
  141.0900   71.1950  225.8740 C   0  0  0  0  0  0  0  0  0  0  0  0
  140.6340   71.2560  227.3120 C   0  0  0  0  0  0  0  0  0  0  0  0
  140.1450   69.9290  227.8080 C   0  0  0  0  0  0  0  0  0  0  0  0
  140.1690   68.8690  226.7230 C   0  0  0  0  0  0  0  0  0  0  0  0
  139.3790   67.8240  227.2190 F   0  0  0  0  0  0  0  0  0  0  0  0
  141.4280   68.3890  226.4830 F   0  0  0  0  0  0  0  0  0  0  0  0
  139.4980   69.3490  225.4640 C   0  0  0  0  0  0  0  0  0  0  0  0
  135.0060   71.1020  225.3290 C   0  0  0  0  0  0  0  0  0  0  0  0
  134.1880   70.2420  226.0330 C   0  0  0  0  0  0  0  0  0  0  0  0
  133.1530   70.7870  226.7720 C   0  0  0  0  0  0  0  0  0  0  0  0
  132.9200   72.1500  226.8220 C   0  0  0  0  0  0  0  0  0  0  0  0
  131.8990   72.7150  227.5490 C   0  0  0  0  0  0  0  0  0  0  0  0
  131.6990   74.0890  227.5730 C   0  0  0  0  0  0  0  0  0  0  0  0
  132.5630   74.8790  226.8400 C   0  0  0  0  0  0  0  0  0  0  0  0
  133.6030   74.3230  226.0990 C   0  0  0  0  0  0  0  0  0  0  0  0
  133.7750   72.9560  226.0950 C   0  0  0  0  0  0  0  0  0  0  0  0
  134.7790   72.4190  225.3790 N   0  0  0  0  0  0  0  0  0  0  0  0
  137.0910   72.4460  224.4360 H   0  0  0  0  0  0  0  0  0  0  0  0
  138.2268   69.8369  223.3092 H   0  0  0  0  0  0  0  0  0  0  0  0
  138.2080   71.3683  222.3395 H   0  0  0  0  0  0  0  0  0  0  0  0
  141.9921   70.5700  225.7997 H   0  0  0  0  0  0  0  0  0  0  0  0
  141.3215   72.2087  225.5150 H   0  0  0  0  0  0  0  0  0  0  0  0
  141.4789   71.5787  227.9381 H   0  0  0  0  0  0  0  0  0  0  0  0
  139.7972   71.9675  227.3708 H   0  0  0  0  0  0  0  0  0  0  0  0
  140.7887   69.6016  228.6378 H   0  0  0  0  0  0  0  0  0  0  0  0
  139.1025   70.0537  228.1361 H   0  0  0  0  0  0  0  0  0  0  0  0
  139.6673   68.6191  224.6586 H   0  0  0  0  0  0  0  0  0  0  0  0
  138.4184   69.4561  225.6454 H   0  0  0  0  0  0  0  0  0  0  0  0
  134.3540   69.1549  226.0074 H   0  0  0  0  0  0  0  0  0  0  0  0
  132.4930   70.1139  227.3390 H   0  0  0  0  0  0  0  0  0  0  0  0
  131.2250   72.0637  228.1249 H   0  0  0  0  0  0  0  0  0  0  0  0
  130.8794   74.5336  228.1566 H   0  0  0  0  0  0  0  0  0  0  0  0
  132.4268   75.9705  226.8415 H   0  0  0  0  0  0  0  0  0  0  0  0
  134.2809   74.9694  225.5222 H   0  0  0  0  0  0  0  0  0  0  0  0
  1  2  2  0
  2  3  1  0
  3  4  1  0
  4  5  1  0
  5  6  2  0
  5  7  1  0
  7  8  1  0
  8  9  1  0
  9 10  1  0
 10 11  1  0
 11 12  1  0
 11 13  1  0
 11 14  1  0
  2 15  1  0
 15 16  2  0
 16 17  1  0
 17 18  2  0
 18 19  1  0
 19 20  2  0
 20 21  1  0
 21 22  2  0
 22 23  1  0
 23 24  2  0
 14  7  1  0
 24 15  1  0
 23 18  1  0
  3 25  1  0
  4 26  1  0
  4 27  1  0
  8 28  1  0
  8 29  1  0
  9 30  1  0
  9 31  1  0
 10 32  1  0
 10 33  1  0
 14 34  1  0
 14 35  1  0
 16 36  1  0
 17 37  1  0
 19 38  1  0
 20 39  1  0
 21 40  1  0
 22 41  1  0
M  END
>  <smiles>  (42) 
O=C(NCC(=O)N1CCCC(F)(F)C1)c1ccc2ccccc2n1

>  <score_type>  (42) 
oracle

>  <origin>  (42) 
autodockgpu

>  <m_score__min__energy>  (42) 
-7.3099999999999996

>  <m_primary>  (42) 
energy

>  <rmsd>  (42) 
8.001184819505607

>  <m_score__min__rmsd>  (42) 
8.001184819505607

>  <meeko>  (42) 
{"free_energy": -6.64, "intermolecular_energy": -7.83, "internal_energy": -1.22, "cluster_size": 1, "cluster_id": 5, "rank_in_cluster": 1}

>  <energy>  (42) 
-6.8

>  <cluster_rmsd>  (42) 
0.48

>  <cluster>  (42) 
3

$$$$

     RDKit          3D

 41 43  0  0  0  0  0  0  0  0999 V2000
  139.9340   73.4990  222.4890 O   0  0  0  0  0  0  0  0  0  0  0  0
  140.3320   72.3130  222.5330 C   0  0  0  0  0  0  0  0  0  0  0  0
  140.9700   71.7760  221.3740 N   0  0  0  0  0  0  0  0  0  0  0  0
  141.1490   72.5830  220.1820 C   0  0  0  0  0  0  0  0  0  0  0  0
  142.1300   73.6770  220.4030 C   0  0  0  0  0  0  0  0  0  0  0  0
  141.8200   74.8030  220.8720 O   0  0  0  0  0  0  0  0  0  0  0  0
  143.4880   73.4320  220.0640 N   0  0  0  0  0  0  0  0  0  0  0  0
  144.4210   74.5170  220.0920 C   0  0  0  0  0  0  0  0  0  0  0  0
  145.5930   74.1370  220.9640 C   0  0  0  0  0  0  0  0  0  0  0  0
  146.1990   72.8270  220.5600 C   0  0  0  0  0  0  0  0  0  0  0  0
  145.4430   72.1770  219.4160 C   0  0  0  0  0  0  0  0  0  0  0  0
  145.8910   70.8490  219.3940 F   0  0  0  0  0  0  0  0  0  0  0  0
  145.7210   72.7520  218.2060 F   0  0  0  0  0  0  0  0  0  0  0  0
  143.9640   72.1210  219.6890 C   0  0  0  0  0  0  0  0  0  0  0  0
  140.1730   71.4660  223.7120 C   0  0  0  0  0  0  0  0  0  0  0  0
  139.5080   70.2620  223.5990 C   0  0  0  0  0  0  0  0  0  0  0  0
  139.3740   69.4820  224.7340 C   0  0  0  0  0  0  0  0  0  0  0  0
  139.8810   69.8730  225.9610 C   0  0  0  0  0  0  0  0  0  0  0  0
  139.7600   69.1170  227.1030 C   0  0  0  0  0  0  0  0  0  0  0  0
  140.2840   69.5450  228.3160 C   0  0  0  0  0  0  0  0  0  0  0  0
  140.9340   70.7640  228.3430 C   0  0  0  0  0  0  0  0  0  0  0  0
  141.0660   71.5420  227.1960 C   0  0  0  0  0  0  0  0  0  0  0  0
  140.5350   71.0890  226.0070 C   0  0  0  0  0  0  0  0  0  0  0  0
  140.6620   71.8420  224.8990 N   0  0  0  0  0  0  0  0  0  0  0  0
  141.3010   70.7700  221.4330 H   0  0  0  0  0  0  0  0  0  0  0  0
  141.5101   71.9394  219.3663 H   0  0  0  0  0  0  0  0  0  0  0  0
  140.1803   73.0368  219.9256 H   0  0  0  0  0  0  0  0  0  0  0  0
  144.7737   74.7262  219.0713 H   0  0  0  0  0  0  0  0  0  0  0  0
  143.9329   75.4156  220.4974 H   0  0  0  0  0  0  0  0  0  0  0  0
  146.3607   74.9211  220.8869 H   0  0  0  0  0  0  0  0  0  0  0  0
  145.2265   74.0351  221.9961 H   0  0  0  0  0  0  0  0  0  0  0  0
  147.2389   72.9992  220.2454 H   0  0  0  0  0  0  0  0  0  0  0  0
  146.1508   72.1501  221.4258 H   0  0  0  0  0  0  0  0  0  0  0  0
  143.4374   71.7862  218.7831 H   0  0  0  0  0  0  0  0  0  0  0  0
  143.7718   71.4150  220.5104 H   0  0  0  0  0  0  0  0  0  0  0  0
  139.0961   69.9318  222.6339 H   0  0  0  0  0  0  0  0  0  0  0  0
  138.8471   68.5194  224.6586 H   0  0  0  0  0  0  0  0  0  0  0  0
  139.2361   68.1509  227.0549 H   0  0  0  0  0  0  0  0  0  0  0  0
  140.1848   68.9337  229.2251 H   0  0  0  0  0  0  0  0  0  0  0  0
  141.3564   71.1277  229.2914 H   0  0  0  0  0  0  0  0  0  0  0  0
  141.5889   72.5088  227.2380 H   0  0  0  0  0  0  0  0  0  0  0  0
  1  2  2  0
  2  3  1  0
  3  4  1  0
  4  5  1  0
  5  6  2  0
  5  7  1  0
  7  8  1  0
  8  9  1  0
  9 10  1  0
 10 11  1  0
 11 12  1  0
 11 13  1  0
 11 14  1  0
  2 15  1  0
 15 16  2  0
 16 17  1  0
 17 18  2  0
 18 19  1  0
 19 20  2  0
 20 21  1  0
 21 22  2  0
 22 23  1  0
 23 24  2  0
 14  7  1  0
 24 15  1  0
 23 18  1  0
  3 25  1  0
  4 26  1  0
  4 27  1  0
  8 28  1  0
  8 29  1  0
  9 30  1  0
  9 31  1  0
 10 32  1  0
 10 33  1  0
 14 34  1  0
 14 35  1  0
 16 36  1  0
 17 37  1  0
 19 38  1  0
 20 39  1  0
 21 40  1  0
 22 41  1  0
M  END
>  <smiles>  (43) 
O=C(NCC(=O)N1CCCC(F)(F)C1)c1ccc2ccccc2n1

>  <score_type>  (43) 
oracle

>  <origin>  (43) 
autodockgpu

>  <m_score__min__energy>  (43) 
-7.3099999999999996

>  <m_primary>  (43) 
energy

>  <rmsd>  (43) 
4.101276365334186

>  <m_score__min__rmsd>  (43) 
4.101276365334186

>  <meeko>  (43) 
{"free_energy": -7.31, "intermolecular_energy": -8.5, "internal_energy": -0.76, "cluster_size": 17, "cluster_id": 1, "rank_in_cluster": 4}

>  <energy>  (43) 
-6.72

>  <cluster_rmsd>  (43) 
1.86

>  <cluster>  (43) 
3

$$$$

     RDKit          3D

 41 43  0  0  0  0  0  0  0  0999 V2000
  139.9780   73.5060  222.4210 O   0  0  0  0  0  0  0  0  0  0  0  0
  140.3530   72.3140  222.4900 C   0  0  0  0  0  0  0  0  0  0  0  0
  140.9770   71.7390  221.3410 N   0  0  0  0  0  0  0  0  0  0  0  0
  141.1690   72.5160  220.1320 C   0  0  0  0  0  0  0  0  0  0  0  0
  142.1340   73.6260  220.3400 C   0  0  0  0  0  0  0  0  0  0  0  0
  141.8080   74.7530  220.7950 O   0  0  0  0  0  0  0  0  0  0  0  0
  143.4950   73.3950  220.0050 N   0  0  0  0  0  0  0  0  0  0  0  0
  144.4160   74.4910  220.0310 C   0  0  0  0  0  0  0  0  0  0  0  0
  145.5900   74.1270  220.9070 C   0  0  0  0  0  0  0  0  0  0  0  0
  146.2120   72.8230  220.5090 C   0  0  0  0  0  0  0  0  0  0  0  0
  145.4660   72.1610  219.3660 C   0  0  0  0  0  0  0  0  0  0  0  0
  145.9290   70.8380  219.3500 F   0  0  0  0  0  0  0  0  0  0  0  0
  145.7400   72.7350  218.1550 F   0  0  0  0  0  0  0  0  0  0  0  0
  143.9880   72.0890  219.6360 C   0  0  0  0  0  0  0  0  0  0  0  0
  140.1800   71.4960  223.6870 C   0  0  0  0  0  0  0  0  0  0  0  0
  139.5000   70.2980  223.6010 C   0  0  0  0  0  0  0  0  0  0  0  0
  139.3540   69.5470  224.7530 C   0  0  0  0  0  0  0  0  0  0  0  0
  139.8640   69.9590  225.9720 C   0  0  0  0  0  0  0  0  0  0  0  0
  139.7310   69.2310  227.1310 C   0  0  0  0  0  0  0  0  0  0  0  0
  140.2570   69.6790  228.3350 C   0  0  0  0  0  0  0  0  0  0  0  0
  140.9240   70.8900  228.3350 C   0  0  0  0  0  0  0  0  0  0  0  0
  141.0680   71.6400  227.1700 C   0  0  0  0  0  0  0  0  0  0  0  0
  140.5340   71.1670  225.9920 C   0  0  0  0  0  0  0  0  0  0  0  0
  140.6720   71.8920  224.8670 N   0  0  0  0  0  0  0  0  0  0  0  0
  141.2870   70.7280  221.4220 H   0  0  0  0  0  0  0  0  0  0  0  0
  141.5513   71.8549  219.3403 H   0  0  0  0  0  0  0  0  0  0  0  0
  140.2003   72.9525  219.8473 H   0  0  0  0  0  0  0  0  0  0  0  0
  144.7686   74.7004  219.0103 H   0  0  0  0  0  0  0  0  0  0  0  0
  143.9171   75.3857  220.4318 H   0  0  0  0  0  0  0  0  0  0  0  0
  146.3488   74.9195  220.8293 H   0  0  0  0  0  0  0  0  0  0  0  0
  145.2219   74.0241  221.9385 H   0  0  0  0  0  0  0  0  0  0  0  0
  147.2505   73.0061  220.1960 H   0  0  0  0  0  0  0  0  0  0  0  0
  146.1701   72.1485  221.3769 H   0  0  0  0  0  0  0  0  0  0  0  0
  143.4675   71.7445  218.7303 H   0  0  0  0  0  0  0  0  0  0  0  0
  143.8028   71.3842  220.4600 H   0  0  0  0  0  0  0  0  0  0  0  0
  139.0858   69.9504  222.6431 H   0  0  0  0  0  0  0  0  0  0  0  0
  138.8144   68.5900  224.6987 H   0  0  0  0  0  0  0  0  0  0  0  0
  139.1950   68.2708  227.1034 H   0  0  0  0  0  0  0  0  0  0  0  0
  140.1469   69.0905  229.2578 H   0  0  0  0  0  0  0  0  0  0  0  0
  141.3502   71.2695  229.2754 H   0  0  0  0  0  0  0  0  0  0  0  0
  141.6031   72.6008  227.1908 H   0  0  0  0  0  0  0  0  0  0  0  0
  1  2  2  0
  2  3  1  0
  3  4  1  0
  4  5  1  0
  5  6  2  0
  5  7  1  0
  7  8  1  0
  8  9  1  0
  9 10  1  0
 10 11  1  0
 11 12  1  0
 11 13  1  0
 11 14  1  0
  2 15  1  0
 15 16  2  0
 16 17  1  0
 17 18  2  0
 18 19  1  0
 19 20  2  0
 20 21  1  0
 21 22  2  0
 22 23  1  0
 23 24  2  0
 14  7  1  0
 24 15  1  0
 23 18  1  0
  3 25  1  0
  4 26  1  0
  4 27  1  0
  8 28  1  0
  8 29  1  0
  9 30  1  0
  9 31  1  0
 10 32  1  0
 10 33  1  0
 14 34  1  0
 14 35  1  0
 16 36  1  0
 17 37  1  0
 19 38  1  0
 20 39  1  0
 21 40  1  0
 22 41  1  0
M  END
>  <smiles>  (44) 
O=C(NCC(=O)N1CCCC(F)(F)C1)c1ccc2ccccc2n1

>  <score_type>  (44) 
oracle

>  <origin>  (44) 
autodockgpu

>  <m_score__min__energy>  (44) 
-7.3099999999999996

>  <m_primary>  (44) 
energy

>  <rmsd>  (44) 
4.11184356089287

>  <m_score__min__rmsd>  (44) 
4.11184356089287

>  <meeko>  (44) 
{"free_energy": -7.31, "intermolecular_energy": -8.51, "internal_energy": -0.75, "cluster_size": 17, "cluster_id": 1, "rank_in_cluster": 2}

>  <energy>  (44) 
-6.72

>  <cluster_rmsd>  (44) 
1.85

>  <cluster>  (44) 
3

$$$$

     RDKit          3D

 41 43  0  0  0  0  0  0  0  0999 V2000
  139.7900   70.2260  221.8840 O   0  0  0  0  0  0  0  0  0  0  0  0
  139.4920   71.3300  222.3930 C   0  0  0  0  0  0  0  0  0  0  0  0
  138.5040   71.3470  223.4240 N   0  0  0  0  0  0  0  0  0  0  0  0
  137.8670   70.1220  223.8650 C   0  0  0  0  0  0  0  0  0  0  0  0
  138.8580   69.1430  224.3810 C   0  0  0  0  0  0  0  0  0  0  0  0
  139.0490   68.0120  223.8660 O   0  0  0  0  0  0  0  0  0  0  0  0
  139.6270   69.5120  225.5180 N   0  0  0  0  0  0  0  0  0  0  0  0
  140.8220   70.2780  225.3330 C   0  0  0  0  0  0  0  0  0  0  0  0
  140.7550   71.5130  226.1990 C   0  0  0  0  0  0  0  0  0  0  0  0
  140.4610   71.1850  227.6320 C   0  0  0  0  0  0  0  0  0  0  0  0
  140.2380   69.7000  227.8430 C   0  0  0  0  0  0  0  0  0  0  0  0
  139.6420   69.5990  229.1080 F   0  0  0  0  0  0  0  0  0  0  0  0
  141.4070   68.9880  227.8540 F   0  0  0  0  0  0  0  0  0  0  0  0
  139.2450   69.1420  226.8600 C   0  0  0  0  0  0  0  0  0  0  0  0
  140.1090   72.5860  221.9790 C   0  0  0  0  0  0  0  0  0  0  0  0
  141.2560   72.5610  221.2120 C   0  0  0  0  0  0  0  0  0  0  0  0
  141.8150   73.7700  220.8360 C   0  0  0  0  0  0  0  0  0  0  0  0
  141.2630   74.9840  221.2040 C   0  0  0  0  0  0  0  0  0  0  0  0
  141.8000   76.1970  220.8430 C   0  0  0  0  0  0  0  0  0  0  0  0
  141.2150   77.3950  221.2330 C   0  0  0  0  0  0  0  0  0  0  0  0
  140.0680   77.3320  222.0010 C   0  0  0  0  0  0  0  0  0  0  0  0
  139.5110   76.1110  222.3740 C   0  0  0  0  0  0  0  0  0  0  0  0
  140.1150   74.9410  221.9710 C   0  0  0  0  0  0  0  0  0  0  0  0
  139.5770   73.7620  222.3330 N   0  0  0  0  0  0  0  0  0  0  0  0
  138.2670   72.2930  223.8420 H   0  0  0  0  0  0  0  0  0  0  0  0
  137.1512   70.3605  224.6655 H   0  0  0  0  0  0  0  0  0  0  0  0
  137.3563   69.6707  223.0016 H   0  0  0  0  0  0  0  0  0  0  0  0
  141.6952   69.6737  225.6198 H   0  0  0  0  0  0  0  0  0  0  0  0
  140.9156   70.5702  224.2767 H   0  0  0  0  0  0  0  0  0  0  0  0
  141.7216   72.0354  226.1464 H   0  0  0  0  0  0  0  0  0  0  0  0
  139.9371   72.1451  225.8228 H   0  0  0  0  0  0  0  0  0  0  0  0
  141.3109   71.5076  228.2513 H   0  0  0  0  0  0  0  0  0  0  0  0
  139.5375   71.7101  227.9171 H   0  0  0  0  0  0  0  0  0  0  0  0
  139.2236   68.0455  226.9447 H   0  0  0  0  0  0  0  0  0  0  0  0
  138.2472   69.5495  227.0797 H   0  0  0  0  0  0  0  0  0  0  0  0
  141.7128   71.6076  220.9082 H   0  0  0  0  0  0  0  0  0  0  0  0
  142.7290   73.7655  220.2239 H   0  0  0  0  0  0  0  0  0  0  0  0
  142.7139   76.2194  220.2313 H   0  0  0  0  0  0  0  0  0  0  0  0
  141.6504   78.3618  220.9402 H   0  0  0  0  0  0  0  0  0  0  0  0
  139.5847   78.2656  222.3246 H   0  0  0  0  0  0  0  0  0  0  0  0
  138.5968   76.0817  222.9850 H   0  0  0  0  0  0  0  0  0  0  0  0
  1  2  2  0
  2  3  1  0
  3  4  1  0
  4  5  1  0
  5  6  2  0
  5  7  1  0
  7  8  1  0
  8  9  1  0
  9 10  1  0
 10 11  1  0
 11 12  1  0
 11 13  1  0
 11 14  1  0
  2 15  1  0
 15 16  2  0
 16 17  1  0
 17 18  2  0
 18 19  1  0
 19 20  2  0
 20 21  1  0
 21 22  2  0
 22 23  1  0
 23 24  2  0
 14  7  1  0
 24 15  1  0
 23 18  1  0
  3 25  1  0
  4 26  1  0
  4 27  1  0
  8 28  1  0
  8 29  1  0
  9 30  1  0
  9 31  1  0
 10 32  1  0
 10 33  1  0
 14 34  1  0
 14 35  1  0
 16 36  1  0
 17 37  1  0
 19 38  1  0
 20 39  1  0
 21 40  1  0
 22 41  1  0
M  END
>  <smiles>  (45) 
O=C(NCC(=O)N1CCCC(F)(F)C1)c1ccc2ccccc2n1

>  <score_type>  (45) 
oracle

>  <origin>  (45) 
autodockgpu

>  <m_score__min__energy>  (45) 
-7.3099999999999996

>  <m_primary>  (45) 
energy

>  <rmsd>  (45) 
7.869035836409438

>  <m_score__min__rmsd>  (45) 
7.869035836409438

>  <meeko>  (45) 
{"free_energy": -6.46, "intermolecular_energy": -7.65, "internal_energy": -1.32, "cluster_size": 20, "cluster_id": 3, "rank_in_cluster": 18}

>  <energy>  (45) 
-6.66

>  <cluster_rmsd>  (45) 
1.86

>  <cluster>  (45) 
3

$$$$

     RDKit          3D

 41 43  0  0  0  0  0  0  0  0999 V2000
  139.9390   73.5530  222.5540 O   0  0  0  0  0  0  0  0  0  0  0  0
  140.3380   72.3670  222.5670 C   0  0  0  0  0  0  0  0  0  0  0  0
  140.9580   71.8550  221.3870 N   0  0  0  0  0  0  0  0  0  0  0  0
  141.1190   72.6870  220.2100 C   0  0  0  0  0  0  0  0  0  0  0  0
  142.1340   73.7500  220.4250 C   0  0  0  0  0  0  0  0  0  0  0  0
  141.8620   74.8830  220.8990 O   0  0  0  0  0  0  0  0  0  0  0  0
  143.4810   73.4640  220.0720 N   0  0  0  0  0  0  0  0  0  0  0  0
  144.4410   74.5260  220.0680 C   0  0  0  0  0  0  0  0  0  0  0  0
  145.6150   74.1330  220.9310 C   0  0  0  0  0  0  0  0  0  0  0  0
  146.1820   72.8010  220.5440 C   0  0  0  0  0  0  0  0  0  0  0  0
  145.3950   72.1490  219.4230 C   0  0  0  0  0  0  0  0  0  0  0  0
  145.8100   70.8100  219.4200 F   0  0  0  0  0  0  0  0  0  0  0  0
  145.6710   72.6940  218.1980 F   0  0  0  0  0  0  0  0  0  0  0  0
  143.9190   72.1350  219.7160 C   0  0  0  0  0  0  0  0  0  0  0  0
  140.1960   71.4950  223.7300 C   0  0  0  0  0  0  0  0  0  0  0  0
  139.5540   70.2810  223.5960 C   0  0  0  0  0  0  0  0  0  0  0  0
  139.4370   69.4780  224.7160 C   0  0  0  0  0  0  0  0  0  0  0  0
  139.9380   69.8560  225.9500 C   0  0  0  0  0  0  0  0  0  0  0  0
  139.8330   69.0760  227.0770 C   0  0  0  0  0  0  0  0  0  0  0  0
  140.3500   69.4910  228.2970 C   0  0  0  0  0  0  0  0  0  0  0  0
  140.9780   70.7210  228.3460 C   0  0  0  0  0  0  0  0  0  0  0  0
  141.0930   71.5230  227.2130 C   0  0  0  0  0  0  0  0  0  0  0  0
  140.5690   71.0820  226.0170 C   0  0  0  0  0  0  0  0  0  0  0  0
  140.6800   71.8580  224.9240 N   0  0  0  0  0  0  0  0  0  0  0  0
  141.2890   70.8470  221.4200 H   0  0  0  0  0  0  0  0  0  0  0  0
  141.4369   72.0554  219.3674 H   0  0  0  0  0  0  0  0  0  0  0  0
  140.1545   73.1710  219.9969 H   0  0  0  0  0  0  0  0  0  0  0  0
  144.7847   74.7081  219.0391 H   0  0  0  0  0  0  0  0  0  0  0  0
  143.9807   75.4434  220.4635 H   0  0  0  0  0  0  0  0  0  0  0  0
  146.4009   74.8957  220.8284 H   0  0  0  0  0  0  0  0  0  0  0  0
  145.2607   74.0600  221.9698 H   0  0  0  0  0  0  0  0  0  0  0  0
  147.2215   72.9409  220.2126 H   0  0  0  0  0  0  0  0  0  0  0  0
  146.1282   72.1420  221.4231 H   0  0  0  0  0  0  0  0  0  0  0  0
  143.3722   71.7966  218.8235 H   0  0  0  0  0  0  0  0  0  0  0  0
  143.7202   71.4495  220.5530 H   0  0  0  0  0  0  0  0  0  0  0  0
  139.1467   69.9608  222.6256 H   0  0  0  0  0  0  0  0  0  0  0  0
  138.9290   68.5067  224.6232 H   0  0  0  0  0  0  0  0  0  0  0  0
  139.3280   68.1010  227.0108 H   0  0  0  0  0  0  0  0  0  0  0  0
  140.2626   68.8615  229.1948 H   0  0  0  0  0  0  0  0  0  0  0  0
  141.3960   71.0743  229.3002 H   0  0  0  0  0  0  0  0  0  0  0  0
  141.5972   72.4989  227.2722 H   0  0  0  0  0  0  0  0  0  0  0  0
  1  2  2  0
  2  3  1  0
  3  4  1  0
  4  5  1  0
  5  6  2  0
  5  7  1  0
  7  8  1  0
  8  9  1  0
  9 10  1  0
 10 11  1  0
 11 12  1  0
 11 13  1  0
 11 14  1  0
  2 15  1  0
 15 16  2  0
 16 17  1  0
 17 18  2  0
 18 19  1  0
 19 20  2  0
 20 21  1  0
 21 22  2  0
 22 23  1  0
 23 24  2  0
 14  7  1  0
 24 15  1  0
 23 18  1  0
  3 25  1  0
  4 26  1  0
  4 27  1  0
  8 28  1  0
  8 29  1  0
  9 30  1  0
  9 31  1  0
 10 32  1  0
 10 33  1  0
 14 34  1  0
 14 35  1  0
 16 36  1  0
 17 37  1  0
 19 38  1  0
 20 39  1  0
 21 40  1  0
 22 41  1  0
M  END
>  <smiles>  (46) 
O=C(NCC(=O)N1CCCC(F)(F)C1)c1ccc2ccccc2n1

>  <score_type>  (46) 
oracle

>  <origin>  (46) 
autodockgpu

>  <m_score__min__energy>  (46) 
-7.3099999999999996

>  <m_primary>  (46) 
energy

>  <rmsd>  (46) 
4.094366389052312

>  <m_score__min__rmsd>  (46) 
4.094366389052312

>  <meeko>  (46) 
{"free_energy": -7.31, "intermolecular_energy": -8.5, "internal_energy": -0.76, "cluster_size": 17, "cluster_id": 1, "rank_in_cluster": 3}

>  <energy>  (46) 
-6.46

>  <cluster_rmsd>  (46) 
1.54

>  <cluster>  (46) 
3

$$$$

     RDKit          3D

 41 43  0  0  0  0  0  0  0  0999 V2000
  141.5260   72.0940  220.8700 O   0  0  0  0  0  0  0  0  0  0  0  0
  140.9590   72.9970  221.5260 C   0  0  0  0  0  0  0  0  0  0  0  0
  140.0470   72.6070  222.5530 N   0  0  0  0  0  0  0  0  0  0  0  0
  139.7870   71.2070  222.8250 C   0  0  0  0  0  0  0  0  0  0  0  0
  139.0320   71.0260  224.0920 C   0  0  0  0  0  0  0  0  0  0  0  0
  137.8080   71.2900  224.2140 O   0  0  0  0  0  0  0  0  0  0  0  0
  139.7370   70.5280  225.2210 N   0  0  0  0  0  0  0  0  0  0  0  0
  140.8980   71.2270  225.6810 C   0  0  0  0  0  0  0  0  0  0  0  0
  140.7380   71.5390  227.1490 C   0  0  0  0  0  0  0  0  0  0  0  0
  140.4050   70.3200  227.9550 C   0  0  0  0  0  0  0  0  0  0  0  0
  140.2490   69.0860  227.0850 C   0  0  0  0  0  0  0  0  0  0  0  0
  139.6110   68.1450  227.9030 F   0  0  0  0  0  0  0  0  0  0  0  0
  141.4510   68.5710  226.6810 F   0  0  0  0  0  0  0  0  0  0  0  0
  139.3230   69.3380  225.9260 C   0  0  0  0  0  0  0  0  0  0  0  0
  141.1920   74.4180  221.2850 C   0  0  0  0  0  0  0  0  0  0  0  0
  142.0330   74.8060  220.2620 C   0  0  0  0  0  0  0  0  0  0  0  0
  142.2320   76.1600  220.0600 C   0  0  0  0  0  0  0  0  0  0  0  0
  141.6190   77.1210  220.8450 C   0  0  0  0  0  0  0  0  0  0  0  0
  141.8020   78.4720  220.6640 C   0  0  0  0  0  0  0  0  0  0  0  0
  141.1680   79.4050  221.4730 C   0  0  0  0  0  0  0  0  0  0  0  0
  140.3420   78.9330  222.4760 C   0  0  0  0  0  0  0  0  0  0  0  0
  140.1460   77.5680  222.6720 C   0  0  0  0  0  0  0  0  0  0  0  0
  140.7890   76.6680  221.8510 C   0  0  0  0  0  0  0  0  0  0  0  0
  140.6010   75.3490  222.0430 N   0  0  0  0  0  0  0  0  0  0  0  0
  139.5780   73.3880  223.0970 H   0  0  0  0  0  0  0  0  0  0  0  0
  139.1993   70.7856  221.9961 H   0  0  0  0  0  0  0  0  0  0  0  0
  140.7534   70.6910  222.9241 H   0  0  0  0  0  0  0  0  0  0  0  0
  141.7888   70.5988  225.5330 H   0  0  0  0  0  0  0  0  0  0  0  0
  141.0159   72.1624  225.1143 H   0  0  0  0  0  0  0  0  0  0  0  0
  141.6796   71.9657  227.5249 H   0  0  0  0  0  0  0  0  0  0  0  0
  139.9055   72.2503  227.2538 H   0  0  0  0  0  0  0  0  0  0  0  0
  141.2126   70.1428  228.6805 H   0  0  0  0  0  0  0  0  0  0  0  0
  139.4458   70.5006  228.4622 H   0  0  0  0  0  0  0  0  0  0  0  0
  139.3529   68.4781  225.2406 H   0  0  0  0  0  0  0  0  0  0  0  0
  138.2985   69.4757  226.3021 H   0  0  0  0  0  0  0  0  0  0  0  0
  142.5310   74.0599  219.6253 H   0  0  0  0  0  0  0  0  0  0  0  0
  142.8999   76.4838  219.2482 H   0  0  0  0  0  0  0  0  0  0  0  0
  142.4661   78.8213  219.8596 H   0  0  0  0  0  0  0  0  0  0  0  0
  141.3179   80.4841  221.3210 H   0  0  0  0  0  0  0  0  0  0  0  0
  139.8287   79.6505  223.1331 H   0  0  0  0  0  0  0  0  0  0  0  0
  139.4838   77.2120  223.4750 H   0  0  0  0  0  0  0  0  0  0  0  0
  1  2  2  0
  2  3  1  0
  3  4  1  0
  4  5  1  0
  5  6  2  0
  5  7  1  0
  7  8  1  0
  8  9  1  0
  9 10  1  0
 10 11  1  0
 11 12  1  0
 11 13  1  0
 11 14  1  0
  2 15  1  0
 15 16  2  0
 16 17  1  0
 17 18  2  0
 18 19  1  0
 19 20  2  0
 20 21  1  0
 21 22  2  0
 22 23  1  0
 23 24  2  0
 14  7  1  0
 24 15  1  0
 23 18  1  0
  3 25  1  0
  4 26  1  0
  4 27  1  0
  8 28  1  0
  8 29  1  0
  9 30  1  0
  9 31  1  0
 10 32  1  0
 10 33  1  0
 14 34  1  0
 14 35  1  0
 16 36  1  0
 17 37  1  0
 19 38  1  0
 20 39  1  0
 21 40  1  0
 22 41  1  0
M  END
>  <smiles>  (47) 
O=C(NCC(=O)N1CCCC(F)(F)C1)c1ccc2ccccc2n1

>  <score_type>  (47) 
oracle

>  <origin>  (47) 
autodockgpu

>  <m_score__min__energy>  (47) 
-7.3099999999999996

>  <m_primary>  (47) 
energy

>  <rmsd>  (47) 
8.536954253589892

>  <m_score__min__rmsd>  (47) 
8.536954253589892

>  <meeko>  (47) 
{"free_energy": -6.84, "intermolecular_energy": -8.04, "internal_energy": -1.12, "cluster_size": 20, "cluster_id": 3, "rank_in_cluster": 8}

>  <energy>  (47) 
-6.44

>  <cluster_rmsd>  (47) 
1.65

>  <cluster>  (47) 
3

$$$$

     RDKit          3D

 41 43  0  0  0  0  0  0  0  0999 V2000
  140.5570   71.2800  221.1930 O   0  0  0  0  0  0  0  0  0  0  0  0
  140.2290   71.8710  222.2470 C   0  0  0  0  0  0  0  0  0  0  0  0
  139.9740   73.2750  222.1760 N   0  0  0  0  0  0  0  0  0  0  0  0
  140.0940   73.9910  220.9210 C   0  0  0  0  0  0  0  0  0  0  0  0
  141.3540   74.7750  220.8560 C   0  0  0  0  0  0  0  0  0  0  0  0
  141.4660   75.9470  221.2990 O   0  0  0  0  0  0  0  0  0  0  0  0
  142.4890   74.1620  220.2590 N   0  0  0  0  0  0  0  0  0  0  0  0
  143.6900   74.9240  220.0990 C   0  0  0  0  0  0  0  0  0  0  0  0
  144.8390   74.1720  220.7270 C   0  0  0  0  0  0  0  0  0  0  0  0
  144.9410   72.7660  220.2200 C   0  0  0  0  0  0  0  0  0  0  0  0
  143.8250   72.4260  219.2500 C   0  0  0  0  0  0  0  0  0  0  0  0
  143.8460   71.0290  219.1490 F   0  0  0  0  0  0  0  0  0  0  0  0
  144.0280   72.9580  218.0060 F   0  0  0  0  0  0  0  0  0  0  0  0
  142.4750   72.7910  219.8070 C   0  0  0  0  0  0  0  0  0  0  0  0
  140.0960   71.1890  223.5300 C   0  0  0  0  0  0  0  0  0  0  0  0
  139.4470   69.9730  223.5910 C   0  0  0  0  0  0  0  0  0  0  0  0
  139.3390   69.3520  224.8230 C   0  0  0  0  0  0  0  0  0  0  0  0
  139.8560   69.9110  225.9780 C   0  0  0  0  0  0  0  0  0  0  0  0
  139.7610   69.3140  227.2130 C   0  0  0  0  0  0  0  0  0  0  0  0
  140.2940   69.9080  228.3490 C   0  0  0  0  0  0  0  0  0  0  0  0
  140.9280   71.1270  228.2020 C   0  0  0  0  0  0  0  0  0  0  0  0
  141.0340   71.7440  226.9590 C   0  0  0  0  0  0  0  0  0  0  0  0
  140.4940   71.1290  225.8500 C   0  0  0  0  0  0  0  0  0  0  0  0
  140.5960   71.7270  224.6490 N   0  0  0  0  0  0  0  0  0  0  0  0
  139.6960   73.7560  223.0810 H   0  0  0  0  0  0  0  0  0  0  0  0
  140.0819   73.2659  220.0939 H   0  0  0  0  0  0  0  0  0  0  0  0
  139.2492   74.6911  220.8427 H   0  0  0  0  0  0  0  0  0  0  0  0
  143.8903   75.0755  219.0281 H   0  0  0  0  0  0  0  0  0  0  0  0
  143.5761   75.9028  220.5879 H   0  0  0  0  0  0  0  0  0  0  0  0
  145.7759   74.7003  220.4966 H   0  0  0  0  0  0  0  0  0  0  0  0
  144.6602   74.1273  221.8115 H   0  0  0  0  0  0  0  0  0  0  0  0
  145.9063   72.6432  219.7070 H   0  0  0  0  0  0  0  0  0  0  0  0
  144.8579   72.0883  221.0825 H   0  0  0  0  0  0  0  0  0  0  0  0
  141.7120   72.6722  219.0236 H   0  0  0  0  0  0  0  0  0  0  0  0
  142.2403   72.1306  220.6548 H   0  0  0  0  0  0  0  0  0  0  0  0
  139.0272   69.5101  222.6857 H   0  0  0  0  0  0  0  0  0  0  0  0
  138.8249   68.3816  224.8860 H   0  0  0  0  0  0  0  0  0  0  0  0
  139.2510   68.3435  227.3030 H   0  0  0  0  0  0  0  0  0  0  0  0
  140.2143   69.4242  229.3337 H   0  0  0  0  0  0  0  0  0  0  0  0
  141.3580   71.6202  229.0862 H   0  0  0  0  0  0  0  0  0  0  0  0
  141.5441   72.7138  226.8625 H   0  0  0  0  0  0  0  0  0  0  0  0
  1  2  2  0
  2  3  1  0
  3  4  1  0
  4  5  1  0
  5  6  2  0
  5  7  1  0
  7  8  1  0
  8  9  1  0
  9 10  1  0
 10 11  1  0
 11 12  1  0
 11 13  1  0
 11 14  1  0
  2 15  1  0
 15 16  2  0
 16 17  1  0
 17 18  2  0
 18 19  1  0
 19 20  2  0
 20 21  1  0
 21 22  2  0
 22 23  1  0
 23 24  2  0
 14  7  1  0
 24 15  1  0
 23 18  1  0
  3 25  1  0
  4 26  1  0
  4 27  1  0
  8 28  1  0
  8 29  1  0
  9 30  1  0
  9 31  1  0
 10 32  1  0
 10 33  1  0
 14 34  1  0
 14 35  1  0
 16 36  1  0
 17 37  1  0
 19 38  1  0
 20 39  1  0
 21 40  1  0
 22 41  1  0
M  END
>  <smiles>  (48) 
O=C(NCC(=O)N1CCCC(F)(F)C1)c1ccc2ccccc2n1

>  <score_type>  (48) 
oracle

>  <origin>  (48) 
autodockgpu

>  <m_score__min__energy>  (48) 
-7.3099999999999996

>  <m_primary>  (48) 
energy

>  <rmsd>  (48) 
3.4382806532146404

>  <m_score__min__rmsd>  (48) 
3.4382806532146404

>  <meeko>  (48) 
{"free_energy": -6.75, "intermolecular_energy": -7.94, "internal_energy": -1.03, "cluster_size": 17, "cluster_id": 1, "rank_in_cluster": 15}

>  <energy>  (48) 
-6.42

>  <cluster_rmsd>  (48) 
1.71

>  <cluster>  (48) 
3

$$$$

     RDKit          3D

 41 43  0  0  0  0  0  0  0  0999 V2000
  141.5470   72.0980  220.8870 O   0  0  0  0  0  0  0  0  0  0  0  0
  140.9660   72.9980  221.5350 C   0  0  0  0  0  0  0  0  0  0  0  0
  140.0510   72.6020  222.5580 N   0  0  0  0  0  0  0  0  0  0  0  0
  139.8050   71.2000  222.8350 C   0  0  0  0  0  0  0  0  0  0  0  0
  139.0700   71.0150  224.1130 C   0  0  0  0  0  0  0  0  0  0  0  0
  137.8270   71.1690  224.2270 O   0  0  0  0  0  0  0  0  0  0  0  0
  139.8190   70.6450  225.2630 N   0  0  0  0  0  0  0  0  0  0  0  0
  141.0780   71.2800  225.5090 C   0  0  0  0  0  0  0  0  0  0  0  0
  141.0760   71.8550  226.9050 C   0  0  0  0  0  0  0  0  0  0  0  0
  140.6980   70.8360  227.9370 C   0  0  0  0  0  0  0  0  0  0  0  0
  140.3500   69.4970  227.3160 C   0  0  0  0  0  0  0  0  0  0  0  0
  139.6970   68.7860  228.3320 F   0  0  0  0  0  0  0  0  0  0  0  0
  141.4570   68.7900  226.9300 F   0  0  0  0  0  0  0  0  0  0  0  0
  139.3560   69.6460  226.1970 C   0  0  0  0  0  0  0  0  0  0  0  0
  141.1850   74.4200  221.2890 C   0  0  0  0  0  0  0  0  0  0  0  0
  142.0140   74.8130  220.2580 C   0  0  0  0  0  0  0  0  0  0  0  0
  142.2000   76.1680  220.0510 C   0  0  0  0  0  0  0  0  0  0  0  0
  141.5860   77.1250  220.8400 C   0  0  0  0  0  0  0  0  0  0  0  0
  141.7550   78.4770  220.6540 C   0  0  0  0  0  0  0  0  0  0  0  0
  141.1200   79.4070  221.4670 C   0  0  0  0  0  0  0  0  0  0  0  0
  140.3060   78.9300  222.4770 C   0  0  0  0  0  0  0  0  0  0  0  0
  140.1240   77.5640  222.6780 C   0  0  0  0  0  0  0  0  0  0  0  0
  140.7680   76.6670  221.8540 C   0  0  0  0  0  0  0  0  0  0  0  0
  140.5920   75.3480  222.0500 N   0  0  0  0  0  0  0  0  0  0  0  0
  139.5700   73.3810  223.0950 H   0  0  0  0  0  0  0  0  0  0  0  0
  139.2082   70.7736  222.0152 H   0  0  0  0  0  0  0  0  0  0  0  0
  140.7763   70.6909  222.9203 H   0  0  0  0  0  0  0  0  0  0  0  0
  141.8877   70.5413  225.4159 H   0  0  0  0  0  0  0  0  0  0  0  0
  141.2368   72.0851  224.7765 H   0  0  0  0  0  0  0  0  0  0  0  0
  142.0832   72.2337  227.1335 H   0  0  0  0  0  0  0  0  0  0  0  0
  140.3282   72.6611  226.9369 H   0  0  0  0  0  0  0  0  0  0  0  0
  141.5443   70.6982  228.6260 H   0  0  0  0  0  0  0  0  0  0  0  0
  139.8077   71.2051  228.4672 H   0  0  0  0  0  0  0  0  0  0  0  0
  139.2444   68.6832  225.6768 H   0  0  0  0  0  0  0  0  0  0  0  0
  138.3858   69.9574  226.6114 H   0  0  0  0  0  0  0  0  0  0  0  0
  142.5128   74.0696  219.6188 H   0  0  0  0  0  0  0  0  0  0  0  0
  142.8576   76.4957  219.2323 H   0  0  0  0  0  0  0  0  0  0  0  0
  142.4083   78.8301  219.8425 H   0  0  0  0  0  0  0  0  0  0  0  0
  141.2602   80.4870  221.3122 H   0  0  0  0  0  0  0  0  0  0  0  0
  139.7910   79.6444  223.1361 H   0  0  0  0  0  0  0  0  0  0  0  0
  139.4718   77.2044  223.4875 H   0  0  0  0  0  0  0  0  0  0  0  0
  1  2  2  0
  2  3  1  0
  3  4  1  0
  4  5  1  0
  5  6  2  0
  5  7  1  0
  7  8  1  0
  8  9  1  0
  9 10  1  0
 10 11  1  0
 11 12  1  0
 11 13  1  0
 11 14  1  0
  2 15  1  0
 15 16  2  0
 16 17  1  0
 17 18  2  0
 18 19  1  0
 19 20  2  0
 20 21  1  0
 21 22  2  0
 22 23  1  0
 23 24  2  0
 14  7  1  0
 24 15  1  0
 23 18  1  0
  3 25  1  0
  4 26  1  0
  4 27  1  0
  8 28  1  0
  8 29  1  0
  9 30  1  0
  9 31  1  0
 10 32  1  0
 10 33  1  0
 14 34  1  0
 14 35  1  0
 16 36  1  0
 17 37  1  0
 19 38  1  0
 20 39  1  0
 21 40  1  0
 22 41  1  0
M  END
>  <smiles>  (49) 
O=C(NCC(=O)N1CCCC(F)(F)C1)c1ccc2ccccc2n1

>  <score_type>  (49) 
oracle

>  <origin>  (49) 
autodockgpu

>  <m_score__min__energy>  (49) 
-7.3099999999999996

>  <m_primary>  (49) 
energy

>  <rmsd>  (49) 
8.455886201392882

>  <m_score__min__rmsd>  (49) 
8.455886201392882

>  <meeko>  (49) 
{"free_energy": -6.87, "intermolecular_energy": -8.06, "internal_energy": -1.14, "cluster_size": 20, "cluster_id": 3, "rank_in_cluster": 4}

>  <energy>  (49) 
-6.64

>  <cluster_rmsd>  (49) 
0.0

>  <cluster>  (49) 
4

$$$$

     RDKit          3D

 41 43  0  0  0  0  0  0  0  0999 V2000
  139.9150   69.8730  222.4190 O   0  0  0  0  0  0  0  0  0  0  0  0
  139.6120   71.0440  222.7430 C   0  0  0  0  0  0  0  0  0  0  0  0
  138.5950   71.2240  223.7290 N   0  0  0  0  0  0  0  0  0  0  0  0
  137.9340   70.0840  224.3340 C   0  0  0  0  0  0  0  0  0  0  0  0
  138.8800   69.2620  225.1320 C   0  0  0  0  0  0  0  0  0  0  0  0
  139.1880   68.0780  224.8390 O   0  0  0  0  0  0  0  0  0  0  0  0
  139.4630   69.8520  226.2860 N   0  0  0  0  0  0  0  0  0  0  0  0
  139.2190   69.2650  227.5680 C   0  0  0  0  0  0  0  0  0  0  0  0
  140.5400   68.9900  228.2450 C   0  0  0  0  0  0  0  0  0  0  0  0
  141.4170   70.2040  228.2920 C   0  0  0  0  0  0  0  0  0  0  0  0
  140.7850   71.3910  227.5890 C   0  0  0  0  0  0  0  0  0  0  0  0
  141.8330   72.3050  227.4100 F   0  0  0  0  0  0  0  0  0  0  0  0
  139.8080   71.9890  228.3390 F   0  0  0  0  0  0  0  0  0  0  0  0
  140.2990   71.0270  226.2130 C   0  0  0  0  0  0  0  0  0  0  0  0
  140.2520   72.2190  222.1590 C   0  0  0  0  0  0  0  0  0  0  0  0
  141.3850   72.0640  221.3860 C   0  0  0  0  0  0  0  0  0  0  0  0
  141.9660   73.1970  220.8470 C   0  0  0  0  0  0  0  0  0  0  0  0
  141.4500   74.4630  221.0600 C   0  0  0  0  0  0  0  0  0  0  0  0
  142.0100   75.6040  220.5350 C   0  0  0  0  0  0  0  0  0  0  0  0
  141.4610   76.8580  220.7720 C   0  0  0  0  0  0  0  0  0  0  0  0
  140.3260   76.9260  221.5570 C   0  0  0  0  0  0  0  0  0  0  0  0
  139.7460   75.7800  222.0960 C   0  0  0  0  0  0  0  0  0  0  0  0
  140.3150   74.5510  221.8420 C   0  0  0  0  0  0  0  0  0  0  0  0
  139.7550   73.4440  222.3630 N   0  0  0  0  0  0  0  0  0  0  0  0
  138.3540   72.2250  223.9880 H   0  0  0  0  0  0  0  0  0  0  0  0
  137.1314   70.4456  224.9936 H   0  0  0  0  0  0  0  0  0  0  0  0
  137.5276   69.4550  223.5283 H   0  0  0  0  0  0  0  0  0  0  0  0
  138.6268   69.9580  228.1837 H   0  0  0  0  0  0  0  0  0  0  0  0
  138.6628   68.3240  227.4449 H   0  0  0  0  0  0  0  0  0  0  0  0
  140.3469   68.6527  229.2741 H   0  0  0  0  0  0  0  0  0  0  0  0
  141.0636   68.2183  227.6616 H   0  0  0  0  0  0  0  0  0  0  0  0
  141.5988   70.4700  229.3438 H   0  0  0  0  0  0  0  0  0  0  0  0
  142.3569   69.9637  227.7735 H   0  0  0  0  0  0  0  0  0  0  0  0
  139.7181   71.8636  225.7974 H   0  0  0  0  0  0  0  0  0  0  0  0
  141.1633   70.8189  225.5651 H   0  0  0  0  0  0  0  0  0  0  0  0
  141.8135   71.0674  221.2040 H   0  0  0  0  0  0  0  0  0  0  0  0
  142.8688   73.0882  220.2280 H   0  0  0  0  0  0  0  0  0  0  0  0
  142.9135   75.5219  219.9130 H   0  0  0  0  0  0  0  0  0  0  0  0
  141.9147   77.7663  220.3489 H   0  0  0  0  0  0  0  0  0  0  0  0
  139.8706   77.9064  221.7607 H   0  0  0  0  0  0  0  0  0  0  0  0
  138.8423   75.8554  222.7185 H   0  0  0  0  0  0  0  0  0  0  0  0
  1  2  2  0
  2  3  1  0
  3  4  1  0
  4  5  1  0
  5  6  2  0
  5  7  1  0
  7  8  1  0
  8  9  1  0
  9 10  1  0
 10 11  1  0
 11 12  1  0
 11 13  1  0
 11 14  1  0
  2 15  1  0
 15 16  2  0
 16 17  1  0
 17 18  2  0
 18 19  1  0
 19 20  2  0
 20 21  1  0
 21 22  2  0
 22 23  1  0
 23 24  2  0
 14  7  1  0
 24 15  1  0
 23 18  1  0
  3 25  1  0
  4 26  1  0
  4 27  1  0
  8 28  1  0
  8 29  1  0
  9 30  1  0
  9 31  1  0
 10 32  1  0
 10 33  1  0
 14 34  1  0
 14 35  1  0
 16 36  1  0
 17 37  1  0
 19 38  1  0
 20 39  1  0
 21 40  1  0
 22 41  1  0
M  END
>  <smiles>  (50) 
O=C(NCC(=O)N1CCCC(F)(F)C1)c1ccc2ccccc2n1

>  <score_type>  (50) 
oracle

>  <origin>  (50) 
autodockgpu

>  <m_score__min__energy>  (50) 
-7.3099999999999996

>  <m_primary>  (50) 
energy

>  <rmsd>  (50) 
8.3119851345393

>  <m_score__min__rmsd>  (50) 
8.3119851345393

>  <meeko>  (50) 
{"free_energy": -6.72, "intermolecular_energy": -7.92, "internal_energy": -1.21, "cluster_size": 20, "cluster_id": 3, "rank_in_cluster": 16}

>  <energy>  (50) 
-6.64

>  <cluster_rmsd>  (50) 
0.0

>  <cluster>  (50) 
5

$$$$
