
     RDKit          3D

 44 46  0  0  0  0  0  0  0  0999 V2000
  142.1870   78.2750  221.2440 N   0  0  0  0  0  0  0  0  0  0  0  0
  142.0950   79.5760  221.8950 C   0  0  2  0  0  0  0  0  0  0  0  0
  142.3310   79.3340  223.3670 C   0  0  0  0  0  0  0  0  0  0  0  0
  140.9870   79.4040  224.0290 C   0  0  0  0  0  0  0  0  0  0  0  0
  140.0260   79.6010  222.9560 N   0  0  0  0  0  0  0  0  0  0  0  0
  138.6140   79.3680  223.0540 C   0  0  0  0  0  0  0  0  0  0  0  0
  137.8920   80.0510  223.8570 O   0  0  0  0  0  0  0  0  0  0  0  0
  137.9750   78.3180  222.2070 C   0  0  0  0  0  0  0  0  0  0  0  0
  139.0200   77.3850  221.8310 N   0  0  0  0  0  0  0  0  0  0  0  0
  138.8920   75.9840  222.0690 C   0  0  0  0  0  0  0  0  0  0  0  0
  137.8510   75.4900  222.6230 O   0  0  0  0  0  0  0  0  0  0  0  0
  139.9910   75.0870  221.6620 C   0  0  0  0  0  0  0  0  0  0  0  0
  139.8690   73.7320  221.8770 C   0  0  0  0  0  0  0  0  0  0  0  0
  140.9000   72.8850  221.4950 C   0  0  0  0  0  0  0  0  0  0  0  0
  142.0180   73.4640  220.9090 C   0  0  0  0  0  0  0  0  0  0  0  0
  143.0480   72.6280  220.5250 C   0  0  0  0  0  0  0  0  0  0  0  0
  144.1710   73.2060  219.9360 C   0  0  0  0  0  0  0  0  0  0  0  0
  145.4850   72.1360  219.4490 Cl  0  0  0  0  0  0  0  0  0  0  0  0
  144.2730   74.5680  219.7290 C   0  0  0  0  0  0  0  0  0  0  0  0
  143.2430   75.3940  220.1120 C   0  0  0  0  0  0  0  0  0  0  0  0
  142.1310   74.8180  220.6970 C   0  0  0  0  0  0  0  0  0  0  0  0
  141.1130   75.5930  221.0810 N   0  0  0  0  0  0  0  0  0  0  0  0
  140.6910   80.0710  221.7570 C   0  0  1  0  0  0  0  0  0  0  0  0
  140.6050   81.5820  221.7550 C   0  0  0  0  0  0  0  0  0  0  0  0
  139.2820   81.9570  221.9780 O   0  0  0  0  0  0  0  0  0  0  0  0
  143.1630   78.0410  220.9490 H   0  0  0  0  0  0  0  0  0  0  0  0
  141.8400   77.5020  221.8550 H   0  0  0  0  0  0  0  0  0  0  0  0
  142.8092   80.2922  221.4626 H   0  0  0  0  0  0  0  0  0  0  0  0
  142.7802   78.3419  223.5221 H   0  0  0  0  0  0  0  0  0  0  0  0
  143.0218   80.0795  223.7877 H   0  0  0  0  0  0  0  0  0  0  0  0
  140.7752   78.4674  224.5656 H   0  0  0  0  0  0  0  0  0  0  0  0
  140.9416   80.2181  224.7673 H   0  0  0  0  0  0  0  0  0  0  0  0
  137.1909   77.7979  222.7769 H   0  0  0  0  0  0  0  0  0  0  0  0
  137.5056   78.7625  221.3170 H   0  0  0  0  0  0  0  0  0  0  0  0
  139.9200   77.7050  221.3650 H   0  0  0  0  0  0  0  0  0  0  0  0
  138.9620   73.3246  222.3475 H   0  0  0  0  0  0  0  0  0  0  0  0
  140.8342   71.7980  221.6503 H   0  0  0  0  0  0  0  0  0  0  0  0
  142.9840   71.5407  220.6791 H   0  0  0  0  0  0  0  0  0  0  0  0
  145.1742   74.9897  219.2599 H   0  0  0  0  0  0  0  0  0  0  0  0
  143.3020   76.4815  219.9574 H   0  0  0  0  0  0  0  0  0  0  0  0
  140.2548   79.7176  220.8110 H   0  0  0  0  0  0  0  0  0  0  0  0
  141.2441   81.9897  222.5521 H   0  0  0  0  0  0  0  0  0  0  0  0
  140.9462   81.9743  220.7856 H   0  0  0  0  0  0  0  0  0  0  0  0
  138.9370   81.6500  222.8510 H   0  0  0  0  0  0  0  0  0  0  0  0
  1  2  1  0
  2  3  1  0
  3  4  1  0
  4  5  1  0
  5  6  1  0
  6  7  2  0
  6  8  1  0
  8  9  1  0
  9 10  1  0
 10 11  2  0
 10 12  1  0
 12 13  2  0
 13 14  1  0
 14 15  2  0
 15 16  1  0
 16 17  2  0
 17 18  1  0
 17 19  1  0
 19 20  2  0
 20 21  1  0
 21 22  2  0
  5 23  1  0
 23 24  1  0
 24 25  1  0
 23  2  1  0
 22 12  1  0
 21 15  1  0
  1 26  1  0
  1 27  1  0
  2 28  1  6
  3 29  1  0
  3 30  1  0
  4 31  1  0
  4 32  1  0
  8 33  1  0
  8 34  1  0
  9 35  1  0
 13 36  1  0
 14 37  1  0
 16 38  1  0
 19 39  1  0
 20 40  1  0
 23 41  1  6
 24 42  1  0
 24 43  1  0
 25 44  1  0
M  END
>  <smiles>  (1) 
N[C@@H]1CCN(C(=O)CNC(=O)c2ccc3cc(Cl)ccc3n2)[C@H]1CO

>  <score_type>  (1) 
oracle

>  <origin>  (1) 
autodockgpu

>  <m_score__min__energy>  (1) 
-7.3300000000000001

>  <m_primary>  (1) 
energy

>  <rmsd>  (1) 
6.282442835711966

>  <m_score__min__rmsd>  (1) 
6.282442835711966

>  <meeko>  (1) 
{"free_energy": -5.29, "intermolecular_energy": -7.38, "internal_energy": -3.54, "cluster_size": 7, "cluster_id": 7, "rank_in_cluster": 4}

>  <energy>  (1) 
-7.33

>  <cluster_rmsd>  (1) 
0.0

>  <cluster>  (1) 
1

$$$$

     RDKit          3D

 44 46  0  0  0  0  0  0  0  0999 V2000
  146.0240   73.1370  218.8030 N   0  0  0  0  0  0  0  0  0  0  0  0
  145.2760   73.7670  219.8830 C   0  0  2  0  0  0  0  0  0  0  0  0
  144.9150   72.6640  220.8500 C   0  0  0  0  0  0  0  0  0  0  0  0
  143.4650   72.3580  220.6230 C   0  0  0  0  0  0  0  0  0  0  0  0
  143.0500   73.2030  219.5160 N   0  0  0  0  0  0  0  0  0  0  0  0
  141.8750   73.0060  218.7170 C   0  0  0  0  0  0  0  0  0  0  0  0
  141.9670   72.6400  217.4970 O   0  0  0  0  0  0  0  0  0  0  0  0
  140.5250   73.2300  219.3150 C   0  0  0  0  0  0  0  0  0  0  0  0
  140.4220   72.3530  220.4650 N   0  0  0  0  0  0  0  0  0  0  0  0
  140.3680   72.8670  221.7950 C   0  0  0  0  0  0  0  0  0  0  0  0
  140.4080   74.1230  222.0310 O   0  0  0  0  0  0  0  0  0  0  0  0
  140.2620   71.9210  222.9230 C   0  0  0  0  0  0  0  0  0  0  0  0
  139.6840   70.6870  222.7150 C   0  0  0  0  0  0  0  0  0  0  0  0
  139.5830   69.7950  223.7730 C   0  0  0  0  0  0  0  0  0  0  0  0
  140.0780   70.2050  225.0040 C   0  0  0  0  0  0  0  0  0  0  0  0
  139.9810   69.3210  226.0620 C   0  0  0  0  0  0  0  0  0  0  0  0
  140.4780   69.7300  227.2980 C   0  0  0  0  0  0  0  0  0  0  0  0
  140.3520   68.6020  228.6460 Cl  0  0  0  0  0  0  0  0  0  0  0  0
  141.0540   70.9720  227.4850 C   0  0  0  0  0  0  0  0  0  0  0  0
  141.1470   71.8450  226.4270 C   0  0  0  0  0  0  0  0  0  0  0  0
  140.6540   71.4380  225.2020 C   0  0  0  0  0  0  0  0  0  0  0  0
  140.7290   72.2620  224.1540 N   0  0  0  0  0  0  0  0  0  0  0  0
  143.9920   74.2880  219.3230 C   0  0  1  0  0  0  0  0  0  0  0  0
  143.4660   75.4840  220.0880 C   0  0  0  0  0  0  0  0  0  0  0  0
  142.2680   75.1320  220.7050 O   0  0  0  0  0  0  0  0  0  0  0  0
  145.4030   72.6700  218.1020 H   0  0  0  0  0  0  0  0  0  0  0  0
  146.6310   73.8170  218.2930 H   0  0  0  0  0  0  0  0  0  0  0  0
  145.8557   74.5740  220.3548 H   0  0  0  0  0  0  0  0  0  0  0  0
  145.5271   71.7713  220.6542 H   0  0  0  0  0  0  0  0  0  0  0  0
  145.0992   72.9704  221.8903 H   0  0  0  0  0  0  0  0  0  0  0  0
  143.3334   71.2968  220.3650 H   0  0  0  0  0  0  0  0  0  0  0  0
  142.8651   72.5492  221.5250 H   0  0  0  0  0  0  0  0  0  0  0  0
  140.4198   74.2790  219.6289 H   0  0  0  0  0  0  0  0  0  0  0  0
  139.7308   73.0159  218.5846 H   0  0  0  0  0  0  0  0  0  0  0  0
  140.3830   71.2950  220.3660 H   0  0  0  0  0  0  0  0  0  0  0  0
  139.3062   70.4119  221.7192 H   0  0  0  0  0  0  0  0  0  0  0  0
  139.1286   68.8019  223.6418 H   0  0  0  0  0  0  0  0  0  0  0  0
  139.5266   68.3276  225.9327 H   0  0  0  0  0  0  0  0  0  0  0  0
  141.4362   71.2607  228.4752 H   0  0  0  0  0  0  0  0  0  0  0  0
  141.6009   72.8391  226.5521 H   0  0  0  0  0  0  0  0  0  0  0  0
  144.1343   74.6044  218.2791 H   0  0  0  0  0  0  0  0  0  0  0  0
  144.1992   75.7867  220.8501 H   0  0  0  0  0  0  0  0  0  0  0  0
  143.2977   76.3239  219.3979 H   0  0  0  0  0  0  0  0  0  0  0  0
  142.2290   75.4040  221.6530 H   0  0  0  0  0  0  0  0  0  0  0  0
  1  2  1  0
  2  3  1  0
  3  4  1  0
  4  5  1  0
  5  6  1  0
  6  7  2  0
  6  8  1  0
  8  9  1  0
  9 10  1  0
 10 11  2  0
 10 12  1  0
 12 13  2  0
 13 14  1  0
 14 15  2  0
 15 16  1  0
 16 17  2  0
 17 18  1  0
 17 19  1  0
 19 20  2  0
 20 21  1  0
 21 22  2  0
  5 23  1  0
 23 24  1  0
 24 25  1  0
 23  2  1  0
 22 12  1  0
 21 15  1  0
  1 26  1  0
  1 27  1  0
  2 28  1  1
  3 29  1  0
  3 30  1  0
  4 31  1  0
  4 32  1  0
  8 33  1  0
  8 34  1  0
  9 35  1  0
 13 36  1  0
 14 37  1  0
 16 38  1  0
 19 39  1  0
 20 40  1  0
 23 41  1  6
 24 42  1  0
 24 43  1  0
 25 44  1  0
M  END
>  <smiles>  (2) 
N[C@@H]1CCN(C(=O)CNC(=O)c2ccc3cc(Cl)ccc3n2)[C@H]1CO

>  <score_type>  (2) 
oracle

>  <origin>  (2) 
autodockgpu

>  <m_score__min__energy>  (2) 
-7.3300000000000001

>  <m_primary>  (2) 
energy

>  <rmsd>  (2) 
3.8405310689023495

>  <m_score__min__rmsd>  (2) 
3.8405310689023495

>  <meeko>  (2) 
{"free_energy": -7.33, "intermolecular_energy": -9.42, "internal_energy": -1.75, "cluster_size": 3, "cluster_id": 1, "rank_in_cluster": 1}

>  <energy>  (2) 
-4.77

>  <cluster_rmsd>  (2) 
1.63

>  <cluster>  (2) 
1

$$$$

     RDKit          3D

 44 46  0  0  0  0  0  0  0  0999 V2000
  142.1960   78.4890  221.2370 N   0  0  0  0  0  0  0  0  0  0  0  0
  142.2040   79.6550  222.1110 C   0  0  2  0  0  0  0  0  0  0  0  0
  142.0590   79.1310  223.5200 C   0  0  0  0  0  0  0  0  0  0  0  0
  140.6390   79.3900  223.9250 C   0  0  0  0  0  0  0  0  0  0  0  0
  139.9920   79.9670  222.7590 N   0  0  0  0  0  0  0  0  0  0  0  0
  138.5750   80.0410  222.5470 C   0  0  0  0  0  0  0  0  0  0  0  0
  137.8820   80.9750  223.0770 O   0  0  0  0  0  0  0  0  0  0  0  0
  137.8980   79.0190  221.6960 C   0  0  0  0  0  0  0  0  0  0  0  0
  138.8830   77.9970  221.3990 N   0  0  0  0  0  0  0  0  0  0  0  0
  138.8150   76.7000  221.9880 C   0  0  0  0  0  0  0  0  0  0  0  0
  137.8840   76.3810  222.8040 O   0  0  0  0  0  0  0  0  0  0  0  0
  139.8480   75.7030  221.6430 C   0  0  0  0  0  0  0  0  0  0  0  0
  139.6430   74.3800  221.9690 C   0  0  0  0  0  0  0  0  0  0  0  0
  140.6110   73.4410  221.6460 C   0  0  0  0  0  0  0  0  0  0  0  0
  141.7550   73.8970  221.0030 C   0  0  0  0  0  0  0  0  0  0  0  0
  142.7240   72.9670  220.6780 C   0  0  0  0  0  0  0  0  0  0  0  0
  143.8720   73.4230  220.0320 C   0  0  0  0  0  0  0  0  0  0  0  0
  145.1070   72.2340  219.6200 Cl  0  0  0  0  0  0  0  0  0  0  0  0
  144.0580   74.7550  219.7150 C   0  0  0  0  0  0  0  0  0  0  0  0
  143.0880   75.6730  220.0410 C   0  0  0  0  0  0  0  0  0  0  0  0
  141.9520   75.2200  220.6820 C   0  0  0  0  0  0  0  0  0  0  0  0
  140.9910   76.0870  221.0120 N   0  0  0  0  0  0  0  0  0  0  0  0
  140.9810   80.4650  221.8230 C   0  0  1  0  0  0  0  0  0  0  0  0
  141.1770   81.9370  222.1130 C   0  0  0  0  0  0  0  0  0  0  0  0
  140.0570   82.6360  221.6690 O   0  0  0  0  0  0  0  0  0  0  0  0
  142.9270   78.5400  220.4900 H   0  0  0  0  0  0  0  0  0  0  0  0
  142.3360   77.5980  221.7650 H   0  0  0  0  0  0  0  0  0  0  0  0
  143.1154   80.2549  221.9717 H   0  0  0  0  0  0  0  0  0  0  0  0
  142.2717   78.0521  223.5482 H   0  0  0  0  0  0  0  0  0  0  0  0
  142.7647   79.6257  224.2036 H   0  0  0  0  0  0  0  0  0  0  0  0
  140.1449   78.4497  224.2108 H   0  0  0  0  0  0  0  0  0  0  0  0
  140.5827   80.0633  224.7930 H   0  0  0  0  0  0  0  0  0  0  0  0
  137.0480   78.5787  222.2380 H   0  0  0  0  0  0  0  0  0  0  0  0
  137.5100   79.4716  220.7716 H   0  0  0  0  0  0  0  0  0  0  0  0
  139.6920   78.1710  220.7320 H   0  0  0  0  0  0  0  0  0  0  0  0
  138.7196   74.0714  222.4810 H   0  0  0  0  0  0  0  0  0  0  0  0
  140.4782   72.3765  221.8894 H   0  0  0  0  0  0  0  0  0  0  0  0
  142.5938   71.9021  220.9210 H   0  0  0  0  0  0  0  0  0  0  0  0
  144.9770   75.0790  219.2047 H   0  0  0  0  0  0  0  0  0  0  0  0
  143.2133   76.7385  219.7980 H   0  0  0  0  0  0  0  0  0  0  0  0
  140.7073   80.3747  220.7614 H   0  0  0  0  0  0  0  0  0  0  0  0
  141.3010   82.0870  223.1957 H   0  0  0  0  0  0  0  0  0  0  0  0
  142.0754   82.3032  221.5945 H   0  0  0  0  0  0  0  0  0  0  0  0
  139.2250   82.3580  222.1220 H   0  0  0  0  0  0  0  0  0  0  0  0
  1  2  1  0
  2  3  1  0
  3  4  1  0
  4  5  1  0
  5  6  1  0
  6  7  2  0
  6  8  1  0
  8  9  1  0
  9 10  1  0
 10 11  2  0
 10 12  1  0
 12 13  2  0
 13 14  1  0
 14 15  2  0
 15 16  1  0
 16 17  2  0
 17 18  1  0
 17 19  1  0
 19 20  2  0
 20 21  1  0
 21 22  2  0
  5 23  1  0
 23 24  1  0
 24 25  1  0
 23  2  1  0
 22 12  1  0
 21 15  1  0
  1 26  1  0
  1 27  1  0
  2 28  1  1
  3 29  1  0
  3 30  1  0
  4 31  1  0
  4 32  1  0
  8 33  1  0
  8 34  1  0
  9 35  1  0
 13 36  1  0
 14 37  1  0
 16 38  1  0
 19 39  1  0
 20 40  1  0
 23 41  1  6
 24 42  1  0
 24 43  1  0
 25 44  1  0
M  END
>  <smiles>  (3) 
N[C@@H]1CCN(C(=O)CNC(=O)c2ccc3cc(Cl)ccc3n2)[C@H]1CO

>  <score_type>  (3) 
oracle

>  <origin>  (3) 
autodockgpu

>  <m_score__min__energy>  (3) 
-7.3300000000000001

>  <m_primary>  (3) 
energy

>  <rmsd>  (3) 
6.518253008400774

>  <m_score__min__rmsd>  (3) 
6.518253008400774

>  <meeko>  (3) 
{"free_energy": -5.31, "intermolecular_energy": -7.39, "internal_energy": -3.41, "cluster_size": 7, "cluster_id": 7, "rank_in_cluster": 3}

>  <energy>  (3) 
-4.74

>  <cluster_rmsd>  (3) 
1.93

>  <cluster>  (3) 
1

$$$$

     RDKit          3D

 44 46  0  0  0  0  0  0  0  0999 V2000
  141.2260   77.6830  222.3580 N   0  0  0  0  0  0  0  0  0  0  0  0
  141.4230   78.6650  223.4170 C   0  0  2  0  0  0  0  0  0  0  0  0
  140.0510   79.1910  223.7690 C   0  0  0  0  0  0  0  0  0  0  0  0
  139.9440   80.5480  223.1410 C   0  0  0  0  0  0  0  0  0  0  0  0
  141.1790   80.7410  222.4000 N   0  0  0  0  0  0  0  0  0  0  0  0
  141.3810   81.7100  221.3610 C   0  0  0  0  0  0  0  0  0  0  0  0
  141.8190   82.8800  221.6330 O   0  0  0  0  0  0  0  0  0  0  0  0
  141.0790   81.3520  219.9440 C   0  0  0  0  0  0  0  0  0  0  0  0
  141.8090   80.1340  219.6510 N   0  0  0  0  0  0  0  0  0  0  0  0
  141.1460   78.8770  219.5260 C   0  0  0  0  0  0  0  0  0  0  0  0
  139.8800   78.7700  219.6650 O   0  0  0  0  0  0  0  0  0  0  0  0
  141.9470   77.6740  219.2250 C   0  0  0  0  0  0  0  0  0  0  0  0
  142.6380   77.6060  218.0350 C   0  0  0  0  0  0  0  0  0  0  0  0
  143.3930   76.4770  217.7500 C   0  0  0  0  0  0  0  0  0  0  0  0
  143.4060   75.4610  218.6960 C   0  0  0  0  0  0  0  0  0  0  0  0
  144.1540   74.3330  218.4180 C   0  0  0  0  0  0  0  0  0  0  0  0
  144.1700   73.3120  219.3670 C   0  0  0  0  0  0  0  0  0  0  0  0
  145.1250   71.8750  219.0100 Cl  0  0  0  0  0  0  0  0  0  0  0  0
  143.4680   73.4010  220.5540 C   0  0  0  0  0  0  0  0  0  0  0  0
  142.7270   74.5270  220.8230 C   0  0  0  0  0  0  0  0  0  0  0  0
  142.7120   75.5370  219.8810 C   0  0  0  0  0  0  0  0  0  0  0  0
  142.0010   76.6440  220.1120 N   0  0  0  0  0  0  0  0  0  0  0  0
  142.1950   79.8130  222.8540 C   0  0  1  0  0  0  0  0  0  0  0  0
  143.0230   80.5270  223.9020 C   0  0  0  0  0  0  0  0  0  0  0  0
  142.3880   81.7200  224.2400 O   0  0  0  0  0  0  0  0  0  0  0  0
  140.9390   78.1200  221.4520 H   0  0  0  0  0  0  0  0  0  0  0  0
  142.0840   77.1110  222.1840 H   0  0  0  0  0  0  0  0  0  0  0  0
  141.9448   78.2258  224.2800 H   0  0  0  0  0  0  0  0  0  0  0  0
  139.2735   78.5240  223.3683 H   0  0  0  0  0  0  0  0  0  0  0  0
  139.9117   79.2439  224.8589 H   0  0  0  0  0  0  0  0  0  0  0  0
  139.0797   80.5885  222.4618 H   0  0  0  0  0  0  0  0  0  0  0  0
  139.7993   81.3334  223.8974 H   0  0  0  0  0  0  0  0  0  0  0  0
  139.9990   81.1849  219.8183 H   0  0  0  0  0  0  0  0  0  0  0  0
  141.3763   82.1622  219.2619 H   0  0  0  0  0  0  0  0  0  0  0  0
  142.8640   80.1270  219.5180 H   0  0  0  0  0  0  0  0  0  0  0  0
  142.5917   78.4386  217.3177 H   0  0  0  0  0  0  0  0  0  0  0  0
  143.9592   76.3905  216.8109 H   0  0  0  0  0  0  0  0  0  0  0  0
  144.7186   74.2435  217.4782 H   0  0  0  0  0  0  0  0  0  0  0  0
  143.5020   72.5751  221.2798 H   0  0  0  0  0  0  0  0  0  0  0  0
  142.1619   74.6211  221.7620 H   0  0  0  0  0  0  0  0  0  0  0  0
  142.8868   79.4593  222.0754 H   0  0  0  0  0  0  0  0  0  0  0  0
  143.1162   79.8919  224.7953 H   0  0  0  0  0  0  0  0  0  0  0  0
  144.0271   80.7376  223.5052 H   0  0  0  0  0  0  0  0  0  0  0  0
  142.2890   82.3340  223.4730 H   0  0  0  0  0  0  0  0  0  0  0  0
  1  2  1  0
  2  3  1  0
  3  4  1  0
  4  5  1  0
  5  6  1  0
  6  7  2  0
  6  8  1  0
  8  9  1  0
  9 10  1  0
 10 11  2  0
 10 12  1  0
 12 13  2  0
 13 14  1  0
 14 15  2  0
 15 16  1  0
 16 17  2  0
 17 18  1  0
 17 19  1  0
 19 20  2  0
 20 21  1  0
 21 22  2  0
  5 23  1  0
 23 24  1  0
 24 25  1  0
 23  2  1  0
 22 12  1  0
 21 15  1  0
  1 26  1  0
  1 27  1  0
  2 28  1  1
  3 29  1  0
  3 30  1  0
  4 31  1  0
  4 32  1  0
  8 33  1  0
  8 34  1  0
  9 35  1  0
 13 36  1  0
 14 37  1  0
 16 38  1  0
 19 39  1  0
 20 40  1  0
 23 41  1  6
 24 42  1  0
 24 43  1  0
 25 44  1  0
M  END
>  <smiles>  (4) 
N[C@@H]1CCN(C(=O)CNC(=O)c2ccc3cc(Cl)ccc3n2)[C@H]1CO

>  <score_type>  (4) 
oracle

>  <origin>  (4) 
autodockgpu

>  <m_score__min__energy>  (4) 
-7.3300000000000001

>  <m_primary>  (4) 
energy

>  <rmsd>  (4) 
8.178314866841868

>  <m_score__min__rmsd>  (4) 
8.178314866841868

>  <meeko>  (4) 
{"free_energy": -5.16, "intermolecular_energy": -7.25, "internal_energy": -3.73, "cluster_size": 8, "cluster_id": 6, "rank_in_cluster": 5}

>  <energy>  (4) 
-7.19

>  <cluster_rmsd>  (4) 
0.0

>  <cluster>  (4) 
2

$$$$

     RDKit          3D

 44 46  0  0  0  0  0  0  0  0999 V2000
  142.1450   78.2800  221.1850 N   0  0  0  0  0  0  0  0  0  0  0  0
  142.1630   79.5450  221.9080 C   0  0  2  0  0  0  0  0  0  0  0  0
  142.2600   79.1950  223.3740 C   0  0  0  0  0  0  0  0  0  0  0  0
  140.8900   79.3960  223.9500 C   0  0  0  0  0  0  0  0  0  0  0  0
  140.0400   79.7690  222.8320 N   0  0  0  0  0  0  0  0  0  0  0  0
  138.6070   79.7100  222.8220 C   0  0  0  0  0  0  0  0  0  0  0  0
  137.9080   80.6870  223.2560 O   0  0  0  0  0  0  0  0  0  0  0  0
  137.9200   78.4930  222.2970 C   0  0  0  0  0  0  0  0  0  0  0  0
  138.9560   77.5500  221.9240 N   0  0  0  0  0  0  0  0  0  0  0  0
  138.7900   76.1450  222.1120 C   0  0  0  0  0  0  0  0  0  0  0  0
  137.7220   75.6570  222.6160 O   0  0  0  0  0  0  0  0  0  0  0  0
  139.8830   75.2370  221.7100 C   0  0  0  0  0  0  0  0  0  0  0  0
  139.7600   73.8860  221.9570 C   0  0  0  0  0  0  0  0  0  0  0  0
  140.7850   73.0300  221.5800 C   0  0  0  0  0  0  0  0  0  0  0  0
  141.8960   73.5940  220.9680 C   0  0  0  0  0  0  0  0  0  0  0  0
  142.9210   72.7470  220.5900 C   0  0  0  0  0  0  0  0  0  0  0  0
  144.0370   73.3100  219.9740 C   0  0  0  0  0  0  0  0  0  0  0  0
  145.3430   72.2270  219.4950 Cl  0  0  0  0  0  0  0  0  0  0  0  0
  144.1390   74.6680  219.7380 C   0  0  0  0  0  0  0  0  0  0  0  0
  143.1150   75.5030  220.1150 C   0  0  0  0  0  0  0  0  0  0  0  0
  142.0100   74.9430  220.7260 C   0  0  0  0  0  0  0  0  0  0  0  0
  140.9980   75.7270  221.1050 N   0  0  0  0  0  0  0  0  0  0  0  0
  140.8430   80.2170  221.7100 C   0  0  1  0  0  0  0  0  0  0  0  0
  140.9390   81.7250  221.7980 C   0  0  0  0  0  0  0  0  0  0  0  0
  139.6830   82.2720  221.5450 O   0  0  0  0  0  0  0  0  0  0  0  0
  142.9790   78.1580  220.5660 H   0  0  0  0  0  0  0  0  0  0  0  0
  142.0960   77.4580  221.8280 H   0  0  0  0  0  0  0  0  0  0  0  0
  142.9873   80.1896  221.5689 H   0  0  0  0  0  0  0  0  0  0  0  0
  142.5734   78.1475  223.4949 H   0  0  0  0  0  0  0  0  0  0  0  0
  143.0033   79.8242  223.8854 H   0  0  0  0  0  0  0  0  0  0  0  0
  140.5286   78.4654  224.4119 H   0  0  0  0  0  0  0  0  0  0  0  0
  140.8900   80.1684  224.7332 H   0  0  0  0  0  0  0  0  0  0  0  0
  137.2752   78.0579  223.0748 H   0  0  0  0  0  0  0  0  0  0  0  0
  137.2857   78.7417  221.4334 H   0  0  0  0  0  0  0  0  0  0  0  0
  139.8770   77.8640  221.4970 H   0  0  0  0  0  0  0  0  0  0  0  0
  138.8584   73.4908  222.4479 H   0  0  0  0  0  0  0  0  0  0  0  0
  140.7197   71.9466  221.7591 H   0  0  0  0  0  0  0  0  0  0  0  0
  142.8577   71.6636  220.7696 H   0  0  0  0  0  0  0  0  0  0  0  0
  145.0357   75.0784  219.2507 H   0  0  0  0  0  0  0  0  0  0  0  0
  143.1735   76.5866  219.9354 H   0  0  0  0  0  0  0  0  0  0  0  0
  140.4380   79.9721  220.7170 H   0  0  0  0  0  0  0  0  0  0  0  0
  141.2724   82.0158  222.8051 H   0  0  0  0  0  0  0  0  0  0  0  0
  141.6635   82.0964  221.0583 H   0  0  0  0  0  0  0  0  0  0  0  0
  139.0000   81.9850  222.1980 H   0  0  0  0  0  0  0  0  0  0  0  0
  1  2  1  0
  2  3  1  0
  3  4  1  0
  4  5  1  0
  5  6  1  0
  6  7  2  0
  6  8  1  0
  8  9  1  0
  9 10  1  0
 10 11  2  0
 10 12  1  0
 12 13  2  0
 13 14  1  0
 14 15  2  0
 15 16  1  0
 16 17  2  0
 17 18  1  0
 17 19  1  0
 19 20  2  0
 20 21  1  0
 21 22  2  0
  5 23  1  0
 23 24  1  0
 24 25  1  0
 23  2  1  0
 22 12  1  0
 21 15  1  0
  1 26  1  0
  1 27  1  0
  2 28  1  6
  3 29  1  0
  3 30  1  0
  4 31  1  0
  4 32  1  0
  8 33  1  0
  8 34  1  0
  9 35  1  0
 13 36  1  0
 14 37  1  0
 16 38  1  0
 19 39  1  0
 20 40  1  0
 23 41  1  6
 24 42  1  0
 24 43  1  0
 25 44  1  0
M  END
>  <smiles>  (5) 
N[C@@H]1CCN(C(=O)CNC(=O)c2ccc3cc(Cl)ccc3n2)[C@H]1CO

>  <score_type>  (5) 
oracle

>  <origin>  (5) 
autodockgpu

>  <m_score__min__energy>  (5) 
-7.3300000000000001

>  <m_primary>  (5) 
energy

>  <rmsd>  (5) 
6.331823718148905

>  <m_score__min__rmsd>  (5) 
6.331823718148905

>  <meeko>  (5) 
{"free_energy": -5.33, "intermolecular_energy": -7.42, "internal_energy": -3.61, "cluster_size": 7, "cluster_id": 7, "rank_in_cluster": 2}

>  <energy>  (5) 
-6.8

>  <cluster_rmsd>  (5) 
1.56

>  <cluster>  (5) 
2

$$$$

     RDKit          3D

 44 46  0  0  0  0  0  0  0  0999 V2000
  142.5860   75.6740  220.4170 N   0  0  0  0  0  0  0  0  0  0  0  0
  143.8620   75.3130  219.8130 C   0  0  2  0  0  0  0  0  0  0  0  0
  143.6240   75.2480  218.3220 C   0  0  0  0  0  0  0  0  0  0  0  0
  143.5510   73.7920  217.9680 C   0  0  0  0  0  0  0  0  0  0  0  0
  143.6660   73.0720  219.2250 N   0  0  0  0  0  0  0  0  0  0  0  0
  143.2920   71.7020  219.4340 C   0  0  0  0  0  0  0  0  0  0  0  0
  143.9890   70.7510  218.9400 O   0  0  0  0  0  0  0  0  0  0  0  0
  142.0770   71.3800  220.2380 C   0  0  0  0  0  0  0  0  0  0  0  0
  141.4960   72.6430  220.6500 N   0  0  0  0  0  0  0  0  0  0  0  0
  140.2650   72.7000  221.3700 C   0  0  0  0  0  0  0  0  0  0  0  0
  139.6210   71.6400  221.6820 O   0  0  0  0  0  0  0  0  0  0  0  0
  139.7270   74.0170  221.7620 C   0  0  0  0  0  0  0  0  0  0  0  0
  138.3660   74.1690  221.9180 C   0  0  0  0  0  0  0  0  0  0  0  0
  137.8560   75.4050  222.2870 C   0  0  0  0  0  0  0  0  0  0  0  0
  138.7640   76.4390  222.4790 C   0  0  0  0  0  0  0  0  0  0  0  0
  138.2640   77.6740  222.8460 C   0  0  0  0  0  0  0  0  0  0  0  0
  139.1730   78.7120  223.0400 C   0  0  0  0  0  0  0  0  0  0  0  0
  138.5320   80.2860  223.5080 Cl  0  0  0  0  0  0  0  0  0  0  0  0
  140.5340   78.5380  222.8770 C   0  0  0  0  0  0  0  0  0  0  0  0
  141.0230   77.3060  222.5120 C   0  0  0  0  0  0  0  0  0  0  0  0
  140.1200   76.2790  222.3200 C   0  0  0  0  0  0  0  0  0  0  0  0
  140.5640   75.0700  221.9650 N   0  0  0  0  0  0  0  0  0  0  0  0
  144.2160   73.9300  220.2550 C   0  0  1  0  0  0  0  0  0  0  0  0
  145.7110   73.6950  220.2890 C   0  0  0  0  0  0  0  0  0  0  0  0
  146.0110   72.5970  219.4850 O   0  0  0  0  0  0  0  0  0  0  0  0
  141.8000   75.0640  220.0930 H   0  0  0  0  0  0  0  0  0  0  0  0
  142.6170   75.6350  221.4600 H   0  0  0  0  0  0  0  0  0  0  0  0
  144.6518   76.0279  220.0871 H   0  0  0  0  0  0  0  0  0  0  0  0
  142.6794   75.7498  218.0653 H   0  0  0  0  0  0  0  0  0  0  0  0
  144.4282   75.7535  217.7673 H   0  0  0  0  0  0  0  0  0  0  0  0
  142.5908   73.5637  217.4824 H   0  0  0  0  0  0  0  0  0  0  0  0
  144.3465   73.5064  217.2639 H   0  0  0  0  0  0  0  0  0  0  0  0
  141.3581   70.8147  219.6268 H   0  0  0  0  0  0  0  0  0  0  0  0
  142.3355   70.7628  221.1110 H   0  0  0  0  0  0  0  0  0  0  0  0
  141.9610   73.5740  220.4350 H   0  0  0  0  0  0  0  0  0  0  0  0
  137.6900   73.3174  221.7513 H   0  0  0  0  0  0  0  0  0  0  0  0
  136.7755   75.5604  222.4223 H   0  0  0  0  0  0  0  0  0  0  0  0
  137.1838   77.8323  222.9805 H   0  0  0  0  0  0  0  0  0  0  0  0
  141.2225   79.3806  223.0384 H   0  0  0  0  0  0  0  0  0  0  0  0
  142.1024   77.1430  222.3768 H   0  0  0  0  0  0  0  0  0  0  0  0
  143.8333   73.7464  221.2698 H   0  0  0  0  0  0  0  0  0  0  0  0
  146.2340   74.5852  219.9094 H   0  0  0  0  0  0  0  0  0  0  0  0
  146.0358   73.5019  221.3221 H   0  0  0  0  0  0  0  0  0  0  0  0
  145.3470   72.4500  218.7700 H   0  0  0  0  0  0  0  0  0  0  0  0
  1  2  1  0
  2  3  1  0
  3  4  1  0
  4  5  1  0
  5  6  1  0
  6  7  2  0
  6  8  1  0
  8  9  1  0
  9 10  1  0
 10 11  2  0
 10 12  1  0
 12 13  2  0
 13 14  1  0
 14 15  2  0
 15 16  1  0
 16 17  2  0
 17 18  1  0
 17 19  1  0
 19 20  2  0
 20 21  1  0
 21 22  2  0
  5 23  1  0
 23 24  1  0
 24 25  1  0
 23  2  1  0
 22 12  1  0
 21 15  1  0
  1 26  1  0
  1 27  1  0
  2 28  1  6
  3 29  1  0
  3 30  1  0
  4 31  1  0
  4 32  1  0
  8 33  1  0
  8 34  1  0
  9 35  1  0
 13 36  1  0
 14 37  1  0
 16 38  1  0
 19 39  1  0
 20 40  1  0
 23 41  1  1
 24 42  1  0
 24 43  1  0
 25 44  1  0
M  END
>  <smiles>  (6) 
N[C@@H]1CCN(C(=O)CNC(=O)c2ccc3cc(Cl)ccc3n2)[C@H]1CO

>  <score_type>  (6) 
oracle

>  <origin>  (6) 
autodockgpu

>  <m_score__min__energy>  (6) 
-7.3300000000000001

>  <m_primary>  (6) 
energy

>  <rmsd>  (6) 
6.1362732381560345

>  <m_score__min__rmsd>  (6) 
6.1362732381560345

>  <meeko>  (6) 
{"free_energy": -5.15, "intermolecular_energy": -7.24, "internal_energy": -3.81, "cluster_size": 14, "cluster_id": 4, "rank_in_cluster": 13}

>  <energy>  (6) 
-6.33

>  <cluster_rmsd>  (6) 
0.0

>  <cluster>  (6) 
3

$$$$

     RDKit          3D

 44 46  0  0  0  0  0  0  0  0999 V2000
  138.8690   80.2650  224.1330 N   0  0  0  0  0  0  0  0  0  0  0  0
  140.0920   80.8990  223.6580 C   0  0  2  0  0  0  0  0  0  0  0  0
  139.7730   81.4760  222.2990 C   0  0  0  0  0  0  0  0  0  0  0  0
  140.3890   80.5520  221.2910 C   0  0  0  0  0  0  0  0  0  0  0  0
  140.9640   79.4580  222.0550 N   0  0  0  0  0  0  0  0  0  0  0  0
  141.3330   78.1780  221.5230 C   0  0  0  0  0  0  0  0  0  0  0  0
  142.2150   78.0800  220.6040 O   0  0  0  0  0  0  0  0  0  0  0  0
  140.6810   76.9420  222.0480 C   0  0  0  0  0  0  0  0  0  0  0  0
  141.4290   75.8150  221.5260 N   0  0  0  0  0  0  0  0  0  0  0  0
  140.9230   74.4830  221.5990 C   0  0  0  0  0  0  0  0  0  0  0  0
  139.7880   74.2250  222.1280 O   0  0  0  0  0  0  0  0  0  0  0  0
  141.7330   73.3790  221.0480 C   0  0  0  0  0  0  0  0  0  0  0  0
  141.1220   72.1820  220.7440 C   0  0  0  0  0  0  0  0  0  0  0  0
  141.8800   71.1430  220.2250 C   0  0  0  0  0  0  0  0  0  0  0  0
  143.2370   71.3720  220.0400 C   0  0  0  0  0  0  0  0  0  0  0  0
  143.9990   70.3410  219.5240 C   0  0  0  0  0  0  0  0  0  0  0  0
  145.3610   70.5700  219.3360 C   0  0  0  0  0  0  0  0  0  0  0  0
  146.3300   69.2520  218.6780 Cl  0  0  0  0  0  0  0  0  0  0  0  0
  145.9540   71.7780  219.6470 C   0  0  0  0  0  0  0  0  0  0  0  0
  145.1880   72.7990  220.1600 C   0  0  0  0  0  0  0  0  0  0  0  0
  143.8390   72.5700  220.3450 C   0  0  0  0  0  0  0  0  0  0  0  0
  143.0680   73.5420  220.8420 N   0  0  0  0  0  0  0  0  0  0  0  0
  141.1200   79.8360  223.4460 C   0  0  1  0  0  0  0  0  0  0  0  0
  142.5340   80.3490  223.6190 C   0  0  0  0  0  0  0  0  0  0  0  0
  143.1680   80.3470  222.3790 O   0  0  0  0  0  0  0  0  0  0  0  0
  138.1790   80.9540  224.5120 H   0  0  0  0  0  0  0  0  0  0  0  0
  138.3950   79.7110  223.3850 H   0  0  0  0  0  0  0  0  0  0  0  0
  140.4517   81.6580  224.3683 H   0  0  0  0  0  0  0  0  0  0  0  0
  138.6839   81.5263  222.1532 H   0  0  0  0  0  0  0  0  0  0  0  0
  140.1679   82.4976  222.1970 H   0  0  0  0  0  0  0  0  0  0  0  0
  139.6220   80.1741  220.5990 H   0  0  0  0  0  0  0  0  0  0  0  0
  141.1494   81.0648  220.6838 H   0  0  0  0  0  0  0  0  0  0  0  0
  140.7093   76.9377  223.1476 H   0  0  0  0  0  0  0  0  0  0  0  0
  139.6269   76.8916  221.7378 H   0  0  0  0  0  0  0  0  0  0  0  0
  142.3810   75.9340  221.0680 H   0  0  0  0  0  0  0  0  0  0  0  0
  140.0427   72.0516  220.9115 H   0  0  0  0  0  0  0  0  0  0  0  0
  141.4239   70.1751  219.9698 H   0  0  0  0  0  0  0  0  0  0  0  0
  143.5456   69.3715  219.2700 H   0  0  0  0  0  0  0  0  0  0  0  0
  147.0324   71.9228  219.4854 H   0  0  0  0  0  0  0  0  0  0  0  0
  145.6373   73.7700  220.4155 H   0  0  0  0  0  0  0  0  0  0  0  0
  140.9775   79.0214  224.1714 H   0  0  0  0  0  0  0  0  0  0  0  0
  142.5091   81.3731  224.0196 H   0  0  0  0  0  0  0  0  0  0  0  0
  143.0826   79.7025  224.3198 H   0  0  0  0  0  0  0  0  0  0  0  0
  143.2230   79.4470  221.9770 H   0  0  0  0  0  0  0  0  0  0  0  0
  1  2  1  0
  2  3  1  0
  3  4  1  0
  4  5  1  0
  5  6  1  0
  6  7  2  0
  6  8  1  0
  8  9  1  0
  9 10  1  0
 10 11  2  0
 10 12  1  0
 12 13  2  0
 13 14  1  0
 14 15  2  0
 15 16  1  0
 16 17  2  0
 17 18  1  0
 17 19  1  0
 19 20  2  0
 20 21  1  0
 21 22  2  0
  5 23  1  0
 23 24  1  0
 24 25  1  0
 23  2  1  0
 22 12  1  0
 21 15  1  0
  1 26  1  0
  1 27  1  0
  2 28  1  1
  3 29  1  0
  3 30  1  0
  4 31  1  0
  4 32  1  0
  8 33  1  0
  8 34  1  0
  9 35  1  0
 13 36  1  0
 14 37  1  0
 16 38  1  0
 19 39  1  0
 20 40  1  0
 23 41  1  1
 24 42  1  0
 24 43  1  0
 25 44  1  0
M  END
>  <smiles>  (7) 
N[C@@H]1CCN(C(=O)CNC(=O)c2ccc3cc(Cl)ccc3n2)[C@H]1CO

>  <score_type>  (7) 
oracle

>  <origin>  (7) 
autodockgpu

>  <m_score__min__energy>  (7) 
-7.3300000000000001

>  <m_primary>  (7) 
energy

>  <rmsd>  (7) 
6.286222726338277

>  <m_score__min__rmsd>  (7) 
6.286222726338277

>  <meeko>  (7) 
{"free_energy": -5.77, "intermolecular_energy": -7.86, "internal_energy": -2.42, "cluster_size": 1, "cluster_id": 5, "rank_in_cluster": 1}

>  <energy>  (7) 
-5.92

>  <cluster_rmsd>  (7) 
1.8

>  <cluster>  (7) 
3

$$$$

     RDKit          3D

 44 46  0  0  0  0  0  0  0  0999 V2000
  141.4380   76.7570  221.2390 N   0  0  0  0  0  0  0  0  0  0  0  0
  141.0480   77.5030  222.4290 C   0  0  2  0  0  0  0  0  0  0  0  0
  139.5660   77.7620  222.3020 C   0  0  0  0  0  0  0  0  0  0  0  0
  139.4200   79.1990  221.8970 C   0  0  0  0  0  0  0  0  0  0  0  0
  140.7720   79.7030  221.7280 N   0  0  0  0  0  0  0  0  0  0  0  0
  141.1310   80.8920  221.0090 C   0  0  0  0  0  0  0  0  0  0  0  0
  140.9580   82.0470  221.5270 O   0  0  0  0  0  0  0  0  0  0  0  0
  141.7160   80.7820  219.6400 C   0  0  0  0  0  0  0  0  0  0  0  0
  142.2130   79.4270  219.5000 N   0  0  0  0  0  0  0  0  0  0  0  0
  142.2970   78.7900  218.2270 C   0  0  0  0  0  0  0  0  0  0  0  0
  141.9380   79.3850  217.1540 O   0  0  0  0  0  0  0  0  0  0  0  0
  142.8130   77.4090  218.1510 C   0  0  0  0  0  0  0  0  0  0  0  0
  142.9060   76.7910  216.9230 C   0  0  0  0  0  0  0  0  0  0  0  0
  143.3910   75.4930  216.8480 C   0  0  0  0  0  0  0  0  0  0  0  0
  143.7600   74.8790  218.0380 C   0  0  0  0  0  0  0  0  0  0  0  0
  144.2440   73.5870  217.9720 C   0  0  0  0  0  0  0  0  0  0  0  0
  144.6150   72.9690  219.1650 C   0  0  0  0  0  0  0  0  0  0  0  0
  145.2310   71.3200  219.0770 Cl  0  0  0  0  0  0  0  0  0  0  0  0
  144.5130   73.6070  220.3860 C   0  0  0  0  0  0  0  0  0  0  0  0
  144.0310   74.8930  220.4430 C   0  0  0  0  0  0  0  0  0  0  0  0
  143.6630   75.5040  219.2600 C   0  0  0  0  0  0  0  0  0  0  0  0
  143.1910   76.7530  219.2810 N   0  0  0  0  0  0  0  0  0  0  0  0
  141.7250   78.8350  222.3900 C   0  0  1  0  0  0  0  0  0  0  0  0
  141.9690   79.4040  223.7720 C   0  0  0  0  0  0  0  0  0  0  0  0
  141.2470   80.5860  223.9060 O   0  0  0  0  0  0  0  0  0  0  0  0
  141.3580   77.3250  220.3640 H   0  0  0  0  0  0  0  0  0  0  0  0
  142.4160   76.3960  221.3020 H   0  0  0  0  0  0  0  0  0  0  0  0
  141.3069   76.9566  223.3479 H   0  0  0  0  0  0  0  0  0  0  0  0
  139.1293   77.1046  221.5358 H   0  0  0  0  0  0  0  0  0  0  0  0
  139.0434   77.5595  223.2485 H   0  0  0  0  0  0  0  0  0  0  0  0
  138.8619   79.2757  220.9522 H   0  0  0  0  0  0  0  0  0  0  0  0
  138.8641   79.7769  222.6500 H   0  0  0  0  0  0  0  0  0  0  0  0
  140.9442   80.9817  218.8820 H   0  0  0  0  0  0  0  0  0  0  0  0
  142.5249   81.5139  219.4984 H   0  0  0  0  0  0  0  0  0  0  0  0
  142.5350   78.8560  220.3370 H   0  0  0  0  0  0  0  0  0  0  0  0
  142.5985   77.3219  216.0100 H   0  0  0  0  0  0  0  0  0  0  0  0
  143.4798   74.9708  215.8839 H   0  0  0  0  0  0  0  0  0  0  0  0
  144.3338   73.0628  217.0091 H   0  0  0  0  0  0  0  0  0  0  0  0
  144.8159   73.0887  221.3077 H   0  0  0  0  0  0  0  0  0  0  0  0
  143.9408   75.4209  221.4038 H   0  0  0  0  0  0  0  0  0  0  0  0
  142.7029   78.7489  221.8937 H   0  0  0  0  0  0  0  0  0  0  0  0
  141.6388   78.6812  224.5326 H   0  0  0  0  0  0  0  0  0  0  0  0
  143.0419   79.6047  223.9086 H   0  0  0  0  0  0  0  0  0  0  0  0
  141.5200   81.2800  223.2580 H   0  0  0  0  0  0  0  0  0  0  0  0
  1  2  1  0
  2  3  1  0
  3  4  1  0
  4  5  1  0
  5  6  1  0
  6  7  2  0
  6  8  1  0
  8  9  1  0
  9 10  1  0
 10 11  2  0
 10 12  1  0
 12 13  2  0
 13 14  1  0
 14 15  2  0
 15 16  1  0
 16 17  2  0
 17 18  1  0
 17 19  1  0
 19 20  2  0
 20 21  1  0
 21 22  2  0
  5 23  1  0
 23 24  1  0
 24 25  1  0
 23  2  1  0
 22 12  1  0
 21 15  1  0
  1 26  1  0
  1 27  1  0
  2 28  1  1
  3 29  1  0
  3 30  1  0
  4 31  1  0
  4 32  1  0
  8 33  1  0
  8 34  1  0
  9 35  1  0
 13 36  1  0
 14 37  1  0
 16 38  1  0
 19 39  1  0
 20 40  1  0
 23 41  1  6
 24 42  1  0
 24 43  1  0
 25 44  1  0
M  END
>  <smiles>  (8) 
N[C@@H]1CCN(C(=O)CNC(=O)c2ccc3cc(Cl)ccc3n2)[C@H]1CO

>  <score_type>  (8) 
oracle

>  <origin>  (8) 
autodockgpu

>  <m_score__min__energy>  (8) 
-7.3300000000000001

>  <m_primary>  (8) 
energy

>  <rmsd>  (8) 
7.954599571784505

>  <m_score__min__rmsd>  (8) 
7.954599571784505

>  <meeko>  (8) 
{"free_energy": -4.99, "intermolecular_energy": -7.08, "internal_energy": -3.79, "cluster_size": 8, "cluster_id": 6, "rank_in_cluster": 8}

>  <energy>  (8) 
-5.45

>  <cluster_rmsd>  (8) 
1.6

>  <cluster>  (8) 
3

$$$$

     RDKit          3D

 44 46  0  0  0  0  0  0  0  0999 V2000
  142.5470   75.6480  220.4120 N   0  0  0  0  0  0  0  0  0  0  0  0
  143.8410   75.2520  219.8720 C   0  0  2  0  0  0  0  0  0  0  0  0
  143.6380   75.0470  218.3890 C   0  0  0  0  0  0  0  0  0  0  0  0
  143.5930   73.5650  218.1680 C   0  0  0  0  0  0  0  0  0  0  0  0
  143.6880   72.9640  219.4880 N   0  0  0  0  0  0  0  0  0  0  0  0
  143.3280   71.6140  219.8140 C   0  0  0  0  0  0  0  0  0  0  0  0
  144.0660   70.6350  219.4540 O   0  0  0  0  0  0  0  0  0  0  0  0
  142.0780   71.3460  220.5840 C   0  0  0  0  0  0  0  0  0  0  0  0
  141.5300   72.6340  220.9620 N   0  0  0  0  0  0  0  0  0  0  0  0
  140.1820   72.7700  221.4100 C   0  0  0  0  0  0  0  0  0  0  0  0
  139.4000   71.7630  221.4980 O   0  0  0  0  0  0  0  0  0  0  0  0
  139.6850   74.1090  221.7820 C   0  0  0  0  0  0  0  0  0  0  0  0
  138.3260   74.3160  221.8920 C   0  0  0  0  0  0  0  0  0  0  0  0
  137.8550   75.5730  222.2420 C   0  0  0  0  0  0  0  0  0  0  0  0
  138.7970   76.5700  222.4630 C   0  0  0  0  0  0  0  0  0  0  0  0
  138.3350   77.8240  222.8110 C   0  0  0  0  0  0  0  0  0  0  0  0
  139.2780   78.8260  223.0350 C   0  0  0  0  0  0  0  0  0  0  0  0
  138.6860   80.4260  223.4780 Cl  0  0  0  0  0  0  0  0  0  0  0  0
  140.6360   78.5970  222.9180 C   0  0  0  0  0  0  0  0  0  0  0  0
  141.0870   77.3450  222.5720 C   0  0  0  0  0  0  0  0  0  0  0  0
  140.1500   76.3540  222.3510 C   0  0  0  0  0  0  0  0  0  0  0  0
  140.5560   75.1270  222.0130 N   0  0  0  0  0  0  0  0  0  0  0  0
  144.2030   73.9210  220.4470 C   0  0  1  0  0  0  0  0  0  0  0  0
  145.7000   73.7130  220.5340 C   0  0  0  0  0  0  0  0  0  0  0  0
  146.1760   73.3410  219.2790 O   0  0  0  0  0  0  0  0  0  0  0  0
  141.7860   74.9710  220.1720 H   0  0  0  0  0  0  0  0  0  0  0  0
  142.5690   75.7550  221.4520 H   0  0  0  0  0  0  0  0  0  0  0  0
  144.6151   76.0006  220.0964 H   0  0  0  0  0  0  0  0  0  0  0  0
  142.6927   75.5084  218.0672 H   0  0  0  0  0  0  0  0  0  0  0  0
  144.4480   75.5121  217.8079 H   0  0  0  0  0  0  0  0  0  0  0  0
  142.6477   73.2786  217.6840 H   0  0  0  0  0  0  0  0  0  0  0  0
  144.4086   73.2290  217.5108 H   0  0  0  0  0  0  0  0  0  0  0  0
  141.3585   70.7981  219.9578 H   0  0  0  0  0  0  0  0  0  0  0  0
  142.2876   70.7320  221.4723 H   0  0  0  0  0  0  0  0  0  0  0  0
  142.1070   73.5250  220.9220 H   0  0  0  0  0  0  0  0  0  0  0  0
  137.6220   73.4920  221.7039 H   0  0  0  0  0  0  0  0  0  0  0  0
  136.7778   75.7726  222.3407 H   0  0  0  0  0  0  0  0  0  0  0  0
  137.2580   78.0257  222.9083 H   0  0  0  0  0  0  0  0  0  0  0  0
  141.3520   79.4118  223.1007 H   0  0  0  0  0  0  0  0  0  0  0  0
  142.1630   77.1383  222.4740 H   0  0  0  0  0  0  0  0  0  0  0  0
  143.7998   73.8252  221.4660 H   0  0  0  0  0  0  0  0  0  0  0  0
  146.1852   74.6479  220.8510 H   0  0  0  0  0  0  0  0  0  0  0  0
  145.9254   72.9249  221.2675 H   0  0  0  0  0  0  0  0  0  0  0  0
  146.2640   74.1040  218.6590 H   0  0  0  0  0  0  0  0  0  0  0  0
  1  2  1  0
  2  3  1  0
  3  4  1  0
  4  5  1  0
  5  6  1  0
  6  7  2  0
  6  8  1  0
  8  9  1  0
  9 10  1  0
 10 11  2  0
 10 12  1  0
 12 13  2  0
 13 14  1  0
 14 15  2  0
 15 16  1  0
 16 17  2  0
 17 18  1  0
 17 19  1  0
 19 20  2  0
 20 21  1  0
 21 22  2  0
  5 23  1  0
 23 24  1  0
 24 25  1  0
 23  2  1  0
 22 12  1  0
 21 15  1  0
  1 26  1  0
  1 27  1  0
  2 28  1  6
  3 29  1  0
  3 30  1  0
  4 31  1  0
  4 32  1  0
  8 33  1  0
  8 34  1  0
  9 35  1  0
 13 36  1  0
 14 37  1  0
 16 38  1  0
 19 39  1  0
 20 40  1  0
 23 41  1  1
 24 42  1  0
 24 43  1  0
 25 44  1  0
M  END
>  <smiles>  (9) 
N[C@@H]1CCN(C(=O)CNC(=O)c2ccc3cc(Cl)ccc3n2)[C@H]1CO

>  <score_type>  (9) 
oracle

>  <origin>  (9) 
autodockgpu

>  <m_score__min__energy>  (9) 
-7.3300000000000001

>  <m_primary>  (9) 
energy

>  <rmsd>  (9) 
6.1971034199702855

>  <m_score__min__rmsd>  (9) 
6.1971034199702855

>  <meeko>  (9) 
{"free_energy": -5.98, "intermolecular_energy": -8.07, "internal_energy": -3.3, "cluster_size": 14, "cluster_id": 4, "rank_in_cluster": 1}

>  <energy>  (9) 
-5.27

>  <cluster_rmsd>  (9) 
1.47

>  <cluster>  (9) 
3

$$$$

     RDKit          3D

 44 46  0  0  0  0  0  0  0  0999 V2000
  139.5860   74.4810  222.3660 N   0  0  0  0  0  0  0  0  0  0  0  0
  140.8250   74.4980  221.5990 C   0  0  2  0  0  0  0  0  0  0  0  0
  140.7100   75.6510  220.6300 C   0  0  0  0  0  0  0  0  0  0  0  0
  140.4100   75.0510  219.2890 C   0  0  0  0  0  0  0  0  0  0  0  0
  140.2830   73.6210  219.5140 N   0  0  0  0  0  0  0  0  0  0  0  0
  139.6550   72.6930  218.6190 C   0  0  0  0  0  0  0  0  0  0  0  0
  140.1550   72.4510  217.4690 O   0  0  0  0  0  0  0  0  0  0  0  0
  138.4010   71.9970  219.0340 C   0  0  0  0  0  0  0  0  0  0  0  0
  138.6960   71.2960  220.2690 N   0  0  0  0  0  0  0  0  0  0  0  0
  138.2830   71.8080  221.5360 C   0  0  0  0  0  0  0  0  0  0  0  0
  137.6360   72.9050  221.6370 O   0  0  0  0  0  0  0  0  0  0  0  0
  138.6140   71.0460  222.7560 C   0  0  0  0  0  0  0  0  0  0  0  0
  138.0180   69.8210  222.9660 C   0  0  0  0  0  0  0  0  0  0  0  0
  138.3270   69.1020  224.1120 C   0  0  0  0  0  0  0  0  0  0  0  0
  139.2330   69.6690  224.9980 C   0  0  0  0  0  0  0  0  0  0  0  0
  139.5450   68.9580  226.1410 C   0  0  0  0  0  0  0  0  0  0  0  0
  140.4550   69.5260  227.0320 C   0  0  0  0  0  0  0  0  0  0  0  0
  140.8500   68.6170  228.4900 Cl  0  0  0  0  0  0  0  0  0  0  0  0
  141.0400   70.7560  226.8020 C   0  0  0  0  0  0  0  0  0  0  0  0
  140.7250   71.4560  225.6610 C   0  0  0  0  0  0  0  0  0  0  0  0
  139.8220   70.8920  224.7800 C   0  0  0  0  0  0  0  0  0  0  0  0
  139.4950   71.5470  223.6630 N   0  0  0  0  0  0  0  0  0  0  0  0
  140.8860   73.2500  220.7790 C   0  0  1  0  0  0  0  0  0  0  0  0
  142.3060   72.8110  220.4920 C   0  0  0  0  0  0  0  0  0  0  0  0
  142.2750   71.7460  219.5950 O   0  0  0  0  0  0  0  0  0  0  0  0
  138.7540   74.7570  221.7940 H   0  0  0  0  0  0  0  0  0  0  0  0
  139.3930   73.5440  222.7850 H   0  0  0  0  0  0  0  0  0  0  0  0
  141.7026   74.5806  222.2570 H   0  0  0  0  0  0  0  0  0  0  0  0
  139.8960   76.3247  220.9357 H   0  0  0  0  0  0  0  0  0  0  0  0
  141.6372   76.2423  220.6031 H   0  0  0  0  0  0  0  0  0  0  0  0
  139.4712   75.4604  218.8877 H   0  0  0  0  0  0  0  0  0  0  0  0
  141.2008   75.2770  218.5585 H   0  0  0  0  0  0  0  0  0  0  0  0
  137.5980   72.7306  219.1982 H   0  0  0  0  0  0  0  0  0  0  0  0
  138.0635   71.2971  218.2554 H   0  0  0  0  0  0  0  0  0  0  0  0
  139.2280   70.3760  220.2820 H   0  0  0  0  0  0  0  0  0  0  0  0
  137.3045   69.4173  222.2325 H   0  0  0  0  0  0  0  0  0  0  0  0
  137.8716   68.1206  224.3107 H   0  0  0  0  0  0  0  0  0  0  0  0
  139.0906   67.9765  226.3414 H   0  0  0  0  0  0  0  0  0  0  0  0
  141.7538   71.1732  227.5275 H   0  0  0  0  0  0  0  0  0  0  0  0
  141.1788   72.4367  225.4555 H   0  0  0  0  0  0  0  0  0  0  0  0
  140.3895   72.4237  221.3088 H   0  0  0  0  0  0  0  0  0  0  0  0
  142.8698   73.6474  220.0532 H   0  0  0  0  0  0  0  0  0  0  0  0
  142.7960   72.4983  221.4259 H   0  0  0  0  0  0  0  0  0  0  0  0
  141.8480   71.9780  218.7360 H   0  0  0  0  0  0  0  0  0  0  0  0
  1  2  1  0
  2  3  1  0
  3  4  1  0
  4  5  1  0
  5  6  1  0
  6  7  2  0
  6  8  1  0
  8  9  1  0
  9 10  1  0
 10 11  2  0
 10 12  1  0
 12 13  2  0
 13 14  1  0
 14 15  2  0
 15 16  1  0
 16 17  2  0
 17 18  1  0
 17 19  1  0
 19 20  2  0
 20 21  1  0
 21 22  2  0
  5 23  1  0
 23 24  1  0
 24 25  1  0
 23  2  1  0
 22 12  1  0
 21 15  1  0
  1 26  1  0
  1 27  1  0
  2 28  1  1
  3 29  1  0
  3 30  1  0
  4 31  1  0
  4 32  1  0
  8 33  1  0
  8 34  1  0
  9 35  1  0
 13 36  1  0
 14 37  1  0
 16 38  1  0
 19 39  1  0
 20 40  1  0
 23 41  1  1
 24 42  1  0
 24 43  1  0
 25 44  1  0
M  END
>  <smiles>  (10) 
N[C@@H]1CCN(C(=O)CNC(=O)c2ccc3cc(Cl)ccc3n2)[C@H]1CO

>  <score_type>  (10) 
oracle

>  <origin>  (10) 
autodockgpu

>  <m_score__min__energy>  (10) 
-7.3300000000000001

>  <m_primary>  (10) 
energy

>  <rmsd>  (10) 
2.9085483316331717

>  <m_score__min__rmsd>  (10) 
2.9085483316331717

>  <meeko>  (10) 
{"free_energy": -4.74, "intermolecular_energy": -6.82, "internal_energy": -3.91, "cluster_size": 3, "cluster_id": 1, "rank_in_cluster": 3}

>  <energy>  (10) 
-5.07

>  <cluster_rmsd>  (10) 
1.57

>  <cluster>  (10) 
3

$$$$

     RDKit          3D

 44 46  0  0  0  0  0  0  0  0999 V2000
  140.4420   72.9100  222.9160 N   0  0  0  0  0  0  0  0  0  0  0  0
  140.8610   73.0700  221.5290 C   0  0  2  0  0  0  0  0  0  0  0  0
  141.2200   74.5270  221.3590 C   0  0  0  0  0  0  0  0  0  0  0  0
  140.0790   75.1610  220.6210 C   0  0  0  0  0  0  0  0  0  0  0  0
  139.0840   74.1160  220.4550 N   0  0  0  0  0  0  0  0  0  0  0  0
  137.7000   74.3290  220.1400 C   0  0  0  0  0  0  0  0  0  0  0  0
  137.3450   74.6970  218.9690 O   0  0  0  0  0  0  0  0  0  0  0  0
  136.6600   74.1170  221.1890 C   0  0  0  0  0  0  0  0  0  0  0  0
  137.2430   73.2470  222.1920 N   0  0  0  0  0  0  0  0  0  0  0  0
  136.8020   71.9000  222.3590 C   0  0  0  0  0  0  0  0  0  0  0  0
  135.8770   71.4020  221.6320 O   0  0  0  0  0  0  0  0  0  0  0  0
  137.4370   71.0650  223.3980 C   0  0  0  0  0  0  0  0  0  0  0  0
  136.8890   69.8370  223.7020 C   0  0  0  0  0  0  0  0  0  0  0  0
  137.4830   69.0500  224.6780 C   0  0  0  0  0  0  0  0  0  0  0  0
  138.6150   69.5540  225.3050 C   0  0  0  0  0  0  0  0  0  0  0  0
  139.2120   68.7750  226.2780 C   0  0  0  0  0  0  0  0  0  0  0  0
  140.3490   69.2780  226.9070 C   0  0  0  0  0  0  0  0  0  0  0  0
  141.1070   68.2830  228.1490 Cl  0  0  0  0  0  0  0  0  0  0  0  0
  140.8810   70.5120  226.5870 C   0  0  0  0  0  0  0  0  0  0  0  0
  140.2820   71.2810  225.6180 C   0  0  0  0  0  0  0  0  0  0  0  0
  139.1550   70.7800  224.9950 C   0  0  0  0  0  0  0  0  0  0  0  0
  138.5490   71.5020  224.0480 N   0  0  0  0  0  0  0  0  0  0  0  0
  139.6810   72.8090  220.6500 C   0  0  1  0  0  0  0  0  0  0  0  0
  140.0760   72.2840  219.2860 C   0  0  0  0  0  0  0  0  0  0  0  0
  138.9300   72.1550  218.5050 O   0  0  0  0  0  0  0  0  0  0  0  0
  139.4610   73.2350  223.0810 H   0  0  0  0  0  0  0  0  0  0  0  0
  140.5130   71.9190  223.2390 H   0  0  0  0  0  0  0  0  0  0  0  0
  141.6934   72.3952  221.2804 H   0  0  0  0  0  0  0  0  0  0  0  0
  141.3494   75.0041  222.3417 H   0  0  0  0  0  0  0  0  0  0  0  0
  142.1649   74.6431  220.8080 H   0  0  0  0  0  0  0  0  0  0  0  0
  139.6633   75.9964  221.2036 H   0  0  0  0  0  0  0  0  0  0  0  0
  140.4015   75.5698  219.6521 H   0  0  0  0  0  0  0  0  0  0  0  0
  136.3775   75.0791  221.6412 H   0  0  0  0  0  0  0  0  0  0  0  0
  135.7529   73.6680  220.7583 H   0  0  0  0  0  0  0  0  0  0  0  0
  138.0180   73.5740  222.8410 H   0  0  0  0  0  0  0  0  0  0  0  0
  135.9896   69.4846  223.1758 H   0  0  0  0  0  0  0  0  0  0  0  0
  137.0731   68.0647  224.9449 H   0  0  0  0  0  0  0  0  0  0  0  0
  138.8029   67.7900  226.5471 H   0  0  0  0  0  0  0  0  0  0  0  0
  141.7798   70.8775  227.1053 H   0  0  0  0  0  0  0  0  0  0  0  0
  140.6880   72.2666  225.3464 H   0  0  0  0  0  0  0  0  0  0  0  0
  139.0228   72.0577  221.1107 H   0  0  0  0  0  0  0  0  0  0  0  0
  140.7726   72.9875  218.8067 H   0  0  0  0  0  0  0  0  0  0  0  0
  140.5688   71.3061  219.3905 H   0  0  0  0  0  0  0  0  0  0  0  0
  138.5100   73.0220  218.2910 H   0  0  0  0  0  0  0  0  0  0  0  0
  1  2  1  0
  2  3  1  0
  3  4  1  0
  4  5  1  0
  5  6  1  0
  6  7  2  0
  6  8  1  0
  8  9  1  0
  9 10  1  0
 10 11  2  0
 10 12  1  0
 12 13  2  0
 13 14  1  0
 14 15  2  0
 15 16  1  0
 16 17  2  0
 17 18  1  0
 17 19  1  0
 19 20  2  0
 20 21  1  0
 21 22  2  0
  5 23  1  0
 23 24  1  0
 24 25  1  0
 23  2  1  0
 22 12  1  0
 21 15  1  0
  1 26  1  0
  1 27  1  0
  2 28  1  6
  3 29  1  0
  3 30  1  0
  4 31  1  0
  4 32  1  0
  8 33  1  0
  8 34  1  0
  9 35  1  0
 13 36  1  0
 14 37  1  0
 16 38  1  0
 19 39  1  0
 20 40  1  0
 23 41  1  1
 24 42  1  0
 24 43  1  0
 25 44  1  0
M  END
>  <smiles>  (11) 
N[C@@H]1CCN(C(=O)CNC(=O)c2ccc3cc(Cl)ccc3n2)[C@H]1CO

>  <score_type>  (11) 
oracle

>  <origin>  (11) 
autodockgpu

>  <m_score__min__energy>  (11) 
-7.3300000000000001

>  <m_primary>  (11) 
energy

>  <rmsd>  (11) 
3.2103891477164077

>  <m_score__min__rmsd>  (11) 
3.2103891477164077

>  <meeko>  (11) 
{"free_energy": -4.74, "intermolecular_energy": -6.83, "internal_energy": -3.91, "cluster_size": 10, "cluster_id": 3, "rank_in_cluster": 9}

>  <energy>  (11) 
-4.88

>  <cluster_rmsd>  (11) 
1.98

>  <cluster>  (11) 
3

$$$$

     RDKit          3D

 44 46  0  0  0  0  0  0  0  0999 V2000
  142.5410   75.7160  220.3990 N   0  0  0  0  0  0  0  0  0  0  0  0
  143.8300   75.3040  219.8590 C   0  0  2  0  0  0  0  0  0  0  0  0
  143.5990   74.9910  218.4000 C   0  0  0  0  0  0  0  0  0  0  0  0
  143.5760   73.4960  218.2860 C   0  0  0  0  0  0  0  0  0  0  0  0
  143.7100   72.9920  219.6430 N   0  0  0  0  0  0  0  0  0  0  0  0
  143.3810   71.6630  220.0710 C   0  0  0  0  0  0  0  0  0  0  0  0
  144.1860   70.6920  219.8670 O   0  0  0  0  0  0  0  0  0  0  0  0
  142.0860   71.4080  220.7670 C   0  0  0  0  0  0  0  0  0  0  0  0
  141.5290   72.7020  221.1120 N   0  0  0  0  0  0  0  0  0  0  0  0
  140.1600   72.8510  221.4860 C   0  0  0  0  0  0  0  0  0  0  0  0
  139.3660   71.8500  221.5340 O   0  0  0  0  0  0  0  0  0  0  0  0
  139.6550   74.1950  221.8260 C   0  0  0  0  0  0  0  0  0  0  0  0
  138.2970   74.3880  221.9650 C   0  0  0  0  0  0  0  0  0  0  0  0
  137.8190   75.6510  222.2860 C   0  0  0  0  0  0  0  0  0  0  0  0
  138.7520   76.6660  222.4480 C   0  0  0  0  0  0  0  0  0  0  0  0
  138.2830   77.9260  222.7670 C   0  0  0  0  0  0  0  0  0  0  0  0
  139.2180   78.9460  222.9310 C   0  0  0  0  0  0  0  0  0  0  0  0
  138.6160   80.5530  223.3370 Cl  0  0  0  0  0  0  0  0  0  0  0  0
  140.5750   78.7300  222.7860 C   0  0  0  0  0  0  0  0  0  0  0  0
  141.0330   77.4740  222.4700 C   0  0  0  0  0  0  0  0  0  0  0  0
  140.1050   76.4640  222.3070 C   0  0  0  0  0  0  0  0  0  0  0  0
  140.5180   75.2320  221.9990 N   0  0  0  0  0  0  0  0  0  0  0  0
  144.2280   74.0240  220.5190 C   0  0  1  0  0  0  0  0  0  0  0  0
  145.7300   73.8470  220.5870 C   0  0  0  0  0  0  0  0  0  0  0  0
  146.0160   72.7150  221.3460 O   0  0  0  0  0  0  0  0  0  0  0  0
  141.7700   75.0530  220.1520 H   0  0  0  0  0  0  0  0  0  0  0  0
  142.5610   75.8140  221.4390 H   0  0  0  0  0  0  0  0  0  0  0  0
  144.5954   76.0792  220.0117 H   0  0  0  0  0  0  0  0  0  0  0  0
  142.6388   75.4126  218.0679 H   0  0  0  0  0  0  0  0  0  0  0  0
  144.3876   75.4269  217.7690 H   0  0  0  0  0  0  0  0  0  0  0  0
  142.6258   73.1603  217.8450 H   0  0  0  0  0  0  0  0  0  0  0  0
  144.3835   73.1276  217.6362 H   0  0  0  0  0  0  0  0  0  0  0  0
  141.3989   70.8664  220.1003 H   0  0  0  0  0  0  0  0  0  0  0  0
  142.2377   70.7931  221.6664 H   0  0  0  0  0  0  0  0  0  0  0  0
  142.1150   73.5890  221.1010 H   0  0  0  0  0  0  0  0  0  0  0  0
  137.5993   73.5495  221.8229 H   0  0  0  0  0  0  0  0  0  0  0  0
  136.7422   75.8403  222.4073 H   0  0  0  0  0  0  0  0  0  0  0  0
  137.2065   78.1176  222.8876 H   0  0  0  0  0  0  0  0  0  0  0  0
  141.2847   79.5592  222.9228 H   0  0  0  0  0  0  0  0  0  0  0  0
  142.1088   77.2781  222.3501 H   0  0  0  0  0  0  0  0  0  0  0  0
  143.8483   73.9954  221.5510 H   0  0  0  0  0  0  0  0  0  0  0  0
  146.1337   73.7225  219.5714 H   0  0  0  0  0  0  0  0  0  0  0  0
  146.1894   74.7326  221.0502 H   0  0  0  0  0  0  0  0  0  0  0  0
  145.5660   71.9030  221.0100 H   0  0  0  0  0  0  0  0  0  0  0  0
  1  2  1  0
  2  3  1  0
  3  4  1  0
  4  5  1  0
  5  6  1  0
  6  7  2  0
  6  8  1  0
  8  9  1  0
  9 10  1  0
 10 11  2  0
 10 12  1  0
 12 13  2  0
 13 14  1  0
 14 15  2  0
 15 16  1  0
 16 17  2  0
 17 18  1  0
 17 19  1  0
 19 20  2  0
 20 21  1  0
 21 22  2  0
  5 23  1  0
 23 24  1  0
 24 25  1  0
 23  2  1  0
 22 12  1  0
 21 15  1  0
  1 26  1  0
  1 27  1  0
  2 28  1  6
  3 29  1  0
  3 30  1  0
  4 31  1  0
  4 32  1  0
  8 33  1  0
  8 34  1  0
  9 35  1  0
 13 36  1  0
 14 37  1  0
 16 38  1  0
 19 39  1  0
 20 40  1  0
 23 41  1  1
 24 42  1  0
 24 43  1  0
 25 44  1  0
M  END
>  <smiles>  (12) 
N[C@@H]1CCN(C(=O)CNC(=O)c2ccc3cc(Cl)ccc3n2)[C@H]1CO

>  <score_type>  (12) 
oracle

>  <origin>  (12) 
autodockgpu

>  <m_score__min__energy>  (12) 
-7.3300000000000001

>  <m_primary>  (12) 
energy

>  <rmsd>  (12) 
6.220257701028328

>  <m_score__min__rmsd>  (12) 
6.220257701028328

>  <meeko>  (12) 
{"free_energy": -5.37, "intermolecular_energy": -7.46, "internal_energy": -3.97, "cluster_size": 14, "cluster_id": 4, "rank_in_cluster": 9}

>  <energy>  (12) 
-4.82

>  <cluster_rmsd>  (12) 
1.7

>  <cluster>  (12) 
3

$$$$

     RDKit          3D

 44 46  0  0  0  0  0  0  0  0999 V2000
  140.4260   73.0160  222.7220 N   0  0  0  0  0  0  0  0  0  0  0  0
  140.5530   73.6460  221.4140 C   0  0  2  0  0  0  0  0  0  0  0  0
  140.9230   75.0880  221.6710 C   0  0  0  0  0  0  0  0  0  0  0  0
  139.6780   75.8930  221.4440 C   0  0  0  0  0  0  0  0  0  0  0  0
  138.6310   74.9290  221.1480 N   0  0  0  0  0  0  0  0  0  0  0  0
  137.2220   75.1860  221.2180 C   0  0  0  0  0  0  0  0  0  0  0  0
  136.7670   76.3750  221.1070 O   0  0  0  0  0  0  0  0  0  0  0  0
  136.2710   74.0540  221.4230 C   0  0  0  0  0  0  0  0  0  0  0  0
  136.8360   73.2100  222.4570 N   0  0  0  0  0  0  0  0  0  0  0  0
  137.1160   71.8300  222.2250 C   0  0  0  0  0  0  0  0  0  0  0  0
  136.8830   71.2790  221.0950 O   0  0  0  0  0  0  0  0  0  0  0  0
  137.6920   71.0240  223.3200 C   0  0  0  0  0  0  0  0  0  0  0  0
  137.1510   69.7890  223.6020 C   0  0  0  0  0  0  0  0  0  0  0  0
  137.6900   69.0280  224.6300 C   0  0  0  0  0  0  0  0  0  0  0  0
  138.7620   69.5670  225.3300 C   0  0  0  0  0  0  0  0  0  0  0  0
  139.3030   68.8150  226.3550 C   0  0  0  0  0  0  0  0  0  0  0  0
  140.3800   69.3540  227.0570 C   0  0  0  0  0  0  0  0  0  0  0  0
  141.0680   68.3930  228.3650 Cl  0  0  0  0  0  0  0  0  0  0  0  0
  140.9070   70.5950  226.7570 C   0  0  0  0  0  0  0  0  0  0  0  0
  140.3630   71.3360  225.7350 C   0  0  0  0  0  0  0  0  0  0  0  0
  139.2960   70.8010  225.0400 C   0  0  0  0  0  0  0  0  0  0  0  0
  138.7440   71.4960  224.0420 N   0  0  0  0  0  0  0  0  0  0  0  0
  139.2070   73.6550  220.7650 C   0  0  1  0  0  0  0  0  0  0  0  0
  139.2890   73.6320  219.2530 C   0  0  0  0  0  0  0  0  0  0  0  0
  138.2680   72.8250  218.7590 O   0  0  0  0  0  0  0  0  0  0  0  0
  139.5890   73.3510  223.2510 H   0  0  0  0  0  0  0  0  0  0  0  0
  140.3710   71.9750  222.6550 H   0  0  0  0  0  0  0  0  0  0  0  0
  141.2893   73.1225  220.7864 H   0  0  0  0  0  0  0  0  0  0  0  0
  141.2724   75.2121  222.7066 H   0  0  0  0  0  0  0  0  0  0  0  0
  141.7356   75.4152  221.0058 H   0  0  0  0  0  0  0  0  0  0  0  0
  139.4244   76.4688  222.3463 H   0  0  0  0  0  0  0  0  0  0  0  0
  139.8068   76.6150  220.6242 H   0  0  0  0  0  0  0  0  0  0  0  0
  135.2903   74.4371  221.7416 H   0  0  0  0  0  0  0  0  0  0  0  0
  136.1251   73.4892  220.4904 H   0  0  0  0  0  0  0  0  0  0  0  0
  137.0630   73.5810  223.4260 H   0  0  0  0  0  0  0  0  0  0  0  0
  136.2997   69.4094  223.0179 H   0  0  0  0  0  0  0  0  0  0  0  0
  137.2842   68.0368  224.8806 H   0  0  0  0  0  0  0  0  0  0  0  0
  138.8976   67.8244  226.6086 H   0  0  0  0  0  0  0  0  0  0  0  0
  141.7576   70.9883  227.3330 H   0  0  0  0  0  0  0  0  0  0  0  0
  140.7659   72.3268  225.4780 H   0  0  0  0  0  0  0  0  0  0  0  0
  138.6317   72.7700  221.0745 H   0  0  0  0  0  0  0  0  0  0  0  0
  139.1747   74.6535  218.8613 H   0  0  0  0  0  0  0  0  0  0  0  0
  140.2648   73.2335  218.9384 H   0  0  0  0  0  0  0  0  0  0  0  0
  137.7450   72.3860  219.4720 H   0  0  0  0  0  0  0  0  0  0  0  0
  1  2  1  0
  2  3  1  0
  3  4  1  0
  4  5  1  0
  5  6  1  0
  6  7  2  0
  6  8  1  0
  8  9  1  0
  9 10  1  0
 10 11  2  0
 10 12  1  0
 12 13  2  0
 13 14  1  0
 14 15  2  0
 15 16  1  0
 16 17  2  0
 17 18  1  0
 17 19  1  0
 19 20  2  0
 20 21  1  0
 21 22  2  0
  5 23  1  0
 23 24  1  0
 24 25  1  0
 23  2  1  0
 22 12  1  0
 21 15  1  0
  1 26  1  0
  1 27  1  0
  2 28  1  6
  3 29  1  0
  3 30  1  0
  4 31  1  0
  4 32  1  0
  8 33  1  0
  8 34  1  0
  9 35  1  0
 13 36  1  0
 14 37  1  0
 16 38  1  0
 19 39  1  0
 20 40  1  0
 23 41  1  1
 24 42  1  0
 24 43  1  0
 25 44  1  0
M  END
>  <smiles>  (13) 
N[C@@H]1CCN(C(=O)CNC(=O)c2ccc3cc(Cl)ccc3n2)[C@H]1CO

>  <score_type>  (13) 
oracle

>  <origin>  (13) 
autodockgpu

>  <m_score__min__energy>  (13) 
-7.3300000000000001

>  <m_primary>  (13) 
energy

>  <rmsd>  (13) 
3.0229967794080834

>  <m_score__min__rmsd>  (13) 
3.0229967794080834

>  <meeko>  (13) 
{"free_energy": -5.27, "intermolecular_energy": -7.36, "internal_energy": -3.41, "cluster_size": 10, "cluster_id": 3, "rank_in_cluster": 4}

>  <energy>  (13) 
-4.76

>  <cluster_rmsd>  (13) 
1.72

>  <cluster>  (13) 
3

$$$$

     RDKit          3D

 44 46  0  0  0  0  0  0  0  0999 V2000
  142.2570   78.6300  221.8000 N   0  0  0  0  0  0  0  0  0  0  0  0
  142.1970   80.0860  221.7690 C   0  0  2  0  0  0  0  0  0  0  0  0
  142.6140   80.5580  223.1420 C   0  0  0  0  0  0  0  0  0  0  0  0
  141.3560   80.9660  223.8500 C   0  0  0  0  0  0  0  0  0  0  0  0
  140.2690   80.6600  222.9350 N   0  0  0  0  0  0  0  0  0  0  0  0
  138.8870   80.5370  223.3000 C   0  0  0  0  0  0  0  0  0  0  0  0
  138.2830   81.4870  223.9040 O   0  0  0  0  0  0  0  0  0  0  0  0
  138.1420   79.2870  222.9690 C   0  0  0  0  0  0  0  0  0  0  0  0
  139.1270   78.3000  222.5720 N   0  0  0  0  0  0  0  0  0  0  0  0
  138.7440   77.0500  222.0000 C   0  0  0  0  0  0  0  0  0  0  0  0
  137.5170   76.7460  221.8120 O   0  0  0  0  0  0  0  0  0  0  0  0
  139.7960   76.0890  221.6160 C   0  0  0  0  0  0  0  0  0  0  0  0
  139.6400   74.7570  221.9360 C   0  0  0  0  0  0  0  0  0  0  0  0
  140.6270   73.8500  221.5760 C   0  0  0  0  0  0  0  0  0  0  0  0
  141.7360   74.3460  220.9030 C   0  0  0  0  0  0  0  0  0  0  0  0
  142.7220   73.4480  220.5410 C   0  0  0  0  0  0  0  0  0  0  0  0
  143.8350   73.9430  219.8650 C   0  0  0  0  0  0  0  0  0  0  0  0
  145.0930   72.7960  219.4050 Cl  0  0  0  0  0  0  0  0  0  0  0  0
  143.9710   75.2820  219.5530 C   0  0  0  0  0  0  0  0  0  0  0  0
  142.9850   76.1680  219.9160 C   0  0  0  0  0  0  0  0  0  0  0  0
  141.8820   75.6760  220.5870 C   0  0  0  0  0  0  0  0  0  0  0  0
  140.9060   76.5110  220.9530 N   0  0  0  0  0  0  0  0  0  0  0  0
  140.7710   80.4940  221.5860 C   0  0  1  0  0  0  0  0  0  0  0  0
  140.6330   81.8280  220.8840 C   0  0  0  0  0  0  0  0  0  0  0  0
  139.4230   82.4080  221.2550 O   0  0  0  0  0  0  0  0  0  0  0  0
  142.2930   78.2080  220.8440 H   0  0  0  0  0  0  0  0  0  0  0  0
  143.0800   78.2790  222.3400 H   0  0  0  0  0  0  0  0  0  0  0  0
  142.8290   80.4962  220.9676 H   0  0  0  0  0  0  0  0  0  0  0  0
  143.1116   79.7438  223.6893 H   0  0  0  0  0  0  0  0  0  0  0  0
  143.3244   81.3953  223.0770 H   0  0  0  0  0  0  0  0  0  0  0  0
  141.2411   80.3977  224.7848 H   0  0  0  0  0  0  0  0  0  0  0  0
  141.3706   82.0326  224.1187 H   0  0  0  0  0  0  0  0  0  0  0  0
  137.5866   78.9335  223.8502 H   0  0  0  0  0  0  0  0  0  0  0  0
  137.4160   79.4643  222.1618 H   0  0  0  0  0  0  0  0  0  0  0  0
  140.1700   78.4660  222.6890 H   0  0  0  0  0  0  0  0  0  0  0  0
  138.7417   74.4163  222.4716 H   0  0  0  0  0  0  0  0  0  0  0  0
  140.5345   72.7801  221.8144 H   0  0  0  0  0  0  0  0  0  0  0  0
  142.6311   72.3778  220.7787 H   0  0  0  0  0  0  0  0  0  0  0  0
  144.8635   75.6370  219.0170 H   0  0  0  0  0  0  0  0  0  0  0  0
  143.0716   77.2387  219.6790 H   0  0  0  0  0  0  0  0  0  0  0  0
  140.2381   79.7484  220.9776 H   0  0  0  0  0  0  0  0  0  0  0  0
  141.4637   82.4871  221.1763 H   0  0  0  0  0  0  0  0  0  0  0  0
  140.6579   81.6808  219.7942 H   0  0  0  0  0  0  0  0  0  0  0  0
  139.2990   82.4480  222.2340 H   0  0  0  0  0  0  0  0  0  0  0  0
  1  2  1  0
  2  3  1  0
  3  4  1  0
  4  5  1  0
  5  6  1  0
  6  7  2  0
  6  8  1  0
  8  9  1  0
  9 10  1  0
 10 11  2  0
 10 12  1  0
 12 13  2  0
 13 14  1  0
 14 15  2  0
 15 16  1  0
 16 17  2  0
 17 18  1  0
 17 19  1  0
 19 20  2  0
 20 21  1  0
 21 22  2  0
  5 23  1  0
 23 24  1  0
 24 25  1  0
 23  2  1  0
 22 12  1  0
 21 15  1  0
  1 26  1  0
  1 27  1  0
  2 28  1  6
  3 29  1  0
  3 30  1  0
  4 31  1  0
  4 32  1  0
  8 33  1  0
  8 34  1  0
  9 35  1  0
 13 36  1  0
 14 37  1  0
 16 38  1  0
 19 39  1  0
 20 40  1  0
 23 41  1  6
 24 42  1  0
 24 43  1  0
 25 44  1  0
M  END
>  <smiles>  (14) 
N[C@@H]1CCN(C(=O)CNC(=O)c2ccc3cc(Cl)ccc3n2)[C@H]1CO

>  <score_type>  (14) 
oracle

>  <origin>  (14) 
autodockgpu

>  <m_score__min__energy>  (14) 
-7.3300000000000001

>  <m_primary>  (14) 
energy

>  <rmsd>  (14) 
6.887242499201632

>  <m_score__min__rmsd>  (14) 
6.887242499201632

>  <meeko>  (14) 
{"free_energy": -5.06, "intermolecular_energy": -7.15, "internal_energy": -3.2, "cluster_size": 7, "cluster_id": 7, "rank_in_cluster": 5}

>  <energy>  (14) 
-4.74

>  <cluster_rmsd>  (14) 
1.7

>  <cluster>  (14) 
3

$$$$

     RDKit          3D

 44 46  0  0  0  0  0  0  0  0999 V2000
  141.9420   77.9900  221.2450 N   0  0  0  0  0  0  0  0  0  0  0  0
  141.8490   79.3700  221.7060 C   0  0  2  0  0  0  0  0  0  0  0  0
  142.0320   79.3310  223.2040 C   0  0  0  0  0  0  0  0  0  0  0  0
  140.6690   79.5070  223.8040 C   0  0  0  0  0  0  0  0  0  0  0  0
  139.7470   79.5630  222.6820 N   0  0  0  0  0  0  0  0  0  0  0  0
  138.3290   79.3610  222.7620 C   0  0  0  0  0  0  0  0  0  0  0  0
  137.5630   80.2720  223.2280 O   0  0  0  0  0  0  0  0  0  0  0  0
  137.7360   78.0740  222.2940 C   0  0  0  0  0  0  0  0  0  0  0  0
  138.8400   77.2040  221.9400 N   0  0  0  0  0  0  0  0  0  0  0  0
  138.7370   75.7840  222.0430 C   0  0  0  0  0  0  0  0  0  0  0  0
  137.6660   75.2180  222.4520 O   0  0  0  0  0  0  0  0  0  0  0  0
  139.8970   74.9540  221.6660 C   0  0  0  0  0  0  0  0  0  0  0  0
  139.8710   73.6010  221.9280 C   0  0  0  0  0  0  0  0  0  0  0  0
  140.9600   72.8180  221.5740 C   0  0  0  0  0  0  0  0  0  0  0  0
  142.0350   73.4540  220.9660 C   0  0  0  0  0  0  0  0  0  0  0  0
  143.1230   72.6800  220.6110 C   0  0  0  0  0  0  0  0  0  0  0  0
  144.2020   73.3160  220.0000 C   0  0  0  0  0  0  0  0  0  0  0  0
  145.5890   72.3260  219.5490 Cl  0  0  0  0  0  0  0  0  0  0  0  0
  144.2070   74.6740  219.7460 C   0  0  0  0  0  0  0  0  0  0  0  0
  143.1200   75.4360  220.1020 C   0  0  0  0  0  0  0  0  0  0  0  0
  142.0520   74.8040  220.7080 C   0  0  0  0  0  0  0  0  0  0  0  0
  140.9810   75.5170  221.0660 N   0  0  0  0  0  0  0  0  0  0  0  0
  140.4580   79.8550  221.4530 C   0  0  1  0  0  0  0  0  0  0  0  0
  140.3940   81.3520  221.2390 C   0  0  0  0  0  0  0  0  0  0  0  0
  139.7980   81.9410  222.3510 O   0  0  0  0  0  0  0  0  0  0  0  0
  141.9970   77.3050  222.0340 H   0  0  0  0  0  0  0  0  0  0  0  0
  141.1370   77.7200  220.6370 H   0  0  0  0  0  0  0  0  0  0  0  0
  142.5877   80.0119  221.2038 H   0  0  0  0  0  0  0  0  0  0  0  0
  142.4599   78.3648  223.5096 H   0  0  0  0  0  0  0  0  0  0  0  0
  142.7201   80.1200  223.5414 H   0  0  0  0  0  0  0  0  0  0  0  0
  140.4255   78.6566  224.4578 H   0  0  0  0  0  0  0  0  0  0  0  0
  140.6123   80.4162  224.4206 H   0  0  0  0  0  0  0  0  0  0  0  0
  137.1386   77.6187  223.0977 H   0  0  0  0  0  0  0  0  0  0  0  0
  137.0723   78.2374  221.4321 H   0  0  0  0  0  0  0  0  0  0  0  0
  139.7680   77.5850  221.5890 H   0  0  0  0  0  0  0  0  0  0  0  0
  138.9948   73.1463  222.4133 H   0  0  0  0  0  0  0  0  0  0  0  0
  140.9719   71.7352  221.7673 H   0  0  0  0  0  0  0  0  0  0  0  0
  143.1371   71.5972  220.8043 H   0  0  0  0  0  0  0  0  0  0  0  0
  145.0762   75.1428  219.2615 H   0  0  0  0  0  0  0  0  0  0  0  0
  143.1012   76.5189  219.9097 H   0  0  0  0  0  0  0  0  0  0  0  0
  140.0480   79.3778  220.5507 H   0  0  0  0  0  0  0  0  0  0  0  0
  141.4112   81.7506  221.1106 H   0  0  0  0  0  0  0  0  0  0  0  0
  139.8040   81.5750  220.3378 H   0  0  0  0  0  0  0  0  0  0  0  0
  138.8510   81.6820  222.4620 H   0  0  0  0  0  0  0  0  0  0  0  0
  1  2  1  0
  2  3  1  0
  3  4  1  0
  4  5  1  0
  5  6  1  0
  6  7  2  0
  6  8  1  0
  8  9  1  0
  9 10  1  0
 10 11  2  0
 10 12  1  0
 12 13  2  0
 13 14  1  0
 14 15  2  0
 15 16  1  0
 16 17  2  0
 17 18  1  0
 17 19  1  0
 19 20  2  0
 20 21  1  0
 21 22  2  0
  5 23  1  0
 23 24  1  0
 24 25  1  0
 23  2  1  0
 22 12  1  0
 21 15  1  0
  1 26  1  0
  1 27  1  0
  2 28  1  6
  3 29  1  0
  3 30  1  0
  4 31  1  0
  4 32  1  0
  8 33  1  0
  8 34  1  0
  9 35  1  0
 13 36  1  0
 14 37  1  0
 16 38  1  0
 19 39  1  0
 20 40  1  0
 23 41  1  6
 24 42  1  0
 24 43  1  0
 25 44  1  0
M  END
>  <smiles>  (15) 
N[C@@H]1CCN(C(=O)CNC(=O)c2ccc3cc(Cl)ccc3n2)[C@H]1CO

>  <score_type>  (15) 
oracle

>  <origin>  (15) 
autodockgpu

>  <m_score__min__energy>  (15) 
-7.3300000000000001

>  <m_primary>  (15) 
energy

>  <rmsd>  (15) 
6.160583566161845

>  <m_score__min__rmsd>  (15) 
6.160583566161845

>  <meeko>  (15) 
{"free_energy": -4.68, "intermolecular_energy": -6.76, "internal_energy": -4.03, "cluster_size": 7, "cluster_id": 7, "rank_in_cluster": 7}

>  <energy>  (15) 
-4.54

>  <cluster_rmsd>  (15) 
1.85

>  <cluster>  (15) 
3

$$$$

     RDKit          3D

 44 46  0  0  0  0  0  0  0  0999 V2000
  142.5760   75.5980  220.3680 N   0  0  0  0  0  0  0  0  0  0  0  0
  143.8940   75.2530  219.8500 C   0  0  2  0  0  0  0  0  0  0  0  0
  143.7170   75.0000  218.3710 C   0  0  0  0  0  0  0  0  0  0  0  0
  143.7450   73.5120  218.1890 C   0  0  0  0  0  0  0  0  0  0  0  0
  143.8550   72.9500  219.5250 N   0  0  0  0  0  0  0  0  0  0  0  0
  143.5570   71.5930  219.8830 C   0  0  0  0  0  0  0  0  0  0  0  0
  144.3860   70.6530  219.6320 O   0  0  0  0  0  0  0  0  0  0  0  0
  142.2650   71.2710  220.5570 C   0  0  0  0  0  0  0  0  0  0  0  0
  141.6400   72.5340  220.8990 N   0  0  0  0  0  0  0  0  0  0  0  0
  140.3430   72.5900  221.4900 C   0  0  0  0  0  0  0  0  0  0  0  0
  139.6760   71.5300  221.7450 O   0  0  0  0  0  0  0  0  0  0  0  0
  139.7630   73.9080  221.8160 C   0  0  0  0  0  0  0  0  0  0  0  0
  138.3970   74.0250  221.9580 C   0  0  0  0  0  0  0  0  0  0  0  0
  137.8480   75.2620  222.2640 C   0  0  0  0  0  0  0  0  0  0  0  0
  138.7220   76.3310  222.4100 C   0  0  0  0  0  0  0  0  0  0  0  0
  138.1830   77.5660  222.7150 C   0  0  0  0  0  0  0  0  0  0  0  0
  139.0590   78.6400  222.8640 C   0  0  0  0  0  0  0  0  0  0  0  0
  138.3670   80.2150  223.2520 Cl  0  0  0  0  0  0  0  0  0  0  0  0
  140.4250   78.5000  222.7160 C   0  0  0  0  0  0  0  0  0  0  0  0
  140.9540   77.2680  222.4140 C   0  0  0  0  0  0  0  0  0  0  0  0
  140.0840   76.2050  222.2670 C   0  0  0  0  0  0  0  0  0  0  0  0
  140.5660   74.9940  221.9730 N   0  0  0  0  0  0  0  0  0  0  0  0
  144.3130   73.9560  220.4630 C   0  0  1  0  0  0  0  0  0  0  0  0
  145.8170   73.8230  220.5700 C   0  0  0  0  0  0  0  0  0  0  0  0
  146.1170   72.6500  221.2600 O   0  0  0  0  0  0  0  0  0  0  0  0
  141.8530   74.8760  220.1450 H   0  0  0  0  0  0  0  0  0  0  0  0
  142.5830   75.7410  221.4030 H   0  0  0  0  0  0  0  0  0  0  0  0
  144.6283   76.0443  220.0614 H   0  0  0  0  0  0  0  0  0  0  0  0
  142.7543   75.4070  218.0281 H   0  0  0  0  0  0  0  0  0  0  0  0
  144.5101   75.4880  217.7855 H   0  0  0  0  0  0  0  0  0  0  0  0
  142.8194   73.1682  217.7042 H   0  0  0  0  0  0  0  0  0  0  0  0
  144.5827   73.1988  217.5485 H   0  0  0  0  0  0  0  0  0  0  0  0
  141.6159   70.7001  219.8768 H   0  0  0  0  0  0  0  0  0  0  0  0
  142.4324   70.6593  221.4558 H   0  0  0  0  0  0  0  0  0  0  0  0
  142.1200   73.4660  220.7240 H   0  0  0  0  0  0  0  0  0  0  0  0
  137.7482   73.1460  221.8299 H   0  0  0  0  0  0  0  0  0  0  0  0
  136.7624   75.3908  222.3862 H   0  0  0  0  0  0  0  0  0  0  0  0
  137.0976   77.6975  222.8363 H   0  0  0  0  0  0  0  0  0  0  0  0
  141.0864   79.3703  222.8392 H   0  0  0  0  0  0  0  0  0  0  0  0
  142.0388   77.1323  222.2928 H   0  0  0  0  0  0  0  0  0  0  0  0
  143.9034   73.8673  221.4800 H   0  0  0  0  0  0  0  0  0  0  0  0
  146.2570   73.7820  219.5627 H   0  0  0  0  0  0  0  0  0  0  0  0
  146.2311   74.6887  221.1077 H   0  0  0  0  0  0  0  0  0  0  0  0
  145.6510   71.8600  220.8960 H   0  0  0  0  0  0  0  0  0  0  0  0
  1  2  1  0
  2  3  1  0
  3  4  1  0
  4  5  1  0
  5  6  1  0
  6  7  2  0
  6  8  1  0
  8  9  1  0
  9 10  1  0
 10 11  2  0
 10 12  1  0
 12 13  2  0
 13 14  1  0
 14 15  2  0
 15 16  1  0
 16 17  2  0
 17 18  1  0
 17 19  1  0
 19 20  2  0
 20 21  1  0
 21 22  2  0
  5 23  1  0
 23 24  1  0
 24 25  1  0
 23  2  1  0
 22 12  1  0
 21 15  1  0
  1 26  1  0
  1 27  1  0
  2 28  1  6
  3 29  1  0
  3 30  1  0
  4 31  1  0
  4 32  1  0
  8 33  1  0
  8 34  1  0
  9 35  1  0
 13 36  1  0
 14 37  1  0
 16 38  1  0
 19 39  1  0
 20 40  1  0
 23 41  1  1
 24 42  1  0
 24 43  1  0
 25 44  1  0
M  END
>  <smiles>  (16) 
N[C@@H]1CCN(C(=O)CNC(=O)c2ccc3cc(Cl)ccc3n2)[C@H]1CO

>  <score_type>  (16) 
oracle

>  <origin>  (16) 
autodockgpu

>  <m_score__min__energy>  (16) 
-7.3300000000000001

>  <m_primary>  (16) 
energy

>  <rmsd>  (16) 
6.159416970173528

>  <m_score__min__rmsd>  (16) 
6.159416970173528

>  <meeko>  (16) 
{"free_energy": -5.34, "intermolecular_energy": -7.43, "internal_energy": -3.97, "cluster_size": 14, "cluster_id": 4, "rank_in_cluster": 12}

>  <energy>  (16) 
-5.98

>  <cluster_rmsd>  (16) 
0.0

>  <cluster>  (16) 
4

$$$$

     RDKit          3D

 44 46  0  0  0  0  0  0  0  0999 V2000
  142.6610   75.4830  220.4670 N   0  0  0  0  0  0  0  0  0  0  0  0
  143.9700   75.1060  219.9500 C   0  0  2  0  0  0  0  0  0  0  0  0
  143.7960   74.8920  218.4650 C   0  0  0  0  0  0  0  0  0  0  0  0
  143.7770   73.4080  218.2500 C   0  0  0  0  0  0  0  0  0  0  0  0
  143.8590   72.8140  219.5740 N   0  0  0  0  0  0  0  0  0  0  0  0
  143.5150   71.4600  219.8990 C   0  0  0  0  0  0  0  0  0  0  0  0
  144.2880   70.4930  219.5830 O   0  0  0  0  0  0  0  0  0  0  0  0
  142.2390   71.1720  220.6180 C   0  0  0  0  0  0  0  0  0  0  0  0
  141.6540   72.4510  220.9710 N   0  0  0  0  0  0  0  0  0  0  0  0
  140.3080   72.5560  221.4330 C   0  0  0  0  0  0  0  0  0  0  0  0
  139.5600   71.5270  221.5570 O   0  0  0  0  0  0  0  0  0  0  0  0
  139.7730   73.8880  221.7770 C   0  0  0  0  0  0  0  0  0  0  0  0
  138.4090   74.0590  221.8780 C   0  0  0  0  0  0  0  0  0  0  0  0
  137.9020   75.3100  222.2010 C   0  0  0  0  0  0  0  0  0  0  0  0
  138.8150   76.3360  222.4060 C   0  0  0  0  0  0  0  0  0  0  0  0
  138.3170   77.5840  222.7280 C   0  0  0  0  0  0  0  0  0  0  0  0
  139.2320   78.6160  222.9340 C   0  0  0  0  0  0  0  0  0  0  0  0
  138.5940   80.2070  223.3440 Cl  0  0  0  0  0  0  0  0  0  0  0  0
  140.5950   78.4220  222.8270 C   0  0  0  0  0  0  0  0  0  0  0  0
  141.0820   77.1770  222.5070 C   0  0  0  0  0  0  0  0  0  0  0  0
  140.1740   76.1560  222.3030 C   0  0  0  0  0  0  0  0  0  0  0  0
  140.6150   74.9350  221.9900 N   0  0  0  0  0  0  0  0  0  0  0  0
  144.3430   73.7830  220.5370 C   0  0  1  0  0  0  0  0  0  0  0  0
  145.8410   73.5990  220.6510 C   0  0  0  0  0  0  0  0  0  0  0  0
  146.2010   72.4260  219.9910 O   0  0  0  0  0  0  0  0  0  0  0  0
  141.9170   74.7880  220.2260 H   0  0  0  0  0  0  0  0  0  0  0  0
  142.6660   75.6060  221.5040 H   0  0  0  0  0  0  0  0  0  0  0  0
  144.7280   75.8680  220.1838 H   0  0  0  0  0  0  0  0  0  0  0  0
  142.8497   75.3378  218.1248 H   0  0  0  0  0  0  0  0  0  0  0  0
  144.6088   75.3668  217.8959 H   0  0  0  0  0  0  0  0  0  0  0  0
  142.8443   73.1052  217.7516 H   0  0  0  0  0  0  0  0  0  0  0  0
  144.6085   73.0816  217.6081 H   0  0  0  0  0  0  0  0  0  0  0  0
  141.5550   70.6112  219.9640 H   0  0  0  0  0  0  0  0  0  0  0  0
  142.4226   70.5629  221.5154 H   0  0  0  0  0  0  0  0  0  0  0  0
  142.2020   73.3600  220.9000 H   0  0  0  0  0  0  0  0  0  0  0  0
  137.7288   73.2121  221.7043 H   0  0  0  0  0  0  0  0  0  0  0  0
  136.8193   75.4820  222.2911 H   0  0  0  0  0  0  0  0  0  0  0  0
  137.2346   77.7577  222.8188 H   0  0  0  0  0  0  0  0  0  0  0  0
  141.2876   79.2595  222.9970 H   0  0  0  0  0  0  0  0  0  0  0  0
  142.1636   76.9988  222.4160 H   0  0  0  0  0  0  0  0  0  0  0  0
  143.9241   73.6850  221.5494 H   0  0  0  0  0  0  0  0  0  0  0  0
  146.3548   74.4553  220.1897 H   0  0  0  0  0  0  0  0  0  0  0  0
  146.1301   73.5354  221.7104 H   0  0  0  0  0  0  0  0  0  0  0  0
  145.9170   71.6120  220.4710 H   0  0  0  0  0  0  0  0  0  0  0  0
  1  2  1  0
  2  3  1  0
  3  4  1  0
  4  5  1  0
  5  6  1  0
  6  7  2  0
  6  8  1  0
  8  9  1  0
  9 10  1  0
 10 11  2  0
 10 12  1  0
 12 13  2  0
 13 14  1  0
 14 15  2  0
 15 16  1  0
 16 17  2  0
 17 18  1  0
 17 19  1  0
 19 20  2  0
 20 21  1  0
 21 22  2  0
  5 23  1  0
 23 24  1  0
 24 25  1  0
 23  2  1  0
 22 12  1  0
 21 15  1  0
  1 26  1  0
  1 27  1  0
  2 28  1  6
  3 29  1  0
  3 30  1  0
  4 31  1  0
  4 32  1  0
  8 33  1  0
  8 34  1  0
  9 35  1  0
 13 36  1  0
 14 37  1  0
 16 38  1  0
 19 39  1  0
 20 40  1  0
 23 41  1  1
 24 42  1  0
 24 43  1  0
 25 44  1  0
M  END
>  <smiles>  (17) 
N[C@@H]1CCN(C(=O)CNC(=O)c2ccc3cc(Cl)ccc3n2)[C@H]1CO

>  <score_type>  (17) 
oracle

>  <origin>  (17) 
autodockgpu

>  <m_score__min__energy>  (17) 
-7.3300000000000001

>  <m_primary>  (17) 
energy

>  <rmsd>  (17) 
6.1851996972353875

>  <m_score__min__rmsd>  (17) 
6.1851996972353875

>  <meeko>  (17) 
{"free_energy": -5.59, "intermolecular_energy": -7.68, "internal_energy": -3.96, "cluster_size": 14, "cluster_id": 4, "rank_in_cluster": 5}

>  <energy>  (17) 
-5.64

>  <cluster_rmsd>  (17) 
0.62

>  <cluster>  (17) 
4

$$$$

     RDKit          3D

 44 46  0  0  0  0  0  0  0  0999 V2000
  139.9290   74.3750  222.3330 N   0  0  0  0  0  0  0  0  0  0  0  0
  140.0350   73.0050  221.8490 C   0  0  2  0  0  0  0  0  0  0  0  0
  139.5110   73.0120  220.4320 C   0  0  0  0  0  0  0  0  0  0  0  0
  138.1370   72.4150  220.4860 C   0  0  0  0  0  0  0  0  0  0  0  0
  137.8710   72.1560  221.8910 N   0  0  0  0  0  0  0  0  0  0  0  0
  136.5740   71.9330  222.4630 C   0  0  0  0  0  0  0  0  0  0  0  0
  136.1110   70.7490  222.5930 O   0  0  0  0  0  0  0  0  0  0  0  0
  135.7540   73.0950  222.9150 C   0  0  0  0  0  0  0  0  0  0  0  0
  136.6340   74.2470  222.9480 N   0  0  0  0  0  0  0  0  0  0  0  0
  136.1310   75.5760  222.8240 C   0  0  0  0  0  0  0  0  0  0  0  0
  134.8820   75.8100  222.6790 O   0  0  0  0  0  0  0  0  0  0  0  0
  137.0800   76.7060  222.8680 C   0  0  0  0  0  0  0  0  0  0  0  0
  136.5960   77.9840  223.0460 C   0  0  0  0  0  0  0  0  0  0  0  0
  137.4850   79.0490  223.0880 C   0  0  0  0  0  0  0  0  0  0  0  0
  138.8360   78.7600  222.9420 C   0  0  0  0  0  0  0  0  0  0  0  0
  139.7270   79.8150  222.9830 C   0  0  0  0  0  0  0  0  0  0  0  0
  141.0830   79.5270  222.8380 C   0  0  0  0  0  0  0  0  0  0  0  0
  142.2180   80.8750  222.8890 Cl  0  0  0  0  0  0  0  0  0  0  0  0
  141.5460   78.2370  222.6600 C   0  0  0  0  0  0  0  0  0  0  0  0
  140.6530   77.1930  222.6220 C   0  0  0  0  0  0  0  0  0  0  0  0
  139.3090   77.4810  222.7650 C   0  0  0  0  0  0  0  0  0  0  0  0
  138.4160   76.4880  222.7320 N   0  0  0  0  0  0  0  0  0  0  0  0
  139.1060   72.1510  222.6500 C   0  0  1  0  0  0  0  0  0  0  0  0
  139.5720   70.7140  222.7450 C   0  0  0  0  0  0  0  0  0  0  0  0
  138.7290   70.0250  223.6130 O   0  0  0  0  0  0  0  0  0  0  0  0
  139.6450   75.0470  221.5830 H   0  0  0  0  0  0  0  0  0  0  0  0
  139.2500   74.4650  223.1220 H   0  0  0  0  0  0  0  0  0  0  0  0
  141.0683   72.6342  221.9183 H   0  0  0  0  0  0  0  0  0  0  0  0
  139.4635   74.0421  220.0490 H   0  0  0  0  0  0  0  0  0  0  0  0
  140.1684   72.4398  219.7609 H   0  0  0  0  0  0  0  0  0  0  0  0
  137.3970   73.1204  220.0800 H   0  0  0  0  0  0  0  0  0  0  0  0
  138.0721   71.4953  219.8861 H   0  0  0  0  0  0  0  0  0  0  0  0
  134.9275   73.2709  222.2108 H   0  0  0  0  0  0  0  0  0  0  0  0
  135.3175   72.9056  223.9068 H   0  0  0  0  0  0  0  0  0  0  0  0
  137.6860   74.1490  223.0670 H   0  0  0  0  0  0  0  0  0  0  0  0
  135.5153   78.1584  223.1538 H   0  0  0  0  0  0  0  0  0  0  0  0
  137.1336   80.0815  223.2313 H   0  0  0  0  0  0  0  0  0  0  0  0
  139.3778   80.8483  223.1254 H   0  0  0  0  0  0  0  0  0  0  0  0
  142.6238   78.0469  222.5493 H   0  0  0  0  0  0  0  0  0  0  0  0
  140.9981   76.1580  222.4818 H   0  0  0  0  0  0  0  0  0  0  0  0
  139.0262   72.5369  223.6770 H   0  0  0  0  0  0  0  0  0  0  0  0
  139.5382   70.2479  221.7492 H   0  0  0  0  0  0  0  0  0  0  0  0
  140.6048   70.6803  223.1220 H   0  0  0  0  0  0  0  0  0  0  0  0
  137.7810   70.0620  223.3400 H   0  0  0  0  0  0  0  0  0  0  0  0
  1  2  1  0
  2  3  1  0
  3  4  1  0
  4  5  1  0
  5  6  1  0
  6  7  2  0
  6  8  1  0
  8  9  1  0
  9 10  1  0
 10 11  2  0
 10 12  1  0
 12 13  2  0
 13 14  1  0
 14 15  2  0
 15 16  1  0
 16 17  2  0
 17 18  1  0
 17 19  1  0
 19 20  2  0
 20 21  1  0
 21 22  2  0
  5 23  1  0
 23 24  1  0
 24 25  1  0
 23  2  1  0
 22 12  1  0
 21 15  1  0
  1 26  1  0
  1 27  1  0
  2 28  1  6
  3 29  1  0
  3 30  1  0
  4 31  1  0
  4 32  1  0
  8 33  1  0
  8 34  1  0
  9 35  1  0
 13 36  1  0
 14 37  1  0
 16 38  1  0
 19 39  1  0
 20 40  1  0
 23 41  1  1
 24 42  1  0
 24 43  1  0
 25 44  1  0
M  END
>  <smiles>  (18) 
N[C@@H]1CCN(C(=O)CNC(=O)c2ccc3cc(Cl)ccc3n2)[C@H]1CO

>  <score_type>  (18) 
oracle

>  <origin>  (18) 
autodockgpu

>  <m_score__min__energy>  (18) 
-7.3300000000000001

>  <m_primary>  (18) 
energy

>  <rmsd>  (18) 
7.245386882316501

>  <m_score__min__rmsd>  (18) 
7.245386882316501

>  <meeko>  (18) 
{"free_energy": -4.7, "intermolecular_energy": -6.78, "internal_energy": -3.9, "cluster_size": 3, "cluster_id": 9, "rank_in_cluster": 3}

>  <energy>  (18) 
-5.62

>  <cluster_rmsd>  (18) 
0.67

>  <cluster>  (18) 
4

$$$$

     RDKit          3D

 44 46  0  0  0  0  0  0  0  0999 V2000
  143.2940   74.2430  220.7420 N   0  0  0  0  0  0  0  0  0  0  0  0
  144.1300   73.0540  220.8490 C   0  0  2  0  0  0  0  0  0  0  0  0
  145.5270   73.5430  221.1500 C   0  0  0  0  0  0  0  0  0  0  0  0
  146.3010   73.4280  219.8710 C   0  0  0  0  0  0  0  0  0  0  0  0
  145.3520   72.9670  218.8730 N   0  0  0  0  0  0  0  0  0  0  0  0
  145.5310   73.0570  217.4520 C   0  0  0  0  0  0  0  0  0  0  0  0
  146.3270   72.2660  216.8420 O   0  0  0  0  0  0  0  0  0  0  0  0
  144.7790   74.0840  216.6730 C   0  0  0  0  0  0  0  0  0  0  0  0
  144.0750   74.9110  217.6340 N   0  0  0  0  0  0  0  0  0  0  0  0
  143.6600   76.2390  217.3150 C   0  0  0  0  0  0  0  0  0  0  0  0
  143.8900   76.7560  216.1690 O   0  0  0  0  0  0  0  0  0  0  0  0
  142.9460   77.0290  218.3380 C   0  0  0  0  0  0  0  0  0  0  0  0
  142.7640   78.3800  218.1380 C   0  0  0  0  0  0  0  0  0  0  0  0
  142.0930   79.1260  219.0960 C   0  0  0  0  0  0  0  0  0  0  0  0
  141.6380   78.4560  220.2240 C   0  0  0  0  0  0  0  0  0  0  0  0
  140.9690   79.1920  221.1830 C   0  0  0  0  0  0  0  0  0  0  0  0
  140.5100   78.5210  222.3150 C   0  0  0  0  0  0  0  0  0  0  0  0
  139.6580   79.4640  223.5380 Cl  0  0  0  0  0  0  0  0  0  0  0  0
  140.7040   77.1660  222.4960 C   0  0  0  0  0  0  0  0  0  0  0  0
  141.3700   76.4400  221.5360 C   0  0  0  0  0  0  0  0  0  0  0  0
  141.8240   77.1070  220.4150 C   0  0  0  0  0  0  0  0  0  0  0  0
  142.4750   76.4310  219.4650 N   0  0  0  0  0  0  0  0  0  0  0  0
  144.1820   72.3950  219.5090 C   0  0  1  0  0  0  0  0  0  0  0  0
  144.4050   70.9010  219.6040 C   0  0  0  0  0  0  0  0  0  0  0  0
  145.6640   70.6000  219.0910 O   0  0  0  0  0  0  0  0  0  0  0  0
  143.8360   75.1290  220.8620 H   0  0  0  0  0  0  0  0  0  0  0  0
  142.7920   74.2920  219.8270 H   0  0  0  0  0  0  0  0  0  0  0  0
  143.7473   72.3616  221.6132 H   0  0  0  0  0  0  0  0  0  0  0  0
  145.4994   74.5904  221.4850 H   0  0  0  0  0  0  0  0  0  0  0  0
  145.9923   72.9512  221.9520 H   0  0  0  0  0  0  0  0  0  0  0  0
  146.7135   74.4065  219.5839 H   0  0  0  0  0  0  0  0  0  0  0  0
  147.1494   72.7353  219.9727 H   0  0  0  0  0  0  0  0  0  0  0  0
  145.4768   74.6983  216.0850 H   0  0  0  0  0  0  0  0  0  0  0  0
  144.0758   73.6095  215.9727 H   0  0  0  0  0  0  0  0  0  0  0  0
  143.8400   74.5650  218.6110 H   0  0  0  0  0  0  0  0  0  0  0  0
  143.1473   78.8627  217.2269 H   0  0  0  0  0  0  0  0  0  0  0  0
  141.9279   80.2059  218.9671 H   0  0  0  0  0  0  0  0  0  0  0  0
  140.8040   80.2723  221.0572 H   0  0  0  0  0  0  0  0  0  0  0  0
  140.3280   76.6698  223.4029 H   0  0  0  0  0  0  0  0  0  0  0  0
  141.5362   75.3594  221.6576 H   0  0  0  0  0  0  0  0  0  0  0  0
  143.2344   72.5509  218.9725 H   0  0  0  0  0  0  0  0  0  0  0  0
  144.3498   70.5855  220.6563 H   0  0  0  0  0  0  0  0  0  0  0  0
  143.6314   70.3711  219.0288 H   0  0  0  0  0  0  0  0  0  0  0  0
  145.6970   70.6380  218.1050 H   0  0  0  0  0  0  0  0  0  0  0  0
  1  2  1  0
  2  3  1  0
  3  4  1  0
  4  5  1  0
  5  6  1  0
  6  7  2  0
  6  8  1  0
  8  9  1  0
  9 10  1  0
 10 11  2  0
 10 12  1  0
 12 13  2  0
 13 14  1  0
 14 15  2  0
 15 16  1  0
 16 17  2  0
 17 18  1  0
 17 19  1  0
 19 20  2  0
 20 21  1  0
 21 22  2  0
  5 23  1  0
 23 24  1  0
 24 25  1  0
 23  2  1  0
 22 12  1  0
 21 15  1  0
  1 26  1  0
  1 27  1  0
  2 28  1  1
  3 29  1  0
  3 30  1  0
  4 31  1  0
  4 32  1  0
  8 33  1  0
  8 34  1  0
  9 35  1  0
 13 36  1  0
 14 37  1  0
 16 38  1  0
 19 39  1  0
 20 40  1  0
 23 41  1  6
 24 42  1  0
 24 43  1  0
 25 44  1  0
M  END
>  <smiles>  (19) 
N[C@@H]1CCN(C(=O)CNC(=O)c2ccc3cc(Cl)ccc3n2)[C@H]1CO

>  <score_type>  (19) 
oracle

>  <origin>  (19) 
autodockgpu

>  <m_score__min__energy>  (19) 
-7.3300000000000001

>  <m_primary>  (19) 
energy

>  <rmsd>  (19) 
8.62382765320112

>  <m_score__min__rmsd>  (19) 
8.62382765320112

>  <meeko>  (19) 
{"free_energy": -4.49, "intermolecular_energy": -6.58, "internal_energy": -3.97, "cluster_size": 1, "cluster_id": 10, "rank_in_cluster": 1}

>  <energy>  (19) 
-5.62

>  <cluster_rmsd>  (19) 
0.66

>  <cluster>  (19) 
4

$$$$

     RDKit          3D

 44 46  0  0  0  0  0  0  0  0999 V2000
  142.6880   75.4750  220.4290 N   0  0  0  0  0  0  0  0  0  0  0  0
  144.0080   75.0780  219.9550 C   0  0  2  0  0  0  0  0  0  0  0  0
  143.8760   74.8490  218.4680 C   0  0  0  0  0  0  0  0  0  0  0  0
  143.8480   73.3630  218.2680 C   0  0  0  0  0  0  0  0  0  0  0  0
  143.8840   72.7830  219.6000 N   0  0  0  0  0  0  0  0  0  0  0  0
  143.5150   71.4370  219.9300 C   0  0  0  0  0  0  0  0  0  0  0  0
  144.3200   70.4670  219.7180 O   0  0  0  0  0  0  0  0  0  0  0  0
  142.1760   71.1600  220.5280 C   0  0  0  0  0  0  0  0  0  0  0  0
  141.6010   72.4410  220.8880 N   0  0  0  0  0  0  0  0  0  0  0  0
  140.2790   72.5460  221.4140 C   0  0  0  0  0  0  0  0  0  0  0  0
  139.5450   71.5150  221.5930 O   0  0  0  0  0  0  0  0  0  0  0  0
  139.7510   73.8800  221.7610 C   0  0  0  0  0  0  0  0  0  0  0  0
  138.3900   74.0530  221.8920 C   0  0  0  0  0  0  0  0  0  0  0  0
  137.8910   75.3050  222.2190 C   0  0  0  0  0  0  0  0  0  0  0  0
  138.8080   76.3330  222.3960 C   0  0  0  0  0  0  0  0  0  0  0  0
  138.3190   77.5830  222.7220 C   0  0  0  0  0  0  0  0  0  0  0  0
  139.2380   78.6150  222.9010 C   0  0  0  0  0  0  0  0  0  0  0  0
  138.6090   80.2090  223.3160 Cl  0  0  0  0  0  0  0  0  0  0  0  0
  140.5980   78.4200  222.7650 C   0  0  0  0  0  0  0  0  0  0  0  0
  141.0780   77.1730  222.4420 C   0  0  0  0  0  0  0  0  0  0  0  0
  140.1650   76.1510  222.2640 C   0  0  0  0  0  0  0  0  0  0  0  0
  140.5990   74.9280  221.9490 N   0  0  0  0  0  0  0  0  0  0  0  0
  144.3490   73.7580  220.5670 C   0  0  1  0  0  0  0  0  0  0  0  0
  145.8410   73.5590  220.7280 C   0  0  0  0  0  0  0  0  0  0  0  0
  146.2220   72.4250  220.0150 O   0  0  0  0  0  0  0  0  0  0  0  0
  141.9440   74.7860  220.1700 H   0  0  0  0  0  0  0  0  0  0  0  0
  142.6620   75.6050  221.4650 H   0  0  0  0  0  0  0  0  0  0  0  0
  144.7669   75.8347  220.2029 H   0  0  0  0  0  0  0  0  0  0  0  0
  142.9449   75.3005  218.0950 H   0  0  0  0  0  0  0  0  0  0  0  0
  144.7105   75.3091  217.9186 H   0  0  0  0  0  0  0  0  0  0  0  0
  142.9276   73.0643  217.7450 H   0  0  0  0  0  0  0  0  0  0  0  0
  144.6949   73.0212  217.6548 H   0  0  0  0  0  0  0  0  0  0  0  0
  141.5332   70.6495  219.7957 H   0  0  0  0  0  0  0  0  0  0  0  0
  142.2663   70.5080  221.4093 H   0  0  0  0  0  0  0  0  0  0  0  0
  142.1370   73.3520  220.7750 H   0  0  0  0  0  0  0  0  0  0  0  0
  137.7056   73.2056  221.7386 H   0  0  0  0  0  0  0  0  0  0  0  0
  136.8106   75.4772  222.3337 H   0  0  0  0  0  0  0  0  0  0  0  0
  137.2391   77.7581  222.8366 H   0  0  0  0  0  0  0  0  0  0  0  0
  141.2942   79.2585  222.9144 H   0  0  0  0  0  0  0  0  0  0  0  0
  142.1574   76.9939  222.3285 H   0  0  0  0  0  0  0  0  0  0  0  0
  143.8988   73.6762  221.5673 H   0  0  0  0  0  0  0  0  0  0  0  0
  146.3754   74.4378  220.3380 H   0  0  0  0  0  0  0  0  0  0  0  0
  146.0884   73.4320  221.7923 H   0  0  0  0  0  0  0  0  0  0  0  0
  146.0030   71.5840  220.4830 H   0  0  0  0  0  0  0  0  0  0  0  0
  1  2  1  0
  2  3  1  0
  3  4  1  0
  4  5  1  0
  5  6  1  0
  6  7  2  0
  6  8  1  0
  8  9  1  0
  9 10  1  0
 10 11  2  0
 10 12  1  0
 12 13  2  0
 13 14  1  0
 14 15  2  0
 15 16  1  0
 16 17  2  0
 17 18  1  0
 17 19  1  0
 19 20  2  0
 20 21  1  0
 21 22  2  0
  5 23  1  0
 23 24  1  0
 24 25  1  0
 23  2  1  0
 22 12  1  0
 21 15  1  0
  1 26  1  0
  1 27  1  0
  2 28  1  6
  3 29  1  0
  3 30  1  0
  4 31  1  0
  4 32  1  0
  8 33  1  0
  8 34  1  0
  9 35  1  0
 13 36  1  0
 14 37  1  0
 16 38  1  0
 19 39  1  0
 20 40  1  0
 23 41  1  1
 24 42  1  0
 24 43  1  0
 25 44  1  0
M  END
>  <smiles>  (20) 
N[C@@H]1CCN(C(=O)CNC(=O)c2ccc3cc(Cl)ccc3n2)[C@H]1CO

>  <score_type>  (20) 
oracle

>  <origin>  (20) 
autodockgpu

>  <m_score__min__energy>  (20) 
-7.3300000000000001

>  <m_primary>  (20) 
energy

>  <rmsd>  (20) 
6.203009177976878

>  <m_score__min__rmsd>  (20) 
6.203009177976878

>  <meeko>  (20) 
{"free_energy": -5.62, "intermolecular_energy": -7.71, "internal_energy": -3.95, "cluster_size": 14, "cluster_id": 4, "rank_in_cluster": 3}

>  <energy>  (20) 
-5.59

>  <cluster_rmsd>  (20) 
0.66

>  <cluster>  (20) 
4

$$$$

     RDKit          3D

 44 46  0  0  0  0  0  0  0  0999 V2000
  141.8230   76.2460  221.0470 N   0  0  0  0  0  0  0  0  0  0  0  0
  140.7280   77.2070  221.0340 C   0  0  2  0  0  0  0  0  0  0  0  0
  140.1430   77.2040  222.4270 C   0  0  0  0  0  0  0  0  0  0  0  0
  138.8660   76.4210  222.3490 C   0  0  0  0  0  0  0  0  0  0  0  0
  138.7800   75.9380  220.9810 N   0  0  0  0  0  0  0  0  0  0  0  0
  137.9420   74.8640  220.5310 C   0  0  0  0  0  0  0  0  0  0  0  0
  136.6690   74.9490  220.6110 O   0  0  0  0  0  0  0  0  0  0  0  0
  138.5600   73.6310  219.9600 C   0  0  0  0  0  0  0  0  0  0  0  0
  138.7160   72.6920  221.0530 N   0  0  0  0  0  0  0  0  0  0  0  0
  139.7270   72.8620  222.0460 C   0  0  0  0  0  0  0  0  0  0  0  0
  140.5370   73.8500  222.0150 O   0  0  0  0  0  0  0  0  0  0  0  0
  139.8330   71.8700  223.1340 C   0  0  0  0  0  0  0  0  0  0  0  0
  139.4140   70.5760  222.9090 C   0  0  0  0  0  0  0  0  0  0  0  0
  139.5130   69.6410  223.9290 C   0  0  0  0  0  0  0  0  0  0  0  0
  140.0360   70.0710  225.1420 C   0  0  0  0  0  0  0  0  0  0  0  0
  140.1370   69.1450  226.1620 C   0  0  0  0  0  0  0  0  0  0  0  0
  140.6630   69.5750  227.3800 C   0  0  0  0  0  0  0  0  0  0  0  0
  140.7900   68.3910  228.6810 Cl  0  0  0  0  0  0  0  0  0  0  0  0
  141.0760   70.8770  227.5840 C   0  0  0  0  0  0  0  0  0  0  0  0
  140.9730   71.7910  226.5630 C   0  0  0  0  0  0  0  0  0  0  0  0
  140.4520   71.3640  225.3570 C   0  0  0  0  0  0  0  0  0  0  0  0
  140.3380   72.2280  224.3450 N   0  0  0  0  0  0  0  0  0  0  0  0
  139.6640   76.6950  220.1170 C   0  0  1  0  0  0  0  0  0  0  0  0
  138.8460   77.8070  219.4970 C   0  0  0  0  0  0  0  0  0  0  0  0
  137.5790   77.8090  220.0730 O   0  0  0  0  0  0  0  0  0  0  0  0
  142.7610   76.7040  220.9840 H   0  0  0  0  0  0  0  0  0  0  0  0
  141.8120   75.6450  221.9010 H   0  0  0  0  0  0  0  0  0  0  0  0
  141.0725   78.2030  220.7190 H   0  0  0  0  0  0  0  0  0  0  0  0
  140.8399   76.7259  223.1311 H   0  0  0  0  0  0  0  0  0  0  0  0
  139.9613   78.2281  222.7852 H   0  0  0  0  0  0  0  0  0  0  0  0
  138.8914   75.5759  223.0526 H   0  0  0  0  0  0  0  0  0  0  0  0
  137.9957   77.0387  222.6155 H   0  0  0  0  0  0  0  0  0  0  0  0
  137.9059   73.2042  219.1854 H   0  0  0  0  0  0  0  0  0  0  0  0
  139.5305   73.8571  219.4942 H   0  0  0  0  0  0  0  0  0  0  0  0
  138.0870   71.8410  221.1600 H   0  0  0  0  0  0  0  0  0  0  0  0
  139.0049   70.2875  221.9295 H   0  0  0  0  0  0  0  0  0  0  0  0
  139.1900   68.5997  223.7830 H   0  0  0  0  0  0  0  0  0  0  0  0
  139.8134   68.1035  226.0184 H   0  0  0  0  0  0  0  0  0  0  0  0
  141.4853   71.1808  228.5588 H   0  0  0  0  0  0  0  0  0  0  0  0
  141.2963   72.8332  226.7021 H   0  0  0  0  0  0  0  0  0  0  0  0
  140.1160   76.1232  219.2931 H   0  0  0  0  0  0  0  0  0  0  0  0
  139.3371   78.7738  219.6815 H   0  0  0  0  0  0  0  0  0  0  0  0
  138.7620   77.6477  218.4118 H   0  0  0  0  0  0  0  0  0  0  0  0
  137.0960   76.9580  219.9450 H   0  0  0  0  0  0  0  0  0  0  0  0
  1  2  1  0
  2  3  1  0
  3  4  1  0
  4  5  1  0
  5  6  1  0
  6  7  2  0
  6  8  1  0
  8  9  1  0
  9 10  1  0
 10 11  2  0
 10 12  1  0
 12 13  2  0
 13 14  1  0
 14 15  2  0
 15 16  1  0
 16 17  2  0
 17 18  1  0
 17 19  1  0
 19 20  2  0
 20 21  1  0
 21 22  2  0
  5 23  1  0
 23 24  1  0
 24 25  1  0
 23  2  1  0
 22 12  1  0
 21 15  1  0
  1 26  1  0
  1 27  1  0
  2 28  1  6
  3 29  1  0
  3 30  1  0
  4 31  1  0
  4 32  1  0
  8 33  1  0
  8 34  1  0
  9 35  1  0
 13 36  1  0
 14 37  1  0
 16 38  1  0
 19 39  1  0
 20 40  1  0
 23 41  1  6
 24 42  1  0
 24 43  1  0
 25 44  1  0
M  END
>  <smiles>  (21) 
N[C@@H]1CCN(C(=O)CNC(=O)c2ccc3cc(Cl)ccc3n2)[C@H]1CO

>  <score_type>  (21) 
oracle

>  <origin>  (21) 
autodockgpu

>  <m_score__min__energy>  (21) 
-7.3300000000000001

>  <m_primary>  (21) 
energy

>  <rmsd>  (21) 
2.4512313274268656

>  <m_score__min__rmsd>  (21) 
2.4512313274268656

>  <meeko>  (21) 
{"free_energy": -5.92, "intermolecular_energy": -8.01, "internal_energy": -2.49, "cluster_size": 10, "cluster_id": 3, "rank_in_cluster": 2}

>  <energy>  (21) 
-5.5

>  <cluster_rmsd>  (21) 
1.75

>  <cluster>  (21) 
4

$$$$

     RDKit          3D

 44 46  0  0  0  0  0  0  0  0999 V2000
  139.6130   71.9520  228.7220 N   0  0  0  0  0  0  0  0  0  0  0  0
  140.6740   71.0380  228.3190 C   0  0  2  0  0  0  0  0  0  0  0  0
  141.3220   71.6510  227.1000 C   0  0  0  0  0  0  0  0  0  0  0  0
  140.8170   70.8800  225.9170 C   0  0  0  0  0  0  0  0  0  0  0  0
  139.8620   69.9220  226.4470 N   0  0  0  0  0  0  0  0  0  0  0  0
  138.8690   69.2270  225.6790 C   0  0  0  0  0  0  0  0  0  0  0  0
  138.8770   67.9520  225.6000 O   0  0  0  0  0  0  0  0  0  0  0  0
  137.8120   70.0000  224.9620 C   0  0  0  0  0  0  0  0  0  0  0  0
  138.4840   71.0500  224.2220 N   0  0  0  0  0  0  0  0  0  0  0  0
  139.3600   70.7550  223.1350 C   0  0  0  0  0  0  0  0  0  0  0  0
  139.5890   69.5530  222.7660 O   0  0  0  0  0  0  0  0  0  0  0  0
  140.0130   71.8700  222.4210 C   0  0  0  0  0  0  0  0  0  0  0  0
  141.0680   71.6020  221.5760 C   0  0  0  0  0  0  0  0  0  0  0  0
  141.6840   72.6470  220.9030 C   0  0  0  0  0  0  0  0  0  0  0  0
  141.1950   73.9280  221.1260 C   0  0  0  0  0  0  0  0  0  0  0  0
  141.8030   74.9730  220.4590 C   0  0  0  0  0  0  0  0  0  0  0  0
  141.3130   76.2590  220.6800 C   0  0  0  0  0  0  0  0  0  0  0  0
  142.0920   77.5920  219.8290 Cl  0  0  0  0  0  0  0  0  0  0  0  0
  140.2540   76.5060  221.5320 C   0  0  0  0  0  0  0  0  0  0  0  0
  139.6530   75.4590  222.1910 C   0  0  0  0  0  0  0  0  0  0  0  0
  140.1410   74.1860  221.9710 C   0  0  0  0  0  0  0  0  0  0  0  0
  139.5790   73.1470  222.5960 N   0  0  0  0  0  0  0  0  0  0  0  0
  140.0460   69.7570  227.8760 C   0  0  1  0  0  0  0  0  0  0  0  0
  140.9540   68.5630  228.0790 C   0  0  0  0  0  0  0  0  0  0  0  0
  140.7210   67.6420  227.0610 O   0  0  0  0  0  0  0  0  0  0  0  0
  139.9300   72.6480  229.4360 H   0  0  0  0  0  0  0  0  0  0  0  0
  139.2150   72.4780  227.9120 H   0  0  0  0  0  0  0  0  0  0  0  0
  141.3869   70.8641  229.1385 H   0  0  0  0  0  0  0  0  0  0  0  0
  141.0398   72.7105  227.0118 H   0  0  0  0  0  0  0  0  0  0  0  0
  142.4190   71.6046  227.1666 H   0  0  0  0  0  0  0  0  0  0  0  0
  140.3251   71.5552  225.2014 H   0  0  0  0  0  0  0  0  0  0  0  0
  141.6365   70.3799  225.3800 H   0  0  0  0  0  0  0  0  0  0  0  0
  137.2652   69.3414  224.2712 H   0  0  0  0  0  0  0  0  0  0  0  0
  137.0852   70.4227  225.6713 H   0  0  0  0  0  0  0  0  0  0  0  0
  138.3530   72.0780  224.4580 H   0  0  0  0  0  0  0  0  0  0  0  0
  141.4185   70.5687  221.4364 H   0  0  0  0  0  0  0  0  0  0  0  0
  142.5270   72.4682  220.2193 H   0  0  0  0  0  0  0  0  0  0  0  0
  142.6466   74.7963  219.7755 H   0  0  0  0  0  0  0  0  0  0  0  0
  139.8934   77.5343  221.6825 H   0  0  0  0  0  0  0  0  0  0  0  0
  138.8078   75.6307  222.8737 H   0  0  0  0  0  0  0  0  0  0  0  0
  139.1253   69.5689  228.4477 H   0  0  0  0  0  0  0  0  0  0  0  0
  142.0043   68.8884  228.0495 H   0  0  0  0  0  0  0  0  0  0  0  0
  140.7486   68.0998  229.0553 H   0  0  0  0  0  0  0  0  0  0  0  0
  139.9590   67.0430  227.2510 H   0  0  0  0  0  0  0  0  0  0  0  0
  1  2  1  0
  2  3  1  0
  3  4  1  0
  4  5  1  0
  5  6  1  0
  6  7  2  0
  6  8  1  0
  8  9  1  0
  9 10  1  0
 10 11  2  0
 10 12  1  0
 12 13  2  0
 13 14  1  0
 14 15  2  0
 15 16  1  0
 16 17  2  0
 17 18  1  0
 17 19  1  0
 19 20  2  0
 20 21  1  0
 21 22  2  0
  5 23  1  0
 23 24  1  0
 24 25  1  0
 23  2  1  0
 22 12  1  0
 21 15  1  0
  1 26  1  0
  1 27  1  0
  2 28  1  1
  3 29  1  0
  3 30  1  0
  4 31  1  0
  4 32  1  0
  8 33  1  0
  8 34  1  0
  9 35  1  0
 13 36  1  0
 14 37  1  0
 16 38  1  0
 19 39  1  0
 20 40  1  0
 23 41  1  1
 24 42  1  0
 24 43  1  0
 25 44  1  0
M  END
>  <smiles>  (22) 
N[C@@H]1CCN(C(=O)CNC(=O)c2ccc3cc(Cl)ccc3n2)[C@H]1CO

>  <score_type>  (22) 
oracle

>  <origin>  (22) 
autodockgpu

>  <m_score__min__energy>  (22) 
-7.3300000000000001

>  <m_primary>  (22) 
energy

>  <rmsd>  (22) 
8.184422958221713

>  <m_score__min__rmsd>  (22) 
8.184422958221713

>  <meeko>  (22) 
{"free_energy": -7.19, "intermolecular_energy": -9.28, "internal_energy": -1.82, "cluster_size": 2, "cluster_id": 2, "rank_in_cluster": 1}

>  <energy>  (22) 
-5.41

>  <cluster_rmsd>  (22) 
1.09

>  <cluster>  (22) 
4

$$$$

     RDKit          3D

 44 46  0  0  0  0  0  0  0  0999 V2000
  141.4390   76.9230  221.6240 N   0  0  0  0  0  0  0  0  0  0  0  0
  141.0750   77.8220  222.7120 C   0  0  2  0  0  0  0  0  0  0  0  0
  139.6160   78.1620  222.5130 C   0  0  0  0  0  0  0  0  0  0  0  0
  139.5780   79.5500  221.9470 C   0  0  0  0  0  0  0  0  0  0  0  0
  140.9650   79.9420  221.7630 N   0  0  0  0  0  0  0  0  0  0  0  0
  141.4210   81.0160  220.9270 C   0  0  0  0  0  0  0  0  0  0  0  0
  141.5870   82.1900  221.4030 O   0  0  0  0  0  0  0  0  0  0  0  0
  141.7070   80.7620  219.4850 C   0  0  0  0  0  0  0  0  0  0  0  0
  142.1760   79.3940  219.3810 N   0  0  0  0  0  0  0  0  0  0  0  0
  142.3770   78.7670  218.1150 C   0  0  0  0  0  0  0  0  0  0  0  0
  142.1520   79.3840  217.0180 O   0  0  0  0  0  0  0  0  0  0  0  0
  142.8570   77.3720  218.0770 C   0  0  0  0  0  0  0  0  0  0  0  0
  142.9810   76.7360  216.8610 C   0  0  0  0  0  0  0  0  0  0  0  0
  143.4330   75.4240  216.8220 C   0  0  0  0  0  0  0  0  0  0  0  0
  143.7380   74.8170  218.0320 C   0  0  0  0  0  0  0  0  0  0  0  0
  144.1880   73.5110  218.0010 C   0  0  0  0  0  0  0  0  0  0  0  0
  144.4950   72.8990  219.2150 C   0  0  0  0  0  0  0  0  0  0  0  0
  145.0680   71.2330  219.1720 Cl  0  0  0  0  0  0  0  0  0  0  0  0
  144.3630   73.5560  220.4230 C   0  0  0  0  0  0  0  0  0  0  0  0
  143.9150   74.8550  220.4460 C   0  0  0  0  0  0  0  0  0  0  0  0
  143.6110   75.4590  219.2410 C   0  0  0  0  0  0  0  0  0  0  0  0
  143.1730   76.7210  219.2290 N   0  0  0  0  0  0  0  0  0  0  0  0
  141.8420   79.0940  222.5450 C   0  0  1  0  0  0  0  0  0  0  0  0
  142.0940   79.7970  223.8620 C   0  0  0  0  0  0  0  0  0  0  0  0
  142.8680   80.9300  223.6250 O   0  0  0  0  0  0  0  0  0  0  0  0
  142.2170   77.2980  221.0340 H   0  0  0  0  0  0  0  0  0  0  0  0
  141.7210   75.9780  221.9690 H   0  0  0  0  0  0  0  0  0  0  0  0
  141.2758   77.3669  223.6931 H   0  0  0  0  0  0  0  0  0  0  0  0
  139.1522   77.4525  221.8119 H   0  0  0  0  0  0  0  0  0  0  0  0
  139.0599   78.1023  223.4602 H   0  0  0  0  0  0  0  0  0  0  0  0
  139.0474   79.5561  220.9835 H   0  0  0  0  0  0  0  0  0  0  0  0
  139.0467   80.2444  222.6145 H   0  0  0  0  0  0  0  0  0  0  0  0
  140.7917   80.8940  218.8893 H   0  0  0  0  0  0  0  0  0  0  0  0
  142.4616   81.4660  219.1043 H   0  0  0  0  0  0  0  0  0  0  0  0
  142.3900   78.8050  220.2390 H   0  0  0  0  0  0  0  0  0  0  0  0
  142.7243   77.2628  215.9301 H   0  0  0  0  0  0  0  0  0  0  0  0
  143.5450   74.8864  215.8689 H   0  0  0  0  0  0  0  0  0  0  0  0
  144.3003   72.9717  217.0489 H   0  0  0  0  0  0  0  0  0  0  0  0
  144.6153   73.0418  221.3621 H   0  0  0  0  0  0  0  0  0  0  0  0
  143.8017   75.3980  221.3959 H   0  0  0  0  0  0  0  0  0  0  0  0
  142.8223   78.8895  222.0899 H   0  0  0  0  0  0  0  0  0  0  0  0
  141.1351   80.0921  224.3130 H   0  0  0  0  0  0  0  0  0  0  0  0
  142.6217   79.1214  224.5513 H   0  0  0  0  0  0  0  0  0  0  0  0
  142.4730   81.5330  222.9510 H   0  0  0  0  0  0  0  0  0  0  0  0
  1  2  1  0
  2  3  1  0
  3  4  1  0
  4  5  1  0
  5  6  1  0
  6  7  2  0
  6  8  1  0
  8  9  1  0
  9 10  1  0
 10 11  2  0
 10 12  1  0
 12 13  2  0
 13 14  1  0
 14 15  2  0
 15 16  1  0
 16 17  2  0
 17 18  1  0
 17 19  1  0
 19 20  2  0
 20 21  1  0
 21 22  2  0
  5 23  1  0
 23 24  1  0
 24 25  1  0
 23  2  1  0
 22 12  1  0
 21 15  1  0
  1 26  1  0
  1 27  1  0
  2 28  1  1
  3 29  1  0
  3 30  1  0
  4 31  1  0
  4 32  1  0
  8 33  1  0
  8 34  1  0
  9 35  1  0
 13 36  1  0
 14 37  1  0
 16 38  1  0
 19 39  1  0
 20 40  1  0
 23 41  1  6
 24 42  1  0
 24 43  1  0
 25 44  1  0
M  END
>  <smiles>  (23) 
N[C@@H]1CCN(C(=O)CNC(=O)c2ccc3cc(Cl)ccc3n2)[C@H]1CO

>  <score_type>  (23) 
oracle

>  <origin>  (23) 
autodockgpu

>  <m_score__min__energy>  (23) 
-7.3300000000000001

>  <m_primary>  (23) 
energy

>  <rmsd>  (23) 
7.998412968390713

>  <m_score__min__rmsd>  (23) 
7.998412968390713

>  <meeko>  (23) 
{"free_energy": -5.42, "intermolecular_energy": -7.51, "internal_energy": -3.34, "cluster_size": 8, "cluster_id": 6, "rank_in_cluster": 1}

>  <energy>  (23) 
-5.38

>  <cluster_rmsd>  (23) 
0.73

>  <cluster>  (23) 
4

$$$$

     RDKit          3D

 44 46  0  0  0  0  0  0  0  0999 V2000
  142.7330   76.0970  220.1410 N   0  0  0  0  0  0  0  0  0  0  0  0
  143.9190   75.3920  219.6720 C   0  0  2  0  0  0  0  0  0  0  0  0
  143.5670   74.8260  218.3160 C   0  0  0  0  0  0  0  0  0  0  0  0
  143.3210   73.3610  218.5180 C   0  0  0  0  0  0  0  0  0  0  0  0
  143.4520   73.1300  219.9470 N   0  0  0  0  0  0  0  0  0  0  0  0
  142.9570   71.9830  220.6520 C   0  0  0  0  0  0  0  0  0  0  0  0
  143.7610   71.1490  221.1920 O   0  0  0  0  0  0  0  0  0  0  0  0
  141.4850   71.7580  220.7600 C   0  0  0  0  0  0  0  0  0  0  0  0
  140.9180   72.9510  221.3570 N   0  0  0  0  0  0  0  0  0  0  0  0
  140.4360   74.0300  220.5570 C   0  0  0  0  0  0  0  0  0  0  0  0
  140.4830   73.9920  219.2800 O   0  0  0  0  0  0  0  0  0  0  0  0
  139.8680   75.2170  221.2260 C   0  0  0  0  0  0  0  0  0  0  0  0
  138.5000   75.3360  221.3380 C   0  0  0  0  0  0  0  0  0  0  0  0
  137.9620   76.4500  221.9670 C   0  0  0  0  0  0  0  0  0  0  0  0
  138.8510   77.3990  222.4540 C   0  0  0  0  0  0  0  0  0  0  0  0
  138.3230   78.5120  223.0820 C   0  0  0  0  0  0  0  0  0  0  0  0
  139.2130   79.4650  223.5720 C   0  0  0  0  0  0  0  0  0  0  0  0
  138.5360   80.8840  224.3720 Cl  0  0  0  0  0  0  0  0  0  0  0  0
  140.5820   79.3260  223.4490 C   0  0  0  0  0  0  0  0  0  0  0  0
  141.0990   78.2160  222.8240 C   0  0  0  0  0  0  0  0  0  0  0  0
  140.2150   77.2720  222.3380 C   0  0  0  0  0  0  0  0  0  0  0  0
  140.6860   76.1820  221.7260 N   0  0  0  0  0  0  0  0  0  0  0  0
  144.1610   74.2270  220.5760 C   0  0  1  0  0  0  0  0  0  0  0  0
  145.6220   73.8390  220.6470 C   0  0  0  0  0  0  0  0  0  0  0  0
  145.8220   73.0430  221.7720 O   0  0  0  0  0  0  0  0  0  0  0  0
  141.8510   75.5640  219.9660 H   0  0  0  0  0  0  0  0  0  0  0  0
  142.7820   76.3160  221.1620 H   0  0  0  0  0  0  0  0  0  0  0  0
  144.7955   76.0560  219.6429 H   0  0  0  0  0  0  0  0  0  0  0  0
  142.6619   75.3130  217.9241 H   0  0  0  0  0  0  0  0  0  0  0  0
  144.3760   74.9976  217.5907 H   0  0  0  0  0  0  0  0  0  0  0  0
  142.3101   73.0920  218.1777 H   0  0  0  0  0  0  0  0  0  0  0  0
  144.0307   72.7485  217.9425 H   0  0  0  0  0  0  0  0  0  0  0  0
  141.0535   71.5932  219.7617 H   0  0  0  0  0  0  0  0  0  0  0  0
  141.2668   70.8704  221.3720 H   0  0  0  0  0  0  0  0  0  0  0  0
  140.8370   73.0700  222.4100 H   0  0  0  0  0  0  0  0  0  0  0  0
  137.8400   74.5550  220.9325 H   0  0  0  0  0  0  0  0  0  0  0  0
  136.8747   76.5761  222.0754 H   0  0  0  0  0  0  0  0  0  0  0  0
  137.2360   78.6406  223.1911 H   0  0  0  0  0  0  0  0  0  0  0  0
  141.2546   80.0991  223.8489 H   0  0  0  0  0  0  0  0  0  0  0  0
  142.1854   78.0833  222.7140 H   0  0  0  0  0  0  0  0  0  0  0  0
  143.8367   74.4678  221.5991 H   0  0  0  0  0  0  0  0  0  0  0  0
  145.8994   73.2772  219.7429 H   0  0  0  0  0  0  0  0  0  0  0  0
  146.2453   74.7429  220.7138 H   0  0  0  0  0  0  0  0  0  0  0  0
  145.6130   72.0920  221.6130 H   0  0  0  0  0  0  0  0  0  0  0  0
  1  2  1  0
  2  3  1  0
  3  4  1  0
  4  5  1  0
  5  6  1  0
  6  7  2  0
  6  8  1  0
  8  9  1  0
  9 10  1  0
 10 11  2  0
 10 12  1  0
 12 13  2  0
 13 14  1  0
 14 15  2  0
 15 16  1  0
 16 17  2  0
 17 18  1  0
 17 19  1  0
 19 20  2  0
 20 21  1  0
 21 22  2  0
  5 23  1  0
 23 24  1  0
 24 25  1  0
 23  2  1  0
 22 12  1  0
 21 15  1  0
  1 26  1  0
  1 27  1  0
  2 28  1  6
  3 29  1  0
  3 30  1  0
  4 31  1  0
  4 32  1  0
  8 33  1  0
  8 34  1  0
  9 35  1  0
 13 36  1  0
 14 37  1  0
 16 38  1  0
 19 39  1  0
 20 40  1  0
 23 41  1  1
 24 42  1  0
 24 43  1  0
 25 44  1  0
M  END
>  <smiles>  (24) 
N[C@@H]1CCN(C(=O)CNC(=O)c2ccc3cc(Cl)ccc3n2)[C@H]1CO

>  <score_type>  (24) 
oracle

>  <origin>  (24) 
autodockgpu

>  <m_score__min__energy>  (24) 
-7.3300000000000001

>  <m_primary>  (24) 
energy

>  <rmsd>  (24) 
6.401356999186856

>  <m_score__min__rmsd>  (24) 
6.401356999186856

>  <meeko>  (24) 
{"free_energy": -4.93, "intermolecular_energy": -7.02, "internal_energy": -3.84, "cluster_size": 14, "cluster_id": 4, "rank_in_cluster": 14}

>  <energy>  (24) 
-5.37

>  <cluster_rmsd>  (24) 
0.75

>  <cluster>  (24) 
4

$$$$

     RDKit          3D

 44 46  0  0  0  0  0  0  0  0999 V2000
  142.1660   78.2220  221.1310 N   0  0  0  0  0  0  0  0  0  0  0  0
  142.1600   79.5350  221.7620 C   0  0  2  0  0  0  0  0  0  0  0  0
  142.3420   79.2970  223.2420 C   0  0  0  0  0  0  0  0  0  0  0  0
  140.9930   79.4810  223.8710 C   0  0  0  0  0  0  0  0  0  0  0  0
  140.0760   79.7360  222.7730 N   0  0  0  0  0  0  0  0  0  0  0  0
  138.6480   79.6150  222.8400 C   0  0  0  0  0  0  0  0  0  0  0  0
  137.9440   80.4890  223.4510 O   0  0  0  0  0  0  0  0  0  0  0  0
  137.9710   78.4550  222.1870 C   0  0  0  0  0  0  0  0  0  0  0  0
  139.0070   77.5060  221.8330 N   0  0  0  0  0  0  0  0  0  0  0  0
  138.8590   76.1090  222.0850 C   0  0  0  0  0  0  0  0  0  0  0  0
  137.8070   75.6340  222.6330 O   0  0  0  0  0  0  0  0  0  0  0  0
  139.9510   75.1940  221.6980 C   0  0  0  0  0  0  0  0  0  0  0  0
  139.8300   73.8480  221.9700 C   0  0  0  0  0  0  0  0  0  0  0  0
  140.8540   72.9850  221.6080 C   0  0  0  0  0  0  0  0  0  0  0  0
  141.9640   73.5370  220.9830 C   0  0  0  0  0  0  0  0  0  0  0  0
  142.9880   72.6840  220.6200 C   0  0  0  0  0  0  0  0  0  0  0  0
  144.1030   73.2360  219.9920 C   0  0  0  0  0  0  0  0  0  0  0  0
  145.4090   72.1440  219.5300 Cl  0  0  0  0  0  0  0  0  0  0  0  0
  144.2050   74.5880  219.7290 C   0  0  0  0  0  0  0  0  0  0  0  0
  143.1810   75.4300  220.0930 C   0  0  0  0  0  0  0  0  0  0  0  0
  142.0770   74.8820  220.7160 C   0  0  0  0  0  0  0  0  0  0  0  0
  141.0650   75.6730  221.0820 N   0  0  0  0  0  0  0  0  0  0  0  0
  140.8030   80.1350  221.5840 C   0  0  1  0  0  0  0  0  0  0  0  0
  140.8340   81.6480  221.5600 C   0  0  0  0  0  0  0  0  0  0  0  0
  139.7810   82.1320  222.3330 O   0  0  0  0  0  0  0  0  0  0  0  0
  143.0370   78.0430  220.5800 H   0  0  0  0  0  0  0  0  0  0  0  0
  142.0580   77.4490  221.8260 H   0  0  0  0  0  0  0  0  0  0  0  0
  142.9373   80.1873  221.3375 H   0  0  0  0  0  0  0  0  0  0  0  0
  142.7085   78.2753  223.4205 H   0  0  0  0  0  0  0  0  0  0  0  0
  143.0789   79.9928  223.6695 H   0  0  0  0  0  0  0  0  0  0  0  0
  140.6965   78.5718  224.4145 H   0  0  0  0  0  0  0  0  0  0  0  0
  140.9942   80.3068  224.5977 H   0  0  0  0  0  0  0  0  0  0  0  0
  137.2570   77.9925  222.8843 H   0  0  0  0  0  0  0  0  0  0  0  0
  137.4116   78.7768  221.2962 H   0  0  0  0  0  0  0  0  0  0  0  0
  139.9160   77.8090  221.3720 H   0  0  0  0  0  0  0  0  0  0  0  0
  138.9294   73.4617  222.4697 H   0  0  0  0  0  0  0  0  0  0  0  0
  140.7890   71.9054  221.8084 H   0  0  0  0  0  0  0  0  0  0  0  0
  142.9255   71.6042  220.8201 H   0  0  0  0  0  0  0  0  0  0  0  0
  145.1003   74.9888  219.2312 H   0  0  0  0  0  0  0  0  0  0  0  0
  143.2394   76.5102  219.8936 H   0  0  0  0  0  0  0  0  0  0  0  0
  140.3629   79.8022  220.6324 H   0  0  0  0  0  0  0  0  0  0  0  0
  141.7894   82.0046  221.9724 H   0  0  0  0  0  0  0  0  0  0  0  0
  140.7331   82.0070  220.5251 H   0  0  0  0  0  0  0  0  0  0  0  0
  138.9020   81.7910  222.0430 H   0  0  0  0  0  0  0  0  0  0  0  0
  1  2  1  0
  2  3  1  0
  3  4  1  0
  4  5  1  0
  5  6  1  0
  6  7  2  0
  6  8  1  0
  8  9  1  0
  9 10  1  0
 10 11  2  0
 10 12  1  0
 12 13  2  0
 13 14  1  0
 14 15  2  0
 15 16  1  0
 16 17  2  0
 17 18  1  0
 17 19  1  0
 19 20  2  0
 20 21  1  0
 21 22  2  0
  5 23  1  0
 23 24  1  0
 24 25  1  0
 23  2  1  0
 22 12  1  0
 21 15  1  0
  1 26  1  0
  1 27  1  0
  2 28  1  6
  3 29  1  0
  3 30  1  0
  4 31  1  0
  4 32  1  0
  8 33  1  0
  8 34  1  0
  9 35  1  0
 13 36  1  0
 14 37  1  0
 16 38  1  0
 19 39  1  0
 20 40  1  0
 23 41  1  6
 24 42  1  0
 24 43  1  0
 25 44  1  0
M  END
>  <smiles>  (25) 
N[C@@H]1CCN(C(=O)CNC(=O)c2ccc3cc(Cl)ccc3n2)[C@H]1CO

>  <score_type>  (25) 
oracle

>  <origin>  (25) 
autodockgpu

>  <m_score__min__energy>  (25) 
-7.3300000000000001

>  <m_primary>  (25) 
energy

>  <rmsd>  (25) 
6.287247151509366

>  <m_score__min__rmsd>  (25) 
6.287247151509366

>  <meeko>  (25) 
{"free_energy": -5.37, "intermolecular_energy": -7.46, "internal_energy": -3.55, "cluster_size": 7, "cluster_id": 7, "rank_in_cluster": 1}

>  <energy>  (25) 
-5.37

>  <cluster_rmsd>  (25) 
0.73

>  <cluster>  (25) 
4

$$$$

     RDKit          3D

 44 46  0  0  0  0  0  0  0  0999 V2000
  140.0990   74.4140  222.2730 N   0  0  0  0  0  0  0  0  0  0  0  0
  140.3050   73.0000  221.9870 C   0  0  2  0  0  0  0  0  0  0  0  0
  140.0140   72.8180  220.5160 C   0  0  0  0  0  0  0  0  0  0  0  0
  138.6590   72.1810  220.4270 C   0  0  0  0  0  0  0  0  0  0  0  0
  138.1760   72.0830  221.7940 N   0  0  0  0  0  0  0  0  0  0  0  0
  136.8090   71.8830  222.1800 C   0  0  0  0  0  0  0  0  0  0  0  0
  136.3470   70.7070  222.3690 O   0  0  0  0  0  0  0  0  0  0  0  0
  135.9110   73.0610  222.3660 C   0  0  0  0  0  0  0  0  0  0  0  0
  136.7650   74.2200  222.5430 N   0  0  0  0  0  0  0  0  0  0  0  0
  136.2530   75.5480  222.4450 C   0  0  0  0  0  0  0  0  0  0  0  0
  135.0190   75.7740  222.1980 O   0  0  0  0  0  0  0  0  0  0  0  0
  137.1740   76.6850  222.6360 C   0  0  0  0  0  0  0  0  0  0  0  0
  136.6550   77.9380  222.8810 C   0  0  0  0  0  0  0  0  0  0  0  0
  137.5180   79.0090  223.0620 C   0  0  0  0  0  0  0  0  0  0  0  0
  138.8810   78.7520  222.9830 C   0  0  0  0  0  0  0  0  0  0  0  0
  139.7460   79.8140  223.1620 C   0  0  0  0  0  0  0  0  0  0  0  0
  141.1140   79.5590  223.0840 C   0  0  0  0  0  0  0  0  0  0  0  0
  142.2160   80.9160  223.3120 Cl  0  0  0  0  0  0  0  0  0  0  0  0
  141.6130   78.2940  222.8370 C   0  0  0  0  0  0  0  0  0  0  0  0
  140.7450   77.2430  222.6610 C   0  0  0  0  0  0  0  0  0  0  0  0
  139.3900   77.4990  222.7380 C   0  0  0  0  0  0  0  0  0  0  0  0
  138.5200   76.4990  222.5720 N   0  0  0  0  0  0  0  0  0  0  0  0
  139.2740   72.2160  222.7320 C   0  0  1  0  0  0  0  0  0  0  0  0
  139.7430   70.8190  223.0780 C   0  0  0  0  0  0  0  0  0  0  0  0
  138.8440   70.2520  223.9770 O   0  0  0  0  0  0  0  0  0  0  0  0
  139.6850   74.9330  221.4650 H   0  0  0  0  0  0  0  0  0  0  0  0
  139.4830   74.5640  223.1040 H   0  0  0  0  0  0  0  0  0  0  0  0
  141.3198   72.6778  222.2635 H   0  0  0  0  0  0  0  0  0  0  0  0
  140.0104   73.7925  220.0057 H   0  0  0  0  0  0  0  0  0  0  0  0
  140.7801   72.1940  220.0326 H   0  0  0  0  0  0  0  0  0  0  0  0
  137.9815   72.8047  219.8253 H   0  0  0  0  0  0  0  0  0  0  0  0
  138.7069   71.1942  219.9433 H   0  0  0  0  0  0  0  0  0  0  0  0
  135.2729   73.1935  221.4799 H   0  0  0  0  0  0  0  0  0  0  0  0
  135.2536   72.9205  223.2367 H   0  0  0  0  0  0  0  0  0  0  0  0
  137.8030   74.1280  222.7520 H   0  0  0  0  0  0  0  0  0  0  0  0
  135.5664   78.0875  222.9326 H   0  0  0  0  0  0  0  0  0  0  0  0
  137.1380   80.0220  223.2603 H   0  0  0  0  0  0  0  0  0  0  0  0
  139.3675   80.8278  223.3596 H   0  0  0  0  0  0  0  0  0  0  0  0
  142.6992   78.1292  222.7816 H   0  0  0  0  0  0  0  0  0  0  0  0
  141.1187   76.2273  222.4645 H   0  0  0  0  0  0  0  0  0  0  0  0
  139.0239   72.7209  223.6768 H   0  0  0  0  0  0  0  0  0  0  0  0
  139.7874   70.2075  222.1647 H   0  0  0  0  0  0  0  0  0  0  0  0
  140.7448   70.8631  223.5301 H   0  0  0  0  0  0  0  0  0  0  0  0
  137.9020   70.4410  223.7510 H   0  0  0  0  0  0  0  0  0  0  0  0
  1  2  1  0
  2  3  1  0
  3  4  1  0
  4  5  1  0
  5  6  1  0
  6  7  2  0
  6  8  1  0
  8  9  1  0
  9 10  1  0
 10 11  2  0
 10 12  1  0
 12 13  2  0
 13 14  1  0
 14 15  2  0
 15 16  1  0
 16 17  2  0
 17 18  1  0
 17 19  1  0
 19 20  2  0
 20 21  1  0
 21 22  2  0
  5 23  1  0
 23 24  1  0
 24 25  1  0
 23  2  1  0
 22 12  1  0
 21 15  1  0
  1 26  1  0
  1 27  1  0
  2 28  1  6
  3 29  1  0
  3 30  1  0
  4 31  1  0
  4 32  1  0
  8 33  1  0
  8 34  1  0
  9 35  1  0
 13 36  1  0
 14 37  1  0
 16 38  1  0
 19 39  1  0
 20 40  1  0
 23 41  1  1
 24 42  1  0
 24 43  1  0
 25 44  1  0
M  END
>  <smiles>  (26) 
N[C@@H]1CCN(C(=O)CNC(=O)c2ccc3cc(Cl)ccc3n2)[C@H]1CO

>  <score_type>  (26) 
oracle

>  <origin>  (26) 
autodockgpu

>  <m_score__min__energy>  (26) 
-7.3300000000000001

>  <m_primary>  (26) 
energy

>  <rmsd>  (26) 
7.197463942612175

>  <m_score__min__rmsd>  (26) 
7.197463942612175

>  <meeko>  (26) 
{"free_energy": -4.93, "intermolecular_energy": -7.02, "internal_energy": -3.83, "cluster_size": 3, "cluster_id": 9, "rank_in_cluster": 1}

>  <energy>  (26) 
-5.35

>  <cluster_rmsd>  (26) 
0.73

>  <cluster>  (26) 
4

$$$$

     RDKit          3D

 44 46  0  0  0  0  0  0  0  0999 V2000
  140.5040   72.7730  223.0780 N   0  0  0  0  0  0  0  0  0  0  0  0
  140.7750   73.0300  221.6690 C   0  0  2  0  0  0  0  0  0  0  0  0
  140.7730   74.5310  221.5020 C   0  0  0  0  0  0  0  0  0  0  0  0
  139.4660   74.8840  220.8570 C   0  0  0  0  0  0  0  0  0  0  0  0
  138.7320   73.6360  220.7380 N   0  0  0  0  0  0  0  0  0  0  0  0
  137.3180   73.5220  220.5230 C   0  0  0  0  0  0  0  0  0  0  0  0
  136.8400   73.4440  219.3400 O   0  0  0  0  0  0  0  0  0  0  0  0
  136.3900   73.4920  221.6920 C   0  0  0  0  0  0  0  0  0  0  0  0
  137.0220   72.6790  222.7120 N   0  0  0  0  0  0  0  0  0  0  0  0
  137.4540   71.3450  222.4440 C   0  0  0  0  0  0  0  0  0  0  0  0
  137.3030   70.8100  221.2930 O   0  0  0  0  0  0  0  0  0  0  0  0
  138.0920   70.5700  223.5260 C   0  0  0  0  0  0  0  0  0  0  0  0
  137.8560   69.2150  223.6120 C   0  0  0  0  0  0  0  0  0  0  0  0
  138.4540   68.4820  224.6280 C   0  0  0  0  0  0  0  0  0  0  0  0
  139.2690   69.1700  225.5170 C   0  0  0  0  0  0  0  0  0  0  0  0
  139.8680   68.4480  226.5310 C   0  0  0  0  0  0  0  0  0  0  0  0
  140.6870   69.1360  227.4240 C   0  0  0  0  0  0  0  0  0  0  0  0
  141.4490   68.2110  228.7180 Cl  0  0  0  0  0  0  0  0  0  0  0  0
  140.9090   70.4950  227.3200 C   0  0  0  0  0  0  0  0  0  0  0  0
  140.3100   71.2070  226.3080 C   0  0  0  0  0  0  0  0  0  0  0  0
  139.4990   70.5230  225.4240 C   0  0  0  0  0  0  0  0  0  0  0  0
  138.9020   71.1850  224.4290 N   0  0  0  0  0  0  0  0  0  0  0  0
  139.6280   72.5040  220.8680 C   0  0  1  0  0  0  0  0  0  0  0  0
  140.0370   72.0890  219.4700 C   0  0  0  0  0  0  0  0  0  0  0  0
  138.9240   71.5730  218.8110 O   0  0  0  0  0  0  0  0  0  0  0  0
  139.5190   73.0010  223.3470 H   0  0  0  0  0  0  0  0  0  0  0  0
  140.6900   71.7790  223.3420 H   0  0  0  0  0  0  0  0  0  0  0  0
  141.7216   72.5683  221.3516 H   0  0  0  0  0  0  0  0  0  0  0  0
  140.8585   75.0229  222.4822 H   0  0  0  0  0  0  0  0  0  0  0  0
  141.6231   74.8649  220.8889 H   0  0  0  0  0  0  0  0  0  0  0  0
  138.9100   75.5968  221.4837 H   0  0  0  0  0  0  0  0  0  0  0  0
  139.6146   75.3607  219.8768 H   0  0  0  0  0  0  0  0  0  0  0  0
  136.2249   74.5118  222.0699 H   0  0  0  0  0  0  0  0  0  0  0  0
  135.4123   73.0759  221.4074 H   0  0  0  0  0  0  0  0  0  0  0  0
  137.1900   73.0400  223.6980 H   0  0  0  0  0  0  0  0  0  0  0  0
  137.1996   68.7186  222.8821 H   0  0  0  0  0  0  0  0  0  0  0  0
  138.2887   67.3988  224.7250 H   0  0  0  0  0  0  0  0  0  0  0  0
  139.7037   67.3649  226.6303 H   0  0  0  0  0  0  0  0  0  0  0  0
  141.5619   71.0053  228.0434 H   0  0  0  0  0  0  0  0  0  0  0  0
  140.4720   72.2902  226.2054 H   0  0  0  0  0  0  0  0  0  0  0  0
  139.1962   71.6195  221.3590 H   0  0  0  0  0  0  0  0  0  0  0  0
  140.4189   72.9629  218.9219 H   0  0  0  0  0  0  0  0  0  0  0  0
  140.8270   71.3254  219.5231 H   0  0  0  0  0  0  0  0  0  0  0  0
  138.0980   71.6270  219.3490 H   0  0  0  0  0  0  0  0  0  0  0  0
  1  2  1  0
  2  3  1  0
  3  4  1  0
  4  5  1  0
  5  6  1  0
  6  7  2  0
  6  8  1  0
  8  9  1  0
  9 10  1  0
 10 11  2  0
 10 12  1  0
 12 13  2  0
 13 14  1  0
 14 15  2  0
 15 16  1  0
 16 17  2  0
 17 18  1  0
 17 19  1  0
 19 20  2  0
 20 21  1  0
 21 22  2  0
  5 23  1  0
 23 24  1  0
 24 25  1  0
 23  2  1  0
 22 12  1  0
 21 15  1  0
  1 26  1  0
  1 27  1  0
  2 28  1  6
  3 29  1  0
  3 30  1  0
  4 31  1  0
  4 32  1  0
  8 33  1  0
  8 34  1  0
  9 35  1  0
 13 36  1  0
 14 37  1  0
 16 38  1  0
 19 39  1  0
 20 40  1  0
 23 41  1  1
 24 42  1  0
 24 43  1  0
 25 44  1  0
M  END
>  <smiles>  (27) 
N[C@@H]1CCN(C(=O)CNC(=O)c2ccc3cc(Cl)ccc3n2)[C@H]1CO

>  <score_type>  (27) 
oracle

>  <origin>  (27) 
autodockgpu

>  <m_score__min__energy>  (27) 
-7.3300000000000001

>  <m_primary>  (27) 
energy

>  <rmsd>  (27) 
3.167819308397927

>  <m_score__min__rmsd>  (27) 
3.167819308397927

>  <meeko>  (27) 
{"free_energy": -5.07, "intermolecular_energy": -7.15, "internal_energy": -3.93, "cluster_size": 10, "cluster_id": 3, "rank_in_cluster": 5}

>  <energy>  (27) 
-5.34

>  <cluster_rmsd>  (27) 
0.75

>  <cluster>  (27) 
4

$$$$

     RDKit          3D

 44 46  0  0  0  0  0  0  0  0999 V2000
  141.4490   76.7200  221.2650 N   0  0  0  0  0  0  0  0  0  0  0  0
  141.0170   77.4280  222.4630 C   0  0  2  0  0  0  0  0  0  0  0  0
  139.5320   77.6570  222.3100 C   0  0  0  0  0  0  0  0  0  0  0  0
  139.3610   79.0990  221.9360 C   0  0  0  0  0  0  0  0  0  0  0  0
  140.7040   79.6370  221.8070 N   0  0  0  0  0  0  0  0  0  0  0  0
  141.0510   80.8510  221.1250 C   0  0  0  0  0  0  0  0  0  0  0  0
  140.7940   81.9900  221.6430 O   0  0  0  0  0  0  0  0  0  0  0  0
  141.7210   80.7860  219.7920 C   0  0  0  0  0  0  0  0  0  0  0  0
  142.1970   79.4270  219.6240 N   0  0  0  0  0  0  0  0  0  0  0  0
  142.3240   78.8340  218.3330 C   0  0  0  0  0  0  0  0  0  0  0  0
  142.0230   79.4740  217.2680 O   0  0  0  0  0  0  0  0  0  0  0  0
  142.8160   77.4460  218.2290 C   0  0  0  0  0  0  0  0  0  0  0  0
  142.8560   76.8360  216.9940 C   0  0  0  0  0  0  0  0  0  0  0  0
  143.3190   75.5320  216.8930 C   0  0  0  0  0  0  0  0  0  0  0  0
  143.7200   74.9040  218.0640 C   0  0  0  0  0  0  0  0  0  0  0  0
  144.1820   73.6050  217.9710 C   0  0  0  0  0  0  0  0  0  0  0  0
  144.5860   72.9720  219.1460 C   0  0  0  0  0  0  0  0  0  0  0  0
  145.1740   71.3150  219.0240 Cl  0  0  0  0  0  0  0  0  0  0  0  0
  144.5370   73.6020  220.3740 C   0  0  0  0  0  0  0  0  0  0  0  0
  144.0770   74.8950  220.4580 C   0  0  0  0  0  0  0  0  0  0  0  0
  143.6770   75.5200  219.2930 C   0  0  0  0  0  0  0  0  0  0  0  0
  143.2250   76.7760  219.3400 N   0  0  0  0  0  0  0  0  0  0  0  0
  141.6640   78.7760  222.4700 C   0  0  1  0  0  0  0  0  0  0  0  0
  141.8650   79.3170  223.8700 C   0  0  0  0  0  0  0  0  0  0  0  0
  142.4450   80.5800  223.7840 O   0  0  0  0  0  0  0  0  0  0  0  0
  141.3940   77.3130  220.4050 H   0  0  0  0  0  0  0  0  0  0  0  0
  142.4270   76.3620  221.3480 H   0  0  0  0  0  0  0  0  0  0  0  0
  141.2689   76.8655  223.3741 H   0  0  0  0  0  0  0  0  0  0  0  0
  139.1268   77.0085  221.5193 H   0  0  0  0  0  0  0  0  0  0  0  0
  138.9946   77.4204  223.2402 H   0  0  0  0  0  0  0  0  0  0  0  0
  138.8205   79.1856  220.9819 H   0  0  0  0  0  0  0  0  0  0  0  0
  138.7767   79.6461  222.6905 H   0  0  0  0  0  0  0  0  0  0  0  0
  141.0042   81.0366  218.9961 H   0  0  0  0  0  0  0  0  0  0  0  0
  142.5527   81.5037  219.7347 H   0  0  0  0  0  0  0  0  0  0  0  0
  142.4710   78.8190  220.4520 H   0  0  0  0  0  0  0  0  0  0  0  0
  142.5238   77.3780  216.0963 H   0  0  0  0  0  0  0  0  0  0  0  0
  143.3664   75.0160  215.9227 H   0  0  0  0  0  0  0  0  0  0  0  0
  144.2295   73.0872  217.0017 H   0  0  0  0  0  0  0  0  0  0  0  0
  144.8644   73.0719  221.2805 H   0  0  0  0  0  0  0  0  0  0  0  0
  144.0289   75.4167  221.4252 H   0  0  0  0  0  0  0  0  0  0  0  0
  142.6543   78.7250  221.9938 H   0  0  0  0  0  0  0  0  0  0  0  0
  140.8937   79.3903  224.3810 H   0  0  0  0  0  0  0  0  0  0  0  0
  142.5205   78.6428  224.4407 H   0  0  0  0  0  0  0  0  0  0  0  0
  141.8570   81.2460  223.3550 H   0  0  0  0  0  0  0  0  0  0  0  0
  1  2  1  0
  2  3  1  0
  3  4  1  0
  4  5  1  0
  5  6  1  0
  6  7  2  0
  6  8  1  0
  8  9  1  0
  9 10  1  0
 10 11  2  0
 10 12  1  0
 12 13  2  0
 13 14  1  0
 14 15  2  0
 15 16  1  0
 16 17  2  0
 17 18  1  0
 17 19  1  0
 19 20  2  0
 20 21  1  0
 21 22  2  0
  5 23  1  0
 23 24  1  0
 24 25  1  0
 23  2  1  0
 22 12  1  0
 21 15  1  0
  1 26  1  0
  1 27  1  0
  2 28  1  1
  3 29  1  0
  3 30  1  0
  4 31  1  0
  4 32  1  0
  8 33  1  0
  8 34  1  0
  9 35  1  0
 13 36  1  0
 14 37  1  0
 16 38  1  0
 19 39  1  0
 20 40  1  0
 23 41  1  6
 24 42  1  0
 24 43  1  0
 25 44  1  0
M  END
>  <smiles>  (28) 
N[C@@H]1CCN(C(=O)CNC(=O)c2ccc3cc(Cl)ccc3n2)[C@H]1CO

>  <score_type>  (28) 
oracle

>  <origin>  (28) 
autodockgpu

>  <m_score__min__energy>  (28) 
-7.3300000000000001

>  <m_primary>  (28) 
energy

>  <rmsd>  (28) 
7.940190727036143

>  <m_score__min__rmsd>  (28) 
7.940190727036143

>  <meeko>  (28) 
{"free_energy": -5.04, "intermolecular_energy": -7.12, "internal_energy": -3.83, "cluster_size": 8, "cluster_id": 6, "rank_in_cluster": 6}

>  <energy>  (28) 
-5.15

>  <cluster_rmsd>  (28) 
0.45

>  <cluster>  (28) 
4

$$$$

     RDKit          3D

 44 46  0  0  0  0  0  0  0  0999 V2000
  141.6100   70.9640  219.2560 N   0  0  0  0  0  0  0  0  0  0  0  0
  142.9810   71.4090  219.0410 C   0  0  2  0  0  0  0  0  0  0  0  0
  143.6620   71.3560  220.3890 C   0  0  0  0  0  0  0  0  0  0  0  0
  143.7510   72.7720  220.8750 C   0  0  0  0  0  0  0  0  0  0  0  0
  143.0750   73.5780  219.8720 N   0  0  0  0  0  0  0  0  0  0  0  0
  142.5940   74.9150  220.0690 C   0  0  0  0  0  0  0  0  0  0  0  0
  143.3070   75.9230  219.7390 O   0  0  0  0  0  0  0  0  0  0  0  0
  141.2430   75.1370  220.6650 C   0  0  0  0  0  0  0  0  0  0  0  0
  141.0750   74.1470  221.7110 N   0  0  0  0  0  0  0  0  0  0  0  0
  140.4010   72.9120  221.4700 C   0  0  0  0  0  0  0  0  0  0  0  0
  139.9180   72.6250  220.3220 O   0  0  0  0  0  0  0  0  0  0  0  0
  140.2640   71.9450  222.5770 C   0  0  0  0  0  0  0  0  0  0  0  0
  139.6720   70.7250  222.3350 C   0  0  0  0  0  0  0  0  0  0  0  0
  139.5420   69.8130  223.3730 C   0  0  0  0  0  0  0  0  0  0  0  0
  140.0230   70.1910  224.6200 C   0  0  0  0  0  0  0  0  0  0  0  0
  139.8960   69.2890  225.6580 C   0  0  0  0  0  0  0  0  0  0  0  0
  140.3800   69.6660  226.9100 C   0  0  0  0  0  0  0  0  0  0  0  0
  140.2160   68.5120  228.2330 Cl  0  0  0  0  0  0  0  0  0  0  0  0
  140.9700   70.8950  227.1300 C   0  0  0  0  0  0  0  0  0  0  0  0
  141.0930   71.7870  226.0910 C   0  0  0  0  0  0  0  0  0  0  0  0
  140.6130   71.4110  224.8520 C   0  0  0  0  0  0  0  0  0  0  0  0
  140.7170   72.2550  223.8220 N   0  0  0  0  0  0  0  0  0  0  0  0
  142.9500   72.8450  218.6290 C   0  0  1  0  0  0  0  0  0  0  0  0
  144.1290   73.2260  217.7590 C   0  0  0  0  0  0  0  0  0  0  0  0
  144.0670   74.5910  217.4910 O   0  0  0  0  0  0  0  0  0  0  0  0
  141.3360   70.9760  220.2660 H   0  0  0  0  0  0  0  0  0  0  0  0
  140.9190   71.5430  218.7270 H   0  0  0  0  0  0  0  0  0  0  0  0
  143.4878   70.7933  218.2833 H   0  0  0  0  0  0  0  0  0  0  0  0
  143.0702   70.7496  221.0905 H   0  0  0  0  0  0  0  0  0  0  0  0
  144.6588   70.8969  220.3142 H   0  0  0  0  0  0  0  0  0  0  0  0
  143.2512   72.8747  221.8495 H   0  0  0  0  0  0  0  0  0  0  0  0
  144.7956   73.0882  221.0118 H   0  0  0  0  0  0  0  0  0  0  0  0
  141.1787   76.1499  221.0892 H   0  0  0  0  0  0  0  0  0  0  0  0
  140.4561   75.0408  219.9024 H   0  0  0  0  0  0  0  0  0  0  0  0
  141.4450   74.2980  222.6960 H   0  0  0  0  0  0  0  0  0  0  0  0
  139.3056   70.4759  221.3282 H   0  0  0  0  0  0  0  0  0  0  0  0
  139.0762   68.8292  223.2143 H   0  0  0  0  0  0  0  0  0  0  0  0
  139.4284   68.3056  225.5022 H   0  0  0  0  0  0  0  0  0  0  0  0
  141.3398   71.1591  228.1318 H   0  0  0  0  0  0  0  0  0  0  0  0
  141.5601   72.7714  226.2423 H   0  0  0  0  0  0  0  0  0  0  0  0
  142.0369   73.0546  218.0525 H   0  0  0  0  0  0  0  0  0  0  0  0
  145.0668   72.9949  218.2855 H   0  0  0  0  0  0  0  0  0  0  0  0
  144.0970   72.6586  216.8172 H   0  0  0  0  0  0  0  0  0  0  0  0
  144.5450   75.1370  218.1610 H   0  0  0  0  0  0  0  0  0  0  0  0
  1  2  1  0
  2  3  1  0
  3  4  1  0
  4  5  1  0
  5  6  1  0
  6  7  2  0
  6  8  1  0
  8  9  1  0
  9 10  1  0
 10 11  2  0
 10 12  1  0
 12 13  2  0
 13 14  1  0
 14 15  2  0
 15 16  1  0
 16 17  2  0
 17 18  1  0
 17 19  1  0
 19 20  2  0
 20 21  1  0
 21 22  2  0
  5 23  1  0
 23 24  1  0
 24 25  1  0
 23  2  1  0
 22 12  1  0
 21 15  1  0
  1 26  1  0
  1 27  1  0
  2 28  1  6
  3 29  1  0
  3 30  1  0
  4 31  1  0
  4 32  1  0
  8 33  1  0
  8 34  1  0
  9 35  1  0
 13 36  1  0
 14 37  1  0
 16 38  1  0
 19 39  1  0
 20 40  1  0
 23 41  1  6
 24 42  1  0
 24 43  1  0
 25 44  1  0
M  END
>  <smiles>  (29) 
N[C@@H]1CCN(C(=O)CNC(=O)c2ccc3cc(Cl)ccc3n2)[C@H]1CO

>  <score_type>  (29) 
oracle

>  <origin>  (29) 
autodockgpu

>  <m_score__min__energy>  (29) 
-7.3300000000000001

>  <m_primary>  (29) 
energy

>  <rmsd>  (29) 
4.107597270317268

>  <m_score__min__rmsd>  (29) 
4.107597270317268

>  <meeko>  (29) 
{"free_energy": -4.77, "intermolecular_energy": -6.86, "internal_energy": -3.69, "cluster_size": 3, "cluster_id": 1, "rank_in_cluster": 2}

>  <energy>  (29) 
-4.93

>  <cluster_rmsd>  (29) 
1.37

>  <cluster>  (29) 
4

$$$$

     RDKit          3D

 44 46  0  0  0  0  0  0  0  0999 V2000
  142.5420   75.6730  220.3760 N   0  0  0  0  0  0  0  0  0  0  0  0
  143.8420   75.2820  219.8450 C   0  0  2  0  0  0  0  0  0  0  0  0
  143.6320   74.9880  218.3790 C   0  0  0  0  0  0  0  0  0  0  0  0
  143.6250   73.4950  218.2420 C   0  0  0  0  0  0  0  0  0  0  0  0
  143.7490   72.9730  219.5920 N   0  0  0  0  0  0  0  0  0  0  0  0
  143.4280   71.6340  219.9970 C   0  0  0  0  0  0  0  0  0  0  0  0
  144.2120   70.6630  219.7240 O   0  0  0  0  0  0  0  0  0  0  0  0
  142.1660   71.3690  220.7490 C   0  0  0  0  0  0  0  0  0  0  0  0
  141.5970   72.6590  221.0880 N   0  0  0  0  0  0  0  0  0  0  0  0
  140.2310   72.7940  221.4760 C   0  0  0  0  0  0  0  0  0  0  0  0
  139.4490   71.7850  221.5420 O   0  0  0  0  0  0  0  0  0  0  0  0
  139.7130   74.1350  221.8110 C   0  0  0  0  0  0  0  0  0  0  0  0
  138.3520   74.3240  221.9160 C   0  0  0  0  0  0  0  0  0  0  0  0
  137.8610   75.5830  222.2300 C   0  0  0  0  0  0  0  0  0  0  0  0
  138.7870   76.6000  222.4220 C   0  0  0  0  0  0  0  0  0  0  0  0
  138.3060   77.8570  222.7360 C   0  0  0  0  0  0  0  0  0  0  0  0
  139.2330   78.8790  222.9300 C   0  0  0  0  0  0  0  0  0  0  0  0
  138.6160   80.4810  223.3290 Cl  0  0  0  0  0  0  0  0  0  0  0  0
  140.5940   78.6670  222.8190 C   0  0  0  0  0  0  0  0  0  0  0  0
  141.0650   77.4140  222.5080 C   0  0  0  0  0  0  0  0  0  0  0  0
  140.1440   76.4030  222.3160 C   0  0  0  0  0  0  0  0  0  0  0  0
  140.5690   75.1730  222.0120 N   0  0  0  0  0  0  0  0  0  0  0  0
  144.2460   73.9960  220.4910 C   0  0  1  0  0  0  0  0  0  0  0  0
  145.7480   73.8330  220.5740 C   0  0  0  0  0  0  0  0  0  0  0  0
  146.0360   72.6590  221.2660 O   0  0  0  0  0  0  0  0  0  0  0  0
  141.7980   74.9650  220.1800 H   0  0  0  0  0  0  0  0  0  0  0  0
  142.5700   75.8360  221.4080 H   0  0  0  0  0  0  0  0  0  0  0  0
  144.5970   76.0630  220.0182 H   0  0  0  0  0  0  0  0  0  0  0  0
  142.6719   75.4053  218.0413 H   0  0  0  0  0  0  0  0  0  0  0  0
  144.4243   75.4405  217.7646 H   0  0  0  0  0  0  0  0  0  0  0  0
  142.6831   73.1567  217.7855 H   0  0  0  0  0  0  0  0  0  0  0  0
  144.4428   73.1440  217.5955 H   0  0  0  0  0  0  0  0  0  0  0  0
  141.4645   70.7996  220.1215 H   0  0  0  0  0  0  0  0  0  0  0  0
  142.3650   70.7770  221.6545 H   0  0  0  0  0  0  0  0  0  0  0  0
  142.1720   73.5520  221.0630 H   0  0  0  0  0  0  0  0  0  0  0  0
  137.6610   73.4840  221.7523 H   0  0  0  0  0  0  0  0  0  0  0  0
  136.7807   75.7684  222.3232 H   0  0  0  0  0  0  0  0  0  0  0  0
  137.2262   78.0446  222.8297 H   0  0  0  0  0  0  0  0  0  0  0  0
  141.2973   79.4976  222.9789 H   0  0  0  0  0  0  0  0  0  0  0  0
  142.1441   77.2219  222.4147 H   0  0  0  0  0  0  0  0  0  0  0  0
  143.8552   73.9476  221.5181 H   0  0  0  0  0  0  0  0  0  0  0  0
  146.1701   73.7770  219.5598 H   0  0  0  0  0  0  0  0  0  0  0  0
  146.1882   74.6933  221.0995 H   0  0  0  0  0  0  0  0  0  0  0  0
  145.5760   71.8700  220.8930 H   0  0  0  0  0  0  0  0  0  0  0  0
  1  2  1  0
  2  3  1  0
  3  4  1  0
  4  5  1  0
  5  6  1  0
  6  7  2  0
  6  8  1  0
  8  9  1  0
  9 10  1  0
 10 11  2  0
 10 12  1  0
 12 13  2  0
 13 14  1  0
 14 15  2  0
 15 16  1  0
 16 17  2  0
 17 18  1  0
 17 19  1  0
 19 20  2  0
 20 21  1  0
 21 22  2  0
  5 23  1  0
 23 24  1  0
 24 25  1  0
 23  2  1  0
 22 12  1  0
 21 15  1  0
  1 26  1  0
  1 27  1  0
  2 28  1  6
  3 29  1  0
  3 30  1  0
  4 31  1  0
  4 32  1  0
  8 33  1  0
  8 34  1  0
  9 35  1  0
 13 36  1  0
 14 37  1  0
 16 38  1  0
 19 39  1  0
 20 40  1  0
 23 41  1  1
 24 42  1  0
 24 43  1  0
 25 44  1  0
M  END
>  <smiles>  (30) 
N[C@@H]1CCN(C(=O)CNC(=O)c2ccc3cc(Cl)ccc3n2)[C@H]1CO

>  <score_type>  (30) 
oracle

>  <origin>  (30) 
autodockgpu

>  <m_score__min__energy>  (30) 
-7.3300000000000001

>  <m_primary>  (30) 
energy

>  <rmsd>  (30) 
6.210974107438438

>  <m_score__min__rmsd>  (30) 
6.210974107438438

>  <meeko>  (30) 
{"free_energy": -5.37, "intermolecular_energy": -7.46, "internal_energy": -3.99, "cluster_size": 14, "cluster_id": 4, "rank_in_cluster": 10}

>  <energy>  (30) 
-5.77

>  <cluster_rmsd>  (30) 
0.0

>  <cluster>  (30) 
5

$$$$

     RDKit          3D

 44 46  0  0  0  0  0  0  0  0999 V2000
  142.5580   75.6650  220.3610 N   0  0  0  0  0  0  0  0  0  0  0  0
  143.8750   75.2960  219.8570 C   0  0  2  0  0  0  0  0  0  0  0  0
  143.7080   75.0400  218.3780 C   0  0  0  0  0  0  0  0  0  0  0  0
  143.7140   73.5510  218.2020 C   0  0  0  0  0  0  0  0  0  0  0  0
  143.8020   72.9930  219.5410 N   0  0  0  0  0  0  0  0  0  0  0  0
  143.4790   71.6420  219.9000 C   0  0  0  0  0  0  0  0  0  0  0  0
  144.2690   70.6810  219.6090 O   0  0  0  0  0  0  0  0  0  0  0  0
  142.2070   71.3530  220.6250 C   0  0  0  0  0  0  0  0  0  0  0  0
  141.6140   72.6310  220.9670 N   0  0  0  0  0  0  0  0  0  0  0  0
  140.2910   72.7250  221.4910 C   0  0  0  0  0  0  0  0  0  0  0  0
  139.5700   71.6870  221.6830 O   0  0  0  0  0  0  0  0  0  0  0  0
  139.7450   74.0570  221.8200 C   0  0  0  0  0  0  0  0  0  0  0  0
  138.3810   74.2150  221.9380 C   0  0  0  0  0  0  0  0  0  0  0  0
  137.8660   75.4650  222.2470 C   0  0  0  0  0  0  0  0  0  0  0  0
  138.7700   76.5050  222.4210 C   0  0  0  0  0  0  0  0  0  0  0  0
  138.2630   77.7530  222.7300 C   0  0  0  0  0  0  0  0  0  0  0  0
  139.1690   78.7970  222.9060 C   0  0  0  0  0  0  0  0  0  0  0  0
  138.5190   80.3890  223.2980 Cl  0  0  0  0  0  0  0  0  0  0  0  0
  140.5330   78.6160  222.7830 C   0  0  0  0  0  0  0  0  0  0  0  0
  141.0290   77.3710  222.4770 C   0  0  0  0  0  0  0  0  0  0  0  0
  140.1290   76.3370  222.3020 C   0  0  0  0  0  0  0  0  0  0  0  0
  140.5790   75.1160  222.0040 N   0  0  0  0  0  0  0  0  0  0  0  0
  144.2670   73.9950  220.4800 C   0  0  1  0  0  0  0  0  0  0  0  0
  145.7680   73.8380  220.6020 C   0  0  0  0  0  0  0  0  0  0  0  0
  146.0430   72.6450  221.2660 O   0  0  0  0  0  0  0  0  0  0  0  0
  141.8370   74.9280  220.1830 H   0  0  0  0  0  0  0  0  0  0  0  0
  142.5680   75.8650  221.3860 H   0  0  0  0  0  0  0  0  0  0  0  0
  144.6204   76.0759  220.0719 H   0  0  0  0  0  0  0  0  0  0  0  0
  142.7552   75.4609  218.0244 H   0  0  0  0  0  0  0  0  0  0  0  0
  144.5143   75.5130  217.7982 H   0  0  0  0  0  0  0  0  0  0  0  0
  142.7878   73.2200  217.7095 H   0  0  0  0  0  0  0  0  0  0  0  0
  144.5527   73.2219  217.5709 H   0  0  0  0  0  0  0  0  0  0  0  0
  141.5252   70.7812  219.9784 H   0  0  0  0  0  0  0  0  0  0  0  0
  142.3973   70.7544  221.5280 H   0  0  0  0  0  0  0  0  0  0  0  0
  142.1390   73.5470  220.8420 H   0  0  0  0  0  0  0  0  0  0  0  0
  137.7075   73.3582  221.7886 H   0  0  0  0  0  0  0  0  0  0  0  0
  136.7829   75.6267  222.3503 H   0  0  0  0  0  0  0  0  0  0  0  0
  137.1802   77.9168  222.8336 H   0  0  0  0  0  0  0  0  0  0  0  0
  141.2186   79.4637  222.9292 H   0  0  0  0  0  0  0  0  0  0  0  0
  142.1112   77.2026  222.3744 H   0  0  0  0  0  0  0  0  0  0  0  0
  143.8464   73.9172  221.4934 H   0  0  0  0  0  0  0  0  0  0  0  0
  146.2199   73.8155  219.5994 H   0  0  0  0  0  0  0  0  0  0  0  0
  146.1872   74.6843  221.1659 H   0  0  0  0  0  0  0  0  0  0  0  0
  145.5820   71.8680  220.8690 H   0  0  0  0  0  0  0  0  0  0  0  0
  1  2  1  0
  2  3  1  0
  3  4  1  0
  4  5  1  0
  5  6  1  0
  6  7  2  0
  6  8  1  0
  8  9  1  0
  9 10  1  0
 10 11  2  0
 10 12  1  0
 12 13  2  0
 13 14  1  0
 14 15  2  0
 15 16  1  0
 16 17  2  0
 17 18  1  0
 17 19  1  0
 19 20  2  0
 20 21  1  0
 21 22  2  0
  5 23  1  0
 23 24  1  0
 24 25  1  0
 23  2  1  0
 22 12  1  0
 21 15  1  0
  1 26  1  0
  1 27  1  0
  2 28  1  6
  3 29  1  0
  3 30  1  0
  4 31  1  0
  4 32  1  0
  8 33  1  0
  8 34  1  0
  9 35  1  0
 13 36  1  0
 14 37  1  0
 16 38  1  0
 19 39  1  0
 20 40  1  0
 23 41  1  1
 24 42  1  0
 24 43  1  0
 25 44  1  0
M  END
>  <smiles>  (31) 
N[C@@H]1CCN(C(=O)CNC(=O)c2ccc3cc(Cl)ccc3n2)[C@H]1CO

>  <score_type>  (31) 
oracle

>  <origin>  (31) 
autodockgpu

>  <m_score__min__energy>  (31) 
-7.3300000000000001

>  <m_primary>  (31) 
energy

>  <rmsd>  (31) 
6.19692939284856

>  <m_score__min__rmsd>  (31) 
6.19692939284856

>  <meeko>  (31) 
{"free_energy": -5.35, "intermolecular_energy": -7.44, "internal_energy": -3.98, "cluster_size": 14, "cluster_id": 4, "rank_in_cluster": 11}

>  <energy>  (31) 
-5.42

>  <cluster_rmsd>  (31) 
0.0

>  <cluster>  (31) 
6

$$$$

     RDKit          3D

 44 46  0  0  0  0  0  0  0  0999 V2000
  142.8830   76.9170  220.0660 N   0  0  0  0  0  0  0  0  0  0  0  0
  142.6370   75.4960  219.8600 C   0  0  2  0  0  0  0  0  0  0  0  0
  141.9900   75.3680  218.5010 C   0  0  0  0  0  0  0  0  0  0  0  0
  140.5300   75.1300  218.7480 C   0  0  0  0  0  0  0  0  0  0  0  0
  140.3550   75.1990  220.1890 N   0  0  0  0  0  0  0  0  0  0  0  0
  139.1040   75.3930  220.8650 C   0  0  0  0  0  0  0  0  0  0  0  0
  138.8390   76.5000  221.4450 O   0  0  0  0  0  0  0  0  0  0  0  0
  138.0970   74.2920  220.8910 C   0  0  0  0  0  0  0  0  0  0  0  0
  138.4670   73.4070  221.9780 N   0  0  0  0  0  0  0  0  0  0  0  0
  138.2150   72.0030  221.9170 C   0  0  0  0  0  0  0  0  0  0  0  0
  137.6540   71.4660  220.9030 O   0  0  0  0  0  0  0  0  0  0  0  0
  138.6170   71.1560  223.0570 C   0  0  0  0  0  0  0  0  0  0  0  0
  138.1170   69.8750  223.1530 C   0  0  0  0  0  0  0  0  0  0  0  0
  138.4930   69.0760  224.2220 C   0  0  0  0  0  0  0  0  0  0  0  0
  139.3660   69.6220  225.1540 C   0  0  0  0  0  0  0  0  0  0  0  0
  139.7450   68.8320  226.2220 C   0  0  0  0  0  0  0  0  0  0  0  0
  140.6220   69.3790  227.1570 C   0  0  0  0  0  0  0  0  0  0  0  0
  141.1020   68.3680  228.5190 Cl  0  0  0  0  0  0  0  0  0  0  0  0
  141.1110   70.6660  227.0420 C   0  0  0  0  0  0  0  0  0  0  0  0
  140.7300   71.4450  225.9750 C   0  0  0  0  0  0  0  0  0  0  0  0
  139.8600   70.9020  225.0500 C   0  0  0  0  0  0  0  0  0  0  0  0
  139.4710   71.6330  224.0030 N   0  0  0  0  0  0  0  0  0  0  0  0
  141.6280   75.0430  220.8650 C   0  0  1  0  0  0  0  0  0  0  0  0
  141.7750   73.5790  221.2190 C   0  0  0  0  0  0  0  0  0  0  0  0
  141.0050   73.3100  222.3480 O   0  0  0  0  0  0  0  0  0  0  0  0
  142.6540   77.2290  221.0380 H   0  0  0  0  0  0  0  0  0  0  0  0
  143.8740   77.1800  219.8670 H   0  0  0  0  0  0  0  0  0  0  0  0
  143.5654   74.9123  219.9452 H   0  0  0  0  0  0  0  0  0  0  0  0
  142.1323   76.2932  217.9232 H   0  0  0  0  0  0  0  0  0  0  0  0
  142.4360   74.5453  217.9229 H   0  0  0  0  0  0  0  0  0  0  0  0
  139.9265   75.9041  218.2515 H   0  0  0  0  0  0  0  0  0  0  0  0
  140.2050   74.1586  218.3471 H   0  0  0  0  0  0  0  0  0  0  0  0
  137.0915   74.7033  221.0639 H   0  0  0  0  0  0  0  0  0  0  0  0
  138.0798   73.7521  219.9328 H   0  0  0  0  0  0  0  0  0  0  0  0
  138.9390   73.7640  222.8600 H   0  0  0  0  0  0  0  0  0  0  0  0
  137.4260   69.4902  222.3885 H   0  0  0  0  0  0  0  0  0  0  0  0
  138.1142   68.0487  224.3279 H   0  0  0  0  0  0  0  0  0  0  0  0
  139.3670   67.8048  226.3309 H   0  0  0  0  0  0  0  0  0  0  0  0
  141.8012   71.0652  227.7998 H   0  0  0  0  0  0  0  0  0  0  0  0
  141.1075   72.4719  225.8613 H   0  0  0  0  0  0  0  0  0  0  0  0
  141.7370   75.6165  221.7973 H   0  0  0  0  0  0  0  0  0  0  0  0
  141.4284   72.9591  220.3790 H   0  0  0  0  0  0  0  0  0  0  0  0
  142.8309   73.3485  221.4235 H   0  0  0  0  0  0  0  0  0  0  0  0
  140.7200   72.3660  222.4030 H   0  0  0  0  0  0  0  0  0  0  0  0
  1  2  1  0
  2  3  1  0
  3  4  1  0
  4  5  1  0
  5  6  1  0
  6  7  2  0
  6  8  1  0
  8  9  1  0
  9 10  1  0
 10 11  2  0
 10 12  1  0
 12 13  2  0
 13 14  1  0
 14 15  2  0
 15 16  1  0
 16 17  2  0
 17 18  1  0
 17 19  1  0
 19 20  2  0
 20 21  1  0
 21 22  2  0
  5 23  1  0
 23 24  1  0
 24 25  1  0
 23  2  1  0
 22 12  1  0
 21 15  1  0
  1 26  1  0
  1 27  1  0
  2 28  1  6
  3 29  1  0
  3 30  1  0
  4 31  1  0
  4 32  1  0
  8 33  1  0
  8 34  1  0
  9 35  1  0
 13 36  1  0
 14 37  1  0
 16 38  1  0
 19 39  1  0
 20 40  1  0
 23 41  1  1
 24 42  1  0
 24 43  1  0
 25 44  1  0
M  END
>  <smiles>  (32) 
N[C@@H]1CCN(C(=O)CNC(=O)c2ccc3cc(Cl)ccc3n2)[C@H]1CO

>  <score_type>  (32) 
oracle

>  <origin>  (32) 
autodockgpu

>  <m_score__min__energy>  (32) 
-7.3300000000000001

>  <m_primary>  (32) 
energy

>  <rmsd>  (32) 
2.0082091260438495

>  <m_score__min__rmsd>  (32) 
2.0082091260438495

>  <meeko>  (32) 
{"free_energy": -6.33, "intermolecular_energy": -8.42, "internal_energy": -2.72, "cluster_size": 10, "cluster_id": 3, "rank_in_cluster": 1}

>  <energy>  (32) 
-5.32

>  <cluster_rmsd>  (32) 
1.15

>  <cluster>  (32) 
6

$$$$

     RDKit          3D

 44 46  0  0  0  0  0  0  0  0999 V2000
  142.5530   75.7170  220.3630 N   0  0  0  0  0  0  0  0  0  0  0  0
  143.8740   75.3690  219.8550 C   0  0  2  0  0  0  0  0  0  0  0  0
  143.7000   75.0760  218.3830 C   0  0  0  0  0  0  0  0  0  0  0  0
  143.7410   73.5840  218.2390 C   0  0  0  0  0  0  0  0  0  0  0  0
  143.8550   73.0590  219.5890 N   0  0  0  0  0  0  0  0  0  0  0  0
  143.5670   71.7090  219.9810 C   0  0  0  0  0  0  0  0  0  0  0  0
  144.4220   70.7770  219.7950 O   0  0  0  0  0  0  0  0  0  0  0  0
  142.2560   71.3850  220.6170 C   0  0  0  0  0  0  0  0  0  0  0  0
  141.6340   72.6460  220.9700 N   0  0  0  0  0  0  0  0  0  0  0  0
  140.2880   72.7100  221.4380 C   0  0  0  0  0  0  0  0  0  0  0  0
  139.5710   71.6590  221.5660 O   0  0  0  0  0  0  0  0  0  0  0  0
  139.7130   74.0260  221.7820 C   0  0  0  0  0  0  0  0  0  0  0  0
  138.3470   74.1500  221.9110 C   0  0  0  0  0  0  0  0  0  0  0  0
  137.8030   75.3850  222.2350 C   0  0  0  0  0  0  0  0  0  0  0  0
  138.6830   76.4440  222.4120 C   0  0  0  0  0  0  0  0  0  0  0  0
  138.1490   77.6770  222.7350 C   0  0  0  0  0  0  0  0  0  0  0  0
  139.0310   78.7410  222.9140 C   0  0  0  0  0  0  0  0  0  0  0  0
  138.3470   80.3130  223.3240 Cl  0  0  0  0  0  0  0  0  0  0  0  0
  140.3980   78.5940  222.7790 C   0  0  0  0  0  0  0  0  0  0  0  0
  140.9210   77.3640  222.4590 C   0  0  0  0  0  0  0  0  0  0  0  0
  140.0460   76.3110  222.2810 C   0  0  0  0  0  0  0  0  0  0  0  0
  140.5230   75.1030  221.9690 N   0  0  0  0  0  0  0  0  0  0  0  0
  144.3040   74.0920  220.5010 C   0  0  1  0  0  0  0  0  0  0  0  0
  145.8090   73.9730  220.6120 C   0  0  0  0  0  0  0  0  0  0  0  0
  146.1410   72.6360  220.8120 O   0  0  0  0  0  0  0  0  0  0  0  0
  141.8350   74.9870  220.1510 H   0  0  0  0  0  0  0  0  0  0  0  0
  142.5570   75.8770  221.3950 H   0  0  0  0  0  0  0  0  0  0  0  0
  144.6013   76.1716  220.0467 H   0  0  0  0  0  0  0  0  0  0  0  0
  142.7340   75.4656  218.0294 H   0  0  0  0  0  0  0  0  0  0  0  0
  144.4894   75.5555  217.7856 H   0  0  0  0  0  0  0  0  0  0  0  0
  142.8187   73.2196  217.7629 H   0  0  0  0  0  0  0  0  0  0  0  0
  144.5813   73.2612  217.6068 H   0  0  0  0  0  0  0  0  0  0  0  0
  141.6187   70.8342  219.9096 H   0  0  0  0  0  0  0  0  0  0  0  0
  142.3963   70.7534  221.5066 H   0  0  0  0  0  0  0  0  0  0  0  0
  142.1530   73.5700  220.8960 H   0  0  0  0  0  0  0  0  0  0  0  0
  137.6936   73.2783  221.7586 H   0  0  0  0  0  0  0  0  0  0  0  0
  136.7170   75.5195  222.3472 H   0  0  0  0  0  0  0  0  0  0  0  0
  137.0634   77.8141  222.8471 H   0  0  0  0  0  0  0  0  0  0  0  0
  141.0642   79.4567  222.9268 H   0  0  0  0  0  0  0  0  0  0  0  0
  142.0062   77.2225  222.3478 H   0  0  0  0  0  0  0  0  0  0  0  0
  143.8950   74.0268  221.5201 H   0  0  0  0  0  0  0  0  0  0  0  0
  146.2776   74.3354  219.6851 H   0  0  0  0  0  0  0  0  0  0  0  0
  146.1698   74.5776  221.4572 H   0  0  0  0  0  0  0  0  0  0  0  0
  145.4010   72.1080  221.1960 H   0  0  0  0  0  0  0  0  0  0  0  0
  1  2  1  0
  2  3  1  0
  3  4  1  0
  4  5  1  0
  5  6  1  0
  6  7  2  0
  6  8  1  0
  8  9  1  0
  9 10  1  0
 10 11  2  0
 10 12  1  0
 12 13  2  0
 13 14  1  0
 14 15  2  0
 15 16  1  0
 16 17  2  0
 17 18  1  0
 17 19  1  0
 19 20  2  0
 20 21  1  0
 21 22  2  0
  5 23  1  0
 23 24  1  0
 24 25  1  0
 23  2  1  0
 22 12  1  0
 21 15  1  0
  1 26  1  0
  1 27  1  0
  2 28  1  6
  3 29  1  0
  3 30  1  0
  4 31  1  0
  4 32  1  0
  8 33  1  0
  8 34  1  0
  9 35  1  0
 13 36  1  0
 14 37  1  0
 16 38  1  0
 19 39  1  0
 20 40  1  0
 23 41  1  1
 24 42  1  0
 24 43  1  0
 25 44  1  0
M  END
>  <smiles>  (33) 
N[C@@H]1CCN(C(=O)CNC(=O)c2ccc3cc(Cl)ccc3n2)[C@H]1CO

>  <score_type>  (33) 
oracle

>  <origin>  (33) 
autodockgpu

>  <m_score__min__energy>  (33) 
-7.3300000000000001

>  <m_primary>  (33) 
energy

>  <rmsd>  (33) 
6.175262202202996

>  <m_score__min__rmsd>  (33) 
6.175262202202996

>  <meeko>  (33) 
{"free_energy": -5.38, "intermolecular_energy": -7.47, "internal_energy": -3.85, "cluster_size": 14, "cluster_id": 4, "rank_in_cluster": 8}

>  <energy>  (33) 
-5.19

>  <cluster_rmsd>  (33) 
0.36

>  <cluster>  (33) 
6

$$$$

     RDKit          3D

 44 46  0  0  0  0  0  0  0  0999 V2000
  141.2460   77.8530  222.6130 N   0  0  0  0  0  0  0  0  0  0  0  0
  141.3770   78.8990  223.6190 C   0  0  2  0  0  0  0  0  0  0  0  0
  139.9840   79.4300  223.8640 C   0  0  0  0  0  0  0  0  0  0  0  0
  139.8990   80.7450  223.1490 C   0  0  0  0  0  0  0  0  0  0  0  0
  141.1700   80.9070  222.4640 N   0  0  0  0  0  0  0  0  0  0  0  0
  141.4200   81.8130  221.3800 C   0  0  0  0  0  0  0  0  0  0  0  0
  141.7960   83.0140  221.6040 O   0  0  0  0  0  0  0  0  0  0  0  0
  141.2420   81.3520  219.9720 C   0  0  0  0  0  0  0  0  0  0  0  0
  141.8700   80.0490  219.8720 N   0  0  0  0  0  0  0  0  0  0  0  0
  141.1020   78.8470  219.8660 C   0  0  0  0  0  0  0  0  0  0  0  0
  139.8260   78.8660  219.9490 O   0  0  0  0  0  0  0  0  0  0  0  0
  141.8020   77.5520  219.7600 C   0  0  0  0  0  0  0  0  0  0  0  0
  142.8990   77.4460  218.9330 C   0  0  0  0  0  0  0  0  0  0  0  0
  143.5600   76.2300  218.8320 C   0  0  0  0  0  0  0  0  0  0  0  0
  143.0680   75.1700  219.5810 C   0  0  0  0  0  0  0  0  0  0  0  0
  143.7210   73.9570  219.4850 C   0  0  0  0  0  0  0  0  0  0  0  0
  143.2290   72.8910  220.2370 C   0  0  0  0  0  0  0  0  0  0  0  0
  144.0640   71.3440  220.1110 Cl  0  0  0  0  0  0  0  0  0  0  0  0
  142.1270   73.0190  221.0600 C   0  0  0  0  0  0  0  0  0  0  0  0
  141.4830   74.2310  221.1510 C   0  0  0  0  0  0  0  0  0  0  0  0
  141.9720   75.2850  220.4040 C   0  0  0  0  0  0  0  0  0  0  0  0
  141.3690   76.4750  220.4700 N   0  0  0  0  0  0  0  0  0  0  0  0
  142.1690   80.0210  223.0280 C   0  0  1  0  0  0  0  0  0  0  0  0
  142.9320   80.8070  224.0730 C   0  0  0  0  0  0  0  0  0  0  0  0
  142.2680   82.0090  224.3050 O   0  0  0  0  0  0  0  0  0  0  0  0
  140.5800   78.1090  221.8490 H   0  0  0  0  0  0  0  0  0  0  0  0
  142.1630   77.6090  222.1750 H   0  0  0  0  0  0  0  0  0  0  0  0
  141.8547   78.5185  224.5339 H   0  0  0  0  0  0  0  0  0  0  0  0
  139.2348   78.7308  223.4643 H   0  0  0  0  0  0  0  0  0  0  0  0
  139.7863   79.5480  224.9396 H   0  0  0  0  0  0  0  0  0  0  0  0
  139.0719   80.7338  222.4239 H   0  0  0  0  0  0  0  0  0  0  0  0
  139.7072   81.5733  223.8470 H   0  0  0  0  0  0  0  0  0  0  0  0
  140.1713   81.2751  219.7318 H   0  0  0  0  0  0  0  0  0  0  0  0
  141.6954   82.0625  219.2652 H   0  0  0  0  0  0  0  0  0  0  0  0
  142.9250   79.9360  219.7970 H   0  0  0  0  0  0  0  0  0  0  0  0
  143.2475   78.3169  218.3584 H   0  0  0  0  0  0  0  0  0  0  0  0
  144.4402   76.1107  218.1832 H   0  0  0  0  0  0  0  0  0  0  0  0
  144.6009   73.8357  218.8362 H   0  0  0  0  0  0  0  0  0  0  0  0
  141.7664   72.1563  221.6395 H   0  0  0  0  0  0  0  0  0  0  0  0
  140.6039   74.3573  221.8000 H   0  0  0  0  0  0  0  0  0  0  0  0
  142.9054   79.6296  222.3107 H   0  0  0  0  0  0  0  0  0  0  0  0
  142.9839   80.2274  225.0064 H   0  0  0  0  0  0  0  0  0  0  0  0
  143.9535   81.0073  223.7175 H   0  0  0  0  0  0  0  0  0  0  0  0
  142.1960   82.5710  223.4980 H   0  0  0  0  0  0  0  0  0  0  0  0
  1  2  1  0
  2  3  1  0
  3  4  1  0
  4  5  1  0
  5  6  1  0
  6  7  2  0
  6  8  1  0
  8  9  1  0
  9 10  1  0
 10 11  2  0
 10 12  1  0
 12 13  2  0
 13 14  1  0
 14 15  2  0
 15 16  1  0
 16 17  2  0
 17 18  1  0
 17 19  1  0
 19 20  2  0
 20 21  1  0
 21 22  2  0
  5 23  1  0
 23 24  1  0
 24 25  1  0
 23  2  1  0
 22 12  1  0
 21 15  1  0
  1 26  1  0
  1 27  1  0
  2 28  1  1
  3 29  1  0
  3 30  1  0
  4 31  1  0
  4 32  1  0
  8 33  1  0
  8 34  1  0
  9 35  1  0
 13 36  1  0
 14 37  1  0
 16 38  1  0
 19 39  1  0
 20 40  1  0
 23 41  1  6
 24 42  1  0
 24 43  1  0
 25 44  1  0
M  END
>  <smiles>  (34) 
N[C@@H]1CCN(C(=O)CNC(=O)c2ccc3cc(Cl)ccc3n2)[C@H]1CO

>  <score_type>  (34) 
oracle

>  <origin>  (34) 
autodockgpu

>  <m_score__min__energy>  (34) 
-7.3300000000000001

>  <m_primary>  (34) 
energy

>  <rmsd>  (34) 
7.893882103236184

>  <m_score__min__rmsd>  (34) 
7.893882103236184

>  <meeko>  (34) 
{"free_energy": -5.17, "intermolecular_energy": -7.25, "internal_energy": -3.63, "cluster_size": 8, "cluster_id": 6, "rank_in_cluster": 4}

>  <energy>  (34) 
-5.17

>  <cluster_rmsd>  (34) 
1.61

>  <cluster>  (34) 
6

$$$$

     RDKit          3D

 44 46  0  0  0  0  0  0  0  0999 V2000
  140.3460   72.9790  222.9310 N   0  0  0  0  0  0  0  0  0  0  0  0
  140.7300   73.1940  221.5420 C   0  0  2  0  0  0  0  0  0  0  0  0
  141.0550   74.6640  221.4140 C   0  0  0  0  0  0  0  0  0  0  0  0
  139.8850   75.2990  220.7230 C   0  0  0  0  0  0  0  0  0  0  0  0
  138.9080   74.2380  220.5420 N   0  0  0  0  0  0  0  0  0  0  0  0
  137.5140   74.4320  220.2650 C   0  0  0  0  0  0  0  0  0  0  0  0
  137.1200   74.7710  219.0980 O   0  0  0  0  0  0  0  0  0  0  0  0
  136.5080   74.2350  221.3500 C   0  0  0  0  0  0  0  0  0  0  0  0
  137.1020   73.3350  222.3190 N   0  0  0  0  0  0  0  0  0  0  0  0
  136.7220   71.9620  222.3960 C   0  0  0  0  0  0  0  0  0  0  0  0
  135.8410   71.4660  221.6140 O   0  0  0  0  0  0  0  0  0  0  0  0
  137.3650   71.0980  223.4040 C   0  0  0  0  0  0  0  0  0  0  0  0
  136.8170   69.8640  223.6820 C   0  0  0  0  0  0  0  0  0  0  0  0
  137.4200   69.0480  224.6290 C   0  0  0  0  0  0  0  0  0  0  0  0
  138.5610   69.5320  225.2560 C   0  0  0  0  0  0  0  0  0  0  0  0
  139.1660   68.7250  226.2000 C   0  0  0  0  0  0  0  0  0  0  0  0
  140.3110   69.2090  226.8310 C   0  0  0  0  0  0  0  0  0  0  0  0
  141.0810   68.1780  228.0360 Cl  0  0  0  0  0  0  0  0  0  0  0  0
  140.8440   70.4490  226.5380 C   0  0  0  0  0  0  0  0  0  0  0  0
  140.2360   71.2450  225.5960 C   0  0  0  0  0  0  0  0  0  0  0  0
  139.1010   70.7650  224.9730 C   0  0  0  0  0  0  0  0  0  0  0  0
  138.4860   71.5140  224.0530 N   0  0  0  0  0  0  0  0  0  0  0  0
  139.5360   72.9390  220.6800 C   0  0  1  0  0  0  0  0  0  0  0  0
  139.9110   72.4690  219.2910 C   0  0  0  0  0  0  0  0  0  0  0  0
  138.7460   72.2450  218.5620 O   0  0  0  0  0  0  0  0  0  0  0  0
  139.3680   73.2910  223.1320 H   0  0  0  0  0  0  0  0  0  0  0  0
  140.4300   71.9770  223.2140 H   0  0  0  0  0  0  0  0  0  0  0  0
  141.5698   72.5451  221.2528 H   0  0  0  0  0  0  0  0  0  0  0  0
  141.1967   75.1102  222.4094 H   0  0  0  0  0  0  0  0  0  0  0  0
  141.9845   74.8184  220.8465 H   0  0  0  0  0  0  0  0  0  0  0  0
  139.4650   76.1046  221.3431 H   0  0  0  0  0  0  0  0  0  0  0  0
  140.1773   75.7482  219.7624 H   0  0  0  0  0  0  0  0  0  0  0  0
  136.2707   75.1984  221.8248 H   0  0  0  0  0  0  0  0  0  0  0  0
  135.5729   73.8180  220.9479 H   0  0  0  0  0  0  0  0  0  0  0  0
  137.8430   73.6590  223.0090 H   0  0  0  0  0  0  0  0  0  0  0  0
  135.9098   69.5290  223.1579 H   0  0  0  0  0  0  0  0  0  0  0  0
  137.0104   68.0568  224.8734 H   0  0  0  0  0  0  0  0  0  0  0  0
  138.7578   67.7335  226.4456 H   0  0  0  0  0  0  0  0  0  0  0  0
  141.7499   70.7979  227.0554 H   0  0  0  0  0  0  0  0  0  0  0  0
  140.6423   72.2361  225.3458 H   0  0  0  0  0  0  0  0  0  0  0  0
  138.9036   72.1593  221.1296 H   0  0  0  0  0  0  0  0  0  0  0  0
  140.5171   73.2391  218.7915 H   0  0  0  0  0  0  0  0  0  0  0  0
  140.4948   71.5390  219.3566 H   0  0  0  0  0  0  0  0  0  0  0  0
  138.2250   73.0680  218.4060 H   0  0  0  0  0  0  0  0  0  0  0  0
  1  2  1  0
  2  3  1  0
  3  4  1  0
  4  5  1  0
  5  6  1  0
  6  7  2  0
  6  8  1  0
  8  9  1  0
  9 10  1  0
 10 11  2  0
 10 12  1  0
 12 13  2  0
 13 14  1  0
 14 15  2  0
 15 16  1  0
 16 17  2  0
 17 18  1  0
 17 19  1  0
 19 20  2  0
 20 21  1  0
 21 22  2  0
  5 23  1  0
 23 24  1  0
 24 25  1  0
 23  2  1  0
 22 12  1  0
 21 15  1  0
  1 26  1  0
  1 27  1  0
  2 28  1  6
  3 29  1  0
  3 30  1  0
  4 31  1  0
  4 32  1  0
  8 33  1  0
  8 34  1  0
  9 35  1  0
 13 36  1  0
 14 37  1  0
 16 38  1  0
 19 39  1  0
 20 40  1  0
 23 41  1  1
 24 42  1  0
 24 43  1  0
 25 44  1  0
M  END
>  <smiles>  (35) 
N[C@@H]1CCN(C(=O)CNC(=O)c2ccc3cc(Cl)ccc3n2)[C@H]1CO

>  <score_type>  (35) 
oracle

>  <origin>  (35) 
autodockgpu

>  <m_score__min__energy>  (35) 
-7.3300000000000001

>  <m_primary>  (35) 
energy

>  <rmsd>  (35) 
3.209640715218394

>  <m_score__min__rmsd>  (35) 
3.209640715218394

>  <meeko>  (35) 
{"free_energy": -4.82, "intermolecular_energy": -6.9, "internal_energy": -3.87, "cluster_size": 10, "cluster_id": 3, "rank_in_cluster": 7}

>  <energy>  (35) 
-5.16

>  <cluster_rmsd>  (35) 
1.3

>  <cluster>  (35) 
6

$$$$

     RDKit          3D

 44 46  0  0  0  0  0  0  0  0999 V2000
  142.1370   78.3480  221.1860 N   0  0  0  0  0  0  0  0  0  0  0  0
  142.1870   79.7130  221.6940 C   0  0  2  0  0  0  0  0  0  0  0  0
  142.4680   79.6050  223.1740 C   0  0  0  0  0  0  0  0  0  0  0  0
  141.1670   79.8660  223.8730 C   0  0  0  0  0  0  0  0  0  0  0  0
  140.1790   80.0360  222.8210 N   0  0  0  0  0  0  0  0  0  0  0  0
  138.7580   79.9440  222.9950 C   0  0  0  0  0  0  0  0  0  0  0  0
  138.1110   80.8640  223.6010 O   0  0  0  0  0  0  0  0  0  0  0  0
  138.0210   78.7610  222.4600 C   0  0  0  0  0  0  0  0  0  0  0  0
  139.0180   77.8030  222.0250 N   0  0  0  0  0  0  0  0  0  0  0  0
  138.8550   76.4030  222.2440 C   0  0  0  0  0  0  0  0  0  0  0  0
  137.8230   75.9310  222.8330 O   0  0  0  0  0  0  0  0  0  0  0  0
  139.9070   75.4790  221.7750 C   0  0  0  0  0  0  0  0  0  0  0  0
  139.7520   74.1250  221.9760 C   0  0  0  0  0  0  0  0  0  0  0  0
  140.7390   73.2540  221.5360 C   0  0  0  0  0  0  0  0  0  0  0  0
  141.8470   73.8070  220.9090 C   0  0  0  0  0  0  0  0  0  0  0  0
  142.8340   72.9460  220.4690 C   0  0  0  0  0  0  0  0  0  0  0  0
  143.9460   73.5000  219.8380 C   0  0  0  0  0  0  0  0  0  0  0  0
  145.2040   72.3980  219.2780 Cl  0  0  0  0  0  0  0  0  0  0  0  0
  144.0820   74.8610  219.6470 C   0  0  0  0  0  0  0  0  0  0  0  0
  143.0950   75.7110  220.0870 C   0  0  0  0  0  0  0  0  0  0  0  0
  141.9930   75.1610  220.7120 C   0  0  0  0  0  0  0  0  0  0  0  0
  141.0170   75.9590  221.1520 N   0  0  0  0  0  0  0  0  0  0  0  0
  140.8260   80.3150  221.5550 C   0  0  1  0  0  0  0  0  0  0  0  0
  140.8700   81.8200  221.3930 C   0  0  0  0  0  0  0  0  0  0  0  0
  139.5660   82.3040  221.3340 O   0  0  0  0  0  0  0  0  0  0  0  0
  142.2850   77.6330  221.9350 H   0  0  0  0  0  0  0  0  0  0  0  0
  141.2310   78.1360  220.7110 H   0  0  0  0  0  0  0  0  0  0  0  0
  142.9390   80.3129  221.1605 H   0  0  0  0  0  0  0  0  0  0  0  0
  142.8358   78.5976  223.4187 H   0  0  0  0  0  0  0  0  0  0  0  0
  143.2395   80.3241  223.4866 H   0  0  0  0  0  0  0  0  0  0  0  0
  140.8997   79.0140  224.5154 H   0  0  0  0  0  0  0  0  0  0  0  0
  141.2262   80.7537  224.5199 H   0  0  0  0  0  0  0  0  0  0  0  0
  137.3915   78.3203  223.2471 H   0  0  0  0  0  0  0  0  0  0  0  0
  137.3646   79.0510  221.6263 H   0  0  0  0  0  0  0  0  0  0  0  0
  139.9080   78.1030  221.5260 H   0  0  0  0  0  0  0  0  0  0  0  0
  138.8545   73.7378  222.4805 H   0  0  0  0  0  0  0  0  0  0  0  0
  140.6467   72.1672  221.6787 H   0  0  0  0  0  0  0  0  0  0  0  0
  142.7449   71.8590  220.6121 H   0  0  0  0  0  0  0  0  0  0  0  0
  144.9749   75.2627  219.1457 H   0  0  0  0  0  0  0  0  0  0  0  0
  143.1806   76.7985  219.9453 H   0  0  0  0  0  0  0  0  0  0  0  0
  140.3183   79.9047  220.6696 H   0  0  0  0  0  0  0  0  0  0  0  0
  141.3923   82.2689  222.2507 H   0  0  0  0  0  0  0  0  0  0  0  0
  141.4071   82.0805  220.4691 H   0  0  0  0  0  0  0  0  0  0  0  0
  139.0660   82.1660  222.1740 H   0  0  0  0  0  0  0  0  0  0  0  0
  1  2  1  0
  2  3  1  0
  3  4  1  0
  4  5  1  0
  5  6  1  0
  6  7  2  0
  6  8  1  0
  8  9  1  0
  9 10  1  0
 10 11  2  0
 10 12  1  0
 12 13  2  0
 13 14  1  0
 14 15  2  0
 15 16  1  0
 16 17  2  0
 17 18  1  0
 17 19  1  0
 19 20  2  0
 20 21  1  0
 21 22  2  0
  5 23  1  0
 23 24  1  0
 24 25  1  0
 23  2  1  0
 22 12  1  0
 21 15  1  0
  1 26  1  0
  1 27  1  0
  2 28  1  6
  3 29  1  0
  3 30  1  0
  4 31  1  0
  4 32  1  0
  8 33  1  0
  8 34  1  0
  9 35  1  0
 13 36  1  0
 14 37  1  0
 16 38  1  0
 19 39  1  0
 20 40  1  0
 23 41  1  6
 24 42  1  0
 24 43  1  0
 25 44  1  0
M  END
>  <smiles>  (36) 
N[C@@H]1CCN(C(=O)CNC(=O)c2ccc3cc(Cl)ccc3n2)[C@H]1CO

>  <score_type>  (36) 
oracle

>  <origin>  (36) 
autodockgpu

>  <m_score__min__energy>  (36) 
-7.3300000000000001

>  <m_primary>  (36) 
energy

>  <rmsd>  (36) 
6.491352913188718

>  <m_score__min__rmsd>  (36) 
6.491352913188718

>  <meeko>  (36) 
{"free_energy": -4.84, "intermolecular_energy": -6.93, "internal_energy": -4.04, "cluster_size": 7, "cluster_id": 7, "rank_in_cluster": 6}

>  <energy>  (36) 
-5.04

>  <cluster_rmsd>  (36) 
0.46

>  <cluster>  (36) 
6

$$$$

     RDKit          3D

 44 46  0  0  0  0  0  0  0  0999 V2000
  141.8230   77.5480  221.4200 N   0  0  0  0  0  0  0  0  0  0  0  0
  141.3790   78.2750  222.6030 C   0  0  2  0  0  0  0  0  0  0  0  0
  139.8690   78.2700  222.5630 C   0  0  0  0  0  0  0  0  0  0  0  0
  139.4520   79.6390  222.1120 C   0  0  0  0  0  0  0  0  0  0  0  0
  140.6840   80.3570  221.8350 N   0  0  0  0  0  0  0  0  0  0  0  0
  140.7890   81.5520  221.0480 C   0  0  0  0  0  0  0  0  0  0  0  0
  140.5740   82.6990  221.5680 O   0  0  0  0  0  0  0  0  0  0  0  0
  141.1560   81.4590  219.6040 C   0  0  0  0  0  0  0  0  0  0  0  0
  141.6700   80.1220  219.3840 N   0  0  0  0  0  0  0  0  0  0  0  0
  142.1330   79.7010  218.1020 C   0  0  0  0  0  0  0  0  0  0  0  0
  142.1150   80.4840  217.0920 O   0  0  0  0  0  0  0  0  0  0  0  0
  142.6460   78.3260  217.9440 C   0  0  0  0  0  0  0  0  0  0  0  0
  142.8380   77.8210  216.6760 C   0  0  0  0  0  0  0  0  0  0  0  0
  143.3200   76.5290  216.5230 C   0  0  0  0  0  0  0  0  0  0  0  0
  143.5850   75.8040  217.6780 C   0  0  0  0  0  0  0  0  0  0  0  0
  144.0650   74.5170  217.5340 C   0  0  0  0  0  0  0  0  0  0  0  0
  144.3320   73.7890  218.6920 C   0  0  0  0  0  0  0  0  0  0  0  0
  144.9440   72.1460  218.5050 Cl  0  0  0  0  0  0  0  0  0  0  0  0
  144.1320   74.3150  219.9540 C   0  0  0  0  0  0  0  0  0  0  0  0
  143.6540   75.5970  220.0890 C   0  0  0  0  0  0  0  0  0  0  0  0
  143.3900   76.3170  218.9400 C   0  0  0  0  0  0  0  0  0  0  0  0
  142.9250   77.5650  219.0360 N   0  0  0  0  0  0  0  0  0  0  0  0
  141.8100   79.6990  222.4680 C   0  0  1  0  0  0  0  0  0  0  0  0
  142.0310   80.3700  223.8070 C   0  0  0  0  0  0  0  0  0  0  0  0
  142.2310   81.7330  223.6000 O   0  0  0  0  0  0  0  0  0  0  0  0
  142.7580   77.8690  221.0780 H   0  0  0  0  0  0  0  0  0  0  0  0
  141.8740   76.5180  221.5860 H   0  0  0  0  0  0  0  0  0  0  0  0
  141.7821   77.8276  223.5235 H   0  0  0  0  0  0  0  0  0  0  0  0
  139.5099   77.5100  221.8535 H   0  0  0  0  0  0  0  0  0  0  0  0
  139.4450   78.0289  223.5490 H   0  0  0  0  0  0  0  0  0  0  0  0
  138.8354   79.5717  221.2036 H   0  0  0  0  0  0  0  0  0  0  0  0
  138.8484   80.1506  222.8762 H   0  0  0  0  0  0  0  0  0  0  0  0
  140.2689   81.6309  218.9767 H   0  0  0  0  0  0  0  0  0  0  0  0
  141.9076   82.2175  219.3398 H   0  0  0  0  0  0  0  0  0  0  0  0
  141.7240   79.4030  220.1650 H   0  0  0  0  0  0  0  0  0  0  0  0
  142.6111   78.4368  215.7932 H   0  0  0  0  0  0  0  0  0  0  0  0
  143.4859   76.0955  215.5257 H   0  0  0  0  0  0  0  0  0  0  0  0
  144.2311   74.0808  216.5379 H   0  0  0  0  0  0  0  0  0  0  0  0
  144.3541   73.7111  220.8461 H   0  0  0  0  0  0  0  0  0  0  0  0
  143.4866   76.0367  221.0833 H   0  0  0  0  0  0  0  0  0  0  0  0
  142.7580   79.7568  221.9130 H   0  0  0  0  0  0  0  0  0  0  0  0
  141.1485   80.2190  224.4461 H   0  0  0  0  0  0  0  0  0  0  0  0
  142.9117   79.9345  224.3018 H   0  0  0  0  0  0  0  0  0  0  0  0
  141.4440   82.1820  223.2090 H   0  0  0  0  0  0  0  0  0  0  0  0
  1  2  1  0
  2  3  1  0
  3  4  1  0
  4  5  1  0
  5  6  1  0
  6  7  2  0
  6  8  1  0
  8  9  1  0
  9 10  1  0
 10 11  2  0
 10 12  1  0
 12 13  2  0
 13 14  1  0
 14 15  2  0
 15 16  1  0
 16 17  2  0
 17 18  1  0
 17 19  1  0
 19 20  2  0
 20 21  1  0
 21 22  2  0
  5 23  1  0
 23 24  1  0
 24 25  1  0
 23  2  1  0
 22 12  1  0
 21 15  1  0
  1 26  1  0
  1 27  1  0
  2 28  1  1
  3 29  1  0
  3 30  1  0
  4 31  1  0
  4 32  1  0
  8 33  1  0
  8 34  1  0
  9 35  1  0
 13 36  1  0
 14 37  1  0
 16 38  1  0
 19 39  1  0
 20 40  1  0
 23 41  1  6
 24 42  1  0
 24 43  1  0
 25 44  1  0
M  END
>  <smiles>  (37) 
N[C@@H]1CCN(C(=O)CNC(=O)c2ccc3cc(Cl)ccc3n2)[C@H]1CO

>  <score_type>  (37) 
oracle

>  <origin>  (37) 
autodockgpu

>  <m_score__min__energy>  (37) 
-7.3300000000000001

>  <m_primary>  (37) 
energy

>  <rmsd>  (37) 
8.5173061355949

>  <m_score__min__rmsd>  (37) 
8.5173061355949

>  <meeko>  (37) 
{"free_energy": -5.01, "intermolecular_energy": -7.1, "internal_energy": -3.51, "cluster_size": 8, "cluster_id": 6, "rank_in_cluster": 7}

>  <energy>  (37) 
-5.01

>  <cluster_rmsd>  (37) 
0.85

>  <cluster>  (37) 
6

$$$$

     RDKit          3D

 44 46  0  0  0  0  0  0  0  0999 V2000
  140.3160   73.1370  222.6820 N   0  0  0  0  0  0  0  0  0  0  0  0
  140.3470   73.9830  221.4950 C   0  0  2  0  0  0  0  0  0  0  0  0
  140.6410   75.3840  221.9790 C   0  0  0  0  0  0  0  0  0  0  0  0
  139.3410   76.1300  221.9320 C   0  0  0  0  0  0  0  0  0  0  0  0
  138.3420   75.1610  221.5130 N   0  0  0  0  0  0  0  0  0  0  0  0
  136.9240   75.3090  221.6730 C   0  0  0  0  0  0  0  0  0  0  0  0
  136.3940   76.4670  221.7760 O   0  0  0  0  0  0  0  0  0  0  0  0
  136.0530   74.0980  221.7180 C   0  0  0  0  0  0  0  0  0  0  0  0
  136.6000   73.2220  222.7360 N   0  0  0  0  0  0  0  0  0  0  0  0
  137.1860   71.9640  222.4030 C   0  0  0  0  0  0  0  0  0  0  0  0
  137.2550   71.5550  221.1940 O   0  0  0  0  0  0  0  0  0  0  0  0
  137.7260   71.1190  223.4860 C   0  0  0  0  0  0  0  0  0  0  0  0
  137.0310   69.9930  223.8710 C   0  0  0  0  0  0  0  0  0  0  0  0
  137.5360   69.1960  224.8880 C   0  0  0  0  0  0  0  0  0  0  0  0
  138.7340   69.5870  225.4720 C   0  0  0  0  0  0  0  0  0  0  0  0
  139.2430   68.7980  226.4860 C   0  0  0  0  0  0  0  0  0  0  0  0
  140.4460   69.1880  227.0720 C   0  0  0  0  0  0  0  0  0  0  0  0
  141.0920   68.1790  228.3660 Cl  0  0  0  0  0  0  0  0  0  0  0  0
  141.1260   70.3210  226.6700 C   0  0  0  0  0  0  0  0  0  0  0  0
  140.6130   71.1000  225.6600 C   0  0  0  0  0  0  0  0  0  0  0  0
  139.4210   70.7120  225.0810 C   0  0  0  0  0  0  0  0  0  0  0  0
  138.8960   71.4470  224.0970 N   0  0  0  0  0  0  0  0  0  0  0  0
  138.9750   74.0100  220.9020 C   0  0  1  0  0  0  0  0  0  0  0  0
  138.9930   74.2440  219.4070 C   0  0  0  0  0  0  0  0  0  0  0  0
  138.0990   73.3630  218.8030 O   0  0  0  0  0  0  0  0  0  0  0  0
  139.5560   73.4060  223.3480 H   0  0  0  0  0  0  0  0  0  0  0  0
  140.1950   72.1270  222.4440 H   0  0  0  0  0  0  0  0  0  0  0  0
  141.0849   73.6213  220.7638 H   0  0  0  0  0  0  0  0  0  0  0  0
  141.0274   75.3575  223.0086 H   0  0  0  0  0  0  0  0  0  0  0  0
  141.4028   75.8707  221.3522 H   0  0  0  0  0  0  0  0  0  0  0  0
  139.0930   76.5300  222.9262 H   0  0  0  0  0  0  0  0  0  0  0  0
  139.3900   76.9847  221.2413 H   0  0  0  0  0  0  0  0  0  0  0  0
  135.0228   74.3827  221.9780 H   0  0  0  0  0  0  0  0  0  0  0  0
  136.0268   73.5958  220.7397 H   0  0  0  0  0  0  0  0  0  0  0  0
  136.5880   73.4790  223.7670 H   0  0  0  0  0  0  0  0  0  0  0  0
  136.0846   69.7286  223.3765 H   0  0  0  0  0  0  0  0  0  0  0  0
  137.0081   68.2895  225.2191 H   0  0  0  0  0  0  0  0  0  0  0  0
  138.7160   67.8919  226.8197 H   0  0  0  0  0  0  0  0  0  0  0  0
  142.0732   70.5986  227.1555 H   0  0  0  0  0  0  0  0  0  0  0  0
  141.1371   72.0064  225.3228 H   0  0  0  0  0  0  0  0  0  0  0  0
  138.4670   73.0501  221.0767 H   0  0  0  0  0  0  0  0  0  0  0  0
  138.6932   75.2802  219.1915 H   0  0  0  0  0  0  0  0  0  0  0  0
  140.0066   74.0745  219.0148 H   0  0  0  0  0  0  0  0  0  0  0  0
  137.6800   72.7400  219.4440 H   0  0  0  0  0  0  0  0  0  0  0  0
  1  2  1  0
  2  3  1  0
  3  4  1  0
  4  5  1  0
  5  6  1  0
  6  7  2  0
  6  8  1  0
  8  9  1  0
  9 10  1  0
 10 11  2  0
 10 12  1  0
 12 13  2  0
 13 14  1  0
 14 15  2  0
 15 16  1  0
 16 17  2  0
 17 18  1  0
 17 19  1  0
 19 20  2  0
 20 21  1  0
 21 22  2  0
  5 23  1  0
 23 24  1  0
 24 25  1  0
 23  2  1  0
 22 12  1  0
 21 15  1  0
  1 26  1  0
  1 27  1  0
  2 28  1  6
  3 29  1  0
  3 30  1  0
  4 31  1  0
  4 32  1  0
  8 33  1  0
  8 34  1  0
  9 35  1  0
 13 36  1  0
 14 37  1  0
 16 38  1  0
 19 39  1  0
 20 40  1  0
 23 41  1  6
 24 42  1  0
 24 43  1  0
 25 44  1  0
M  END
>  <smiles>  (38) 
N[C@@H]1CCN(C(=O)CNC(=O)c2ccc3cc(Cl)ccc3n2)[C@H]1CO

>  <score_type>  (38) 
oracle

>  <origin>  (38) 
autodockgpu

>  <m_score__min__energy>  (38) 
-7.3300000000000001

>  <m_primary>  (38) 
energy

>  <rmsd>  (38) 
3.109837252152361

>  <m_score__min__rmsd>  (38) 
3.109837252152361

>  <meeko>  (38) 
{"free_energy": -5.45, "intermolecular_energy": -7.54, "internal_energy": -3.29, "cluster_size": 10, "cluster_id": 3, "rank_in_cluster": 3}

>  <energy>  (38) 
-4.99

>  <cluster_rmsd>  (38) 
0.52

>  <cluster>  (38) 
6

$$$$

     RDKit          3D

 44 46  0  0  0  0  0  0  0  0999 V2000
  139.9650   74.3690  222.3330 N   0  0  0  0  0  0  0  0  0  0  0  0
  140.1890   72.9630  222.0200 C   0  0  2  0  0  0  0  0  0  0  0  0
  139.9960   72.8240  220.5280 C   0  0  0  0  0  0  0  0  0  0  0  0
  138.6500   72.1930  220.3320 C   0  0  0  0  0  0  0  0  0  0  0  0
  138.0780   72.0570  221.6610 N   0  0  0  0  0  0  0  0  0  0  0  0
  136.6880   71.8490  221.9500 C   0  0  0  0  0  0  0  0  0  0  0  0
  136.1000   70.7720  221.5930 O   0  0  0  0  0  0  0  0  0  0  0  0
  135.9160   72.8990  222.6770 C   0  0  0  0  0  0  0  0  0  0  0  0
  136.7480   74.0860  222.7120 N   0  0  0  0  0  0  0  0  0  0  0  0
  136.1820   75.3960  222.7280 C   0  0  0  0  0  0  0  0  0  0  0  0
  134.9170   75.5790  222.7130 O   0  0  0  0  0  0  0  0  0  0  0  0
  137.0840   76.5640  222.7660 C   0  0  0  0  0  0  0  0  0  0  0  0
  136.5440   77.8280  222.8640 C   0  0  0  0  0  0  0  0  0  0  0  0
  137.3890   78.9280  222.9000 C   0  0  0  0  0  0  0  0  0  0  0  0
  138.7550   78.6880  222.8320 C   0  0  0  0  0  0  0  0  0  0  0  0
  139.6020   79.7780  222.8670 C   0  0  0  0  0  0  0  0  0  0  0  0
  140.9730   79.5390  222.8000 C   0  0  0  0  0  0  0  0  0  0  0  0
  142.0520   80.9330  222.8440 Cl  0  0  0  0  0  0  0  0  0  0  0  0
  141.4930   78.2630  222.7010 C   0  0  0  0  0  0  0  0  0  0  0  0
  140.6430   77.1830  222.6680 C   0  0  0  0  0  0  0  0  0  0  0  0
  139.2850   77.4220  222.7340 C   0  0  0  0  0  0  0  0  0  0  0  0
  138.4320   76.3940  222.7040 N   0  0  0  0  0  0  0  0  0  0  0  0
  139.1110   72.1600  222.6730 C   0  0  1  0  0  0  0  0  0  0  0  0
  139.5570   70.7530  223.0080 C   0  0  0  0  0  0  0  0  0  0  0  0
  139.0020   69.8720  222.0830 O   0  0  0  0  0  0  0  0  0  0  0  0
  139.5300   74.8940  221.5400 H   0  0  0  0  0  0  0  0  0  0  0  0
  139.3600   74.4950  223.1750 H   0  0  0  0  0  0  0  0  0  0  0  0
  141.1833   72.6306  222.3530 H   0  0  0  0  0  0  0  0  0  0  0  0
  140.0264   73.8127  220.0468 H   0  0  0  0  0  0  0  0  0  0  0  0
  140.7922   72.2127  220.0782 H   0  0  0  0  0  0  0  0  0  0  0  0
  138.0137   72.8351  219.7052 H   0  0  0  0  0  0  0  0  0  0  0  0
  138.7294   71.2204  219.8244 H   0  0  0  0  0  0  0  0  0  0  0  0
  134.9757   73.1118  222.1474 H   0  0  0  0  0  0  0  0  0  0  0  0
  135.6615   72.5668  223.6943 H   0  0  0  0  0  0  0  0  0  0  0  0
  137.8100   74.0300  222.7290 H   0  0  0  0  0  0  0  0  0  0  0  0
  135.4535   77.9637  222.9132 H   0  0  0  0  0  0  0  0  0  0  0  0
  136.9921   79.9508  222.9793 H   0  0  0  0  0  0  0  0  0  0  0  0
  139.2072   80.8017  222.9452 H   0  0  0  0  0  0  0  0  0  0  0  0
  142.5813   78.1119  222.6489 H   0  0  0  0  0  0  0  0  0  0  0  0
  141.0339   76.1577  222.5912 H   0  0  0  0  0  0  0  0  0  0  0  0
  138.7985   72.6370  223.6137 H   0  0  0  0  0  0  0  0  0  0  0  0
  140.6544   70.6928  222.9629 H   0  0  0  0  0  0  0  0  0  0  0  0
  139.2237   70.4877  224.0221 H   0  0  0  0  0  0  0  0  0  0  0  0
  138.0150   69.9020  222.0670 H   0  0  0  0  0  0  0  0  0  0  0  0
  1  2  1  0
  2  3  1  0
  3  4  1  0
  4  5  1  0
  5  6  1  0
  6  7  2  0
  6  8  1  0
  8  9  1  0
  9 10  1  0
 10 11  2  0
 10 12  1  0
 12 13  2  0
 13 14  1  0
 14 15  2  0
 15 16  1  0
 16 17  2  0
 17 18  1  0
 17 19  1  0
 19 20  2  0
 20 21  1  0
 21 22  2  0
  5 23  1  0
 23 24  1  0
 24 25  1  0
 23  2  1  0
 22 12  1  0
 21 15  1  0
  1 26  1  0
  1 27  1  0
  2 28  1  6
  3 29  1  0
  3 30  1  0
  4 31  1  0
  4 32  1  0
  8 33  1  0
  8 34  1  0
  9 35  1  0
 13 36  1  0
 14 37  1  0
 16 38  1  0
 19 39  1  0
 20 40  1  0
 23 41  1  1
 24 42  1  0
 24 43  1  0
 25 44  1  0
M  END
>  <smiles>  (39) 
N[C@@H]1CCN(C(=O)CNC(=O)c2ccc3cc(Cl)ccc3n2)[C@H]1CO

>  <score_type>  (39) 
oracle

>  <origin>  (39) 
autodockgpu

>  <m_score__min__energy>  (39) 
-7.3300000000000001

>  <m_primary>  (39) 
energy

>  <rmsd>  (39) 
7.244860058407154

>  <m_score__min__rmsd>  (39) 
7.244860058407154

>  <meeko>  (39) 
{"free_energy": -4.72, "intermolecular_energy": -6.81, "internal_energy": -4.04, "cluster_size": 3, "cluster_id": 9, "rank_in_cluster": 2}

>  <energy>  (39) 
-5.37

>  <cluster_rmsd>  (39) 
0.0

>  <cluster>  (39) 
7

$$$$

     RDKit          3D

 44 46  0  0  0  0  0  0  0  0999 V2000
  141.3750   76.9530  221.3980 N   0  0  0  0  0  0  0  0  0  0  0  0
  141.0980   77.7510  222.5850 C   0  0  2  0  0  0  0  0  0  0  0  0
  139.6240   78.0810  222.5420 C   0  0  0  0  0  0  0  0  0  0  0  0
  139.5230   79.5110  222.1020 C   0  0  0  0  0  0  0  0  0  0  0  0
  140.8850   79.9410  221.8340 N   0  0  0  0  0  0  0  0  0  0  0  0
  141.2560   81.0890  221.0570 C   0  0  0  0  0  0  0  0  0  0  0  0
  141.2620   82.2560  221.5770 O   0  0  0  0  0  0  0  0  0  0  0  0
  141.6410   80.9220  219.6250 C   0  0  0  0  0  0  0  0  0  0  0  0
  142.1950   79.5890  219.4890 N   0  0  0  0  0  0  0  0  0  0  0  0
  142.1880   78.9010  218.2390 C   0  0  0  0  0  0  0  0  0  0  0  0
  141.6940   79.4300  217.1850 O   0  0  0  0  0  0  0  0  0  0  0  0
  142.7690   77.5460  218.1660 C   0  0  0  0  0  0  0  0  0  0  0  0
  143.1230   77.0310  216.9380 C   0  0  0  0  0  0  0  0  0  0  0  0
  143.6700   75.7580  216.8660 C   0  0  0  0  0  0  0  0  0  0  0  0
  143.8300   75.0620  218.0570 C   0  0  0  0  0  0  0  0  0  0  0  0
  144.3740   73.7940  217.9930 C   0  0  0  0  0  0  0  0  0  0  0  0
  144.5360   73.0940  219.1880 C   0  0  0  0  0  0  0  0  0  0  0  0
  145.2290   71.4760  219.1030 Cl  0  0  0  0  0  0  0  0  0  0  0  0
  144.1740   73.6300  220.4090 C   0  0  0  0  0  0  0  0  0  0  0  0
  143.6340   74.8940  220.4640 C   0  0  0  0  0  0  0  0  0  0  0  0
  143.4740   75.5850  219.2790 C   0  0  0  0  0  0  0  0  0  0  0  0
  142.9520   76.8140  219.2980 N   0  0  0  0  0  0  0  0  0  0  0  0
  141.8350   79.0450  222.4630 C   0  0  1  0  0  0  0  0  0  0  0  0
  142.1930   79.6400  223.8090 C   0  0  0  0  0  0  0  0  0  0  0  0
  142.9030   80.8200  223.6040 O   0  0  0  0  0  0  0  0  0  0  0  0
  141.2390   77.4900  220.5110 H   0  0  0  0  0  0  0  0  0  0  0  0
  142.3460   76.5680  221.3980 H   0  0  0  0  0  0  0  0  0  0  0  0
  141.3878   77.2184  223.5028 H   0  0  0  0  0  0  0  0  0  0  0  0
  139.1080   77.4251  221.8254 H   0  0  0  0  0  0  0  0  0  0  0  0
  139.1531   77.9320  223.5249 H   0  0  0  0  0  0  0  0  0  0  0  0
  138.9107   79.5891  221.1915 H   0  0  0  0  0  0  0  0  0  0  0  0
  139.0447   80.1374  222.8694 H   0  0  0  0  0  0  0  0  0  0  0  0
  140.7563   81.0312  218.9805 H   0  0  0  0  0  0  0  0  0  0  0  0
  142.3738   81.6849  219.3234 H   0  0  0  0  0  0  0  0  0  0  0  0
  142.6280   79.0720  220.3100 H   0  0  0  0  0  0  0  0  0  0  0  0
  142.9733   77.6235  216.0234 H   0  0  0  0  0  0  0  0  0  0  0  0
  143.9656   75.3170  215.9026 H   0  0  0  0  0  0  0  0  0  0  0  0
  144.6698   73.3508  217.0306 H   0  0  0  0  0  0  0  0  0  0  0  0
  144.3168   73.0491  221.3321 H   0  0  0  0  0  0  0  0  0  0  0  0
  143.3381   75.3415  221.4243 H   0  0  0  0  0  0  0  0  0  0  0  0
  142.7745   78.8957  221.9106 H   0  0  0  0  0  0  0  0  0  0  0  0
  141.2741   79.8550  224.3742 H   0  0  0  0  0  0  0  0  0  0  0  0
  142.8076   78.9287  224.3802 H   0  0  0  0  0  0  0  0  0  0  0  0
  142.3710   81.5140  223.1460 H   0  0  0  0  0  0  0  0  0  0  0  0
  1  2  1  0
  2  3  1  0
  3  4  1  0
  4  5  1  0
  5  6  1  0
  6  7  2  0
  6  8  1  0
  8  9  1  0
  9 10  1  0
 10 11  2  0
 10 12  1  0
 12 13  2  0
 13 14  1  0
 14 15  2  0
 15 16  1  0
 16 17  2  0
 17 18  1  0
 17 19  1  0
 19 20  2  0
 20 21  1  0
 21 22  2  0
  5 23  1  0
 23 24  1  0
 24 25  1  0
 23  2  1  0
 22 12  1  0
 21 15  1  0
  1 26  1  0
  1 27  1  0
  2 28  1  1
  3 29  1  0
  3 30  1  0
  4 31  1  0
  4 32  1  0
  8 33  1  0
  8 34  1  0
  9 35  1  0
 13 36  1  0
 14 37  1  0
 16 38  1  0
 19 39  1  0
 20 40  1  0
 23 41  1  6
 24 42  1  0
 24 43  1  0
 25 44  1  0
M  END
>  <smiles>  (40) 
N[C@@H]1CCN(C(=O)CNC(=O)c2ccc3cc(Cl)ccc3n2)[C@H]1CO

>  <score_type>  (40) 
oracle

>  <origin>  (40) 
autodockgpu

>  <m_score__min__energy>  (40) 
-7.3300000000000001

>  <m_primary>  (40) 
energy

>  <rmsd>  (40) 
8.075595107263897

>  <m_score__min__rmsd>  (40) 
8.075595107263897

>  <meeko>  (40) 
{"free_energy": -5.19, "intermolecular_energy": -7.27, "internal_energy": -3.63, "cluster_size": 8, "cluster_id": 6, "rank_in_cluster": 3}

>  <energy>  (40) 
-5.33

>  <cluster_rmsd>  (40) 
0.2

>  <cluster>  (40) 
7

$$$$

     RDKit          3D

 44 46  0  0  0  0  0  0  0  0999 V2000
  141.7920   77.8880  221.8700 N   0  0  0  0  0  0  0  0  0  0  0  0
  141.7830   78.7440  223.0500 C   0  0  2  0  0  0  0  0  0  0  0  0
  140.3310   78.9760  223.3960 C   0  0  0  0  0  0  0  0  0  0  0  0
  140.0010   80.3640  222.9340 C   0  0  0  0  0  0  0  0  0  0  0  0
  141.2020   80.8620  222.2830 N   0  0  0  0  0  0  0  0  0  0  0  0
  141.2570   81.9770  221.3820 C   0  0  0  0  0  0  0  0  0  0  0  0
  141.4530   83.1610  221.8190 O   0  0  0  0  0  0  0  0  0  0  0  0
  141.0850   81.7540  219.9170 C   0  0  0  0  0  0  0  0  0  0  0  0
  141.5760   80.4200  219.6310 N   0  0  0  0  0  0  0  0  0  0  0  0
  141.9920   80.0410  218.3190 C   0  0  0  0  0  0  0  0  0  0  0  0
  141.9500   80.8620  217.3400 O   0  0  0  0  0  0  0  0  0  0  0  0
  142.4830   78.6680  218.0950 C   0  0  0  0  0  0  0  0  0  0  0  0
  142.7560   78.2530  216.8090 C   0  0  0  0  0  0  0  0  0  0  0  0
  143.2180   76.9620  216.5940 C   0  0  0  0  0  0  0  0  0  0  0  0
  143.3800   76.1470  217.7070 C   0  0  0  0  0  0  0  0  0  0  0  0
  143.8390   74.8610  217.5000 C   0  0  0  0  0  0  0  0  0  0  0  0
  144.0030   74.0420  218.6160 C   0  0  0  0  0  0  0  0  0  0  0  0
  144.5890   72.4000  218.3490 Cl  0  0  0  0  0  0  0  0  0  0  0  0
  143.7230   74.4780  219.8960 C   0  0  0  0  0  0  0  0  0  0  0  0
  143.2670   75.7600  220.0930 C   0  0  0  0  0  0  0  0  0  0  0  0
  143.1050   76.5700  218.9860 C   0  0  0  0  0  0  0  0  0  0  0  0
  142.6630   77.8210  219.1440 N   0  0  0  0  0  0  0  0  0  0  0  0
  142.3540   80.0720  222.6700 C   0  0  1  0  0  0  0  0  0  0  0  0
  143.0140   80.7760  223.8360 C   0  0  0  0  0  0  0  0  0  0  0  0
  142.1950   81.8240  224.2500 O   0  0  0  0  0  0  0  0  0  0  0  0
  142.6050   78.0780  221.2410 H   0  0  0  0  0  0  0  0  0  0  0  0
  141.8040   76.8730  222.1190 H   0  0  0  0  0  0  0  0  0  0  0  0
  142.3509   78.2932  223.8772 H   0  0  0  0  0  0  0  0  0  0  0  0
  139.6951   78.2420  222.8794 H   0  0  0  0  0  0  0  0  0  0  0  0
  140.1561   78.8636  224.4762 H   0  0  0  0  0  0  0  0  0  0  0  0
  139.1616   80.3416  222.2234 H   0  0  0  0  0  0  0  0  0  0  0  0
  139.6989   81.0083  223.7728 H   0  0  0  0  0  0  0  0  0  0  0  0
  140.0219   81.8316  219.6453 H   0  0  0  0  0  0  0  0  0  0  0  0
  141.6374   82.5084  219.3375 H   0  0  0  0  0  0  0  0  0  0  0  0
  141.6460   79.6720  220.3830 H   0  0  0  0  0  0  0  0  0  0  0  0
  142.6091   78.9385  215.9614 H   0  0  0  0  0  0  0  0  0  0  0  0
  143.4470   76.5984  215.5814 H   0  0  0  0  0  0  0  0  0  0  0  0
  144.0676   74.4952  216.4881 H   0  0  0  0  0  0  0  0  0  0  0  0
  143.8640   73.8033  220.7533 H   0  0  0  0  0  0  0  0  0  0  0  0
  143.0378   76.1300  221.1032 H   0  0  0  0  0  0  0  0  0  0  0  0
  143.1180   79.9465  221.8886 H   0  0  0  0  0  0  0  0  0  0  0  0
  143.1539   80.0666  224.6649 H   0  0  0  0  0  0  0  0  0  0  0  0
  143.9952   81.1674  223.5292 H   0  0  0  0  0  0  0  0  0  0  0  0
  142.0300   82.4880  223.5390 H   0  0  0  0  0  0  0  0  0  0  0  0
  1  2  1  0
  2  3  1  0
  3  4  1  0
  4  5  1  0
  5  6  1  0
  6  7  2  0
  6  8  1  0
  8  9  1  0
  9 10  1  0
 10 11  2  0
 10 12  1  0
 12 13  2  0
 13 14  1  0
 14 15  2  0
 15 16  1  0
 16 17  2  0
 17 18  1  0
 17 19  1  0
 19 20  2  0
 20 21  1  0
 21 22  2  0
  5 23  1  0
 23 24  1  0
 24 25  1  0
 23  2  1  0
 22 12  1  0
 21 15  1  0
  1 26  1  0
  1 27  1  0
  2 28  1  1
  3 29  1  0
  3 30  1  0
  4 31  1  0
  4 32  1  0
  8 33  1  0
  8 34  1  0
  9 35  1  0
 13 36  1  0
 14 37  1  0
 16 38  1  0
 19 39  1  0
 20 40  1  0
 23 41  1  6
 24 42  1  0
 24 43  1  0
 25 44  1  0
M  END
>  <smiles>  (41) 
N[C@@H]1CCN(C(=O)CNC(=O)c2ccc3cc(Cl)ccc3n2)[C@H]1CO

>  <score_type>  (41) 
oracle

>  <origin>  (41) 
autodockgpu

>  <m_score__min__energy>  (41) 
-7.3300000000000001

>  <m_primary>  (41) 
energy

>  <rmsd>  (41) 
8.803754484767262

>  <m_score__min__rmsd>  (41) 
8.803754484767262

>  <meeko>  (41) 
{"free_energy": -5.32, "intermolecular_energy": -7.41, "internal_energy": -3.52, "cluster_size": 8, "cluster_id": 6, "rank_in_cluster": 2}

>  <energy>  (41) 
-5.31

>  <cluster_rmsd>  (41) 
0.52

>  <cluster>  (41) 
7

$$$$

     RDKit          3D

 44 46  0  0  0  0  0  0  0  0999 V2000
  139.9490   71.7170  228.0460 N   0  0  0  0  0  0  0  0  0  0  0  0
  140.6580   70.6550  227.3440 C   0  0  2  0  0  0  0  0  0  0  0  0
  141.4780   71.3300  226.2690 C   0  0  0  0  0  0  0  0  0  0  0  0
  140.7560   71.0950  224.9760 C   0  0  0  0  0  0  0  0  0  0  0  0
  139.5380   70.3840  225.3240 N   0  0  0  0  0  0  0  0  0  0  0  0
  138.3780   70.2650  224.4880 C   0  0  0  0  0  0  0  0  0  0  0  0
  137.2310   70.0150  224.9920 O   0  0  0  0  0  0  0  0  0  0  0  0
  138.5090   70.4360  223.0110 C   0  0  0  0  0  0  0  0  0  0  0  0
  138.9150   71.8080  222.7780 N   0  0  0  0  0  0  0  0  0  0  0  0
  140.0640   72.1240  221.9920 C   0  0  0  0  0  0  0  0  0  0  0  0
  140.7830   71.2120  221.4590 O   0  0  0  0  0  0  0  0  0  0  0  0
  140.4240   73.5420  221.7930 C   0  0  0  0  0  0  0  0  0  0  0  0
  141.5550   73.8530  221.0680 C   0  0  0  0  0  0  0  0  0  0  0  0
  141.8960   75.1840  220.8780 C   0  0  0  0  0  0  0  0  0  0  0  0
  141.0650   76.1440  221.4410 C   0  0  0  0  0  0  0  0  0  0  0  0
  141.3990   77.4720  221.2550 C   0  0  0  0  0  0  0  0  0  0  0  0
  140.5650   78.4370  221.8180 C   0  0  0  0  0  0  0  0  0  0  0  0
  140.9950   80.1300  221.5810 Cl  0  0  0  0  0  0  0  0  0  0  0  0
  139.4370   78.1030  222.5410 C   0  0  0  0  0  0  0  0  0  0  0  0
  139.1110   76.7790  222.7200 C   0  0  0  0  0  0  0  0  0  0  0  0
  139.9380   75.8240  222.1620 C   0  0  0  0  0  0  0  0  0  0  0  0
  139.6500   74.5290  222.3170 N   0  0  0  0  0  0  0  0  0  0  0  0
  139.6500   69.8000  226.6460 C   0  0  1  0  0  0  0  0  0  0  0  0
  140.1200   68.3720  226.4710 C   0  0  0  0  0  0  0  0  0  0  0  0
  139.1630   67.6690  225.7440 O   0  0  0  0  0  0  0  0  0  0  0  0
  139.5580   71.4010  228.9640 H   0  0  0  0  0  0  0  0  0  0  0  0
  140.5560   72.5480  228.2220 H   0  0  0  0  0  0  0  0  0  0  0  0
  141.2708   70.0568  228.0344 H   0  0  0  0  0  0  0  0  0  0  0  0
  141.5558   72.4085  226.4707 H   0  0  0  0  0  0  0  0  0  0  0  0
  142.5004   70.9256  226.2342 H   0  0  0  0  0  0  0  0  0  0  0  0
  140.5149   72.0533  224.4927 H   0  0  0  0  0  0  0  0  0  0  0  0
  141.3713   70.5199  224.2684 H   0  0  0  0  0  0  0  0  0  0  0  0
  139.2686   69.7450  222.6165 H   0  0  0  0  0  0  0  0  0  0  0  0
  137.5577   70.2165  222.5043 H   0  0  0  0  0  0  0  0  0  0  0  0
  138.3770   72.6310  223.1810 H   0  0  0  0  0  0  0  0  0  0  0  0
  142.1806   73.0534  220.6445 H   0  0  0  0  0  0  0  0  0  0  0  0
  142.7900   75.4683  220.3036 H   0  0  0  0  0  0  0  0  0  0  0  0
  142.2932   77.7582  220.6818 H   0  0  0  0  0  0  0  0  0  0  0  0
  138.8025   78.8917  222.9715 H   0  0  0  0  0  0  0  0  0  0  0  0
  138.2169   76.4889  223.2914 H   0  0  0  0  0  0  0  0  0  0  0  0
  138.7145   69.7677  227.2238 H   0  0  0  0  0  0  0  0  0  0  0  0
  141.0769   68.3619  225.9286 H   0  0  0  0  0  0  0  0  0  0  0  0
  140.2600   67.9020  227.4556 H   0  0  0  0  0  0  0  0  0  0  0  0
  138.3830   68.2220  225.4990 H   0  0  0  0  0  0  0  0  0  0  0  0
  1  2  1  0
  2  3  1  0
  3  4  1  0
  4  5  1  0
  5  6  1  0
  6  7  2  0
  6  8  1  0
  8  9  1  0
  9 10  1  0
 10 11  2  0
 10 12  1  0
 12 13  2  0
 13 14  1  0
 14 15  2  0
 15 16  1  0
 16 17  2  0
 17 18  1  0
 17 19  1  0
 19 20  2  0
 20 21  1  0
 21 22  2  0
  5 23  1  0
 23 24  1  0
 24 25  1  0
 23  2  1  0
 22 12  1  0
 21 15  1  0
  1 26  1  0
  1 27  1  0
  2 28  1  1
  3 29  1  0
  3 30  1  0
  4 31  1  0
  4 32  1  0
  8 33  1  0
  8 34  1  0
  9 35  1  0
 13 36  1  0
 14 37  1  0
 16 38  1  0
 19 39  1  0
 20 40  1  0
 23 41  1  1
 24 42  1  0
 24 43  1  0
 25 44  1  0
M  END
>  <smiles>  (42) 
N[C@@H]1CCN(C(=O)CNC(=O)c2ccc3cc(Cl)ccc3n2)[C@H]1CO

>  <score_type>  (42) 
oracle

>  <origin>  (42) 
autodockgpu

>  <m_score__min__energy>  (42) 
-7.3300000000000001

>  <m_primary>  (42) 
energy

>  <rmsd>  (42) 
8.160982505809713

>  <m_score__min__rmsd>  (42) 
8.160982505809713

>  <meeko>  (42) 
{"free_energy": -6.8, "intermolecular_energy": -8.89, "internal_energy": -2.03, "cluster_size": 2, "cluster_id": 2, "rank_in_cluster": 2}

>  <energy>  (42) 
-5.29

>  <cluster_rmsd>  (42) 
0.28

>  <cluster>  (42) 
7

$$$$

     RDKit          3D

 44 46  0  0  0  0  0  0  0  0999 V2000
  143.0520   76.4460  220.0970 N   0  0  0  0  0  0  0  0  0  0  0  0
  144.0740   75.5450  219.5810 C   0  0  2  0  0  0  0  0  0  0  0  0
  143.5400   74.9970  218.2790 C   0  0  0  0  0  0  0  0  0  0  0  0
  143.0820   73.5980  218.5630 C   0  0  0  0  0  0  0  0  0  0  0  0
  143.2810   73.3970  219.9890 N   0  0  0  0  0  0  0  0  0  0  0  0
  142.6650   72.3680  220.7760 C   0  0  0  0  0  0  0  0  0  0  0  0
  143.1290   71.1780  220.7760 O   0  0  0  0  0  0  0  0  0  0  0  0
  141.4680   72.6880  221.6090 C   0  0  0  0  0  0  0  0  0  0  0  0
  141.3070   74.1290  221.5810 N   0  0  0  0  0  0  0  0  0  0  0  0
  140.0790   74.7510  221.9580 C   0  0  0  0  0  0  0  0  0  0  0  0
  139.0690   74.0660  222.3370 O   0  0  0  0  0  0  0  0  0  0  0  0
  139.9800   76.2230  221.9090 C   0  0  0  0  0  0  0  0  0  0  0  0
  138.7360   76.8110  221.8260 C   0  0  0  0  0  0  0  0  0  0  0  0
  138.6390   78.1940  221.7800 C   0  0  0  0  0  0  0  0  0  0  0  0
  139.8220   78.9200  221.8190 C   0  0  0  0  0  0  0  0  0  0  0  0
  139.7320   80.2980  221.7740 C   0  0  0  0  0  0  0  0  0  0  0  0
  140.9190   81.0280  221.8140 C   0  0  0  0  0  0  0  0  0  0  0  0
  140.8020   82.7870  221.7550 Cl  0  0  0  0  0  0  0  0  0  0  0  0
  142.1550   80.4180  221.8970 C   0  0  0  0  0  0  0  0  0  0  0  0
  142.2350   79.0470  221.9430 C   0  0  0  0  0  0  0  0  0  0  0  0
  141.0590   78.3250  221.9030 C   0  0  0  0  0  0  0  0  0  0  0  0
  141.1020   76.9900  221.9450 N   0  0  0  0  0  0  0  0  0  0  0  0
  144.1970   74.3880  220.5190 C   0  0  1  0  0  0  0  0  0  0  0  0
  145.5810   73.7750  220.5090 C   0  0  0  0  0  0  0  0  0  0  0  0
  145.6310   72.7630  221.4650 O   0  0  0  0  0  0  0  0  0  0  0  0
  142.6810   76.1440  221.0270 H   0  0  0  0  0  0  0  0  0  0  0  0
  143.4000   77.4270  220.1910 H   0  0  0  0  0  0  0  0  0  0  0  0
  145.0390   76.0594  219.4623 H   0  0  0  0  0  0  0  0  0  0  0  0
  142.6966   75.6089  217.9264 H   0  0  0  0  0  0  0  0  0  0  0  0
  144.3110   75.0120  217.4946 H   0  0  0  0  0  0  0  0  0  0  0  0
  142.0189   73.4833  218.3048 H   0  0  0  0  0  0  0  0  0  0  0  0
  143.6415   72.8607  217.9686 H   0  0  0  0  0  0  0  0  0  0  0  0
  140.5752   72.1996  221.1913 H   0  0  0  0  0  0  0  0  0  0  0  0
  141.5982   72.3268  222.6398 H   0  0  0  0  0  0  0  0  0  0  0  0
  142.0930   74.7790  221.2810 H   0  0  0  0  0  0  0  0  0  0  0  0
  137.8289   76.1895  221.7965 H   0  0  0  0  0  0  0  0  0  0  0  0
  137.6625   78.6962  221.7151 H   0  0  0  0  0  0  0  0  0  0  0  0
  138.7565   80.8021  221.7088 H   0  0  0  0  0  0  0  0  0  0  0  0
  143.0709   81.0265  221.9262 H   0  0  0  0  0  0  0  0  0  0  0  0
  143.2085   78.5392  222.0098 H   0  0  0  0  0  0  0  0  0  0  0  0
  143.9906   74.7121  221.5497 H   0  0  0  0  0  0  0  0  0  0  0  0
  145.7920   73.3548  219.5146 H   0  0  0  0  0  0  0  0  0  0  0  0
  146.3322   74.5446  220.7400 H   0  0  0  0  0  0  0  0  0  0  0  0
  145.1110   71.9640  221.2080 H   0  0  0  0  0  0  0  0  0  0  0  0
  1  2  1  0
  2  3  1  0
  3  4  1  0
  4  5  1  0
  5  6  1  0
  6  7  2  0
  6  8  1  0
  8  9  1  0
  9 10  1  0
 10 11  2  0
 10 12  1  0
 12 13  2  0
 13 14  1  0
 14 15  2  0
 15 16  1  0
 16 17  2  0
 17 18  1  0
 17 19  1  0
 19 20  2  0
 20 21  1  0
 21 22  2  0
  5 23  1  0
 23 24  1  0
 24 25  1  0
 23  2  1  0
 22 12  1  0
 21 15  1  0
  1 26  1  0
  1 27  1  0
  2 28  1  6
  3 29  1  0
  3 30  1  0
  4 31  1  0
  4 32  1  0
  8 33  1  0
  8 34  1  0
  9 35  1  0
 13 36  1  0
 14 37  1  0
 16 38  1  0
 19 39  1  0
 20 40  1  0
 23 41  1  1
 24 42  1  0
 24 43  1  0
 25 44  1  0
M  END
>  <smiles>  (43) 
N[C@@H]1CCN(C(=O)CNC(=O)c2ccc3cc(Cl)ccc3n2)[C@H]1CO

>  <score_type>  (43) 
oracle

>  <origin>  (43) 
autodockgpu

>  <m_score__min__energy>  (43) 
-7.3300000000000001

>  <m_primary>  (43) 
energy

>  <rmsd>  (43) 
7.2443100431600245

>  <m_score__min__rmsd>  (43) 
7.2443100431600245

>  <meeko>  (43) 
{"free_energy": -5.5, "intermolecular_energy": -7.59, "internal_energy": -3.55, "cluster_size": 14, "cluster_id": 4, "rank_in_cluster": 6}

>  <energy>  (43) 
-5.06

>  <cluster_rmsd>  (43) 
0.97

>  <cluster>  (43) 
7

$$$$

     RDKit          3D

 44 46  0  0  0  0  0  0  0  0999 V2000
  140.0280   73.0510  222.7100 N   0  0  0  0  0  0  0  0  0  0  0  0
  140.4080   73.7750  221.5040 C   0  0  2  0  0  0  0  0  0  0  0  0
  140.6260   75.2100  221.9210 C   0  0  0  0  0  0  0  0  0  0  0  0
  139.4190   75.9730  221.4630 C   0  0  0  0  0  0  0  0  0  0  0  0
  138.5240   74.9880  220.8810 N   0  0  0  0  0  0  0  0  0  0  0  0
  137.1220   75.1780  220.6440 C   0  0  0  0  0  0  0  0  0  0  0  0
  136.7140   75.8850  219.6600 O   0  0  0  0  0  0  0  0  0  0  0  0
  136.1230   74.5420  221.5530 C   0  0  0  0  0  0  0  0  0  0  0  0
  136.8280   73.5280  222.3130 N   0  0  0  0  0  0  0  0  0  0  0  0
  136.2620   72.2400  222.5460 C   0  0  0  0  0  0  0  0  0  0  0  0
  135.1090   71.9230  222.0950 O   0  0  0  0  0  0  0  0  0  0  0  0
  137.0320   71.2520  223.3270 C   0  0  0  0  0  0  0  0  0  0  0  0
  136.5230   69.9820  223.4930 C   0  0  0  0  0  0  0  0  0  0  0  0
  137.2440   69.0500  224.2260 C   0  0  0  0  0  0  0  0  0  0  0  0
  138.4580   69.4590  224.7620 C   0  0  0  0  0  0  0  0  0  0  0  0
  139.1820   68.5370  225.4930 C   0  0  0  0  0  0  0  0  0  0  0  0
  140.4010   68.9450  226.0310 C   0  0  0  0  0  0  0  0  0  0  0  0
  141.3220   67.7660  226.9640 Cl  0  0  0  0  0  0  0  0  0  0  0  0
  140.8920   70.2240  225.8520 C   0  0  0  0  0  0  0  0  0  0  0  0
  140.1670   71.1350  225.1220 C   0  0  0  0  0  0  0  0  0  0  0  0
  138.9580   70.7290  224.5900 C   0  0  0  0  0  0  0  0  0  0  0  0
  138.2290   71.5900  223.8770 N   0  0  0  0  0  0  0  0  0  0  0  0
  139.2430   73.7690  220.5670 C   0  0  1  0  0  0  0  0  0  0  0  0
  139.6640   73.8550  219.1150 C   0  0  0  0  0  0  0  0  0  0  0  0
  138.5240   73.8540  218.3160 O   0  0  0  0  0  0  0  0  0  0  0  0
  139.1780   73.4510  223.1700 H   0  0  0  0  0  0  0  0  0  0  0  0
  139.8480   72.0380  222.5230 H   0  0  0  0  0  0  0  0  0  0  0  0
  141.2957   73.3297  221.0311 H   0  0  0  0  0  0  0  0  0  0  0  0
  140.7261   75.2773  223.0144 H   0  0  0  0  0  0  0  0  0  0  0  0
  141.5468   75.6180  221.4785 H   0  0  0  0  0  0  0  0  0  0  0  0
  138.9359   76.4728  222.3155 H   0  0  0  0  0  0  0  0  0  0  0  0
  139.6865   76.7551  220.7372 H   0  0  0  0  0  0  0  0  0  0  0  0
  135.6967   75.2951  222.2321 H   0  0  0  0  0  0  0  0  0  0  0  0
  135.2958   74.0988  220.9792 H   0  0  0  0  0  0  0  0  0  0  0  0
  137.7920   73.7020  222.7250 H   0  0  0  0  0  0  0  0  0  0  0  0
  135.5543   69.7097  223.0486 H   0  0  0  0  0  0  0  0  0  0  0  0
  136.8685   68.0271  224.3766 H   0  0  0  0  0  0  0  0  0  0  0  0
  138.8083   67.5137  225.6454 H   0  0  0  0  0  0  0  0  0  0  0  0
  141.8584   70.5116  226.2917 H   0  0  0  0  0  0  0  0  0  0  0  0
  140.5386   72.1585  224.9656 H   0  0  0  0  0  0  0  0  0  0  0  0
  138.6651   72.8406  220.6860 H   0  0  0  0  0  0  0  0  0  0  0  0
  140.2309   74.7829  218.9489 H   0  0  0  0  0  0  0  0  0  0  0  0
  140.3003   72.9950  218.8590 H   0  0  0  0  0  0  0  0  0  0  0  0
  137.9660   74.6580  218.4390 H   0  0  0  0  0  0  0  0  0  0  0  0
  1  2  1  0
  2  3  1  0
  3  4  1  0
  4  5  1  0
  5  6  1  0
  6  7  2  0
  6  8  1  0
  8  9  1  0
  9 10  1  0
 10 11  2  0
 10 12  1  0
 12 13  2  0
 13 14  1  0
 14 15  2  0
 15 16  1  0
 16 17  2  0
 17 18  1  0
 17 19  1  0
 19 20  2  0
 20 21  1  0
 21 22  2  0
  5 23  1  0
 23 24  1  0
 24 25  1  0
 23  2  1  0
 22 12  1  0
 21 15  1  0
  1 26  1  0
  1 27  1  0
  2 28  1  6
  3 29  1  0
  3 30  1  0
  4 31  1  0
  4 32  1  0
  8 33  1  0
  8 34  1  0
  9 35  1  0
 13 36  1  0
 14 37  1  0
 16 38  1  0
 19 39  1  0
 20 40  1  0
 23 41  1  6
 24 42  1  0
 24 43  1  0
 25 44  1  0
M  END
>  <smiles>  (44) 
N[C@@H]1CCN(C(=O)CNC(=O)c2ccc3cc(Cl)ccc3n2)[C@H]1CO

>  <score_type>  (44) 
oracle

>  <origin>  (44) 
autodockgpu

>  <m_score__min__energy>  (44) 
-7.3300000000000001

>  <m_primary>  (44) 
energy

>  <rmsd>  (44) 
3.270288895076943

>  <m_score__min__rmsd>  (44) 
3.270288895076943

>  <meeko>  (44) 
{"free_energy": -4.54, "intermolecular_energy": -6.63, "internal_energy": -4.01, "cluster_size": 10, "cluster_id": 3, "rank_in_cluster": 10}

>  <energy>  (44) 
-4.84

>  <cluster_rmsd>  (44) 
0.46

>  <cluster>  (44) 
7

$$$$

     RDKit          3D

 44 46  0  0  0  0  0  0  0  0999 V2000
  142.8840   76.0090  220.2100 N   0  0  0  0  0  0  0  0  0  0  0  0
  144.0560   75.3470  219.6490 C   0  0  2  0  0  0  0  0  0  0  0  0
  143.6440   74.8340  218.2890 C   0  0  0  0  0  0  0  0  0  0  0  0
  143.4340   73.3570  218.4390 C   0  0  0  0  0  0  0  0  0  0  0  0
  143.6440   73.0670  219.8470 N   0  0  0  0  0  0  0  0  0  0  0  0
  143.2060   71.8810  220.5250 C   0  0  0  0  0  0  0  0  0  0  0  0
  144.0380   70.9670  220.8480 O   0  0  0  0  0  0  0  0  0  0  0  0
  141.7620   71.7100  220.8610 C   0  0  0  0  0  0  0  0  0  0  0  0
  141.2820   72.9940  221.3320 N   0  0  0  0  0  0  0  0  0  0  0  0
  139.9850   73.4800  220.9860 C   0  0  0  0  0  0  0  0  0  0  0  0
  139.1910   72.8040  220.2480 O   0  0  0  0  0  0  0  0  0  0  0  0
  139.5560   74.7960  221.4990 C   0  0  0  0  0  0  0  0  0  0  0  0
  138.2090   75.0770  221.5860 C   0  0  0  0  0  0  0  0  0  0  0  0
  137.8020   76.3130  222.0680 C   0  0  0  0  0  0  0  0  0  0  0  0
  138.7920   77.2130  222.4390 C   0  0  0  0  0  0  0  0  0  0  0  0
  138.3930   78.4450  222.9200 C   0  0  0  0  0  0  0  0  0  0  0  0
  139.3860   79.3490  223.2940 C   0  0  0  0  0  0  0  0  0  0  0  0
  138.8740   80.9220  223.9050 Cl  0  0  0  0  0  0  0  0  0  0  0  0
  140.7300   79.0470  223.1970 C   0  0  0  0  0  0  0  0  0  0  0  0
  141.1180   77.8180  222.7190 C   0  0  0  0  0  0  0  0  0  0  0  0
  140.1330   76.9230  222.3490 C   0  0  0  0  0  0  0  0  0  0  0  0
  140.4770   75.7210  221.8800 N   0  0  0  0  0  0  0  0  0  0  0  0
  144.3650   74.1500  220.4870 C   0  0  1  0  0  0  0  0  0  0  0  0
  145.8350   73.7880  220.4660 C   0  0  0  0  0  0  0  0  0  0  0  0
  146.1240   73.0140  221.5870 O   0  0  0  0  0  0  0  0  0  0  0  0
  142.5130   75.5200  221.0560 H   0  0  0  0  0  0  0  0  0  0  0  0
  143.0780   77.0020  220.4690 H   0  0  0  0  0  0  0  0  0  0  0  0
  144.9183   76.0284  219.6038 H   0  0  0  0  0  0  0  0  0  0  0  0
  142.7116   75.3198  217.9657 H   0  0  0  0  0  0  0  0  0  0  0  0
  144.4110   75.0527  217.5314 H   0  0  0  0  0  0  0  0  0  0  0  0
  142.4113   73.0834  218.1402 H   0  0  0  0  0  0  0  0  0  0  0  0
  144.1228   72.7838  217.8010 H   0  0  0  0  0  0  0  0  0  0  0  0
  141.2001   71.4013  219.9672 H   0  0  0  0  0  0  0  0  0  0  0  0
  141.6267   70.9343  221.6291 H   0  0  0  0  0  0  0  0  0  0  0  0
  141.8730   73.6240  221.9510 H   0  0  0  0  0  0  0  0  0  0  0  0
  137.4644   74.3289  221.2764 H   0  0  0  0  0  0  0  0  0  0  0  0
  136.7358   76.5699  222.1529 H   0  0  0  0  0  0  0  0  0  0  0  0
  137.3273   78.7040  223.0050 H   0  0  0  0  0  0  0  0  0  0  0  0
  141.4861   79.7860  223.5007 H   0  0  0  0  0  0  0  0  0  0  0  0
  142.1826   77.5547  222.6335 H   0  0  0  0  0  0  0  0  0  0  0  0
  144.0900   74.3403  221.5349 H   0  0  0  0  0  0  0  0  0  0  0  0
  146.0617   73.2164  219.5539 H   0  0  0  0  0  0  0  0  0  0  0  0
  146.4449   74.7034  220.4773 H   0  0  0  0  0  0  0  0  0  0  0  0
  145.7030   72.1220  221.5590 H   0  0  0  0  0  0  0  0  0  0  0  0
  1  2  1  0
  2  3  1  0
  3  4  1  0
  4  5  1  0
  5  6  1  0
  6  7  2  0
  6  8  1  0
  8  9  1  0
  9 10  1  0
 10 11  2  0
 10 12  1  0
 12 13  2  0
 13 14  1  0
 14 15  2  0
 15 16  1  0
 16 17  2  0
 17 18  1  0
 17 19  1  0
 19 20  2  0
 20 21  1  0
 21 22  2  0
  5 23  1  0
 23 24  1  0
 24 25  1  0
 23  2  1  0
 22 12  1  0
 21 15  1  0
  1 26  1  0
  1 27  1  0
  2 28  1  6
  3 29  1  0
  3 30  1  0
  4 31  1  0
  4 32  1  0
  8 33  1  0
  8 34  1  0
  9 35  1  0
 13 36  1  0
 14 37  1  0
 16 38  1  0
 19 39  1  0
 20 40  1  0
 23 41  1  1
 24 42  1  0
 24 43  1  0
 25 44  1  0
M  END
>  <smiles>  (45) 
N[C@@H]1CCN(C(=O)CNC(=O)c2ccc3cc(Cl)ccc3n2)[C@H]1CO

>  <score_type>  (45) 
oracle

>  <origin>  (45) 
autodockgpu

>  <m_score__min__energy>  (45) 
-7.3300000000000001

>  <m_primary>  (45) 
energy

>  <rmsd>  (45) 
6.360159329864472

>  <m_score__min__rmsd>  (45) 
6.360159329864472

>  <meeko>  (45) 
{"free_energy": -5.41, "intermolecular_energy": -7.5, "internal_energy": -3.04, "cluster_size": 14, "cluster_id": 4, "rank_in_cluster": 7}

>  <energy>  (45) 
-4.68

>  <cluster_rmsd>  (45) 
0.42

>  <cluster>  (45) 
7

$$$$

     RDKit          3D

 44 46  0  0  0  0  0  0  0  0999 V2000
  139.9380   73.7480  222.7130 N   0  0  0  0  0  0  0  0  0  0  0  0
  140.6920   74.2280  221.5620 C   0  0  2  0  0  0  0  0  0  0  0  0
  139.8290   75.2730  220.8940 C   0  0  0  0  0  0  0  0  0  0  0  0
  139.2430   74.6230  219.6770 C   0  0  0  0  0  0  0  0  0  0  0  0
  139.6980   73.2430  219.7050 N   0  0  0  0  0  0  0  0  0  0  0  0
  139.1150   72.1610  218.9650 C   0  0  0  0  0  0  0  0  0  0  0  0
  139.6120   71.7890  217.8490 O   0  0  0  0  0  0  0  0  0  0  0  0
  137.9140   71.4580  219.5040 C   0  0  0  0  0  0  0  0  0  0  0  0
  138.3380   70.7470  220.6940 N   0  0  0  0  0  0  0  0  0  0  0  0
  138.2240   71.3290  221.9920 C   0  0  0  0  0  0  0  0  0  0  0  0
  137.7420   72.5000  222.1620 O   0  0  0  0  0  0  0  0  0  0  0  0
  138.6730   70.5530  223.1650 C   0  0  0  0  0  0  0  0  0  0  0  0
  138.3320   69.2210  223.2610 C   0  0  0  0  0  0  0  0  0  0  0  0
  138.7530   68.4880  224.3620 C   0  0  0  0  0  0  0  0  0  0  0  0
  139.5060   69.1520  225.3220 C   0  0  0  0  0  0  0  0  0  0  0  0
  139.9290   68.4290  226.4200 C   0  0  0  0  0  0  0  0  0  0  0  0
  140.6850   69.0930  227.3850 C   0  0  0  0  0  0  0  0  0  0  0  0
  141.2220   68.1670  228.7860 Cl  0  0  0  0  0  0  0  0  0  0  0  0
  141.0150   70.4290  227.2680 C   0  0  0  0  0  0  0  0  0  0  0  0
  140.5910   71.1410  226.1720 C   0  0  0  0  0  0  0  0  0  0  0  0
  139.8410   70.4820  225.2170 C   0  0  0  0  0  0  0  0  0  0  0  0
  139.4140   71.1450  224.1400 N   0  0  0  0  0  0  0  0  0  0  0  0
  140.8360   73.1010  220.5920 C   0  0  1  0  0  0  0  0  0  0  0  0
  142.0860   73.2190  219.7450 C   0  0  0  0  0  0  0  0  0  0  0  0
  141.7210   73.5970  218.4550 O   0  0  0  0  0  0  0  0  0  0  0  0
  138.9810   74.1640  222.7700 H   0  0  0  0  0  0  0  0  0  0  0  0
  139.8390   72.7070  222.7140 H   0  0  0  0  0  0  0  0  0  0  0  0
  141.6764   74.6171  221.8612 H   0  0  0  0  0  0  0  0  0  0  0  0
  139.0283   75.5971  221.5750 H   0  0  0  0  0  0  0  0  0  0  0  0
  140.4164   76.1638  220.6266 H   0  0  0  0  0  0  0  0  0  0  0  0
  138.1444   74.6645  219.7124 H   0  0  0  0  0  0  0  0  0  0  0  0
  139.5578   75.1336  218.7550 H   0  0  0  0  0  0  0  0  0  0  0  0
  137.1315   72.1880  219.7587 H   0  0  0  0  0  0  0  0  0  0  0  0
  137.4981   70.7637  218.7590 H   0  0  0  0  0  0  0  0  0  0  0  0
  138.7500   69.7680  220.6500 H   0  0  0  0  0  0  0  0  0  0  0  0
  137.7319   68.7433  222.4725 H   0  0  0  0  0  0  0  0  0  0  0  0
  138.5002   67.4229  224.4701 H   0  0  0  0  0  0  0  0  0  0  0  0
  139.6776   67.3637  226.5296 H   0  0  0  0  0  0  0  0  0  0  0  0
  141.6143   70.9207  228.0484 H   0  0  0  0  0  0  0  0  0  0  0  0
  140.8417   72.2060  226.0581 H   0  0  0  0  0  0  0  0  0  0  0  0
  140.8937   72.1429  221.1293 H   0  0  0  0  0  0  0  0  0  0  0  0
  142.7549   73.9778  220.1771 H   0  0  0  0  0  0  0  0  0  0  0  0
  142.6104   72.2525  219.7166 H   0  0  0  0  0  0  0  0  0  0  0  0
  141.2150   72.8970  217.9770 H   0  0  0  0  0  0  0  0  0  0  0  0
  1  2  1  0
  2  3  1  0
  3  4  1  0
  4  5  1  0
  5  6  1  0
  6  7  2  0
  6  8  1  0
  8  9  1  0
  9 10  1  0
 10 11  2  0
 10 12  1  0
 12 13  2  0
 13 14  1  0
 14 15  2  0
 15 16  1  0
 16 17  2  0
 17 18  1  0
 17 19  1  0
 19 20  2  0
 20 21  1  0
 21 22  2  0
  5 23  1  0
 23 24  1  0
 24 25  1  0
 23  2  1  0
 22 12  1  0
 21 15  1  0
  1 26  1  0
  1 27  1  0
  2 28  1  1
  3 29  1  0
  3 30  1  0
  4 31  1  0
  4 32  1  0
  8 33  1  0
  8 34  1  0
  9 35  1  0
 13 36  1  0
 14 37  1  0
 16 38  1  0
 19 39  1  0
 20 40  1  0
 23 41  1  1
 24 42  1  0
 24 43  1  0
 25 44  1  0
M  END
>  <smiles>  (46) 
N[C@@H]1CCN(C(=O)CNC(=O)c2ccc3cc(Cl)ccc3n2)[C@H]1CO

>  <score_type>  (46) 
oracle

>  <origin>  (46) 
autodockgpu

>  <m_score__min__energy>  (46) 
-7.3300000000000001

>  <m_primary>  (46) 
energy

>  <rmsd>  (46) 
2.8904749435604904

>  <m_score__min__rmsd>  (46) 
2.8904749435604904

>  <meeko>  (46) 
{"free_energy": -4.88, "intermolecular_energy": -6.97, "internal_energy": -3.9, "cluster_size": 10, "cluster_id": 3, "rank_in_cluster": 6}

>  <energy>  (46) 
-5.25

>  <cluster_rmsd>  (46) 
0.0

>  <cluster>  (46) 
8

$$$$

     RDKit          3D

 44 46  0  0  0  0  0  0  0  0999 V2000
  137.7900   71.8660  223.6660 N   0  0  0  0  0  0  0  0  0  0  0  0
  138.9840   71.0890  223.9740 C   0  0  2  0  0  0  0  0  0  0  0  0
  139.8020   71.0450  222.7050 C   0  0  0  0  0  0  0  0  0  0  0  0
  139.6060   69.6780  222.1210 C   0  0  0  0  0  0  0  0  0  0  0  0
  138.6510   69.0090  222.9900 N   0  0  0  0  0  0  0  0  0  0  0  0
  137.8910   67.8420  222.6450 C   0  0  0  0  0  0  0  0  0  0  0  0
  138.4440   66.6920  222.5970 O   0  0  0  0  0  0  0  0  0  0  0  0
  136.4360   67.9700  222.3400 C   0  0  0  0  0  0  0  0  0  0  0  0
  135.9660   69.1650  223.0120 N   0  0  0  0  0  0  0  0  0  0  0  0
  134.9940   69.1030  224.0550 C   0  0  0  0  0  0  0  0  0  0  0  0
  134.4970   67.9910  224.4430 O   0  0  0  0  0  0  0  0  0  0  0  0
  134.5580   70.3570  224.7010 C   0  0  0  0  0  0  0  0  0  0  0  0
  133.5720   70.3110  225.6630 C   0  0  0  0  0  0  0  0  0  0  0  0
  133.1600   71.4880  226.2720 C   0  0  0  0  0  0  0  0  0  0  0  0
  133.7740   72.6660  225.8680 C   0  0  0  0  0  0  0  0  0  0  0  0
  133.3690   73.8410  226.4700 C   0  0  0  0  0  0  0  0  0  0  0  0
  133.9840   75.0250  226.0670 C   0  0  0  0  0  0  0  0  0  0  0  0
  133.4640   76.5230  226.8360 Cl  0  0  0  0  0  0  0  0  0  0  0  0
  134.9710   75.0480  225.1000 C   0  0  0  0  0  0  0  0  0  0  0  0
  135.3690   73.8740  224.5060 C   0  0  0  0  0  0  0  0  0  0  0  0
  134.7570   72.7020  224.9070 C   0  0  0  0  0  0  0  0  0  0  0  0
  135.1220   71.5440  224.3500 N   0  0  0  0  0  0  0  0  0  0  0  0
  138.5670   69.6850  224.2690 C   0  0  1  0  0  0  0  0  0  0  0  0
  139.5180   68.9820  225.2140 C   0  0  0  0  0  0  0  0  0  0  0  0
  139.2340   67.6190  225.2080 O   0  0  0  0  0  0  0  0  0  0  0  0
  137.2290   72.0980  224.5180 H   0  0  0  0  0  0  0  0  0  0  0  0
  138.0150   72.7590  223.1730 H   0  0  0  0  0  0  0  0  0  0  0  0
  139.5364   71.5213  224.8213 H   0  0  0  0  0  0  0  0  0  0  0  0
  139.4519   71.8134  222.0001 H   0  0  0  0  0  0  0  0  0  0  0  0
  140.8647   71.2424  222.9090 H   0  0  0  0  0  0  0  0  0  0  0  0
  139.2071   69.7519  221.0985 H   0  0  0  0  0  0  0  0  0  0  0  0
  140.5545   69.1242  222.0596 H   0  0  0  0  0  0  0  0  0  0  0  0
  136.2842   68.0625  221.2545 H   0  0  0  0  0  0  0  0  0  0  0  0
  135.8833   67.0832  222.6836 H   0  0  0  0  0  0  0  0  0  0  0  0
  136.3240   70.1330  222.7570 H   0  0  0  0  0  0  0  0  0  0  0  0
  133.1160   69.3506  225.9453 H   0  0  0  0  0  0  0  0  0  0  0  0
  132.3773   71.4877  227.0449 H   0  0  0  0  0  0  0  0  0  0  0  0
  132.5862   73.8424  227.2428 H   0  0  0  0  0  0  0  0  0  0  0  0
  135.4358   76.0010  224.8071 H   0  0  0  0  0  0  0  0  0  0  0  0
  136.1522   73.8678  223.7336 H   0  0  0  0  0  0  0  0  0  0  0  0
  137.5724   69.6759  224.7387 H   0  0  0  0  0  0  0  0  0  0  0  0
  140.5545   69.1447  224.8835 H   0  0  0  0  0  0  0  0  0  0  0  0
  139.3975   69.3834  226.2310 H   0  0  0  0  0  0  0  0  0  0  0  0
  139.5380   67.1660  224.3860 H   0  0  0  0  0  0  0  0  0  0  0  0
  1  2  1  0
  2  3  1  0
  3  4  1  0
  4  5  1  0
  5  6  1  0
  6  7  2  0
  6  8  1  0
  8  9  1  0
  9 10  1  0
 10 11  2  0
 10 12  1  0
 12 13  2  0
 13 14  1  0
 14 15  2  0
 15 16  1  0
 16 17  2  0
 17 18  1  0
 17 19  1  0
 19 20  2  0
 20 21  1  0
 21 22  2  0
  5 23  1  0
 23 24  1  0
 24 25  1  0
 23  2  1  0
 22 12  1  0
 21 15  1  0
  1 26  1  0
  1 27  1  0
  2 28  1  1
  3 29  1  0
  3 30  1  0
  4 31  1  0
  4 32  1  0
  8 33  1  0
  8 34  1  0
  9 35  1  0
 13 36  1  0
 14 37  1  0
 16 38  1  0
 19 39  1  0
 20 40  1  0
 23 41  1  1
 24 42  1  0
 24 43  1  0
 25 44  1  0
M  END
>  <smiles>  (47) 
N[C@@H]1CCN(C(=O)CNC(=O)c2ccc3cc(Cl)ccc3n2)[C@H]1CO

>  <score_type>  (47) 
oracle

>  <origin>  (47) 
autodockgpu

>  <m_score__min__energy>  (47) 
-7.3300000000000001

>  <m_primary>  (47) 
energy

>  <rmsd>  (47) 
7.425995489260045

>  <m_score__min__rmsd>  (47) 
7.425995489260045

>  <meeko>  (47) 
{"free_energy": -5.25, "intermolecular_energy": -7.33, "internal_energy": -3.43, "cluster_size": 1, "cluster_id": 8, "rank_in_cluster": 1}

>  <energy>  (47) 
-4.93

>  <cluster_rmsd>  (47) 
0.0

>  <cluster>  (47) 
9

$$$$

     RDKit          3D

 44 46  0  0  0  0  0  0  0  0999 V2000
  140.3430   72.9360  222.9460 N   0  0  0  0  0  0  0  0  0  0  0  0
  140.7810   73.2220  221.5860 C   0  0  2  0  0  0  0  0  0  0  0  0
  141.1020   74.6970  221.5430 C   0  0  0  0  0  0  0  0  0  0  0  0
  139.9560   75.3600  220.8390 C   0  0  0  0  0  0  0  0  0  0  0  0
  138.9940   74.3050  220.5670 N   0  0  0  0  0  0  0  0  0  0  0  0
  137.6110   74.5060  220.2430 C   0  0  0  0  0  0  0  0  0  0  0  0
  137.2650   74.9610  219.1010 O   0  0  0  0  0  0  0  0  0  0  0  0
  136.5590   74.1790  221.2510 C   0  0  0  0  0  0  0  0  0  0  0  0
  137.1630   73.2810  222.2160 N   0  0  0  0  0  0  0  0  0  0  0  0
  136.6400   71.9730  222.4490 C   0  0  0  0  0  0  0  0  0  0  0  0
  135.6170   71.5380  221.8170 O   0  0  0  0  0  0  0  0  0  0  0  0
  137.3010   71.1070  223.4440 C   0  0  0  0  0  0  0  0  0  0  0  0
  136.7390   69.8860  223.7520 C   0  0  0  0  0  0  0  0  0  0  0  0
  137.3580   69.0690  224.6870 C   0  0  0  0  0  0  0  0  0  0  0  0
  138.5290   69.5370  225.2700 C   0  0  0  0  0  0  0  0  0  0  0  0
  139.1510   68.7280  226.2010 C   0  0  0  0  0  0  0  0  0  0  0  0
  140.3260   69.1950  226.7870 C   0  0  0  0  0  0  0  0  0  0  0  0
  141.1170   68.1610  227.9760 Cl  0  0  0  0  0  0  0  0  0  0  0  0
  140.8720   70.4220  226.4630 C   0  0  0  0  0  0  0  0  0  0  0  0
  140.2470   71.2200  225.5340 C   0  0  0  0  0  0  0  0  0  0  0  0
  139.0820   70.7560  224.9560 C   0  0  0  0  0  0  0  0  0  0  0  0
  138.4510   71.5070  224.0500 N   0  0  0  0  0  0  0  0  0  0  0  0
  139.6240   73.0040  220.6650 C   0  0  1  0  0  0  0  0  0  0  0  0
  140.0580   72.6050  219.2710 C   0  0  0  0  0  0  0  0  0  0  0  0
  138.9310   72.5190  218.4570 O   0  0  0  0  0  0  0  0  0  0  0  0
  139.3690   73.2670  223.1340 H   0  0  0  0  0  0  0  0  0  0  0  0
  140.3870   71.9160  223.1700 H   0  0  0  0  0  0  0  0  0  0  0  0
  141.6363   72.5924  221.2995 H   0  0  0  0  0  0  0  0  0  0  0  0
  141.2024   75.0943  222.5638 H   0  0  0  0  0  0  0  0  0  0  0  0
  142.0520   74.8830  221.0206 H   0  0  0  0  0  0  0  0  0  0  0  0
  139.5067   76.1316  221.4814 H   0  0  0  0  0  0  0  0  0  0  0  0
  140.2827   75.8580  219.9142 H   0  0  0  0  0  0  0  0  0  0  0  0
  136.2166   75.0968  221.7514 H   0  0  0  0  0  0  0  0  0  0  0  0
  135.6866   73.7114  220.7712 H   0  0  0  0  0  0  0  0  0  0  0  0
  138.0160   73.5570  222.7860 H   0  0  0  0  0  0  0  0  0  0  0  0
  135.8091   69.5630  223.2612 H   0  0  0  0  0  0  0  0  0  0  0  0
  136.9379   68.0887  224.9563 H   0  0  0  0  0  0  0  0  0  0  0  0
  138.7325   67.7472  226.4710 H   0  0  0  0  0  0  0  0  0  0  0  0
  141.8014   70.7586  226.9455 H   0  0  0  0  0  0  0  0  0  0  0  0
  140.6633   72.2003  225.2590 H   0  0  0  0  0  0  0  0  0  0  0  0
  138.9789   72.2000  221.0489 H   0  0  0  0  0  0  0  0  0  0  0  0
  140.7481   73.3610  218.8682 H   0  0  0  0  0  0  0  0  0  0  0  0
  140.5706   71.6323  219.3034 H   0  0  0  0  0  0  0  0  0  0  0  0
  138.5020   73.3940  218.3000 H   0  0  0  0  0  0  0  0  0  0  0  0
  1  2  1  0
  2  3  1  0
  3  4  1  0
  4  5  1  0
  5  6  1  0
  6  7  2  0
  6  8  1  0
  8  9  1  0
  9 10  1  0
 10 11  2  0
 10 12  1  0
 12 13  2  0
 13 14  1  0
 14 15  2  0
 15 16  1  0
 16 17  2  0
 17 18  1  0
 17 19  1  0
 19 20  2  0
 20 21  1  0
 21 22  2  0
  5 23  1  0
 23 24  1  0
 24 25  1  0
 23  2  1  0
 22 12  1  0
 21 15  1  0
  1 26  1  0
  1 27  1  0
  2 28  1  6
  3 29  1  0
  3 30  1  0
  4 31  1  0
  4 32  1  0
  8 33  1  0
  8 34  1  0
  9 35  1  0
 13 36  1  0
 14 37  1  0
 16 38  1  0
 19 39  1  0
 20 40  1  0
 23 41  1  1
 24 42  1  0
 24 43  1  0
 25 44  1  0
M  END
>  <smiles>  (48) 
N[C@@H]1CCN(C(=O)CNC(=O)c2ccc3cc(Cl)ccc3n2)[C@H]1CO

>  <score_type>  (48) 
oracle

>  <origin>  (48) 
autodockgpu

>  <m_score__min__energy>  (48) 
-7.3300000000000001

>  <m_primary>  (48) 
energy

>  <rmsd>  (48) 
3.2233772682764266

>  <m_score__min__rmsd>  (48) 
3.2233772682764266

>  <meeko>  (48) 
{"free_energy": -4.76, "intermolecular_energy": -6.85, "internal_energy": -3.95, "cluster_size": 10, "cluster_id": 3, "rank_in_cluster": 8}

>  <energy>  (48) 
-4.72

>  <cluster_rmsd>  (48) 
0.56

>  <cluster>  (48) 
9

$$$$

     RDKit          3D

 44 46  0  0  0  0  0  0  0  0999 V2000
  142.5870   75.5070  220.4520 N   0  0  0  0  0  0  0  0  0  0  0  0
  143.8740   75.0540  219.9390 C   0  0  2  0  0  0  0  0  0  0  0  0
  143.6710   74.7760  218.4680 C   0  0  0  0  0  0  0  0  0  0  0  0
  143.5920   73.2850  218.3250 C   0  0  0  0  0  0  0  0  0  0  0  0
  143.6690   72.7530  219.6750 N   0  0  0  0  0  0  0  0  0  0  0  0
  143.2770   71.4310  220.0700 C   0  0  0  0  0  0  0  0  0  0  0  0
  144.0530   70.4330  219.8780 O   0  0  0  0  0  0  0  0  0  0  0  0
  141.9480   71.2130  220.7140 C   0  0  0  0  0  0  0  0  0  0  0  0
  141.4300   72.5200  221.0660 N   0  0  0  0  0  0  0  0  0  0  0  0
  140.0660   72.7070  221.4430 C   0  0  0  0  0  0  0  0  0  0  0  0
  139.2430   71.7300  221.4880 O   0  0  0  0  0  0  0  0  0  0  0  0
  139.6010   74.0640  221.7910 C   0  0  0  0  0  0  0  0  0  0  0  0
  138.2490   74.2970  221.9270 C   0  0  0  0  0  0  0  0  0  0  0  0
  137.8080   75.5710  222.2540 C   0  0  0  0  0  0  0  0  0  0  0  0
  138.7710   76.5560  222.4270 C   0  0  0  0  0  0  0  0  0  0  0  0
  138.3380   77.8280  222.7530 C   0  0  0  0  0  0  0  0  0  0  0  0
  139.3040   78.8180  222.9280 C   0  0  0  0  0  0  0  0  0  0  0  0
  138.7490   80.4390  223.3430 Cl  0  0  0  0  0  0  0  0  0  0  0  0
  140.6540   78.5620  222.7870 C   0  0  0  0  0  0  0  0  0  0  0  0
  141.0750   77.2940  222.4630 C   0  0  0  0  0  0  0  0  0  0  0  0
  140.1170   76.3140  222.2900 C   0  0  0  0  0  0  0  0  0  0  0  0
  140.4950   75.0720  221.9750 N   0  0  0  0  0  0  0  0  0  0  0  0
  144.2030   73.7480  220.5850 C   0  0  1  0  0  0  0  0  0  0  0  0
  145.6940   73.5100  220.6900 C   0  0  0  0  0  0  0  0  0  0  0  0
  146.0190   72.3660  219.9660 O   0  0  0  0  0  0  0  0  0  0  0  0
  141.8000   74.8750  220.1790 H   0  0  0  0  0  0  0  0  0  0  0  0
  142.5850   75.5960  221.4930 H   0  0  0  0  0  0  0  0  0  0  0  0
  144.6645   75.7955  220.1267 H   0  0  0  0  0  0  0  0  0  0  0  0
  142.7378   75.2416  218.1182 H   0  0  0  0  0  0  0  0  0  0  0  0
  144.4935   75.1909  217.8669 H   0  0  0  0  0  0  0  0  0  0  0  0
  142.6417   72.9953  217.8528 H   0  0  0  0  0  0  0  0  0  0  0  0
  144.4013   72.8958  217.6898 H   0  0  0  0  0  0  0  0  0  0  0  0
  141.2652   70.7123  220.0118 H   0  0  0  0  0  0  0  0  0  0  0  0
  142.0427   70.5746  221.6048 H   0  0  0  0  0  0  0  0  0  0  0  0
  142.0410   73.3900  221.0580 H   0  0  0  0  0  0  0  0  0  0  0  0
  137.5270   73.4807  221.7777 H   0  0  0  0  0  0  0  0  0  0  0  0
  136.7369   75.7922  222.3716 H   0  0  0  0  0  0  0  0  0  0  0  0
  137.2673   78.0514  222.8704 H   0  0  0  0  0  0  0  0  0  0  0  0
  141.3881   79.3681  222.9331 H   0  0  0  0  0  0  0  0  0  0  0  0
  142.1447   77.0662  222.3448 H   0  0  0  0  0  0  0  0  0  0  0  0
  143.7943   73.7161  221.6058 H   0  0  0  0  0  0  0  0  0  0  0  0
  146.2360   74.3742  220.2783 H   0  0  0  0  0  0  0  0  0  0  0  0
  145.9774   73.3774  221.7446 H   0  0  0  0  0  0  0  0  0  0  0  0
  145.8220   71.5310  220.4550 H   0  0  0  0  0  0  0  0  0  0  0  0
  1  2  1  0
  2  3  1  0
  3  4  1  0
  4  5  1  0
  5  6  1  0
  6  7  2  0
  6  8  1  0
  8  9  1  0
  9 10  1  0
 10 11  2  0
 10 12  1  0
 12 13  2  0
 13 14  1  0
 14 15  2  0
 15 16  1  0
 16 17  2  0
 17 18  1  0
 17 19  1  0
 19 20  2  0
 20 21  1  0
 21 22  2  0
  5 23  1  0
 23 24  1  0
 24 25  1  0
 23  2  1  0
 22 12  1  0
 21 15  1  0
  1 26  1  0
  1 27  1  0
  2 28  1  6
  3 29  1  0
  3 30  1  0
  4 31  1  0
  4 32  1  0
  8 33  1  0
  8 34  1  0
  9 35  1  0
 13 36  1  0
 14 37  1  0
 16 38  1  0
 19 39  1  0
 20 40  1  0
 23 41  1  1
 24 42  1  0
 24 43  1  0
 25 44  1  0
M  END
>  <smiles>  (49) 
N[C@@H]1CCN(C(=O)CNC(=O)c2ccc3cc(Cl)ccc3n2)[C@H]1CO

>  <score_type>  (49) 
oracle

>  <origin>  (49) 
autodockgpu

>  <m_score__min__energy>  (49) 
-7.3300000000000001

>  <m_primary>  (49) 
energy

>  <rmsd>  (49) 
6.218677130277839

>  <m_score__min__rmsd>  (49) 
6.218677130277839

>  <meeko>  (49) 
{"free_energy": -5.62, "intermolecular_energy": -7.7, "internal_energy": -3.96, "cluster_size": 14, "cluster_id": 4, "rank_in_cluster": 4}

>  <energy>  (49) 
-4.7

>  <cluster_rmsd>  (49) 
0.34

>  <cluster>  (49) 
9

$$$$

     RDKit          3D

 44 46  0  0  0  0  0  0  0  0999 V2000
  142.6000   75.6150  220.4360 N   0  0  0  0  0  0  0  0  0  0  0  0
  143.8790   75.1860  219.8850 C   0  0  2  0  0  0  0  0  0  0  0  0
  143.6310   74.8800  218.4260 C   0  0  0  0  0  0  0  0  0  0  0  0
  143.5850   73.3860  218.3090 C   0  0  0  0  0  0  0  0  0  0  0  0
  143.7230   72.8770  219.6630 N   0  0  0  0  0  0  0  0  0  0  0  0
  143.3780   71.5510  220.0900 C   0  0  0  0  0  0  0  0  0  0  0  0
  144.1840   70.5760  219.9140 O   0  0  0  0  0  0  0  0  0  0  0  0
  142.0620   71.3050  220.7520 C   0  0  0  0  0  0  0  0  0  0  0  0
  141.5240   72.6000  221.1190 N   0  0  0  0  0  0  0  0  0  0  0  0
  140.1360   72.7820  221.3960 C   0  0  0  0  0  0  0  0  0  0  0  0
  139.3070   71.8110  221.3330 O   0  0  0  0  0  0  0  0  0  0  0  0
  139.6520   74.1260  221.7650 C   0  0  0  0  0  0  0  0  0  0  0  0
  138.2960   74.3400  221.8960 C   0  0  0  0  0  0  0  0  0  0  0  0
  137.8370   75.6030  222.2430 C   0  0  0  0  0  0  0  0  0  0  0  0
  138.7870   76.5960  222.4410 C   0  0  0  0  0  0  0  0  0  0  0  0
  138.3370   77.8560  222.7880 C   0  0  0  0  0  0  0  0  0  0  0  0
  139.2880   78.8550  222.9880 C   0  0  0  0  0  0  0  0  0  0  0  0
  138.7110   80.4610  223.4280 Cl  0  0  0  0  0  0  0  0  0  0  0  0
  140.6430   78.6180  222.8510 C   0  0  0  0  0  0  0  0  0  0  0  0
  141.0820   77.3610  222.5070 C   0  0  0  0  0  0  0  0  0  0  0  0
  140.1370   76.3730  222.3090 C   0  0  0  0  0  0  0  0  0  0  0  0
  140.5320   75.1420  221.9740 N   0  0  0  0  0  0  0  0  0  0  0  0
  144.2630   73.8980  220.5380 C   0  0  1  0  0  0  0  0  0  0  0  0
  145.7620   73.6990  220.5930 C   0  0  0  0  0  0  0  0  0  0  0  0
  146.0810   72.5030  219.9540 O   0  0  0  0  0  0  0  0  0  0  0  0
  141.8050   75.0090  220.1290 H   0  0  0  0  0  0  0  0  0  0  0  0
  142.6060   75.6340  221.4810 H   0  0  0  0  0  0  0  0  0  0  0  0
  144.6569   75.9493  220.0340 H   0  0  0  0  0  0  0  0  0  0  0  0
  142.6744   75.3166  218.1029 H   0  0  0  0  0  0  0  0  0  0  0  0
  144.4205   75.3059  217.7893 H   0  0  0  0  0  0  0  0  0  0  0  0
  142.6263   73.0653  217.8754 H   0  0  0  0  0  0  0  0  0  0  0  0
  144.3815   73.0073  217.6516 H   0  0  0  0  0  0  0  0  0  0  0  0
  141.3788   70.7953  220.0568 H   0  0  0  0  0  0  0  0  0  0  0  0
  142.1818   70.6641  221.6379 H   0  0  0  0  0  0  0  0  0  0  0  0
  142.1390   73.4640  221.1970 H   0  0  0  0  0  0  0  0  0  0  0  0
  137.5851   73.5177  221.7271 H   0  0  0  0  0  0  0  0  0  0  0  0
  136.7625   75.8092  222.3567 H   0  0  0  0  0  0  0  0  0  0  0  0
  137.2629   78.0636  222.9026 H   0  0  0  0  0  0  0  0  0  0  0  0
  141.3660   79.4304  223.0162 H   0  0  0  0  0  0  0  0  0  0  0  0
  142.1552   77.1483  222.3927 H   0  0  0  0  0  0  0  0  0  0  0  0
  143.8911   73.8714  221.5729 H   0  0  0  0  0  0  0  0  0  0  0  0
  146.2646   74.5350  220.0846 H   0  0  0  0  0  0  0  0  0  0  0  0
  146.0955   73.6629  221.6406 H   0  0  0  0  0  0  0  0  0  0  0  0
  145.9200   71.7100  220.5190 H   0  0  0  0  0  0  0  0  0  0  0  0
  1  2  1  0
  2  3  1  0
  3  4  1  0
  4  5  1  0
  5  6  1  0
  6  7  2  0
  6  8  1  0
  8  9  1  0
  9 10  1  0
 10 11  2  0
 10 12  1  0
 12 13  2  0
 13 14  1  0
 14 15  2  0
 15 16  1  0
 16 17  2  0
 17 18  1  0
 17 19  1  0
 19 20  2  0
 20 21  1  0
 21 22  2  0
  5 23  1  0
 23 24  1  0
 24 25  1  0
 23  2  1  0
 22 12  1  0
 21 15  1  0
  1 26  1  0
  1 27  1  0
  2 28  1  6
  3 29  1  0
  3 30  1  0
  4 31  1  0
  4 32  1  0
  8 33  1  0
  8 34  1  0
  9 35  1  0
 13 36  1  0
 14 37  1  0
 16 38  1  0
 19 39  1  0
 20 40  1  0
 23 41  1  1
 24 42  1  0
 24 43  1  0
 25 44  1  0
M  END
>  <smiles>  (50) 
N[C@@H]1CCN(C(=O)CNC(=O)c2ccc3cc(Cl)ccc3n2)[C@H]1CO

>  <score_type>  (50) 
oracle

>  <origin>  (50) 
autodockgpu

>  <m_score__min__energy>  (50) 
-7.3300000000000001

>  <m_primary>  (50) 
energy

>  <rmsd>  (50) 
6.213225774813152

>  <m_score__min__rmsd>  (50) 
6.213225774813152

>  <meeko>  (50) 
{"free_energy": -5.64, "intermolecular_energy": -7.73, "internal_energy": -3.9, "cluster_size": 14, "cluster_id": 4, "rank_in_cluster": 2}

>  <energy>  (50) 
-4.49

>  <cluster_rmsd>  (50) 
0.0

>  <cluster>  (50) 
10

$$$$
