
     RDKit          3D

 55 58  0  0  0  0  0  0  0  0999 V2000
  138.1490   71.3860  220.7160 O   0  0  0  0  0  0  0  0  0  0  0  0
  138.5020   71.8430  221.8260 C   0  0  0  0  0  0  0  0  0  0  0  0
  138.5400   73.3000  221.8970 N   0  0  0  0  0  0  0  0  0  0  0  0
  138.1750   73.9700  220.6870 C   0  0  0  0  0  0  0  0  0  0  0  0
  139.2570   74.1070  219.7210 C   0  0  0  0  0  0  0  0  0  0  0  0
  138.9180   74.8040  218.6730 O   0  0  0  0  0  0  0  0  0  0  0  0
  140.5710   73.6390  219.7160 N   0  0  0  0  0  0  0  0  0  0  0  0
  141.3640   73.1960  218.5970 C   0  0  0  0  0  0  0  0  0  0  0  0
  142.6490   73.9790  218.5610 C   0  0  0  0  0  0  0  0  0  0  0  0
  143.4850   73.6090  219.7770 C   0  0  0  0  0  0  0  0  0  0  0  0
  142.6220   72.9530  220.8380 C   0  0  0  0  0  0  0  0  0  0  0  0
  141.2860   73.6020  221.0160 C   0  0  1  0  0  0  0  0  0  0  0  0
  141.4310   75.0160  221.5500 C   0  0  0  0  0  0  0  0  0  0  0  0
  140.2290   75.3220  222.2590 O   0  0  0  0  0  0  0  0  0  0  0  0
  139.9790   76.6490  222.5440 C   0  0  0  0  0  0  0  0  0  0  0  0
  141.0620   77.4820  222.7220 C   0  0  0  0  0  0  0  0  0  0  0  0
  140.9020   78.8300  223.0110 C   0  0  0  0  0  0  0  0  0  0  0  0
  139.6260   79.3400  223.1200 C   0  0  0  0  0  0  0  0  0  0  0  0
  138.5200   78.5350  222.9470 C   0  0  0  0  0  0  0  0  0  0  0  0
  138.7220   77.1900  222.6590 C   0  0  0  0  0  0  0  0  0  0  0  0
  138.8560   71.0280  222.9780 C   0  0  0  0  0  0  0  0  0  0  0  0
  138.4200   69.7300  222.9970 C   0  0  0  0  0  0  0  0  0  0  0  0
  138.7690   68.9630  224.1110 C   0  0  0  0  0  0  0  0  0  0  0  0
  139.5190   69.4880  225.1470 C   0  0  0  0  0  0  0  0  0  0  0  0
  139.8840   68.7680  226.2590 C   0  0  0  0  0  0  0  0  0  0  0  0
  140.6440   69.3570  227.2750 C   0  0  0  0  0  0  0  0  0  0  0  0
  141.1200   68.4630  228.6990 Cl  0  0  0  0  0  0  0  0  0  0  0  0
  141.0340   70.6930  227.1480 C   0  0  0  0  0  0  0  0  0  0  0  0
  140.6700   71.4260  226.0280 C   0  0  0  0  0  0  0  0  0  0  0  0
  139.9200   70.8230  225.0410 C   0  0  0  0  0  0  0  0  0  0  0  0
  139.5800   71.5500  223.9680 N   0  0  0  0  0  0  0  0  0  0  0  0
  138.8180   73.7620  222.7890 H   0  0  0  0  0  0  0  0  0  0  0  0
  137.3609   73.4026  220.2125 H   0  0  0  0  0  0  0  0  0  0  0  0
  137.8796   74.9906  220.9719 H   0  0  0  0  0  0  0  0  0  0  0  0
  141.5887   72.1248  218.7063 H   0  0  0  0  0  0  0  0  0  0  0  0
  140.8068   73.3565  217.6622 H   0  0  0  0  0  0  0  0  0  0  0  0
  143.2042   73.7356  217.6431 H   0  0  0  0  0  0  0  0  0  0  0  0
  142.4295   75.0568  218.5733 H   0  0  0  0  0  0  0  0  0  0  0  0
  144.2772   72.9095  219.4719 H   0  0  0  0  0  0  0  0  0  0  0  0
  143.9271   74.5251  220.1957 H   0  0  0  0  0  0  0  0  0  0  0  0
  142.4621   71.9024  220.5541 H   0  0  0  0  0  0  0  0  0  0  0  0
  143.1571   73.0542  221.7937 H   0  0  0  0  0  0  0  0  0  0  0  0
  140.7120   73.0105  221.7445 H   0  0  0  0  0  0  0  0  0  0  0  0
  142.2950   75.0766  222.2281 H   0  0  0  0  0  0  0  0  0  0  0  0
  141.5943   75.7299  220.7292 H   0  0  0  0  0  0  0  0  0  0  0  0
  142.0776   77.0688  222.6329 H   0  0  0  0  0  0  0  0  0  0  0  0
  141.7782   79.4802  223.1507 H   0  0  0  0  0  0  0  0  0  0  0  0
  139.4878   80.4070  223.3488 H   0  0  0  0  0  0  0  0  0  0  0  0
  137.5037   78.9465  223.0347 H   0  0  0  0  0  0  0  0  0  0  0  0
  137.8470   76.5383  222.5187 H   0  0  0  0  0  0  0  0  0  0  0  0
  137.8229   69.3110  222.1736 H   0  0  0  0  0  0  0  0  0  0  0  0
  138.4389   67.9151  224.1653 H   0  0  0  0  0  0  0  0  0  0  0  0
  139.5750   67.7163  226.3513 H   0  0  0  0  0  0  0  0  0  0  0  0
  141.6328   71.1658  227.9404 H   0  0  0  0  0  0  0  0  0  0  0  0
  140.9767   72.4777  225.9285 H   0  0  0  0  0  0  0  0  0  0  0  0
  1  2  2  0
  2  3  1  0
  3  4  1  0
  4  5  1  0
  5  6  2  0
  5  7  1  0
  7  8  1  0
  8  9  1  0
  9 10  1  0
 10 11  1  0
 11 12  1  0
 12 13  1  0
 13 14  1  0
 14 15  1  0
 15 16  2  0
 16 17  1  0
 17 18  2  0
 18 19  1  0
 19 20  2  0
  2 21  1  0
 21 22  2  0
 22 23  1  0
 23 24  2  0
 24 25  1  0
 25 26  2  0
 26 27  1  0
 26 28  1  0
 28 29  2  0
 29 30  1  0
 30 31  2  0
 12  7  1  0
 20 15  1  0
 31 21  1  0
 30 24  1  0
  3 32  1  0
  4 33  1  0
  4 34  1  0
  8 35  1  0
  8 36  1  0
  9 37  1  0
  9 38  1  0
 10 39  1  0
 10 40  1  0
 11 41  1  0
 11 42  1  0
 12 43  1  1
 13 44  1  0
 13 45  1  0
 16 46  1  0
 17 47  1  0
 18 48  1  0
 19 49  1  0
 20 50  1  0
 22 51  1  0
 23 52  1  0
 25 53  1  0
 28 54  1  0
 29 55  1  0
M  END
>  <smiles>  (1) 
O=C(NCC(=O)N1CCCC[C@H]1COc1ccccc1)c1ccc2cc(Cl)ccc2n1

>  <score_type>  (1) 
oracle

>  <origin>  (1) 
autodockgpu

>  <m_score__min__energy>  (1) 
-8.5800000000000001

>  <m_primary>  (1) 
energy

>  <rmsd>  (1) 
2.3216780167248117

>  <m_score__min__rmsd>  (1) 
2.3216780167248117

>  <meeko>  (1) 
{"free_energy": -7.36, "intermolecular_energy": -9.45, "internal_energy": -2.79, "cluster_size": 17, "cluster_id": 1, "rank_in_cluster": 15}

>  <energy>  (1) 
-8.58

>  <cluster_rmsd>  (1) 
0.0

>  <cluster>  (1) 
1

$$$$

     RDKit          3D

 55 58  0  0  0  0  0  0  0  0999 V2000
  132.7300   69.7040  226.5060 O   0  0  0  0  0  0  0  0  0  0  0  0
  133.3380   70.7700  226.2660 C   0  0  0  0  0  0  0  0  0  0  0  0
  134.6040   70.5980  225.5590 N   0  0  0  0  0  0  0  0  0  0  0  0
  134.9470   69.2420  225.2620 C   0  0  0  0  0  0  0  0  0  0  0  0
  135.5650   69.0460  223.9580 C   0  0  0  0  0  0  0  0  0  0  0  0
  135.0410   68.0570  223.2900 O   0  0  0  0  0  0  0  0  0  0  0  0
  136.5980   69.7170  223.3020 N   0  0  0  0  0  0  0  0  0  0  0  0
  136.5280   70.9160  222.5050 C   0  0  0  0  0  0  0  0  0  0  0  0
  137.4970   71.9290  223.0510 C   0  0  0  0  0  0  0  0  0  0  0  0
  138.9150   71.4210  222.8330 C   0  0  0  0  0  0  0  0  0  0  0  0
  138.9120   69.9280  222.5700 C   0  0  0  0  0  0  0  0  0  0  0  0
  137.9670   69.1630  223.4430 C   0  0  1  0  0  0  0  0  0  0  0  0
  138.3900   69.2310  224.8990 C   0  0  0  0  0  0  0  0  0  0  0  0
  139.7850   69.5410  224.9160 O   0  0  0  0  0  0  0  0  0  0  0  0
  140.2500   70.3280  225.9510 C   0  0  0  0  0  0  0  0  0  0  0  0
  139.9730   69.9230  227.2390 C   0  0  0  0  0  0  0  0  0  0  0  0
  140.4010   70.6530  228.3380 C   0  0  0  0  0  0  0  0  0  0  0  0
  141.1220   71.8100  228.1280 C   0  0  0  0  0  0  0  0  0  0  0  0
  141.4180   72.2430  226.8530 C   0  0  0  0  0  0  0  0  0  0  0  0
  140.9700   71.4840  225.7780 C   0  0  0  0  0  0  0  0  0  0  0  0
  132.8640   72.0930  226.6410 C   0  0  0  0  0  0  0  0  0  0  0  0
  131.6370   72.1800  227.2450 C   0  0  0  0  0  0  0  0  0  0  0  0
  131.1980   73.4590  227.5980 C   0  0  0  0  0  0  0  0  0  0  0  0
  131.9640   74.5840  227.3500 C   0  0  0  0  0  0  0  0  0  0  0  0
  131.5700   75.8570  227.6820 C   0  0  0  0  0  0  0  0  0  0  0  0
  132.3900   76.9550  227.4050 C   0  0  0  0  0  0  0  0  0  0  0  0
  131.9100   78.5850  227.8160 Cl  0  0  0  0  0  0  0  0  0  0  0  0
  133.6250   76.7450  226.7840 C   0  0  0  0  0  0  0  0  0  0  0  0
  134.0300   75.4620  226.4470 C   0  0  0  0  0  0  0  0  0  0  0  0
  133.2020   74.3960  226.7300 C   0  0  0  0  0  0  0  0  0  0  0  0
  133.6150   73.1650  226.3960 N   0  0  0  0  0  0  0  0  0  0  0  0
  135.1710   71.4370  225.3150 H   0  0  0  0  0  0  0  0  0  0  0  0
  135.6495   68.8891  226.0314 H   0  0  0  0  0  0  0  0  0  0  0  0
  134.0034   68.6769  225.2485 H   0  0  0  0  0  0  0  0  0  0  0  0
  136.7895   70.6810  221.4627 H   0  0  0  0  0  0  0  0  0  0  0  0
  135.5072   71.3243  222.5398 H   0  0  0  0  0  0  0  0  0  0  0  0
  137.3634   72.8874  222.5278 H   0  0  0  0  0  0  0  0  0  0  0  0
  137.3151   72.0778  224.1256 H   0  0  0  0  0  0  0  0  0  0  0  0
  139.3560   71.9395  221.9689 H   0  0  0  0  0  0  0  0  0  0  0  0
  139.5065   71.6205  223.7387 H   0  0  0  0  0  0  0  0  0  0  0  0
  138.6271   69.7612  221.5207 H   0  0  0  0  0  0  0  0  0  0  0  0
  139.9243   69.5610  222.7947 H   0  0  0  0  0  0  0  0  0  0  0  0
  137.9814   68.1102  223.1246 H   0  0  0  0  0  0  0  0  0  0  0  0
  137.8225   70.0157  225.4208 H   0  0  0  0  0  0  0  0  0  0  0  0
  138.1943   68.2763  225.4091 H   0  0  0  0  0  0  0  0  0  0  0  0
  139.3987   68.9986  227.3992 H   0  0  0  0  0  0  0  0  0  0  0  0
  140.1695   70.3152  229.3589 H   0  0  0  0  0  0  0  0  0  0  0  0
  141.4665   72.3970  228.9922 H   0  0  0  0  0  0  0  0  0  0  0  0
  141.9942   73.1658  226.6905 H   0  0  0  0  0  0  0  0  0  0  0  0
  141.1997   71.8204  224.7562 H   0  0  0  0  0  0  0  0  0  0  0  0
  131.0270   71.2862  227.4425 H   0  0  0  0  0  0  0  0  0  0  0  0
  130.2186   73.5741  228.0854 H   0  0  0  0  0  0  0  0  0  0  0  0
  130.5977   76.0147  228.1717 H   0  0  0  0  0  0  0  0  0  0  0  0
  134.2785   77.6014  226.5616 H   0  0  0  0  0  0  0  0  0  0  0  0
  135.0018   75.2964  225.9590 H   0  0  0  0  0  0  0  0  0  0  0  0
  1  2  2  0
  2  3  1  0
  3  4  1  0
  4  5  1  0
  5  6  2  0
  5  7  1  0
  7  8  1  0
  8  9  1  0
  9 10  1  0
 10 11  1  0
 11 12  1  0
 12 13  1  0
 13 14  1  0
 14 15  1  0
 15 16  2  0
 16 17  1  0
 17 18  2  0
 18 19  1  0
 19 20  2  0
  2 21  1  0
 21 22  2  0
 22 23  1  0
 23 24  2  0
 24 25  1  0
 25 26  2  0
 26 27  1  0
 26 28  1  0
 28 29  2  0
 29 30  1  0
 30 31  2  0
 12  7  1  0
 20 15  1  0
 31 21  1  0
 30 24  1  0
  3 32  1  0
  4 33  1  0
  4 34  1  0
  8 35  1  0
  8 36  1  0
  9 37  1  0
  9 38  1  0
 10 39  1  0
 10 40  1  0
 11 41  1  0
 11 42  1  0
 12 43  1  6
 13 44  1  0
 13 45  1  0
 16 46  1  0
 17 47  1  0
 18 48  1  0
 19 49  1  0
 20 50  1  0
 22 51  1  0
 23 52  1  0
 25 53  1  0
 28 54  1  0
 29 55  1  0
M  END
>  <smiles>  (2) 
O=C(NCC(=O)N1CCCC[C@H]1COc1ccccc1)c1ccc2cc(Cl)ccc2n1

>  <score_type>  (2) 
oracle

>  <origin>  (2) 
autodockgpu

>  <m_score__min__energy>  (2) 
-8.5800000000000001

>  <m_primary>  (2) 
energy

>  <rmsd>  (2) 
8.622883584202638

>  <m_score__min__rmsd>  (2) 
8.622883584202638

>  <meeko>  (2) 
{"free_energy": -8.42, "intermolecular_energy": -10.51, "internal_energy": -1.77, "cluster_size": 8, "cluster_id": 4, "rank_in_cluster": 1}

>  <energy>  (2) 
-8.39

>  <cluster_rmsd>  (2) 
0.93

>  <cluster>  (2) 
1

$$$$

     RDKit          3D

 55 58  0  0  0  0  0  0  0  0999 V2000
  138.9860   73.3380  221.4140 O   0  0  0  0  0  0  0  0  0  0  0  0
  140.0050   72.9580  222.0320 C   0  0  0  0  0  0  0  0  0  0  0  0
  141.2440   73.6040  221.6100 N   0  0  0  0  0  0  0  0  0  0  0  0
  141.0950   74.5590  220.5550 C   0  0  0  0  0  0  0  0  0  0  0  0
  142.3280   75.2330  220.1700 C   0  0  0  0  0  0  0  0  0  0  0  0
  143.3750   74.7690  220.7910 O   0  0  0  0  0  0  0  0  0  0  0  0
  142.5880   76.2640  219.2680 N   0  0  0  0  0  0  0  0  0  0  0  0
  143.2910   76.2050  218.0110 C   0  0  0  0  0  0  0  0  0  0  0  0
  142.4090   76.7590  216.9250 C   0  0  0  0  0  0  0  0  0  0  0  0
  142.2070   78.2470  217.1660 C   0  0  0  0  0  0  0  0  0  0  0  0
  142.5510   78.6070  218.5990 C   0  0  0  0  0  0  0  0  0  0  0  0
  142.0640   77.6110  219.6040 C   0  0  1  0  0  0  0  0  0  0  0  0
  140.5470   77.5670  219.6400 C   0  0  0  0  0  0  0  0  0  0  0  0
  140.1560   77.6960  221.0080 O   0  0  0  0  0  0  0  0  0  0  0  0
  140.8530   78.5990  221.7860 C   0  0  0  0  0  0  0  0  0  0  0  0
  140.9330   79.9010  221.3410 C   0  0  0  0  0  0  0  0  0  0  0  0
  141.6140   80.8730  222.0610 C   0  0  0  0  0  0  0  0  0  0  0  0
  142.2200   80.5210  223.2480 C   0  0  0  0  0  0  0  0  0  0  0  0
  142.1580   79.2270  223.7230 C   0  0  0  0  0  0  0  0  0  0  0  0
  141.4670   78.2820  222.9730 C   0  0  0  0  0  0  0  0  0  0  0  0
  140.0050   71.9590  223.0890 C   0  0  0  0  0  0  0  0  0  0  0  0
  139.4750   70.7290  222.8010 C   0  0  0  0  0  0  0  0  0  0  0  0
  139.4830   69.7830  223.8290 C   0  0  0  0  0  0  0  0  0  0  0  0
  140.0000   70.0730  225.0790 C   0  0  0  0  0  0  0  0  0  0  0  0
  140.0270   69.1710  226.1160 C   0  0  0  0  0  0  0  0  0  0  0  0
  140.5640   69.5250  227.3570 C   0  0  0  0  0  0  0  0  0  0  0  0
  140.6090   68.3970  228.6910 Cl  0  0  0  0  0  0  0  0  0  0  0  0
  141.0770   70.8130  227.5370 C   0  0  0  0  0  0  0  0  0  0  0  0
  141.0540   71.7280  226.4940 C   0  0  0  0  0  0  0  0  0  0  0  0
  140.5190   71.3550  225.2800 C   0  0  0  0  0  0  0  0  0  0  0  0
  140.5070   72.2550  224.2870 N   0  0  0  0  0  0  0  0  0  0  0  0
  142.1400   73.3500  222.0780 H   0  0  0  0  0  0  0  0  0  0  0  0
  140.6994   74.0360  219.6718 H   0  0  0  0  0  0  0  0  0  0  0  0
  140.4177   75.3389  220.9331 H   0  0  0  0  0  0  0  0  0  0  0  0
  144.2129   76.8016  218.0766 H   0  0  0  0  0  0  0  0  0  0  0  0
  143.5498   75.1610  217.7807 H   0  0  0  0  0  0  0  0  0  0  0  0
  142.8871   76.6049  215.9464 H   0  0  0  0  0  0  0  0  0  0  0  0
  141.4369   76.2443  216.9354 H   0  0  0  0  0  0  0  0  0  0  0  0
  142.8571   78.8152  216.4844 H   0  0  0  0  0  0  0  0  0  0  0  0
  141.1517   78.4963  216.9811 H   0  0  0  0  0  0  0  0  0  0  0  0
  143.6451   78.6806  218.6853 H   0  0  0  0  0  0  0  0  0  0  0  0
  142.0470   79.5593  218.8206 H   0  0  0  0  0  0  0  0  0  0  0  0
  142.4277   77.9185  220.5955 H   0  0  0  0  0  0  0  0  0  0  0  0
  140.1312   78.3962  219.0488 H   0  0  0  0  0  0  0  0  0  0  0  0
  140.1721   76.6254  219.2125 H   0  0  0  0  0  0  0  0  0  0  0  0
  140.4461   80.1762  220.3938 H   0  0  0  0  0  0  0  0  0  0  0  0
  141.6691   81.9072  221.6904 H   0  0  0  0  0  0  0  0  0  0  0  0
  142.7618   81.2841  223.8260 H   0  0  0  0  0  0  0  0  0  0  0  0
  142.6429   78.9502  224.6708 H   0  0  0  0  0  0  0  0  0  0  0  0
  141.4102   77.2473  223.3421 H   0  0  0  0  0  0  0  0  0  0  0  0
  139.0628   70.4973  221.8078 H   0  0  0  0  0  0  0  0  0  0  0  0
  139.0677   68.7822  223.6397 H   0  0  0  0  0  0  0  0  0  0  0  0
  139.6215   68.1593  225.9675 H   0  0  0  0  0  0  0  0  0  0  0  0
  141.5008   71.1024  228.5099 H   0  0  0  0  0  0  0  0  0  0  0  0
  141.4588   72.7411  226.6348 H   0  0  0  0  0  0  0  0  0  0  0  0
  1  2  2  0
  2  3  1  0
  3  4  1  0
  4  5  1  0
  5  6  2  0
  5  7  1  0
  7  8  1  0
  8  9  1  0
  9 10  1  0
 10 11  1  0
 11 12  1  0
 12 13  1  0
 13 14  1  0
 14 15  1  0
 15 16  2  0
 16 17  1  0
 17 18  2  0
 18 19  1  0
 19 20  2  0
  2 21  1  0
 21 22  2  0
 22 23  1  0
 23 24  2  0
 24 25  1  0
 25 26  2  0
 26 27  1  0
 26 28  1  0
 28 29  2  0
 29 30  1  0
 30 31  2  0
 12  7  1  0
 20 15  1  0
 31 21  1  0
 30 24  1  0
  3 32  1  0
  4 33  1  0
  4 34  1  0
  8 35  1  0
  8 36  1  0
  9 37  1  0
  9 38  1  0
 10 39  1  0
 10 40  1  0
 11 41  1  0
 11 42  1  0
 12 43  1  1
 13 44  1  0
 13 45  1  0
 16 46  1  0
 17 47  1  0
 18 48  1  0
 19 49  1  0
 20 50  1  0
 22 51  1  0
 23 52  1  0
 25 53  1  0
 28 54  1  0
 29 55  1  0
M  END
>  <smiles>  (3) 
O=C(NCC(=O)N1CCCC[C@H]1COc1ccccc1)c1ccc2cc(Cl)ccc2n1

>  <score_type>  (3) 
oracle

>  <origin>  (3) 
autodockgpu

>  <m_score__min__energy>  (3) 
-8.5800000000000001

>  <m_primary>  (3) 
energy

>  <rmsd>  (3) 
2.4952026346822054

>  <m_score__min__rmsd>  (3) 
2.4952026346822054

>  <meeko>  (3) 
{"free_energy": -7.89, "intermolecular_energy": -9.98, "internal_energy": -2.1, "cluster_size": 17, "cluster_id": 1, "rank_in_cluster": 8}

>  <energy>  (3) 
-8.31

>  <cluster_rmsd>  (3) 
0.65

>  <cluster>  (3) 
1

$$$$

     RDKit          3D

 55 58  0  0  0  0  0  0  0  0999 V2000
  140.9750   75.2330  218.7130 O   0  0  0  0  0  0  0  0  0  0  0  0
  141.5130   76.1750  219.3350 C   0  0  0  0  0  0  0  0  0  0  0  0
  141.8460   75.8710  220.7230 N   0  0  0  0  0  0  0  0  0  0  0  0
  141.4980   74.5500  221.1490 C   0  0  0  0  0  0  0  0  0  0  0  0
  140.1500   74.4240  221.6860 C   0  0  0  0  0  0  0  0  0  0  0  0
  139.9780   73.3320  222.3770 O   0  0  0  0  0  0  0  0  0  0  0  0
  139.0280   75.2480  221.6020 N   0  0  0  0  0  0  0  0  0  0  0  0
  137.6350   74.8810  221.6520 C   0  0  0  0  0  0  0  0  0  0  0  0
  136.9550   75.6700  222.7380 C   0  0  0  0  0  0  0  0  0  0  0  0
  136.9360   77.1380  222.3400 C   0  0  0  0  0  0  0  0  0  0  0  0
  137.9590   77.4100  221.2550 C   0  0  0  0  0  0  0  0  0  0  0  0
  139.2640   76.7070  221.4650 C   0  0  1  0  0  0  0  0  0  0  0  0
  139.9690   77.2210  222.7070 C   0  0  0  0  0  0  0  0  0  0  0  0
  141.2270   77.7500  222.2850 O   0  0  0  0  0  0  0  0  0  0  0  0
  141.6090   78.9720  222.8030 C   0  0  0  0  0  0  0  0  0  0  0  0
  140.6160   79.8220  223.2410 C   0  0  0  0  0  0  0  0  0  0  0  0
  140.9100   81.0690  223.7750 C   0  0  0  0  0  0  0  0  0  0  0  0
  142.2290   81.4580  223.8680 C   0  0  0  0  0  0  0  0  0  0  0  0
  143.2480   80.6320  223.4410 C   0  0  0  0  0  0  0  0  0  0  0  0
  142.9120   79.3920  222.9110 C   0  0  0  0  0  0  0  0  0  0  0  0
  141.8010   77.4820  218.7650 C   0  0  0  0  0  0  0  0  0  0  0  0
  142.3090   77.5220  217.4940 C   0  0  0  0  0  0  0  0  0  0  0  0
  142.5790   78.7860  216.9630 C   0  0  0  0  0  0  0  0  0  0  0  0
  142.3470   79.9420  217.6860 C   0  0  0  0  0  0  0  0  0  0  0  0
  142.5990   81.2030  217.2010 C   0  0  0  0  0  0  0  0  0  0  0  0
  142.3420   82.3340  217.9820 C   0  0  0  0  0  0  0  0  0  0  0  0
  142.6550   83.9480  217.3880 Cl  0  0  0  0  0  0  0  0  0  0  0  0
  141.8230   82.1710  219.2690 C   0  0  0  0  0  0  0  0  0  0  0  0
  141.5650   80.9010  219.7650 C   0  0  0  0  0  0  0  0  0  0  0  0
  141.8270   79.8020  218.9750 C   0  0  0  0  0  0  0  0  0  0  0  0
  141.5710   78.5850  219.4760 N   0  0  0  0  0  0  0  0  0  0  0  0
  142.3040   76.6000  221.3110 H   0  0  0  0  0  0  0  0  0  0  0  0
  141.5880   73.8754  220.2848 H   0  0  0  0  0  0  0  0  0  0  0  0
  142.1862   74.2940  221.9680 H   0  0  0  0  0  0  0  0  0  0  0  0
  137.1611   75.1025  220.6843 H   0  0  0  0  0  0  0  0  0  0  0  0
  137.5432   73.8054  221.8634 H   0  0  0  0  0  0  0  0  0  0  0  0
  135.9241   75.3087  222.8670 H   0  0  0  0  0  0  0  0  0  0  0  0
  137.4997   75.5471  223.6857 H   0  0  0  0  0  0  0  0  0  0  0  0
  135.9347   77.3983  221.9662 H   0  0  0  0  0  0  0  0  0  0  0  0
  137.1835   77.7476  223.2215 H   0  0  0  0  0  0  0  0  0  0  0  0
  137.5393   77.0820  220.2926 H   0  0  0  0  0  0  0  0  0  0  0  0
  138.1695   78.4895  221.2765 H   0  0  0  0  0  0  0  0  0  0  0  0
  139.9049   76.9048  220.5931 H   0  0  0  0  0  0  0  0  0  0  0  0
  139.3682   78.0099  223.1831 H   0  0  0  0  0  0  0  0  0  0  0  0
  140.1092   76.4138  223.4410 H   0  0  0  0  0  0  0  0  0  0  0  0
  139.5655   79.5044  223.1655 H   0  0  0  0  0  0  0  0  0  0  0  0
  140.1045   81.7350  224.1179 H   0  0  0  0  0  0  0  0  0  0  0  0
  142.4733   82.4440  224.2900 H   0  0  0  0  0  0  0  0  0  0  0  0
  144.2992   80.9467  223.5180 H   0  0  0  0  0  0  0  0  0  0  0  0
  143.7162   78.7251  222.5667 H   0  0  0  0  0  0  0  0  0  0  0  0
  142.4956   76.6032  216.9187 H   0  0  0  0  0  0  0  0  0  0  0  0
  142.9864   78.8636  215.9442 H   0  0  0  0  0  0  0  0  0  0  0  0
  143.0075   81.3239  216.1869 H   0  0  0  0  0  0  0  0  0  0  0  0
  141.6179   83.0539  219.8922 H   0  0  0  0  0  0  0  0  0  0  0  0
  141.1557   80.7725  220.7779 H   0  0  0  0  0  0  0  0  0  0  0  0
  1  2  2  0
  2  3  1  0
  3  4  1  0
  4  5  1  0
  5  6  2  0
  5  7  1  0
  7  8  1  0
  8  9  1  0
  9 10  1  0
 10 11  1  0
 11 12  1  0
 12 13  1  0
 13 14  1  0
 14 15  1  0
 15 16  2  0
 16 17  1  0
 17 18  2  0
 18 19  1  0
 19 20  2  0
  2 21  1  0
 21 22  2  0
 22 23  1  0
 23 24  2  0
 24 25  1  0
 25 26  2  0
 26 27  1  0
 26 28  1  0
 28 29  2  0
 29 30  1  0
 30 31  2  0
 12  7  1  0
 20 15  1  0
 31 21  1  0
 30 24  1  0
  3 32  1  0
  4 33  1  0
  4 34  1  0
  8 35  1  0
  8 36  1  0
  9 37  1  0
  9 38  1  0
 10 39  1  0
 10 40  1  0
 11 41  1  0
 11 42  1  0
 12 43  1  6
 13 44  1  0
 13 45  1  0
 16 46  1  0
 17 47  1  0
 18 48  1  0
 19 49  1  0
 20 50  1  0
 22 51  1  0
 23 52  1  0
 25 53  1  0
 28 54  1  0
 29 55  1  0
M  END
>  <smiles>  (4) 
O=C(NCC(=O)N1CCCC[C@H]1COc1ccccc1)c1ccc2cc(Cl)ccc2n1

>  <score_type>  (4) 
oracle

>  <origin>  (4) 
autodockgpu

>  <m_score__min__energy>  (4) 
-8.5800000000000001

>  <m_primary>  (4) 
energy

>  <rmsd>  (4) 
9.065107918463568

>  <m_score__min__rmsd>  (4) 
9.065107918463568

>  <meeko>  (4) 
{"free_energy": -6.75, "intermolecular_energy": -8.84, "internal_energy": -3.23, "cluster_size": 3, "cluster_id": 7, "rank_in_cluster": 1}

>  <energy>  (4) 
-8.13

>  <cluster_rmsd>  (4) 
1.05

>  <cluster>  (4) 
1

$$$$

     RDKit          3D

 55 58  0  0  0  0  0  0  0  0999 V2000
  139.8610   72.7080  220.6490 O   0  0  0  0  0  0  0  0  0  0  0  0
  139.7730   72.9440  221.8750 C   0  0  0  0  0  0  0  0  0  0  0  0
  139.5610   74.3490  222.2070 N   0  0  0  0  0  0  0  0  0  0  0  0
  139.4960   75.2290  221.0810 C   0  0  0  0  0  0  0  0  0  0  0  0
  139.8610   76.6090  221.3710 C   0  0  0  0  0  0  0  0  0  0  0  0
  139.7000   76.9250  222.6250 O   0  0  0  0  0  0  0  0  0  0  0  0
  140.3480   77.6370  220.5640 N   0  0  0  0  0  0  0  0  0  0  0  0
  140.1220   79.0560  220.6790 C   0  0  0  0  0  0  0  0  0  0  0  0
  141.4480   79.7650  220.7450 C   0  0  0  0  0  0  0  0  0  0  0  0
  142.1540   79.6100  219.4060 C   0  0  0  0  0  0  0  0  0  0  0  0
  141.5530   78.4650  218.6140 C   0  0  0  0  0  0  0  0  0  0  0  0
  141.2420   77.2570  219.4420 C   0  0  1  0  0  0  0  0  0  0  0  0
  142.5090   76.6330  219.9980 C   0  0  0  0  0  0  0  0  0  0  0  0
  142.4940   75.2530  219.6270 O   0  0  0  0  0  0  0  0  0  0  0  0
  143.5030   74.4500  220.1210 C   0  0  0  0  0  0  0  0  0  0  0  0
  143.2120   73.1210  220.3470 C   0  0  0  0  0  0  0  0  0  0  0  0
  144.1670   72.2440  220.8420 C   0  0  0  0  0  0  0  0  0  0  0  0
  145.4320   72.7200  221.1110 C   0  0  0  0  0  0  0  0  0  0  0  0
  145.7570   74.0430  220.8960 C   0  0  0  0  0  0  0  0  0  0  0  0
  144.7730   74.8900  220.4000 C   0  0  0  0  0  0  0  0  0  0  0  0
  139.8680   71.9340  222.9170 C   0  0  0  0  0  0  0  0  0  0  0  0
  139.4540   70.6650  222.6130 C   0  0  0  0  0  0  0  0  0  0  0  0
  139.5530   69.7080  223.6270 C   0  0  0  0  0  0  0  0  0  0  0  0
  140.0450   70.0270  224.8790 C   0  0  0  0  0  0  0  0  0  0  0  0
  140.1590   69.1170  225.9030 C   0  0  0  0  0  0  0  0  0  0  0  0
  140.6660   69.5010  227.1480 C   0  0  0  0  0  0  0  0  0  0  0  0
  140.8200   68.3630  228.4650 Cl  0  0  0  0  0  0  0  0  0  0  0  0
  141.0590   70.8280  227.3450 C   0  0  0  0  0  0  0  0  0  0  0  0
  140.9470   71.7520  226.3160 C   0  0  0  0  0  0  0  0  0  0  0  0
  140.4440   71.3480  225.0970 C   0  0  0  0  0  0  0  0  0  0  0  0
  140.3460   72.2580  224.1180 N   0  0  0  0  0  0  0  0  0  0  0  0
  139.4700   74.6310  223.2070 H   0  0  0  0  0  0  0  0  0  0  0  0
  140.1792   74.8482  220.3075 H   0  0  0  0  0  0  0  0  0  0  0  0
  138.4450   75.2449  220.7567 H   0  0  0  0  0  0  0  0  0  0  0  0
  139.5583   79.4108  219.8036 H   0  0  0  0  0  0  0  0  0  0  0  0
  139.5453   79.2654  221.5920 H   0  0  0  0  0  0  0  0  0  0  0  0
  141.2864   80.8323  220.9564 H   0  0  0  0  0  0  0  0  0  0  0  0
  142.0649   79.3303  221.5453 H   0  0  0  0  0  0  0  0  0  0  0  0
  142.0475   80.5419  218.8314 H   0  0  0  0  0  0  0  0  0  0  0  0
  143.2171   79.3945  219.5890 H   0  0  0  0  0  0  0  0  0  0  0  0
  140.6202   78.8166  218.1490 H   0  0  0  0  0  0  0  0  0  0  0  0
  142.3041   78.1599  217.8706 H   0  0  0  0  0  0  0  0  0  0  0  0
  140.7434   76.5185  218.7970 H   0  0  0  0  0  0  0  0  0  0  0  0
  143.3930   77.1292  219.5710 H   0  0  0  0  0  0  0  0  0  0  0  0
  142.5538   76.7446  221.0914 H   0  0  0  0  0  0  0  0  0  0  0  0
  142.2003   72.7477  220.1301 H   0  0  0  0  0  0  0  0  0  0  0  0
  143.9184   71.1868  221.0167 H   0  0  0  0  0  0  0  0  0  0  0  0
  146.1958   72.0328  221.5040 H   0  0  0  0  0  0  0  0  0  0  0  0
  146.7684   74.4180  221.1114 H   0  0  0  0  0  0  0  0  0  0  0  0
  145.0200   75.9476  220.2253 H   0  0  0  0  0  0  0  0  0  0  0  0
  139.0618   70.4104  221.6173 H   0  0  0  0  0  0  0  0  0  0  0  0
  139.2316   68.6758  223.4238 H   0  0  0  0  0  0  0  0  0  0  0  0
  139.8477   68.0745  225.7409 H   0  0  0  0  0  0  0  0  0  0  0  0
  141.4590   71.1412  228.3206 H   0  0  0  0  0  0  0  0  0  0  0  0
  141.2563   72.7962  226.4709 H   0  0  0  0  0  0  0  0  0  0  0  0
  1  2  2  0
  2  3  1  0
  3  4  1  0
  4  5  1  0
  5  6  2  0
  5  7  1  0
  7  8  1  0
  8  9  1  0
  9 10  1  0
 10 11  1  0
 11 12  1  0
 12 13  1  0
 13 14  1  0
 14 15  1  0
 15 16  2  0
 16 17  1  0
 17 18  2  0
 18 19  1  0
 19 20  2  0
  2 21  1  0
 21 22  2  0
 22 23  1  0
 23 24  2  0
 24 25  1  0
 25 26  2  0
 26 27  1  0
 26 28  1  0
 28 29  2  0
 29 30  1  0
 30 31  2  0
 12  7  1  0
 20 15  1  0
 31 21  1  0
 30 24  1  0
  3 32  1  0
  4 33  1  0
  4 34  1  0
  8 35  1  0
  8 36  1  0
  9 37  1  0
  9 38  1  0
 10 39  1  0
 10 40  1  0
 11 41  1  0
 11 42  1  0
 12 43  1  6
 13 44  1  0
 13 45  1  0
 16 46  1  0
 17 47  1  0
 18 48  1  0
 19 49  1  0
 20 50  1  0
 22 51  1  0
 23 52  1  0
 25 53  1  0
 28 54  1  0
 29 55  1  0
M  END
>  <smiles>  (5) 
O=C(NCC(=O)N1CCCC[C@H]1COc1ccccc1)c1ccc2cc(Cl)ccc2n1

>  <score_type>  (5) 
oracle

>  <origin>  (5) 
autodockgpu

>  <m_score__min__energy>  (5) 
-8.5800000000000001

>  <m_primary>  (5) 
energy

>  <rmsd>  (5) 
2.745672623971548

>  <m_score__min__rmsd>  (5) 
2.745672623971548

>  <meeko>  (5) 
{"free_energy": -8.09, "intermolecular_energy": -10.18, "internal_energy": -2.37, "cluster_size": 9, "cluster_id": 3, "rank_in_cluster": 5}

>  <energy>  (5) 
-8.06

>  <cluster_rmsd>  (5) 
1.18

>  <cluster>  (5) 
1

$$$$

     RDKit          3D

 55 58  0  0  0  0  0  0  0  0999 V2000
  139.5890   72.1930  220.8070 O   0  0  0  0  0  0  0  0  0  0  0  0
  139.6170   72.4810  222.0240 C   0  0  0  0  0  0  0  0  0  0  0  0
  139.4900   73.9070  222.3110 N   0  0  0  0  0  0  0  0  0  0  0  0
  139.3620   74.7430  221.1570 C   0  0  0  0  0  0  0  0  0  0  0  0
  140.4500   75.6940  220.9760 C   0  0  0  0  0  0  0  0  0  0  0  0
  140.4280   76.6630  221.8480 O   0  0  0  0  0  0  0  0  0  0  0  0
  141.4970   75.7540  220.0560 N   0  0  0  0  0  0  0  0  0  0  0  0
  142.0200   74.7050  219.2190 C   0  0  0  0  0  0  0  0  0  0  0  0
  141.9970   75.1590  217.7840 C   0  0  0  0  0  0  0  0  0  0  0  0
  142.9900   76.2990  217.6130 C   0  0  0  0  0  0  0  0  0  0  0  0
  143.3410   76.9070  218.9570 C   0  0  0  0  0  0  0  0  0  0  0  0
  142.1680   77.0650  219.8730 C   0  0  1  0  0  0  0  0  0  0  0  0
  141.1720   78.0670  219.3180 C   0  0  0  0  0  0  0  0  0  0  0  0
  141.5570   79.3540  219.8050 O   0  0  0  0  0  0  0  0  0  0  0  0
  141.4470   79.5790  221.1640 C   0  0  0  0  0  0  0  0  0  0  0  0
  140.1820   79.5920  221.7110 C   0  0  0  0  0  0  0  0  0  0  0  0
  139.9800   79.8100  223.0670 C   0  0  0  0  0  0  0  0  0  0  0  0
  141.0760   80.0160  223.8780 C   0  0  0  0  0  0  0  0  0  0  0  0
  142.3550   80.0090  223.3630 C   0  0  0  0  0  0  0  0  0  0  0  0
  142.5160   79.7870  222.0000 C   0  0  0  0  0  0  0  0  0  0  0  0
  139.7620   71.5120  223.0990 C   0  0  0  0  0  0  0  0  0  0  0  0
  139.3770   70.2220  222.8470 C   0  0  0  0  0  0  0  0  0  0  0  0
  139.5240   69.3050  223.8910 C   0  0  0  0  0  0  0  0  0  0  0  0
  140.0340   69.6810  225.1210 C   0  0  0  0  0  0  0  0  0  0  0  0
  140.1950   68.8110  226.1720 C   0  0  0  0  0  0  0  0  0  0  0  0
  140.7170   69.2520  227.3920 C   0  0  0  0  0  0  0  0  0  0  0  0
  140.9300   68.1650  228.7440 Cl  0  0  0  0  0  0  0  0  0  0  0  0
  141.0770   70.5950  227.5350 C   0  0  0  0  0  0  0  0  0  0  0  0
  140.9170   71.4790  226.4770 C   0  0  0  0  0  0  0  0  0  0  0  0
  140.4000   71.0190  225.2840 C   0  0  0  0  0  0  0  0  0  0  0  0
  140.2560   71.8910  224.2770 N   0  0  0  0  0  0  0  0  0  0  0  0
  139.4980   74.2330  223.3010 H   0  0  0  0  0  0  0  0  0  0  0  0
  139.3191   74.0968  220.2678 H   0  0  0  0  0  0  0  0  0  0  0  0
  138.4479   75.3375  221.3015 H   0  0  0  0  0  0  0  0  0  0  0  0
  143.0544   74.4781  219.5166 H   0  0  0  0  0  0  0  0  0  0  0  0
  141.4033   73.8010  219.3306 H   0  0  0  0  0  0  0  0  0  0  0  0
  142.2781   74.3225  217.1273 H   0  0  0  0  0  0  0  0  0  0  0  0
  140.9863   75.5013  217.5170 H   0  0  0  0  0  0  0  0  0  0  0  0
  143.9054   75.9133  217.1406 H   0  0  0  0  0  0  0  0  0  0  0  0
  142.5336   77.0751  216.9810 H   0  0  0  0  0  0  0  0  0  0  0  0
  144.0803   76.2578  219.4489 H   0  0  0  0  0  0  0  0  0  0  0  0
  143.7320   77.9161  218.7600 H   0  0  0  0  0  0  0  0  0  0  0  0
  142.5356   77.4374  220.8406 H   0  0  0  0  0  0  0  0  0  0  0  0
  141.1983   78.0560  218.2184 H   0  0  0  0  0  0  0  0  0  0  0  0
  140.1482   77.8184  219.6341 H   0  0  0  0  0  0  0  0  0  0  0  0
  139.3125   79.4258  221.0581 H   0  0  0  0  0  0  0  0  0  0  0  0
  138.9634   79.8183  223.4872 H   0  0  0  0  0  0  0  0  0  0  0  0
  140.9274   80.1889  224.9541 H   0  0  0  0  0  0  0  0  0  0  0  0
  143.2260   80.1749  224.0141 H   0  0  0  0  0  0  0  0  0  0  0  0
  143.5319   79.7777  221.5781 H   0  0  0  0  0  0  0  0  0  0  0  0
  138.9714   69.9222  221.8694 H   0  0  0  0  0  0  0  0  0  0  0  0
  139.2269   68.2581  223.7310 H   0  0  0  0  0  0  0  0  0  0  0  0
  139.9100   67.7553  226.0524 H   0  0  0  0  0  0  0  0  0  0  0  0
  141.4889   70.9529  228.4901 H   0  0  0  0  0  0  0  0  0  0  0  0
  141.1998   72.5361  226.5889 H   0  0  0  0  0  0  0  0  0  0  0  0
  1  2  2  0
  2  3  1  0
  3  4  1  0
  4  5  1  0
  5  6  2  0
  5  7  1  0
  7  8  1  0
  8  9  1  0
  9 10  1  0
 10 11  1  0
 11 12  1  0
 12 13  1  0
 13 14  1  0
 14 15  1  0
 15 16  2  0
 16 17  1  0
 17 18  2  0
 18 19  1  0
 19 20  2  0
  2 21  1  0
 21 22  2  0
 22 23  1  0
 23 24  2  0
 24 25  1  0
 25 26  2  0
 26 27  1  0
 26 28  1  0
 28 29  2  0
 29 30  1  0
 30 31  2  0
 12  7  1  0
 20 15  1  0
 31 21  1  0
 30 24  1  0
  3 32  1  0
  4 33  1  0
  4 34  1  0
  8 35  1  0
  8 36  1  0
  9 37  1  0
  9 38  1  0
 10 39  1  0
 10 40  1  0
 11 41  1  0
 11 42  1  0
 12 43  1  1
 13 44  1  0
 13 45  1  0
 16 46  1  0
 17 47  1  0
 18 48  1  0
 19 49  1  0
 20 50  1  0
 22 51  1  0
 23 52  1  0
 25 53  1  0
 28 54  1  0
 29 55  1  0
M  END
>  <smiles>  (6) 
O=C(NCC(=O)N1CCCC[C@H]1COc1ccccc1)c1ccc2cc(Cl)ccc2n1

>  <score_type>  (6) 
oracle

>  <origin>  (6) 
autodockgpu

>  <m_score__min__energy>  (6) 
-8.5800000000000001

>  <m_primary>  (6) 
energy

>  <rmsd>  (6) 
1.7086086111006311

>  <m_score__min__rmsd>  (6) 
1.7086086111006311

>  <meeko>  (6) 
{"free_energy": -8.02, "intermolecular_energy": -10.11, "internal_energy": -1.91, "cluster_size": 17, "cluster_id": 1, "rank_in_cluster": 7}

>  <energy>  (6) 
-8.06

>  <cluster_rmsd>  (6) 
1.07

>  <cluster>  (6) 
1

$$$$

     RDKit          3D

 55 58  0  0  0  0  0  0  0  0999 V2000
  135.5740   77.2020  223.3730 O   0  0  0  0  0  0  0  0  0  0  0  0
  136.4650   77.8450  222.7750 C   0  0  0  0  0  0  0  0  0  0  0  0
  136.1410   79.2490  222.5380 N   0  0  0  0  0  0  0  0  0  0  0  0
  134.8580   79.6590  223.0210 C   0  0  0  0  0  0  0  0  0  0  0  0
  134.8210   79.9830  224.4400 C   0  0  0  0  0  0  0  0  0  0  0  0
  134.2180   79.0740  225.1530 O   0  0  0  0  0  0  0  0  0  0  0  0
  135.3100   81.0690  225.1650 N   0  0  0  0  0  0  0  0  0  0  0  0
  134.7990   81.6400  226.3860 C   0  0  0  0  0  0  0  0  0  0  0  0
  135.8980   81.6770  227.4130 C   0  0  0  0  0  0  0  0  0  0  0  0
  136.9620   82.6650  226.9590 C   0  0  0  0  0  0  0  0  0  0  0  0
  136.8280   82.9500  225.4760 C   0  0  0  0  0  0  0  0  0  0  0  0
  136.5330   81.7350  224.6530 C   0  0  1  0  0  0  0  0  0  0  0  0
  137.6920   80.7550  224.6890 C   0  0  0  0  0  0  0  0  0  0  0  0
  138.2810   80.7560  223.3870 O   0  0  0  0  0  0  0  0  0  0  0  0
  139.6420   80.5360  223.3040 C   0  0  0  0  0  0  0  0  0  0  0  0
  140.1430   79.3890  223.8810 C   0  0  0  0  0  0  0  0  0  0  0  0
  141.4980   79.0900  223.8450 C   0  0  0  0  0  0  0  0  0  0  0  0
  142.3560   79.9660  223.2150 C   0  0  0  0  0  0  0  0  0  0  0  0
  141.8880   81.1220  222.6260 C   0  0  0  0  0  0  0  0  0  0  0  0
  140.5250   81.3860  222.6840 C   0  0  0  0  0  0  0  0  0  0  0  0
  137.7320   77.2840  222.3320 C   0  0  0  0  0  0  0  0  0  0  0  0
  138.0330   76.0070  222.7240 C   0  0  0  0  0  0  0  0  0  0  0  0
  139.2540   75.4850  222.2900 C   0  0  0  0  0  0  0  0  0  0  0  0
  140.1190   76.2230  221.5020 C   0  0  0  0  0  0  0  0  0  0  0  0
  141.3270   75.7470  221.0530 C   0  0  0  0  0  0  0  0  0  0  0  0
  142.1590   76.5420  220.2590 C   0  0  0  0  0  0  0  0  0  0  0  0
  143.7010   75.9600  219.6770 Cl  0  0  0  0  0  0  0  0  0  0  0  0
  141.7470   77.8340  219.9200 C   0  0  0  0  0  0  0  0  0  0  0  0
  140.5280   78.3210  220.3690 C   0  0  0  0  0  0  0  0  0  0  0  0
  139.7260   77.5170  221.1520 C   0  0  0  0  0  0  0  0  0  0  0  0
  138.5530   78.0090  221.5730 N   0  0  0  0  0  0  0  0  0  0  0  0
  136.8320   79.8580  222.0510 H   0  0  0  0  0  0  0  0  0  0  0  0
  134.5478   80.5510  222.4570 H   0  0  0  0  0  0  0  0  0  0  0  0
  134.1824   78.8027  222.8785 H   0  0  0  0  0  0  0  0  0  0  0  0
  134.4416   82.6622  226.1927 H   0  0  0  0  0  0  0  0  0  0  0  0
  133.9649   81.0278  226.7594 H   0  0  0  0  0  0  0  0  0  0  0  0
  135.4873   81.9959  228.3823 H   0  0  0  0  0  0  0  0  0  0  0  0
  136.3406   80.6759  227.5222 H   0  0  0  0  0  0  0  0  0  0  0  0
  136.8458   83.6043  227.5195 H   0  0  0  0  0  0  0  0  0  0  0  0
  137.9542   82.2292  227.1480 H   0  0  0  0  0  0  0  0  0  0  0  0
  136.0107   83.6723  225.3338 H   0  0  0  0  0  0  0  0  0  0  0  0
  137.7982   83.3407  225.1353 H   0  0  0  0  0  0  0  0  0  0  0  0
  136.3787   82.0553  223.6120 H   0  0  0  0  0  0  0  0  0  0  0  0
  138.4319   81.0724  225.4385 H   0  0  0  0  0  0  0  0  0  0  0  0
  137.3455   79.7474  224.9622 H   0  0  0  0  0  0  0  0  0  0  0  0
  139.4528   78.6941  224.3818 H   0  0  0  0  0  0  0  0  0  0  0  0
  141.8805   78.1700  224.3111 H   0  0  0  0  0  0  0  0  0  0  0  0
  143.4319   79.7392  223.1815 H   0  0  0  0  0  0  0  0  0  0  0  0
  142.5762   81.8173  222.1231 H   0  0  0  0  0  0  0  0  0  0  0  0
  140.1407   82.3055  222.2183 H   0  0  0  0  0  0  0  0  0  0  0  0
  137.3459   75.4199  223.3510 H   0  0  0  0  0  0  0  0  0  0  0  0
  139.5344   74.4622  222.5820 H   0  0  0  0  0  0  0  0  0  0  0  0
  141.6434   74.7282  221.3214 H   0  0  0  0  0  0  0  0  0  0  0  0
  142.3925   78.4677  219.2941 H   0  0  0  0  0  0  0  0  0  0  0  0
  140.2043   79.3381  220.1033 H   0  0  0  0  0  0  0  0  0  0  0  0
  1  2  2  0
  2  3  1  0
  3  4  1  0
  4  5  1  0
  5  6  2  0
  5  7  1  0
  7  8  1  0
  8  9  1  0
  9 10  1  0
 10 11  1  0
 11 12  1  0
 12 13  1  0
 13 14  1  0
 14 15  1  0
 15 16  2  0
 16 17  1  0
 17 18  2  0
 18 19  1  0
 19 20  2  0
  2 21  1  0
 21 22  2  0
 22 23  1  0
 23 24  2  0
 24 25  1  0
 25 26  2  0
 26 27  1  0
 26 28  1  0
 28 29  2  0
 29 30  1  0
 30 31  2  0
 12  7  1  0
 20 15  1  0
 31 21  1  0
 30 24  1  0
  3 32  1  0
  4 33  1  0
  4 34  1  0
  8 35  1  0
  8 36  1  0
  9 37  1  0
  9 38  1  0
 10 39  1  0
 10 40  1  0
 11 41  1  0
 11 42  1  0
 12 43  1  6
 13 44  1  0
 13 45  1  0
 16 46  1  0
 17 47  1  0
 18 48  1  0
 19 49  1  0
 20 50  1  0
 22 51  1  0
 23 52  1  0
 25 53  1  0
 28 54  1  0
 29 55  1  0
M  END
>  <smiles>  (7) 
O=C(NCC(=O)N1CCCC[C@H]1COc1ccccc1)c1ccc2cc(Cl)ccc2n1

>  <score_type>  (7) 
oracle

>  <origin>  (7) 
autodockgpu

>  <m_score__min__energy>  (7) 
-8.5800000000000001

>  <m_primary>  (7) 
energy

>  <rmsd>  (7) 
9.104867536746015

>  <m_score__min__rmsd>  (7) 
9.104867536746015

>  <meeko>  (7) 
{"free_energy": -6.03, "intermolecular_energy": -8.11, "internal_energy": -3.69, "cluster_size": 1, "cluster_id": 11, "rank_in_cluster": 1}

>  <energy>  (7) 
-8.02

>  <cluster_rmsd>  (7) 
0.71

>  <cluster>  (7) 
1

$$$$

     RDKit          3D

 55 58  0  0  0  0  0  0  0  0999 V2000
  133.1190   69.7220  226.4710 O   0  0  0  0  0  0  0  0  0  0  0  0
  133.6320   70.8350  226.2190 C   0  0  0  0  0  0  0  0  0  0  0  0
  134.8700   70.7700  225.4490 N   0  0  0  0  0  0  0  0  0  0  0  0
  135.3010   69.4470  225.1140 C   0  0  0  0  0  0  0  0  0  0  0  0
  135.8280   69.3070  223.7630 C   0  0  0  0  0  0  0  0  0  0  0  0
  135.4810   68.1850  223.1970 O   0  0  0  0  0  0  0  0  0  0  0  0
  136.6190   70.1430  222.9760 N   0  0  0  0  0  0  0  0  0  0  0  0
  136.2040   71.0990  221.9800 C   0  0  0  0  0  0  0  0  0  0  0  0
  136.7840   72.4460  222.3160 C   0  0  0  0  0  0  0  0  0  0  0  0
  138.2970   72.3820  222.1600 C   0  0  0  0  0  0  0  0  0  0  0  0
  138.7730   70.9430  222.1670 C   0  0  0  0  0  0  0  0  0  0  0  0
  138.0870   70.0850  223.1830 C   0  0  1  0  0  0  0  0  0  0  0  0
  138.4150   70.5380  224.5940 C   0  0  0  0  0  0  0  0  0  0  0  0
  139.8180   70.3420  224.7810 O   0  0  0  0  0  0  0  0  0  0  0  0
  140.2290   69.7850  225.9760 C   0  0  0  0  0  0  0  0  0  0  0  0
  140.2550   68.4090  226.0650 C   0  0  0  0  0  0  0  0  0  0  0  0
  140.6550   67.7650  227.2280 C   0  0  0  0  0  0  0  0  0  0  0  0
  141.0340   68.5260  228.3140 C   0  0  0  0  0  0  0  0  0  0  0  0
  141.0200   69.9040  228.2580 C   0  0  0  0  0  0  0  0  0  0  0  0
  140.6130   70.5110  227.0750 C   0  0  0  0  0  0  0  0  0  0  0  0
  133.0770   72.1120  226.6380 C   0  0  0  0  0  0  0  0  0  0  0  0
  131.8730   72.0980  227.2920 C   0  0  0  0  0  0  0  0  0  0  0  0
  131.3560   73.3350  227.6870 C   0  0  0  0  0  0  0  0  0  0  0  0
  132.0260   74.5170  227.4290 C   0  0  0  0  0  0  0  0  0  0  0  0
  131.5520   75.7530  227.8010 C   0  0  0  0  0  0  0  0  0  0  0  0
  132.2760   76.9130  227.5120 C   0  0  0  0  0  0  0  0  0  0  0  0
  131.6950   78.4950  227.9720 Cl  0  0  0  0  0  0  0  0  0  0  0  0
  133.4960   76.8060  226.8370 C   0  0  0  0  0  0  0  0  0  0  0  0
  133.9810   75.5620  226.4600 C   0  0  0  0  0  0  0  0  0  0  0  0
  133.2470   74.4330  226.7570 C   0  0  0  0  0  0  0  0  0  0  0  0
  133.7360   73.2420  226.3820 N   0  0  0  0  0  0  0  0  0  0  0  0
  135.3600   71.6530  225.1920 H   0  0  0  0  0  0  0  0  0  0  0  0
  136.0894   69.1528  225.8225 H   0  0  0  0  0  0  0  0  0  0  0  0
  134.4101   68.8042  225.1704 H   0  0  0  0  0  0  0  0  0  0  0  0
  136.5640   70.7797  220.9908 H   0  0  0  0  0  0  0  0  0  0  0  0
  135.1060   71.1628  221.9635 H   0  0  0  0  0  0  0  0  0  0  0  0
  136.3739   73.2055  221.6341 H   0  0  0  0  0  0  0  0  0  0  0  0
  136.5263   72.7161  223.3507 H   0  0  0  0  0  0  0  0  0  0  0  0
  138.5826   72.8527  221.2077 H   0  0  0  0  0  0  0  0  0  0  0  0
  138.7634   72.9142  223.0021 H   0  0  0  0  0  0  0  0  0  0  0  0
  138.5920   70.5130  221.1709 H   0  0  0  0  0  0  0  0  0  0  0  0
  139.8408   70.9600  222.4305 H   0  0  0  0  0  0  0  0  0  0  0  0
  138.4440   69.0522  223.0570 H   0  0  0  0  0  0  0  0  0  0  0  0
  138.1625   71.6015  224.7175 H   0  0  0  0  0  0  0  0  0  0  0  0
  137.8369   69.9653  225.3341 H   0  0  0  0  0  0  0  0  0  0  0  0
  139.9520   67.8082  225.1948 H   0  0  0  0  0  0  0  0  0  0  0  0
  140.6694   66.6664  227.2824 H   0  0  0  0  0  0  0  0  0  0  0  0
  141.3527   68.0256  229.2403 H   0  0  0  0  0  0  0  0  0  0  0  0
  141.3229   70.5072  229.1266 H   0  0  0  0  0  0  0  0  0  0  0  0
  140.5984   71.6095  227.0184 H   0  0  0  0  0  0  0  0  0  0  0  0
  131.3390   71.1583  227.4964 H   0  0  0  0  0  0  0  0  0  0  0  0
  130.3923   73.3692  228.2162 H   0  0  0  0  0  0  0  0  0  0  0  0
  130.5918   75.8297  228.3322 H   0  0  0  0  0  0  0  0  0  0  0  0
  134.0739   77.7125  226.6038 H   0  0  0  0  0  0  0  0  0  0  0  0
  134.9410   75.4772  225.9297 H   0  0  0  0  0  0  0  0  0  0  0  0
  1  2  2  0
  2  3  1  0
  3  4  1  0
  4  5  1  0
  5  6  2  0
  5  7  1  0
  7  8  1  0
  8  9  1  0
  9 10  1  0
 10 11  1  0
 11 12  1  0
 12 13  1  0
 13 14  1  0
 14 15  1  0
 15 16  2  0
 16 17  1  0
 17 18  2  0
 18 19  1  0
 19 20  2  0
  2 21  1  0
 21 22  2  0
 22 23  1  0
 23 24  2  0
 24 25  1  0
 25 26  2  0
 26 27  1  0
 26 28  1  0
 28 29  2  0
 29 30  1  0
 30 31  2  0
 12  7  1  0
 20 15  1  0
 31 21  1  0
 30 24  1  0
  3 32  1  0
  4 33  1  0
  4 34  1  0
  8 35  1  0
  8 36  1  0
  9 37  1  0
  9 38  1  0
 10 39  1  0
 10 40  1  0
 11 41  1  0
 11 42  1  0
 12 43  1  1
 13 44  1  0
 13 45  1  0
 16 46  1  0
 17 47  1  0
 18 48  1  0
 19 49  1  0
 20 50  1  0
 22 51  1  0
 23 52  1  0
 25 53  1  0
 28 54  1  0
 29 55  1  0
M  END
>  <smiles>  (8) 
O=C(NCC(=O)N1CCCC[C@H]1COc1ccccc1)c1ccc2cc(Cl)ccc2n1

>  <score_type>  (8) 
oracle

>  <origin>  (8) 
autodockgpu

>  <m_score__min__energy>  (8) 
-8.5800000000000001

>  <m_primary>  (8) 
energy

>  <rmsd>  (8) 
8.264924126250445

>  <m_score__min__rmsd>  (8) 
8.264924126250445

>  <meeko>  (8) 
{"free_energy": -8.04, "intermolecular_energy": -10.12, "internal_energy": -1.66, "cluster_size": 8, "cluster_id": 4, "rank_in_cluster": 4}

>  <energy>  (8) 
-7.89

>  <cluster_rmsd>  (8) 
1.27

>  <cluster>  (8) 
1

$$$$

     RDKit          3D

 55 58  0  0  0  0  0  0  0  0999 V2000
  140.1910   72.6890  220.8210 O   0  0  0  0  0  0  0  0  0  0  0  0
  139.9420   72.9200  222.0250 C   0  0  0  0  0  0  0  0  0  0  0  0
  139.5950   74.3080  222.3160 N   0  0  0  0  0  0  0  0  0  0  0  0
  139.6040   75.1800  221.1810 C   0  0  0  0  0  0  0  0  0  0  0  0
  140.1400   76.5080  221.4430 C   0  0  0  0  0  0  0  0  0  0  0  0
  140.2820   76.7570  222.7150 O   0  0  0  0  0  0  0  0  0  0  0  0
  140.5280   77.5450  220.5950 N   0  0  0  0  0  0  0  0  0  0  0  0
  140.3540   78.9650  220.7710 C   0  0  0  0  0  0  0  0  0  0  0  0
  141.6910   79.6450  220.6550 C   0  0  0  0  0  0  0  0  0  0  0  0
  142.1900   79.5080  219.2240 C   0  0  0  0  0  0  0  0  0  0  0  0
  141.4530   78.3940  218.5060 C   0  0  0  0  0  0  0  0  0  0  0  0
  141.2380   77.1730  219.3460 C   0  0  1  0  0  0  0  0  0  0  0  0
  142.5580   76.5110  219.6970 C   0  0  0  0  0  0  0  0  0  0  0  0
  142.2810   75.1320  219.9510 O   0  0  0  0  0  0  0  0  0  0  0  0
  143.3460   74.3210  220.2900 C   0  0  0  0  0  0  0  0  0  0  0  0
  144.5830   74.9130  220.4300 C   0  0  0  0  0  0  0  0  0  0  0  0
  145.7070   74.1730  220.7700 C   0  0  0  0  0  0  0  0  0  0  0  0
  145.5740   72.8150  220.9710 C   0  0  0  0  0  0  0  0  0  0  0  0
  144.3510   72.1920  220.8400 C   0  0  0  0  0  0  0  0  0  0  0  0
  143.2490   72.9680  220.4980 C   0  0  0  0  0  0  0  0  0  0  0  0
  139.9820   71.9220  223.0820 C   0  0  0  0  0  0  0  0  0  0  0  0
  139.5260   70.6640  222.7860 C   0  0  0  0  0  0  0  0  0  0  0  0
  139.5730   69.7190  223.8140 C   0  0  0  0  0  0  0  0  0  0  0  0
  140.0550   70.0360  225.0710 C   0  0  0  0  0  0  0  0  0  0  0  0
  140.1180   69.1360  226.1080 C   0  0  0  0  0  0  0  0  0  0  0  0
  140.6160   69.5180  227.3570 C   0  0  0  0  0  0  0  0  0  0  0  0
  140.7060   68.3930  228.6910 Cl  0  0  0  0  0  0  0  0  0  0  0  0
  141.0540   70.8330  227.5450 C   0  0  0  0  0  0  0  0  0  0  0  0
  140.9940   71.7460  226.5020 C   0  0  0  0  0  0  0  0  0  0  0  0
  140.4980   71.3440  225.2790 C   0  0  0  0  0  0  0  0  0  0  0  0
  140.4500   72.2440  224.2870 N   0  0  0  0  0  0  0  0  0  0  0  0
  139.3680   74.5850  223.2940 H   0  0  0  0  0  0  0  0  0  0  0  0
  140.2139   74.7127  220.3938 H   0  0  0  0  0  0  0  0  0  0  0  0
  138.5535   75.3197  220.8860 H   0  0  0  0  0  0  0  0  0  0  0  0
  139.6761   79.3515  219.9957 H   0  0  0  0  0  0  0  0  0  0  0  0
  139.9226   79.1645  221.7630 H   0  0  0  0  0  0  0  0  0  0  0  0
  141.5871   80.7101  220.9097 H   0  0  0  0  0  0  0  0  0  0  0  0
  142.4081   79.1785  221.3465 H   0  0  0  0  0  0  0  0  0  0  0  0
  142.0221   80.4551  218.6904 H   0  0  0  0  0  0  0  0  0  0  0  0
  143.2632   79.2677  219.2442 H   0  0  0  0  0  0  0  0  0  0  0  0
  140.4707   78.7752  218.1901 H   0  0  0  0  0  0  0  0  0  0  0  0
  142.0803   78.0912  217.6547 H   0  0  0  0  0  0  0  0  0  0  0  0
  140.6328   76.4602  218.7666 H   0  0  0  0  0  0  0  0  0  0  0  0
  143.2629   76.6061  218.8579 H   0  0  0  0  0  0  0  0  0  0  0  0
  143.0137   76.9878  220.5773 H   0  0  0  0  0  0  0  0  0  0  0  0
  144.6816   75.9966  220.2686 H   0  0  0  0  0  0  0  0  0  0  0  0
  146.6869   74.6612  220.8773 H   0  0  0  0  0  0  0  0  0  0  0  0
  146.4584   72.2190  221.2403 H   0  0  0  0  0  0  0  0  0  0  0  0
  144.2496   71.1087  221.0019 H   0  0  0  0  0  0  0  0  0  0  0  0
  142.2681   72.4818  220.3908 H   0  0  0  0  0  0  0  0  0  0  0  0
  139.1415   70.4105  221.7871 H   0  0  0  0  0  0  0  0  0  0  0  0
  139.2175   68.6965  223.6186 H   0  0  0  0  0  0  0  0  0  0  0  0
  139.7725   68.1032  225.9532 H   0  0  0  0  0  0  0  0  0  0  0  0
  141.4476   71.1446  228.5238 H   0  0  0  0  0  0  0  0  0  0  0  0
  141.3386   72.7803  226.6488 H   0  0  0  0  0  0  0  0  0  0  0  0
  1  2  2  0
  2  3  1  0
  3  4  1  0
  4  5  1  0
  5  6  2  0
  5  7  1  0
  7  8  1  0
  8  9  1  0
  9 10  1  0
 10 11  1  0
 11 12  1  0
 12 13  1  0
 13 14  1  0
 14 15  1  0
 15 16  2  0
 16 17  1  0
 17 18  2  0
 18 19  1  0
 19 20  2  0
  2 21  1  0
 21 22  2  0
 22 23  1  0
 23 24  2  0
 24 25  1  0
 25 26  2  0
 26 27  1  0
 26 28  1  0
 28 29  2  0
 29 30  1  0
 30 31  2  0
 12  7  1  0
 20 15  1  0
 31 21  1  0
 30 24  1  0
  3 32  1  0
  4 33  1  0
  4 34  1  0
  8 35  1  0
  8 36  1  0
  9 37  1  0
  9 38  1  0
 10 39  1  0
 10 40  1  0
 11 41  1  0
 11 42  1  0
 12 43  1  6
 13 44  1  0
 13 45  1  0
 16 46  1  0
 17 47  1  0
 18 48  1  0
 19 49  1  0
 20 50  1  0
 22 51  1  0
 23 52  1  0
 25 53  1  0
 28 54  1  0
 29 55  1  0
M  END
>  <smiles>  (9) 
O=C(NCC(=O)N1CCCC[C@H]1COc1ccccc1)c1ccc2cc(Cl)ccc2n1

>  <score_type>  (9) 
oracle

>  <origin>  (9) 
autodockgpu

>  <m_score__min__energy>  (9) 
-8.5800000000000001

>  <m_primary>  (9) 
energy

>  <rmsd>  (9) 
2.70822508529638

>  <m_score__min__rmsd>  (9) 
2.70822508529638

>  <meeko>  (9) 
{"free_energy": -8.34, "intermolecular_energy": -10.43, "internal_energy": -2.34, "cluster_size": 9, "cluster_id": 3, "rank_in_cluster": 2}

>  <energy>  (9) 
-7.77

>  <cluster_rmsd>  (9) 
1.57

>  <cluster>  (9) 
1

$$$$

     RDKit          3D

 55 58  0  0  0  0  0  0  0  0999 V2000
  138.3620   71.7840  221.0390 O   0  0  0  0  0  0  0  0  0  0  0  0
  138.8760   72.1260  222.1270 C   0  0  0  0  0  0  0  0  0  0  0  0
  139.1530   73.5540  222.2430 N   0  0  0  0  0  0  0  0  0  0  0  0
  138.7990   74.3300  221.0940 C   0  0  0  0  0  0  0  0  0  0  0  0
  139.6180   74.0740  219.9160 C   0  0  0  0  0  0  0  0  0  0  0  0
  138.9670   73.4590  218.9690 O   0  0  0  0  0  0  0  0  0  0  0  0
  140.9490   74.3650  219.6210 N   0  0  0  0  0  0  0  0  0  0  0  0
  141.7250   73.9650  218.4740 C   0  0  0  0  0  0  0  0  0  0  0  0
  142.3040   75.1890  217.8170 C   0  0  0  0  0  0  0  0  0  0  0  0
  143.3260   75.8140  218.7550 C   0  0  0  0  0  0  0  0  0  0  0  0
  143.1250   75.3130  220.1720 C   0  0  0  0  0  0  0  0  0  0  0  0
  141.6880   75.2210  220.5820 C   0  0  1  0  0  0  0  0  0  0  0  0
  141.0440   76.5940  220.6320 C   0  0  0  0  0  0  0  0  0  0  0  0
  141.0430   77.0060  222.0010 O   0  0  0  0  0  0  0  0  0  0  0  0
  141.4880   78.2830  222.2810 C   0  0  0  0  0  0  0  0  0  0  0  0
  141.7430   78.5980  223.5980 C   0  0  0  0  0  0  0  0  0  0  0  0
  142.1940   79.8570  223.9690 C   0  0  0  0  0  0  0  0  0  0  0  0
  142.3890   80.8090  222.9910 C   0  0  0  0  0  0  0  0  0  0  0  0
  142.1440   80.5270  221.6630 C   0  0  0  0  0  0  0  0  0  0  0  0
  141.6930   79.2540  221.3330 C   0  0  0  0  0  0  0  0  0  0  0  0
  139.1900   71.2120  223.2140 C   0  0  0  0  0  0  0  0  0  0  0  0
  138.8270   69.9000  223.0660 C   0  0  0  0  0  0  0  0  0  0  0  0
  139.1370   69.0370  224.1200 C   0  0  0  0  0  0  0  0  0  0  0  0
  139.7790   69.4850  225.2600 C   0  0  0  0  0  0  0  0  0  0  0  0
  140.1020   68.6700  226.3180 C   0  0  0  0  0  0  0  0  0  0  0  0
  140.7510   69.1840  227.4450 C   0  0  0  0  0  0  0  0  0  0  0  0
  141.1720   68.1680  228.8040 Cl  0  0  0  0  0  0  0  0  0  0  0  0
  141.0730   70.5440  227.4860 C   0  0  0  0  0  0  0  0  0  0  0  0
  140.7510   71.3730  226.4210 C   0  0  0  0  0  0  0  0  0  0  0  0
  140.1100   70.8410  225.3220 C   0  0  0  0  0  0  0  0  0  0  0  0
  139.8090   71.6610  224.3050 N   0  0  0  0  0  0  0  0  0  0  0  0
  139.5760   73.9240  223.1200 H   0  0  0  0  0  0  0  0  0  0  0  0
  137.7520   74.1087  220.8392 H   0  0  0  0  0  0  0  0  0  0  0  0
  138.9622   75.3834  221.3656 H   0  0  0  0  0  0  0  0  0  0  0  0
  142.5399   73.2995  218.7950 H   0  0  0  0  0  0  0  0  0  0  0  0
  141.0806   73.4319  217.7595 H   0  0  0  0  0  0  0  0  0  0  0  0
  142.7934   74.9053  216.8736 H   0  0  0  0  0  0  0  0  0  0  0  0
  141.5029   75.9118  217.6031 H   0  0  0  0  0  0  0  0  0  0  0  0
  144.3381   75.5467  218.4170 H   0  0  0  0  0  0  0  0  0  0  0  0
  143.1974   76.9064  218.7431 H   0  0  0  0  0  0  0  0  0  0  0  0
  143.5735   74.3119  220.2528 H   0  0  0  0  0  0  0  0  0  0  0  0
  143.6030   76.0436  220.8411 H   0  0  0  0  0  0  0  0  0  0  0  0
  141.6456   74.7797  221.5887 H   0  0  0  0  0  0  0  0  0  0  0  0
  141.6227   77.3050  220.0240 H   0  0  0  0  0  0  0  0  0  0  0  0
  140.0202   76.5620  220.2311 H   0  0  0  0  0  0  0  0  0  0  0  0
  141.5854   77.8338  224.3734 H   0  0  0  0  0  0  0  0  0  0  0  0
  142.3925   80.0913  225.0253 H   0  0  0  0  0  0  0  0  0  0  0  0
  142.7459   81.8102  223.2743 H   0  0  0  0  0  0  0  0  0  0  0  0
  142.3013   81.2893  220.8857 H   0  0  0  0  0  0  0  0  0  0  0  0
  141.4939   79.0172  220.2774 H   0  0  0  0  0  0  0  0  0  0  0  0
  138.3155   69.5425  222.1601 H   0  0  0  0  0  0  0  0  0  0  0  0
  138.8635   67.9745  224.0411 H   0  0  0  0  0  0  0  0  0  0  0  0
  139.8471   67.6007  226.2780 H   0  0  0  0  0  0  0  0  0  0  0  0
  141.5843   70.9589  228.3672 H   0  0  0  0  0  0  0  0  0  0  0  0
  141.0043   72.4430  226.4530 H   0  0  0  0  0  0  0  0  0  0  0  0
  1  2  2  0
  2  3  1  0
  3  4  1  0
  4  5  1  0
  5  6  2  0
  5  7  1  0
  7  8  1  0
  8  9  1  0
  9 10  1  0
 10 11  1  0
 11 12  1  0
 12 13  1  0
 13 14  1  0
 14 15  1  0
 15 16  2  0
 16 17  1  0
 17 18  2  0
 18 19  1  0
 19 20  2  0
  2 21  1  0
 21 22  2  0
 22 23  1  0
 23 24  2  0
 24 25  1  0
 25 26  2  0
 26 27  1  0
 26 28  1  0
 28 29  2  0
 29 30  1  0
 30 31  2  0
 12  7  1  0
 20 15  1  0
 31 21  1  0
 30 24  1  0
  3 32  1  0
  4 33  1  0
  4 34  1  0
  8 35  1  0
  8 36  1  0
  9 37  1  0
  9 38  1  0
 10 39  1  0
 10 40  1  0
 11 41  1  0
 11 42  1  0
 12 43  1  1
 13 44  1  0
 13 45  1  0
 16 46  1  0
 17 47  1  0
 18 48  1  0
 19 49  1  0
 20 50  1  0
 22 51  1  0
 23 52  1  0
 25 53  1  0
 28 54  1  0
 29 55  1  0
M  END
>  <smiles>  (10) 
O=C(NCC(=O)N1CCCC[C@H]1COc1ccccc1)c1ccc2cc(Cl)ccc2n1

>  <score_type>  (10) 
oracle

>  <origin>  (10) 
autodockgpu

>  <m_score__min__energy>  (10) 
-8.5800000000000001

>  <m_primary>  (10) 
energy

>  <rmsd>  (10) 
1.8033747762439352

>  <m_score__min__rmsd>  (10) 
1.8033747762439352

>  <meeko>  (10) 
{"free_energy": -8.06, "intermolecular_energy": -10.15, "internal_energy": -1.64, "cluster_size": 17, "cluster_id": 1, "rank_in_cluster": 6}

>  <energy>  (10) 
-7.74

>  <cluster_rmsd>  (10) 
1.86

>  <cluster>  (10) 
1

$$$$

     RDKit          3D

 55 58  0  0  0  0  0  0  0  0999 V2000
  140.3480   72.5960  220.6930 O   0  0  0  0  0  0  0  0  0  0  0  0
  140.0920   72.8750  221.8850 C   0  0  0  0  0  0  0  0  0  0  0  0
  139.8150   74.2870  222.1300 N   0  0  0  0  0  0  0  0  0  0  0  0
  139.8890   75.1230  220.9720 C   0  0  0  0  0  0  0  0  0  0  0  0
  141.2420   75.4850  220.5730 C   0  0  0  0  0  0  0  0  0  0  0  0
  142.1510   74.7110  221.0970 O   0  0  0  0  0  0  0  0  0  0  0  0
  141.7350   76.4910  219.7420 N   0  0  0  0  0  0  0  0  0  0  0  0
  142.4600   76.3590  218.5030 C   0  0  0  0  0  0  0  0  0  0  0  0
  141.7460   77.1350  217.4280 C   0  0  0  0  0  0  0  0  0  0  0  0
  141.8340   78.6190  217.7530 C   0  0  0  0  0  0  0  0  0  0  0  0
  142.1870   78.8260  219.2120 C   0  0  0  0  0  0  0  0  0  0  0  0
  141.4750   77.8950  220.1440 C   0  0  1  0  0  0  0  0  0  0  0  0
  139.9790   78.1520  220.1360 C   0  0  0  0  0  0  0  0  0  0  0  0
  139.7430   79.2790  220.9820 O   0  0  0  0  0  0  0  0  0  0  0  0
  140.6960   79.5650  221.9400 C   0  0  0  0  0  0  0  0  0  0  0  0
  140.7860   78.7220  223.0270 C   0  0  0  0  0  0  0  0  0  0  0  0
  141.7150   78.9350  224.0360 C   0  0  0  0  0  0  0  0  0  0  0  0
  142.5630   80.0180  223.9410 C   0  0  0  0  0  0  0  0  0  0  0  0
  142.5010   80.8810  222.8670 C   0  0  0  0  0  0  0  0  0  0  0  0
  141.5560   80.6330  221.8780 C   0  0  0  0  0  0  0  0  0  0  0  0
  140.0610   71.9060  222.9700 C   0  0  0  0  0  0  0  0  0  0  0  0
  139.5130   70.6780  222.7110 C   0  0  0  0  0  0  0  0  0  0  0  0
  139.4930   69.7610  223.7650 C   0  0  0  0  0  0  0  0  0  0  0  0
  140.0000   70.0780  225.0130 C   0  0  0  0  0  0  0  0  0  0  0  0
  139.9990   69.2060  226.0750 C   0  0  0  0  0  0  0  0  0  0  0  0
  140.5280   69.5860  227.3120 C   0  0  0  0  0  0  0  0  0  0  0  0
  140.5380   68.4960  228.6780 Cl  0  0  0  0  0  0  0  0  0  0  0  0
  141.0620   70.8690  227.4620 C   0  0  0  0  0  0  0  0  0  0  0  0
  141.0670   71.7550  226.3930 C   0  0  0  0  0  0  0  0  0  0  0  0
  140.5390   71.3560  225.1830 C   0  0  0  0  0  0  0  0  0  0  0  0
  140.5550   72.2280  224.1660 N   0  0  0  0  0  0  0  0  0  0  0  0
  139.5860   74.6030  223.0960 H   0  0  0  0  0  0  0  0  0  0  0  0
  139.4144   74.5916  220.1339 H   0  0  0  0  0  0  0  0  0  0  0  0
  139.3779   76.0619  221.2313 H   0  0  0  0  0  0  0  0  0  0  0  0
  143.4784   76.7553  218.6284 H   0  0  0  0  0  0  0  0  0  0  0  0
  142.5162   75.2980  218.2183 H   0  0  0  0  0  0  0  0  0  0  0  0
  142.2208   76.9410  216.4549 H   0  0  0  0  0  0  0  0  0  0  0  0
  140.6917   76.8248  217.3811 H   0  0  0  0  0  0  0  0  0  0  0  0
  142.6094   79.0813  217.1245 H   0  0  0  0  0  0  0  0  0  0  0  0
  140.8567   79.0836  217.5555 H   0  0  0  0  0  0  0  0  0  0  0  0
  143.2700   78.6752  219.3316 H   0  0  0  0  0  0  0  0  0  0  0  0
  141.8723   79.8464  219.4761 H   0  0  0  0  0  0  0  0  0  0  0  0
  141.8541   78.0710  221.1615 H   0  0  0  0  0  0  0  0  0  0  0  0
  139.6389   78.3701  219.1129 H   0  0  0  0  0  0  0  0  0  0  0  0
  139.4278   77.2702  220.4948 H   0  0  0  0  0  0  0  0  0  0  0  0
  140.1057   77.8604  223.0963 H   0  0  0  0  0  0  0  0  0  0  0  0
  141.7737   78.2519  224.8962 H   0  0  0  0  0  0  0  0  0  0  0  0
  143.3021   80.1969  224.7359 H   0  0  0  0  0  0  0  0  0  0  0  0
  143.1811   81.7425  222.7949 H   0  0  0  0  0  0  0  0  0  0  0  0
  141.4955   81.3153  221.0173 H   0  0  0  0  0  0  0  0  0  0  0  0
  139.1077   70.4255  221.7200 H   0  0  0  0  0  0  0  0  0  0  0  0
  139.0635   68.7621  223.5986 H   0  0  0  0  0  0  0  0  0  0  0  0
  139.5772   68.1977  225.9504 H   0  0  0  0  0  0  0  0  0  0  0  0
  141.4801   71.1781  228.4313 H   0  0  0  0  0  0  0  0  0  0  0  0
  141.4877   72.7646  226.5099 H   0  0  0  0  0  0  0  0  0  0  0  0
  1  2  2  0
  2  3  1  0
  3  4  1  0
  4  5  1  0
  5  6  2  0
  5  7  1  0
  7  8  1  0
  8  9  1  0
  9 10  1  0
 10 11  1  0
 11 12  1  0
 12 13  1  0
 13 14  1  0
 14 15  1  0
 15 16  2  0
 16 17  1  0
 17 18  2  0
 18 19  1  0
 19 20  2  0
  2 21  1  0
 21 22  2  0
 22 23  1  0
 23 24  2  0
 24 25  1  0
 25 26  2  0
 26 27  1  0
 26 28  1  0
 28 29  2  0
 29 30  1  0
 30 31  2  0
 12  7  1  0
 20 15  1  0
 31 21  1  0
 30 24  1  0
  3 32  1  0
  4 33  1  0
  4 34  1  0
  8 35  1  0
  8 36  1  0
  9 37  1  0
  9 38  1  0
 10 39  1  0
 10 40  1  0
 11 41  1  0
 11 42  1  0
 12 43  1  1
 13 44  1  0
 13 45  1  0
 16 46  1  0
 17 47  1  0
 18 48  1  0
 19 49  1  0
 20 50  1  0
 22 51  1  0
 23 52  1  0
 25 53  1  0
 28 54  1  0
 29 55  1  0
M  END
>  <smiles>  (11) 
O=C(NCC(=O)N1CCCC[C@H]1COc1ccccc1)c1ccc2cc(Cl)ccc2n1

>  <score_type>  (11) 
oracle

>  <origin>  (11) 
autodockgpu

>  <m_score__min__energy>  (11) 
-8.5800000000000001

>  <m_primary>  (11) 
energy

>  <rmsd>  (11) 
2.148865547886091

>  <m_score__min__rmsd>  (11) 
2.148865547886091

>  <meeko>  (11) 
{"free_energy": -8.39, "intermolecular_energy": -10.48, "internal_energy": -1.53, "cluster_size": 17, "cluster_id": 1, "rank_in_cluster": 2}

>  <energy>  (11) 
-7.69

>  <cluster_rmsd>  (11) 
1.92

>  <cluster>  (11) 
1

$$$$

     RDKit          3D

 55 58  0  0  0  0  0  0  0  0999 V2000
  139.9100   72.3360  220.7850 O   0  0  0  0  0  0  0  0  0  0  0  0
  139.4460   72.4860  221.9370 C   0  0  0  0  0  0  0  0  0  0  0  0
  138.7010   73.7260  222.1320 N   0  0  0  0  0  0  0  0  0  0  0  0
  138.6270   74.5710  220.9800 C   0  0  0  0  0  0  0  0  0  0  0  0
  138.4890   75.9900  221.2780 C   0  0  0  0  0  0  0  0  0  0  0  0
  137.2580   76.3400  221.5250 O   0  0  0  0  0  0  0  0  0  0  0  0
  139.4210   77.0250  221.3510 N   0  0  0  0  0  0  0  0  0  0  0  0
  139.2650   78.3370  221.9280 C   0  0  0  0  0  0  0  0  0  0  0  0
  140.3520   78.5640  222.9430 C   0  0  0  0  0  0  0  0  0  0  0  0
  141.6910   78.6320  222.2230 C   0  0  0  0  0  0  0  0  0  0  0  0
  141.5840   78.0230  220.8390 C   0  0  0  0  0  0  0  0  0  0  0  0
  140.7710   76.7670  220.7930 C   0  0  1  0  0  0  0  0  0  0  0  0
  141.4380   75.6550  221.5820 C   0  0  0  0  0  0  0  0  0  0  0  0
  141.5630   74.5350  220.7040 O   0  0  0  0  0  0  0  0  0  0  0  0
  142.7870   73.8960  220.6580 C   0  0  0  0  0  0  0  0  0  0  0  0
  143.9080   74.6720  220.4560 C   0  0  0  0  0  0  0  0  0  0  0  0
  145.1770   74.1140  220.3960 C   0  0  0  0  0  0  0  0  0  0  0  0
  145.3100   72.7490  220.5440 C   0  0  0  0  0  0  0  0  0  0  0  0
  144.2100   71.9430  220.7480 C   0  0  0  0  0  0  0  0  0  0  0  0
  142.9560   72.5410  220.8010 C   0  0  0  0  0  0  0  0  0  0  0  0
  139.6110   71.5330  223.0230 C   0  0  0  0  0  0  0  0  0  0  0  0
  139.1920   70.2470  222.8080 C   0  0  0  0  0  0  0  0  0  0  0  0
  139.3590   69.3450  223.8630 C   0  0  0  0  0  0  0  0  0  0  0  0
  139.9190   69.7320  225.0670 C   0  0  0  0  0  0  0  0  0  0  0  0
  140.1010   68.8770  226.1270 C   0  0  0  0  0  0  0  0  0  0  0  0
  140.6740   69.3290  227.3200 C   0  0  0  0  0  0  0  0  0  0  0  0
  140.9140   68.2620  228.6830 Cl  0  0  0  0  0  0  0  0  0  0  0  0
  141.0640   70.6670  227.4260 C   0  0  0  0  0  0  0  0  0  0  0  0
  140.8850   71.5360  226.3580 C   0  0  0  0  0  0  0  0  0  0  0  0
  140.3170   71.0650  225.1930 C   0  0  0  0  0  0  0  0  0  0  0  0
  140.1530   71.9220  224.1760 N   0  0  0  0  0  0  0  0  0  0  0  0
  138.2760   73.9260  223.0620 H   0  0  0  0  0  0  0  0  0  0  0  0
  139.5463   74.4315  220.3923 H   0  0  0  0  0  0  0  0  0  0  0  0
  137.7181   74.2766  220.4347 H   0  0  0  0  0  0  0  0  0  0  0  0
  139.3360   79.0977  221.1366 H   0  0  0  0  0  0  0  0  0  0  0  0
  138.2822   78.4112  222.4165 H   0  0  0  0  0  0  0  0  0  0  0  0
  140.1697   79.5098  223.4742 H   0  0  0  0  0  0  0  0  0  0  0  0
  140.3611   77.7391  223.6707 H   0  0  0  0  0  0  0  0  0  0  0  0
  141.9997   79.6839  222.1322 H   0  0  0  0  0  0  0  0  0  0  0  0
  142.4347   78.0659  222.8030 H   0  0  0  0  0  0  0  0  0  0  0  0
  141.1189   78.7619  220.1699 H   0  0  0  0  0  0  0  0  0  0  0  0
  142.6043   77.7559  220.5267 H   0  0  0  0  0  0  0  0  0  0  0  0
  140.6889   76.4493  219.7431 H   0  0  0  0  0  0  0  0  0  0  0  0
  142.4319   75.9789  221.9246 H   0  0  0  0  0  0  0  0  0  0  0  0
  140.8432   75.3929  222.4694 H   0  0  0  0  0  0  0  0  0  0  0  0
  143.7939   75.7598  220.3395 H   0  0  0  0  0  0  0  0  0  0  0  0
  146.0607   74.7485  220.2334 H   0  0  0  0  0  0  0  0  0  0  0  0
  146.3112   72.2955  220.4985 H   0  0  0  0  0  0  0  0  0  0  0  0
  144.3217   70.8550  220.8658 H   0  0  0  0  0  0  0  0  0  0  0  0
  142.0709   71.9082  220.9627 H   0  0  0  0  0  0  0  0  0  0  0  0
  138.7455   69.9386  221.8512 H   0  0  0  0  0  0  0  0  0  0  0  0
  139.0369   68.3014  223.7323 H   0  0  0  0  0  0  0  0  0  0  0  0
  139.7925   67.8250  226.0363 H   0  0  0  0  0  0  0  0  0  0  0  0
  141.5149   71.0333  228.3601 H   0  0  0  0  0  0  0  0  0  0  0  0
  141.1929   72.5888  226.4403 H   0  0  0  0  0  0  0  0  0  0  0  0
  1  2  2  0
  2  3  1  0
  3  4  1  0
  4  5  1  0
  5  6  2  0
  5  7  1  0
  7  8  1  0
  8  9  1  0
  9 10  1  0
 10 11  1  0
 11 12  1  0
 12 13  1  0
 13 14  1  0
 14 15  1  0
 15 16  2  0
 16 17  1  0
 17 18  2  0
 18 19  1  0
 19 20  2  0
  2 21  1  0
 21 22  2  0
 22 23  1  0
 23 24  2  0
 24 25  1  0
 25 26  2  0
 26 27  1  0
 26 28  1  0
 28 29  2  0
 29 30  1  0
 30 31  2  0
 12  7  1  0
 20 15  1  0
 31 21  1  0
 30 24  1  0
  3 32  1  0
  4 33  1  0
  4 34  1  0
  8 35  1  0
  8 36  1  0
  9 37  1  0
  9 38  1  0
 10 39  1  0
 10 40  1  0
 11 41  1  0
 11 42  1  0
 12 43  1  6
 13 44  1  0
 13 45  1  0
 16 46  1  0
 17 47  1  0
 18 48  1  0
 19 49  1  0
 20 50  1  0
 22 51  1  0
 23 52  1  0
 25 53  1  0
 28 54  1  0
 29 55  1  0
M  END
>  <smiles>  (12) 
O=C(NCC(=O)N1CCCC[C@H]1COc1ccccc1)c1ccc2cc(Cl)ccc2n1

>  <score_type>  (12) 
oracle

>  <origin>  (12) 
autodockgpu

>  <m_score__min__energy>  (12) 
-8.5800000000000001

>  <m_primary>  (12) 
energy

>  <rmsd>  (12) 
2.9323807773662183

>  <m_score__min__rmsd>  (12) 
2.9323807773662183

>  <meeko>  (12) 
{"free_energy": -8.25, "intermolecular_energy": -10.34, "internal_energy": -1.9, "cluster_size": 9, "cluster_id": 3, "rank_in_cluster": 3}

>  <energy>  (12) 
-7.61

>  <cluster_rmsd>  (12) 
1.62

>  <cluster>  (12) 
1

$$$$

     RDKit          3D

 55 58  0  0  0  0  0  0  0  0999 V2000
  139.3790   72.2900  220.9600 O   0  0  0  0  0  0  0  0  0  0  0  0
  138.8260   72.3010  222.0820 C   0  0  0  0  0  0  0  0  0  0  0  0
  137.8120   73.3380  222.2460 N   0  0  0  0  0  0  0  0  0  0  0  0
  137.6200   74.1770  221.1040 C   0  0  0  0  0  0  0  0  0  0  0  0
  138.6090   75.2370  220.9590 C   0  0  0  0  0  0  0  0  0  0  0  0
  138.1980   76.3830  221.4220 O   0  0  0  0  0  0  0  0  0  0  0  0
  139.8990   75.2460  220.4270 N   0  0  0  0  0  0  0  0  0  0  0  0
  140.3050   75.4370  219.0570 C   0  0  0  0  0  0  0  0  0  0  0  0
  141.2940   76.5700  218.9880 C   0  0  0  0  0  0  0  0  0  0  0  0
  142.5720   76.1510  219.6990 C   0  0  0  0  0  0  0  0  0  0  0  0
  142.3120   74.9670  220.6110 C   0  0  0  0  0  0  0  0  0  0  0  0
  141.0270   75.0630  221.3720 C   0  0  1  0  0  0  0  0  0  0  0  0
  141.0570   76.2220  222.3510 C   0  0  0  0  0  0  0  0  0  0  0  0
  140.8010   77.4110  221.6010 O   0  0  0  0  0  0  0  0  0  0  0  0
  141.3280   78.5930  222.0820 C   0  0  0  0  0  0  0  0  0  0  0  0
  141.6250   78.6620  223.4260 C   0  0  0  0  0  0  0  0  0  0  0  0
  142.1580   79.8110  223.9940 C   0  0  0  0  0  0  0  0  0  0  0  0
  142.3940   80.9040  223.1880 C   0  0  0  0  0  0  0  0  0  0  0  0
  142.1090   80.8690  221.8390 C   0  0  0  0  0  0  0  0  0  0  0  0
  141.5760   79.7000  221.3080 C   0  0  0  0  0  0  0  0  0  0  0  0
  139.1340   71.3780  223.1630 C   0  0  0  0  0  0  0  0  0  0  0  0
  138.7360   70.0750  223.0190 C   0  0  0  0  0  0  0  0  0  0  0  0
  139.0420   69.2030  224.0670 C   0  0  0  0  0  0  0  0  0  0  0  0
  139.7130   69.6340  225.1970 C   0  0  0  0  0  0  0  0  0  0  0  0
  140.0330   68.8090  226.2490 C   0  0  0  0  0  0  0  0  0  0  0  0
  140.7140   69.3050  227.3650 C   0  0  0  0  0  0  0  0  0  0  0  0
  141.1310   68.2770  228.7150 Cl  0  0  0  0  0  0  0  0  0  0  0  0
  141.0720   70.6560  227.4020 C   0  0  0  0  0  0  0  0  0  0  0  0
  140.7530   71.4940  226.3430 C   0  0  0  0  0  0  0  0  0  0  0  0
  140.0800   70.9810  225.2540 C   0  0  0  0  0  0  0  0  0  0  0  0
  139.7830   71.8090  224.2440 N   0  0  0  0  0  0  0  0  0  0  0  0
  137.2980   73.4120  223.1500 H   0  0  0  0  0  0  0  0  0  0  0  0
  137.6585   73.5459  220.2039 H   0  0  0  0  0  0  0  0  0  0  0  0
  136.6478   74.6732  221.2407 H   0  0  0  0  0  0  0  0  0  0  0  0
  140.7736   74.5159  218.6802 H   0  0  0  0  0  0  0  0  0  0  0  0
  139.4258   75.6754  218.4404 H   0  0  0  0  0  0  0  0  0  0  0  0
  141.5159   76.8032  217.9362 H   0  0  0  0  0  0  0  0  0  0  0  0
  140.8728   77.4630  219.4729 H   0  0  0  0  0  0  0  0  0  0  0  0
  143.3274   75.8713  218.9499 H   0  0  0  0  0  0  0  0  0  0  0  0
  142.9326   76.9941  220.3065 H   0  0  0  0  0  0  0  0  0  0  0  0
  142.2841   74.0551  219.9964 H   0  0  0  0  0  0  0  0  0  0  0  0
  143.1238   74.9491  221.3530 H   0  0  0  0  0  0  0  0  0  0  0  0
  140.8935   74.1301  221.9394 H   0  0  0  0  0  0  0  0  0  0  0  0
  140.2823   76.0867  223.1201 H   0  0  0  0  0  0  0  0  0  0  0  0
  142.0310   76.2810  222.8588 H   0  0  0  0  0  0  0  0  0  0  0  0
  141.4352   77.7860  224.0636 H   0  0  0  0  0  0  0  0  0  0  0  0
  142.3881   79.8486  225.0690 H   0  0  0  0  0  0  0  0  0  0  0  0
  142.8166   81.8193  223.6280 H   0  0  0  0  0  0  0  0  0  0  0  0
  142.2986   81.7438  221.1996 H   0  0  0  0  0  0  0  0  0  0  0  0
  141.3455   79.6604  220.2332 H   0  0  0  0  0  0  0  0  0  0  0  0
  138.2011   69.7317  222.1212 H   0  0  0  0  0  0  0  0  0  0  0  0
  138.7418   68.1475  223.9914 H   0  0  0  0  0  0  0  0  0  0  0  0
  139.7501   67.7466  226.2124 H   0  0  0  0  0  0  0  0  0  0  0  0
  141.6090   71.0564  228.2745 H   0  0  0  0  0  0  0  0  0  0  0  0
  141.0342   72.5571  226.3718 H   0  0  0  0  0  0  0  0  0  0  0  0
  1  2  2  0
  2  3  1  0
  3  4  1  0
  4  5  1  0
  5  6  2  0
  5  7  1  0
  7  8  1  0
  8  9  1  0
  9 10  1  0
 10 11  1  0
 11 12  1  0
 12 13  1  0
 13 14  1  0
 14 15  1  0
 15 16  2  0
 16 17  1  0
 17 18  2  0
 18 19  1  0
 19 20  2  0
  2 21  1  0
 21 22  2  0
 22 23  1  0
 23 24  2  0
 24 25  1  0
 25 26  2  0
 26 27  1  0
 26 28  1  0
 28 29  2  0
 29 30  1  0
 30 31  2  0
 12  7  1  0
 20 15  1  0
 31 21  1  0
 30 24  1  0
  3 32  1  0
  4 33  1  0
  4 34  1  0
  8 35  1  0
  8 36  1  0
  9 37  1  0
  9 38  1  0
 10 39  1  0
 10 40  1  0
 11 41  1  0
 11 42  1  0
 12 43  1  1
 13 44  1  0
 13 45  1  0
 16 46  1  0
 17 47  1  0
 18 48  1  0
 19 49  1  0
 20 50  1  0
 22 51  1  0
 23 52  1  0
 25 53  1  0
 28 54  1  0
 29 55  1  0
M  END
>  <smiles>  (13) 
O=C(NCC(=O)N1CCCC[C@H]1COc1ccccc1)c1ccc2cc(Cl)ccc2n1

>  <score_type>  (13) 
oracle

>  <origin>  (13) 
autodockgpu

>  <m_score__min__energy>  (13) 
-8.5800000000000001

>  <m_primary>  (13) 
energy

>  <rmsd>  (13) 
1.914856221353573

>  <m_score__min__rmsd>  (13) 
1.914856221353573

>  <meeko>  (13) 
{"free_energy": -8.06, "intermolecular_energy": -10.15, "internal_energy": -1.83, "cluster_size": 17, "cluster_id": 1, "rank_in_cluster": 5}

>  <energy>  (13) 
-7.48

>  <cluster_rmsd>  (13) 
1.46

>  <cluster>  (13) 
1

$$$$

     RDKit          3D

 55 58  0  0  0  0  0  0  0  0999 V2000
  138.2160   71.6780  220.7930 O   0  0  0  0  0  0  0  0  0  0  0  0
  138.6530   72.0950  221.8890 C   0  0  0  0  0  0  0  0  0  0  0  0
  138.8320   73.5420  221.9560 N   0  0  0  0  0  0  0  0  0  0  0  0
  138.4880   74.2470  220.7600 C   0  0  0  0  0  0  0  0  0  0  0  0
  139.4340   74.0790  219.6650 C   0  0  0  0  0  0  0  0  0  0  0  0
  138.9120   74.3350  218.4990 O   0  0  0  0  0  0  0  0  0  0  0  0
  140.7770   73.7030  219.6390 N   0  0  0  0  0  0  0  0  0  0  0  0
  141.5510   73.2070  218.5290 C   0  0  0  0  0  0  0  0  0  0  0  0
  142.7720   74.0680  218.3540 C   0  0  0  0  0  0  0  0  0  0  0  0
  143.6850   73.8770  219.5560 C   0  0  0  0  0  0  0  0  0  0  0  0
  142.9190   73.2720  220.7170 C   0  0  0  0  0  0  0  0  0  0  0  0
  141.5480   73.8440  220.8990 C   0  0  1  0  0  0  0  0  0  0  0  0
  141.6140   75.3100  221.2880 C   0  0  0  0  0  0  0  0  0  0  0  0
  140.6480   75.5130  222.3210 O   0  0  0  0  0  0  0  0  0  0  0  0
  140.3480   76.8160  222.6640 C   0  0  0  0  0  0  0  0  0  0  0  0
  141.3800   77.6190  223.0980 C   0  0  0  0  0  0  0  0  0  0  0  0
  141.1680   78.9420  223.4630 C   0  0  0  0  0  0  0  0  0  0  0  0
  139.8920   79.4560  223.3850 C   0  0  0  0  0  0  0  0  0  0  0  0
  138.8360   78.6810  222.9540 C   0  0  0  0  0  0  0  0  0  0  0  0
  139.0890   77.3610  222.5980 C   0  0  0  0  0  0  0  0  0  0  0  0
  138.9700   71.2480  223.0270 C   0  0  0  0  0  0  0  0  0  0  0  0
  138.5040   69.9600  223.0100 C   0  0  0  0  0  0  0  0  0  0  0  0
  138.8190   69.1600  224.1120 C   0  0  0  0  0  0  0  0  0  0  0  0
  139.5640   69.6450  225.1710 C   0  0  0  0  0  0  0  0  0  0  0  0
  139.8950   68.8930  226.2720 C   0  0  0  0  0  0  0  0  0  0  0  0
  140.6530   69.4410  227.3110 C   0  0  0  0  0  0  0  0  0  0  0  0
  141.0860   68.5050  228.7220 Cl  0  0  0  0  0  0  0  0  0  0  0  0
  141.0750   70.7700  227.2210 C   0  0  0  0  0  0  0  0  0  0  0  0
  140.7460   71.5360  226.1110 C   0  0  0  0  0  0  0  0  0  0  0  0
  139.9970   70.9720  225.1000 C   0  0  0  0  0  0  0  0  0  0  0  0
  139.6900   71.7310  224.0390 N   0  0  0  0  0  0  0  0  0  0  0  0
  139.1860   73.9730  222.8370 H   0  0  0  0  0  0  0  0  0  0  0  0
  137.5042   73.8896  220.4217 H   0  0  0  0  0  0  0  0  0  0  0  0
  138.4931   75.3169  221.0157 H   0  0  0  0  0  0  0  0  0  0  0  0
  141.8577   72.1697  218.7286 H   0  0  0  0  0  0  0  0  0  0  0  0
  140.9436   73.2361  217.6124 H   0  0  0  0  0  0  0  0  0  0  0  0
  143.3029   73.7741  217.4365 H   0  0  0  0  0  0  0  0  0  0  0  0
  142.4754   75.1243  218.2749 H   0  0  0  0  0  0  0  0  0  0  0  0
  144.5115   73.2060  219.2792 H   0  0  0  0  0  0  0  0  0  0  0  0
  144.0777   74.8577  219.8626 H   0  0  0  0  0  0  0  0  0  0  0  0
  142.8232   72.1900  220.5432 H   0  0  0  0  0  0  0  0  0  0  0  0
  143.4866   73.5028  221.6306 H   0  0  0  0  0  0  0  0  0  0  0  0
  141.0496   73.2906  221.7085 H   0  0  0  0  0  0  0  0  0  0  0  0
  142.6200   75.5576  221.6578 H   0  0  0  0  0  0  0  0  0  0  0  0
  141.4038   75.9553  220.4223 H   0  0  0  0  0  0  0  0  0  0  0  0
  142.3963   77.2022  223.1568 H   0  0  0  0  0  0  0  0  0  0  0  0
  142.0038   79.5684  223.8082 H   0  0  0  0  0  0  0  0  0  0  0  0
  139.7126   80.5028  223.6715 H   0  0  0  0  0  0  0  0  0  0  0  0
  137.8193   79.0965  222.8934 H   0  0  0  0  0  0  0  0  0  0  0  0
  138.2544   76.7332  222.2526 H   0  0  0  0  0  0  0  0  0  0  0  0
  137.9099   69.5735  222.1688 H   0  0  0  0  0  0  0  0  0  0  0  0
  138.4654   68.1187  224.1374 H   0  0  0  0  0  0  0  0  0  0  0  0
  139.5597   67.8474  226.3368 H   0  0  0  0  0  0  0  0  0  0  0  0
  141.6707   71.2114  228.0336 H   0  0  0  0  0  0  0  0  0  0  0  0
  141.0793   72.5818  226.0387 H   0  0  0  0  0  0  0  0  0  0  0  0
  1  2  2  0
  2  3  1  0
  3  4  1  0
  4  5  1  0
  5  6  2  0
  5  7  1  0
  7  8  1  0
  8  9  1  0
  9 10  1  0
 10 11  1  0
 11 12  1  0
 12 13  1  0
 13 14  1  0
 14 15  1  0
 15 16  2  0
 16 17  1  0
 17 18  2  0
 18 19  1  0
 19 20  2  0
  2 21  1  0
 21 22  2  0
 22 23  1  0
 23 24  2  0
 24 25  1  0
 25 26  2  0
 26 27  1  0
 26 28  1  0
 28 29  2  0
 29 30  1  0
 30 31  2  0
 12  7  1  0
 20 15  1  0
 31 21  1  0
 30 24  1  0
  3 32  1  0
  4 33  1  0
  4 34  1  0
  8 35  1  0
  8 36  1  0
  9 37  1  0
  9 38  1  0
 10 39  1  0
 10 40  1  0
 11 41  1  0
 11 42  1  0
 12 43  1  1
 13 44  1  0
 13 45  1  0
 16 46  1  0
 17 47  1  0
 18 48  1  0
 19 49  1  0
 20 50  1  0
 22 51  1  0
 23 52  1  0
 25 53  1  0
 28 54  1  0
 29 55  1  0
M  END
>  <smiles>  (14) 
O=C(NCC(=O)N1CCCC[C@H]1COc1ccccc1)c1ccc2cc(Cl)ccc2n1

>  <score_type>  (14) 
oracle

>  <origin>  (14) 
autodockgpu

>  <m_score__min__energy>  (14) 
-8.5800000000000001

>  <m_primary>  (14) 
energy

>  <rmsd>  (14) 
2.284201207549799

>  <m_score__min__rmsd>  (14) 
2.284201207549799

>  <meeko>  (14) 
{"free_energy": -7.37, "intermolecular_energy": -9.45, "internal_energy": -2.7, "cluster_size": 17, "cluster_id": 1, "rank_in_cluster": 14}

>  <energy>  (14) 
-7.37

>  <cluster_rmsd>  (14) 
1.7

>  <cluster>  (14) 
1

$$$$

     RDKit          3D

 55 58  0  0  0  0  0  0  0  0999 V2000
  141.3910   73.1480  220.5890 O   0  0  0  0  0  0  0  0  0  0  0  0
  140.7930   74.0070  221.2730 C   0  0  0  0  0  0  0  0  0  0  0  0
  139.7450   73.4710  222.1370 N   0  0  0  0  0  0  0  0  0  0  0  0
  139.5660   72.0540  222.0550 C   0  0  0  0  0  0  0  0  0  0  0  0
  139.1390   71.4260  223.2980 C   0  0  0  0  0  0  0  0  0  0  0  0
  140.0710   71.4160  224.2090 O   0  0  0  0  0  0  0  0  0  0  0  0
  137.9310   70.8460  223.6860 N   0  0  0  0  0  0  0  0  0  0  0  0
  136.5910   71.2230  223.3120 C   0  0  0  0  0  0  0  0  0  0  0  0
  135.8840   70.0280  222.7320 C   0  0  0  0  0  0  0  0  0  0  0  0
  135.6850   68.9940  223.8320 C   0  0  0  0  0  0  0  0  0  0  0  0
  136.6170   69.2680  224.9960 C   0  0  0  0  0  0  0  0  0  0  0  0
  137.9990   69.6670  224.5830 C   0  0  1  0  0  0  0  0  0  0  0  0
  138.7050   68.5300  223.8680 C   0  0  0  0  0  0  0  0  0  0  0  0
  139.1840   67.6350  224.8740 O   0  0  0  0  0  0  0  0  0  0  0  0
  139.7970   68.1900  225.9800 C   0  0  0  0  0  0  0  0  0  0  0  0
  140.7250   69.1870  225.7660 C   0  0  0  0  0  0  0  0  0  0  0  0
  141.3880   69.8000  226.8200 C   0  0  0  0  0  0  0  0  0  0  0  0
  141.1050   69.3970  228.1080 C   0  0  0  0  0  0  0  0  0  0  0  0
  140.1810   68.4040  228.3580 C   0  0  0  0  0  0  0  0  0  0  0  0
  139.5390   67.8150  227.2750 C   0  0  0  0  0  0  0  0  0  0  0  0
  141.0830   75.4320  221.2450 C   0  0  0  0  0  0  0  0  0  0  0  0
  141.9200   75.8910  220.2620 C   0  0  0  0  0  0  0  0  0  0  0  0
  142.1860   77.2630  220.2500 C   0  0  0  0  0  0  0  0  0  0  0  0
  141.6330   78.1170  221.1860 C   0  0  0  0  0  0  0  0  0  0  0  0
  141.8700   79.4710  221.2090 C   0  0  0  0  0  0  0  0  0  0  0  0
  141.2800   80.2840  222.1820 C   0  0  0  0  0  0  0  0  0  0  0  0
  141.5650   82.0070  222.2330 Cl  0  0  0  0  0  0  0  0  0  0  0  0
  140.4410   79.7040  223.1390 C   0  0  0  0  0  0  0  0  0  0  0  0
  140.1970   78.3380  223.1210 C   0  0  0  0  0  0  0  0  0  0  0  0
  140.7910   77.5590  222.1510 C   0  0  0  0  0  0  0  0  0  0  0  0
  140.5410   76.2420  222.1540 N   0  0  0  0  0  0  0  0  0  0  0  0
  139.2020   74.1200  222.7450 H   0  0  0  0  0  0  0  0  0  0  0  0
  138.8059   71.8476  221.2871 H   0  0  0  0  0  0  0  0  0  0  0  0
  140.5505   71.6280  221.8114 H   0  0  0  0  0  0  0  0  0  0  0  0
  136.0470   71.5769  224.2001 H   0  0  0  0  0  0  0  0  0  0  0  0
  136.6291   72.0286  222.5640 H   0  0  0  0  0  0  0  0  0  0  0  0
  134.9064   70.3350  222.3319 H   0  0  0  0  0  0  0  0  0  0  0  0
  136.4852   69.5968  221.9180 H   0  0  0  0  0  0  0  0  0  0  0  0
  134.6439   69.0368  224.1845 H   0  0  0  0  0  0  0  0  0  0  0  0
  135.9082   67.9964  223.4259 H   0  0  0  0  0  0  0  0  0  0  0  0
  136.1875   70.0807  225.6002 H   0  0  0  0  0  0  0  0  0  0  0  0
  136.7102   68.3280  225.5596 H   0  0  0  0  0  0  0  0  0  0  0  0
  138.5699   69.9172  225.4893 H   0  0  0  0  0  0  0  0  0  0  0  0
  138.0017   68.0081  223.2024 H   0  0  0  0  0  0  0  0  0  0  0  0
  139.5348   68.9089  223.2533 H   0  0  0  0  0  0  0  0  0  0  0  0
  140.9450   69.5040  224.7359 H   0  0  0  0  0  0  0  0  0  0  0  0
  142.1262   70.5934  226.6312 H   0  0  0  0  0  0  0  0  0  0  0  0
  141.6252   69.8758  228.9507 H   0  0  0  0  0  0  0  0  0  0  0  0
  139.9580   68.0865  229.3873 H   0  0  0  0  0  0  0  0  0  0  0  0
  138.7998   67.0222  227.4618 H   0  0  0  0  0  0  0  0  0  0  0  0
  142.3615   75.2120  219.5177 H   0  0  0  0  0  0  0  0  0  0  0  0
  142.8519   77.6735  219.4766 H   0  0  0  0  0  0  0  0  0  0  0  0
  142.5313   79.9201  220.4534 H   0  0  0  0  0  0  0  0  0  0  0  0
  139.9723   80.3336  223.9096 H   0  0  0  0  0  0  0  0  0  0  0  0
  139.5365   77.8815  223.8729 H   0  0  0  0  0  0  0  0  0  0  0  0
  1  2  2  0
  2  3  1  0
  3  4  1  0
  4  5  1  0
  5  6  2  0
  5  7  1  0
  7  8  1  0
  8  9  1  0
  9 10  1  0
 10 11  1  0
 11 12  1  0
 12 13  1  0
 13 14  1  0
 14 15  1  0
 15 16  2  0
 16 17  1  0
 17 18  2  0
 18 19  1  0
 19 20  2  0
  2 21  1  0
 21 22  2  0
 22 23  1  0
 23 24  2  0
 24 25  1  0
 25 26  2  0
 26 27  1  0
 26 28  1  0
 28 29  2  0
 29 30  1  0
 30 31  2  0
 12  7  1  0
 20 15  1  0
 31 21  1  0
 30 24  1  0
  3 32  1  0
  4 33  1  0
  4 34  1  0
  8 35  1  0
  8 36  1  0
  9 37  1  0
  9 38  1  0
 10 39  1  0
 10 40  1  0
 11 41  1  0
 11 42  1  0
 12 43  1  1
 13 44  1  0
 13 45  1  0
 16 46  1  0
 17 47  1  0
 18 48  1  0
 19 49  1  0
 20 50  1  0
 22 51  1  0
 23 52  1  0
 25 53  1  0
 28 54  1  0
 29 55  1  0
M  END
>  <smiles>  (15) 
O=C(NCC(=O)N1CCCC[C@H]1COc1ccccc1)c1ccc2cc(Cl)ccc2n1

>  <score_type>  (15) 
oracle

>  <origin>  (15) 
autodockgpu

>  <m_score__min__energy>  (15) 
-8.5800000000000001

>  <m_primary>  (15) 
energy

>  <rmsd>  (15) 
8.303967739756082

>  <m_score__min__rmsd>  (15) 
8.303967739756082

>  <meeko>  (15) 
{"free_energy": -8.51, "intermolecular_energy": -10.59, "internal_energy": -1.66, "cluster_size": 2, "cluster_id": 2, "rank_in_cluster": 1}

>  <energy>  (15) 
-7.36

>  <cluster_rmsd>  (15) 
1.85

>  <cluster>  (15) 
1

$$$$

     RDKit          3D

 55 58  0  0  0  0  0  0  0  0999 V2000
  138.8930   77.7160  222.4840 O   0  0  0  0  0  0  0  0  0  0  0  0
  139.6580   76.7330  222.3680 C   0  0  0  0  0  0  0  0  0  0  0  0
  141.0740   77.0450  222.5410 N   0  0  0  0  0  0  0  0  0  0  0  0
  141.3580   78.4210  222.8070 C   0  0  0  0  0  0  0  0  0  0  0  0
  141.9340   79.1480  221.6840 C   0  0  0  0  0  0  0  0  0  0  0  0
  142.8750   79.9760  222.0430 O   0  0  0  0  0  0  0  0  0  0  0  0
  141.6690   79.1180  220.3150 N   0  0  0  0  0  0  0  0  0  0  0  0
  141.6500   80.2120  219.3770 C   0  0  0  0  0  0  0  0  0  0  0  0
  142.5840   79.9030  218.2380 C   0  0  0  0  0  0  0  0  0  0  0  0
  142.0240   78.7290  217.4480 C   0  0  0  0  0  0  0  0  0  0  0  0
  140.9990   77.9730  218.2710 C   0  0  0  0  0  0  0  0  0  0  0  0
  141.3890   77.7940  219.7050 C   0  0  1  0  0  0  0  0  0  0  0  0
  142.6170   76.9120  219.8320 C   0  0  0  0  0  0  0  0  0  0  0  0
  142.1860   75.6750  220.4050 O   0  0  0  0  0  0  0  0  0  0  0  0
  143.1050   74.6460  220.4600 C   0  0  0  0  0  0  0  0  0  0  0  0
  144.4420   74.9790  220.4670 C   0  0  0  0  0  0  0  0  0  0  0  0
  145.4330   74.0090  220.5220 C   0  0  0  0  0  0  0  0  0  0  0  0
  145.0620   72.6820  220.5700 C   0  0  0  0  0  0  0  0  0  0  0  0
  143.7330   72.3130  220.5650 C   0  0  0  0  0  0  0  0  0  0  0  0
  142.7710   73.3150  220.5090 C   0  0  0  0  0  0  0  0  0  0  0  0
  139.2200   75.3760  222.0840 C   0  0  0  0  0  0  0  0  0  0  0  0
  137.9670   75.2100  221.5550 C   0  0  0  0  0  0  0  0  0  0  0  0
  137.5630   73.8990  221.2890 C   0  0  0  0  0  0  0  0  0  0  0  0
  138.3880   72.8190  221.5470 C   0  0  0  0  0  0  0  0  0  0  0  0
  138.0290   71.5160  221.3000 C   0  0  0  0  0  0  0  0  0  0  0  0
  138.9080   70.4660  221.5830 C   0  0  0  0  0  0  0  0  0  0  0  0
  138.4760   68.8010  221.2780 Cl  0  0  0  0  0  0  0  0  0  0  0  0
  140.1650   70.7550  222.1220 C   0  0  0  0  0  0  0  0  0  0  0  0
  140.5340   72.0690  222.3740 C   0  0  0  0  0  0  0  0  0  0  0  0
  139.6490   73.0860  222.0870 C   0  0  0  0  0  0  0  0  0  0  0  0
  140.0270   74.3470  222.3380 N   0  0  0  0  0  0  0  0  0  0  0  0
  141.7790   76.2810  222.4650 H   0  0  0  0  0  0  0  0  0  0  0  0
  140.4181   78.9168  223.0913 H   0  0  0  0  0  0  0  0  0  0  0  0
  142.1119   78.4352  223.6079 H   0  0  0  0  0  0  0  0  0  0  0  0
  140.6293   80.3469  218.9897 H   0  0  0  0  0  0  0  0  0  0  0  0
  141.9727   81.1357  219.8796 H   0  0  0  0  0  0  0  0  0  0  0  0
  142.6706   80.7819  217.5823 H   0  0  0  0  0  0  0  0  0  0  0  0
  143.5796   79.6481  218.6302 H   0  0  0  0  0  0  0  0  0  0  0  0
  141.5458   79.1051  216.5315 H   0  0  0  0  0  0  0  0  0  0  0  0
  142.8485   78.0465  217.1941 H   0  0  0  0  0  0  0  0  0  0  0  0
  140.0494   78.5271  218.2364 H   0  0  0  0  0  0  0  0  0  0  0  0
  140.9156   76.9671  217.8336 H   0  0  0  0  0  0  0  0  0  0  0  0
  140.5539   77.3068  220.2297 H   0  0  0  0  0  0  0  0  0  0  0  0
  143.0593   76.7352  218.8405 H   0  0  0  0  0  0  0  0  0  0  0  0
  143.3810   77.3912  220.4619 H   0  0  0  0  0  0  0  0  0  0  0  0
  144.7310   76.0396  220.4280 H   0  0  0  0  0  0  0  0  0  0  0  0
  146.4955   74.2938  220.5272 H   0  0  0  0  0  0  0  0  0  0  0  0
  145.8389   71.9045  220.6130 H   0  0  0  0  0  0  0  0  0  0  0  0
  143.4418   71.2530  220.6043 H   0  0  0  0  0  0  0  0  0  0  0  0
  141.7079   73.0325  220.5038 H   0  0  0  0  0  0  0  0  0  0  0  0
  137.3102   76.0681  221.3494 H   0  0  0  0  0  0  0  0  0  0  0  0
  136.5641   73.7214  220.8639 H   0  0  0  0  0  0  0  0  0  0  0  0
  137.0386   71.2963  220.8747 H   0  0  0  0  0  0  0  0  0  0  0  0
  140.8650   69.9370  222.3475 H   0  0  0  0  0  0  0  0  0  0  0  0
  141.5229   72.2966  222.7985 H   0  0  0  0  0  0  0  0  0  0  0  0
  1  2  2  0
  2  3  1  0
  3  4  1  0
  4  5  1  0
  5  6  2  0
  5  7  1  0
  7  8  1  0
  8  9  1  0
  9 10  1  0
 10 11  1  0
 11 12  1  0
 12 13  1  0
 13 14  1  0
 14 15  1  0
 15 16  2  0
 16 17  1  0
 17 18  2  0
 18 19  1  0
 19 20  2  0
  2 21  1  0
 21 22  2  0
 22 23  1  0
 23 24  2  0
 24 25  1  0
 25 26  2  0
 26 27  1  0
 26 28  1  0
 28 29  2  0
 29 30  1  0
 30 31  2  0
 12  7  1  0
 20 15  1  0
 31 21  1  0
 30 24  1  0
  3 32  1  0
  4 33  1  0
  4 34  1  0
  8 35  1  0
  8 36  1  0
  9 37  1  0
  9 38  1  0
 10 39  1  0
 10 40  1  0
 11 41  1  0
 11 42  1  0
 12 43  1  1
 13 44  1  0
 13 45  1  0
 16 46  1  0
 17 47  1  0
 18 48  1  0
 19 49  1  0
 20 50  1  0
 22 51  1  0
 23 52  1  0
 25 53  1  0
 28 54  1  0
 29 55  1  0
M  END
>  <smiles>  (16) 
O=C(NCC(=O)N1CCCC[C@H]1COc1ccccc1)c1ccc2cc(Cl)ccc2n1

>  <score_type>  (16) 
oracle

>  <origin>  (16) 
autodockgpu

>  <m_score__min__energy>  (16) 
-8.5800000000000001

>  <m_primary>  (16) 
energy

>  <rmsd>  (16) 
5.403445868524469

>  <m_score__min__rmsd>  (16) 
5.403445868524469

>  <meeko>  (16) 
{"free_energy": -6.42, "intermolecular_energy": -8.51, "internal_energy": -3.23, "cluster_size": 1, "cluster_id": 9, "rank_in_cluster": 1}

>  <energy>  (16) 
-7.26

>  <cluster_rmsd>  (16) 
1.8

>  <cluster>  (16) 
1

$$$$

     RDKit          3D

 55 58  0  0  0  0  0  0  0  0999 V2000
  138.1780   75.5010  222.6910 O   0  0  0  0  0  0  0  0  0  0  0  0
  139.2890   75.7930  222.1960 C   0  0  0  0  0  0  0  0  0  0  0  0
  139.5560   77.2250  222.1110 N   0  0  0  0  0  0  0  0  0  0  0  0
  138.5040   78.0630  222.5990 C   0  0  0  0  0  0  0  0  0  0  0  0
  138.9580   79.2630  223.2880 C   0  0  0  0  0  0  0  0  0  0  0  0
  137.9840   79.9280  223.8450 O   0  0  0  0  0  0  0  0  0  0  0  0
  140.2250   79.8210  223.4620 N   0  0  0  0  0  0  0  0  0  0  0  0
  141.3530   79.2840  224.1800 C   0  0  0  0  0  0  0  0  0  0  0  0
  142.5440   79.2330  223.2620 C   0  0  0  0  0  0  0  0  0  0  0  0
  142.9640   80.6560  222.9220 C   0  0  0  0  0  0  0  0  0  0  0  0
  141.8400   81.6290  223.2170 C   0  0  0  0  0  0  0  0  0  0  0  0
  140.4880   81.1290  222.8130 C   0  0  1  0  0  0  0  0  0  0  0  0
  140.3900   80.9720  221.3070 C   0  0  0  0  0  0  0  0  0  0  0  0
  140.5910   79.5880  221.0160 O   0  0  0  0  0  0  0  0  0  0  0  0
  141.3700   79.2750  219.9190 C   0  0  0  0  0  0  0  0  0  0  0  0
  141.7500   77.9600  219.7560 C   0  0  0  0  0  0  0  0  0  0  0  0
  142.5320   77.5570  218.6830 C   0  0  0  0  0  0  0  0  0  0  0  0
  142.9330   78.5010  217.7620 C   0  0  0  0  0  0  0  0  0  0  0  0
  142.5710   79.8250  217.8930 C   0  0  0  0  0  0  0  0  0  0  0  0
  141.7870   80.1880  218.9830 C   0  0  0  0  0  0  0  0  0  0  0  0
  140.2650   74.8200  221.7300 C   0  0  0  0  0  0  0  0  0  0  0  0
  139.9180   73.4960  221.7820 C   0  0  0  0  0  0  0  0  0  0  0  0
  140.8680   72.5770  221.3300 C   0  0  0  0  0  0  0  0  0  0  0  0
  142.1010   72.9830  220.8530 C   0  0  0  0  0  0  0  0  0  0  0  0
  143.0620   72.1120  220.3990 C   0  0  0  0  0  0  0  0  0  0  0  0
  144.2900   72.5840  219.9270 C   0  0  0  0  0  0  0  0  0  0  0  0
  145.5290   71.4970  219.3460 Cl  0  0  0  0  0  0  0  0  0  0  0  0
  144.5350   73.9610  219.9200 C   0  0  0  0  0  0  0  0  0  0  0  0
  143.5690   74.8460  220.3760 C   0  0  0  0  0  0  0  0  0  0  0  0
  142.3660   74.3550  220.8370 C   0  0  0  0  0  0  0  0  0  0  0  0
  141.4480   75.2290  221.2720 N   0  0  0  0  0  0  0  0  0  0  0  0
  140.4630   77.5540  221.7160 H   0  0  0  0  0  0  0  0  0  0  0  0
  137.8855   78.3714  221.7432 H   0  0  0  0  0  0  0  0  0  0  0  0
  137.9485   77.4685  223.3393 H   0  0  0  0  0  0  0  0  0  0  0  0
  141.5805   79.9276  225.0426 H   0  0  0  0  0  0  0  0  0  0  0  0
  141.1165   78.2703  224.5357 H   0  0  0  0  0  0  0  0  0  0  0  0
  143.3739   78.7123  223.7621 H   0  0  0  0  0  0  0  0  0  0  0  0
  142.2826   78.6909  222.3412 H   0  0  0  0  0  0  0  0  0  0  0  0
  143.8439   80.9268  223.5241 H   0  0  0  0  0  0  0  0  0  0  0  0
  143.2057   80.7078  221.8501 H   0  0  0  0  0  0  0  0  0  0  0  0
  141.8276   81.8273  224.2989 H   0  0  0  0  0  0  0  0  0  0  0  0
  142.0368   82.5354  222.6257 H   0  0  0  0  0  0  0  0  0  0  0  0
  139.7388   81.8667  223.1362 H   0  0  0  0  0  0  0  0  0  0  0  0
  139.3967   81.2907  220.9581 H   0  0  0  0  0  0  0  0  0  0  0  0
  141.1424   81.5927  220.7984 H   0  0  0  0  0  0  0  0  0  0  0  0
  141.4254   77.2121  220.4944 H   0  0  0  0  0  0  0  0  0  0  0  0
  142.8266   76.5033  218.5694 H   0  0  0  0  0  0  0  0  0  0  0  0
  143.5529   78.1925  216.9072 H   0  0  0  0  0  0  0  0  0  0  0  0
  142.8937   80.5742  217.1551 H   0  0  0  0  0  0  0  0  0  0  0  0
  141.4915   81.2413  219.0986 H   0  0  0  0  0  0  0  0  0  0  0  0
  138.9378   73.1718  222.1616 H   0  0  0  0  0  0  0  0  0  0  0  0
  140.6294   71.5035  221.3541 H   0  0  0  0  0  0  0  0  0  0  0  0
  142.8624   71.0303  220.4071 H   0  0  0  0  0  0  0  0  0  0  0  0
  145.4980   74.3439  219.5512 H   0  0  0  0  0  0  0  0  0  0  0  0
  143.7610   75.9291  220.3699 H   0  0  0  0  0  0  0  0  0  0  0  0
  1  2  2  0
  2  3  1  0
  3  4  1  0
  4  5  1  0
  5  6  2  0
  5  7  1  0
  7  8  1  0
  8  9  1  0
  9 10  1  0
 10 11  1  0
 11 12  1  0
 12 13  1  0
 13 14  1  0
 14 15  1  0
 15 16  2  0
 16 17  1  0
 17 18  2  0
 18 19  1  0
 19 20  2  0
  2 21  1  0
 21 22  2  0
 22 23  1  0
 23 24  2  0
 24 25  1  0
 25 26  2  0
 26 27  1  0
 26 28  1  0
 28 29  2  0
 29 30  1  0
 30 31  2  0
 12  7  1  0
 20 15  1  0
 31 21  1  0
 30 24  1  0
  3 32  1  0
  4 33  1  0
  4 34  1  0
  8 35  1  0
  8 36  1  0
  9 37  1  0
  9 38  1  0
 10 39  1  0
 10 40  1  0
 11 41  1  0
 11 42  1  0
 12 43  1  1
 13 44  1  0
 13 45  1  0
 16 46  1  0
 17 47  1  0
 18 48  1  0
 19 49  1  0
 20 50  1  0
 22 51  1  0
 23 52  1  0
 25 53  1  0
 28 54  1  0
 29 55  1  0
M  END
>  <smiles>  (17) 
O=C(NCC(=O)N1CCCC[C@H]1COc1ccccc1)c1ccc2cc(Cl)ccc2n1

>  <score_type>  (17) 
oracle

>  <origin>  (17) 
autodockgpu

>  <m_score__min__energy>  (17) 
-8.5800000000000001

>  <m_primary>  (17) 
energy

>  <rmsd>  (17) 
6.484218339999951

>  <m_score__min__rmsd>  (17) 
6.484218339999951

>  <meeko>  (17) 
{"free_energy": -6.66, "intermolecular_energy": -8.75, "internal_energy": -3.45, "cluster_size": 5, "cluster_id": 8, "rank_in_cluster": 2}

>  <energy>  (17) 
-6.95

>  <cluster_rmsd>  (17) 
1.81

>  <cluster>  (17) 
1

$$$$

     RDKit          3D

 55 58  0  0  0  0  0  0  0  0999 V2000
  139.4240   75.0960  220.4020 O   0  0  0  0  0  0  0  0  0  0  0  0
  139.7870   75.9440  221.2470 C   0  0  0  0  0  0  0  0  0  0  0  0
  141.2080   75.8970  221.5790 N   0  0  0  0  0  0  0  0  0  0  0  0
  141.9530   74.8870  220.8920 C   0  0  0  0  0  0  0  0  0  0  0  0
  142.8560   75.3920  219.8680 C   0  0  0  0  0  0  0  0  0  0  0  0
  144.1010   75.0750  220.0860 O   0  0  0  0  0  0  0  0  0  0  0  0
  142.6340   76.1390  218.7110 N   0  0  0  0  0  0  0  0  0  0  0  0
  142.3020   75.6720  217.3880 C   0  0  0  0  0  0  0  0  0  0  0  0
  141.0410   76.3510  216.9260 C   0  0  0  0  0  0  0  0  0  0  0  0
  141.3240   77.8340  216.7350 C   0  0  0  0  0  0  0  0  0  0  0  0
  142.5870   78.2360  217.4700 C   0  0  0  0  0  0  0  0  0  0  0  0
  142.7190   77.6160  218.8260 C   0  0  1  0  0  0  0  0  0  0  0  0
  141.6310   78.1100  219.7620 C   0  0  0  0  0  0  0  0  0  0  0  0
  142.2020   78.1740  221.0710 O   0  0  0  0  0  0  0  0  0  0  0  0
  142.0670   79.3590  221.7670 C   0  0  0  0  0  0  0  0  0  0  0  0
  142.5700   79.4110  223.0490 C   0  0  0  0  0  0  0  0  0  0  0  0
  142.4780   80.5620  223.8190 C   0  0  0  0  0  0  0  0  0  0  0  0
  141.8680   81.6750  223.2810 C   0  0  0  0  0  0  0  0  0  0  0  0
  141.3550   81.6580  222.0010 C   0  0  0  0  0  0  0  0  0  0  0  0
  141.4660   80.4860  221.2620 C   0  0  0  0  0  0  0  0  0  0  0  0
  138.9040   76.9150  221.8730 C   0  0  0  0  0  0  0  0  0  0  0  0
  137.5550   76.7480  221.7050 C   0  0  0  0  0  0  0  0  0  0  0  0
  136.7220   77.6900  222.3140 C   0  0  0  0  0  0  0  0  0  0  0  0
  137.2340   78.7430  223.0500 C   0  0  0  0  0  0  0  0  0  0  0  0
  136.4500   79.6900  223.6640 C   0  0  0  0  0  0  0  0  0  0  0  0
  137.0280   80.7320  224.3960 C   0  0  0  0  0  0  0  0  0  0  0  0
  136.0540   81.9490  225.1850 Cl  0  0  0  0  0  0  0  0  0  0  0  0
  138.4210   80.8030  224.5000 C   0  0  0  0  0  0  0  0  0  0  0  0
  139.2190   79.8500  223.8830 C   0  0  0  0  0  0  0  0  0  0  0  0
  138.6230   78.8320  223.1670 C   0  0  0  0  0  0  0  0  0  0  0  0
  139.4140   77.9230  222.5790 N   0  0  0  0  0  0  0  0  0  0  0  0
  141.5950   76.5750  222.2700 H   0  0  0  0  0  0  0  0  0  0  0  0
  142.5494   74.3360  221.6341 H   0  0  0  0  0  0  0  0  0  0  0  0
  141.2170   74.2541  220.3745 H   0  0  0  0  0  0  0  0  0  0  0  0
  143.1233   75.9112  216.6965 H   0  0  0  0  0  0  0  0  0  0  0  0
  142.1495   74.5828  217.4078 H   0  0  0  0  0  0  0  0  0  0  0  0
  140.7125   75.9116  215.9726 H   0  0  0  0  0  0  0  0  0  0  0  0
  140.2475   76.2155  217.6757 H   0  0  0  0  0  0  0  0  0  0  0  0
  141.4482   78.0429  215.6622 H   0  0  0  0  0  0  0  0  0  0  0  0
  140.4796   78.4108  217.1402 H   0  0  0  0  0  0  0  0  0  0  0  0
  143.4530   77.9320  216.8637 H   0  0  0  0  0  0  0  0  0  0  0  0
  142.5390   79.3249  217.6184 H   0  0  0  0  0  0  0  0  0  0  0  0
  143.6955   77.9056  219.2414 H   0  0  0  0  0  0  0  0  0  0  0  0
  141.2889   79.1078  219.4500 H   0  0  0  0  0  0  0  0  0  0  0  0
  140.7629   77.4346  219.7454 H   0  0  0  0  0  0  0  0  0  0  0  0
  143.0558   78.5193  223.4719 H   0  0  0  0  0  0  0  0  0  0  0  0
  142.8847   80.5857  224.8408 H   0  0  0  0  0  0  0  0  0  0  0  0
  141.7891   82.5923  223.8829 H   0  0  0  0  0  0  0  0  0  0  0  0
  140.8703   82.5492  221.5757 H   0  0  0  0  0  0  0  0  0  0  0  0
  141.0596   80.4603  220.2402 H   0  0  0  0  0  0  0  0  0  0  0  0
  137.1467   75.9118  221.1184 H   0  0  0  0  0  0  0  0  0  0  0  0
  135.6318   77.5917  222.2053 H   0  0  0  0  0  0  0  0  0  0  0  0
  135.3551   79.6277  223.5787 H   0  0  0  0  0  0  0  0  0  0  0  0
  138.8862   81.6182  225.0736 H   0  0  0  0  0  0  0  0  0  0  0  0
  140.3146   79.9055  223.9638 H   0  0  0  0  0  0  0  0  0  0  0  0
  1  2  2  0
  2  3  1  0
  3  4  1  0
  4  5  1  0
  5  6  2  0
  5  7  1  0
  7  8  1  0
  8  9  1  0
  9 10  1  0
 10 11  1  0
 11 12  1  0
 12 13  1  0
 13 14  1  0
 14 15  1  0
 15 16  2  0
 16 17  1  0
 17 18  2  0
 18 19  1  0
 19 20  2  0
  2 21  1  0
 21 22  2  0
 22 23  1  0
 23 24  2  0
 24 25  1  0
 25 26  2  0
 26 27  1  0
 26 28  1  0
 28 29  2  0
 29 30  1  0
 30 31  2  0
 12  7  1  0
 20 15  1  0
 31 21  1  0
 30 24  1  0
  3 32  1  0
  4 33  1  0
  4 34  1  0
  8 35  1  0
  8 36  1  0
  9 37  1  0
  9 38  1  0
 10 39  1  0
 10 40  1  0
 11 41  1  0
 11 42  1  0
 12 43  1  1
 13 44  1  0
 13 45  1  0
 16 46  1  0
 17 47  1  0
 18 48  1  0
 19 49  1  0
 20 50  1  0
 22 51  1  0
 23 52  1  0
 25 53  1  0
 28 54  1  0
 29 55  1  0
M  END
>  <smiles>  (18) 
O=C(NCC(=O)N1CCCC[C@H]1COc1ccccc1)c1ccc2cc(Cl)ccc2n1

>  <score_type>  (18) 
oracle

>  <origin>  (18) 
autodockgpu

>  <m_score__min__energy>  (18) 
-8.5800000000000001

>  <m_primary>  (18) 
energy

>  <rmsd>  (18) 
6.875570729587191

>  <m_score__min__rmsd>  (18) 
6.875570729587191

>  <meeko>  (18) 
{"free_energy": -6.17, "intermolecular_energy": -8.26, "internal_energy": -3.49, "cluster_size": 1, "cluster_id": 10, "rank_in_cluster": 1}

>  <energy>  (18) 
-8.51

>  <cluster_rmsd>  (18) 
0.0

>  <cluster>  (18) 
2

$$$$

     RDKit          3D

 55 58  0  0  0  0  0  0  0  0999 V2000
  138.9360   70.7210  221.1850 O   0  0  0  0  0  0  0  0  0  0  0  0
  139.1090   71.4730  222.1690 C   0  0  0  0  0  0  0  0  0  0  0  0
  138.7260   72.8630  221.9420 N   0  0  0  0  0  0  0  0  0  0  0  0
  138.2230   73.1420  220.6320 C   0  0  0  0  0  0  0  0  0  0  0  0
  139.2500   73.3880  219.6300 C   0  0  0  0  0  0  0  0  0  0  0  0
  138.7660   73.8380  218.5060 O   0  0  0  0  0  0  0  0  0  0  0  0
  140.6370   73.2360  219.6540 N   0  0  0  0  0  0  0  0  0  0  0  0
  141.5160   72.8230  218.5890 C   0  0  0  0  0  0  0  0  0  0  0  0
  142.5860   73.8630  218.3990 C   0  0  0  0  0  0  0  0  0  0  0  0
  143.4790   73.8800  219.6310 C   0  0  0  0  0  0  0  0  0  0  0  0
  142.7860   73.2120  220.8020 C   0  0  0  0  0  0  0  0  0  0  0  0
  141.3350   73.5600  220.9230 C   0  0  1  0  0  0  0  0  0  0  0  0
  141.1490   75.0330  221.2380 C   0  0  0  0  0  0  0  0  0  0  0  0
  140.1640   75.1200  222.2700 O   0  0  0  0  0  0  0  0  0  0  0  0
  139.4990   76.3210  222.4150 C   0  0  0  0  0  0  0  0  0  0  0  0
  138.1250   76.2850  222.5120 C   0  0  0  0  0  0  0  0  0  0  0  0
  137.3770   77.4450  222.6600 C   0  0  0  0  0  0  0  0  0  0  0  0
  138.0320   78.6570  222.7110 C   0  0  0  0  0  0  0  0  0  0  0  0
  139.4060   78.7290  222.6180 C   0  0  0  0  0  0  0  0  0  0  0  0
  140.1190   77.5450  222.4700 C   0  0  0  0  0  0  0  0  0  0  0  0
  139.6440   71.0440  223.4520 C   0  0  0  0  0  0  0  0  0  0  0  0
  140.5060   71.8910  224.0960 C   0  0  0  0  0  0  0  0  0  0  0  0
  141.0100   71.4620  225.3270 C   0  0  0  0  0  0  0  0  0  0  0  0
  140.6570   70.2390  225.8690 C   0  0  0  0  0  0  0  0  0  0  0  0
  141.1300   69.7800  227.0750 C   0  0  0  0  0  0  0  0  0  0  0  0
  140.7350   68.5330  227.5700 C   0  0  0  0  0  0  0  0  0  0  0  0
  141.3220   67.9270  229.1000 Cl  0  0  0  0  0  0  0  0  0  0  0  0
  139.8490   67.7510  226.8230 C   0  0  0  0  0  0  0  0  0  0  0  0
  139.3670   68.2090  225.6040 C   0  0  0  0  0  0  0  0  0  0  0  0
  139.7720   69.4420  225.1380 C   0  0  0  0  0  0  0  0  0  0  0  0
  139.2940   69.8630  223.9590 N   0  0  0  0  0  0  0  0  0  0  0  0
  138.8320   73.5560  222.7140 H   0  0  0  0  0  0  0  0  0  0  0  0
  137.6225   72.2807  220.3040 H   0  0  0  0  0  0  0  0  0  0  0  0
  137.6371   74.0694  220.7132 H   0  0  0  0  0  0  0  0  0  0  0  0
  141.9807   71.8602  218.8481 H   0  0  0  0  0  0  0  0  0  0  0  0
  140.9409   72.7103  217.6581 H   0  0  0  0  0  0  0  0  0  0  0  0
  143.1865   73.6174  217.5107 H   0  0  0  0  0  0  0  0  0  0  0  0
  142.1249   74.8517  218.2585 H   0  0  0  0  0  0  0  0  0  0  0  0
  144.4122   73.3419  219.4084 H   0  0  0  0  0  0  0  0  0  0  0  0
  143.6963   74.9250  219.8969 H   0  0  0  0  0  0  0  0  0  0  0  0
  142.8724   72.1221  220.6806 H   0  0  0  0  0  0  0  0  0  0  0  0
  143.2799   73.5739  221.7159 H   0  0  0  0  0  0  0  0  0  0  0  0
  140.9085   72.9710  221.7484 H   0  0  0  0  0  0  0  0  0  0  0  0
  142.0982   75.4677  221.5845 H   0  0  0  0  0  0  0  0  0  0  0  0
  140.8295   75.5878  220.3435 H   0  0  0  0  0  0  0  0  0  0  0  0
  137.6088   75.3145  222.4712 H   0  0  0  0  0  0  0  0  0  0  0  0
  136.2806   77.3979  222.7353 H   0  0  0  0  0  0  0  0  0  0  0  0
  137.4488   79.5823  222.8279 H   0  0  0  0  0  0  0  0  0  0  0  0
  139.9243   79.6983  222.6598 H   0  0  0  0  0  0  0  0  0  0  0  0
  141.2155   77.5900  222.3945 H   0  0  0  0  0  0  0  0  0  0  0  0
  140.7883   72.8628  223.6649 H   0  0  0  0  0  0  0  0  0  0  0  0
  141.7045   72.1128  225.8785 H   0  0  0  0  0  0  0  0  0  0  0  0
  141.8271   70.4004  227.6575 H   0  0  0  0  0  0  0  0  0  0  0  0
  139.5323   66.7684  227.2027 H   0  0  0  0  0  0  0  0  0  0  0  0
  138.6693   67.5946  225.0161 H   0  0  0  0  0  0  0  0  0  0  0  0
  1  2  2  0
  2  3  1  0
  3  4  1  0
  4  5  1  0
  5  6  2  0
  5  7  1  0
  7  8  1  0
  8  9  1  0
  9 10  1  0
 10 11  1  0
 11 12  1  0
 12 13  1  0
 13 14  1  0
 14 15  1  0
 15 16  2  0
 16 17  1  0
 17 18  2  0
 18 19  1  0
 19 20  2  0
  2 21  1  0
 21 22  2  0
 22 23  1  0
 23 24  2  0
 24 25  1  0
 25 26  2  0
 26 27  1  0
 26 28  1  0
 28 29  2  0
 29 30  1  0
 30 31  2  0
 12  7  1  0
 20 15  1  0
 31 21  1  0
 30 24  1  0
  3 32  1  0
  4 33  1  0
  4 34  1  0
  8 35  1  0
  8 36  1  0
  9 37  1  0
  9 38  1  0
 10 39  1  0
 10 40  1  0
 11 41  1  0
 11 42  1  0
 12 43  1  1
 13 44  1  0
 13 45  1  0
 16 46  1  0
 17 47  1  0
 18 48  1  0
 19 49  1  0
 20 50  1  0
 22 51  1  0
 23 52  1  0
 25 53  1  0
 28 54  1  0
 29 55  1  0
M  END
>  <smiles>  (19) 
O=C(NCC(=O)N1CCCC[C@H]1COc1ccccc1)c1ccc2cc(Cl)ccc2n1

>  <score_type>  (19) 
oracle

>  <origin>  (19) 
autodockgpu

>  <m_score__min__energy>  (19) 
-8.5800000000000001

>  <m_primary>  (19) 
energy

>  <rmsd>  (19) 
3.1503760774404514

>  <m_score__min__rmsd>  (19) 
3.1503760774404514

>  <meeko>  (19) 
{"free_energy": -7.11, "intermolecular_energy": -9.2, "internal_energy": -2.67, "cluster_size": 2, "cluster_id": 6, "rank_in_cluster": 1}

>  <energy>  (19) 
-7.96

>  <cluster_rmsd>  (19) 
1.28

>  <cluster>  (19) 
2

$$$$

     RDKit          3D

 55 58  0  0  0  0  0  0  0  0999 V2000
  139.1030   73.8890  222.2960 O   0  0  0  0  0  0  0  0  0  0  0  0
  139.9140   72.9370  222.2890 C   0  0  0  0  0  0  0  0  0  0  0  0
  140.8330   72.9340  221.1540 N   0  0  0  0  0  0  0  0  0  0  0  0
  140.6520   74.0130  220.2330 C   0  0  0  0  0  0  0  0  0  0  0  0
  141.0220   75.3220  220.7540 C   0  0  0  0  0  0  0  0  0  0  0  0
  141.4880   75.2710  221.9710 O   0  0  0  0  0  0  0  0  0  0  0  0
  140.9740   76.5990  220.1960 N   0  0  0  0  0  0  0  0  0  0  0  0
  140.4300   77.8080  220.7610 C   0  0  0  0  0  0  0  0  0  0  0  0
  141.4880   78.8790  220.7520 C   0  0  0  0  0  0  0  0  0  0  0  0
  141.7970   79.2510  219.3090 C   0  0  0  0  0  0  0  0  0  0  0  0
  141.3140   78.1690  218.3630 C   0  0  0  0  0  0  0  0  0  0  0  0
  141.5770   76.7790  218.8520 C   0  0  1  0  0  0  0  0  0  0  0  0
  143.0670   76.4980  218.9280 C   0  0  0  0  0  0  0  0  0  0  0  0
  143.2580   75.1400  218.5240 O   0  0  0  0  0  0  0  0  0  0  0  0
  144.0670   74.3490  219.3160 C   0  0  0  0  0  0  0  0  0  0  0  0
  144.2100   73.0240  218.9640 C   0  0  0  0  0  0  0  0  0  0  0  0
  145.0030   72.1580  219.7030 C   0  0  0  0  0  0  0  0  0  0  0  0
  145.6620   72.6430  220.8130 C   0  0  0  0  0  0  0  0  0  0  0  0
  145.5430   73.9630  221.1920 C   0  0  0  0  0  0  0  0  0  0  0  0
  144.7380   74.7990  220.4260 C   0  0  0  0  0  0  0  0  0  0  0  0
  139.9750   71.8960  223.3030 C   0  0  0  0  0  0  0  0  0  0  0  0
  139.5290   70.6470  222.9600 C   0  0  0  0  0  0  0  0  0  0  0  0
  139.5950   69.6610  223.9470 C   0  0  0  0  0  0  0  0  0  0  0  0
  140.0850   69.9310  225.2120 C   0  0  0  0  0  0  0  0  0  0  0  0
  140.1670   68.9900  226.2100 C   0  0  0  0  0  0  0  0  0  0  0  0
  140.6740   69.3260  227.4690 C   0  0  0  0  0  0  0  0  0  0  0  0
  140.7870   68.1480  228.7550 Cl  0  0  0  0  0  0  0  0  0  0  0  0
  141.1000   70.6360  227.7070 C   0  0  0  0  0  0  0  0  0  0  0  0
  141.0210   71.5910  226.7030 C   0  0  0  0  0  0  0  0  0  0  0  0
  140.5180   71.2340  225.4700 C   0  0  0  0  0  0  0  0  0  0  0  0
  140.4510   72.1740  224.5160 N   0  0  0  0  0  0  0  0  0  0  0  0
  141.5460   72.1780  221.0750 H   0  0  0  0  0  0  0  0  0  0  0  0
  141.2663   73.8115  219.3431 H   0  0  0  0  0  0  0  0  0  0  0  0
  139.5753   74.0578  220.0121 H   0  0  0  0  0  0  0  0  0  0  0  0
  139.5676   78.1378  220.1630 H   0  0  0  0  0  0  0  0  0  0  0  0
  140.1047   77.6188  221.7946 H   0  0  0  0  0  0  0  0  0  0  0  0
  141.1220   79.7648  221.2919 H   0  0  0  0  0  0  0  0  0  0  0  0
  142.3986   78.5089  221.2458 H   0  0  0  0  0  0  0  0  0  0  0  0
  141.2923   80.1971  219.0637 H   0  0  0  0  0  0  0  0  0  0  0  0
  142.8858   79.3598  219.1965 H   0  0  0  0  0  0  0  0  0  0  0  0
  140.2294   78.2885  218.2239 H   0  0  0  0  0  0  0  0  0  0  0  0
  141.8742   78.2902  217.4241 H   0  0  0  0  0  0  0  0  0  0  0  0
  141.1244   76.0739  218.1393 H   0  0  0  0  0  0  0  0  0  0  0  0
  143.6135   77.1732  218.2532 H   0  0  0  0  0  0  0  0  0  0  0  0
  143.4454   76.6608  219.9480 H   0  0  0  0  0  0  0  0  0  0  0  0
  143.6830   72.6443  218.0763 H   0  0  0  0  0  0  0  0  0  0  0  0
  145.1043   71.1030  219.4086 H   0  0  0  0  0  0  0  0  0  0  0  0
  146.2934   71.9650  221.4061 H   0  0  0  0  0  0  0  0  0  0  0  0
  146.0714   74.3453  222.0778 H   0  0  0  0  0  0  0  0  0  0  0  0
  144.6356   75.8544  220.7187 H   0  0  0  0  0  0  0  0  0  0  0  0
  139.1375   70.4309  221.9550 H   0  0  0  0  0  0  0  0  0  0  0  0
  139.2484   68.6437  223.7123 H   0  0  0  0  0  0  0  0  0  0  0  0
  139.8300   67.9610  226.0163 H   0  0  0  0  0  0  0  0  0  0  0  0
  141.4996   70.9111  228.6943 H   0  0  0  0  0  0  0  0  0  0  0  0
  141.3562   72.6220  226.8891 H   0  0  0  0  0  0  0  0  0  0  0  0
  1  2  2  0
  2  3  1  0
  3  4  1  0
  4  5  1  0
  5  6  2  0
  5  7  1  0
  7  8  1  0
  8  9  1  0
  9 10  1  0
 10 11  1  0
 11 12  1  0
 12 13  1  0
 13 14  1  0
 14 15  1  0
 15 16  2  0
 16 17  1  0
 17 18  2  0
 18 19  1  0
 19 20  2  0
  2 21  1  0
 21 22  2  0
 22 23  1  0
 23 24  2  0
 24 25  1  0
 25 26  2  0
 26 27  1  0
 26 28  1  0
 28 29  2  0
 29 30  1  0
 30 31  2  0
 12  7  1  0
 20 15  1  0
 31 21  1  0
 30 24  1  0
  3 32  1  0
  4 33  1  0
  4 34  1  0
  8 35  1  0
  8 36  1  0
  9 37  1  0
  9 38  1  0
 10 39  1  0
 10 40  1  0
 11 41  1  0
 11 42  1  0
 12 43  1  6
 13 44  1  0
 13 45  1  0
 16 46  1  0
 17 47  1  0
 18 48  1  0
 19 49  1  0
 20 50  1  0
 22 51  1  0
 23 52  1  0
 25 53  1  0
 28 54  1  0
 29 55  1  0
M  END
>  <smiles>  (20) 
O=C(NCC(=O)N1CCCC[C@H]1COc1ccccc1)c1ccc2cc(Cl)ccc2n1

>  <score_type>  (20) 
oracle

>  <origin>  (20) 
autodockgpu

>  <m_score__min__energy>  (20) 
-8.5800000000000001

>  <m_primary>  (20) 
energy

>  <rmsd>  (20) 
2.6119709684346812

>  <m_score__min__rmsd>  (20) 
2.6119709684346812

>  <meeko>  (20) 
{"free_energy": -7.94, "intermolecular_energy": -10.03, "internal_energy": -1.84, "cluster_size": 9, "cluster_id": 3, "rank_in_cluster": 7}

>  <energy>  (20) 
-8.44

>  <cluster_rmsd>  (20) 
0.0

>  <cluster>  (20) 
3

$$$$

     RDKit          3D

 55 58  0  0  0  0  0  0  0  0999 V2000
  132.4600   69.9130  226.4750 O   0  0  0  0  0  0  0  0  0  0  0  0
  133.2170   70.9080  226.4590 C   0  0  0  0  0  0  0  0  0  0  0  0
  134.5740   70.6270  226.0000 N   0  0  0  0  0  0  0  0  0  0  0  0
  134.8200   69.2620  225.6510 C   0  0  0  0  0  0  0  0  0  0  0  0
  135.3150   69.0640  224.2950 C   0  0  0  0  0  0  0  0  0  0  0  0
  134.7680   68.0420  223.6990 O   0  0  0  0  0  0  0  0  0  0  0  0
  136.2490   69.7610  223.5290 N   0  0  0  0  0  0  0  0  0  0  0  0
  136.0430   70.9110  222.6850 C   0  0  0  0  0  0  0  0  0  0  0  0
  136.9840   72.0080  223.1050 C   0  0  0  0  0  0  0  0  0  0  0  0
  138.4110   71.5750  222.8000 C   0  0  0  0  0  0  0  0  0  0  0  0
  138.4830   70.0730  222.6070 C   0  0  0  0  0  0  0  0  0  0  0  0
  137.6580   69.2980  223.5860 C   0  0  1  0  0  0  0  0  0  0  0  0
  138.1860   69.4660  224.9990 C   0  0  0  0  0  0  0  0  0  0  0  0
  139.5550   69.8600  224.8910 O   0  0  0  0  0  0  0  0  0  0  0  0
  140.1340   70.4590  225.9920 C   0  0  0  0  0  0  0  0  0  0  0  0
  140.1070   69.7700  227.1860 C   0  0  0  0  0  0  0  0  0  0  0  0
  140.6650   70.2980  228.3420 C   0  0  0  0  0  0  0  0  0  0  0  0
  141.2590   71.5410  228.2860 C   0  0  0  0  0  0  0  0  0  0  0  0
  141.3050   72.2570  227.1080 C   0  0  0  0  0  0  0  0  0  0  0  0
  140.7340   71.6940  225.9730 C   0  0  0  0  0  0  0  0  0  0  0  0
  132.8240   72.2510  226.8550 C   0  0  0  0  0  0  0  0  0  0  0  0
  131.6810   72.3850  227.5980 C   0  0  0  0  0  0  0  0  0  0  0  0
  131.3190   73.6820  227.9700 C   0  0  0  0  0  0  0  0  0  0  0  0
  132.0770   74.7800  227.6050 C   0  0  0  0  0  0  0  0  0  0  0  0
  131.7560   76.0710  227.9500 C   0  0  0  0  0  0  0  0  0  0  0  0
  132.5650   77.1390  227.5520 C   0  0  0  0  0  0  0  0  0  0  0  0
  132.1780   78.7900  227.9770 Cl  0  0  0  0  0  0  0  0  0  0  0  0
  133.7110   76.8830  226.7940 C   0  0  0  0  0  0  0  0  0  0  0  0
  134.0420   75.5820  226.4420 C   0  0  0  0  0  0  0  0  0  0  0  0
  133.2270   74.5450  226.8480 C   0  0  0  0  0  0  0  0  0  0  0  0
  133.5670   73.2970  226.4960 N   0  0  0  0  0  0  0  0  0  0  0  0
  135.2680   71.4030  225.9500 H   0  0  0  0  0  0  0  0  0  0  0  0
  135.5657   68.8575  226.3513 H   0  0  0  0  0  0  0  0  0  0  0  0
  133.8506   68.7452  225.7084 H   0  0  0  0  0  0  0  0  0  0  0  0
  136.2396   70.6386  221.6376 H   0  0  0  0  0  0  0  0  0  0  0  0
  135.0038   71.2586  222.7811 H   0  0  0  0  0  0  0  0  0  0  0  0
  136.7503   72.9282  222.5494 H   0  0  0  0  0  0  0  0  0  0  0  0
  136.8747   72.2015  224.1823 H   0  0  0  0  0  0  0  0  0  0  0  0
  138.7517   72.0743  221.8810 H   0  0  0  0  0  0  0  0  0  0  0  0
  139.0552   71.8551  223.6465 H   0  0  0  0  0  0  0  0  0  0  0  0
  138.1303   69.8364  221.5923 H   0  0  0  0  0  0  0  0  0  0  0  0
  139.5308   69.7792  222.7676 H   0  0  0  0  0  0  0  0  0  0  0  0
  137.7148   68.2331  223.3161 H   0  0  0  0  0  0  0  0  0  0  0  0
  137.6108   70.2407  225.5273 H   0  0  0  0  0  0  0  0  0  0  0  0
  138.0917   68.5285  225.5666 H   0  0  0  0  0  0  0  0  0  0  0  0
  139.6320   68.7785  227.2233 H   0  0  0  0  0  0  0  0  0  0  0  0
  140.6339   69.7346  229.2863 H   0  0  0  0  0  0  0  0  0  0  0  0
  141.7039   71.9690  229.1964 H   0  0  0  0  0  0  0  0  0  0  0  0
  141.7812   73.2478  227.0680 H   0  0  0  0  0  0  0  0  0  0  0  0
  140.7636   72.2563  225.0281 H   0  0  0  0  0  0  0  0  0  0  0  0
  131.0768   71.5127  227.8880 H   0  0  0  0  0  0  0  0  0  0  0  0
  130.4084   73.8339  228.5681 H   0  0  0  0  0  0  0  0  0  0  0  0
  130.8523   76.2660  228.5460 H   0  0  0  0  0  0  0  0  0  0  0  0
  134.3537   77.7167  226.4749 H   0  0  0  0  0  0  0  0  0  0  0  0
  134.9441   75.3796  225.8459 H   0  0  0  0  0  0  0  0  0  0  0  0
  1  2  2  0
  2  3  1  0
  3  4  1  0
  4  5  1  0
  5  6  2  0
  5  7  1  0
  7  8  1  0
  8  9  1  0
  9 10  1  0
 10 11  1  0
 11 12  1  0
 12 13  1  0
 13 14  1  0
 14 15  1  0
 15 16  2  0
 16 17  1  0
 17 18  2  0
 18 19  1  0
 19 20  2  0
  2 21  1  0
 21 22  2  0
 22 23  1  0
 23 24  2  0
 24 25  1  0
 25 26  2  0
 26 27  1  0
 26 28  1  0
 28 29  2  0
 29 30  1  0
 30 31  2  0
 12  7  1  0
 20 15  1  0
 31 21  1  0
 30 24  1  0
  3 32  1  0
  4 33  1  0
  4 34  1  0
  8 35  1  0
  8 36  1  0
  9 37  1  0
  9 38  1  0
 10 39  1  0
 10 40  1  0
 11 41  1  0
 11 42  1  0
 12 43  1  6
 13 44  1  0
 13 45  1  0
 16 46  1  0
 17 47  1  0
 18 48  1  0
 19 49  1  0
 20 50  1  0
 22 51  1  0
 23 52  1  0
 25 53  1  0
 28 54  1  0
 29 55  1  0
M  END
>  <smiles>  (21) 
O=C(NCC(=O)N1CCCC[C@H]1COc1ccccc1)c1ccc2cc(Cl)ccc2n1

>  <score_type>  (21) 
oracle

>  <origin>  (21) 
autodockgpu

>  <m_score__min__energy>  (21) 
-8.5800000000000001

>  <m_primary>  (21) 
energy

>  <rmsd>  (21) 
8.754002226442557

>  <m_score__min__rmsd>  (21) 
8.754002226442557

>  <meeko>  (21) 
{"free_energy": -8.32, "intermolecular_energy": -10.41, "internal_energy": -1.74, "cluster_size": 8, "cluster_id": 4, "rank_in_cluster": 2}

>  <energy>  (21) 
-8.34

>  <cluster_rmsd>  (21) 
0.74

>  <cluster>  (21) 
3

$$$$

     RDKit          3D

 55 58  0  0  0  0  0  0  0  0999 V2000
  139.0320   70.6410  221.1900 O   0  0  0  0  0  0  0  0  0  0  0  0
  139.1600   71.3940  222.1810 C   0  0  0  0  0  0  0  0  0  0  0  0
  138.7580   72.7770  221.9450 N   0  0  0  0  0  0  0  0  0  0  0  0
  138.2890   73.0500  220.6220 C   0  0  0  0  0  0  0  0  0  0  0  0
  139.1590   73.9170  219.8390 C   0  0  0  0  0  0  0  0  0  0  0  0
  138.5440   74.9680  219.3750 O   0  0  0  0  0  0  0  0  0  0  0  0
  140.5100   73.8320  219.5050 N   0  0  0  0  0  0  0  0  0  0  0  0
  141.1140   73.7980  218.1970 C   0  0  0  0  0  0  0  0  0  0  0  0
  142.1360   74.8980  218.0950 C   0  0  0  0  0  0  0  0  0  0  0  0
  143.2870   74.5880  219.0410 C   0  0  0  0  0  0  0  0  0  0  0  0
  142.8640   73.5680  220.0800 C   0  0  0  0  0  0  0  0  0  0  0  0
  141.4870   73.7940  220.6220 C   0  0  1  0  0  0  0  0  0  0  0  0
  141.4120   75.0940  221.4010 C   0  0  0  0  0  0  0  0  0  0  0  0
  140.2640   75.0100  222.2470 O   0  0  0  0  0  0  0  0  0  0  0  0
  139.4910   76.1460  222.3860 C   0  0  0  0  0  0  0  0  0  0  0  0
  138.1300   75.9820  222.5310 C   0  0  0  0  0  0  0  0  0  0  0  0
  137.2790   77.0680  222.6770 C   0  0  0  0  0  0  0  0  0  0  0  0
  137.8150   78.3380  222.6760 C   0  0  0  0  0  0  0  0  0  0  0  0
  139.1720   78.5390  222.5330 C   0  0  0  0  0  0  0  0  0  0  0  0
  139.9910   77.4240  222.3900 C   0  0  0  0  0  0  0  0  0  0  0  0
  139.6650   70.9710  223.4770 C   0  0  0  0  0  0  0  0  0  0  0  0
  140.3720   71.8840  224.2130 C   0  0  0  0  0  0  0  0  0  0  0  0
  140.8490   71.4600  225.4560 C   0  0  0  0  0  0  0  0  0  0  0  0
  140.6190   70.1780  225.9220 C   0  0  0  0  0  0  0  0  0  0  0  0
  141.0700   69.7220  227.1380 C   0  0  0  0  0  0  0  0  0  0  0  0
  140.8050   68.4140  227.5530 C   0  0  0  0  0  0  0  0  0  0  0  0
  141.3680   67.8100  229.0940 Cl  0  0  0  0  0  0  0  0  0  0  0  0
  140.0720   67.5670  226.7170 C   0  0  0  0  0  0  0  0  0  0  0  0
  139.6130   68.0210  225.4890 C   0  0  0  0  0  0  0  0  0  0  0  0
  139.8880   69.3160  225.1020 C   0  0  0  0  0  0  0  0  0  0  0  0
  139.4340   69.7320  223.9110 N   0  0  0  0  0  0  0  0  0  0  0  0
  138.8280   73.4690  222.7220 H   0  0  0  0  0  0  0  0  0  0  0  0
  138.1881   72.0930  220.0891 H   0  0  0  0  0  0  0  0  0  0  0  0
  137.3336   73.5838  220.7330 H   0  0  0  0  0  0  0  0  0  0  0  0
  141.6039   72.8252  218.0432 H   0  0  0  0  0  0  0  0  0  0  0  0
  140.3398   73.9405  217.4287 H   0  0  0  0  0  0  0  0  0  0  0  0
  142.5119   74.9588  217.0630 H   0  0  0  0  0  0  0  0  0  0  0  0
  141.6776   75.8602  218.3672 H   0  0  0  0  0  0  0  0  0  0  0  0
  144.1319   74.1859  218.4627 H   0  0  0  0  0  0  0  0  0  0  0  0
  143.5837   75.5147  219.5541 H   0  0  0  0  0  0  0  0  0  0  0  0
  142.8959   72.5697  219.6192 H   0  0  0  0  0  0  0  0  0  0  0  0
  143.5611   73.6636  220.9255 H   0  0  0  0  0  0  0  0  0  0  0  0
  141.2463   72.9648  221.3035 H   0  0  0  0  0  0  0  0  0  0  0  0
  142.3199   75.2230  222.0084 H   0  0  0  0  0  0  0  0  0  0  0  0
  141.3352   75.9548  220.7205 H   0  0  0  0  0  0  0  0  0  0  0  0
  137.7086   74.9659  222.5310 H   0  0  0  0  0  0  0  0  0  0  0  0
  136.1953   76.9182  222.7916 H   0  0  0  0  0  0  0  0  0  0  0  0
  137.1491   79.2059  222.7912 H   0  0  0  0  0  0  0  0  0  0  0  0
  139.5953   79.5543  222.5321 H   0  0  0  0  0  0  0  0  0  0  0  0
  141.0751   77.5714  222.2764 H   0  0  0  0  0  0  0  0  0  0  0  0
  140.5558   72.9035  223.8430 H   0  0  0  0  0  0  0  0  0  0  0  0
  141.4214   72.1628  226.0792 H   0  0  0  0  0  0  0  0  0  0  0  0
  141.6457   70.3939  227.7915 H   0  0  0  0  0  0  0  0  0  0  0  0
  139.8581   66.5357  227.0342 H   0  0  0  0  0  0  0  0  0  0  0  0
  139.0357   67.3551  224.8308 H   0  0  0  0  0  0  0  0  0  0  0  0
  1  2  2  0
  2  3  1  0
  3  4  1  0
  4  5  1  0
  5  6  2  0
  5  7  1  0
  7  8  1  0
  8  9  1  0
  9 10  1  0
 10 11  1  0
 11 12  1  0
 12 13  1  0
 13 14  1  0
 14 15  1  0
 15 16  2  0
 16 17  1  0
 17 18  2  0
 18 19  1  0
 19 20  2  0
  2 21  1  0
 21 22  2  0
 22 23  1  0
 23 24  2  0
 24 25  1  0
 25 26  2  0
 26 27  1  0
 26 28  1  0
 28 29  2  0
 29 30  1  0
 30 31  2  0
 12  7  1  0
 20 15  1  0
 31 21  1  0
 30 24  1  0
  3 32  1  0
  4 33  1  0
  4 34  1  0
  8 35  1  0
  8 36  1  0
  9 37  1  0
  9 38  1  0
 10 39  1  0
 10 40  1  0
 11 41  1  0
 11 42  1  0
 12 43  1  1
 13 44  1  0
 13 45  1  0
 16 46  1  0
 17 47  1  0
 18 48  1  0
 19 49  1  0
 20 50  1  0
 22 51  1  0
 23 52  1  0
 25 53  1  0
 28 54  1  0
 29 55  1  0
M  END
>  <smiles>  (22) 
O=C(NCC(=O)N1CCCC[C@H]1COc1ccccc1)c1ccc2cc(Cl)ccc2n1

>  <score_type>  (22) 
oracle

>  <origin>  (22) 
autodockgpu

>  <m_score__min__energy>  (22) 
-8.5800000000000001

>  <m_primary>  (22) 
energy

>  <rmsd>  (22) 
2.966321714051845

>  <m_score__min__rmsd>  (22) 
2.966321714051845

>  <meeko>  (22) 
{"free_energy": -7.05, "intermolecular_energy": -9.13, "internal_energy": -2.79, "cluster_size": 2, "cluster_id": 6, "rank_in_cluster": 2}

>  <energy>  (22) 
-8.25

>  <cluster_rmsd>  (22) 
1.17

>  <cluster>  (22) 
3

$$$$

     RDKit          3D

 55 58  0  0  0  0  0  0  0  0999 V2000
  137.9330   71.8030  220.7740 O   0  0  0  0  0  0  0  0  0  0  0  0
  138.3500   72.2180  221.8780 C   0  0  0  0  0  0  0  0  0  0  0  0
  138.4790   73.6690  221.9690 N   0  0  0  0  0  0  0  0  0  0  0  0
  138.1170   74.3800  220.7810 C   0  0  0  0  0  0  0  0  0  0  0  0
  139.1880   74.5080  219.8020 C   0  0  0  0  0  0  0  0  0  0  0  0
  138.8670   75.2700  218.7950 O   0  0  0  0  0  0  0  0  0  0  0  0
  140.4760   73.9760  219.7500 N   0  0  0  0  0  0  0  0  0  0  0  0
  141.2150   73.5180  218.6000 C   0  0  0  0  0  0  0  0  0  0  0  0
  142.5350   74.2370  218.5420 C   0  0  0  0  0  0  0  0  0  0  0  0
  143.3850   73.8010  219.7260 C   0  0  0  0  0  0  0  0  0  0  0  0
  142.5210   73.1660  220.7980 C   0  0  0  0  0  0  0  0  0  0  0  0
  141.2240   73.8770  221.0280 C   0  0  1  0  0  0  0  0  0  0  0  0
  141.4560   75.2700  221.5850 C   0  0  0  0  0  0  0  0  0  0  0  0
  140.2990   75.6120  222.3510 O   0  0  0  0  0  0  0  0  0  0  0  0
  140.1230   76.9420  222.6780 C   0  0  0  0  0  0  0  0  0  0  0  0
  138.8340   77.4300  222.7090 C   0  0  0  0  0  0  0  0  0  0  0  0
  138.5650   78.7540  223.0280 C   0  0  0  0  0  0  0  0  0  0  0  0
  139.6190   79.5940  223.3200 C   0  0  0  0  0  0  0  0  0  0  0  0
  140.9200   79.1390  223.3000 C   0  0  0  0  0  0  0  0  0  0  0  0
  141.1470   77.8060  222.9750 C   0  0  0  0  0  0  0  0  0  0  0  0
  138.6900   71.3640  223.0050 C   0  0  0  0  0  0  0  0  0  0  0  0
  138.1150   70.1230  223.0580 C   0  0  0  0  0  0  0  0  0  0  0  0
  138.4540   69.3160  224.1480 C   0  0  0  0  0  0  0  0  0  0  0  0
  139.3280   69.7510  225.1280 C   0  0  0  0  0  0  0  0  0  0  0  0
  139.6870   68.9900  226.2140 C   0  0  0  0  0  0  0  0  0  0  0  0
  140.5770   69.4860  227.1720 C   0  0  0  0  0  0  0  0  0  0  0  0
  141.0480   68.5380  228.5620 Cl  0  0  0  0  0  0  0  0  0  0  0  0
  141.1030   70.7710  227.0140 C   0  0  0  0  0  0  0  0  0  0  0  0
  140.7460   71.5450  225.9190 C   0  0  0  0  0  0  0  0  0  0  0  0
  139.8660   71.0330  224.9890 C   0  0  0  0  0  0  0  0  0  0  0  0
  139.5350   71.7980  223.9400 N   0  0  0  0  0  0  0  0  0  0  0  0
  138.8140   74.0990  222.8570 H   0  0  0  0  0  0  0  0  0  0  0  0
  137.2788   73.8496  220.3055 H   0  0  0  0  0  0  0  0  0  0  0  0
  137.8577   75.4017  221.0954 H   0  0  0  0  0  0  0  0  0  0  0  0
  141.3892   72.4350  218.6820 H   0  0  0  0  0  0  0  0  0  0  0  0
  140.6407   73.7253  217.6850 H   0  0  0  0  0  0  0  0  0  0  0  0
  143.0516   73.9857  217.6039 H   0  0  0  0  0  0  0  0  0  0  0  0
  142.3699   75.3238  218.5814 H   0  0  0  0  0  0  0  0  0  0  0  0
  144.1329   73.0702  219.3845 H   0  0  0  0  0  0  0  0  0  0  0  0
  143.8832   74.6854  220.1498 H   0  0  0  0  0  0  0  0  0  0  0  0
  142.3007   72.1309  220.4979 H   0  0  0  0  0  0  0  0  0  0  0  0
  143.0873   73.2198  221.7395 H   0  0  0  0  0  0  0  0  0  0  0  0
  140.6408   73.3006  221.7612 H   0  0  0  0  0  0  0  0  0  0  0  0
  142.3493   75.2762  222.2268 H   0  0  0  0  0  0  0  0  0  0  0  0
  141.6180   75.9951  220.7738 H   0  0  0  0  0  0  0  0  0  0  0  0
  137.9984   76.7539  222.4753 H   0  0  0  0  0  0  0  0  0  0  0  0
  137.5301   79.1263  223.0475 H   0  0  0  0  0  0  0  0  0  0  0  0
  139.4180   80.6454  223.5733 H   0  0  0  0  0  0  0  0  0  0  0  0
  141.7571   79.8129  223.5350 H   0  0  0  0  0  0  0  0  0  0  0  0
  142.1813   77.4319  222.9554 H   0  0  0  0  0  0  0  0  0  0  0  0
  137.4190   69.7770  222.2796 H   0  0  0  0  0  0  0  0  0  0  0  0
  138.0150   68.3106  224.2283 H   0  0  0  0  0  0  0  0  0  0  0  0
  139.2697   67.9790  226.3314 H   0  0  0  0  0  0  0  0  0  0  0  0
  141.8037   71.1710  227.7616 H   0  0  0  0  0  0  0  0  0  0  0  0
  141.1606   72.5562  225.7942 H   0  0  0  0  0  0  0  0  0  0  0  0
  1  2  2  0
  2  3  1  0
  3  4  1  0
  4  5  1  0
  5  6  2  0
  5  7  1  0
  7  8  1  0
  8  9  1  0
  9 10  1  0
 10 11  1  0
 11 12  1  0
 12 13  1  0
 13 14  1  0
 14 15  1  0
 15 16  2  0
 16 17  1  0
 17 18  2  0
 18 19  1  0
 19 20  2  0
  2 21  1  0
 21 22  2  0
 22 23  1  0
 23 24  2  0
 24 25  1  0
 25 26  2  0
 26 27  1  0
 26 28  1  0
 28 29  2  0
 29 30  1  0
 30 31  2  0
 12  7  1  0
 20 15  1  0
 31 21  1  0
 30 24  1  0
  3 32  1  0
  4 33  1  0
  4 34  1  0
  8 35  1  0
  8 36  1  0
  9 37  1  0
  9 38  1  0
 10 39  1  0
 10 40  1  0
 11 41  1  0
 11 42  1  0
 12 43  1  1
 13 44  1  0
 13 45  1  0
 16 46  1  0
 17 47  1  0
 18 48  1  0
 19 49  1  0
 20 50  1  0
 22 51  1  0
 23 52  1  0
 25 53  1  0
 28 54  1  0
 29 55  1  0
M  END
>  <smiles>  (23) 
O=C(NCC(=O)N1CCCC[C@H]1COc1ccccc1)c1ccc2cc(Cl)ccc2n1

>  <score_type>  (23) 
oracle

>  <origin>  (23) 
autodockgpu

>  <m_score__min__energy>  (23) 
-8.5800000000000001

>  <m_primary>  (23) 
energy

>  <rmsd>  (23) 
2.2744067115735755

>  <m_score__min__rmsd>  (23) 
2.2744067115735755

>  <meeko>  (23) 
{"free_energy": -7.26, "intermolecular_energy": -9.35, "internal_energy": -2.8, "cluster_size": 17, "cluster_id": 1, "rank_in_cluster": 16}

>  <energy>  (23) 
-8.12

>  <cluster_rmsd>  (23) 
0.71

>  <cluster>  (23) 
3

$$$$

     RDKit          3D

 55 58  0  0  0  0  0  0  0  0999 V2000
  134.8410   68.5470  224.3000 O   0  0  0  0  0  0  0  0  0  0  0  0
  135.3590   69.6560  224.5610 C   0  0  0  0  0  0  0  0  0  0  0  0
  136.7390   69.8000  224.1090 N   0  0  0  0  0  0  0  0  0  0  0  0
  137.2790   68.6500  223.4500 C   0  0  0  0  0  0  0  0  0  0  0  0
  138.4120   68.9290  222.5780 C   0  0  0  0  0  0  0  0  0  0  0  0
  139.2020   67.9030  222.4270 O   0  0  0  0  0  0  0  0  0  0  0  0
  138.7970   70.0750  221.8820 N   0  0  0  0  0  0  0  0  0  0  0  0
  138.3070   70.5680  220.6200 C   0  0  0  0  0  0  0  0  0  0  0  0
  137.8340   71.9860  220.7930 C   0  0  0  0  0  0  0  0  0  0  0  0
  139.0340   72.8710  221.0960 C   0  0  0  0  0  0  0  0  0  0  0  0
  140.2090   72.0350  221.5650 C   0  0  0  0  0  0  0  0  0  0  0  0
  139.8290   70.9370  222.5080 C   0  0  1  0  0  0  0  0  0  0  0  0
  139.2930   71.4980  223.8130 C   0  0  0  0  0  0  0  0  0  0  0  0
  139.3670   70.4490  224.7810 O   0  0  0  0  0  0  0  0  0  0  0  0
  139.9650   70.7420  225.9910 C   0  0  0  0  0  0  0  0  0  0  0  0
  140.7570   71.8680  226.0600 C   0  0  0  0  0  0  0  0  0  0  0  0
  141.3950   72.2370  227.2360 C   0  0  0  0  0  0  0  0  0  0  0  0
  141.2270   71.4530  228.3570 C   0  0  0  0  0  0  0  0  0  0  0  0
  140.4410   70.3200  228.3240 C   0  0  0  0  0  0  0  0  0  0  0  0
  139.8190   69.9840  227.1270 C   0  0  0  0  0  0  0  0  0  0  0  0
  134.6810   70.7400  225.2530 C   0  0  0  0  0  0  0  0  0  0  0  0
  133.7720   70.4060  226.2210 C   0  0  0  0  0  0  0  0  0  0  0  0
  133.1310   71.4610  226.8760 C   0  0  0  0  0  0  0  0  0  0  0  0
  133.4000   72.7810  226.5620 C   0  0  0  0  0  0  0  0  0  0  0  0
  132.7920   73.8460  227.1810 C   0  0  0  0  0  0  0  0  0  0  0  0
  133.1070   75.1590  226.8190 C   0  0  0  0  0  0  0  0  0  0  0  0
  132.3480   76.5310  227.5910 Cl  0  0  0  0  0  0  0  0  0  0  0  0
  134.0540   75.3810  225.8140 C   0  0  0  0  0  0  0  0  0  0  0  0
  134.6720   74.3100  225.1840 C   0  0  0  0  0  0  0  0  0  0  0  0
  134.3430   73.0250  225.5600 C   0  0  0  0  0  0  0  0  0  0  0  0
  134.9530   72.0060  224.9380 N   0  0  0  0  0  0  0  0  0  0  0  0
  137.2430   70.6960  224.2800 H   0  0  0  0  0  0  0  0  0  0  0  0
  137.6058   67.9351  224.2195 H   0  0  0  0  0  0  0  0  0  0  0  0
  136.4794   68.2544  222.8065 H   0  0  0  0  0  0  0  0  0  0  0  0
  139.1152   70.5381  219.8744 H   0  0  0  0  0  0  0  0  0  0  0  0
  137.4724   69.9392  220.2764 H   0  0  0  0  0  0  0  0  0  0  0  0
  137.3466   72.3283  219.8682 H   0  0  0  0  0  0  0  0  0  0  0  0
  137.1118   72.0401  221.6210 H   0  0  0  0  0  0  0  0  0  0  0  0
  139.3197   73.4171  220.1848 H   0  0  0  0  0  0  0  0  0  0  0  0
  138.7610   73.5778  221.8934 H   0  0  0  0  0  0  0  0  0  0  0  0
  140.6886   71.5848  220.6833 H   0  0  0  0  0  0  0  0  0  0  0  0
  140.8843   72.7090  222.1125 H   0  0  0  0  0  0  0  0  0  0  0  0
  140.7301   70.3451  222.7264 H   0  0  0  0  0  0  0  0  0  0  0  0
  139.9044   72.3536  224.1357 H   0  0  0  0  0  0  0  0  0  0  0  0
  138.2574   71.8490  223.6932 H   0  0  0  0  0  0  0  0  0  0  0  0
  140.8865   72.4891  225.1614 H   0  0  0  0  0  0  0  0  0  0  0  0
  142.0235   73.1390  227.2727 H   0  0  0  0  0  0  0  0  0  0  0  0
  141.7285   71.7357  229.2943 H   0  0  0  0  0  0  0  0  0  0  0  0
  140.3097   69.6982  229.2219 H   0  0  0  0  0  0  0  0  0  0  0  0
  139.1899   69.0824  227.0885 H   0  0  0  0  0  0  0  0  0  0  0  0
  133.5565   69.3568  226.4713 H   0  0  0  0  0  0  0  0  0  0  0  0
  132.3940   71.2361  227.6610 H   0  0  0  0  0  0  0  0  0  0  0  0
  132.0485   73.6635  227.9709 H   0  0  0  0  0  0  0  0  0  0  0  0
  134.3103   76.4099  225.5214 H   0  0  0  0  0  0  0  0  0  0  0  0
  135.4164   74.4844  224.3931 H   0  0  0  0  0  0  0  0  0  0  0  0
  1  2  2  0
  2  3  1  0
  3  4  1  0
  4  5  1  0
  5  6  2  0
  5  7  1  0
  7  8  1  0
  8  9  1  0
  9 10  1  0
 10 11  1  0
 11 12  1  0
 12 13  1  0
 13 14  1  0
 14 15  1  0
 15 16  2  0
 16 17  1  0
 17 18  2  0
 18 19  1  0
 19 20  2  0
  2 21  1  0
 21 22  2  0
 22 23  1  0
 23 24  2  0
 24 25  1  0
 25 26  2  0
 26 27  1  0
 26 28  1  0
 28 29  2  0
 29 30  1  0
 30 31  2  0
 12  7  1  0
 20 15  1  0
 31 21  1  0
 30 24  1  0
  3 32  1  0
  4 33  1  0
  4 34  1  0
  8 35  1  0
  8 36  1  0
  9 37  1  0
  9 38  1  0
 10 39  1  0
 10 40  1  0
 11 41  1  0
 11 42  1  0
 12 43  1  1
 13 44  1  0
 13 45  1  0
 16 46  1  0
 17 47  1  0
 18 48  1  0
 19 49  1  0
 20 50  1  0
 22 51  1  0
 23 52  1  0
 25 53  1  0
 28 54  1  0
 29 55  1  0
M  END
>  <smiles>  (24) 
O=C(NCC(=O)N1CCCC[C@H]1COc1ccccc1)c1ccc2cc(Cl)ccc2n1

>  <score_type>  (24) 
oracle

>  <origin>  (24) 
autodockgpu

>  <m_score__min__energy>  (24) 
-8.5800000000000001

>  <m_primary>  (24) 
energy

>  <rmsd>  (24) 
6.672689778960165

>  <m_score__min__rmsd>  (24) 
6.672689778960165

>  <meeko>  (24) 
{"free_energy": -7.18, "intermolecular_energy": -9.27, "internal_energy": -2.5, "cluster_size": 8, "cluster_id": 4, "rank_in_cluster": 8}

>  <energy>  (24) 
-8.09

>  <cluster_rmsd>  (24) 
0.84

>  <cluster>  (24) 
3

$$$$

     RDKit          3D

 55 58  0  0  0  0  0  0  0  0999 V2000
  138.0410   72.3430  220.4660 O   0  0  0  0  0  0  0  0  0  0  0  0
  138.4210   72.6310  221.6230 C   0  0  0  0  0  0  0  0  0  0  0  0
  138.5190   74.0630  221.8890 N   0  0  0  0  0  0  0  0  0  0  0  0
  138.1720   74.9040  220.7850 C   0  0  0  0  0  0  0  0  0  0  0  0
  139.2200   75.0510  219.7840 C   0  0  0  0  0  0  0  0  0  0  0  0
  138.8060   75.6420  218.6990 O   0  0  0  0  0  0  0  0  0  0  0  0
  140.5650   74.6830  219.7770 N   0  0  0  0  0  0  0  0  0  0  0  0
  141.2990   73.9720  218.7610 C   0  0  0  0  0  0  0  0  0  0  0  0
  142.5010   74.7840  218.3590 C   0  0  0  0  0  0  0  0  0  0  0  0
  143.4650   74.8490  219.5340 C   0  0  0  0  0  0  0  0  0  0  0  0
  142.7560   74.4920  220.8260 C   0  0  0  0  0  0  0  0  0  0  0  0
  141.3860   75.0840  220.9460 C   0  0  1  0  0  0  0  0  0  0  0  0
  141.4490   76.5980  221.0220 C   0  0  0  0  0  0  0  0  0  0  0  0
  140.8700   76.9800  222.2720 O   0  0  0  0  0  0  0  0  0  0  0  0
  141.0290   78.2920  222.6720 C   0  0  0  0  0  0  0  0  0  0  0  0
  142.2310   78.9060  222.3950 C   0  0  0  0  0  0  0  0  0  0  0  0
  142.4760   80.2220  222.7610 C   0  0  0  0  0  0  0  0  0  0  0  0
  141.4870   80.9250  223.4160 C   0  0  0  0  0  0  0  0  0  0  0  0
  140.2720   80.3420  223.7080 C   0  0  0  0  0  0  0  0  0  0  0  0
  140.0660   79.0210  223.3250 C   0  0  0  0  0  0  0  0  0  0  0  0
  138.7500   71.6540  222.6490 C   0  0  0  0  0  0  0  0  0  0  0  0
  138.1440   70.4280  222.5780 C   0  0  0  0  0  0  0  0  0  0  0  0
  138.4730   69.5030  223.5720 C   0  0  0  0  0  0  0  0  0  0  0  0
  139.3670   69.8100  224.5820 C   0  0  0  0  0  0  0  0  0  0  0  0
  139.7170   68.9300  225.5780 C   0  0  0  0  0  0  0  0  0  0  0  0
  140.6280   69.3000  226.5710 C   0  0  0  0  0  0  0  0  0  0  0  0
  141.0890   68.2000  227.8480 Cl  0  0  0  0  0  0  0  0  0  0  0  0
  141.1850   70.5820  226.5440 C   0  0  0  0  0  0  0  0  0  0  0  0
  140.8370   71.4760  225.5410 C   0  0  0  0  0  0  0  0  0  0  0  0
  139.9360   71.0860  224.5730 C   0  0  0  0  0  0  0  0  0  0  0  0
  139.6150   71.9660  223.6140 N   0  0  0  0  0  0  0  0  0  0  0  0
  138.8220   74.3880  222.8310 H   0  0  0  0  0  0  0  0  0  0  0  0
  137.2852   74.4773  220.2936 H   0  0  0  0  0  0  0  0  0  0  0  0
  137.9934   75.9069  221.2001 H   0  0  0  0  0  0  0  0  0  0  0  0
  141.6275   72.9997  219.1569 H   0  0  0  0  0  0  0  0  0  0  0  0
  140.6538   73.8085  217.8852 H   0  0  0  0  0  0  0  0  0  0  0  0
  142.9972   74.3091  217.4997 H   0  0  0  0  0  0  0  0  0  0  0  0
  142.1878   75.7999  218.0763 H   0  0  0  0  0  0  0  0  0  0  0  0
  144.2886   74.1396  219.3656 H   0  0  0  0  0  0  0  0  0  0  0  0
  143.8563   75.8738  219.6155 H   0  0  0  0  0  0  0  0  0  0  0  0
  142.6669   73.3970  220.8818 H   0  0  0  0  0  0  0  0  0  0  0  0
  143.3580   74.9074  221.6476 H   0  0  0  0  0  0  0  0  0  0  0  0
  140.9290   74.7075  221.8730 H   0  0  0  0  0  0  0  0  0  0  0  0
  142.4948   76.9352  220.9717 H   0  0  0  0  0  0  0  0  0  0  0  0
  140.9052   77.0554  220.1823 H   0  0  0  0  0  0  0  0  0  0  0  0
  143.0151   78.3395  221.8713 H   0  0  0  0  0  0  0  0  0  0  0  0
  143.4420   80.6959  222.5326 H   0  0  0  0  0  0  0  0  0  0  0  0
  141.6704   81.9688  223.7106 H   0  0  0  0  0  0  0  0  0  0  0  0
  139.4860   80.9071  224.2303 H   0  0  0  0  0  0  0  0  0  0  0  0
  139.1008   78.5450  223.5525 H   0  0  0  0  0  0  0  0  0  0  0  0
  137.4318   70.1831  221.7762 H   0  0  0  0  0  0  0  0  0  0  0  0
  138.0096   68.5056  223.5510 H   0  0  0  0  0  0  0  0  0  0  0  0
  139.2749   67.9229  225.5937 H   0  0  0  0  0  0  0  0  0  0  0  0
  141.9024   70.8836  227.3214 H   0  0  0  0  0  0  0  0  0  0  0  0
  141.2753   72.4847  225.5186 H   0  0  0  0  0  0  0  0  0  0  0  0
  1  2  2  0
  2  3  1  0
  3  4  1  0
  4  5  1  0
  5  6  2  0
  5  7  1  0
  7  8  1  0
  8  9  1  0
  9 10  1  0
 10 11  1  0
 11 12  1  0
 12 13  1  0
 13 14  1  0
 14 15  1  0
 15 16  2  0
 16 17  1  0
 17 18  2  0
 18 19  1  0
 19 20  2  0
  2 21  1  0
 21 22  2  0
 22 23  1  0
 23 24  2  0
 24 25  1  0
 25 26  2  0
 26 27  1  0
 26 28  1  0
 28 29  2  0
 29 30  1  0
 30 31  2  0
 12  7  1  0
 20 15  1  0
 31 21  1  0
 30 24  1  0
  3 32  1  0
  4 33  1  0
  4 34  1  0
  8 35  1  0
  8 36  1  0
  9 37  1  0
  9 38  1  0
 10 39  1  0
 10 40  1  0
 11 41  1  0
 11 42  1  0
 12 43  1  1
 13 44  1  0
 13 45  1  0
 16 46  1  0
 17 47  1  0
 18 48  1  0
 19 49  1  0
 20 50  1  0
 22 51  1  0
 23 52  1  0
 25 53  1  0
 28 54  1  0
 29 55  1  0
M  END
>  <smiles>  (25) 
O=C(NCC(=O)N1CCCC[C@H]1COc1ccccc1)c1ccc2cc(Cl)ccc2n1

>  <score_type>  (25) 
oracle

>  <origin>  (25) 
autodockgpu

>  <m_score__min__energy>  (25) 
-8.5800000000000001

>  <m_primary>  (25) 
energy

>  <rmsd>  (25) 
2.0851792956527277

>  <m_score__min__rmsd>  (25) 
2.0851792956527277

>  <meeko>  (25) 
{"free_energy": -7.48, "intermolecular_energy": -9.56, "internal_energy": -1.91, "cluster_size": 17, "cluster_id": 1, "rank_in_cluster": 13}

>  <energy>  (25) 
-7.95

>  <cluster_rmsd>  (25) 
0.63

>  <cluster>  (25) 
3

$$$$

     RDKit          3D

 55 58  0  0  0  0  0  0  0  0999 V2000
  138.4240   76.0380  223.1230 O   0  0  0  0  0  0  0  0  0  0  0  0
  139.2880   76.2210  222.2370 C   0  0  0  0  0  0  0  0  0  0  0  0
  139.2980   77.5670  221.6710 N   0  0  0  0  0  0  0  0  0  0  0  0
  138.3170   78.4550  222.2140 C   0  0  0  0  0  0  0  0  0  0  0  0
  138.8480   79.4580  223.1270 C   0  0  0  0  0  0  0  0  0  0  0  0
  137.9170   80.0930  223.7820 O   0  0  0  0  0  0  0  0  0  0  0  0
  140.1520   79.8550  223.4250 N   0  0  0  0  0  0  0  0  0  0  0  0
  141.1850   79.1130  224.1030 C   0  0  0  0  0  0  0  0  0  0  0  0
  142.4120   79.0660  223.2340 C   0  0  0  0  0  0  0  0  0  0  0  0
  142.9830   80.4720  223.1140 C   0  0  0  0  0  0  0  0  0  0  0  0
  141.9430   81.5050  223.4990 C   0  0  0  0  0  0  0  0  0  0  0  0
  140.5720   81.2060  222.9770 C   0  0  1  0  0  0  0  0  0  0  0  0
  140.5390   81.2660  221.4610 C   0  0  0  0  0  0  0  0  0  0  0  0
  140.4850   79.9180  220.9890 O   0  0  0  0  0  0  0  0  0  0  0  0
  141.3080   79.5810  219.9330 C   0  0  0  0  0  0  0  0  0  0  0  0
  141.7030   80.5890  219.0800 C   0  0  0  0  0  0  0  0  0  0  0  0
  142.5300   80.3390  217.9940 C   0  0  0  0  0  0  0  0  0  0  0  0
  142.9620   79.0490  217.7700 C   0  0  0  0  0  0  0  0  0  0  0  0
  142.5860   78.0170  218.6040 C   0  0  0  0  0  0  0  0  0  0  0  0
  141.7570   78.3080  219.6810 C   0  0  0  0  0  0  0  0  0  0  0  0
  140.2240   75.2080  221.7760 C   0  0  0  0  0  0  0  0  0  0  0  0
  139.8670   73.8950  221.9300 C   0  0  0  0  0  0  0  0  0  0  0  0
  140.7790   72.9360  221.4820 C   0  0  0  0  0  0  0  0  0  0  0  0
  141.9860   73.2940  220.9100 C   0  0  0  0  0  0  0  0  0  0  0  0
  142.9090   72.3830  220.4570 C   0  0  0  0  0  0  0  0  0  0  0  0
  144.1140   72.8090  219.8870 C   0  0  0  0  0  0  0  0  0  0  0  0
  145.3040   71.6700  219.3040 Cl  0  0  0  0  0  0  0  0  0  0  0  0
  144.3730   74.1780  219.7820 C   0  0  0  0  0  0  0  0  0  0  0  0
  143.4440   75.1040  220.2370 C   0  0  0  0  0  0  0  0  0  0  0  0
  142.2640   74.6590  220.7950 C   0  0  0  0  0  0  0  0  0  0  0  0
  141.3830   75.5710  221.2270 N   0  0  0  0  0  0  0  0  0  0  0  0
  139.9920   77.8050  220.9310 H   0  0  0  0  0  0  0  0  0  0  0  0
  137.8261   78.9764  221.3790 H   0  0  0  0  0  0  0  0  0  0  0  0
  137.6243   77.8339  222.8009 H   0  0  0  0  0  0  0  0  0  0  0  0
  141.4276   79.6066  225.0556 H   0  0  0  0  0  0  0  0  0  0  0  0
  140.8343   78.0897  224.3028 H   0  0  0  0  0  0  0  0  0  0  0  0
  143.1610   78.4004  223.6878 H   0  0  0  0  0  0  0  0  0  0  0  0
  142.1490   78.6833  222.2368 H   0  0  0  0  0  0  0  0  0  0  0  0
  143.8518   80.5675  223.7818 H   0  0  0  0  0  0  0  0  0  0  0  0
  143.2844   80.6443  222.0702 H   0  0  0  0  0  0  0  0  0  0  0  0
  141.8930   81.5543  224.5967 H   0  0  0  0  0  0  0  0  0  0  0  0
  142.2564   82.4583  223.0485 H   0  0  0  0  0  0  0  0  0  0  0  0
  139.8807   81.9654  223.3713 H   0  0  0  0  0  0  0  0  0  0  0  0
  139.6501   81.8197  221.1244 H   0  0  0  0  0  0  0  0  0  0  0  0
  141.4277   81.7829  221.0698 H   0  0  0  0  0  0  0  0  0  0  0  0
  141.3545   81.6159  219.2644 H   0  0  0  0  0  0  0  0  0  0  0  0
  142.8355   81.1558  217.3236 H   0  0  0  0  0  0  0  0  0  0  0  0
  143.6175   78.8395  216.9118 H   0  0  0  0  0  0  0  0  0  0  0  0
  142.9334   76.9894  218.4214 H   0  0  0  0  0  0  0  0  0  0  0  0
  141.4509   77.4926  220.3529 H   0  0  0  0  0  0  0  0  0  0  0  0
  138.9073   73.6087  222.3850 H   0  0  0  0  0  0  0  0  0  0  0  0
  140.5307   71.8695  221.5869 H   0  0  0  0  0  0  0  0  0  0  0  0
  142.6986   71.3068  220.5433 H   0  0  0  0  0  0  0  0  0  0  0  0
  145.3175   74.5238  219.3367 H   0  0  0  0  0  0  0  0  0  0  0  0
  143.6471   76.1818  220.1532 H   0  0  0  0  0  0  0  0  0  0  0  0
  1  2  2  0
  2  3  1  0
  3  4  1  0
  4  5  1  0
  5  6  2  0
  5  7  1  0
  7  8  1  0
  8  9  1  0
  9 10  1  0
 10 11  1  0
 11 12  1  0
 12 13  1  0
 13 14  1  0
 14 15  1  0
 15 16  2  0
 16 17  1  0
 17 18  2  0
 18 19  1  0
 19 20  2  0
  2 21  1  0
 21 22  2  0
 22 23  1  0
 23 24  2  0
 24 25  1  0
 25 26  2  0
 26 27  1  0
 26 28  1  0
 28 29  2  0
 29 30  1  0
 30 31  2  0
 12  7  1  0
 20 15  1  0
 31 21  1  0
 30 24  1  0
  3 32  1  0
  4 33  1  0
  4 34  1  0
  8 35  1  0
  8 36  1  0
  9 37  1  0
  9 38  1  0
 10 39  1  0
 10 40  1  0
 11 41  1  0
 11 42  1  0
 12 43  1  1
 13 44  1  0
 13 45  1  0
 16 46  1  0
 17 47  1  0
 18 48  1  0
 19 49  1  0
 20 50  1  0
 22 51  1  0
 23 52  1  0
 25 53  1  0
 28 54  1  0
 29 55  1  0
M  END
>  <smiles>  (26) 
O=C(NCC(=O)N1CCCC[C@H]1COc1ccccc1)c1ccc2cc(Cl)ccc2n1

>  <score_type>  (26) 
oracle

>  <origin>  (26) 
autodockgpu

>  <m_score__min__energy>  (26) 
-8.5800000000000001

>  <m_primary>  (26) 
energy

>  <rmsd>  (26) 
6.607289961373201

>  <m_score__min__rmsd>  (26) 
6.607289961373201

>  <meeko>  (26) 
{"free_energy": -6.67, "intermolecular_energy": -8.75, "internal_energy": -3.41, "cluster_size": 5, "cluster_id": 8, "rank_in_cluster": 1}

>  <energy>  (26) 
-7.94

>  <cluster_rmsd>  (26) 
1.13

>  <cluster>  (26) 
3

$$$$

     RDKit          3D

 55 58  0  0  0  0  0  0  0  0999 V2000
  140.6150   72.6830  221.1320 O   0  0  0  0  0  0  0  0  0  0  0  0
  139.8990   72.7070  222.1570 C   0  0  0  0  0  0  0  0  0  0  0  0
  138.9820   73.8410  222.2280 N   0  0  0  0  0  0  0  0  0  0  0  0
  139.0560   74.7430  221.1200 C   0  0  0  0  0  0  0  0  0  0  0  0
  138.3910   76.0210  221.3350 C   0  0  0  0  0  0  0  0  0  0  0  0
  137.7870   76.0910  222.4880 O   0  0  0  0  0  0  0  0  0  0  0  0
  138.2880   77.1670  220.5470 N   0  0  0  0  0  0  0  0  0  0  0  0
  137.2650   78.1830  220.5650 C   0  0  0  0  0  0  0  0  0  0  0  0
  137.9100   79.5290  220.7610 C   0  0  0  0  0  0  0  0  0  0  0  0
  138.7390   79.8600  219.5290 C   0  0  0  0  0  0  0  0  0  0  0  0
  139.0250   78.6070  218.7250 C   0  0  0  0  0  0  0  0  0  0  0  0
  139.3710   77.4170  219.5640 C   0  0  1  0  0  0  0  0  0  0  0  0
  140.6800   77.6300  220.3020 C   0  0  0  0  0  0  0  0  0  0  0  0
  140.3500   77.9760  221.6490 O   0  0  0  0  0  0  0  0  0  0  0  0
  141.0780   78.9880  222.2430 C   0  0  0  0  0  0  0  0  0  0  0  0
  141.5280   78.7840  223.5300 C   0  0  0  0  0  0  0  0  0  0  0  0
  142.2670   79.7480  224.2020 C   0  0  0  0  0  0  0  0  0  0  0  0
  142.5530   80.9350  223.5600 C   0  0  0  0  0  0  0  0  0  0  0  0
  142.1180   81.1710  222.2720 C   0  0  0  0  0  0  0  0  0  0  0  0
  141.3810   80.1810  221.6340 C   0  0  0  0  0  0  0  0  0  0  0  0
  139.9420   71.7120  223.2170 C   0  0  0  0  0  0  0  0  0  0  0  0
  139.4600   70.4610  222.9340 C   0  0  0  0  0  0  0  0  0  0  0  0
  139.5100   69.5180  223.9640 C   0  0  0  0  0  0  0  0  0  0  0  0
  140.0190   69.8320  225.2110 C   0  0  0  0  0  0  0  0  0  0  0  0
  140.0860   68.9350  226.2500 C   0  0  0  0  0  0  0  0  0  0  0  0
  140.6130   69.3130  227.4880 C   0  0  0  0  0  0  0  0  0  0  0  0
  140.7070   68.1910  228.8250 Cl  0  0  0  0  0  0  0  0  0  0  0  0
  141.0750   70.6200  227.6630 C   0  0  0  0  0  0  0  0  0  0  0  0
  141.0120   71.5320  226.6190 C   0  0  0  0  0  0  0  0  0  0  0  0
  140.4870   71.1340  225.4070 C   0  0  0  0  0  0  0  0  0  0  0  0
  140.4360   72.0310  224.4120 N   0  0  0  0  0  0  0  0  0  0  0  0
  138.3450   73.9340  223.0480 H   0  0  0  0  0  0  0  0  0  0  0  0
  140.1172   74.9395  220.9075 H   0  0  0  0  0  0  0  0  0  0  0  0
  138.5327   74.2551  220.2844 H   0  0  0  0  0  0  0  0  0  0  0  0
  136.7184   78.1721  219.6105 H   0  0  0  0  0  0  0  0  0  0  0  0
  136.5619   77.9860  221.3877 H   0  0  0  0  0  0  0  0  0  0  0  0
  137.1326   80.2947  220.9000 H   0  0  0  0  0  0  0  0  0  0  0  0
  138.5559   79.5076  221.6512 H   0  0  0  0  0  0  0  0  0  0  0  0
  138.1847   80.5734  218.9014 H   0  0  0  0  0  0  0  0  0  0  0  0
  139.6943   80.2993  219.8523 H   0  0  0  0  0  0  0  0  0  0  0  0
  138.1315   78.3646  218.1310 H   0  0  0  0  0  0  0  0  0  0  0  0
  139.9022   78.8224  218.0972 H   0  0  0  0  0  0  0  0  0  0  0  0
  139.4827   76.5486  218.8981 H   0  0  0  0  0  0  0  0  0  0  0  0
  141.2776   76.7067  220.2849 H   0  0  0  0  0  0  0  0  0  0  0  0
  141.2730   78.4254  219.8269 H   0  0  0  0  0  0  0  0  0  0  0  0
  141.2961   77.8353  224.0362 H   0  0  0  0  0  0  0  0  0  0  0  0
  142.6185   79.5685  225.2287 H   0  0  0  0  0  0  0  0  0  0  0  0
  143.1374   81.7060  224.0834 H   0  0  0  0  0  0  0  0  0  0  0  0
  142.3488   82.1186  221.7634 H   0  0  0  0  0  0  0  0  0  0  0  0
  141.0286   80.3586  220.6072 H   0  0  0  0  0  0  0  0  0  0  0  0
  139.0531   70.2109  221.9431 H   0  0  0  0  0  0  0  0  0  0  0  0
  139.1352   68.5006  223.7784 H   0  0  0  0  0  0  0  0  0  0  0  0
  139.7206   67.9076  226.1056 H   0  0  0  0  0  0  0  0  0  0  0  0
  141.4910   70.9277  228.6337 H   0  0  0  0  0  0  0  0  0  0  0  0
  141.3766   72.5607  226.7563 H   0  0  0  0  0  0  0  0  0  0  0  0
  1  2  2  0
  2  3  1  0
  3  4  1  0
  4  5  1  0
  5  6  2  0
  5  7  1  0
  7  8  1  0
  8  9  1  0
  9 10  1  0
 10 11  1  0
 11 12  1  0
 12 13  1  0
 13 14  1  0
 14 15  1  0
 15 16  2  0
 16 17  1  0
 17 18  2  0
 18 19  1  0
 19 20  2  0
  2 21  1  0
 21 22  2  0
 22 23  1  0
 23 24  2  0
 24 25  1  0
 25 26  2  0
 26 27  1  0
 26 28  1  0
 28 29  2  0
 29 30  1  0
 30 31  2  0
 12  7  1  0
 20 15  1  0
 31 21  1  0
 30 24  1  0
  3 32  1  0
  4 33  1  0
  4 34  1  0
  8 35  1  0
  8 36  1  0
  9 37  1  0
  9 38  1  0
 10 39  1  0
 10 40  1  0
 11 41  1  0
 11 42  1  0
 12 43  1  6
 13 44  1  0
 13 45  1  0
 16 46  1  0
 17 47  1  0
 18 48  1  0
 19 49  1  0
 20 50  1  0
 22 51  1  0
 23 52  1  0
 25 53  1  0
 28 54  1  0
 29 55  1  0
M  END
>  <smiles>  (27) 
O=C(NCC(=O)N1CCCC[C@H]1COc1ccccc1)c1ccc2cc(Cl)ccc2n1

>  <score_type>  (27) 
oracle

>  <origin>  (27) 
autodockgpu

>  <m_score__min__energy>  (27) 
-8.5800000000000001

>  <m_primary>  (27) 
energy

>  <rmsd>  (27) 
2.637089184945976

>  <m_score__min__rmsd>  (27) 
2.637089184945976

>  <meeko>  (27) 
{"free_energy": -7.61, "intermolecular_energy": -9.7, "internal_energy": -2.13, "cluster_size": 17, "cluster_id": 1, "rank_in_cluster": 12}

>  <energy>  (27) 
-7.19

>  <cluster_rmsd>  (27) 
1.33

>  <cluster>  (27) 
3

$$$$

     RDKit          3D

 55 58  0  0  0  0  0  0  0  0999 V2000
  133.1240   69.8080  226.5220 O   0  0  0  0  0  0  0  0  0  0  0  0
  133.6430   70.9240  226.2940 C   0  0  0  0  0  0  0  0  0  0  0  0
  134.9040   70.8660  225.5620 N   0  0  0  0  0  0  0  0  0  0  0  0
  135.3460   69.5470  225.2290 C   0  0  0  0  0  0  0  0  0  0  0  0
  135.7620   69.3800  223.8430 C   0  0  0  0  0  0  0  0  0  0  0  0
  135.4540   68.2100  223.3580 O   0  0  0  0  0  0  0  0  0  0  0  0
  136.4150   70.2330  222.9530 N   0  0  0  0  0  0  0  0  0  0  0  0
  135.8460   71.0800  221.9360 C   0  0  0  0  0  0  0  0  0  0  0  0
  136.3160   72.4940  222.1500 C   0  0  0  0  0  0  0  0  0  0  0  0
  137.8130   72.5580  221.8890 C   0  0  0  0  0  0  0  0  0  0  0  0
  138.4250   71.1720  221.9450 C   0  0  0  0  0  0  0  0  0  0  0  0
  137.8930   70.3220  223.0560 C   0  0  1  0  0  0  0  0  0  0  0  0
  138.2690   70.8940  224.4110 C   0  0  0  0  0  0  0  0  0  0  0  0
  139.4120   70.1670  224.8690 O   0  0  0  0  0  0  0  0  0  0  0  0
  140.0570   70.6400  225.9950 C   0  0  0  0  0  0  0  0  0  0  0  0
  139.9970   69.8720  227.1380 C   0  0  0  0  0  0  0  0  0  0  0  0
  140.6170   70.2710  228.3140 C   0  0  0  0  0  0  0  0  0  0  0  0
  141.3060   71.4650  228.3310 C   0  0  0  0  0  0  0  0  0  0  0  0
  141.3860   72.2580  227.2050 C   0  0  0  0  0  0  0  0  0  0  0  0
  140.7520   71.8230  226.0470 C   0  0  0  0  0  0  0  0  0  0  0  0
  133.0730   72.1970  226.7070 C   0  0  0  0  0  0  0  0  0  0  0  0
  131.8560   72.1760  227.3340 C   0  0  0  0  0  0  0  0  0  0  0  0
  131.3250   73.4090  227.7230 C   0  0  0  0  0  0  0  0  0  0  0  0
  131.9950   74.5950  227.4850 C   0  0  0  0  0  0  0  0  0  0  0  0
  131.5090   75.8270  227.8510 C   0  0  0  0  0  0  0  0  0  0  0  0
  132.2350   76.9910  227.5830 C   0  0  0  0  0  0  0  0  0  0  0  0
  131.6370   78.5690  228.0380 Cl  0  0  0  0  0  0  0  0  0  0  0  0
  133.4700   76.8920  226.9350 C   0  0  0  0  0  0  0  0  0  0  0  0
  133.9680   75.6510  226.5630 C   0  0  0  0  0  0  0  0  0  0  0  0
  133.2320   74.5180  226.8390 C   0  0  0  0  0  0  0  0  0  0  0  0
  133.7330   73.3300  226.4700 N   0  0  0  0  0  0  0  0  0  0  0  0
  135.3990   71.7530  225.3260 H   0  0  0  0  0  0  0  0  0  0  0  0
  136.1997   69.2974  225.8762 H   0  0  0  0  0  0  0  0  0  0  0  0
  134.4830   68.8814  225.3784 H   0  0  0  0  0  0  0  0  0  0  0  0
  136.1685   70.7312  220.9439 H   0  0  0  0  0  0  0  0  0  0  0  0
  134.7482   71.0424  221.9951 H   0  0  0  0  0  0  0  0  0  0  0  0
  135.7907   73.1671  221.4564 H   0  0  0  0  0  0  0  0  0  0  0  0
  136.1032   72.8062  223.1831 H   0  0  0  0  0  0  0  0  0  0  0  0
  137.9880   72.9903  220.8928 H   0  0  0  0  0  0  0  0  0  0  0  0
  138.2812   73.1836  222.6633 H   0  0  0  0  0  0  0  0  0  0  0  0
  138.2208   70.6638  220.9911 H   0  0  0  0  0  0  0  0  0  0  0  0
  139.5014   71.3039  222.1294 H   0  0  0  0  0  0  0  0  0  0  0  0
  138.3376   69.3200  222.9645 H   0  0  0  0  0  0  0  0  0  0  0  0
  138.5140   71.9621  224.3154 H   0  0  0  0  0  0  0  0  0  0  0  0
  137.4343   70.8015  225.1215 H   0  0  0  0  0  0  0  0  0  0  0  0
  139.4449   68.9208  227.1177 H   0  0  0  0  0  0  0  0  0  0  0  0
  140.5596   69.6453  229.2169 H   0  0  0  0  0  0  0  0  0  0  0  0
  141.8003   71.7909  229.2581 H   0  0  0  0  0  0  0  0  0  0  0  0
  141.9372   73.2098  227.2231 H   0  0  0  0  0  0  0  0  0  0  0  0
  140.8089   72.4468  225.1428 H   0  0  0  0  0  0  0  0  0  0  0  0
  131.3214   71.2333  227.5227 H   0  0  0  0  0  0  0  0  0  0  0  0
  130.3498   73.4366  228.2312 H   0  0  0  0  0  0  0  0  0  0  0  0
  130.5370   75.8981  228.3610 H   0  0  0  0  0  0  0  0  0  0  0  0
  134.0495   77.8017  226.7191 H   0  0  0  0  0  0  0  0  0  0  0  0
  134.9396   75.5721  226.0534 H   0  0  0  0  0  0  0  0  0  0  0  0
  1  2  2  0
  2  3  1  0
  3  4  1  0
  4  5  1  0
  5  6  2  0
  5  7  1  0
  7  8  1  0
  8  9  1  0
  9 10  1  0
 10 11  1  0
 11 12  1  0
 12 13  1  0
 13 14  1  0
 14 15  1  0
 15 16  2  0
 16 17  1  0
 17 18  2  0
 18 19  1  0
 19 20  2  0
  2 21  1  0
 21 22  2  0
 22 23  1  0
 23 24  2  0
 24 25  1  0
 25 26  2  0
 26 27  1  0
 26 28  1  0
 28 29  2  0
 29 30  1  0
 30 31  2  0
 12  7  1  0
 20 15  1  0
 31 21  1  0
 30 24  1  0
  3 32  1  0
  4 33  1  0
  4 34  1  0
  8 35  1  0
  8 36  1  0
  9 37  1  0
  9 38  1  0
 10 39  1  0
 10 40  1  0
 11 41  1  0
 11 42  1  0
 12 43  1  6
 13 44  1  0
 13 45  1  0
 16 46  1  0
 17 47  1  0
 18 48  1  0
 19 49  1  0
 20 50  1  0
 22 51  1  0
 23 52  1  0
 25 53  1  0
 28 54  1  0
 29 55  1  0
M  END
>  <smiles>  (28) 
O=C(NCC(=O)N1CCCC[C@H]1COc1ccccc1)c1ccc2cc(Cl)ccc2n1

>  <score_type>  (28) 
oracle

>  <origin>  (28) 
autodockgpu

>  <m_score__min__energy>  (28) 
-8.5800000000000001

>  <m_primary>  (28) 
energy

>  <rmsd>  (28) 
8.258707750552098

>  <m_score__min__rmsd>  (28) 
8.258707750552098

>  <meeko>  (28) 
{"free_energy": -8.06, "intermolecular_energy": -10.15, "internal_energy": -1.69, "cluster_size": 8, "cluster_id": 4, "rank_in_cluster": 3}

>  <energy>  (28) 
-6.99

>  <cluster_rmsd>  (28) 
1.59

>  <cluster>  (28) 
3

$$$$

     RDKit          3D

 55 58  0  0  0  0  0  0  0  0999 V2000
  138.5030   76.0290  222.7930 O   0  0  0  0  0  0  0  0  0  0  0  0
  139.4140   76.1970  221.9520 C   0  0  0  0  0  0  0  0  0  0  0  0
  139.4480   77.5290  221.3560 N   0  0  0  0  0  0  0  0  0  0  0  0
  138.4320   78.4230  221.8230 C   0  0  0  0  0  0  0  0  0  0  0  0
  138.9300   79.7010  222.3120 C   0  0  0  0  0  0  0  0  0  0  0  0
  138.1080   80.6870  222.0840 O   0  0  0  0  0  0  0  0  0  0  0  0
  140.1060   80.0570  222.9730 N   0  0  0  0  0  0  0  0  0  0  0  0
  140.7630   79.3830  224.0650 C   0  0  0  0  0  0  0  0  0  0  0  0
  142.1890   79.0960  223.6820 C   0  0  0  0  0  0  0  0  0  0  0  0
  142.9390   80.4140  223.5550 C   0  0  0  0  0  0  0  0  0  0  0  0
  141.9670   81.5680  223.4040 C   0  0  0  0  0  0  0  0  0  0  0  0
  140.8130   81.2710  222.4980 C   0  0  1  0  0  0  0  0  0  0  0  0
  141.2800   81.0560  221.0700 C   0  0  0  0  0  0  0  0  0  0  0  0
  141.3130   79.6440  220.8490 O   0  0  0  0  0  0  0  0  0  0  0  0
  141.7600   79.2040  219.6190 C   0  0  0  0  0  0  0  0  0  0  0  0
  141.7650   80.1070  218.5770 C   0  0  0  0  0  0  0  0  0  0  0  0
  142.1970   79.7490  217.3080 C   0  0  0  0  0  0  0  0  0  0  0  0
  142.6310   78.4580  217.0930 C   0  0  0  0  0  0  0  0  0  0  0  0
  142.6400   77.5300  218.1120 C   0  0  0  0  0  0  0  0  0  0  0  0
  142.1990   77.9270  219.3690 C   0  0  0  0  0  0  0  0  0  0  0  0
  140.3800   75.1810  221.5680 C   0  0  0  0  0  0  0  0  0  0  0  0
  140.0390   73.8700  221.7720 C   0  0  0  0  0  0  0  0  0  0  0  0
  140.9800   72.9070  221.3970 C   0  0  0  0  0  0  0  0  0  0  0  0
  142.1990   73.2600  220.8470 C   0  0  0  0  0  0  0  0  0  0  0  0
  143.1500   72.3450  220.4640 C   0  0  0  0  0  0  0  0  0  0  0  0
  144.3650   72.7650  219.9120 C   0  0  0  0  0  0  0  0  0  0  0  0
  145.5910   71.6220  219.4190 Cl  0  0  0  0  0  0  0  0  0  0  0  0
  144.6050   74.1320  219.7500 C   0  0  0  0  0  0  0  0  0  0  0  0
  143.6480   75.0620  220.1330 C   0  0  0  0  0  0  0  0  0  0  0  0
  142.4590   74.6220  220.6750 C   0  0  0  0  0  0  0  0  0  0  0  0
  141.5490   75.5380  221.0380 N   0  0  0  0  0  0  0  0  0  0  0  0
  140.1800   77.7560  220.6500 H   0  0  0  0  0  0  0  0  0  0  0  0
  137.7390   78.6197  220.9917 H   0  0  0  0  0  0  0  0  0  0  0  0
  137.9487   77.9278  222.6781 H   0  0  0  0  0  0  0  0  0  0  0  0
  140.7439   80.0245  224.9584 H   0  0  0  0  0  0  0  0  0  0  0  0
  140.2419   78.4394  224.2844 H   0  0  0  0  0  0  0  0  0  0  0  0
  142.6619   78.4751  224.4571 H   0  0  0  0  0  0  0  0  0  0  0  0
  142.2167   78.5571  222.7235 H   0  0  0  0  0  0  0  0  0  0  0  0
  143.5495   80.5710  224.4564 H   0  0  0  0  0  0  0  0  0  0  0  0
  143.5816   80.3722  222.6632 H   0  0  0  0  0  0  0  0  0  0  0  0
  141.5710   81.8204  224.3987 H   0  0  0  0  0  0  0  0  0  0  0  0
  142.5252   82.3999  222.9498 H   0  0  0  0  0  0  0  0  0  0  0  0
  140.1312   82.1340  222.5154 H   0  0  0  0  0  0  0  0  0  0  0  0
  140.5797   81.5320  220.3679 H   0  0  0  0  0  0  0  0  0  0  0  0
  142.2730   81.5015  220.9105 H   0  0  0  0  0  0  0  0  0  0  0  0
  141.4183   81.1355  218.7560 H   0  0  0  0  0  0  0  0  0  0  0  0
  142.1933   80.4821  216.4879 H   0  0  0  0  0  0  0  0  0  0  0  0
  142.9760   78.1636  216.0909 H   0  0  0  0  0  0  0  0  0  0  0  0
  142.9873   76.5014  217.9350 H   0  0  0  0  0  0  0  0  0  0  0  0
  142.2018   77.1948  220.1899 H   0  0  0  0  0  0  0  0  0  0  0  0
  139.0702   73.5885  222.2103 H   0  0  0  0  0  0  0  0  0  0  0  0
  140.7454   71.8423  221.5429 H   0  0  0  0  0  0  0  0  0  0  0  0
  142.9538   71.2703  220.5929 H   0  0  0  0  0  0  0  0  0  0  0  0
  145.5569   74.4730  219.3169 H   0  0  0  0  0  0  0  0  0  0  0  0
  143.8363   76.1382  220.0054 H   0  0  0  0  0  0  0  0  0  0  0  0
  1  2  2  0
  2  3  1  0
  3  4  1  0
  4  5  1  0
  5  6  2  0
  5  7  1  0
  7  8  1  0
  8  9  1  0
  9 10  1  0
 10 11  1  0
 11 12  1  0
 12 13  1  0
 13 14  1  0
 14 15  1  0
 15 16  2  0
 16 17  1  0
 17 18  2  0
 18 19  1  0
 19 20  2  0
  2 21  1  0
 21 22  2  0
 22 23  1  0
 23 24  2  0
 24 25  1  0
 25 26  2  0
 26 27  1  0
 26 28  1  0
 28 29  2  0
 29 30  1  0
 30 31  2  0
 12  7  1  0
 20 15  1  0
 31 21  1  0
 30 24  1  0
  3 32  1  0
  4 33  1  0
  4 34  1  0
  8 35  1  0
  8 36  1  0
  9 37  1  0
  9 38  1  0
 10 39  1  0
 10 40  1  0
 11 41  1  0
 11 42  1  0
 12 43  1  6
 13 44  1  0
 13 45  1  0
 16 46  1  0
 17 47  1  0
 18 48  1  0
 19 49  1  0
 20 50  1  0
 22 51  1  0
 23 52  1  0
 25 53  1  0
 28 54  1  0
 29 55  1  0
M  END
>  <smiles>  (29) 
O=C(NCC(=O)N1CCCC[C@H]1COc1ccccc1)c1ccc2cc(Cl)ccc2n1

>  <score_type>  (29) 
oracle

>  <origin>  (29) 
autodockgpu

>  <m_score__min__energy>  (29) 
-8.5800000000000001

>  <m_primary>  (29) 
energy

>  <rmsd>  (29) 
6.639274654111697

>  <m_score__min__rmsd>  (29) 
6.639274654111697

>  <meeko>  (29) 
{"free_energy": -6.48, "intermolecular_energy": -8.57, "internal_energy": -3.34, "cluster_size": 5, "cluster_id": 8, "rank_in_cluster": 5}

>  <energy>  (29) 
-8.42

>  <cluster_rmsd>  (29) 
0.0

>  <cluster>  (29) 
4

$$$$

     RDKit          3D

 55 58  0  0  0  0  0  0  0  0999 V2000
  138.4610   71.5960  221.1630 O   0  0  0  0  0  0  0  0  0  0  0  0
  138.9530   71.9600  222.2550 C   0  0  0  0  0  0  0  0  0  0  0  0
  139.2150   73.3930  222.3520 N   0  0  0  0  0  0  0  0  0  0  0  0
  138.8740   74.1470  221.1850 C   0  0  0  0  0  0  0  0  0  0  0  0
  139.5030   75.4580  221.1070 C   0  0  0  0  0  0  0  0  0  0  0  0
  140.1940   75.7540  222.1720 O   0  0  0  0  0  0  0  0  0  0  0  0
  139.5030   76.4380  220.1150 N   0  0  0  0  0  0  0  0  0  0  0  0
  139.2940   76.2830  218.6970 C   0  0  0  0  0  0  0  0  0  0  0  0
  138.1750   77.1910  218.2610 C   0  0  0  0  0  0  0  0  0  0  0  0
  138.6270   78.6360  218.4130 C   0  0  0  0  0  0  0  0  0  0  0  0
  139.8230   78.7260  219.3410 C   0  0  0  0  0  0  0  0  0  0  0  0
  139.7220   77.8420  220.5440 C   0  0  1  0  0  0  0  0  0  0  0  0
  138.5810   78.2750  221.4470 C   0  0  0  0  0  0  0  0  0  0  0  0
  139.0880   78.2950  222.7820 O   0  0  0  0  0  0  0  0  0  0  0  0
  140.2070   79.0660  223.0270 C   0  0  0  0  0  0  0  0  0  0  0  0
  140.0330   80.4280  223.1470 C   0  0  0  0  0  0  0  0  0  0  0  0
  141.1010   81.2790  223.3930 C   0  0  0  0  0  0  0  0  0  0  0  0
  142.3640   80.7400  223.5200 C   0  0  0  0  0  0  0  0  0  0  0  0
  142.5750   79.3820  223.4060 C   0  0  0  0  0  0  0  0  0  0  0  0
  141.4780   78.5640  223.1590 C   0  0  0  0  0  0  0  0  0  0  0  0
  139.2570   71.0670  223.3610 C   0  0  0  0  0  0  0  0  0  0  0  0
  138.9190   69.7470  223.2240 C   0  0  0  0  0  0  0  0  0  0  0  0
  139.2190   68.9030  224.2970 C   0  0  0  0  0  0  0  0  0  0  0  0
  139.8270   69.3780  225.4450 C   0  0  0  0  0  0  0  0  0  0  0  0
  140.1390   68.5830  226.5210 C   0  0  0  0  0  0  0  0  0  0  0  0
  140.7540   69.1230  227.6550 C   0  0  0  0  0  0  0  0  0  0  0  0
  141.1600   68.1330  229.0370 Cl  0  0  0  0  0  0  0  0  0  0  0  0
  141.0530   70.4880  227.6840 C   0  0  0  0  0  0  0  0  0  0  0  0
  140.7420   71.2970  226.6000 C   0  0  0  0  0  0  0  0  0  0  0  0
  140.1350   70.7400  225.4940 C   0  0  0  0  0  0  0  0  0  0  0  0
  139.8440   71.5410  224.4600 N   0  0  0  0  0  0  0  0  0  0  0  0
  139.6190   73.7810  223.2310 H   0  0  0  0  0  0  0  0  0  0  0  0
  139.1775   73.5673  220.3008 H   0  0  0  0  0  0  0  0  0  0  0  0
  137.7893   74.3232  221.2328 H   0  0  0  0  0  0  0  0  0  0  0  0
  140.2152   76.5488  218.1578 H   0  0  0  0  0  0  0  0  0  0  0  0
  139.0316   75.2384  218.4734 H   0  0  0  0  0  0  0  0  0  0  0  0
  137.9254   76.9907  217.2086 H   0  0  0  0  0  0  0  0  0  0  0  0
  137.2849   77.0111  218.8818 H   0  0  0  0  0  0  0  0  0  0  0  0
  138.9047   79.0337  217.4257 H   0  0  0  0  0  0  0  0  0  0  0  0
  137.8010   79.2230  218.8409 H   0  0  0  0  0  0  0  0  0  0  0  0
  140.7227   78.4411  218.7758 H   0  0  0  0  0  0  0  0  0  0  0  0
  139.8666   79.7622  219.7077 H   0  0  0  0  0  0  0  0  0  0  0  0
  140.6632   77.9211  221.1079 H   0  0  0  0  0  0  0  0  0  0  0  0
  138.2325   79.2782  221.1604 H   0  0  0  0  0  0  0  0  0  0  0  0
  137.7294   77.5840  221.3614 H   0  0  0  0  0  0  0  0  0  0  0  0
  139.0226   80.8508  223.0453 H   0  0  0  0  0  0  0  0  0  0  0  0
  140.9431   82.3637  223.4850 H   0  0  0  0  0  0  0  0  0  0  0  0
  143.2181   81.4050  223.7157 H   0  0  0  0  0  0  0  0  0  0  0  0
  143.5845   78.9571  223.5078 H   0  0  0  0  0  0  0  0  0  0  0  0
  141.6337   77.4790  223.0663 H   0  0  0  0  0  0  0  0  0  0  0  0
  138.4340   69.3686  222.3121 H   0  0  0  0  0  0  0  0  0  0  0  0
  138.9654   67.8349  224.2267 H   0  0  0  0  0  0  0  0  0  0  0  0
  139.9024   67.5092  226.4903 H   0  0  0  0  0  0  0  0  0  0  0  0
  141.5373   70.9233  228.5705 H   0  0  0  0  0  0  0  0  0  0  0  0
  140.9772   72.3713  226.6228 H   0  0  0  0  0  0  0  0  0  0  0  0
  1  2  2  0
  2  3  1  0
  3  4  1  0
  4  5  1  0
  5  6  2  0
  5  7  1  0
  7  8  1  0
  8  9  1  0
  9 10  1  0
 10 11  1  0
 11 12  1  0
 12 13  1  0
 13 14  1  0
 14 15  1  0
 15 16  2  0
 16 17  1  0
 17 18  2  0
 18 19  1  0
 19 20  2  0
  2 21  1  0
 21 22  2  0
 22 23  1  0
 23 24  2  0
 24 25  1  0
 25 26  2  0
 26 27  1  0
 26 28  1  0
 28 29  2  0
 29 30  1  0
 30 31  2  0
 12  7  1  0
 20 15  1  0
 31 21  1  0
 30 24  1  0
  3 32  1  0
  4 33  1  0
  4 34  1  0
  8 35  1  0
  8 36  1  0
  9 37  1  0
  9 38  1  0
 10 39  1  0
 10 40  1  0
 11 41  1  0
 11 42  1  0
 12 43  1  1
 13 44  1  0
 13 45  1  0
 16 46  1  0
 17 47  1  0
 18 48  1  0
 19 49  1  0
 20 50  1  0
 22 51  1  0
 23 52  1  0
 25 53  1  0
 28 54  1  0
 29 55  1  0
M  END
>  <smiles>  (30) 
O=C(NCC(=O)N1CCCC[C@H]1COc1ccccc1)c1ccc2cc(Cl)ccc2n1

>  <score_type>  (30) 
oracle

>  <origin>  (30) 
autodockgpu

>  <m_score__min__energy>  (30) 
-8.5800000000000001

>  <m_primary>  (30) 
energy

>  <rmsd>  (30) 
1.8131862372184722

>  <m_score__min__rmsd>  (30) 
1.8131862372184722

>  <meeko>  (30) 
{"free_energy": -7.77, "intermolecular_energy": -9.86, "internal_energy": -2.2, "cluster_size": 17, "cluster_id": 1, "rank_in_cluster": 9}

>  <energy>  (30) 
-8.32

>  <cluster_rmsd>  (30) 
0.38

>  <cluster>  (30) 
4

$$$$

     RDKit          3D

 55 58  0  0  0  0  0  0  0  0999 V2000
  140.2300   72.3610  220.7690 O   0  0  0  0  0  0  0  0  0  0  0  0
  139.9860   72.6170  221.9690 C   0  0  0  0  0  0  0  0  0  0  0  0
  139.6620   74.0150  222.2350 N   0  0  0  0  0  0  0  0  0  0  0  0
  139.6820   74.8660  221.0860 C   0  0  0  0  0  0  0  0  0  0  0  0
  140.8280   75.7630  221.0180 C   0  0  0  0  0  0  0  0  0  0  0  0
  141.1020   76.3240  222.1620 O   0  0  0  0  0  0  0  0  0  0  0  0
  141.6740   76.1220  219.9690 N   0  0  0  0  0  0  0  0  0  0  0  0
  142.3850   75.2660  219.0530 C   0  0  0  0  0  0  0  0  0  0  0  0
  142.0340   75.6520  217.6420 C   0  0  0  0  0  0  0  0  0  0  0  0
  142.5910   77.0400  217.3590 C   0  0  0  0  0  0  0  0  0  0  0  0
  142.9070   77.7620  218.6550 C   0  0  0  0  0  0  0  0  0  0  0  0
  141.8730   77.5710  219.7200 C   0  0  1  0  0  0  0  0  0  0  0  0
  140.5510   78.1980  219.3180 C   0  0  0  0  0  0  0  0  0  0  0  0
  140.4790   79.4730  219.9600 O   0  0  0  0  0  0  0  0  0  0  0  0
  141.0080   79.5750  221.2310 C   0  0  0  0  0  0  0  0  0  0  0  0
  140.2600   79.0820  222.2790 C   0  0  0  0  0  0  0  0  0  0  0  0
  140.7160   79.1430  223.5880 C   0  0  0  0  0  0  0  0  0  0  0  0
  141.9470   79.7120  223.8390 C   0  0  0  0  0  0  0  0  0  0  0  0
  142.7210   80.2140  222.8140 C   0  0  0  0  0  0  0  0  0  0  0  0
  142.2300   80.1340  221.5160 C   0  0  0  0  0  0  0  0  0  0  0  0
  140.0120   71.6360  223.0430 C   0  0  0  0  0  0  0  0  0  0  0  0
  139.5260   70.3850  222.7740 C   0  0  0  0  0  0  0  0  0  0  0  0
  139.5600   69.4570  223.8180 C   0  0  0  0  0  0  0  0  0  0  0  0
  140.0580   69.7850  225.0650 C   0  0  0  0  0  0  0  0  0  0  0  0
  140.1090   68.9030  226.1170 C   0  0  0  0  0  0  0  0  0  0  0  0
  140.6260   69.2950  227.3560 C   0  0  0  0  0  0  0  0  0  0  0  0
  140.7010   68.1930  228.7090 Cl  0  0  0  0  0  0  0  0  0  0  0  0
  141.0950   70.6030  227.5160 C   0  0  0  0  0  0  0  0  0  0  0  0
  141.0480   71.4990  226.4580 C   0  0  0  0  0  0  0  0  0  0  0  0
  140.5330   71.0870  225.2470 C   0  0  0  0  0  0  0  0  0  0  0  0
  140.4970   71.9700  224.2390 N   0  0  0  0  0  0  0  0  0  0  0  0
  139.4400   74.3120  223.2090 H   0  0  0  0  0  0  0  0  0  0  0  0
  139.6893   74.2307  220.1881 H   0  0  0  0  0  0  0  0  0  0  0  0
  138.7888   75.5044  221.1541 H   0  0  0  0  0  0  0  0  0  0  0  0
  143.4680   75.3809  219.2073 H   0  0  0  0  0  0  0  0  0  0  0  0
  142.1019   74.2180  219.2309 H   0  0  0  0  0  0  0  0  0  0  0  0
  142.4733   74.9275  216.9405 H   0  0  0  0  0  0  0  0  0  0  0  0
  140.9411   75.6557  217.5169 H   0  0  0  0  0  0  0  0  0  0  0  0
  143.5112   76.9460  216.7637 H   0  0  0  0  0  0  0  0  0  0  0  0
  141.8373   77.6187  216.8049 H   0  0  0  0  0  0  0  0  0  0  0  0
  143.8693   77.3880  219.0347 H   0  0  0  0  0  0  0  0  0  0  0  0
  142.9348   78.8372  218.4244 H   0  0  0  0  0  0  0  0  0  0  0  0
  142.2293   78.0647  220.6361 H   0  0  0  0  0  0  0  0  0  0  0  0
  140.5088   78.3224  218.2259 H   0  0  0  0  0  0  0  0  0  0  0  0
  139.7071   77.5597  219.6186 H   0  0  0  0  0  0  0  0  0  0  0  0
  139.2788   78.6297  222.0726 H   0  0  0  0  0  0  0  0  0  0  0  0
  140.1059   78.7442  224.4118 H   0  0  0  0  0  0  0  0  0  0  0  0
  142.3174   79.7663  224.8734 H   0  0  0  0  0  0  0  0  0  0  0  0
  143.7025   80.6665  223.0184 H   0  0  0  0  0  0  0  0  0  0  0  0
  142.8394   80.5310  220.6908 H   0  0  0  0  0  0  0  0  0  0  0  0
  139.1275   70.1227  221.7828 H   0  0  0  0  0  0  0  0  0  0  0  0
  139.1808   68.4394  223.6431 H   0  0  0  0  0  0  0  0  0  0  0  0
  139.7387   67.8759  225.9833 H   0  0  0  0  0  0  0  0  0  0  0  0
  141.5033   70.9229  228.4860 H   0  0  0  0  0  0  0  0  0  0  0  0
  141.4177   72.5274  226.5838 H   0  0  0  0  0  0  0  0  0  0  0  0
  1  2  2  0
  2  3  1  0
  3  4  1  0
  4  5  1  0
  5  6  2  0
  5  7  1  0
  7  8  1  0
  8  9  1  0
  9 10  1  0
 10 11  1  0
 11 12  1  0
 12 13  1  0
 13 14  1  0
 14 15  1  0
 15 16  2  0
 16 17  1  0
 17 18  2  0
 18 19  1  0
 19 20  2  0
  2 21  1  0
 21 22  2  0
 22 23  1  0
 23 24  2  0
 24 25  1  0
 25 26  2  0
 26 27  1  0
 26 28  1  0
 28 29  2  0
 29 30  1  0
 30 31  2  0
 12  7  1  0
 20 15  1  0
 31 21  1  0
 30 24  1  0
  3 32  1  0
  4 33  1  0
  4 34  1  0
  8 35  1  0
  8 36  1  0
  9 37  1  0
  9 38  1  0
 10 39  1  0
 10 40  1  0
 11 41  1  0
 11 42  1  0
 12 43  1  1
 13 44  1  0
 13 45  1  0
 16 46  1  0
 17 47  1  0
 18 48  1  0
 19 49  1  0
 20 50  1  0
 22 51  1  0
 23 52  1  0
 25 53  1  0
 28 54  1  0
 29 55  1  0
M  END
>  <smiles>  (31) 
O=C(NCC(=O)N1CCCC[C@H]1COc1ccccc1)c1ccc2cc(Cl)ccc2n1

>  <score_type>  (31) 
oracle

>  <origin>  (31) 
autodockgpu

>  <m_score__min__energy>  (31) 
-8.5800000000000001

>  <m_primary>  (31) 
energy

>  <rmsd>  (31) 
1.8736355771288464

>  <m_score__min__rmsd>  (31) 
1.8736355771288464

>  <meeko>  (31) 
{"free_energy": -8.31, "intermolecular_energy": -10.4, "internal_energy": -1.94, "cluster_size": 17, "cluster_id": 1, "rank_in_cluster": 3}

>  <energy>  (31) 
-8.06

>  <cluster_rmsd>  (31) 
0.67

>  <cluster>  (31) 
4

$$$$

     RDKit          3D

 55 58  0  0  0  0  0  0  0  0999 V2000
  137.2760   72.0030  220.9540 O   0  0  0  0  0  0  0  0  0  0  0  0
  137.9410   72.3710  221.9480 C   0  0  0  0  0  0  0  0  0  0  0  0
  138.3220   73.7800  221.9320 N   0  0  0  0  0  0  0  0  0  0  0  0
  137.8800   74.5090  220.7830 C   0  0  0  0  0  0  0  0  0  0  0  0
  138.7960   75.5520  220.3400 C   0  0  0  0  0  0  0  0  0  0  0  0
  139.3240   75.3020  219.1750 O   0  0  0  0  0  0  0  0  0  0  0  0
  139.2010   76.7520  220.9240 N   0  0  0  0  0  0  0  0  0  0  0  0
  138.3970   77.8910  221.2880 C   0  0  0  0  0  0  0  0  0  0  0  0
  138.6200   78.2100  222.7420 C   0  0  0  0  0  0  0  0  0  0  0  0
  140.0510   78.6920  222.9250 C   0  0  0  0  0  0  0  0  0  0  0  0
  140.9070   78.2880  221.7400 C   0  0  0  0  0  0  0  0  0  0  0  0
  140.6410   76.8990  221.2500 C   0  0  1  0  0  0  0  0  0  0  0  0
  141.0280   75.8670  222.2930 C   0  0  0  0  0  0  0  0  0  0  0  0
  140.7670   74.5810  221.7280 O   0  0  0  0  0  0  0  0  0  0  0  0
  141.8410   73.8820  221.2120 C   0  0  0  0  0  0  0  0  0  0  0  0
  142.8650   74.6090  220.6440 C   0  0  0  0  0  0  0  0  0  0  0  0
  143.9820   73.9880  220.1030 C   0  0  0  0  0  0  0  0  0  0  0  0
  144.0610   72.6120  220.1380 C   0  0  0  0  0  0  0  0  0  0  0  0
  143.0550   71.8540  220.7000 C   0  0  0  0  0  0  0  0  0  0  0  0
  141.9520   72.5140  221.2310 C   0  0  0  0  0  0  0  0  0  0  0  0
  138.3270   71.5030  223.0490 C   0  0  0  0  0  0  0  0  0  0  0  0
  137.6170   70.3450  223.2250 C   0  0  0  0  0  0  0  0  0  0  0  0
  138.0030   69.5240  224.2880 C   0  0  0  0  0  0  0  0  0  0  0  0
  139.0510   69.8640  225.1240 C   0  0  0  0  0  0  0  0  0  0  0  0
  139.4610   69.0850  226.1790 C   0  0  0  0  0  0  0  0  0  0  0  0
  140.5300   69.4830  226.9890 C   0  0  0  0  0  0  0  0  0  0  0  0
  141.0700   68.5110  228.3370 Cl  0  0  0  0  0  0  0  0  0  0  0  0
  141.1820   70.6880  226.7140 C   0  0  0  0  0  0  0  0  0  0  0  0
  140.7740   71.4790  225.6500 C   0  0  0  0  0  0  0  0  0  0  0  0
  139.7170   71.0640  224.8660 C   0  0  0  0  0  0  0  0  0  0  0  0
  139.3400   71.8450  223.8440 N   0  0  0  0  0  0  0  0  0  0  0  0
  138.8730   74.1700  222.7260 H   0  0  0  0  0  0  0  0  0  0  0  0
  137.7441   73.7969  219.9557 H   0  0  0  0  0  0  0  0  0  0  0  0
  136.9471   75.0145  221.0730 H   0  0  0  0  0  0  0  0  0  0  0  0
  138.6852   78.7564  220.6731 H   0  0  0  0  0  0  0  0  0  0  0  0
  137.3344   77.6625  221.1186 H   0  0  0  0  0  0  0  0  0  0  0  0
  137.9212   78.9982  223.0588 H   0  0  0  0  0  0  0  0  0  0  0  0
  138.4478   77.3111  223.3522 H   0  0  0  0  0  0  0  0  0  0  0  0
  140.0542   79.7882  223.0160 H   0  0  0  0  0  0  0  0  0  0  0  0
  140.4658   78.2330  223.8345 H   0  0  0  0  0  0  0  0  0  0  0  0
  140.7123   78.9900  220.9158 H   0  0  0  0  0  0  0  0  0  0  0  0
  141.9540   78.3147  222.0764 H   0  0  0  0  0  0  0  0  0  0  0  0
  141.2500   76.7304  220.3496 H   0  0  0  0  0  0  0  0  0  0  0  0
  142.0959   75.9614  222.5392 H   0  0  0  0  0  0  0  0  0  0  0  0
  140.4530   76.0118  223.2195 H   0  0  0  0  0  0  0  0  0  0  0  0
  142.7953   75.7065  220.6189 H   0  0  0  0  0  0  0  0  0  0  0  0
  144.7905   74.5835  219.6539 H   0  0  0  0  0  0  0  0  0  0  0  0
  144.9415   72.1101  219.7104 H   0  0  0  0  0  0  0  0  0  0  0  0
  143.1233   70.7565  220.7275 H   0  0  0  0  0  0  0  0  0  0  0  0
  141.1424   71.9205  221.6808 H   0  0  0  0  0  0  0  0  0  0  0  0
  136.7827   70.0741  222.5613 H   0  0  0  0  0  0  0  0  0  0  0  0
  137.4597   68.5839  224.4642 H   0  0  0  0  0  0  0  0  0  0  0  0
  138.9428   68.1377  226.3891 H   0  0  0  0  0  0  0  0  0  0  0  0
  142.0234   71.0111  227.3447 H   0  0  0  0  0  0  0  0  0  0  0  0
  141.2878   72.4272  225.4335 H   0  0  0  0  0  0  0  0  0  0  0  0
  1  2  2  0
  2  3  1  0
  3  4  1  0
  4  5  1  0
  5  6  2  0
  5  7  1  0
  7  8  1  0
  8  9  1  0
  9 10  1  0
 10 11  1  0
 11 12  1  0
 12 13  1  0
 13 14  1  0
 14 15  1  0
 15 16  2  0
 16 17  1  0
 17 18  2  0
 18 19  1  0
 19 20  2  0
  2 21  1  0
 21 22  2  0
 22 23  1  0
 23 24  2  0
 24 25  1  0
 25 26  2  0
 26 27  1  0
 26 28  1  0
 28 29  2  0
 29 30  1  0
 30 31  2  0
 12  7  1  0
 20 15  1  0
 31 21  1  0
 30 24  1  0
  3 32  1  0
  4 33  1  0
  4 34  1  0
  8 35  1  0
  8 36  1  0
  9 37  1  0
  9 38  1  0
 10 39  1  0
 10 40  1  0
 11 41  1  0
 11 42  1  0
 12 43  1  6
 13 44  1  0
 13 45  1  0
 16 46  1  0
 17 47  1  0
 18 48  1  0
 19 49  1  0
 20 50  1  0
 22 51  1  0
 23 52  1  0
 25 53  1  0
 28 54  1  0
 29 55  1  0
M  END
>  <smiles>  (32) 
O=C(NCC(=O)N1CCCC[C@H]1COc1ccccc1)c1ccc2cc(Cl)ccc2n1

>  <score_type>  (32) 
oracle

>  <origin>  (32) 
autodockgpu

>  <m_score__min__energy>  (32) 
-8.5800000000000001

>  <m_primary>  (32) 
energy

>  <rmsd>  (32) 
2.9657401660733265

>  <m_score__min__rmsd>  (32) 
2.9657401660733265

>  <meeko>  (32) 
{"free_energy": -6.99, "intermolecular_energy": -9.07, "internal_energy": -2.69, "cluster_size": 9, "cluster_id": 3, "rank_in_cluster": 9}

>  <energy>  (32) 
-8.04

>  <cluster_rmsd>  (32) 
0.87

>  <cluster>  (32) 
4

$$$$

     RDKit          3D

 55 58  0  0  0  0  0  0  0  0999 V2000
  138.3500   76.0010  223.1080 O   0  0  0  0  0  0  0  0  0  0  0  0
  139.2650   76.1760  222.2730 C   0  0  0  0  0  0  0  0  0  0  0  0
  139.3810   77.5450  221.7800 N   0  0  0  0  0  0  0  0  0  0  0  0
  138.4280   78.4620  222.3250 C   0  0  0  0  0  0  0  0  0  0  0  0
  138.9810   79.4080  223.2860 C   0  0  0  0  0  0  0  0  0  0  0  0
  138.0750   79.9220  224.0710 O   0  0  0  0  0  0  0  0  0  0  0  0
  140.2820   79.8520  223.5190 N   0  0  0  0  0  0  0  0  0  0  0  0
  141.3710   79.1540  224.1560 C   0  0  0  0  0  0  0  0  0  0  0  0
  142.5570   79.1400  223.2300 C   0  0  0  0  0  0  0  0  0  0  0  0
  143.0730   80.5630  223.0700 C   0  0  0  0  0  0  0  0  0  0  0  0
  142.0160   81.5640  223.4930 C   0  0  0  0  0  0  0  0  0  0  0  0
  140.6340   81.2110  223.0390 C   0  0  1  0  0  0  0  0  0  0  0  0
  140.5280   81.2530  221.5260 C   0  0  0  0  0  0  0  0  0  0  0  0
  140.5330   79.8990  221.0680 O   0  0  0  0  0  0  0  0  0  0  0  0
  141.3380   79.5960  219.9880 C   0  0  0  0  0  0  0  0  0  0  0  0
  141.7410   80.6350  219.1760 C   0  0  0  0  0  0  0  0  0  0  0  0
  142.5510   80.4210  218.0700 C   0  0  0  0  0  0  0  0  0  0  0  0
  142.9590   79.1350  217.7840 C   0  0  0  0  0  0  0  0  0  0  0  0
  142.5760   78.0730  218.5750 C   0  0  0  0  0  0  0  0  0  0  0  0
  141.7630   78.3290  219.6740 C   0  0  0  0  0  0  0  0  0  0  0  0
  140.1610   75.1320  221.8010 C   0  0  0  0  0  0  0  0  0  0  0  0
  139.7530   73.8320  221.9410 C   0  0  0  0  0  0  0  0  0  0  0  0
  140.6270   72.8430  221.4830 C   0  0  0  0  0  0  0  0  0  0  0  0
  141.8470   73.1600  220.9150 C   0  0  0  0  0  0  0  0  0  0  0  0
  142.7350   72.2190  220.4510 C   0  0  0  0  0  0  0  0  0  0  0  0
  143.9540   72.6030  219.8860 C   0  0  0  0  0  0  0  0  0  0  0  0
  145.1000   71.4250  219.2900 Cl  0  0  0  0  0  0  0  0  0  0  0  0
  144.2670   73.9630  219.7950 C   0  0  0  0  0  0  0  0  0  0  0  0
  143.3750   74.9190  220.2600 C   0  0  0  0  0  0  0  0  0  0  0  0
  142.1780   74.5140  220.8130 C   0  0  0  0  0  0  0  0  0  0  0  0
  141.3330   75.4550  221.2560 N   0  0  0  0  0  0  0  0  0  0  0  0
  140.1220   77.7770  221.0850 H   0  0  0  0  0  0  0  0  0  0  0  0
  137.9874   79.0335  221.4948 H   0  0  0  0  0  0  0  0  0  0  0  0
  137.6887   77.8574  222.8709 H   0  0  0  0  0  0  0  0  0  0  0  0
  141.6401   79.6669  225.0912 H   0  0  0  0  0  0  0  0  0  0  0  0
  141.0665   78.1217  224.3831 H   0  0  0  0  0  0  0  0  0  0  0  0
  143.3491   78.5052  223.6538 H   0  0  0  0  0  0  0  0  0  0  0  0
  142.2605   78.7382  222.2499 H   0  0  0  0  0  0  0  0  0  0  0  0
  143.9678   80.6957  223.6959 H   0  0  0  0  0  0  0  0  0  0  0  0
  143.3203   80.7339  222.0119 H   0  0  0  0  0  0  0  0  0  0  0  0
  142.0154   81.6246  224.5913 H   0  0  0  0  0  0  0  0  0  0  0  0
  142.2741   82.5224  223.0188 H   0  0  0  0  0  0  0  0  0  0  0  0
  139.9359   81.9503  223.4586 H   0  0  0  0  0  0  0  0  0  0  0  0
  139.5931   81.7494  221.2266 H   0  0  0  0  0  0  0  0  0  0  0  0
  141.3652   81.8176  221.0898 H   0  0  0  0  0  0  0  0  0  0  0  0
  141.4124   81.6582  219.4107 H   0  0  0  0  0  0  0  0  0  0  0  0
  142.8621   81.2619  217.4328 H   0  0  0  0  0  0  0  0  0  0  0  0
  143.6012   78.9536  216.9095 H   0  0  0  0  0  0  0  0  0  0  0  0
  142.9050   77.0493  218.3429 H   0  0  0  0  0  0  0  0  0  0  0  0
  141.4505   77.4893  220.3121 H   0  0  0  0  0  0  0  0  0  0  0  0
  138.7827   73.5786  222.3929 H   0  0  0  0  0  0  0  0  0  0  0  0
  140.3374   71.7860  221.5766 H   0  0  0  0  0  0  0  0  0  0  0  0
  142.4830   71.1508  220.5253 H   0  0  0  0  0  0  0  0  0  0  0  0
  145.2243   74.2763  219.3530 H   0  0  0  0  0  0  0  0  0  0  0  0
  143.6200   75.9890  220.1883 H   0  0  0  0  0  0  0  0  0  0  0  0
  1  2  2  0
  2  3  1  0
  3  4  1  0
  4  5  1  0
  5  6  2  0
  5  7  1  0
  7  8  1  0
  8  9  1  0
  9 10  1  0
 10 11  1  0
 11 12  1  0
 12 13  1  0
 13 14  1  0
 14 15  1  0
 15 16  2  0
 16 17  1  0
 17 18  2  0
 18 19  1  0
 19 20  2  0
  2 21  1  0
 21 22  2  0
 22 23  1  0
 23 24  2  0
 24 25  1  0
 25 26  2  0
 26 27  1  0
 26 28  1  0
 28 29  2  0
 29 30  1  0
 30 31  2  0
 12  7  1  0
 20 15  1  0
 31 21  1  0
 30 24  1  0
  3 32  1  0
  4 33  1  0
  4 34  1  0
  8 35  1  0
  8 36  1  0
  9 37  1  0
  9 38  1  0
 10 39  1  0
 10 40  1  0
 11 41  1  0
 11 42  1  0
 12 43  1  1
 13 44  1  0
 13 45  1  0
 16 46  1  0
 17 47  1  0
 18 48  1  0
 19 49  1  0
 20 50  1  0
 22 51  1  0
 23 52  1  0
 25 53  1  0
 28 54  1  0
 29 55  1  0
M  END
>  <smiles>  (33) 
O=C(NCC(=O)N1CCCC[C@H]1COc1ccccc1)c1ccc2cc(Cl)ccc2n1

>  <score_type>  (33) 
oracle

>  <origin>  (33) 
autodockgpu

>  <m_score__min__energy>  (33) 
-8.5800000000000001

>  <m_primary>  (33) 
energy

>  <rmsd>  (33) 
6.576435857272393

>  <m_score__min__rmsd>  (33) 
6.576435857272393

>  <meeko>  (33) 
{"free_energy": -6.63, "intermolecular_energy": -8.71, "internal_energy": -3.34, "cluster_size": 5, "cluster_id": 8, "rank_in_cluster": 3}

>  <energy>  (33) 
-7.88

>  <cluster_rmsd>  (33) 
0.92

>  <cluster>  (33) 
4

$$$$

     RDKit          3D

 55 58  0  0  0  0  0  0  0  0999 V2000
  137.9840   71.5160  220.6240 O   0  0  0  0  0  0  0  0  0  0  0  0
  138.2830   71.9770  221.7480 C   0  0  0  0  0  0  0  0  0  0  0  0
  138.2540   73.4340  221.8310 N   0  0  0  0  0  0  0  0  0  0  0  0
  137.8950   74.0980  220.6160 C   0  0  0  0  0  0  0  0  0  0  0  0
  139.0070   74.7380  219.9250 C   0  0  0  0  0  0  0  0  0  0  0  0
  138.7720   75.9860  219.6320 O   0  0  0  0  0  0  0  0  0  0  0  0
  140.2590   74.2670  219.5310 N   0  0  0  0  0  0  0  0  0  0  0  0
  140.8520   74.2750  218.2170 C   0  0  0  0  0  0  0  0  0  0  0  0
  142.1870   74.9660  218.2820 C   0  0  0  0  0  0  0  0  0  0  0  0
  143.1390   74.1170  219.1120 C   0  0  0  0  0  0  0  0  0  0  0  0
  142.3680   73.1250  219.9600 C   0  0  0  0  0  0  0  0  0  0  0  0
  141.1340   73.6950  220.5850 C   0  0  1  0  0  0  0  0  0  0  0  0
  141.4810   74.7770  221.5920 C   0  0  0  0  0  0  0  0  0  0  0  0
  140.2880   75.0640  222.3250 O   0  0  0  0  0  0  0  0  0  0  0  0
  139.9880   76.3920  222.5560 C   0  0  0  0  0  0  0  0  0  0  0  0
  141.0400   77.2700  222.7100 C   0  0  0  0  0  0  0  0  0  0  0  0
  140.8300   78.6220  222.9450 C   0  0  0  0  0  0  0  0  0  0  0  0
  139.5350   79.0890  223.0250 C   0  0  0  0  0  0  0  0  0  0  0  0
  138.4600   78.2390  222.8750 C   0  0  0  0  0  0  0  0  0  0  0  0
  138.7120   76.8920  222.6410 C   0  0  0  0  0  0  0  0  0  0  0  0
  138.6390   71.1690  222.9030 C   0  0  0  0  0  0  0  0  0  0  0  0
  138.0790   69.9230  223.0040 C   0  0  0  0  0  0  0  0  0  0  0  0
  138.4320   69.1600  224.1200 C   0  0  0  0  0  0  0  0  0  0  0  0
  139.3050   69.6400  225.0800 C   0  0  0  0  0  0  0  0  0  0  0  0
  139.6780   68.9230  226.1910 C   0  0  0  0  0  0  0  0  0  0  0  0
  140.5650   69.4640  227.1260 C   0  0  0  0  0  0  0  0  0  0  0  0
  141.0540   68.5720  228.5480 Cl  0  0  0  0  0  0  0  0  0  0  0  0
  141.0750   70.7490  226.9200 C   0  0  0  0  0  0  0  0  0  0  0  0
  140.7030   71.4790  225.8000 C   0  0  0  0  0  0  0  0  0  0  0  0
  139.8260   70.9230  224.8920 C   0  0  0  0  0  0  0  0  0  0  0  0
  139.4820   71.6460  223.8180 N   0  0  0  0  0  0  0  0  0  0  0  0
  138.4850   73.9000  222.7340 H   0  0  0  0  0  0  0  0  0  0  0  0
  137.4505   73.3553  219.9371 H   0  0  0  0  0  0  0  0  0  0  0  0
  137.1958   74.9006  220.8933 H   0  0  0  0  0  0  0  0  0  0  0  0
  140.9895   73.2406  217.8689 H   0  0  0  0  0  0  0  0  0  0  0  0
  140.1927   74.8089  217.5168 H   0  0  0  0  0  0  0  0  0  0  0  0
  142.5903   75.0874  217.2658 H   0  0  0  0  0  0  0  0  0  0  0  0
  142.0722   75.9580  218.7432 H   0  0  0  0  0  0  0  0  0  0  0  0
  143.8148   73.5689  218.4390 H   0  0  0  0  0  0  0  0  0  0  0  0
  143.7163   74.7775  219.7757 H   0  0  0  0  0  0  0  0  0  0  0  0
  142.0742   72.2783  219.3222 H   0  0  0  0  0  0  0  0  0  0  0  0
  143.0328   72.8221  220.7824 H   0  0  0  0  0  0  0  0  0  0  0  0
  140.6090   72.8837  221.1106 H   0  0  0  0  0  0  0  0  0  0  0  0
  142.2668   74.4202  222.2741 H   0  0  0  0  0  0  0  0  0  0  0  0
  141.8570   75.6783  221.0858 H   0  0  0  0  0  0  0  0  0  0  0  0
  142.0703   76.8901  222.6451 H   0  0  0  0  0  0  0  0  0  0  0  0
  141.6812   79.3083  223.0652 H   0  0  0  0  0  0  0  0  0  0  0  0
  139.3566   80.1583  223.2117 H   0  0  0  0  0  0  0  0  0  0  0  0
  137.4290   78.6170  222.9389 H   0  0  0  0  0  0  0  0  0  0  0  0
  137.8618   76.2046  222.5201 H   0  0  0  0  0  0  0  0  0  0  0  0
  137.3838   69.5409  222.2420 H   0  0  0  0  0  0  0  0  0  0  0  0
  138.0054   68.1530  224.2382 H   0  0  0  0  0  0  0  0  0  0  0  0
  139.2740   67.9117  226.3464 H   0  0  0  0  0  0  0  0  0  0  0  0
  141.7746   71.1837  227.6492 H   0  0  0  0  0  0  0  0  0  0  0  0
  141.1034   72.4906  225.6379 H   0  0  0  0  0  0  0  0  0  0  0  0
  1  2  2  0
  2  3  1  0
  3  4  1  0
  4  5  1  0
  5  6  2  0
  5  7  1  0
  7  8  1  0
  8  9  1  0
  9 10  1  0
 10 11  1  0
 11 12  1  0
 12 13  1  0
 13 14  1  0
 14 15  1  0
 15 16  2  0
 16 17  1  0
 17 18  2  0
 18 19  1  0
 19 20  2  0
  2 21  1  0
 21 22  2  0
 22 23  1  0
 23 24  2  0
 24 25  1  0
 25 26  2  0
 26 27  1  0
 26 28  1  0
 28 29  2  0
 29 30  1  0
 30 31  2  0
 12  7  1  0
 20 15  1  0
 31 21  1  0
 30 24  1  0
  3 32  1  0
  4 33  1  0
  4 34  1  0
  8 35  1  0
  8 36  1  0
  9 37  1  0
  9 38  1  0
 10 39  1  0
 10 40  1  0
 11 41  1  0
 11 42  1  0
 12 43  1  1
 13 44  1  0
 13 45  1  0
 16 46  1  0
 17 47  1  0
 18 48  1  0
 19 49  1  0
 20 50  1  0
 22 51  1  0
 23 52  1  0
 25 53  1  0
 28 54  1  0
 29 55  1  0
M  END
>  <smiles>  (34) 
O=C(NCC(=O)N1CCCC[C@H]1COc1ccccc1)c1ccc2cc(Cl)ccc2n1

>  <score_type>  (34) 
oracle

>  <origin>  (34) 
autodockgpu

>  <m_score__min__energy>  (34) 
-8.5800000000000001

>  <m_primary>  (34) 
energy

>  <rmsd>  (34) 
2.1469056249743015

>  <m_score__min__rmsd>  (34) 
2.1469056249743015

>  <meeko>  (34) 
{"free_energy": -6.95, "intermolecular_energy": -9.04, "internal_energy": -2.89, "cluster_size": 17, "cluster_id": 1, "rank_in_cluster": 17}

>  <energy>  (34) 
-7.81

>  <cluster_rmsd>  (34) 
1.48

>  <cluster>  (34) 
4

$$$$

     RDKit          3D

 55 58  0  0  0  0  0  0  0  0999 V2000
  140.4950   72.2990  220.8820 O   0  0  0  0  0  0  0  0  0  0  0  0
  139.9980   72.4970  222.0130 C   0  0  0  0  0  0  0  0  0  0  0  0
  139.3750   73.8060  222.1790 N   0  0  0  0  0  0  0  0  0  0  0  0
  139.4400   74.6530  221.0280 C   0  0  0  0  0  0  0  0  0  0  0  0
  140.6710   75.4230  220.9130 C   0  0  0  0  0  0  0  0  0  0  0  0
  141.0720   75.9130  222.0520 O   0  0  0  0  0  0  0  0  0  0  0  0
  141.4880   75.7230  219.8230 N   0  0  0  0  0  0  0  0  0  0  0  0
  141.7580   74.9250  218.6540 C   0  0  0  0  0  0  0  0  0  0  0  0
  141.4380   75.7290  217.4220 C   0  0  0  0  0  0  0  0  0  0  0  0
  142.4240   76.8830  217.3180 C   0  0  0  0  0  0  0  0  0  0  0  0
  143.0960   77.1320  218.6540 C   0  0  0  0  0  0  0  0  0  0  0  0
  142.1660   77.0430  219.8240 C   0  0  1  0  0  0  0  0  0  0  0  0
  141.1240   78.1450  219.7780 C   0  0  0  0  0  0  0  0  0  0  0  0
  141.7990   79.3730  220.0570 O   0  0  0  0  0  0  0  0  0  0  0  0
  141.8470   79.7890  221.3730 C   0  0  0  0  0  0  0  0  0  0  0  0
  141.8150   81.1450  221.6180 C   0  0  0  0  0  0  0  0  0  0  0  0
  141.8590   81.6500  222.9100 C   0  0  0  0  0  0  0  0  0  0  0  0
  141.9360   80.7680  223.9670 C   0  0  0  0  0  0  0  0  0  0  0  0
  141.9680   79.4050  223.7570 C   0  0  0  0  0  0  0  0  0  0  0  0
  141.9230   78.9390  222.4480 C   0  0  0  0  0  0  0  0  0  0  0  0
  140.0150   71.5330  223.1020 C   0  0  0  0  0  0  0  0  0  0  0  0
  139.5060   70.2860  222.8550 C   0  0  0  0  0  0  0  0  0  0  0  0
  139.5320   69.3730  223.9120 C   0  0  0  0  0  0  0  0  0  0  0  0
  140.0450   69.7110  225.1510 C   0  0  0  0  0  0  0  0  0  0  0  0
  140.0890   68.8440  226.2160 C   0  0  0  0  0  0  0  0  0  0  0  0
  140.6220   69.2460  227.4440 C   0  0  0  0  0  0  0  0  0  0  0  0
  140.6880   68.1630  228.8140 Cl  0  0  0  0  0  0  0  0  0  0  0  0
  141.1140   70.5470  227.5820 C   0  0  0  0  0  0  0  0  0  0  0  0
  141.0740   71.4280  226.5100 C   0  0  0  0  0  0  0  0  0  0  0  0
  140.5430   71.0070  225.3090 C   0  0  0  0  0  0  0  0  0  0  0  0
  140.5150   71.8750  224.2890 N   0  0  0  0  0  0  0  0  0  0  0  0
  138.9310   74.0500  223.0900 H   0  0  0  0  0  0  0  0  0  0  0  0
  139.3442   74.0225  220.1317 H   0  0  0  0  0  0  0  0  0  0  0  0
  138.6232   75.3826  221.1302 H   0  0  0  0  0  0  0  0  0  0  0  0
  142.8200   74.6387  218.6411 H   0  0  0  0  0  0  0  0  0  0  0  0
  141.1375   74.0170  218.6746 H   0  0  0  0  0  0  0  0  0  0  0  0
  141.5227   75.0893  216.5311 H   0  0  0  0  0  0  0  0  0  0  0  0
  140.4118   76.1198  217.4876 H   0  0  0  0  0  0  0  0  0  0  0  0
  143.1903   76.6374  216.5680 H   0  0  0  0  0  0  0  0  0  0  0  0
  141.8781   77.7905  217.0208 H   0  0  0  0  0  0  0  0  0  0  0  0
  143.8923   76.3848  218.7863 H   0  0  0  0  0  0  0  0  0  0  0  0
  143.4840   78.1610  218.6307 H   0  0  0  0  0  0  0  0  0  0  0  0
  142.7576   77.1605  220.7439 H   0  0  0  0  0  0  0  0  0  0  0  0
  140.6623   78.1864  218.7805 H   0  0  0  0  0  0  0  0  0  0  0  0
  140.3264   77.9608  220.5128 H   0  0  0  0  0  0  0  0  0  0  0  0
  141.7532   81.8430  220.7700 H   0  0  0  0  0  0  0  0  0  0  0  0
  141.8329   82.7352  223.0877 H   0  0  0  0  0  0  0  0  0  0  0  0
  141.9725   81.1578  224.9950 H   0  0  0  0  0  0  0  0  0  0  0  0
  142.0276   78.7050  224.6034 H   0  0  0  0  0  0  0  0  0  0  0  0
  141.9492   77.8541  222.2680 H   0  0  0  0  0  0  0  0  0  0  0  0
  139.0960   70.0159  221.8707 H   0  0  0  0  0  0  0  0  0  0  0  0
  139.1343   68.3595  223.7548 H   0  0  0  0  0  0  0  0  0  0  0  0
  139.7002   67.8215  226.1009 H   0  0  0  0  0  0  0  0  0  0  0  0
  141.5347   70.8742  228.5443 H   0  0  0  0  0  0  0  0  0  0  0  0
  141.4620   72.4517  226.6175 H   0  0  0  0  0  0  0  0  0  0  0  0
  1  2  2  0
  2  3  1  0
  3  4  1  0
  4  5  1  0
  5  6  2  0
  5  7  1  0
  7  8  1  0
  8  9  1  0
  9 10  1  0
 10 11  1  0
 11 12  1  0
 12 13  1  0
 13 14  1  0
 14 15  1  0
 15 16  2  0
 16 17  1  0
 17 18  2  0
 18 19  1  0
 19 20  2  0
  2 21  1  0
 21 22  2  0
 22 23  1  0
 23 24  2  0
 24 25  1  0
 25 26  2  0
 26 27  1  0
 26 28  1  0
 28 29  2  0
 29 30  1  0
 30 31  2  0
 12  7  1  0
 20 15  1  0
 31 21  1  0
 30 24  1  0
  3 32  1  0
  4 33  1  0
  4 34  1  0
  8 35  1  0
  8 36  1  0
  9 37  1  0
  9 38  1  0
 10 39  1  0
 10 40  1  0
 11 41  1  0
 11 42  1  0
 12 43  1  1
 13 44  1  0
 13 45  1  0
 16 46  1  0
 17 47  1  0
 18 48  1  0
 19 49  1  0
 20 50  1  0
 22 51  1  0
 23 52  1  0
 25 53  1  0
 28 54  1  0
 29 55  1  0
M  END
>  <smiles>  (35) 
O=C(NCC(=O)N1CCCC[C@H]1COc1ccccc1)c1ccc2cc(Cl)ccc2n1

>  <score_type>  (35) 
oracle

>  <origin>  (35) 
autodockgpu

>  <m_score__min__energy>  (35) 
-8.5800000000000001

>  <m_primary>  (35) 
energy

>  <rmsd>  (35) 
1.6230782441050722

>  <m_score__min__rmsd>  (35) 
1.6230782441050722

>  <meeko>  (35) 
{"free_energy": -8.58, "intermolecular_energy": -10.66, "internal_energy": -1.65, "cluster_size": 17, "cluster_id": 1, "rank_in_cluster": 1}

>  <energy>  (35) 
-7.64

>  <cluster_rmsd>  (35) 
1.14

>  <cluster>  (35) 
4

$$$$

     RDKit          3D

 55 58  0  0  0  0  0  0  0  0999 V2000
  140.2570   72.5360  220.8230 O   0  0  0  0  0  0  0  0  0  0  0  0
  140.0330   72.7750  222.0310 C   0  0  0  0  0  0  0  0  0  0  0  0
  139.7460   74.1750  222.3270 N   0  0  0  0  0  0  0  0  0  0  0  0
  139.7760   75.0470  221.1930 C   0  0  0  0  0  0  0  0  0  0  0  0
  140.4930   76.2960  221.4100 C   0  0  0  0  0  0  0  0  0  0  0  0
  141.0880   76.3460  222.5690 O   0  0  0  0  0  0  0  0  0  0  0  0
  140.6610   77.4290  220.6140 N   0  0  0  0  0  0  0  0  0  0  0  0
  140.2420   78.7830  220.8760 C   0  0  0  0  0  0  0  0  0  0  0  0
  141.4320   79.6980  220.7690 C   0  0  0  0  0  0  0  0  0  0  0  0
  141.9000   79.7290  219.3210 C   0  0  0  0  0  0  0  0  0  0  0  0
  141.3500   78.5400  218.5580 C   0  0  0  0  0  0  0  0  0  0  0  0
  141.3850   77.2580  219.3300 C   0  0  1  0  0  0  0  0  0  0  0  0
  142.8130   76.8270  219.6110 C   0  0  0  0  0  0  0  0  0  0  0  0
  143.0340   75.6140  218.8890 O   0  0  0  0  0  0  0  0  0  0  0  0
  143.5640   74.5460  219.5870 C   0  0  0  0  0  0  0  0  0  0  0  0
  142.8690   73.3560  219.5630 C   0  0  0  0  0  0  0  0  0  0  0  0
  143.3290   72.2330  220.2350 C   0  0  0  0  0  0  0  0  0  0  0  0
  144.5110   72.3180  220.9410 C   0  0  0  0  0  0  0  0  0  0  0  0
  145.2320   73.4930  220.9850 C   0  0  0  0  0  0  0  0  0  0  0  0
  144.7370   74.5960  220.2990 C   0  0  0  0  0  0  0  0  0  0  0  0
  140.0460   71.7740  223.0860 C   0  0  0  0  0  0  0  0  0  0  0  0
  139.5570   70.5290  222.7870 C   0  0  0  0  0  0  0  0  0  0  0  0
  139.5780   69.5810  223.8130 C   0  0  0  0  0  0  0  0  0  0  0  0
  140.0670   69.8830  225.0710 C   0  0  0  0  0  0  0  0  0  0  0  0
  140.1060   68.9800  226.1060 C   0  0  0  0  0  0  0  0  0  0  0  0
  140.6130   69.3460  227.3560 C   0  0  0  0  0  0  0  0  0  0  0  0
  140.6720   68.2170  228.6880 Cl  0  0  0  0  0  0  0  0  0  0  0  0
  141.0860   70.6480  227.5470 C   0  0  0  0  0  0  0  0  0  0  0  0
  141.0510   71.5660  226.5050 C   0  0  0  0  0  0  0  0  0  0  0  0
  140.5450   71.1790  225.2820 C   0  0  0  0  0  0  0  0  0  0  0  0
  140.5210   72.0820  224.2920 N   0  0  0  0  0  0  0  0  0  0  0  0
  139.5420   74.4590  223.3090 H   0  0  0  0  0  0  0  0  0  0  0  0
  140.2598   74.5131  220.3618 H   0  0  0  0  0  0  0  0  0  0  0  0
  138.7317   75.3189  220.9799 H   0  0  0  0  0  0  0  0  0  0  0  0
  139.4808   79.0816  220.1402 H   0  0  0  0  0  0  0  0  0  0  0  0
  139.8147   78.8487  221.8875 H   0  0  0  0  0  0  0  0  0  0  0  0
  141.1482   80.7120  221.0873 H   0  0  0  0  0  0  0  0  0  0  0  0
  142.2433   79.3323  221.4156 H   0  0  0  0  0  0  0  0  0  0  0  0
  141.5481   80.6571  218.8469 H   0  0  0  0  0  0  0  0  0  0  0  0
  142.9990   79.6856  219.3020 H   0  0  0  0  0  0  0  0  0  0  0  0
  140.3053   78.7541  218.2884 H   0  0  0  0  0  0  0  0  0  0  0  0
  141.9923   78.4004  217.6760 H   0  0  0  0  0  0  0  0  0  0  0  0
  140.8985   76.4791  218.7245 H   0  0  0  0  0  0  0  0  0  0  0  0
  143.5153   77.6022  219.2707 H   0  0  0  0  0  0  0  0  0  0  0  0
  142.9722   76.6763  220.6889 H   0  0  0  0  0  0  0  0  0  0  0  0
  141.9274   73.2954  218.9976 H   0  0  0  0  0  0  0  0  0  0  0  0
  142.7612   71.2913  220.2054 H   0  0  0  0  0  0  0  0  0  0  0  0
  144.8849   71.4338  221.4780 H   0  0  0  0  0  0  0  0  0  0  0  0
  146.1746   73.5556  221.5485 H   0  0  0  0  0  0  0  0  0  0  0  0
  145.3030   75.5388  220.3274 H   0  0  0  0  0  0  0  0  0  0  0  0
  139.1668   70.2878  221.7872 H   0  0  0  0  0  0  0  0  0  0  0  0
  139.1959   68.5686  223.6153 H   0  0  0  0  0  0  0  0  0  0  0  0
  139.7338   67.9569  225.9489 H   0  0  0  0  0  0  0  0  0  0  0  0
  141.4875   70.9466  228.5266 H   0  0  0  0  0  0  0  0  0  0  0  0
  141.4229   72.5905  226.6539 H   0  0  0  0  0  0  0  0  0  0  0  0
  1  2  2  0
  2  3  1  0
  3  4  1  0
  4  5  1  0
  5  6  2  0
  5  7  1  0
  7  8  1  0
  8  9  1  0
  9 10  1  0
 10 11  1  0
 11 12  1  0
 12 13  1  0
 13 14  1  0
 14 15  1  0
 15 16  2  0
 16 17  1  0
 17 18  2  0
 18 19  1  0
 19 20  2  0
  2 21  1  0
 21 22  2  0
 22 23  1  0
 23 24  2  0
 24 25  1  0
 25 26  2  0
 26 27  1  0
 26 28  1  0
 28 29  2  0
 29 30  1  0
 30 31  2  0
 12  7  1  0
 20 15  1  0
 31 21  1  0
 30 24  1  0
  3 32  1  0
  4 33  1  0
  4 34  1  0
  8 35  1  0
  8 36  1  0
  9 37  1  0
  9 38  1  0
 10 39  1  0
 10 40  1  0
 11 41  1  0
 11 42  1  0
 12 43  1  6
 13 44  1  0
 13 45  1  0
 16 46  1  0
 17 47  1  0
 18 48  1  0
 19 49  1  0
 20 50  1  0
 22 51  1  0
 23 52  1  0
 25 53  1  0
 28 54  1  0
 29 55  1  0
M  END
>  <smiles>  (36) 
O=C(NCC(=O)N1CCCC[C@H]1COc1ccccc1)c1ccc2cc(Cl)ccc2n1

>  <score_type>  (36) 
oracle

>  <origin>  (36) 
autodockgpu

>  <m_score__min__energy>  (36) 
-8.5800000000000001

>  <m_primary>  (36) 
energy

>  <rmsd>  (36) 
2.6783806516834123

>  <m_score__min__rmsd>  (36) 
2.6783806516834123

>  <meeko>  (36) 
{"free_energy": -7.95, "intermolecular_energy": -10.04, "internal_energy": -2.32, "cluster_size": 9, "cluster_id": 3, "rank_in_cluster": 6}

>  <energy>  (36) 
-7.18

>  <cluster_rmsd>  (36) 
1.59

>  <cluster>  (36) 
4

$$$$

     RDKit          3D

 55 58  0  0  0  0  0  0  0  0999 V2000
  140.1040   71.9970  220.7870 O   0  0  0  0  0  0  0  0  0  0  0  0
  139.8170   72.3040  221.9650 C   0  0  0  0  0  0  0  0  0  0  0  0
  139.4050   73.6930  222.1440 N   0  0  0  0  0  0  0  0  0  0  0  0
  139.4030   74.4780  220.9480 C   0  0  0  0  0  0  0  0  0  0  0  0
  139.8970   75.8380  221.1170 C   0  0  0  0  0  0  0  0  0  0  0  0
  139.5380   76.3720  222.2510 O   0  0  0  0  0  0  0  0  0  0  0  0
  140.6750   76.6590  220.3010 N   0  0  0  0  0  0  0  0  0  0  0  0
  141.3340   76.3310  219.0620 C   0  0  0  0  0  0  0  0  0  0  0  0
  140.8950   77.2990  217.9970 C   0  0  0  0  0  0  0  0  0  0  0  0
  141.4230   78.6840  218.3430 C   0  0  0  0  0  0  0  0  0  0  0  0
  141.8120   78.7560  219.8060 C   0  0  0  0  0  0  0  0  0  0  0  0
  140.8470   78.0720  220.7230 C   0  0  1  0  0  0  0  0  0  0  0  0
  139.4980   78.7670  220.7150 C   0  0  0  0  0  0  0  0  0  0  0  0
  139.3070   79.3250  222.0160 O   0  0  0  0  0  0  0  0  0  0  0  0
  140.4170   79.8360  222.6590 C   0  0  0  0  0  0  0  0  0  0  0  0
  140.8020   81.1230  222.3480 C   0  0  0  0  0  0  0  0  0  0  0  0
  141.9060   81.7150  222.9460 C   0  0  0  0  0  0  0  0  0  0  0  0
  142.6280   80.9930  223.8730 C   0  0  0  0  0  0  0  0  0  0  0  0
  142.2700   79.7040  224.2080 C   0  0  0  0  0  0  0  0  0  0  0  0
  141.1590   79.1460  223.5860 C   0  0  0  0  0  0  0  0  0  0  0  0
  139.8750   71.3890  223.0930 C   0  0  0  0  0  0  0  0  0  0  0  0
  139.3750   70.1260  222.9140 C   0  0  0  0  0  0  0  0  0  0  0  0
  139.4390   69.2610  224.0090 C   0  0  0  0  0  0  0  0  0  0  0  0
  139.9800   69.6590  225.2180 C   0  0  0  0  0  0  0  0  0  0  0  0
  140.0630   68.8400  226.3180 C   0  0  0  0  0  0  0  0  0  0  0  0
  140.6220   69.3020  227.5140 C   0  0  0  0  0  0  0  0  0  0  0  0
  140.7370   68.2800  228.9270 Cl  0  0  0  0  0  0  0  0  0  0  0  0
  141.1010   70.6130  227.5820 C   0  0  0  0  0  0  0  0  0  0  0  0
  141.0220   71.4460  226.4740 C   0  0  0  0  0  0  0  0  0  0  0  0
  140.4660   70.9660  225.3070 C   0  0  0  0  0  0  0  0  0  0  0  0
  140.4000   71.7890  224.2510 N   0  0  0  0  0  0  0  0  0  0  0  0
  139.1420   74.0300  223.0950 H   0  0  0  0  0  0  0  0  0  0  0  0
  140.0363   73.9724  220.2042 H   0  0  0  0  0  0  0  0  0  0  0  0
  138.3529   74.5637  220.6319 H   0  0  0  0  0  0  0  0  0  0  0  0
  142.4237   76.4000  219.1953 H   0  0  0  0  0  0  0  0  0  0  0  0
  141.0688   75.3064  218.7622 H   0  0  0  0  0  0  0  0  0  0  0  0
  141.2965   76.9834  217.0227 H   0  0  0  0  0  0  0  0  0  0  0  0
  139.7966   77.3213  217.9429 H   0  0  0  0  0  0  0  0  0  0  0  0
  142.3057   78.8997  217.7231 H   0  0  0  0  0  0  0  0  0  0  0  0
  140.6323   79.4237  218.1493 H   0  0  0  0  0  0  0  0  0  0  0  0
  142.7983   78.2839  219.9261 H   0  0  0  0  0  0  0  0  0  0  0  0
  141.8175   79.8204  220.0836 H   0  0  0  0  0  0  0  0  0  0  0  0
  141.2544   78.1136  221.7439 H   0  0  0  0  0  0  0  0  0  0  0  0
  139.4884   79.5642  219.9571 H   0  0  0  0  0  0  0  0  0  0  0  0
  138.6931   78.0583  220.4702 H   0  0  0  0  0  0  0  0  0  0  0  0
  140.2208   81.6938  221.6089 H   0  0  0  0  0  0  0  0  0  0  0  0
  142.1999   82.7424  222.6850 H   0  0  0  0  0  0  0  0  0  0  0  0
  143.5042   81.4530  224.3533 H   0  0  0  0  0  0  0  0  0  0  0  0
  142.8487   79.1321  224.9483 H   0  0  0  0  0  0  0  0  0  0  0  0
  140.8646   78.1182  223.8448 H   0  0  0  0  0  0  0  0  0  0  0  0
  138.9435   69.8081  221.9534 H   0  0  0  0  0  0  0  0  0  0  0  0
  139.0492   68.2374  223.9071 H   0  0  0  0  0  0  0  0  0  0  0  0
  139.6853   67.8086  226.2574 H   0  0  0  0  0  0  0  0  0  0  0  0
  141.5426   70.9867  228.5176 H   0  0  0  0  0  0  0  0  0  0  0  0
  141.3990   72.4780  226.5266 H   0  0  0  0  0  0  0  0  0  0  0  0
  1  2  2  0
  2  3  1  0
  3  4  1  0
  4  5  1  0
  5  6  2  0
  5  7  1  0
  7  8  1  0
  8  9  1  0
  9 10  1  0
 10 11  1  0
 11 12  1  0
 12 13  1  0
 13 14  1  0
 14 15  1  0
 15 16  2  0
 16 17  1  0
 17 18  2  0
 18 19  1  0
 19 20  2  0
  2 21  1  0
 21 22  2  0
 22 23  1  0
 23 24  2  0
 24 25  1  0
 25 26  2  0
 26 27  1  0
 26 28  1  0
 28 29  2  0
 29 30  1  0
 30 31  2  0
 12  7  1  0
 20 15  1  0
 31 21  1  0
 30 24  1  0
  3 32  1  0
  4 33  1  0
  4 34  1  0
  8 35  1  0
  8 36  1  0
  9 37  1  0
  9 38  1  0
 10 39  1  0
 10 40  1  0
 11 41  1  0
 11 42  1  0
 12 43  1  1
 13 44  1  0
 13 45  1  0
 16 46  1  0
 17 47  1  0
 18 48  1  0
 19 49  1  0
 20 50  1  0
 22 51  1  0
 23 52  1  0
 25 53  1  0
 28 54  1  0
 29 55  1  0
M  END
>  <smiles>  (37) 
O=C(NCC(=O)N1CCCC[C@H]1COc1ccccc1)c1ccc2cc(Cl)ccc2n1

>  <score_type>  (37) 
oracle

>  <origin>  (37) 
autodockgpu

>  <m_score__min__energy>  (37) 
-8.5800000000000001

>  <m_primary>  (37) 
energy

>  <rmsd>  (37) 
1.8167250369143548

>  <m_score__min__rmsd>  (37) 
1.8167250369143548

>  <meeko>  (37) 
{"free_energy": -8.13, "intermolecular_energy": -10.22, "internal_energy": -1.77, "cluster_size": 17, "cluster_id": 1, "rank_in_cluster": 4}

>  <energy>  (37) 
-7.96

>  <cluster_rmsd>  (37) 
0.0

>  <cluster>  (37) 
5

$$$$

     RDKit          3D

 55 58  0  0  0  0  0  0  0  0999 V2000
  140.9370   76.0460  218.6460 O   0  0  0  0  0  0  0  0  0  0  0  0
  141.4480   76.8940  219.4110 C   0  0  0  0  0  0  0  0  0  0  0  0
  141.8800   76.3620  220.7000 N   0  0  0  0  0  0  0  0  0  0  0  0
  141.6440   74.9630  220.8830 C   0  0  0  0  0  0  0  0  0  0  0  0
  140.3410   74.6390  221.4490 C   0  0  0  0  0  0  0  0  0  0  0  0
  140.3920   73.6670  222.3160 O   0  0  0  0  0  0  0  0  0  0  0  0
  139.0710   75.1750  221.2400 N   0  0  0  0  0  0  0  0  0  0  0  0
  137.8340   74.4820  220.9800 C   0  0  0  0  0  0  0  0  0  0  0  0
  136.8060   74.9070  221.9930 C   0  0  0  0  0  0  0  0  0  0  0  0
  136.4650   76.3720  221.7630 C   0  0  0  0  0  0  0  0  0  0  0  0
  137.5400   77.0460  220.9330 C   0  0  0  0  0  0  0  0  0  0  0  0
  138.9330   76.6500  221.3130 C   0  0  1  0  0  0  0  0  0  0  0  0
  139.2710   77.1190  222.7160 C   0  0  0  0  0  0  0  0  0  0  0  0
  140.6840   77.3270  222.7600 O   0  0  0  0  0  0  0  0  0  0  0  0
  141.1320   78.6200  222.9410 C   0  0  0  0  0  0  0  0  0  0  0  0
  140.2210   79.5590  223.3780 C   0  0  0  0  0  0  0  0  0  0  0  0
  140.5850   80.8810  223.5870 C   0  0  0  0  0  0  0  0  0  0  0  0
  141.8900   81.2570  223.3500 C   0  0  0  0  0  0  0  0  0  0  0  0
  142.8270   80.3440  222.9140 C   0  0  0  0  0  0  0  0  0  0  0  0
  142.4230   79.0290  222.7160 C   0  0  0  0  0  0  0  0  0  0  0  0
  141.6180   78.3010  219.0860 C   0  0  0  0  0  0  0  0  0  0  0  0
  142.5630   78.6290  218.1510 C   0  0  0  0  0  0  0  0  0  0  0  0
  142.7110   79.9860  217.8520 C   0  0  0  0  0  0  0  0  0  0  0  0
  141.9420   80.9530  218.4720 C   0  0  0  0  0  0  0  0  0  0  0  0
  142.0560   82.2970  218.2070 C   0  0  0  0  0  0  0  0  0  0  0  0
  141.2470   83.2270  218.8670 C   0  0  0  0  0  0  0  0  0  0  0  0
  141.3740   84.9410  218.5480 Cl  0  0  0  0  0  0  0  0  0  0  0  0
  140.3140   82.7770  219.8050 C   0  0  0  0  0  0  0  0  0  0  0  0
  140.1920   81.4210  220.0770 C   0  0  0  0  0  0  0  0  0  0  0  0
  141.0020   80.5240  219.4130 C   0  0  0  0  0  0  0  0  0  0  0  0
  140.8670   79.2200  219.6920 N   0  0  0  0  0  0  0  0  0  0  0  0
  142.3220   77.0010  221.3940 H   0  0  0  0  0  0  0  0  0  0  0  0
  141.7252   74.4698  219.9031 H   0  0  0  0  0  0  0  0  0  0  0  0
  142.3952   74.6109  221.6053 H   0  0  0  0  0  0  0  0  0  0  0  0
  137.4787   74.7303  219.9690 H   0  0  0  0  0  0  0  0  0  0  0  0
  137.9966   73.3965  221.0518 H   0  0  0  0  0  0  0  0  0  0  0  0
  135.8995   74.2944  221.8788 H   0  0  0  0  0  0  0  0  0  0  0  0
  137.2054   74.7720  223.0090 H   0  0  0  0  0  0  0  0  0  0  0  0
  135.5033   76.4405  221.2335 H   0  0  0  0  0  0  0  0  0  0  0  0
  136.3997   76.8782  222.7374 H   0  0  0  0  0  0  0  0  0  0  0  0
  137.3799   76.7817  219.8773 H   0  0  0  0  0  0  0  0  0  0  0  0
  137.4535   78.1276  221.1136 H   0  0  0  0  0  0  0  0  0  0  0  0
  139.6299   77.1272  220.6083 H   0  0  0  0  0  0  0  0  0  0  0  0
  138.7441   78.0590  222.9369 H   0  0  0  0  0  0  0  0  0  0  0  0
  138.9613   76.3737  223.4634 H   0  0  0  0  0  0  0  0  0  0  0  0
  139.1814   79.2522  223.5652 H   0  0  0  0  0  0  0  0  0  0  0  0
  139.8453   81.6166  223.9358 H   0  0  0  0  0  0  0  0  0  0  0  0
  142.1890   82.3032  223.5115 H   0  0  0  0  0  0  0  0  0  0  0  0
  143.8674   80.6487  222.7277 H   0  0  0  0  0  0  0  0  0  0  0  0
  143.1617   78.2921  222.3677 H   0  0  0  0  0  0  0  0  0  0  0  0
  143.1768   77.8605  217.6584 H   0  0  0  0  0  0  0  0  0  0  0  0
  143.4579   80.2923  217.1048 H   0  0  0  0  0  0  0  0  0  0  0  0
  142.7921   82.6448  217.4673 H   0  0  0  0  0  0  0  0  0  0  0  0
  139.6732   83.5005  220.3303 H   0  0  0  0  0  0  0  0  0  0  0  0
  139.4570   81.0659  220.8144 H   0  0  0  0  0  0  0  0  0  0  0  0
  1  2  2  0
  2  3  1  0
  3  4  1  0
  4  5  1  0
  5  6  2  0
  5  7  1  0
  7  8  1  0
  8  9  1  0
  9 10  1  0
 10 11  1  0
 11 12  1  0
 12 13  1  0
 13 14  1  0
 14 15  1  0
 15 16  2  0
 16 17  1  0
 17 18  2  0
 18 19  1  0
 19 20  2  0
  2 21  1  0
 21 22  2  0
 22 23  1  0
 23 24  2  0
 24 25  1  0
 25 26  2  0
 26 27  1  0
 26 28  1  0
 28 29  2  0
 29 30  1  0
 30 31  2  0
 12  7  1  0
 20 15  1  0
 31 21  1  0
 30 24  1  0
  3 32  1  0
  4 33  1  0
  4 34  1  0
  8 35  1  0
  8 36  1  0
  9 37  1  0
  9 38  1  0
 10 39  1  0
 10 40  1  0
 11 41  1  0
 11 42  1  0
 12 43  1  6
 13 44  1  0
 13 45  1  0
 16 46  1  0
 17 47  1  0
 18 48  1  0
 19 49  1  0
 20 50  1  0
 22 51  1  0
 23 52  1  0
 25 53  1  0
 28 54  1  0
 29 55  1  0
M  END
>  <smiles>  (38) 
O=C(NCC(=O)N1CCCC[C@H]1COc1ccccc1)c1ccc2cc(Cl)ccc2n1

>  <score_type>  (38) 
oracle

>  <origin>  (38) 
autodockgpu

>  <m_score__min__energy>  (38) 
-8.5800000000000001

>  <m_primary>  (38) 
energy

>  <rmsd>  (38) 
9.287484108608087

>  <m_score__min__rmsd>  (38) 
9.287484108608087

>  <meeko>  (38) 
{"free_energy": -6.25, "intermolecular_energy": -8.34, "internal_energy": -3.68, "cluster_size": 3, "cluster_id": 7, "rank_in_cluster": 3}

>  <energy>  (38) 
-7.11

>  <cluster_rmsd>  (38) 
0.0

>  <cluster>  (38) 
6

$$$$

     RDKit          3D

 55 58  0  0  0  0  0  0  0  0999 V2000
  139.9330   72.6440  220.7770 O   0  0  0  0  0  0  0  0  0  0  0  0
  139.8320   72.8920  221.9990 C   0  0  0  0  0  0  0  0  0  0  0  0
  139.6100   74.3000  222.3150 N   0  0  0  0  0  0  0  0  0  0  0  0
  139.5510   75.1680  221.1800 C   0  0  0  0  0  0  0  0  0  0  0  0
  140.3660   76.3700  221.2950 C   0  0  0  0  0  0  0  0  0  0  0  0
  140.9450   76.4820  222.4580 O   0  0  0  0  0  0  0  0  0  0  0  0
  140.6400   77.4040  220.4000 N   0  0  0  0  0  0  0  0  0  0  0  0
  140.5170   78.8260  220.6030 C   0  0  0  0  0  0  0  0  0  0  0  0
  141.8330   79.4860  220.2920 C   0  0  0  0  0  0  0  0  0  0  0  0
  142.1120   79.3470  218.8030 C   0  0  0  0  0  0  0  0  0  0  0  0
  141.2590   78.2480  218.2000 C   0  0  0  0  0  0  0  0  0  0  0  0
  141.1520   77.0270  219.0600 C   0  0  1  0  0  0  0  0  0  0  0  0
  142.4990   76.3440  219.2090 C   0  0  0  0  0  0  0  0  0  0  0  0
  142.2410   74.9790  219.5440 O   0  0  0  0  0  0  0  0  0  0  0  0
  143.2880   74.2410  220.0610 C   0  0  0  0  0  0  0  0  0  0  0  0
  144.4770   74.8960  220.2990 C   0  0  0  0  0  0  0  0  0  0  0  0
  145.5800   74.2330  220.8180 C   0  0  0  0  0  0  0  0  0  0  0  0
  145.4760   72.8870  221.0990 C   0  0  0  0  0  0  0  0  0  0  0  0
  144.3010   72.2010  220.8740 C   0  0  0  0  0  0  0  0  0  0  0  0
  143.2180   72.9020  220.3530 C   0  0  0  0  0  0  0  0  0  0  0  0
  139.9220   71.8930  223.0530 C   0  0  0  0  0  0  0  0  0  0  0  0
  139.4940   70.6250  222.7650 C   0  0  0  0  0  0  0  0  0  0  0  0
  139.5880   69.6790  223.7890 C   0  0  0  0  0  0  0  0  0  0  0  0
  140.0880   70.0070  225.0360 C   0  0  0  0  0  0  0  0  0  0  0  0
  140.1980   69.1080  226.0690 C   0  0  0  0  0  0  0  0  0  0  0  0
  140.7130   69.5020  227.3080 C   0  0  0  0  0  0  0  0  0  0  0  0
  140.8620   68.3780  228.6380 Cl  0  0  0  0  0  0  0  0  0  0  0  0
  141.1200   70.8270  227.4890 C   0  0  0  0  0  0  0  0  0  0  0  0
  141.0130   71.7400  226.4490 C   0  0  0  0  0  0  0  0  0  0  0  0
  140.5010   71.3270  225.2370 C   0  0  0  0  0  0  0  0  0  0  0  0
  140.4070   72.2270  224.2480 N   0  0  0  0  0  0  0  0  0  0  0  0
  139.5080   74.5910  223.3100 H   0  0  0  0  0  0  0  0  0  0  0  0
  139.8920   74.6048  220.2988 H   0  0  0  0  0  0  0  0  0  0  0  0
  138.5070   75.5048  221.0980 H   0  0  0  0  0  0  0  0  0  0  0  0
  139.7382   79.2266  219.9375 H   0  0  0  0  0  0  0  0  0  0  0  0
  140.2405   79.0274  221.6485 H   0  0  0  0  0  0  0  0  0  0  0  0
  141.7848   80.5515  220.5611 H   0  0  0  0  0  0  0  0  0  0  0  0
  142.6371   79.0061  220.8691 H   0  0  0  0  0  0  0  0  0  0  0  0
  141.8823   80.2989  218.3018 H   0  0  0  0  0  0  0  0  0  0  0  0
  143.1723   79.0895  218.6636 H   0  0  0  0  0  0  0  0  0  0  0  0
  140.2468   78.6457  218.0344 H   0  0  0  0  0  0  0  0  0  0  0  0
  141.7478   77.9395  217.2641 H   0  0  0  0  0  0  0  0  0  0  0  0
  140.4567   76.3253  218.5761 H   0  0  0  0  0  0  0  0  0  0  0  0
  143.0583   76.4016  218.2636 H   0  0  0  0  0  0  0  0  0  0  0  0
  143.1023   76.8321  219.9886 H   0  0  0  0  0  0  0  0  0  0  0  0
  144.5534   75.9696  220.0722 H   0  0  0  0  0  0  0  0  0  0  0  0
  146.5211   74.7719  221.0021 H   0  0  0  0  0  0  0  0  0  0  0  0
  146.3448   72.3515  221.5095 H   0  0  0  0  0  0  0  0  0  0  0  0
  144.2221   71.1275  221.1005 H   0  0  0  0  0  0  0  0  0  0  0  0
  142.2754   72.3657  220.1692 H   0  0  0  0  0  0  0  0  0  0  0  0
  139.0948   70.3631  221.7740 H   0  0  0  0  0  0  0  0  0  0  0  0
  139.2560   68.6477  223.5986 H   0  0  0  0  0  0  0  0  0  0  0  0
  139.8773   68.0664  225.9198 H   0  0  0  0  0  0  0  0  0  0  0  0
  141.5267   71.1474  228.4595 H   0  0  0  0  0  0  0  0  0  0  0  0
  141.3335   72.7828  226.5902 H   0  0  0  0  0  0  0  0  0  0  0  0
  1  2  2  0
  2  3  1  0
  3  4  1  0
  4  5  1  0
  5  6  2  0
  5  7  1  0
  7  8  1  0
  8  9  1  0
  9 10  1  0
 10 11  1  0
 11 12  1  0
 12 13  1  0
 13 14  1  0
 14 15  1  0
 15 16  2  0
 16 17  1  0
 17 18  2  0
 18 19  1  0
 19 20  2  0
  2 21  1  0
 21 22  2  0
 22 23  1  0
 23 24  2  0
 24 25  1  0
 25 26  2  0
 26 27  1  0
 26 28  1  0
 28 29  2  0
 29 30  1  0
 30 31  2  0
 12  7  1  0
 20 15  1  0
 31 21  1  0
 30 24  1  0
  3 32  1  0
  4 33  1  0
  4 34  1  0
  8 35  1  0
  8 36  1  0
  9 37  1  0
  9 38  1  0
 10 39  1  0
 10 40  1  0
 11 41  1  0
 11 42  1  0
 12 43  1  6
 13 44  1  0
 13 45  1  0
 16 46  1  0
 17 47  1  0
 18 48  1  0
 19 49  1  0
 20 50  1  0
 22 51  1  0
 23 52  1  0
 25 53  1  0
 28 54  1  0
 29 55  1  0
M  END
>  <smiles>  (39) 
O=C(NCC(=O)N1CCCC[C@H]1COc1ccccc1)c1ccc2cc(Cl)ccc2n1

>  <score_type>  (39) 
oracle

>  <origin>  (39) 
autodockgpu

>  <m_score__min__energy>  (39) 
-8.5800000000000001

>  <m_primary>  (39) 
energy

>  <rmsd>  (39) 
2.608922184058001

>  <m_score__min__rmsd>  (39) 
2.608922184058001

>  <meeko>  (39) 
{"free_energy": -8.12, "intermolecular_energy": -10.21, "internal_energy": -2.38, "cluster_size": 9, "cluster_id": 3, "rank_in_cluster": 4}

>  <energy>  (39) 
-7.05

>  <cluster_rmsd>  (39) 
0.51

>  <cluster>  (39) 
6

$$$$

     RDKit          3D

 55 58  0  0  0  0  0  0  0  0999 V2000
  139.8370   72.3320  220.7770 O   0  0  0  0  0  0  0  0  0  0  0  0
  139.7710   72.6130  221.9940 C   0  0  0  0  0  0  0  0  0  0  0  0
  139.5810   74.0320  222.2780 N   0  0  0  0  0  0  0  0  0  0  0  0
  139.5080   74.8720  221.1220 C   0  0  0  0  0  0  0  0  0  0  0  0
  138.2630   75.6160  220.9930 C   0  0  0  0  0  0  0  0  0  0  0  0
  137.2470   74.8570  220.6910 O   0  0  0  0  0  0  0  0  0  0  0  0
  137.9630   76.9710  221.1340 N   0  0  0  0  0  0  0  0  0  0  0  0
  137.2090   77.6210  222.1750 C   0  0  0  0  0  0  0  0  0  0  0  0
  138.0430   78.7180  222.7790 C   0  0  0  0  0  0  0  0  0  0  0  0
  138.2520   79.8070  221.7370 C   0  0  0  0  0  0  0  0  0  0  0  0
  137.9680   79.2760  220.3460 C   0  0  0  0  0  0  0  0  0  0  0  0
  138.4990   77.8980  220.1060 C   0  0  1  0  0  0  0  0  0  0  0  0
  140.0160   77.8790  220.1530 C   0  0  0  0  0  0  0  0  0  0  0  0
  140.3900   77.6520  221.5140 O   0  0  0  0  0  0  0  0  0  0  0  0
  141.1890   78.6000  222.1210 C   0  0  0  0  0  0  0  0  0  0  0  0
  141.3700   78.5090  223.4840 C   0  0  0  0  0  0  0  0  0  0  0  0
  142.1580   79.4200  224.1750 C   0  0  0  0  0  0  0  0  0  0  0  0
  142.7710   80.4360  223.4730 C   0  0  0  0  0  0  0  0  0  0  0  0
  142.6120   80.5560  222.1080 C   0  0  0  0  0  0  0  0  0  0  0  0
  141.8150   79.6240  221.4530 C   0  0  0  0  0  0  0  0  0  0  0  0
  139.8710   71.6410  223.0720 C   0  0  0  0  0  0  0  0  0  0  0  0
  139.4360   70.3660  222.8200 C   0  0  0  0  0  0  0  0  0  0  0  0
  139.5400   69.4460  223.8660 C   0  0  0  0  0  0  0  0  0  0  0  0
  140.0550   69.8040  225.0990 C   0  0  0  0  0  0  0  0  0  0  0  0
  140.1750   68.9310  226.1530 C   0  0  0  0  0  0  0  0  0  0  0  0
  140.7050   69.3530  227.3750 C   0  0  0  0  0  0  0  0  0  0  0  0
  140.8660   68.2620  228.7310 Cl  0  0  0  0  0  0  0  0  0  0  0  0
  141.1170   70.6810  227.5180 C   0  0  0  0  0  0  0  0  0  0  0  0
  141.0000   71.5690  226.4580 C   0  0  0  0  0  0  0  0  0  0  0  0
  140.4740   71.1270  225.2620 C   0  0  0  0  0  0  0  0  0  0  0  0
  140.3710   72.0020  224.2530 N   0  0  0  0  0  0  0  0  0  0  0  0
  139.5090   74.3510  223.2680 H   0  0  0  0  0  0  0  0  0  0  0  0
  140.3363   75.5942  221.1694 H   0  0  0  0  0  0  0  0  0  0  0  0
  139.5664   74.2066  220.2480 H   0  0  0  0  0  0  0  0  0  0  0  0
  136.2893   78.0496  221.7502 H   0  0  0  0  0  0  0  0  0  0  0  0
  136.9438   76.8884  222.9515 H   0  0  0  0  0  0  0  0  0  0  0  0
  137.5241   79.1379  223.6533 H   0  0  0  0  0  0  0  0  0  0  0  0
  139.0156   78.3150  223.0979 H   0  0  0  0  0  0  0  0  0  0  0  0
  137.5727   80.6457  221.9494 H   0  0  0  0  0  0  0  0  0  0  0  0
  139.2982   80.1440  221.7812 H   0  0  0  0  0  0  0  0  0  0  0  0
  136.8783   79.2586  220.1971 H   0  0  0  0  0  0  0  0  0  0  0  0
  138.4789   79.9443  219.6373 H   0  0  0  0  0  0  0  0  0  0  0  0
  138.1778   77.5762  219.1044 H   0  0  0  0  0  0  0  0  0  0  0  0
  140.4035   77.0709  219.5151 H   0  0  0  0  0  0  0  0  0  0  0  0
  140.4317   78.8287  219.7852 H   0  0  0  0  0  0  0  0  0  0  0  0
  140.8786   77.6955  224.0378 H   0  0  0  0  0  0  0  0  0  0  0  0
  142.2908   79.3325  225.2634 H   0  0  0  0  0  0  0  0  0  0  0  0
  143.3974   81.1632  224.0104 H   0  0  0  0  0  0  0  0  0  0  0  0
  143.1032   81.3682  221.5521 H   0  0  0  0  0  0  0  0  0  0  0  0
  141.6814   79.7094  220.3645 H   0  0  0  0  0  0  0  0  0  0  0  0
  139.0245   70.0807  221.8406 H   0  0  0  0  0  0  0  0  0  0  0  0
  139.2040   68.4110  223.7052 H   0  0  0  0  0  0  0  0  0  0  0  0
  139.8499   67.8870  226.0334 H   0  0  0  0  0  0  0  0  0  0  0  0
  141.5361   71.0239  228.4755 H   0  0  0  0  0  0  0  0  0  0  0  0
  141.3233   72.6144  226.5704 H   0  0  0  0  0  0  0  0  0  0  0  0
  1  2  2  0
  2  3  1  0
  3  4  1  0
  4  5  1  0
  5  6  2  0
  5  7  1  0
  7  8  1  0
  8  9  1  0
  9 10  1  0
 10 11  1  0
 11 12  1  0
 12 13  1  0
 13 14  1  0
 14 15  1  0
 15 16  2  0
 16 17  1  0
 17 18  2  0
 18 19  1  0
 19 20  2  0
  2 21  1  0
 21 22  2  0
 22 23  1  0
 23 24  2  0
 24 25  1  0
 25 26  2  0
 26 27  1  0
 26 28  1  0
 28 29  2  0
 29 30  1  0
 30 31  2  0
 12  7  1  0
 20 15  1  0
 31 21  1  0
 30 24  1  0
  3 32  1  0
  4 33  1  0
  4 34  1  0
  8 35  1  0
  8 36  1  0
  9 37  1  0
  9 38  1  0
 10 39  1  0
 10 40  1  0
 11 41  1  0
 11 42  1  0
 12 43  1  6
 13 44  1  0
 13 45  1  0
 16 46  1  0
 17 47  1  0
 18 48  1  0
 19 49  1  0
 20 50  1  0
 22 51  1  0
 23 52  1  0
 25 53  1  0
 28 54  1  0
 29 55  1  0
M  END
>  <smiles>  (40) 
O=C(NCC(=O)N1CCCC[C@H]1COc1ccccc1)c1ccc2cc(Cl)ccc2n1

>  <score_type>  (40) 
oracle

>  <origin>  (40) 
autodockgpu

>  <m_score__min__energy>  (40) 
-8.5800000000000001

>  <m_primary>  (40) 
energy

>  <rmsd>  (40) 
3.0963679125871106

>  <m_score__min__rmsd>  (40) 
3.0963679125871106

>  <meeko>  (40) 
{"free_energy": -7.74, "intermolecular_energy": -9.83, "internal_energy": -1.79, "cluster_size": 17, "cluster_id": 1, "rank_in_cluster": 10}

>  <energy>  (40) 
-6.75

>  <cluster_rmsd>  (40) 
0.0

>  <cluster>  (40) 
7

$$$$

     RDKit          3D

 55 58  0  0  0  0  0  0  0  0999 V2000
  140.8430   73.9640  221.9590 O   0  0  0  0  0  0  0  0  0  0  0  0
  140.0490   72.9970  221.9670 C   0  0  0  0  0  0  0  0  0  0  0  0
  139.2130   72.8910  220.7750 N   0  0  0  0  0  0  0  0  0  0  0  0
  139.4300   73.9110  219.7960 C   0  0  0  0  0  0  0  0  0  0  0  0
  138.6770   75.1370  220.0220 C   0  0  0  0  0  0  0  0  0  0  0  0
  138.9680   76.0770  219.1690 O   0  0  0  0  0  0  0  0  0  0  0  0
  137.7120   75.4800  220.9690 N   0  0  0  0  0  0  0  0  0  0  0  0
  136.4480   74.8420  221.2390 C   0  0  0  0  0  0  0  0  0  0  0  0
  136.3800   74.4770  222.6980 C   0  0  0  0  0  0  0  0  0  0  0  0
  136.3320   75.7560  223.5220 C   0  0  0  0  0  0  0  0  0  0  0  0
  136.8100   76.9380  222.7010 C   0  0  0  0  0  0  0  0  0  0  0  0
  138.0040   76.6380  221.8500 C   0  0  1  0  0  0  0  0  0  0  0  0
  139.2200   76.3280  222.7030 C   0  0  0  0  0  0  0  0  0  0  0  0
  140.3720   76.6800  221.9340 O   0  0  0  0  0  0  0  0  0  0  0  0
  140.9850   77.8840  222.2220 C   0  0  0  0  0  0  0  0  0  0  0  0
  141.1930   78.7630  221.1810 C   0  0  0  0  0  0  0  0  0  0  0  0
  141.8010   79.9940  221.3810 C   0  0  0  0  0  0  0  0  0  0  0  0
  142.2040   80.3380  222.6540 C   0  0  0  0  0  0  0  0  0  0  0  0
  142.0100   79.4830  223.7180 C   0  0  0  0  0  0  0  0  0  0  0  0
  141.3970   78.2590  223.4770 C   0  0  0  0  0  0  0  0  0  0  0  0
  139.9340   72.0350  223.0510 C   0  0  0  0  0  0  0  0  0  0  0  0
  139.1650   70.9220  222.8340 C   0  0  0  0  0  0  0  0  0  0  0  0
  139.0660   70.0090  223.8870 C   0  0  0  0  0  0  0  0  0  0  0  0
  139.7120   70.2180  225.0920 C   0  0  0  0  0  0  0  0  0  0  0  0
  139.6410   69.3450  226.1510 C   0  0  0  0  0  0  0  0  0  0  0  0
  140.3180   69.6120  227.3450 C   0  0  0  0  0  0  0  0  0  0  0  0
  140.2430   68.5190  228.7060 Cl  0  0  0  0  0  0  0  0  0  0  0  0
  141.0750   70.7830  227.4530 C   0  0  0  0  0  0  0  0  0  0  0  0
  141.1520   71.6680  226.3870 C   0  0  0  0  0  0  0  0  0  0  0  0
  140.4740   71.3810  225.2210 C   0  0  0  0  0  0  0  0  0  0  0  0
  140.5640   72.2510  224.2050 N   0  0  0  0  0  0  0  0  0  0  0  0
  138.5280   72.1090  220.6990 H   0  0  0  0  0  0  0  0  0  0  0  0
  140.5011   74.1616  219.7929 H   0  0  0  0  0  0  0  0  0  0  0  0
  139.0803   73.5023  218.8365 H   0  0  0  0  0  0  0  0  0  0  0  0
  135.6275   75.5324  220.9937 H   0  0  0  0  0  0  0  0  0  0  0  0
  136.3538   73.9337  220.6258 H   0  0  0  0  0  0  0  0  0  0  0  0
  135.4755   73.8806  222.8881 H   0  0  0  0  0  0  0  0  0  0  0  0
  137.2647   73.8857  222.9769 H   0  0  0  0  0  0  0  0  0  0  0  0
  135.2973   75.9372  223.8483 H   0  0  0  0  0  0  0  0  0  0  0  0
  136.9914   75.6405  224.3948 H   0  0  0  0  0  0  0  0  0  0  0  0
  135.9880   77.2596  222.0445 H   0  0  0  0  0  0  0  0  0  0  0  0
  137.1115   77.7214  223.4119 H   0  0  0  0  0  0  0  0  0  0  0  0
  138.2231   77.5273  221.2408 H   0  0  0  0  0  0  0  0  0  0  0  0
  139.1907   76.9181  223.6308 H   0  0  0  0  0  0  0  0  0  0  0  0
  139.2437   75.2637  222.9799 H   0  0  0  0  0  0  0  0  0  0  0  0
  140.8694   78.4820  220.1679 H   0  0  0  0  0  0  0  0  0  0  0  0
  141.9588   80.6836  220.5386 H   0  0  0  0  0  0  0  0  0  0  0  0
  142.6884   81.3109  222.8235 H   0  0  0  0  0  0  0  0  0  0  0  0
  142.3322   79.7624  224.7320 H   0  0  0  0  0  0  0  0  0  0  0  0
  141.2369   77.5688  224.3184 H   0  0  0  0  0  0  0  0  0  0  0  0
  138.6501   70.7552  221.8764 H   0  0  0  0  0  0  0  0  0  0  0  0
  138.4591   69.1012  223.7543 H   0  0  0  0  0  0  0  0  0  0  0  0
  139.0446   68.4254  226.0583 H   0  0  0  0  0  0  0  0  0  0  0  0
  141.6119   71.0035  228.3874 H   0  0  0  0  0  0  0  0  0  0  0  0
  141.7477   72.5889  226.4712 H   0  0  0  0  0  0  0  0  0  0  0  0
  1  2  2  0
  2  3  1  0
  3  4  1  0
  4  5  1  0
  5  6  2  0
  5  7  1  0
  7  8  1  0
  8  9  1  0
  9 10  1  0
 10 11  1  0
 11 12  1  0
 12 13  1  0
 13 14  1  0
 14 15  1  0
 15 16  2  0
 16 17  1  0
 17 18  2  0
 18 19  1  0
 19 20  2  0
  2 21  1  0
 21 22  2  0
 22 23  1  0
 23 24  2  0
 24 25  1  0
 25 26  2  0
 26 27  1  0
 26 28  1  0
 28 29  2  0
 29 30  1  0
 30 31  2  0
 12  7  1  0
 20 15  1  0
 31 21  1  0
 30 24  1  0
  3 32  1  0
  4 33  1  0
  4 34  1  0
  8 35  1  0
  8 36  1  0
  9 37  1  0
  9 38  1  0
 10 39  1  0
 10 40  1  0
 11 41  1  0
 11 42  1  0
 12 43  1  6
 13 44  1  0
 13 45  1  0
 16 46  1  0
 17 47  1  0
 18 48  1  0
 19 49  1  0
 20 50  1  0
 22 51  1  0
 23 52  1  0
 25 53  1  0
 28 54  1  0
 29 55  1  0
M  END
>  <smiles>  (41) 
O=C(NCC(=O)N1CCCC[C@H]1COc1ccccc1)c1ccc2cc(Cl)ccc2n1

>  <score_type>  (41) 
oracle

>  <origin>  (41) 
autodockgpu

>  <m_score__min__energy>  (41) 
-8.5800000000000001

>  <m_primary>  (41) 
energy

>  <rmsd>  (41) 
3.457536748649316

>  <m_score__min__rmsd>  (41) 
3.457536748649316

>  <meeko>  (41) 
{"free_energy": -7.69, "intermolecular_energy": -9.78, "internal_energy": -2.06, "cluster_size": 17, "cluster_id": 1, "rank_in_cluster": 11}

>  <energy>  (41) 
-6.74

>  <cluster_rmsd>  (41) 
0.14

>  <cluster>  (41) 
7

$$$$

     RDKit          3D

 55 58  0  0  0  0  0  0  0  0999 V2000
  140.8450   75.1890  218.7520 O   0  0  0  0  0  0  0  0  0  0  0  0
  141.4060   76.1170  219.3760 C   0  0  0  0  0  0  0  0  0  0  0  0
  141.7370   75.8010  220.7620 N   0  0  0  0  0  0  0  0  0  0  0  0
  141.3610   74.4870  221.1850 C   0  0  0  0  0  0  0  0  0  0  0  0
  140.0550   74.4100  221.8260 C   0  0  0  0  0  0  0  0  0  0  0  0
  139.9320   73.3710  222.6040 O   0  0  0  0  0  0  0  0  0  0  0  0
  138.9310   75.2330  221.7620 N   0  0  0  0  0  0  0  0  0  0  0  0
  137.5420   74.8740  221.9060 C   0  0  0  0  0  0  0  0  0  0  0  0
  136.9230   75.7170  222.9880 C   0  0  0  0  0  0  0  0  0  0  0  0
  136.8850   77.1650  222.5200 C   0  0  0  0  0  0  0  0  0  0  0  0
  137.8470   77.3800  221.3690 C   0  0  0  0  0  0  0  0  0  0  0  0
  139.1600   76.6830  221.5420 C   0  0  1  0  0  0  0  0  0  0  0  0
  139.9330   77.2540  222.7170 C   0  0  0  0  0  0  0  0  0  0  0  0
  141.1100   77.8660  222.1860 O   0  0  0  0  0  0  0  0  0  0  0  0
  141.5270   79.0500  222.7630 C   0  0  0  0  0  0  0  0  0  0  0  0
  140.5570   79.9180  223.2170 C   0  0  0  0  0  0  0  0  0  0  0  0
  140.8870   81.1280  223.8100 C   0  0  0  0  0  0  0  0  0  0  0  0
  142.2180   81.4630  223.9440 C   0  0  0  0  0  0  0  0  0  0  0  0
  143.2130   80.6180  223.5010 C   0  0  0  0  0  0  0  0  0  0  0  0
  142.8420   79.4140  222.9120 C   0  0  0  0  0  0  0  0  0  0  0  0
  141.7220   77.4180  218.8080 C   0  0  0  0  0  0  0  0  0  0  0  0
  142.2840   77.4480  217.5600 C   0  0  0  0  0  0  0  0  0  0  0  0
  142.5800   78.7070  217.0310 C   0  0  0  0  0  0  0  0  0  0  0  0
  142.3190   79.8690  217.7350 C   0  0  0  0  0  0  0  0  0  0  0  0
  142.5940   81.1260  217.2510 C   0  0  0  0  0  0  0  0  0  0  0  0
  142.3060   82.2630  218.0110 C   0  0  0  0  0  0  0  0  0  0  0  0
  142.6480   83.8720  217.4190 Cl  0  0  0  0  0  0  0  0  0  0  0  0
  141.7310   82.1120  219.2760 C   0  0  0  0  0  0  0  0  0  0  0  0
  141.4490   80.8460  219.7700 C   0  0  0  0  0  0  0  0  0  0  0  0
  141.7430   79.7400  219.0010 C   0  0  0  0  0  0  0  0  0  0  0  0
  141.4630   78.5280  219.4990 N   0  0  0  0  0  0  0  0  0  0  0  0
  142.2120   76.5180  221.3500 H   0  0  0  0  0  0  0  0  0  0  0  0
  141.3494   73.8317  220.3016 H   0  0  0  0  0  0  0  0  0  0  0  0
  142.0990   74.1778  221.9398 H   0  0  0  0  0  0  0  0  0  0  0  0
  137.0160   75.0501  220.9561 H   0  0  0  0  0  0  0  0  0  0  0  0
  137.4610   73.8103  222.1742 H   0  0  0  0  0  0  0  0  0  0  0  0
  135.9000   75.3667  223.1899 H   0  0  0  0  0  0  0  0  0  0  0  0
  137.5176   75.6376  223.9100 H   0  0  0  0  0  0  0  0  0  0  0  0
  135.8652   77.4112  222.1893 H   0  0  0  0  0  0  0  0  0  0  0  0
  137.1819   77.8154  223.3560 H   0  0  0  0  0  0  0  0  0  0  0  0
  137.3750   77.0072  220.4480 H   0  0  0  0  0  0  0  0  0  0  0  0
  138.0596   78.4584  221.3258 H   0  0  0  0  0  0  0  0  0  0  0  0
  139.7521   76.8360  220.6277 H   0  0  0  0  0  0  0  0  0  0  0  0
  139.3223   78.0028  223.2427 H   0  0  0  0  0  0  0  0  0  0  0  0
  140.1925   76.4639  223.4369 H   0  0  0  0  0  0  0  0  0  0  0  0
  139.4972   79.6450  223.1065 H   0  0  0  0  0  0  0  0  0  0  0  0
  140.1002   81.8087  224.1673 H   0  0  0  0  0  0  0  0  0  0  0  0
  142.4902   82.4204  224.4122 H   0  0  0  0  0  0  0  0  0  0  0  0
  144.2734   80.8891  223.6106 H   0  0  0  0  0  0  0  0  0  0  0  0
  143.6273   78.7318  222.5542 H   0  0  0  0  0  0  0  0  0  0  0  0
  142.4927   76.5245  217.0000 H   0  0  0  0  0  0  0  0  0  0  0  0
  143.0316   78.7759  216.0303 H   0  0  0  0  0  0  0  0  0  0  0  0
  143.0458   81.2382  216.2544 H   0  0  0  0  0  0  0  0  0  0  0  0
  141.5010   83.0003  219.8826 H   0  0  0  0  0  0  0  0  0  0  0  0
  140.9955   80.7262  220.7650 H   0  0  0  0  0  0  0  0  0  0  0  0
  1  2  2  0
  2  3  1  0
  3  4  1  0
  4  5  1  0
  5  6  2  0
  5  7  1  0
  7  8  1  0
  8  9  1  0
  9 10  1  0
 10 11  1  0
 11 12  1  0
 12 13  1  0
 13 14  1  0
 14 15  1  0
 15 16  2  0
 16 17  1  0
 17 18  2  0
 18 19  1  0
 19 20  2  0
  2 21  1  0
 21 22  2  0
 22 23  1  0
 23 24  2  0
 24 25  1  0
 25 26  2  0
 26 27  1  0
 26 28  1  0
 28 29  2  0
 29 30  1  0
 30 31  2  0
 12  7  1  0
 20 15  1  0
 31 21  1  0
 30 24  1  0
  3 32  1  0
  4 33  1  0
  4 34  1  0
  8 35  1  0
  8 36  1  0
  9 37  1  0
  9 38  1  0
 10 39  1  0
 10 40  1  0
 11 41  1  0
 11 42  1  0
 12 43  1  6
 13 44  1  0
 13 45  1  0
 16 46  1  0
 17 47  1  0
 18 48  1  0
 19 49  1  0
 20 50  1  0
 22 51  1  0
 23 52  1  0
 25 53  1  0
 28 54  1  0
 29 55  1  0
M  END
>  <smiles>  (42) 
O=C(NCC(=O)N1CCCC[C@H]1COc1ccccc1)c1ccc2cc(Cl)ccc2n1

>  <score_type>  (42) 
oracle

>  <origin>  (42) 
autodockgpu

>  <m_score__min__energy>  (42) 
-8.5800000000000001

>  <m_primary>  (42) 
energy

>  <rmsd>  (42) 
9.034355790017926

>  <m_score__min__rmsd>  (42) 
9.034355790017926

>  <meeko>  (42) 
{"free_energy": -6.74, "intermolecular_energy": -8.83, "internal_energy": -3.24, "cluster_size": 3, "cluster_id": 7, "rank_in_cluster": 2}

>  <energy>  (42) 
-6.25

>  <cluster_rmsd>  (42) 
0.89

>  <cluster>  (42) 
7

$$$$

     RDKit          3D

 55 58  0  0  0  0  0  0  0  0999 V2000
  140.8210   73.7880  220.7170 O   0  0  0  0  0  0  0  0  0  0  0  0
  140.1200   73.6900  221.7490 C   0  0  0  0  0  0  0  0  0  0  0  0
  139.4870   74.9350  222.1710 N   0  0  0  0  0  0  0  0  0  0  0  0
  139.7750   76.0660  221.3430 C   0  0  0  0  0  0  0  0  0  0  0  0
  140.4940   77.1400  222.0150 C   0  0  0  0  0  0  0  0  0  0  0  0
  141.1170   76.7400  223.0880 O   0  0  0  0  0  0  0  0  0  0  0  0
  140.6380   78.4960  221.7210 N   0  0  0  0  0  0  0  0  0  0  0  0
  140.6590   79.6160  222.6280 C   0  0  0  0  0  0  0  0  0  0  0  0
  141.9200   80.4080  222.4070 C   0  0  0  0  0  0  0  0  0  0  0  0
  141.8610   81.0490  221.0280 C   0  0  0  0  0  0  0  0  0  0  0  0
  140.8250   80.3590  220.1620 C   0  0  0  0  0  0  0  0  0  0  0  0
  140.8220   78.8680  220.2970 C   0  0  1  0  0  0  0  0  0  0  0  0
  142.1200   78.2700  219.7840 C   0  0  0  0  0  0  0  0  0  0  0  0
  141.7710   77.1400  218.9810 O   0  0  0  0  0  0  0  0  0  0  0  0
  142.5190   75.9910  219.1410 C   0  0  0  0  0  0  0  0  0  0  0  0
  142.2530   74.9300  218.3020 C   0  0  0  0  0  0  0  0  0  0  0  0
  142.9570   73.7380  218.3930 C   0  0  0  0  0  0  0  0  0  0  0  0
  143.9450   73.6200  219.3480 C   0  0  0  0  0  0  0  0  0  0  0  0
  144.2380   74.6610  220.2030 C   0  0  0  0  0  0  0  0  0  0  0  0
  143.5100   75.8390  220.0800 C   0  0  0  0  0  0  0  0  0  0  0  0
  139.9250   72.4590  222.4990 C   0  0  0  0  0  0  0  0  0  0  0  0
  139.0610   71.5300  221.9830 C   0  0  0  0  0  0  0  0  0  0  0  0
  138.8860   70.3540  222.7170 C   0  0  0  0  0  0  0  0  0  0  0  0
  139.5520   70.1370  223.9090 C   0  0  0  0  0  0  0  0  0  0  0  0
  139.4090   68.9960  224.6610 C   0  0  0  0  0  0  0  0  0  0  0  0
  140.1110   68.8360  225.8590 C   0  0  0  0  0  0  0  0  0  0  0  0
  139.9450   67.3940  226.8330 Cl  0  0  0  0  0  0  0  0  0  0  0  0
  140.9680   69.8530  226.2900 C   0  0  0  0  0  0  0  0  0  0  0  0
  141.1190   71.0080  225.5360 C   0  0  0  0  0  0  0  0  0  0  0  0
  140.4140   71.1420  224.3580 C   0  0  0  0  0  0  0  0  0  0  0  0
  140.5760   72.2660  223.6460 N   0  0  0  0  0  0  0  0  0  0  0  0
  138.8810   74.9390  223.0190 H   0  0  0  0  0  0  0  0  0  0  0  0
  140.3844   75.7236  220.4937 H   0  0  0  0  0  0  0  0  0  0  0  0
  138.8048   76.4837  221.0360 H   0  0  0  0  0  0  0  0  0  0  0  0
  139.7846   80.2568  222.4417 H   0  0  0  0  0  0  0  0  0  0  0  0
  140.6281   79.2521  223.6656 H   0  0  0  0  0  0  0  0  0  0  0  0
  142.0044   81.1907  223.1753 H   0  0  0  0  0  0  0  0  0  0  0  0
  142.7947   79.7444  222.4736 H   0  0  0  0  0  0  0  0  0  0  0  0
  141.5940   82.1108  221.1342 H   0  0  0  0  0  0  0  0  0  0  0  0
  142.8462   80.9501  220.5488 H   0  0  0  0  0  0  0  0  0  0  0  0
  139.8306   80.7350  220.4445 H   0  0  0  0  0  0  0  0  0  0  0  0
  141.0788   80.5858  219.1160 H   0  0  0  0  0  0  0  0  0  0  0  0
  139.9921   78.4702  219.6945 H   0  0  0  0  0  0  0  0  0  0  0  0
  142.6636   79.0102  219.1786 H   0  0  0  0  0  0  0  0  0  0  0  0
  142.7718   77.9722  220.6185 H   0  0  0  0  0  0  0  0  0  0  0  0
  141.4639   75.0309  217.5424 H   0  0  0  0  0  0  0  0  0  0  0  0
  142.7311   72.9016  217.7153 H   0  0  0  0  0  0  0  0  0  0  0  0
  144.5090   72.6790  219.4289 H   0  0  0  0  0  0  0  0  0  0  0  0
  145.0273   74.5621  220.9628 H   0  0  0  0  0  0  0  0  0  0  0  0
  143.7349   76.6766  220.7566 H   0  0  0  0  0  0  0  0  0  0  0  0
  138.5298   71.7016  221.0352 H   0  0  0  0  0  0  0  0  0  0  0  0
  138.2012   69.5815  222.3370 H   0  0  0  0  0  0  0  0  0  0  0  0
  138.7340   68.1989  224.3161 H   0  0  0  0  0  0  0  0  0  0  0  0
  141.5252   69.7370  227.2313 H   0  0  0  0  0  0  0  0  0  0  0  0
  141.7937   71.8083  225.8741 H   0  0  0  0  0  0  0  0  0  0  0  0
  1  2  2  0
  2  3  1  0
  3  4  1  0
  4  5  1  0
  5  6  2  0
  5  7  1  0
  7  8  1  0
  8  9  1  0
  9 10  1  0
 10 11  1  0
 11 12  1  0
 12 13  1  0
 13 14  1  0
 14 15  1  0
 15 16  2  0
 16 17  1  0
 17 18  2  0
 18 19  1  0
 19 20  2  0
  2 21  1  0
 21 22  2  0
 22 23  1  0
 23 24  2  0
 24 25  1  0
 25 26  2  0
 26 27  1  0
 26 28  1  0
 28 29  2  0
 29 30  1  0
 30 31  2  0
 12  7  1  0
 20 15  1  0
 31 21  1  0
 30 24  1  0
  3 32  1  0
  4 33  1  0
  4 34  1  0
  8 35  1  0
  8 36  1  0
  9 37  1  0
  9 38  1  0
 10 39  1  0
 10 40  1  0
 11 41  1  0
 11 42  1  0
 12 43  1  6
 13 44  1  0
 13 45  1  0
 16 46  1  0
 17 47  1  0
 18 48  1  0
 19 49  1  0
 20 50  1  0
 22 51  1  0
 23 52  1  0
 25 53  1  0
 28 54  1  0
 29 55  1  0
M  END
>  <smiles>  (43) 
O=C(NCC(=O)N1CCCC[C@H]1COc1ccccc1)c1ccc2cc(Cl)ccc2n1

>  <score_type>  (43) 
oracle

>  <origin>  (43) 
autodockgpu

>  <m_score__min__energy>  (43) 
-8.5800000000000001

>  <m_primary>  (43) 
energy

>  <rmsd>  (43) 
3.7087912872929194

>  <m_score__min__rmsd>  (43) 
3.7087912872929194

>  <meeko>  (43) 
{"free_energy": -7.19, "intermolecular_energy": -9.28, "internal_energy": -2.17, "cluster_size": 9, "cluster_id": 3, "rank_in_cluster": 8}

>  <energy>  (43) 
-6.67

>  <cluster_rmsd>  (43) 
0.0

>  <cluster>  (43) 
8

$$$$

     RDKit          3D

 55 58  0  0  0  0  0  0  0  0999 V2000
  140.9160   72.6080  221.2650 O   0  0  0  0  0  0  0  0  0  0  0  0
  140.1540   72.6540  222.2560 C   0  0  0  0  0  0  0  0  0  0  0  0
  139.2580   73.8060  222.2770 N   0  0  0  0  0  0  0  0  0  0  0  0
  139.4010   74.6990  221.1690 C   0  0  0  0  0  0  0  0  0  0  0  0
  140.4980   75.6490  221.2960 C   0  0  0  0  0  0  0  0  0  0  0  0
  141.5490   75.1380  221.8720 O   0  0  0  0  0  0  0  0  0  0  0  0
  140.6270   76.9850  220.9150 N   0  0  0  0  0  0  0  0  0  0  0  0
  140.3800   78.1710  221.6950 C   0  0  0  0  0  0  0  0  0  0  0  0
  141.6110   79.0380  221.6810 C   0  0  0  0  0  0  0  0  0  0  0  0
  141.8260   79.5610  220.2690 C   0  0  0  0  0  0  0  0  0  0  0  0
  141.0520   78.7280  219.2660 C   0  0  0  0  0  0  0  0  0  0  0  0
  141.1040   77.2570  219.5360 C   0  0  1  0  0  0  0  0  0  0  0  0
  142.5150   76.7210  219.3780 C   0  0  0  0  0  0  0  0  0  0  0  0
  142.4040   75.3280  219.0800 O   0  0  0  0  0  0  0  0  0  0  0  0
  143.3540   74.4840  219.6190 C   0  0  0  0  0  0  0  0  0  0  0  0
  144.4240   75.0570  220.2730 C   0  0  0  0  0  0  0  0  0  0  0  0
  145.4250   74.2840  220.8450 C   0  0  0  0  0  0  0  0  0  0  0  0
  145.3390   72.9110  220.7520 C   0  0  0  0  0  0  0  0  0  0  0  0
  144.2830   72.3050  220.1060 C   0  0  0  0  0  0  0  0  0  0  0  0
  143.3010   73.1140  219.5460 C   0  0  0  0  0  0  0  0  0  0  0  0
  140.1270   71.6650  223.3220 C   0  0  0  0  0  0  0  0  0  0  0  0
  139.5840   70.4390  223.0390 C   0  0  0  0  0  0  0  0  0  0  0  0
  139.5680   69.5020  224.0750 C   0  0  0  0  0  0  0  0  0  0  0  0
  140.0740   69.7970  225.3280 C   0  0  0  0  0  0  0  0  0  0  0  0
  140.0770   68.9040  226.3730 C   0  0  0  0  0  0  0  0  0  0  0  0
  140.6050   69.2620  227.6180 C   0  0  0  0  0  0  0  0  0  0  0  0
  140.6190   68.1460  228.9620 Cl  0  0  0  0  0  0  0  0  0  0  0  0
  141.1340   70.5440  227.7920 C   0  0  0  0  0  0  0  0  0  0  0  0
  141.1350   71.4500  226.7410 C   0  0  0  0  0  0  0  0  0  0  0  0
  140.6080   71.0730  225.5230 C   0  0  0  0  0  0  0  0  0  0  0  0
  140.6200   71.9650  224.5230 N   0  0  0  0  0  0  0  0  0  0  0  0
  138.5860   73.9170  223.0660 H   0  0  0  0  0  0  0  0  0  0  0  0
  139.5700   74.0982  220.2632 H   0  0  0  0  0  0  0  0  0  0  0  0
  138.4763   75.2932  221.1250 H   0  0  0  0  0  0  0  0  0  0  0  0
  139.5342   78.7260  221.2630 H   0  0  0  0  0  0  0  0  0  0  0  0
  140.1385   77.8887  222.7304 H   0  0  0  0  0  0  0  0  0  0  0  0
  141.4757   79.8833  222.3718 H   0  0  0  0  0  0  0  0  0  0  0  0
  142.4852   78.4511  221.9994 H   0  0  0  0  0  0  0  0  0  0  0  0
  141.4820   80.6044  220.2140 H   0  0  0  0  0  0  0  0  0  0  0  0
  142.8976   79.4996  220.0282 H   0  0  0  0  0  0  0  0  0  0  0  0
  139.9997   79.0478  219.2879 H   0  0  0  0  0  0  0  0  0  0  0  0
  141.5206   78.8907  218.2842 H   0  0  0  0  0  0  0  0  0  0  0  0
  140.4545   76.7514  218.8062 H   0  0  0  0  0  0  0  0  0  0  0  0
  143.0272   77.2431  218.5564 H   0  0  0  0  0  0  0  0  0  0  0  0
  143.0994   76.8797  220.2963 H   0  0  0  0  0  0  0  0  0  0  0  0
  144.4859   76.1530  220.3432 H   0  0  0  0  0  0  0  0  0  0  0  0
  146.2716   74.7582  221.3631 H   0  0  0  0  0  0  0  0  0  0  0  0
  146.1269   72.2885  221.2012 H   0  0  0  0  0  0  0  0  0  0  0  0
  144.2189   71.2091  220.0354 H   0  0  0  0  0  0  0  0  0  0  0  0
  142.4539   72.6411  219.0275 H   0  0  0  0  0  0  0  0  0  0  0  0
  139.1799   70.2039  222.0433 H   0  0  0  0  0  0  0  0  0  0  0  0
  139.1424   68.5048  223.8896 H   0  0  0  0  0  0  0  0  0  0  0  0
  139.6595   67.8966  226.2287 H   0  0  0  0  0  0  0  0  0  0  0  0
  141.5516   70.8361  228.7668 H   0  0  0  0  0  0  0  0  0  0  0  0
  141.5518   72.4588  226.8776 H   0  0  0  0  0  0  0  0  0  0  0  0
  1  2  2  0
  2  3  1  0
  3  4  1  0
  4  5  1  0
  5  6  2  0
  5  7  1  0
  7  8  1  0
  8  9  1  0
  9 10  1  0
 10 11  1  0
 11 12  1  0
 12 13  1  0
 13 14  1  0
 14 15  1  0
 15 16  2  0
 16 17  1  0
 17 18  2  0
 18 19  1  0
 19 20  2  0
  2 21  1  0
 21 22  2  0
 22 23  1  0
 23 24  2  0
 24 25  1  0
 25 26  2  0
 26 27  1  0
 26 28  1  0
 28 29  2  0
 29 30  1  0
 30 31  2  0
 12  7  1  0
 20 15  1  0
 31 21  1  0
 30 24  1  0
  3 32  1  0
  4 33  1  0
  4 34  1  0
  8 35  1  0
  8 36  1  0
  9 37  1  0
  9 38  1  0
 10 39  1  0
 10 40  1  0
 11 41  1  0
 11 42  1  0
 12 43  1  6
 13 44  1  0
 13 45  1  0
 16 46  1  0
 17 47  1  0
 18 48  1  0
 19 49  1  0
 20 50  1  0
 22 51  1  0
 23 52  1  0
 25 53  1  0
 28 54  1  0
 29 55  1  0
M  END
>  <smiles>  (44) 
O=C(NCC(=O)N1CCCC[C@H]1COc1ccccc1)c1ccc2cc(Cl)ccc2n1

>  <score_type>  (44) 
oracle

>  <origin>  (44) 
autodockgpu

>  <m_score__min__energy>  (44) 
-8.5800000000000001

>  <m_primary>  (44) 
energy

>  <rmsd>  (44) 
2.642822627998

>  <m_score__min__rmsd>  (44) 
2.642822627998

>  <meeko>  (44) 
{"free_energy": -8.44, "intermolecular_energy": -10.53, "internal_energy": -1.92, "cluster_size": 9, "cluster_id": 3, "rank_in_cluster": 1}

>  <energy>  (44) 
-6.66

>  <cluster_rmsd>  (44) 
0.42

>  <cluster>  (44) 
8

$$$$

     RDKit          3D

 55 58  0  0  0  0  0  0  0  0999 V2000
  140.2060   74.0280  221.9730 O   0  0  0  0  0  0  0  0  0  0  0  0
  140.3390   72.7910  221.8440 C   0  0  0  0  0  0  0  0  0  0  0  0
  140.5790   72.3490  220.4740 N   0  0  0  0  0  0  0  0  0  0  0  0
  140.6160   73.3970  219.5020 C   0  0  0  0  0  0  0  0  0  0  0  0
  141.8250   73.4260  218.6890 C   0  0  0  0  0  0  0  0  0  0  0  0
  141.5780   73.5660  217.4160 O   0  0  0  0  0  0  0  0  0  0  0  0
  143.1770   73.3360  219.0190 N   0  0  0  0  0  0  0  0  0  0  0  0
  144.0170   74.3230  219.6490 C   0  0  0  0  0  0  0  0  0  0  0  0
  144.6560   73.7210  220.8710 C   0  0  0  0  0  0  0  0  0  0  0  0
  145.6260   72.6340  220.4340 C   0  0  0  0  0  0  0  0  0  0  0  0
  145.3290   72.1930  219.0140 C   0  0  0  0  0  0  0  0  0  0  0  0
  143.8680   72.0580  218.7180 C   0  0  1  0  0  0  0  0  0  0  0  0
  143.2440   70.9430  219.5380 C   0  0  0  0  0  0  0  0  0  0  0  0
  144.3180   70.1960  220.1140 O   0  0  0  0  0  0  0  0  0  0  0  0
  144.5280   68.9160  219.6400 C   0  0  0  0  0  0  0  0  0  0  0  0
  143.4210   68.1380  219.3810 C   0  0  0  0  0  0  0  0  0  0  0  0
  143.5400   66.8410  218.9020 C   0  0  0  0  0  0  0  0  0  0  0  0
  144.8010   66.3260  218.6820 C   0  0  0  0  0  0  0  0  0  0  0  0
  145.9300   67.0780  218.9290 C   0  0  0  0  0  0  0  0  0  0  0  0
  145.7680   68.3730  219.4090 C   0  0  0  0  0  0  0  0  0  0  0  0
  140.2680   71.8350  222.9380 C   0  0  0  0  0  0  0  0  0  0  0  0
  139.7360   70.6020  222.6710 C   0  0  0  0  0  0  0  0  0  0  0  0
  139.6760   69.6970  223.7340 C   0  0  0  0  0  0  0  0  0  0  0  0
  140.1300   70.0300  224.9970 C   0  0  0  0  0  0  0  0  0  0  0  0
  140.0890   69.1700  226.0680 C   0  0  0  0  0  0  0  0  0  0  0  0
  140.5650   69.5670  227.3220 C   0  0  0  0  0  0  0  0  0  0  0  0
  140.5230   68.4920  228.7000 Cl  0  0  0  0  0  0  0  0  0  0  0  0
  141.0880   70.8540  227.4780 C   0  0  0  0  0  0  0  0  0  0  0  0
  141.1330   71.7270  226.4010 C   0  0  0  0  0  0  0  0  0  0  0  0
  140.6570   71.3120  225.1750 C   0  0  0  0  0  0  0  0  0  0  0  0
  140.7110   72.1730  224.1490 N   0  0  0  0  0  0  0  0  0  0  0  0
  140.7070   71.3330  220.2800 H   0  0  0  0  0  0  0  0  0  0  0  0
  139.7536   73.2732  218.8305 H   0  0  0  0  0  0  0  0  0  0  0  0
  140.5934   74.3435  220.0621 H   0  0  0  0  0  0  0  0  0  0  0  0
  144.7990   74.6440  218.9451 H   0  0  0  0  0  0  0  0  0  0  0  0
  143.4105   75.1934  219.9397 H   0  0  0  0  0  0  0  0  0  0  0  0
  145.1997   74.5002  221.4254 H   0  0  0  0  0  0  0  0  0  0  0  0
  143.8818   73.2900  221.5228 H   0  0  0  0  0  0  0  0  0  0  0  0
  146.6531   73.0247  220.4839 H   0  0  0  0  0  0  0  0  0  0  0  0
  145.5149   71.7691  221.1045 H   0  0  0  0  0  0  0  0  0  0  0  0
  145.7559   72.9353  218.3236 H   0  0  0  0  0  0  0  0  0  0  0  0
  145.7757   71.1958  218.8875 H   0  0  0  0  0  0  0  0  0  0  0  0
  143.7554   71.8119  217.6518 H   0  0  0  0  0  0  0  0  0  0  0  0
  142.6105   71.3666  220.3312 H   0  0  0  0  0  0  0  0  0  0  0  0
  142.6118   70.2995  218.9085 H   0  0  0  0  0  0  0  0  0  0  0  0
  142.4186   68.5549  219.5581 H   0  0  0  0  0  0  0  0  0  0  0  0
  142.6447   66.2342  218.7012 H   0  0  0  0  0  0  0  0  0  0  0  0
  144.9074   65.2987  218.3034 H   0  0  0  0  0  0  0  0  0  0  0  0
  146.9334   66.6640  218.7509 H   0  0  0  0  0  0  0  0  0  0  0  0
  146.6617   68.9819  219.6101 H   0  0  0  0  0  0  0  0  0  0  0  0
  139.3730   70.3364  221.6672 H   0  0  0  0  0  0  0  0  0  0  0  0
  139.2571   68.6946  223.5618 H   0  0  0  0  0  0  0  0  0  0  0  0
  139.6774   68.1583  225.9378 H   0  0  0  0  0  0  0  0  0  0  0  0
  141.4657   71.1760  228.4597 H   0  0  0  0  0  0  0  0  0  0  0  0
  141.5441   72.7399  226.5236 H   0  0  0  0  0  0  0  0  0  0  0  0
  1  2  2  0
  2  3  1  0
  3  4  1  0
  4  5  1  0
  5  6  2  0
  5  7  1  0
  7  8  1  0
  8  9  1  0
  9 10  1  0
 10 11  1  0
 11 12  1  0
 12 13  1  0
 13 14  1  0
 14 15  1  0
 15 16  2  0
 16 17  1  0
 17 18  2  0
 18 19  1  0
 19 20  2  0
  2 21  1  0
 21 22  2  0
 22 23  1  0
 23 24  2  0
 24 25  1  0
 25 26  2  0
 26 27  1  0
 26 28  1  0
 28 29  2  0
 29 30  1  0
 30 31  2  0
 12  7  1  0
 20 15  1  0
 31 21  1  0
 30 24  1  0
  3 32  1  0
  4 33  1  0
  4 34  1  0
  8 35  1  0
  8 36  1  0
  9 37  1  0
  9 38  1  0
 10 39  1  0
 10 40  1  0
 11 41  1  0
 11 42  1  0
 12 43  1  6
 13 44  1  0
 13 45  1  0
 16 46  1  0
 17 47  1  0
 18 48  1  0
 19 49  1  0
 20 50  1  0
 22 51  1  0
 23 52  1  0
 25 53  1  0
 28 54  1  0
 29 55  1  0
M  END
>  <smiles>  (45) 
O=C(NCC(=O)N1CCCC[C@H]1COc1ccccc1)c1ccc2cc(Cl)ccc2n1

>  <score_type>  (45) 
oracle

>  <origin>  (45) 
autodockgpu

>  <m_score__min__energy>  (45) 
-8.5800000000000001

>  <m_primary>  (45) 
energy

>  <rmsd>  (45) 
4.030959504639833

>  <m_score__min__rmsd>  (45) 
4.030959504639833

>  <meeko>  (45) 
{"free_energy": -7.96, "intermolecular_energy": -10.05, "internal_energy": -1.64, "cluster_size": 1, "cluster_id": 5, "rank_in_cluster": 1}

>  <energy>  (45) 
-6.63

>  <cluster_rmsd>  (45) 
0.17

>  <cluster>  (45) 
8

$$$$

     RDKit          3D

 55 58  0  0  0  0  0  0  0  0999 V2000
  133.8980   70.1860  226.5030 O   0  0  0  0  0  0  0  0  0  0  0  0
  134.0390   71.3460  226.0560 C   0  0  0  0  0  0  0  0  0  0  0  0
  135.0060   71.4620  224.9690 N   0  0  0  0  0  0  0  0  0  0  0  0
  135.6420   70.2350  224.5970 C   0  0  0  0  0  0  0  0  0  0  0  0
  136.9260   70.3980  223.9300 C   0  0  0  0  0  0  0  0  0  0  0  0
  137.6310   71.3810  224.4160 O   0  0  0  0  0  0  0  0  0  0  0  0
  137.5320   69.7020  222.8840 N   0  0  0  0  0  0  0  0  0  0  0  0
  137.9000   70.1830  221.5760 C   0  0  0  0  0  0  0  0  0  0  0  0
  139.3610   69.9090  221.3410 C   0  0  0  0  0  0  0  0  0  0  0  0
  139.5710   68.4050  221.2540 C   0  0  0  0  0  0  0  0  0  0  0  0
  138.3930   67.6660  221.8590 C   0  0  0  0  0  0  0  0  0  0  0  0
  137.8810   68.2800  223.1250 C   0  0  1  0  0  0  0  0  0  0  0  0
  138.9160   68.1960  224.2320 C   0  0  0  0  0  0  0  0  0  0  0  0
  139.6230   69.4380  224.2390 O   0  0  0  0  0  0  0  0  0  0  0  0
  139.9620   69.9700  225.4670 C   0  0  0  0  0  0  0  0  0  0  0  0
  140.6200   71.1800  225.4820 C   0  0  0  0  0  0  0  0  0  0  0  0
  140.9970   71.7880  226.6720 C   0  0  0  0  0  0  0  0  0  0  0  0
  140.7030   71.1580  227.8620 C   0  0  0  0  0  0  0  0  0  0  0  0
  140.0440   69.9460  227.8840 C   0  0  0  0  0  0  0  0  0  0  0  0
  139.6830   69.3710  226.6710 C   0  0  0  0  0  0  0  0  0  0  0  0
  133.3210   72.5110  226.5470 C   0  0  0  0  0  0  0  0  0  0  0  0
  132.1080   72.3040  227.1490 C   0  0  0  0  0  0  0  0  0  0  0  0
  131.4330   73.4360  227.6150 C   0  0  0  0  0  0  0  0  0  0  0  0
  131.9620   74.7060  227.4720 C   0  0  0  0  0  0  0  0  0  0  0  0
  131.3310   75.8430  227.9160 C   0  0  0  0  0  0  0  0  0  0  0  0
  131.9180   77.1000  227.7430 C   0  0  0  0  0  0  0  0  0  0  0  0
  131.1360   78.5610  228.2960 Cl  0  0  0  0  0  0  0  0  0  0  0  0
  133.1620   77.1920  227.1110 C   0  0  0  0  0  0  0  0  0  0  0  0
  133.8060   76.0470  226.6620 C   0  0  0  0  0  0  0  0  0  0  0  0
  133.2050   74.8190  226.8440 C   0  0  0  0  0  0  0  0  0  0  0  0
  133.8450   73.7280  226.4020 N   0  0  0  0  0  0  0  0  0  0  0  0
  135.1790   72.3930  224.5350 H   0  0  0  0  0  0  0  0  0  0  0  0
  135.8016   69.6406  225.5087 H   0  0  0  0  0  0  0  0  0  0  0  0
  134.9743   69.7434  223.8741 H   0  0  0  0  0  0  0  0  0  0  0  0
  137.3011   69.6658  220.8119 H   0  0  0  0  0  0  0  0  0  0  0  0
  137.7122   71.2651  221.5138 H   0  0  0  0  0  0  0  0  0  0  0  0
  139.6788   70.3815  220.3999 H   0  0  0  0  0  0  0  0  0  0  0  0
  139.9561   70.3217  222.1690 H   0  0  0  0  0  0  0  0  0  0  0  0
  139.6761   68.1151  220.1981 H   0  0  0  0  0  0  0  0  0  0  0  0
  140.4806   68.1409  221.8133 H   0  0  0  0  0  0  0  0  0  0  0  0
  137.5753   67.6551  221.1233 H   0  0  0  0  0  0  0  0  0  0  0  0
  138.7445   66.6549  222.1122 H   0  0  0  0  0  0  0  0  0  0  0  0
  136.9874   67.7216  223.4407 H   0  0  0  0  0  0  0  0  0  0  0  0
  138.4203   68.0381  225.2012 H   0  0  0  0  0  0  0  0  0  0  0  0
  139.6036   67.3542  224.0631 H   0  0  0  0  0  0  0  0  0  0  0  0
  140.8524   71.6765  224.5283 H   0  0  0  0  0  0  0  0  0  0  0  0
  141.5209   72.7552  226.6651 H   0  0  0  0  0  0  0  0  0  0  0  0
  140.9989   71.6296  228.8107 H   0  0  0  0  0  0  0  0  0  0  0  0
  139.8104   69.4478  228.8365 H   0  0  0  0  0  0  0  0  0  0  0  0
  139.1568   68.4050  226.6756 H   0  0  0  0  0  0  0  0  0  0  0  0
  131.6851   71.2947  227.2605 H   0  0  0  0  0  0  0  0  0  0  0  0
  130.4571   73.3137  228.1076 H   0  0  0  0  0  0  0  0  0  0  0  0
  130.3530   75.7633  228.4131 H   0  0  0  0  0  0  0  0  0  0  0  0
  133.6325   78.1761  226.9689 H   0  0  0  0  0  0  0  0  0  0  0  0
  134.7854   76.1184  226.1663 H   0  0  0  0  0  0  0  0  0  0  0  0
  1  2  2  0
  2  3  1  0
  3  4  1  0
  4  5  1  0
  5  6  2  0
  5  7  1  0
  7  8  1  0
  8  9  1  0
  9 10  1  0
 10 11  1  0
 11 12  1  0
 12 13  1  0
 13 14  1  0
 14 15  1  0
 15 16  2  0
 16 17  1  0
 17 18  2  0
 18 19  1  0
 19 20  2  0
  2 21  1  0
 21 22  2  0
 22 23  1  0
 23 24  2  0
 24 25  1  0
 25 26  2  0
 26 27  1  0
 26 28  1  0
 28 29  2  0
 29 30  1  0
 30 31  2  0
 12  7  1  0
 20 15  1  0
 31 21  1  0
 30 24  1  0
  3 32  1  0
  4 33  1  0
  4 34  1  0
  8 35  1  0
  8 36  1  0
  9 37  1  0
  9 38  1  0
 10 39  1  0
 10 40  1  0
 11 41  1  0
 11 42  1  0
 12 43  1  1
 13 44  1  0
 13 45  1  0
 16 46  1  0
 17 47  1  0
 18 48  1  0
 19 49  1  0
 20 50  1  0
 22 51  1  0
 23 52  1  0
 25 53  1  0
 28 54  1  0
 29 55  1  0
M  END
>  <smiles>  (46) 
O=C(NCC(=O)N1CCCC[C@H]1COc1ccccc1)c1ccc2cc(Cl)ccc2n1

>  <score_type>  (46) 
oracle

>  <origin>  (46) 
autodockgpu

>  <m_score__min__energy>  (46) 
-8.5800000000000001

>  <m_primary>  (46) 
energy

>  <rmsd>  (46) 
8.52957001409264

>  <m_score__min__rmsd>  (46) 
8.52957001409264

>  <meeko>  (46) 
{"free_energy": -7.64, "intermolecular_energy": -9.73, "internal_energy": -1.97, "cluster_size": 8, "cluster_id": 4, "rank_in_cluster": 7}

>  <energy>  (46) 
-6.59

>  <cluster_rmsd>  (46) 
0.51

>  <cluster>  (46) 
8

$$$$

     RDKit          3D

 55 58  0  0  0  0  0  0  0  0999 V2000
  134.3910   70.3020  226.8250 O   0  0  0  0  0  0  0  0  0  0  0  0
  133.3230   70.8380  226.4550 C   0  0  0  0  0  0  0  0  0  0  0  0
  132.5110   70.0160  225.5630 N   0  0  0  0  0  0  0  0  0  0  0  0
  133.0690   68.7370  225.2510 C   0  0  0  0  0  0  0  0  0  0  0  0
  134.1490   68.7700  224.2740 C   0  0  0  0  0  0  0  0  0  0  0  0
  134.4870   67.5840  223.8500 O   0  0  0  0  0  0  0  0  0  0  0  0
  134.8720   69.8220  223.7140 N   0  0  0  0  0  0  0  0  0  0  0  0
  134.3850   71.0830  223.2120 C   0  0  0  0  0  0  0  0  0  0  0  0
  135.1120   72.2050  223.9020 C   0  0  0  0  0  0  0  0  0  0  0  0
  136.5730   72.1770  223.4770 C   0  0  0  0  0  0  0  0  0  0  0  0
  136.9320   70.8270  222.8880 C   0  0  0  0  0  0  0  0  0  0  0  0
  136.3460   69.6680  223.6310 C   0  0  1  0  0  0  0  0  0  0  0  0
  136.9200   69.5700  225.0330 C   0  0  0  0  0  0  0  0  0  0  0  0
  138.2530   70.0820  224.9760 O   0  0  0  0  0  0  0  0  0  0  0  0
  139.1910   69.5110  225.8130 C   0  0  0  0  0  0  0  0  0  0  0  0
  139.3560   68.1440  225.7530 C   0  0  0  0  0  0  0  0  0  0  0  0
  140.2760   67.4870  226.5580 C   0  0  0  0  0  0  0  0  0  0  0  0
  141.0390   68.2270  227.4360 C   0  0  0  0  0  0  0  0  0  0  0  0
  140.9010   69.5970  227.5210 C   0  0  0  0  0  0  0  0  0  0  0  0
  139.9680   70.2170  226.6980 C   0  0  0  0  0  0  0  0  0  0  0  0
  132.8860   72.1670  226.8530 C   0  0  0  0  0  0  0  0  0  0  0  0
  131.7320   72.2650  227.5840 C   0  0  0  0  0  0  0  0  0  0  0  0
  131.3290   73.5490  227.9580 C   0  0  0  0  0  0  0  0  0  0  0  0
  132.0580   74.6700  227.6050 C   0  0  0  0  0  0  0  0  0  0  0  0
  131.6960   75.9500  227.9520 C   0  0  0  0  0  0  0  0  0  0  0  0
  132.4760   77.0440  227.5650 C   0  0  0  0  0  0  0  0  0  0  0  0
  132.0370   78.6800  227.9930 Cl  0  0  0  0  0  0  0  0  0  0  0  0
  133.6370   76.8240  226.8170 C   0  0  0  0  0  0  0  0  0  0  0  0
  134.0090   75.5340  226.4640 C   0  0  0  0  0  0  0  0  0  0  0  0
  133.2220   74.4730  226.8580 C   0  0  0  0  0  0  0  0  0  0  0  0
  133.6010   73.2370  226.5050 N   0  0  0  0  0  0  0  0  0  0  0  0
  131.6020   70.3860  225.2120 H   0  0  0  0  0  0  0  0  0  0  0  0
  133.4600   68.2970  226.1803 H   0  0  0  0  0  0  0  0  0  0  0  0
  132.2589   68.1441  224.8012 H   0  0  0  0  0  0  0  0  0  0  0  0
  134.5633   71.1409  222.1281 H   0  0  0  0  0  0  0  0  0  0  0  0
  133.3058   71.1665  223.4081 H   0  0  0  0  0  0  0  0  0  0  0  0
  134.6624   73.1675  223.6168 H   0  0  0  0  0  0  0  0  0  0  0  0
  135.0376   72.0837  224.9928 H   0  0  0  0  0  0  0  0  0  0  0  0
  136.7447   72.9581  222.7217 H   0  0  0  0  0  0  0  0  0  0  0  0
  137.2027   72.3569  224.3608 H   0  0  0  0  0  0  0  0  0  0  0  0
  136.5679   70.7935  221.8505 H   0  0  0  0  0  0  0  0  0  0  0  0
  138.0257   70.7296  222.9542 H   0  0  0  0  0  0  0  0  0  0  0  0
  136.5986   68.7473  223.0847 H   0  0  0  0  0  0  0  0  0  0  0  0
  136.3155   70.1675  225.7312 H   0  0  0  0  0  0  0  0  0  0  0  0
  136.9145   68.5286  225.3873 H   0  0  0  0  0  0  0  0  0  0  0  0
  138.7438   67.5597  225.0502 H   0  0  0  0  0  0  0  0  0  0  0  0
  140.3943   66.3951  226.4966 H   0  0  0  0  0  0  0  0  0  0  0  0
  141.7703   67.7163  228.0798 H   0  0  0  0  0  0  0  0  0  0  0  0
  141.5133   70.1835  228.2218 H   0  0  0  0  0  0  0  0  0  0  0  0
  139.8482   71.3088  226.7576 H   0  0  0  0  0  0  0  0  0  0  0  0
  131.1499   71.3744  227.8634 H   0  0  0  0  0  0  0  0  0  0  0  0
  130.4088   73.6717  228.5480 H   0  0  0  0  0  0  0  0  0  0  0  0
  130.7819   76.1155  228.5411 H   0  0  0  0  0  0  0  0  0  0  0  0
  134.2583   77.6771  226.5069 H   0  0  0  0  0  0  0  0  0  0  0  0
  134.9223   75.3602  225.8760 H   0  0  0  0  0  0  0  0  0  0  0  0
  1  2  2  0
  2  3  1  0
  3  4  1  0
  4  5  1  0
  5  6  2  0
  5  7  1  0
  7  8  1  0
  8  9  1  0
  9 10  1  0
 10 11  1  0
 11 12  1  0
 12 13  1  0
 13 14  1  0
 14 15  1  0
 15 16  2  0
 16 17  1  0
 17 18  2  0
 18 19  1  0
 19 20  2  0
  2 21  1  0
 21 22  2  0
 22 23  1  0
 23 24  2  0
 24 25  1  0
 25 26  2  0
 26 27  1  0
 26 28  1  0
 28 29  2  0
 29 30  1  0
 30 31  2  0
 12  7  1  0
 20 15  1  0
 31 21  1  0
 30 24  1  0
  3 32  1  0
  4 33  1  0
  4 34  1  0
  8 35  1  0
  8 36  1  0
  9 37  1  0
  9 38  1  0
 10 39  1  0
 10 40  1  0
 11 41  1  0
 11 42  1  0
 12 43  1  6
 13 44  1  0
 13 45  1  0
 16 46  1  0
 17 47  1  0
 18 48  1  0
 19 49  1  0
 20 50  1  0
 22 51  1  0
 23 52  1  0
 25 53  1  0
 28 54  1  0
 29 55  1  0
M  END
>  <smiles>  (47) 
O=C(NCC(=O)N1CCCC[C@H]1COc1ccccc1)c1ccc2cc(Cl)ccc2n1

>  <score_type>  (47) 
oracle

>  <origin>  (47) 
autodockgpu

>  <m_score__min__energy>  (47) 
-8.5800000000000001

>  <m_primary>  (47) 
energy

>  <rmsd>  (47) 
9.161396761218445

>  <m_score__min__rmsd>  (47) 
9.161396761218445

>  <meeko>  (47) 
{"free_energy": -7.81, "intermolecular_energy": -9.9, "internal_energy": -1.99, "cluster_size": 8, "cluster_id": 4, "rank_in_cluster": 6}

>  <energy>  (47) 
-6.48

>  <cluster_rmsd>  (47) 
0.61

>  <cluster>  (47) 
8

$$$$

     RDKit          3D

 55 58  0  0  0  0  0  0  0  0999 V2000
  133.3390   69.8810  226.5120 O   0  0  0  0  0  0  0  0  0  0  0  0
  133.7330   71.0230  226.1860 C   0  0  0  0  0  0  0  0  0  0  0  0
  134.8810   71.0320  225.2850 N   0  0  0  0  0  0  0  0  0  0  0  0
  135.3760   69.7380  224.9290 C   0  0  0  0  0  0  0  0  0  0  0  0
  136.3090   69.7340  223.8100 C   0  0  0  0  0  0  0  0  0  0  0  0
  136.8400   68.5630  223.5960 O   0  0  0  0  0  0  0  0  0  0  0  0
  136.7280   70.7390  222.9380 N   0  0  0  0  0  0  0  0  0  0  0  0
  135.9360   71.7470  222.2790 C   0  0  0  0  0  0  0  0  0  0  0  0
  136.4990   73.1050  222.5990 C   0  0  0  0  0  0  0  0  0  0  0  0
  137.8710   73.2330  221.9550 C   0  0  0  0  0  0  0  0  0  0  0  0
  138.4230   71.8660  221.5990 C   0  0  0  0  0  0  0  0  0  0  0  0
  138.1810   70.8260  222.6480 C   0  0  1  0  0  0  0  0  0  0  0  0
  138.9310   71.1530  223.9260 C   0  0  0  0  0  0  0  0  0  0  0  0
  139.2150   69.9110  224.5740 O   0  0  0  0  0  0  0  0  0  0  0  0
  139.8280   69.9640  225.8110 C   0  0  0  0  0  0  0  0  0  0  0  0
  139.9290   68.7900  226.5270 C   0  0  0  0  0  0  0  0  0  0  0  0
  140.5290   68.7520  227.7770 C   0  0  0  0  0  0  0  0  0  0  0  0
  141.0340   69.9200  228.3090 C   0  0  0  0  0  0  0  0  0  0  0  0
  140.9510   71.1120  227.6190 C   0  0  0  0  0  0  0  0  0  0  0  0
  140.3420   71.1080  226.3690 C   0  0  0  0  0  0  0  0  0  0  0  0
  133.1280   72.2650  226.6400 C   0  0  0  0  0  0  0  0  0  0  0  0
  131.9180   72.1870  227.2780 C   0  0  0  0  0  0  0  0  0  0  0  0
  131.3530   73.3910  227.7080 C   0  0  0  0  0  0  0  0  0  0  0  0
  131.9830   74.6040  227.4990 C   0  0  0  0  0  0  0  0  0  0  0  0
  131.4610   75.8080  227.9060 C   0  0  0  0  0  0  0  0  0  0  0  0
  132.1480   77.0030  227.6650 C   0  0  0  0  0  0  0  0  0  0  0  0
  131.5060   78.5470  228.1720 Cl  0  0  0  0  0  0  0  0  0  0  0  0
  133.3790   76.9610  227.0030 C   0  0  0  0  0  0  0  0  0  0  0  0
  133.9120   75.7480  226.5910 C   0  0  0  0  0  0  0  0  0  0  0  0
  133.2150   74.5850  226.8400 C   0  0  0  0  0  0  0  0  0  0  0  0
  133.7490   73.4250  226.4320 N   0  0  0  0  0  0  0  0  0  0  0  0
  135.2690   71.9430  224.9600 H   0  0  0  0  0  0  0  0  0  0  0  0
  135.8884   69.3134  225.8049 H   0  0  0  0  0  0  0  0  0  0  0  0
  134.5046   69.1466  224.6114 H   0  0  0  0  0  0  0  0  0  0  0  0
  135.9637   71.5840  221.1915 H   0  0  0  0  0  0  0  0  0  0  0  0
  134.8949   71.6865  222.6288 H   0  0  0  0  0  0  0  0  0  0  0  0
  135.8311   73.8843  222.2034 H   0  0  0  0  0  0  0  0  0  0  0  0
  136.5859   73.2254  223.6889 H   0  0  0  0  0  0  0  0  0  0  0  0
  137.7860   73.8380  221.0403 H   0  0  0  0  0  0  0  0  0  0  0  0
  138.5542   73.7165  222.6688 H   0  0  0  0  0  0  0  0  0  0  0  0
  137.9486   71.5329  220.6641 H   0  0  0  0  0  0  0  0  0  0  0  0
  139.5132   71.9757  221.5014 H   0  0  0  0  0  0  0  0  0  0  0  0
  138.5469   69.8613  222.2665 H   0  0  0  0  0  0  0  0  0  0  0  0
  139.8680   71.6788  223.6900 H   0  0  0  0  0  0  0  0  0  0  0  0
  138.3314   71.8067  224.5764 H   0  0  0  0  0  0  0  0  0  0  0  0
  139.5243   67.8620  226.0969 H   0  0  0  0  0  0  0  0  0  0  0  0
  140.6009   67.8065  228.3345 H   0  0  0  0  0  0  0  0  0  0  0  0
  141.5109   69.9009  229.3001 H   0  0  0  0  0  0  0  0  0  0  0  0
  141.3560   72.0411  228.0466 H   0  0  0  0  0  0  0  0  0  0  0  0
  140.2698   72.0521  225.8092 H   0  0  0  0  0  0  0  0  0  0  0  0
  131.4152   71.2228  227.4439 H   0  0  0  0  0  0  0  0  0  0  0  0
  130.3826   73.3731  228.2257 H   0  0  0  0  0  0  0  0  0  0  0  0
  130.4925   75.8328  228.4270 H   0  0  0  0  0  0  0  0  0  0  0  0
  133.9276   77.8943  226.8079 H   0  0  0  0  0  0  0  0  0  0  0  0
  134.8808   75.7147  226.0710 H   0  0  0  0  0  0  0  0  0  0  0  0
  1  2  2  0
  2  3  1  0
  3  4  1  0
  4  5  1  0
  5  6  2  0
  5  7  1  0
  7  8  1  0
  8  9  1  0
  9 10  1  0
 10 11  1  0
 11 12  1  0
 12 13  1  0
 13 14  1  0
 14 15  1  0
 15 16  2  0
 16 17  1  0
 17 18  2  0
 18 19  1  0
 19 20  2  0
  2 21  1  0
 21 22  2  0
 22 23  1  0
 23 24  2  0
 24 25  1  0
 25 26  2  0
 26 27  1  0
 26 28  1  0
 28 29  2  0
 29 30  1  0
 30 31  2  0
 12  7  1  0
 20 15  1  0
 31 21  1  0
 30 24  1  0
  3 32  1  0
  4 33  1  0
  4 34  1  0
  8 35  1  0
  8 36  1  0
  9 37  1  0
  9 38  1  0
 10 39  1  0
 10 40  1  0
 11 41  1  0
 11 42  1  0
 12 43  1  6
 13 44  1  0
 13 45  1  0
 16 46  1  0
 17 47  1  0
 18 48  1  0
 19 49  1  0
 20 50  1  0
 22 51  1  0
 23 52  1  0
 25 53  1  0
 28 54  1  0
 29 55  1  0
M  END
>  <smiles>  (48) 
O=C(NCC(=O)N1CCCC[C@H]1COc1ccccc1)c1ccc2cc(Cl)ccc2n1

>  <score_type>  (48) 
oracle

>  <origin>  (48) 
autodockgpu

>  <m_score__min__energy>  (48) 
-8.5800000000000001

>  <m_primary>  (48) 
energy

>  <rmsd>  (48) 
8.048611203965883

>  <m_score__min__rmsd>  (48) 
8.048611203965883

>  <meeko>  (48) 
{"free_energy": -7.88, "intermolecular_energy": -9.97, "internal_energy": -1.81, "cluster_size": 8, "cluster_id": 4, "rank_in_cluster": 5}

>  <energy>  (48) 
-6.42

>  <cluster_rmsd>  (48) 
0.0

>  <cluster>  (48) 
9

$$$$

     RDKit          3D

 55 58  0  0  0  0  0  0  0  0999 V2000
  138.1360   75.4290  222.6120 O   0  0  0  0  0  0  0  0  0  0  0  0
  139.2800   75.7290  222.2040 C   0  0  0  0  0  0  0  0  0  0  0  0
  139.5760   77.1580  222.2300 N   0  0  0  0  0  0  0  0  0  0  0  0
  138.5100   77.9840  222.7090 C   0  0  0  0  0  0  0  0  0  0  0  0
  138.9290   79.2960  223.1830 C   0  0  0  0  0  0  0  0  0  0  0  0
  137.9250   80.0790  223.4620 O   0  0  0  0  0  0  0  0  0  0  0  0
  140.1880   79.8570  223.3930 N   0  0  0  0  0  0  0  0  0  0  0  0
  141.2640   79.3700  224.2200 C   0  0  0  0  0  0  0  0  0  0  0  0
  142.5090   79.2410  223.3860 C   0  0  0  0  0  0  0  0  0  0  0  0
  142.9660   80.6310  222.9660 C   0  0  0  0  0  0  0  0  0  0  0  0
  141.8350   81.6310  223.1140 C   0  0  0  0  0  0  0  0  0  0  0  0
  140.5060   81.1100  222.6650 C   0  0  1  0  0  0  0  0  0  0  0  0
  140.5010   80.8380  221.1710 C   0  0  0  0  0  0  0  0  0  0  0  0
  140.7300   79.4380  221.0000 O   0  0  0  0  0  0  0  0  0  0  0  0
  141.4650   79.0430  219.8990 C   0  0  0  0  0  0  0  0  0  0  0  0
  141.8500   80.0170  219.0030 C   0  0  0  0  0  0  0  0  0  0  0  0
  142.5910   79.7100  217.8700 C   0  0  0  0  0  0  0  0  0  0  0  0
  142.9460   78.3970  217.6440 C   0  0  0  0  0  0  0  0  0  0  0  0
  142.5780   77.3980  218.5210 C   0  0  0  0  0  0  0  0  0  0  0  0
  141.8360   77.7470  219.6430 C   0  0  0  0  0  0  0  0  0  0  0  0
  140.2650   74.7690  221.7330 C   0  0  0  0  0  0  0  0  0  0  0  0
  139.9260   73.4420  221.7660 C   0  0  0  0  0  0  0  0  0  0  0  0
  140.8860   72.5340  221.3100 C   0  0  0  0  0  0  0  0  0  0  0  0
  142.1200   72.9540  220.8470 C   0  0  0  0  0  0  0  0  0  0  0  0
  143.0900   72.0950  220.3900 C   0  0  0  0  0  0  0  0  0  0  0  0
  144.3190   72.5810  219.9340 C   0  0  0  0  0  0  0  0  0  0  0  0
  145.5690   71.5090  219.3480 Cl  0  0  0  0  0  0  0  0  0  0  0  0
  144.5550   73.9590  219.9460 C   0  0  0  0  0  0  0  0  0  0  0  0
  143.5790   74.8330  220.4060 C   0  0  0  0  0  0  0  0  0  0  0  0
  142.3760   74.3280  220.8500 C   0  0  0  0  0  0  0  0  0  0  0  0
  141.4490   75.1900  221.2900 N   0  0  0  0  0  0  0  0  0  0  0  0
  140.5100   77.4930  221.9120 H   0  0  0  0  0  0  0  0  0  0  0  0
  137.7918   78.1284  221.8884 H   0  0  0  0  0  0  0  0  0  0  0  0
  138.0749   77.4628  223.5745 H   0  0  0  0  0  0  0  0  0  0  0  0
  141.4442   80.0769  225.0433 H   0  0  0  0  0  0  0  0  0  0  0  0
  140.9948   78.3882  224.6366 H   0  0  0  0  0  0  0  0  0  0  0  0
  143.3000   78.7545  223.9757 H   0  0  0  0  0  0  0  0  0  0  0  0
  142.2994   78.6318  222.4944 H   0  0  0  0  0  0  0  0  0  0  0  0
  143.8090   80.9418  223.6007 H   0  0  0  0  0  0  0  0  0  0  0  0
  143.2762   80.5992  221.9111 H   0  0  0  0  0  0  0  0  0  0  0  0
  141.7571   81.9121  224.1746 H   0  0  0  0  0  0  0  0  0  0  0  0
  142.0782   82.4878  222.4684 H   0  0  0  0  0  0  0  0  0  0  0  0
  139.7466   81.8751  222.8837 H   0  0  0  0  0  0  0  0  0  0  0  0
  139.5284   81.1171  220.7396 H   0  0  0  0  0  0  0  0  0  0  0  0
  141.2779   81.4276  220.6623 H   0  0  0  0  0  0  0  0  0  0  0  0
  141.5633   81.0624  219.1902 H   0  0  0  0  0  0  0  0  0  0  0  0
  142.8896   80.5000  217.1652 H   0  0  0  0  0  0  0  0  0  0  0  0
  143.5326   78.1419  216.7491 H   0  0  0  0  0  0  0  0  0  0  0  0
  142.8645   76.3520  218.3370 H   0  0  0  0  0  0  0  0  0  0  0  0
  141.5363   76.9585  220.3490 H   0  0  0  0  0  0  0  0  0  0  0  0
  138.9450   73.1070  222.1339 H   0  0  0  0  0  0  0  0  0  0  0  0
  140.6544   71.4587  221.3196 H   0  0  0  0  0  0  0  0  0  0  0  0
  142.8973   71.0120  220.3828 H   0  0  0  0  0  0  0  0  0  0  0  0
  145.5183   74.3526  219.5894 H   0  0  0  0  0  0  0  0  0  0  0  0
  143.7641   75.9173  220.4159 H   0  0  0  0  0  0  0  0  0  0  0  0
  1  2  2  0
  2  3  1  0
  3  4  1  0
  4  5  1  0
  5  6  2  0
  5  7  1  0
  7  8  1  0
  8  9  1  0
  9 10  1  0
 10 11  1  0
 11 12  1  0
 12 13  1  0
 13 14  1  0
 14 15  1  0
 15 16  2  0
 16 17  1  0
 17 18  2  0
 18 19  1  0
 19 20  2  0
  2 21  1  0
 21 22  2  0
 22 23  1  0
 23 24  2  0
 24 25  1  0
 25 26  2  0
 26 27  1  0
 26 28  1  0
 28 29  2  0
 29 30  1  0
 30 31  2  0
 12  7  1  0
 20 15  1  0
 31 21  1  0
 30 24  1  0
  3 32  1  0
  4 33  1  0
  4 34  1  0
  8 35  1  0
  8 36  1  0
  9 37  1  0
  9 38  1  0
 10 39  1  0
 10 40  1  0
 11 41  1  0
 11 42  1  0
 12 43  1  6
 13 44  1  0
 13 45  1  0
 16 46  1  0
 17 47  1  0
 18 48  1  0
 19 49  1  0
 20 50  1  0
 22 51  1  0
 23 52  1  0
 25 53  1  0
 28 54  1  0
 29 55  1  0
M  END
>  <smiles>  (49) 
O=C(NCC(=O)N1CCCC[C@H]1COc1ccccc1)c1ccc2cc(Cl)ccc2n1

>  <score_type>  (49) 
oracle

>  <origin>  (49) 
autodockgpu

>  <m_score__min__energy>  (49) 
-8.5800000000000001

>  <m_primary>  (49) 
energy

>  <rmsd>  (49) 
6.466099711076931

>  <m_score__min__rmsd>  (49) 
6.466099711076931

>  <meeko>  (49) 
{"free_energy": -6.59, "intermolecular_energy": -8.68, "internal_energy": -3.44, "cluster_size": 5, "cluster_id": 8, "rank_in_cluster": 4}

>  <energy>  (49) 
-6.17

>  <cluster_rmsd>  (49) 
0.0

>  <cluster>  (49) 
10

$$$$

     RDKit          3D

 55 58  0  0  0  0  0  0  0  0999 V2000
  141.7950   72.9690  221.0770 O   0  0  0  0  0  0  0  0  0  0  0  0
  141.0560   73.8450  221.5780 C   0  0  0  0  0  0  0  0  0  0  0  0
  139.9400   73.3200  222.3590 N   0  0  0  0  0  0  0  0  0  0  0  0
  139.8670   71.8930  222.4190 C   0  0  0  0  0  0  0  0  0  0  0  0
  138.5140   71.3540  222.3880 C   0  0  0  0  0  0  0  0  0  0  0  0
  137.6130   72.2260  222.7450 O   0  0  0  0  0  0  0  0  0  0  0  0
  138.0150   70.0980  222.0470 N   0  0  0  0  0  0  0  0  0  0  0  0
  137.6790   69.5870  220.7410 C   0  0  0  0  0  0  0  0  0  0  0  0
  138.4260   68.3030  220.5050 C   0  0  0  0  0  0  0  0  0  0  0  0
  137.8990   67.2440  221.4640 C   0  0  0  0  0  0  0  0  0  0  0  0
  137.1520   67.8910  222.6140 C   0  0  0  0  0  0  0  0  0  0  0  0
  137.8130   69.1230  223.1470 C   0  0  1  0  0  0  0  0  0  0  0  0
  139.1540   68.7940  223.7790 C   0  0  0  0  0  0  0  0  0  0  0  0
  138.8820   68.1610  225.0320 O   0  0  0  0  0  0  0  0  0  0  0  0
  139.5770   68.6120  226.1360 C   0  0  0  0  0  0  0  0  0  0  0  0
  139.8740   69.9570  226.2020 C   0  0  0  0  0  0  0  0  0  0  0  0
  140.5680   70.4950  227.2770 C   0  0  0  0  0  0  0  0  0  0  0  0
  140.9670   69.6590  228.2980 C   0  0  0  0  0  0  0  0  0  0  0  0
  140.6860   68.3090  228.2640 C   0  0  0  0  0  0  0  0  0  0  0  0
  139.9880   67.8080  227.1700 C   0  0  0  0  0  0  0  0  0  0  0  0
  141.2530   75.2770  221.4220 C   0  0  0  0  0  0  0  0  0  0  0  0
  142.0170   75.7030  220.3690 C   0  0  0  0  0  0  0  0  0  0  0  0
  142.1950   77.0830  220.2350 C   0  0  0  0  0  0  0  0  0  0  0  0
  141.6280   77.9770  221.1250 C   0  0  0  0  0  0  0  0  0  0  0  0
  141.7770   79.3390  221.0280 C   0  0  0  0  0  0  0  0  0  0  0  0
  141.1780   80.1920  221.9600 C   0  0  0  0  0  0  0  0  0  0  0  0
  141.3540   81.9280  221.8600 Cl  0  0  0  0  0  0  0  0  0  0  0  0
  140.4170   79.6440  222.9970 C   0  0  0  0  0  0  0  0  0  0  0  0
  140.2610   78.2690  223.1000 C   0  0  0  0  0  0  0  0  0  0  0  0
  140.8630   77.4500  222.1690 C   0  0  0  0  0  0  0  0  0  0  0  0
  140.6980   76.1250  222.2880 N   0  0  0  0  0  0  0  0  0  0  0  0
  139.2790   73.9830  222.8170 H   0  0  0  0  0  0  0  0  0  0  0  0
  140.4190   71.4846  221.5596 H   0  0  0  0  0  0  0  0  0  0  0  0
  140.2981   71.5988  223.3873 H   0  0  0  0  0  0  0  0  0  0  0  0
  136.5967   69.3982  220.6871 H   0  0  0  0  0  0  0  0  0  0  0  0
  137.9581   70.3234  219.9730 H   0  0  0  0  0  0  0  0  0  0  0  0
  138.2722   67.9714  219.4675 H   0  0  0  0  0  0  0  0  0  0  0  0
  139.5012   68.4598  220.6763 H   0  0  0  0  0  0  0  0  0  0  0  0
  137.2170   66.5725  220.9219 H   0  0  0  0  0  0  0  0  0  0  0  0
  138.7499   66.6761  221.8682 H   0  0  0  0  0  0  0  0  0  0  0  0
  136.1446   68.1615  222.2646 H   0  0  0  0  0  0  0  0  0  0  0  0
  137.1307   67.1586  223.4344 H   0  0  0  0  0  0  0  0  0  0  0  0
  137.1594   69.5564  223.9183 H   0  0  0  0  0  0  0  0  0  0  0  0
  139.7218   68.1135  223.1275 H   0  0  0  0  0  0  0  0  0  0  0  0
  139.7546   69.7045  223.9216 H   0  0  0  0  0  0  0  0  0  0  0  0
  139.5535   70.6188  225.3839 H   0  0  0  0  0  0  0  0  0  0  0  0
  140.7958   71.5705  227.3136 H   0  0  0  0  0  0  0  0  0  0  0  0
  141.5185   70.0754  229.1538 H   0  0  0  0  0  0  0  0  0  0  0  0
  141.0057   67.6455  229.0811 H   0  0  0  0  0  0  0  0  0  0  0  0
  139.7580   66.7330  227.1322 H   0  0  0  0  0  0  0  0  0  0  0  0
  142.4696   74.9927  219.6615 H   0  0  0  0  0  0  0  0  0  0  0  0
  142.8009   77.4673  219.4012 H   0  0  0  0  0  0  0  0  0  0  0  0
  142.3744   79.7635  220.2077 H   0  0  0  0  0  0  0  0  0  0  0  0
  139.9397   80.3059  223.7346 H   0  0  0  0  0  0  0  0  0  0  0  0
  139.6631   77.8371  223.9161 H   0  0  0  0  0  0  0  0  0  0  0  0
  1  2  2  0
  2  3  1  0
  3  4  1  0
  4  5  1  0
  5  6  2  0
  5  7  1  0
  7  8  1  0
  8  9  1  0
  9 10  1  0
 10 11  1  0
 11 12  1  0
 12 13  1  0
 13 14  1  0
 14 15  1  0
 15 16  2  0
 16 17  1  0
 17 18  2  0
 18 19  1  0
 19 20  2  0
  2 21  1  0
 21 22  2  0
 22 23  1  0
 23 24  2  0
 24 25  1  0
 25 26  2  0
 26 27  1  0
 26 28  1  0
 28 29  2  0
 29 30  1  0
 30 31  2  0
 12  7  1  0
 20 15  1  0
 31 21  1  0
 30 24  1  0
  3 32  1  0
  4 33  1  0
  4 34  1  0
  8 35  1  0
  8 36  1  0
  9 37  1  0
  9 38  1  0
 10 39  1  0
 10 40  1  0
 11 41  1  0
 11 42  1  0
 12 43  1  1
 13 44  1  0
 13 45  1  0
 16 46  1  0
 17 47  1  0
 18 48  1  0
 19 49  1  0
 20 50  1  0
 22 51  1  0
 23 52  1  0
 25 53  1  0
 28 54  1  0
 29 55  1  0
M  END
>  <smiles>  (50) 
O=C(NCC(=O)N1CCCC[C@H]1COc1ccccc1)c1ccc2cc(Cl)ccc2n1

>  <score_type>  (50) 
oracle

>  <origin>  (50) 
autodockgpu

>  <m_score__min__energy>  (50) 
-8.5800000000000001

>  <m_primary>  (50) 
energy

>  <rmsd>  (50) 
8.133208246099972

>  <m_score__min__rmsd>  (50) 
8.133208246099972

>  <meeko>  (50) 
{"free_energy": -7.96, "intermolecular_energy": -10.04, "internal_energy": -1.88, "cluster_size": 2, "cluster_id": 2, "rank_in_cluster": 2}

>  <energy>  (50) 
-6.03

>  <cluster_rmsd>  (50) 
0.0

>  <cluster>  (50) 
11

$$$$
