
     RDKit          3D

 45 47  0  0  0  0  0  0  0  0999 V2000
  138.2490   80.5660  223.8190 C   0  0  0  0  0  0  0  0  0  0  0  0
  139.3630   79.7350  223.9220 O   0  0  0  0  0  0  0  0  0  0  0  0
  139.4310   78.8920  222.8040 C   0  0  0  0  0  0  0  0  0  0  0  0
  140.5900   77.9740  223.0270 C   0  0  2  0  0  0  0  0  0  0  0  0
  141.8180   78.6530  223.5870 C   0  0  0  0  0  0  0  0  0  0  0  0
  142.2860   79.4160  222.3670 C   0  0  0  0  0  0  0  0  0  0  0  0
  141.7360   78.6690  221.1600 C   0  0  0  0  0  0  0  0  0  0  0  0
  141.0360   77.5110  221.6940 N   0  0  0  0  0  0  0  0  0  0  0  0
  140.7780   76.2420  221.1820 C   0  0  0  0  0  0  0  0  0  0  0  0
  141.7370   75.7180  220.4700 O   0  0  0  0  0  0  0  0  0  0  0  0
  139.6000   75.4000  221.3110 C   0  0  0  0  0  0  0  0  0  0  0  0
  139.6120   74.3570  222.2910 N   0  0  0  0  0  0  0  0  0  0  0  0
  140.0000   73.0180  221.9640 C   0  0  0  0  0  0  0  0  0  0  0  0
  140.3400   72.6820  220.7890 O   0  0  0  0  0  0  0  0  0  0  0  0
  140.0050   71.9860  223.0230 C   0  0  0  0  0  0  0  0  0  0  0  0
  139.5040   70.7300  222.7580 C   0  0  0  0  0  0  0  0  0  0  0  0
  139.5150   69.7740  223.7600 C   0  0  0  0  0  0  0  0  0  0  0  0
  140.0210   70.0690  225.0160 C   0  0  0  0  0  0  0  0  0  0  0  0
  140.0530   69.1500  226.0430 C   0  0  0  0  0  0  0  0  0  0  0  0
  140.5830   69.5400  227.2740 C   0  0  0  0  0  0  0  0  0  0  0  0
  140.6460   68.4090  228.6140 Cl  0  0  0  0  0  0  0  0  0  0  0  0
  141.0700   70.8080  227.4880 C   0  0  0  0  0  0  0  0  0  0  0  0
  141.0400   71.7360  226.4570 C   0  0  0  0  0  0  0  0  0  0  0  0
  140.5180   71.3530  225.2440 C   0  0  0  0  0  0  0  0  0  0  0  0
  140.4950   72.2610  224.2500 N   0  0  0  0  0  0  0  0  0  0  0  0
  137.8945   80.8305  224.8262 H   0  0  0  0  0  0  0  0  0  0  0  0
  138.5236   81.4816  223.2748 H   0  0  0  0  0  0  0  0  0  0  0  0
  137.4496   80.0418  223.2748 H   0  0  0  0  0  0  0  0  0  0  0  0
  138.5010   78.3122  222.7095 H   0  0  0  0  0  0  0  0  0  0  0  0
  139.5588   79.4724  221.8784 H   0  0  0  0  0  0  0  0  0  0  0  0
  140.2406   77.2006  223.7269 H   0  0  0  0  0  0  0  0  0  0  0  0
  141.5661   79.3287  224.4176 H   0  0  0  0  0  0  0  0  0  0  0  0
  142.5654   77.9702  224.0174 H   0  0  0  0  0  0  0  0  0  0  0  0
  141.8967   80.4446  222.3884 H   0  0  0  0  0  0  0  0  0  0  0  0
  143.3836   79.4802  222.3319 H   0  0  0  0  0  0  0  0  0  0  0  0
  141.0416   79.3100  220.5970 H   0  0  0  0  0  0  0  0  0  0  0  0
  142.5381   78.3728  220.4679 H   0  0  0  0  0  0  0  0  0  0  0  0
  138.7531   76.0602  221.5493 H   0  0  0  0  0  0  0  0  0  0  0  0
  139.5424   74.8673  220.3503 H   0  0  0  0  0  0  0  0  0  0  0  0
  139.3420   74.5070  223.3090 H   0  0  0  0  0  0  0  0  0  0  0  0
  139.1005   70.4897  221.7633 H   0  0  0  0  0  0  0  0  0  0  0  0
  139.1174   68.7687  223.5565 H   0  0  0  0  0  0  0  0  0  0  0  0
  139.6686   68.1300  225.8954 H   0  0  0  0  0  0  0  0  0  0  0  0
  141.4807   71.0848  228.4702 H   0  0  0  0  0  0  0  0  0  0  0  0
  141.4252   72.7554  226.6067 H   0  0  0  0  0  0  0  0  0  0  0  0
  1  2  1  0
  2  3  1  0
  3  4  1  0
  4  5  1  0
  5  6  1  0
  6  7  1  0
  7  8  1  0
  8  9  1  0
  9 10  2  0
  9 11  1  0
 11 12  1  0
 12 13  1  0
 13 14  2  0
 13 15  1  0
 15 16  2  0
 16 17  1  0
 17 18  2  0
 18 19  1  0
 19 20  2  0
 20 21  1  0
 20 22  1  0
 22 23  2  0
 23 24  1  0
 24 25  2  0
  8  4  1  0
 25 15  1  0
 24 18  1  0
  1 26  1  0
  1 27  1  0
  1 28  1  0
  3 29  1  0
  3 30  1  0
  4 31  1  1
  5 32  1  0
  5 33  1  0
  6 34  1  0
  6 35  1  0
  7 36  1  0
  7 37  1  0
 11 38  1  0
 11 39  1  0
 12 40  1  0
 16 41  1  0
 17 42  1  0
 19 43  1  0
 22 44  1  0
 23 45  1  0
M  END
>  <smiles>  (1) 
COC[C@@H]1CCCN1C(=O)CNC(=O)c1ccc2cc(Cl)ccc2n1

>  <score_type>  (1) 
oracle

>  <origin>  (1) 
autodockgpu

>  <m_score__min__energy>  (1) 
-7.2400000000000002

>  <m_primary>  (1) 
energy

>  <rmsd>  (1) 
3.3622783551195967

>  <m_score__min__rmsd>  (1) 
3.3622783551195967

>  <meeko>  (1) 
{"free_energy": -7.16, "intermolecular_energy": -8.95, "internal_energy": -1.12, "cluster_size": 26, "cluster_id": 2, "rank_in_cluster": 1}

>  <energy>  (1) 
-7.24

>  <cluster_rmsd>  (1) 
0.0

>  <cluster>  (1) 
1

$$$$

     RDKit          3D

 45 47  0  0  0  0  0  0  0  0999 V2000
  141.1150   72.8120  221.5890 C   0  0  0  0  0  0  0  0  0  0  0  0
  140.6160   74.0460  222.0020 O   0  0  0  0  0  0  0  0  0  0  0  0
  141.4580   75.0730  221.5530 C   0  0  0  0  0  0  0  0  0  0  0  0
  140.5960   76.0390  220.8060 C   0  0  2  0  0  0  0  0  0  0  0  0
  141.1130   77.4580  220.8070 C   0  0  0  0  0  0  0  0  0  0  0  0
  140.8160   77.8540  222.2370 C   0  0  0  0  0  0  0  0  0  0  0  0
  139.6730   76.9620  222.6970 C   0  0  0  0  0  0  0  0  0  0  0  0
  139.3200   76.1430  221.5480 N   0  0  0  0  0  0  0  0  0  0  0  0
  138.1290   75.5450  221.1410 C   0  0  0  0  0  0  0  0  0  0  0  0
  137.1840   76.3660  220.7780 O   0  0  0  0  0  0  0  0  0  0  0  0
  137.7650   74.1390  221.0590 C   0  0  0  0  0  0  0  0  0  0  0  0
  138.1630   73.2700  222.1250 N   0  0  0  0  0  0  0  0  0  0  0  0
  137.8270   71.8780  222.1290 C   0  0  0  0  0  0  0  0  0  0  0  0
  137.1520   71.3450  221.1980 O   0  0  0  0  0  0  0  0  0  0  0  0
  138.2760   71.0280  223.2530 C   0  0  0  0  0  0  0  0  0  0  0  0
  137.8080   69.7370  223.3650 C   0  0  0  0  0  0  0  0  0  0  0  0
  138.2380   68.9530  224.4220 C   0  0  0  0  0  0  0  0  0  0  0  0
  139.1270   69.4530  225.3600 C   0  0  0  0  0  0  0  0  0  0  0  0
  139.5820   68.7100  226.4280 C   0  0  0  0  0  0  0  0  0  0  0  0
  140.4780   69.3000  227.3210 C   0  0  0  0  0  0  0  0  0  0  0  0
  141.0870   68.3980  228.6970 Cl  0  0  0  0  0  0  0  0  0  0  0  0
  140.9150   70.5940  227.1650 C   0  0  0  0  0  0  0  0  0  0  0  0
  140.4590   71.3460  226.0920 C   0  0  0  0  0  0  0  0  0  0  0  0
  139.5770   70.7650  225.2110 C   0  0  0  0  0  0  0  0  0  0  0  0
  139.1420   71.5040  224.1720 N   0  0  0  0  0  0  0  0  0  0  0  0
  141.3615   72.2024  222.4709 H   0  0  0  0  0  0  0  0  0  0  0  0
  140.3560   72.2931  220.9851 H   0  0  0  0  0  0  0  0  0  0  0  0
  142.0213   72.9665  220.9851 H   0  0  0  0  0  0  0  0  0  0  0  0
  141.9350   75.5735  222.4085 H   0  0  0  0  0  0  0  0  0  0  0  0
  142.2575   74.6766  220.9098 H   0  0  0  0  0  0  0  0  0  0  0  0
  140.5376   75.6643  219.7734 H   0  0  0  0  0  0  0  0  0  0  0  0
  142.1904   77.4986  220.5890 H   0  0  0  0  0  0  0  0  0  0  0  0
  140.6631   78.1121  220.0456 H   0  0  0  0  0  0  0  0  0  0  0  0
  141.7022   77.6940  222.8687 H   0  0  0  0  0  0  0  0  0  0  0  0
  140.5477   78.9183  222.3102 H   0  0  0  0  0  0  0  0  0  0  0  0
  139.9965   76.3269  223.5348 H   0  0  0  0  0  0  0  0  0  0  0  0
  138.8156   77.5537  223.0502 H   0  0  0  0  0  0  0  0  0  0  0  0
  136.6681   74.0903  220.9918 H   0  0  0  0  0  0  0  0  0  0  0  0
  138.3191   73.7665  220.1848 H   0  0  0  0  0  0  0  0  0  0  0  0
  138.7250   73.5960  222.9670 H   0  0  0  0  0  0  0  0  0  0  0  0
  137.1017   69.3343  222.6241 H   0  0  0  0  0  0  0  0  0  0  0  0
  137.8696   67.9210  224.5183 H   0  0  0  0  0  0  0  0  0  0  0  0
  139.2458   67.6728  226.5737 H   0  0  0  0  0  0  0  0  0  0  0  0
  141.6216   71.0304  227.8862 H   0  0  0  0  0  0  0  0  0  0  0  0
  140.7953   72.3835  225.9491 H   0  0  0  0  0  0  0  0  0  0  0  0
  1  2  1  0
  2  3  1  0
  3  4  1  0
  4  5  1  0
  5  6  1  0
  6  7  1  0
  7  8  1  0
  8  9  1  0
  9 10  2  0
  9 11  1  0
 11 12  1  0
 12 13  1  0
 13 14  2  0
 13 15  1  0
 15 16  2  0
 16 17  1  0
 17 18  2  0
 18 19  1  0
 19 20  2  0
 20 21  1  0
 20 22  1  0
 22 23  2  0
 23 24  1  0
 24 25  2  0
  8  4  1  0
 25 15  1  0
 24 18  1  0
  1 26  1  0
  1 27  1  0
  1 28  1  0
  3 29  1  0
  3 30  1  0
  4 31  1  6
  5 32  1  0
  5 33  1  0
  6 34  1  0
  6 35  1  0
  7 36  1  0
  7 37  1  0
 11 38  1  0
 11 39  1  0
 12 40  1  0
 16 41  1  0
 17 42  1  0
 19 43  1  0
 22 44  1  0
 23 45  1  0
M  END
>  <smiles>  (2) 
COC[C@@H]1CCCN1C(=O)CNC(=O)c1ccc2cc(Cl)ccc2n1

>  <score_type>  (2) 
oracle

>  <origin>  (2) 
autodockgpu

>  <m_score__min__energy>  (2) 
-7.2400000000000002

>  <m_primary>  (2) 
energy

>  <rmsd>  (2) 
2.5101988458896747

>  <m_score__min__rmsd>  (2) 
2.5101988458896747

>  <meeko>  (2) 
{"free_energy": -6.23, "intermolecular_energy": -8.02, "internal_energy": -2.26, "cluster_size": 26, "cluster_id": 2, "rank_in_cluster": 12}

>  <energy>  (2) 
-7.23

>  <cluster_rmsd>  (2) 
0.08

>  <cluster>  (2) 
1

$$$$

     RDKit          3D

 45 47  0  0  0  0  0  0  0  0999 V2000
  140.8960   72.4410  221.9110 C   0  0  0  0  0  0  0  0  0  0  0  0
  140.5360   73.7610  222.1740 O   0  0  0  0  0  0  0  0  0  0  0  0
  141.4540   74.6320  221.5710 C   0  0  0  0  0  0  0  0  0  0  0  0
  140.6690   75.5230  220.6630 C   0  0  2  0  0  0  0  0  0  0  0  0
  141.1190   76.9650  220.6700 C   0  0  0  0  0  0  0  0  0  0  0  0
  140.6000   77.4040  222.0230 C   0  0  0  0  0  0  0  0  0  0  0  0
  139.4410   76.4750  222.3560 C   0  0  0  0  0  0  0  0  0  0  0  0
  139.2950   75.5930  221.2090 N   0  0  0  0  0  0  0  0  0  0  0  0
  138.2030   74.9210  220.6650 C   0  0  0  0  0  0  0  0  0  0  0  0
  137.9170   75.2220  219.4300 O   0  0  0  0  0  0  0  0  0  0  0  0
  137.3210   73.9290  221.2590 C   0  0  0  0  0  0  0  0  0  0  0  0
  137.8390   73.0950  222.3000 N   0  0  0  0  0  0  0  0  0  0  0  0
  137.4180   71.7350  222.4580 C   0  0  0  0  0  0  0  0  0  0  0  0
  136.5590   71.2020  221.6930 O   0  0  0  0  0  0  0  0  0  0  0  0
  137.9980   70.9190  223.5460 C   0  0  0  0  0  0  0  0  0  0  0  0
  137.5590   69.6270  223.7420 C   0  0  0  0  0  0  0  0  0  0  0  0
  138.1120   68.8750  224.7650 C   0  0  0  0  0  0  0  0  0  0  0  0
  139.0950   69.4060  225.5850 C   0  0  0  0  0  0  0  0  0  0  0  0
  139.6730   68.6950  226.6140 C   0  0  0  0  0  0  0  0  0  0  0  0
  140.6560   69.3160  227.3870 C   0  0  0  0  0  0  0  0  0  0  0  0
  141.4240   68.4550  228.7090 Cl  0  0  0  0  0  0  0  0  0  0  0  0
  141.0590   70.6090  227.1500 C   0  0  0  0  0  0  0  0  0  0  0  0
  140.4800   71.3290  226.1150 C   0  0  0  0  0  0  0  0  0  0  0  0
  139.5110   70.7180  225.3530 C   0  0  0  0  0  0  0  0  0  0  0  0
  138.9550   71.4250  224.3510 N   0  0  0  0  0  0  0  0  0  0  0  0
  141.0422   71.9047  222.8602 H   0  0  0  0  0  0  0  0  0  0  0  0
  140.0985   71.9517  221.3326 H   0  0  0  0  0  0  0  0  0  0  0  0
  141.8315   72.4244  221.3326 H   0  0  0  0  0  0  0  0  0  0  0  0
  141.9684   75.2304  222.3374 H   0  0  0  0  0  0  0  0  0  0  0  0
  142.2201   74.0743  221.0124 H   0  0  0  0  0  0  0  0  0  0  0  0
  140.7775   75.1045  219.6515 H   0  0  0  0  0  0  0  0  0  0  0  0
  142.2139   77.0499  220.6070 H   0  0  0  0  0  0  0  0  0  0  0  0
  140.7571   77.5643  219.8215 H   0  0  0  0  0  0  0  0  0  0  0  0
  141.3909   77.3140  222.7822 H   0  0  0  0  0  0  0  0  0  0  0  0
  140.2783   78.4558  222.0065 H   0  0  0  0  0  0  0  0  0  0  0  0
  139.6660   75.8917  223.2610 H   0  0  0  0  0  0  0  0  0  0  0  0
  138.5164   77.0374  222.5533 H   0  0  0  0  0  0  0  0  0  0  0  0
  136.4571   74.4688  221.6741 H   0  0  0  0  0  0  0  0  0  0  0  0
  137.1046   73.2319  220.4361 H   0  0  0  0  0  0  0  0  0  0  0  0
  138.5580   73.4240  223.0120 H   0  0  0  0  0  0  0  0  0  0  0  0
  136.7797   69.1990  223.0943 H   0  0  0  0  0  0  0  0  0  0  0  0
  137.7668   67.8435  224.9287 H   0  0  0  0  0  0  0  0  0  0  0  0
  139.3663   67.6594  226.8222 H   0  0  0  0  0  0  0  0  0  0  0  0
  141.8361   71.0700  227.7774 H   0  0  0  0  0  0  0  0  0  0  0  0
  140.7885   72.3644  225.9084 H   0  0  0  0  0  0  0  0  0  0  0  0
  1  2  1  0
  2  3  1  0
  3  4  1  0
  4  5  1  0
  5  6  1  0
  6  7  1  0
  7  8  1  0
  8  9  1  0
  9 10  2  0
  9 11  1  0
 11 12  1  0
 12 13  1  0
 13 14  2  0
 13 15  1  0
 15 16  2  0
 16 17  1  0
 17 18  2  0
 18 19  1  0
 19 20  2  0
 20 21  1  0
 20 22  1  0
 22 23  2  0
 23 24  1  0
 24 25  2  0
  8  4  1  0
 25 15  1  0
 24 18  1  0
  1 26  1  0
  1 27  1  0
  1 28  1  0
  3 29  1  0
  3 30  1  0
  4 31  1  6
  5 32  1  0
  5 33  1  0
  6 34  1  0
  6 35  1  0
  7 36  1  0
  7 37  1  0
 11 38  1  0
 11 39  1  0
 12 40  1  0
 16 41  1  0
 17 42  1  0
 19 43  1  0
 22 44  1  0
 23 45  1  0
M  END
>  <smiles>  (3) 
COC[C@@H]1CCCN1C(=O)CNC(=O)c1ccc2cc(Cl)ccc2n1

>  <score_type>  (3) 
oracle

>  <origin>  (3) 
autodockgpu

>  <m_score__min__energy>  (3) 
-7.2400000000000002

>  <m_primary>  (3) 
energy

>  <rmsd>  (3) 
2.4428672327044145

>  <m_score__min__rmsd>  (3) 
2.4428672327044145

>  <meeko>  (3) 
{"free_energy": -6.01, "intermolecular_energy": -7.8, "internal_energy": -2.44, "cluster_size": 26, "cluster_id": 2, "rank_in_cluster": 22}

>  <energy>  (3) 
-7.2

>  <cluster_rmsd>  (3) 
1.39

>  <cluster>  (3) 
1

$$$$

     RDKit          3D

 45 47  0  0  0  0  0  0  0  0999 V2000
  141.0750   72.6790  221.7520 C   0  0  0  0  0  0  0  0  0  0  0  0
  140.6350   73.9820  221.9800 O   0  0  0  0  0  0  0  0  0  0  0  0
  141.4940   74.8900  221.3470 C   0  0  0  0  0  0  0  0  0  0  0  0
  140.6270   75.8780  220.6360 C   0  0  2  0  0  0  0  0  0  0  0  0
  141.2180   77.2650  220.5410 C   0  0  0  0  0  0  0  0  0  0  0  0
  141.0630   77.7250  221.9740 C   0  0  0  0  0  0  0  0  0  0  0  0
  139.9150   76.9150  222.5600 C   0  0  0  0  0  0  0  0  0  0  0  0
  139.4240   76.0790  221.4750 N   0  0  0  0  0  0  0  0  0  0  0  0
  138.1730   75.5370  221.1890 C   0  0  0  0  0  0  0  0  0  0  0  0
  137.2350   76.4010  220.9210 O   0  0  0  0  0  0  0  0  0  0  0  0
  137.7400   74.1490  221.1450 C   0  0  0  0  0  0  0  0  0  0  0  0
  138.1530   73.2740  222.1990 N   0  0  0  0  0  0  0  0  0  0  0  0
  137.7630   71.8960  222.2330 C   0  0  0  0  0  0  0  0  0  0  0  0
  137.0250   71.3830  221.3390 O   0  0  0  0  0  0  0  0  0  0  0  0
  138.2320   71.0380  223.3420 C   0  0  0  0  0  0  0  0  0  0  0  0
  137.7390   69.7580  223.4730 C   0  0  0  0  0  0  0  0  0  0  0  0
  138.1870   68.9660  224.5160 C   0  0  0  0  0  0  0  0  0  0  0  0
  139.1190   69.4470  225.4230 C   0  0  0  0  0  0  0  0  0  0  0  0
  139.5930   68.6950  226.4760 C   0  0  0  0  0  0  0  0  0  0  0  0
  140.5320   69.2660  227.3370 C   0  0  0  0  0  0  0  0  0  0  0  0
  141.1670   68.3530  228.6930 Cl  0  0  0  0  0  0  0  0  0  0  0  0
  140.9920   70.5500  227.1630 C   0  0  0  0  0  0  0  0  0  0  0  0
  140.5170   71.3110  226.1050 C   0  0  0  0  0  0  0  0  0  0  0  0
  139.5930   70.7490  225.2560 C   0  0  0  0  0  0  0  0  0  0  0  0
  139.1380   71.4960  224.2300 N   0  0  0  0  0  0  0  0  0  0  0  0
  141.2450   72.1756  222.7152 H   0  0  0  0  0  0  0  0  0  0  0  0
  140.3127   72.1293  221.1805 H   0  0  0  0  0  0  0  0  0  0  0  0
  142.0145   72.7040  221.1805 H   0  0  0  0  0  0  0  0  0  0  0  0
  142.1199   75.4024  222.0925 H   0  0  0  0  0  0  0  0  0  0  0  0
  142.1653   74.3750  220.6440 H   0  0  0  0  0  0  0  0  0  0  0  0
  140.4634   75.4732  219.6264 H   0  0  0  0  0  0  0  0  0  0  0  0
  142.2741   77.2370  220.2347 H   0  0  0  0  0  0  0  0  0  0  0  0
  140.7420   77.9177  219.7944 H   0  0  0  0  0  0  0  0  0  0  0  0
  141.9889   77.5362  222.5371 H   0  0  0  0  0  0  0  0  0  0  0  0
  140.8594   78.8046  222.0279 H   0  0  0  0  0  0  0  0  0  0  0  0
  140.2724   76.2911  223.3924 H   0  0  0  0  0  0  0  0  0  0  0  0
  139.1232   77.5659  222.9592 H   0  0  0  0  0  0  0  0  0  0  0  0
  136.6400   74.1515  221.1365 H   0  0  0  0  0  0  0  0  0  0  0  0
  138.2288   73.7414  220.2478 H   0  0  0  0  0  0  0  0  0  0  0  0
  138.7670   73.5840  223.0110 H   0  0  0  0  0  0  0  0  0  0  0  0
  136.9987   69.3704  222.7577 H   0  0  0  0  0  0  0  0  0  0  0  0
  137.7990   67.9427  224.6267 H   0  0  0  0  0  0  0  0  0  0  0  0
  139.2387   67.6658  226.6349 H   0  0  0  0  0  0  0  0  0  0  0  0
  141.7325   70.9713  227.8588 H   0  0  0  0  0  0  0  0  0  0  0  0
  140.8714   72.3405  225.9488 H   0  0  0  0  0  0  0  0  0  0  0  0
  1  2  1  0
  2  3  1  0
  3  4  1  0
  4  5  1  0
  5  6  1  0
  6  7  1  0
  7  8  1  0
  8  9  1  0
  9 10  2  0
  9 11  1  0
 11 12  1  0
 12 13  1  0
 13 14  2  0
 13 15  1  0
 15 16  2  0
 16 17  1  0
 17 18  2  0
 18 19  1  0
 19 20  2  0
 20 21  1  0
 20 22  1  0
 22 23  2  0
 23 24  1  0
 24 25  2  0
  8  4  1  0
 25 15  1  0
 24 18  1  0
  1 26  1  0
  1 27  1  0
  1 28  1  0
  3 29  1  0
  3 30  1  0
  4 31  1  6
  5 32  1  0
  5 33  1  0
  6 34  1  0
  6 35  1  0
  7 36  1  0
  7 37  1  0
 11 38  1  0
 11 39  1  0
 12 40  1  0
 16 41  1  0
 17 42  1  0
 19 43  1  0
 22 44  1  0
 23 45  1  0
M  END
>  <smiles>  (4) 
COC[C@@H]1CCCN1C(=O)CNC(=O)c1ccc2cc(Cl)ccc2n1

>  <score_type>  (4) 
oracle

>  <origin>  (4) 
autodockgpu

>  <m_score__min__energy>  (4) 
-7.2400000000000002

>  <m_primary>  (4) 
energy

>  <rmsd>  (4) 
2.455807512913355

>  <m_score__min__rmsd>  (4) 
2.455807512913355

>  <meeko>  (4) 
{"free_energy": -6.25, "intermolecular_energy": -8.04, "internal_energy": -2.26, "cluster_size": 26, "cluster_id": 2, "rank_in_cluster": 11}

>  <energy>  (4) 
-7.14

>  <cluster_rmsd>  (4) 
1.46

>  <cluster>  (4) 
1

$$$$

     RDKit          3D

 45 47  0  0  0  0  0  0  0  0999 V2000
  141.0870   73.0500  221.5740 C   0  0  0  0  0  0  0  0  0  0  0  0
  140.4150   74.1860  222.0220 O   0  0  0  0  0  0  0  0  0  0  0  0
  141.1370   75.3340  221.6680 C   0  0  0  0  0  0  0  0  0  0  0  0
  140.2100   76.1960  220.8730 C   0  0  2  0  0  0  0  0  0  0  0  0
  140.5500   77.6680  220.9090 C   0  0  0  0  0  0  0  0  0  0  0  0
  140.1240   78.0100  222.3200 C   0  0  0  0  0  0  0  0  0  0  0  0
  139.0710   76.9820  222.7080 C   0  0  0  0  0  0  0  0  0  0  0  0
  138.8890   76.1370  221.5380 N   0  0  0  0  0  0  0  0  0  0  0  0
  137.8050   75.4040  221.0590 C   0  0  0  0  0  0  0  0  0  0  0  0
  136.7900   76.1090  220.6460 O   0  0  0  0  0  0  0  0  0  0  0  0
  137.6220   73.9660  220.9480 C   0  0  0  0  0  0  0  0  0  0  0  0
  138.0420   73.1400  222.0390 N   0  0  0  0  0  0  0  0  0  0  0  0
  137.8010   71.7290  222.0540 C   0  0  0  0  0  0  0  0  0  0  0  0
  137.1940   71.1380  221.1100 O   0  0  0  0  0  0  0  0  0  0  0  0
  138.2690   70.9260  223.2050 C   0  0  0  0  0  0  0  0  0  0  0  0
  137.8210   69.6330  223.3660 C   0  0  0  0  0  0  0  0  0  0  0  0
  138.2690   68.8940  224.4470 C   0  0  0  0  0  0  0  0  0  0  0  0
  139.1560   69.4400  225.3620 C   0  0  0  0  0  0  0  0  0  0  0  0
  139.6280   68.7420  226.4520 C   0  0  0  0  0  0  0  0  0  0  0  0
  140.5200   69.3770  227.3190 C   0  0  0  0  0  0  0  0  0  0  0  0
  141.1500   68.5340  228.7220 Cl  0  0  0  0  0  0  0  0  0  0  0  0
  140.9360   70.6720  227.1140 C   0  0  0  0  0  0  0  0  0  0  0  0
  140.4630   71.3780  226.0170 C   0  0  0  0  0  0  0  0  0  0  0  0
  139.5850   70.7530  225.1630 C   0  0  0  0  0  0  0  0  0  0  0  0
  139.1320   71.4480  224.1010 N   0  0  0  0  0  0  0  0  0  0  0  0
  141.4335   72.4643  222.4382 H   0  0  0  0  0  0  0  0  0  0  0  0
  140.4059   72.4373  220.9651 H   0  0  0  0  0  0  0  0  0  0  0  0
  141.9519   73.3519  220.9651 H   0  0  0  0  0  0  0  0  0  0  0  0
  141.4690   75.8667  222.5714 H   0  0  0  0  0  0  0  0  0  0  0  0
  142.0330   75.0740  221.0854 H   0  0  0  0  0  0  0  0  0  0  0  0
  140.2588   75.8276  219.8377 H   0  0  0  0  0  0  0  0  0  0  0  0
  141.6254   77.8411  220.7554 H   0  0  0  0  0  0  0  0  0  0  0  0
  140.0694   78.2707  220.1243 H   0  0  0  0  0  0  0  0  0  0  0  0
  140.9844   77.9506  223.0028 H   0  0  0  0  0  0  0  0  0  0  0  0
  139.7257   79.0336  222.3809 H   0  0  0  0  0  0  0  0  0  0  0  0
  139.4179   76.3827  223.5626 H   0  0  0  0  0  0  0  0  0  0  0  0
  138.1288   77.4629  223.0095 H   0  0  0  0  0  0  0  0  0  0  0  0
  136.5472   73.7855  220.7985 H   0  0  0  0  0  0  0  0  0  0  0  0
  138.2812   73.6729  220.1176 H   0  0  0  0  0  0  0  0  0  0  0  0
  138.5530   73.5150  222.8940 H   0  0  0  0  0  0  0  0  0  0  0  0
  137.1163   69.1937  222.6446 H   0  0  0  0  0  0  0  0  0  0  0  0
  137.9169   67.8606  224.5819 H   0  0  0  0  0  0  0  0  0  0  0  0
  139.3088   67.7055  226.6357 H   0  0  0  0  0  0  0  0  0  0  0  0
  141.6392   71.1450  227.8153 H   0  0  0  0  0  0  0  0  0  0  0  0
  140.7832   72.4144  225.8346 H   0  0  0  0  0  0  0  0  0  0  0  0
  1  2  1  0
  2  3  1  0
  3  4  1  0
  4  5  1  0
  5  6  1  0
  6  7  1  0
  7  8  1  0
  8  9  1  0
  9 10  2  0
  9 11  1  0
 11 12  1  0
 12 13  1  0
 13 14  2  0
 13 15  1  0
 15 16  2  0
 16 17  1  0
 17 18  2  0
 18 19  1  0
 19 20  2  0
 20 21  1  0
 20 22  1  0
 22 23  2  0
 23 24  1  0
 24 25  2  0
  8  4  1  0
 25 15  1  0
 24 18  1  0
  1 26  1  0
  1 27  1  0
  1 28  1  0
  3 29  1  0
  3 30  1  0
  4 31  1  6
  5 32  1  0
  5 33  1  0
  6 34  1  0
  6 35  1  0
  7 36  1  0
  7 37  1  0
 11 38  1  0
 11 39  1  0
 12 40  1  0
 16 41  1  0
 17 42  1  0
 19 43  1  0
 22 44  1  0
 23 45  1  0
M  END
>  <smiles>  (5) 
COC[C@@H]1CCCN1C(=O)CNC(=O)c1ccc2cc(Cl)ccc2n1

>  <score_type>  (5) 
oracle

>  <origin>  (5) 
autodockgpu

>  <m_score__min__energy>  (5) 
-7.2400000000000002

>  <m_primary>  (5) 
energy

>  <rmsd>  (5) 
2.5353560434921425

>  <m_score__min__rmsd>  (5) 
2.5353560434921425

>  <meeko>  (5) 
{"free_energy": -6.16, "intermolecular_energy": -7.95, "internal_energy": -2.26, "cluster_size": 26, "cluster_id": 2, "rank_in_cluster": 13}

>  <energy>  (5) 
-7.07

>  <cluster_rmsd>  (5) 
1.48

>  <cluster>  (5) 
1

$$$$

     RDKit          3D

 45 47  0  0  0  0  0  0  0  0999 V2000
  141.0960   72.6660  221.6490 C   0  0  0  0  0  0  0  0  0  0  0  0
  140.5860   73.9230  221.9690 O   0  0  0  0  0  0  0  0  0  0  0  0
  141.4610   74.9190  221.5140 C   0  0  0  0  0  0  0  0  0  0  0  0
  140.6250   75.9330  220.8020 C   0  0  2  0  0  0  0  0  0  0  0  0
  141.0840   77.3590  220.9940 C   0  0  0  0  0  0  0  0  0  0  0  0
  140.6570   77.5900  222.4280 C   0  0  0  0  0  0  0  0  0  0  0  0
  139.5160   76.6180  222.6940 C   0  0  0  0  0  0  0  0  0  0  0  0
  139.2890   75.9160  221.4400 N   0  0  0  0  0  0  0  0  0  0  0  0
  138.1600   75.3290  220.8740 C   0  0  0  0  0  0  0  0  0  0  0  0
  137.3740   76.1390  220.2220 O   0  0  0  0  0  0  0  0  0  0  0  0
  137.7110   73.9460  220.8970 C   0  0  0  0  0  0  0  0  0  0  0  0
  138.1130   73.1190  221.9930 N   0  0  0  0  0  0  0  0  0  0  0  0
  137.8090   71.7200  222.0340 C   0  0  0  0  0  0  0  0  0  0  0  0
  137.1600   71.1430  221.1100 O   0  0  0  0  0  0  0  0  0  0  0  0
  138.2620   70.9140  223.1890 C   0  0  0  0  0  0  0  0  0  0  0  0
  137.7740   69.6370  223.3660 C   0  0  0  0  0  0  0  0  0  0  0  0
  138.2070   68.8950  224.4520 C   0  0  0  0  0  0  0  0  0  0  0  0
  139.1190   69.4210  225.3530 C   0  0  0  0  0  0  0  0  0  0  0  0
  139.5780   68.7190  226.4460 C   0  0  0  0  0  0  0  0  0  0  0  0
  140.4970   69.3330  227.2980 C   0  0  0  0  0  0  0  0  0  0  0  0
  141.1130   68.4830  228.7050 Cl  0  0  0  0  0  0  0  0  0  0  0  0
  140.9530   70.6110  227.0770 C   0  0  0  0  0  0  0  0  0  0  0  0
  140.4940   71.3220  225.9780 C   0  0  0  0  0  0  0  0  0  0  0  0
  139.5890   70.7170  225.1370 C   0  0  0  0  0  0  0  0  0  0  0  0
  139.1490   71.4150  224.0720 N   0  0  0  0  0  0  0  0  0  0  0  0
  141.3197   72.1147  222.5742 H   0  0  0  0  0  0  0  0  0  0  0  0
  140.3532   72.1080  221.0601 H   0  0  0  0  0  0  0  0  0  0  0  0
  142.0177   72.7833  221.0601 H   0  0  0  0  0  0  0  0  0  0  0  0
  141.9798   75.3852  222.3646 H   0  0  0  0  0  0  0  0  0  0  0  0
  142.2265   74.4978  220.8457 H   0  0  0  0  0  0  0  0  0  0  0  0
  140.6653   75.6706  219.7345 H   0  0  0  0  0  0  0  0  0  0  0  0
  142.1730   77.4558  220.8730 H   0  0  0  0  0  0  0  0  0  0  0  0
  140.6718   78.0768  220.2696 H   0  0  0  0  0  0  0  0  0  0  0  0
  141.4950   77.3905  223.1121 H   0  0  0  0  0  0  0  0  0  0  0  0
  140.3418   78.6315  222.5892 H   0  0  0  0  0  0  0  0  0  0  0  0
  139.7959   75.9069  223.4852 H   0  0  0  0  0  0  0  0  0  0  0  0
  138.6102   77.1419  223.0330 H   0  0  0  0  0  0  0  0  0  0  0  0
  136.6111   73.9608  220.8869 H   0  0  0  0  0  0  0  0  0  0  0  0
  138.1956   73.4894  220.0214 H   0  0  0  0  0  0  0  0  0  0  0  0
  138.6550   73.4820  222.8340 H   0  0  0  0  0  0  0  0  0  0  0  0
  137.0504   69.2131  222.6541 H   0  0  0  0  0  0  0  0  0  0  0  0
  137.8222   67.8754  224.6013 H   0  0  0  0  0  0  0  0  0  0  0  0
  139.2272   67.6952  226.6431 H   0  0  0  0  0  0  0  0  0  0  0  0
  141.6776   71.0670  227.7676 H   0  0  0  0  0  0  0  0  0  0  0  0
  140.8456   72.3460  225.7834 H   0  0  0  0  0  0  0  0  0  0  0  0
  1  2  1  0
  2  3  1  0
  3  4  1  0
  4  5  1  0
  5  6  1  0
  6  7  1  0
  7  8  1  0
  8  9  1  0
  9 10  2  0
  9 11  1  0
 11 12  1  0
 12 13  1  0
 13 14  2  0
 13 15  1  0
 15 16  2  0
 16 17  1  0
 17 18  2  0
 18 19  1  0
 19 20  2  0
 20 21  1  0
 20 22  1  0
 22 23  2  0
 23 24  1  0
 24 25  2  0
  8  4  1  0
 25 15  1  0
 24 18  1  0
  1 26  1  0
  1 27  1  0
  1 28  1  0
  3 29  1  0
  3 30  1  0
  4 31  1  6
  5 32  1  0
  5 33  1  0
  6 34  1  0
  6 35  1  0
  7 36  1  0
  7 37  1  0
 11 38  1  0
 11 39  1  0
 12 40  1  0
 16 41  1  0
 17 42  1  0
 19 43  1  0
 22 44  1  0
 23 45  1  0
M  END
>  <smiles>  (6) 
COC[C@@H]1CCCN1C(=O)CNC(=O)c1ccc2cc(Cl)ccc2n1

>  <score_type>  (6) 
oracle

>  <origin>  (6) 
autodockgpu

>  <m_score__min__energy>  (6) 
-7.2400000000000002

>  <m_primary>  (6) 
energy

>  <rmsd>  (6) 
2.5059423217262276

>  <m_score__min__rmsd>  (6) 
2.5059423217262276

>  <meeko>  (6) 
{"free_energy": -6.15, "intermolecular_energy": -7.94, "internal_energy": -2.3, "cluster_size": 26, "cluster_id": 2, "rank_in_cluster": 14}

>  <energy>  (6) 
-6.94

>  <cluster_rmsd>  (6) 
0.89

>  <cluster>  (6) 
1

$$$$

     RDKit          3D

 45 47  0  0  0  0  0  0  0  0999 V2000
  140.6980   76.7870  222.1660 C   0  0  0  0  0  0  0  0  0  0  0  0
  141.4470   77.8840  221.7430 O   0  0  0  0  0  0  0  0  0  0  0  0
  141.6360   78.7700  222.8120 C   0  0  0  0  0  0  0  0  0  0  0  0
  142.5740   79.8300  222.3310 C   0  0  2  0  0  0  0  0  0  0  0  0
  143.4970   80.3700  223.3980 C   0  0  0  0  0  0  0  0  0  0  0  0
  142.5220   81.1950  224.2090 C   0  0  0  0  0  0  0  0  0  0  0  0
  141.3870   81.5630  223.2630 C   0  0  0  0  0  0  0  0  0  0  0  0
  141.7500   81.0050  221.9700 N   0  0  0  0  0  0  0  0  0  0  0  0
  141.4560   81.3810  220.6610 C   0  0  0  0  0  0  0  0  0  0  0  0
  141.4430   82.6650  220.4350 O   0  0  0  0  0  0  0  0  0  0  0  0
  141.1570   80.5640  219.4950 C   0  0  0  0  0  0  0  0  0  0  0  0
  141.7720   79.2760  219.3920 N   0  0  0  0  0  0  0  0  0  0  0  0
  142.1500   78.7190  218.1280 C   0  0  0  0  0  0  0  0  0  0  0  0
  141.9510   79.3310  217.0350 O   0  0  0  0  0  0  0  0  0  0  0  0
  142.7920   77.3880  218.0860 C   0  0  0  0  0  0  0  0  0  0  0  0
  143.1440   76.8350  216.8730 C   0  0  0  0  0  0  0  0  0  0  0  0
  143.7450   75.5880  216.8500 C   0  0  0  0  0  0  0  0  0  0  0  0
  143.9930   74.8970  218.0260 C   0  0  0  0  0  0  0  0  0  0  0  0
  144.5880   73.6550  218.0500 C   0  0  0  0  0  0  0  0  0  0  0  0
  144.7970   73.0370  219.2840 C   0  0  0  0  0  0  0  0  0  0  0  0
  145.5500   71.4550  219.3720 Cl  0  0  0  0  0  0  0  0  0  0  0  0
  144.4270   73.6320  220.4680 C   0  0  0  0  0  0  0  0  0  0  0  0
  143.8270   74.8830  220.4480 C   0  0  0  0  0  0  0  0  0  0  0  0
  143.6210   75.4920  219.2320 C   0  0  0  0  0  0  0  0  0  0  0  0
  143.0380   76.7060  219.2240 N   0  0  0  0  0  0  0  0  0  0  0  0
  140.6784   76.7584  223.2655 H   0  0  0  0  0  0  0  0  0  0  0  0
  139.6705   76.8750  221.7832 H   0  0  0  0  0  0  0  0  0  0  0  0
  141.1540   75.8621  221.7832 H   0  0  0  0  0  0  0  0  0  0  0  0
  140.6759   79.2187  223.1067 H   0  0  0  0  0  0  0  0  0  0  0  0
  142.0448   78.2488  223.6902 H   0  0  0  0  0  0  0  0  0  0  0  0
  143.1648   79.3741  221.5229 H   0  0  0  0  0  0  0  0  0  0  0  0
  143.9428   79.5622  223.9970 H   0  0  0  0  0  0  0  0  0  0  0  0
  144.3647   80.9278  223.0160 H   0  0  0  0  0  0  0  0  0  0  0  0
  142.1374   80.6074  225.0556 H   0  0  0  0  0  0  0  0  0  0  0  0
  143.0045   82.0921  224.6241 H   0  0  0  0  0  0  0  0  0  0  0  0
  140.4395   81.1289  223.6148 H   0  0  0  0  0  0  0  0  0  0  0  0
  141.2443   82.6523  223.2074 H   0  0  0  0  0  0  0  0  0  0  0  0
  140.0684   80.4071  219.4780 H   0  0  0  0  0  0  0  0  0  0  0  0
  141.5756   81.1324  218.6514 H   0  0  0  0  0  0  0  0  0  0  0  0
  141.9850   78.6600  220.2320 H   0  0  0  0  0  0  0  0  0  0  0  0
  142.9499   77.3774  215.9359 H   0  0  0  0  0  0  0  0  0  0  0  0
  144.0293   75.1398  215.8865 H   0  0  0  0  0  0  0  0  0  0  0  0
  144.8922   73.1603  217.1158 H   0  0  0  0  0  0  0  0  0  0  0  0
  144.6057   73.1192  221.4246 H   0  0  0  0  0  0  0  0  0  0  0  0
  143.5231   75.3763  221.3830 H   0  0  0  0  0  0  0  0  0  0  0  0
  1  2  1  0
  2  3  1  0
  3  4  1  0
  4  5  1  0
  5  6  1  0
  6  7  1  0
  7  8  1  0
  8  9  1  0
  9 10  2  0
  9 11  1  0
 11 12  1  0
 12 13  1  0
 13 14  2  0
 13 15  1  0
 15 16  2  0
 16 17  1  0
 17 18  2  0
 18 19  1  0
 19 20  2  0
 20 21  1  0
 20 22  1  0
 22 23  2  0
 23 24  1  0
 24 25  2  0
  8  4  1  0
 25 15  1  0
 24 18  1  0
  1 26  1  0
  1 27  1  0
  1 28  1  0
  3 29  1  0
  3 30  1  0
  4 31  1  6
  5 32  1  0
  5 33  1  0
  6 34  1  0
  6 35  1  0
  7 36  1  0
  7 37  1  0
 11 38  1  0
 11 39  1  0
 12 40  1  0
 16 41  1  0
 17 42  1  0
 19 43  1  0
 22 44  1  0
 23 45  1  0
M  END
>  <smiles>  (7) 
COC[C@@H]1CCCN1C(=O)CNC(=O)c1ccc2cc(Cl)ccc2n1

>  <score_type>  (7) 
oracle

>  <origin>  (7) 
autodockgpu

>  <m_score__min__energy>  (7) 
-7.2400000000000002

>  <m_primary>  (7) 
energy

>  <rmsd>  (7) 
8.666195977623799

>  <m_score__min__rmsd>  (7) 
8.666195977623799

>  <meeko>  (7) 
{"free_energy": -5.21, "intermolecular_energy": -7.0, "internal_energy": -2.48, "cluster_size": 2, "cluster_id": 7, "rank_in_cluster": 2}

>  <energy>  (7) 
-6.85

>  <cluster_rmsd>  (7) 
0.33

>  <cluster>  (7) 
1

$$$$

     RDKit          3D

 45 47  0  0  0  0  0  0  0  0999 V2000
  140.6240   71.4180  224.3950 C   0  0  0  0  0  0  0  0  0  0  0  0
  139.6600   71.4830  225.4000 O   0  0  0  0  0  0  0  0  0  0  0  0
  140.1730   70.9380  226.5840 C   0  0  0  0  0  0  0  0  0  0  0  0
  139.3650   69.7150  226.8800 C   0  0  2  0  0  0  0  0  0  0  0  0
  139.6490   69.0980  228.2300 C   0  0  0  0  0  0  0  0  0  0  0  0
  141.0100   68.4890  227.9690 C   0  0  0  0  0  0  0  0  0  0  0  0
  141.0900   68.2530  226.4670 C   0  0  0  0  0  0  0  0  0  0  0  0
  139.8040   68.6680  225.9290 N   0  0  0  0  0  0  0  0  0  0  0  0
  139.0700   68.2680  224.8150 C   0  0  0  0  0  0  0  0  0  0  0  0
  139.2140   67.0210  224.4660 O   0  0  0  0  0  0  0  0  0  0  0  0
  138.1610   69.0260  223.9690 C   0  0  0  0  0  0  0  0  0  0  0  0
  137.2650   69.9520  224.5910 N   0  0  0  0  0  0  0  0  0  0  0  0
  135.8740   69.6580  224.7610 C   0  0  0  0  0  0  0  0  0  0  0  0
  135.3610   68.5690  224.3600 O   0  0  0  0  0  0  0  0  0  0  0  0
  134.9990   70.6500  225.4220 C   0  0  0  0  0  0  0  0  0  0  0  0
  134.0860   70.2360  226.3680 C   0  0  0  0  0  0  0  0  0  0  0  0
  133.2740   71.1760  226.9790 C   0  0  0  0  0  0  0  0  0  0  0  0
  133.3710   72.5190  226.6490 C   0  0  0  0  0  0  0  0  0  0  0  0
  132.5840   73.4890  227.2310 C   0  0  0  0  0  0  0  0  0  0  0  0
  132.7550   74.8160  226.8350 C   0  0  0  0  0  0  0  0  0  0  0  0
  131.7790   76.0900  227.5430 Cl  0  0  0  0  0  0  0  0  0  0  0  0
  133.6810   75.1780  225.8850 C   0  0  0  0  0  0  0  0  0  0  0  0
  134.4760   74.2050  225.2960 C   0  0  0  0  0  0  0  0  0  0  0  0
  134.3080   72.8970  225.6870 C   0  0  0  0  0  0  0  0  0  0  0  0
  135.0850   71.9600  225.1100 N   0  0  0  0  0  0  0  0  0  0  0  0
  141.6235   71.3506  224.8494 H   0  0  0  0  0  0  0  0  0  0  0  0
  140.4441   70.5299  223.7713 H   0  0  0  0  0  0  0  0  0  0  0  0
  140.5650   72.3222  223.7713 H   0  0  0  0  0  0  0  0  0  0  0  0
  141.2314   70.6699  226.4504 H   0  0  0  0  0  0  0  0  0  0  0  0
  140.1132   71.6612  227.4107 H   0  0  0  0  0  0  0  0  0  0  0  0
  138.3099   70.0212  226.8252 H   0  0  0  0  0  0  0  0  0  0  0  0
  139.6889   69.8579  229.0244 H   0  0  0  0  0  0  0  0  0  0  0  0
  138.8864   68.3871  228.5806 H   0  0  0  0  0  0  0  0  0  0  0  0
  141.8042   69.1794  228.2892 H   0  0  0  0  0  0  0  0  0  0  0  0
  141.1434   67.5518  228.5292 H   0  0  0  0  0  0  0  0  0  0  0  0
  141.9002   68.8537  226.0280 H   0  0  0  0  0  0  0  0  0  0  0  0
  141.3038   67.1993  226.2347 H   0  0  0  0  0  0  0  0  0  0  0  0
  138.7774   69.5969  223.2590 H   0  0  0  0  0  0  0  0  0  0  0  0
  137.5003   68.2634  223.5308 H   0  0  0  0  0  0  0  0  0  0  0  0
  137.5690   70.9020  224.9630 H   0  0  0  0  0  0  0  0  0  0  0  0
  134.0036   69.1719  226.6341 H   0  0  0  0  0  0  0  0  0  0  0  0
  132.5432   70.8536  227.7353 H   0  0  0  0  0  0  0  0  0  0  0  0
  131.8361   73.2226  227.9924 H   0  0  0  0  0  0  0  0  0  0  0  0
  133.7909   76.2330  225.5936 H   0  0  0  0  0  0  0  0  0  0  0  0
  135.2229   74.4734  224.5344 H   0  0  0  0  0  0  0  0  0  0  0  0
  1  2  1  0
  2  3  1  0
  3  4  1  0
  4  5  1  0
  5  6  1  0
  6  7  1  0
  7  8  1  0
  8  9  1  0
  9 10  2  0
  9 11  1  0
 11 12  1  0
 12 13  1  0
 13 14  2  0
 13 15  1  0
 15 16  2  0
 16 17  1  0
 17 18  2  0
 18 19  1  0
 19 20  2  0
 20 21  1  0
 20 22  1  0
 22 23  2  0
 23 24  1  0
 24 25  2  0
  8  4  1  0
 25 15  1  0
 24 18  1  0
  1 26  1  0
  1 27  1  0
  1 28  1  0
  3 29  1  0
  3 30  1  0
  4 31  1  1
  5 32  1  0
  5 33  1  0
  6 34  1  0
  6 35  1  0
  7 36  1  0
  7 37  1  0
 11 38  1  0
 11 39  1  0
 12 40  1  0
 16 41  1  0
 17 42  1  0
 19 43  1  0
 22 44  1  0
 23 45  1  0
M  END
>  <smiles>  (8) 
COC[C@@H]1CCCN1C(=O)CNC(=O)c1ccc2cc(Cl)ccc2n1

>  <score_type>  (8) 
oracle

>  <origin>  (8) 
autodockgpu

>  <m_score__min__energy>  (8) 
-7.2400000000000002

>  <m_primary>  (8) 
energy

>  <rmsd>  (8) 
8.68381806626744

>  <m_score__min__rmsd>  (8) 
8.68381806626744

>  <meeko>  (8) 
{"free_energy": -6.74, "intermolecular_energy": -8.53, "internal_energy": -2.1, "cluster_size": 7, "cluster_id": 4, "rank_in_cluster": 3}

>  <energy>  (8) 
-6.8

>  <cluster_rmsd>  (8) 
0.44

>  <cluster>  (8) 
1

$$$$

     RDKit          3D

 45 47  0  0  0  0  0  0  0  0999 V2000
  138.7960   68.1660  223.7420 C   0  0  0  0  0  0  0  0  0  0  0  0
  139.2650   67.2470  224.6810 O   0  0  0  0  0  0  0  0  0  0  0  0
  139.1810   67.7990  225.9660 C   0  0  0  0  0  0  0  0  0  0  0  0
  140.4760   68.5030  226.2170 C   0  0  2  0  0  0  0  0  0  0  0  0
  141.1660   68.0920  227.4960 C   0  0  0  0  0  0  0  0  0  0  0  0
  140.2710   68.7640  228.5150 C   0  0  0  0  0  0  0  0  0  0  0  0
  139.6060   69.9290  227.7960 C   0  0  0  0  0  0  0  0  0  0  0  0
  140.1530   69.9290  226.4480 N   0  0  0  0  0  0  0  0  0  0  0  0
  140.3660   70.9400  225.5130 C   0  0  0  0  0  0  0  0  0  0  0  0
  141.2230   71.8570  225.8630 O   0  0  0  0  0  0  0  0  0  0  0  0
  139.7780   71.1390  224.1980 C   0  0  0  0  0  0  0  0  0  0  0  0
  140.1150   72.3270  223.4750 N   0  0  0  0  0  0  0  0  0  0  0  0
  140.7490   72.2770  222.1920 C   0  0  0  0  0  0  0  0  0  0  0  0
  141.0540   71.1800  221.6340 O   0  0  0  0  0  0  0  0  0  0  0  0
  141.0610   73.5390  221.4880 C   0  0  0  0  0  0  0  0  0  0  0  0
  141.7050   73.5030  220.2700 C   0  0  0  0  0  0  0  0  0  0  0  0
  141.9910   74.6940  219.6230 C   0  0  0  0  0  0  0  0  0  0  0  0
  141.6390   75.9100  220.1860 C   0  0  0  0  0  0  0  0  0  0  0  0
  141.9030   77.1180  219.5790 C   0  0  0  0  0  0  0  0  0  0  0  0
  141.5100   78.2920  220.2240 C   0  0  0  0  0  0  0  0  0  0  0  0
  141.8220   79.8570  219.4940 Cl  0  0  0  0  0  0  0  0  0  0  0  0
  140.8700   78.2740  221.4410 C   0  0  0  0  0  0  0  0  0  0  0  0
  140.6020   77.0600  222.0560 C   0  0  0  0  0  0  0  0  0  0  0  0
  140.9890   75.9030  221.4210 C   0  0  0  0  0  0  0  0  0  0  0  0
  140.7230   74.7290  222.0270 N   0  0  0  0  0  0  0  0  0  0  0  0
  138.3554   69.0293  224.2622 H   0  0  0  0  0  0  0  0  0  0  0  0
  139.6314   68.5049  223.1117 H   0  0  0  0  0  0  0  0  0  0  0  0
  138.0314   67.6884  223.1117 H   0  0  0  0  0  0  0  0  0  0  0  0
  138.3454   68.5125  226.0182 H   0  0  0  0  0  0  0  0  0  0  0  0
  139.0021   67.0190  226.7207 H   0  0  0  0  0  0  0  0  0  0  0  0
  141.1225   68.2759  225.3565 H   0  0  0  0  0  0  0  0  0  0  0  0
  141.1750   66.9991  227.6203 H   0  0  0  0  0  0  0  0  0  0  0  0
  142.2271   68.3751  227.5578 H   0  0  0  0  0  0  0  0  0  0  0  0
  139.5109   68.0573  228.8794 H   0  0  0  0  0  0  0  0  0  0  0  0
  140.8459   69.1079  229.3875 H   0  0  0  0  0  0  0  0  0  0  0  0
  138.5154   69.7884  227.7666 H   0  0  0  0  0  0  0  0  0  0  0  0
  139.7966   70.8829  228.3096 H   0  0  0  0  0  0  0  0  0  0  0  0
  140.0771   70.2832  223.5750 H   0  0  0  0  0  0  0  0  0  0  0  0
  138.7005   71.2390  224.3957 H   0  0  0  0  0  0  0  0  0  0  0  0
  139.9180   73.3090  223.8370 H   0  0  0  0  0  0  0  0  0  0  0  0
  141.9882   72.5411  219.8176 H   0  0  0  0  0  0  0  0  0  0  0  0
  142.5039   74.6741  218.6501 H   0  0  0  0  0  0  0  0  0  0  0  0
  142.4134   77.1568  218.6053 H   0  0  0  0  0  0  0  0  0  0  0  0
  140.5724   79.2165  221.9238 H   0  0  0  0  0  0  0  0  0  0  0  0
  140.0915   77.0234  223.0297 H   0  0  0  0  0  0  0  0  0  0  0  0
  1  2  1  0
  2  3  1  0
  3  4  1  0
  4  5  1  0
  5  6  1  0
  6  7  1  0
  7  8  1  0
  8  9  1  0
  9 10  2  0
  9 11  1  0
 11 12  1  0
 12 13  1  0
 13 14  2  0
 13 15  1  0
 15 16  2  0
 16 17  1  0
 17 18  2  0
 18 19  1  0
 19 20  2  0
 20 21  1  0
 20 22  1  0
 22 23  2  0
 23 24  1  0
 24 25  2  0
  8  4  1  0
 25 15  1  0
 24 18  1  0
  1 26  1  0
  1 27  1  0
  1 28  1  0
  3 29  1  0
  3 30  1  0
  4 31  1  6
  5 32  1  0
  5 33  1  0
  6 34  1  0
  6 35  1  0
  7 36  1  0
  7 37  1  0
 11 38  1  0
 11 39  1  0
 12 40  1  0
 16 41  1  0
 17 42  1  0
 19 43  1  0
 22 44  1  0
 23 45  1  0
M  END
>  <smiles>  (9) 
COC[C@@H]1CCCN1C(=O)CNC(=O)c1ccc2cc(Cl)ccc2n1

>  <score_type>  (9) 
oracle

>  <origin>  (9) 
autodockgpu

>  <m_score__min__energy>  (9) 
-7.2400000000000002

>  <m_primary>  (9) 
energy

>  <rmsd>  (9) 
8.995271841003586

>  <m_score__min__rmsd>  (9) 
8.995271841003586

>  <meeko>  (9) 
{"free_energy": -7.24, "intermolecular_energy": -9.03, "internal_energy": -1.44, "cluster_size": 10, "cluster_id": 1, "rank_in_cluster": 1}

>  <energy>  (9) 
-6.68

>  <cluster_rmsd>  (9) 
1.53

>  <cluster>  (9) 
1

$$$$

     RDKit          3D

 45 47  0  0  0  0  0  0  0  0999 V2000
  141.0970   72.6390  221.6720 C   0  0  0  0  0  0  0  0  0  0  0  0
  140.8300   73.9370  222.1050 O   0  0  0  0  0  0  0  0  0  0  0  0
  141.4840   74.8570  221.2740 C   0  0  0  0  0  0  0  0  0  0  0  0
  140.4530   75.3930  220.3320 C   0  0  2  0  0  0  0  0  0  0  0  0
  140.9410   76.5270  219.4620 C   0  0  0  0  0  0  0  0  0  0  0  0
  141.0070   77.6430  220.4830 C   0  0  0  0  0  0  0  0  0  0  0  0
  140.0230   77.2720  221.5830 C   0  0  0  0  0  0  0  0  0  0  0  0
  139.4020   76.0270  221.1590 N   0  0  0  0  0  0  0  0  0  0  0  0
  138.1530   75.4600  221.4040 C   0  0  0  0  0  0  0  0  0  0  0  0
  137.2150   76.2970  221.7490 O   0  0  0  0  0  0  0  0  0  0  0  0
  137.7240   74.0720  221.3400 C   0  0  0  0  0  0  0  0  0  0  0  0
  138.1780   73.1720  222.3550 N   0  0  0  0  0  0  0  0  0  0  0  0
  137.6510   71.8460  222.4800 C   0  0  0  0  0  0  0  0  0  0  0  0
  136.7490   71.4040  221.7070 O   0  0  0  0  0  0  0  0  0  0  0  0
  138.1700   70.9580  223.5420 C   0  0  0  0  0  0  0  0  0  0  0  0
  137.7110   69.6620  223.6360 C   0  0  0  0  0  0  0  0  0  0  0  0
  138.2060   68.8420  224.6360 C   0  0  0  0  0  0  0  0  0  0  0  0
  139.1500   69.3100  225.5350 C   0  0  0  0  0  0  0  0  0  0  0  0
  139.6710   68.5300  226.5460 C   0  0  0  0  0  0  0  0  0  0  0  0
  140.6190   69.0910  227.4030 C   0  0  0  0  0  0  0  0  0  0  0  0
  141.3120   68.1420  228.7060 Cl  0  0  0  0  0  0  0  0  0  0  0  0
  141.0440   70.3910  227.2670 C   0  0  0  0  0  0  0  0  0  0  0  0
  140.5230   71.1800  226.2520 C   0  0  0  0  0  0  0  0  0  0  0  0
  139.5890   70.6290  225.4070 C   0  0  0  0  0  0  0  0  0  0  0  0
  139.0900   71.4030  224.4240 N   0  0  0  0  0  0  0  0  0  0  0  0
  141.2321   71.9821  222.5439 H   0  0  0  0  0  0  0  0  0  0  0  0
  140.2550   72.2744  221.0652 H   0  0  0  0  0  0  0  0  0  0  0  0
  142.0145   72.6363  221.0652 H   0  0  0  0  0  0  0  0  0  0  0  0
  141.9103   75.6741  221.8745 H   0  0  0  0  0  0  0  0  0  0  0  0
  142.3098   74.3789  220.7268 H   0  0  0  0  0  0  0  0  0  0  0  0
  140.1417   74.5474  219.7011 H   0  0  0  0  0  0  0  0  0  0  0  0
  141.9294   76.3120  219.0298 H   0  0  0  0  0  0  0  0  0  0  0  0
  140.3094   76.7405  218.5871 H   0  0  0  0  0  0  0  0  0  0  0  0
  142.0244   77.7246  220.8933 H   0  0  0  0  0  0  0  0  0  0  0  0
  140.7557   78.6141  220.0316 H   0  0  0  0  0  0  0  0  0  0  0  0
  140.5514   77.1304  222.5373 H   0  0  0  0  0  0  0  0  0  0  0  0
  139.2753   78.0634  221.7398 H   0  0  0  0  0  0  0  0  0  0  0  0
  136.6245   74.0697  221.3715 H   0  0  0  0  0  0  0  0  0  0  0  0
  138.1816   73.6900  220.4155 H   0  0  0  0  0  0  0  0  0  0  0  0
  138.9260   73.4240  223.0700 H   0  0  0  0  0  0  0  0  0  0  0  0
  136.9610   69.2838  222.9257 H   0  0  0  0  0  0  0  0  0  0  0  0
  137.8450   67.8061  224.7174 H   0  0  0  0  0  0  0  0  0  0  0  0
  139.3460   67.4870  226.6743 H   0  0  0  0  0  0  0  0  0  0  0  0
  141.7930   70.8034  227.9591 H   0  0  0  0  0  0  0  0  0  0  0  0
  140.8497   72.2228  226.1261 H   0  0  0  0  0  0  0  0  0  0  0  0
  1  2  1  0
  2  3  1  0
  3  4  1  0
  4  5  1  0
  5  6  1  0
  6  7  1  0
  7  8  1  0
  8  9  1  0
  9 10  2  0
  9 11  1  0
 11 12  1  0
 12 13  1  0
 13 14  2  0
 13 15  1  0
 15 16  2  0
 16 17  1  0
 17 18  2  0
 18 19  1  0
 19 20  2  0
 20 21  1  0
 20 22  1  0
 22 23  2  0
 23 24  1  0
 24 25  2  0
  8  4  1  0
 25 15  1  0
 24 18  1  0
  1 26  1  0
  1 27  1  0
  1 28  1  0
  3 29  1  0
  3 30  1  0
  4 31  1  6
  5 32  1  0
  5 33  1  0
  6 34  1  0
  6 35  1  0
  7 36  1  0
  7 37  1  0
 11 38  1  0
 11 39  1  0
 12 40  1  0
 16 41  1  0
 17 42  1  0
 19 43  1  0
 22 44  1  0
 23 45  1  0
M  END
>  <smiles>  (10) 
COC[C@@H]1CCCN1C(=O)CNC(=O)c1ccc2cc(Cl)ccc2n1

>  <score_type>  (10) 
oracle

>  <origin>  (10) 
autodockgpu

>  <m_score__min__energy>  (10) 
-7.2400000000000002

>  <m_primary>  (10) 
energy

>  <rmsd>  (10) 
2.18086342078786

>  <m_score__min__rmsd>  (10) 
2.18086342078786

>  <meeko>  (10) 
{"free_energy": -5.92, "intermolecular_energy": -7.71, "internal_energy": -2.28, "cluster_size": 26, "cluster_id": 2, "rank_in_cluster": 23}

>  <energy>  (10) 
-6.37

>  <cluster_rmsd>  (10) 
1.41

>  <cluster>  (10) 
1

$$$$

     RDKit          3D

 45 47  0  0  0  0  0  0  0  0999 V2000
  140.3450   72.1520  223.2430 C   0  0  0  0  0  0  0  0  0  0  0  0
  140.4460   70.9830  223.9960 O   0  0  0  0  0  0  0  0  0  0  0  0
  140.5800   71.3040  225.3540 C   0  0  0  0  0  0  0  0  0  0  0  0
  139.6140   70.4390  226.0970 C   0  0  2  0  0  0  0  0  0  0  0  0
  139.8730   70.3580  227.5830 C   0  0  0  0  0  0  0  0  0  0  0  0
  141.1100   69.4860  227.5960 C   0  0  0  0  0  0  0  0  0  0  0  0
  141.0730   68.6750  226.3080 C   0  0  0  0  0  0  0  0  0  0  0  0
  139.8370   69.0490  225.6380 N   0  0  0  0  0  0  0  0  0  0  0  0
  138.9920   68.3710  224.7630 C   0  0  0  0  0  0  0  0  0  0  0  0
  139.2620   67.1080  224.5880 O   0  0  0  0  0  0  0  0  0  0  0  0
  137.8480   68.8500  224.0030 C   0  0  0  0  0  0  0  0  0  0  0  0
  136.9970   69.8330  224.6020 N   0  0  0  0  0  0  0  0  0  0  0  0
  135.6300   69.5530  224.9230 C   0  0  0  0  0  0  0  0  0  0  0  0
  135.0980   68.4270  224.6840 O   0  0  0  0  0  0  0  0  0  0  0  0
  134.8040   70.6060  225.5520 C   0  0  0  0  0  0  0  0  0  0  0  0
  133.7990   70.2560  226.4270 C   0  0  0  0  0  0  0  0  0  0  0  0
  133.0340   71.2530  227.0080 C   0  0  0  0  0  0  0  0  0  0  0  0
  133.2680   72.5880  226.7180 C   0  0  0  0  0  0  0  0  0  0  0  0
  132.5320   73.6130  227.2730 C   0  0  0  0  0  0  0  0  0  0  0  0
  132.8430   74.9270  226.9200 C   0  0  0  0  0  0  0  0  0  0  0  0
  131.9370   76.2690  227.5960 Cl  0  0  0  0  0  0  0  0  0  0  0  0
  133.8570   75.2240  226.0390 C   0  0  0  0  0  0  0  0  0  0  0  0
  134.6000   74.1950  225.4790 C   0  0  0  0  0  0  0  0  0  0  0  0
  134.2950   72.9000  225.8260 C   0  0  0  0  0  0  0  0  0  0  0  0
  135.0230   71.9090  225.2770 N   0  0  0  0  0  0  0  0  0  0  0  0
  140.2702   73.0175  223.9178 H   0  0  0  0  0  0  0  0  0  0  0  0
  141.2374   72.2577  222.6085 H   0  0  0  0  0  0  0  0  0  0  0  0
  139.4477   72.1031  222.6085 H   0  0  0  0  0  0  0  0  0  0  0  0
  141.6072   71.1020  225.6918 H   0  0  0  0  0  0  0  0  0  0  0  0
  140.3738   72.3699  225.5309 H   0  0  0  0  0  0  0  0  0  0  0  0
  138.6163   70.8650  225.9151 H   0  0  0  0  0  0  0  0  0  0  0  0
  140.0698   71.3497  228.0163 H   0  0  0  0  0  0  0  0  0  0  0  0
  139.0313   69.9712  228.1762 H   0  0  0  0  0  0  0  0  0  0  0  0
  142.0156   70.1096  227.6278 H   0  0  0  0  0  0  0  0  0  0  0  0
  141.1297   68.8322  228.4804 H   0  0  0  0  0  0  0  0  0  0  0  0
  141.9399   68.9196  225.6766 H   0  0  0  0  0  0  0  0  0  0  0  0
  141.1127   67.5943  226.5094 H   0  0  0  0  0  0  0  0  0  0  0  0
  138.2358   69.2814  223.0684 H   0  0  0  0  0  0  0  0  0  0  0  0
  137.2046   67.9644  223.8952 H   0  0  0  0  0  0  0  0  0  0  0  0
  137.3200   70.8170  224.8450 H   0  0  0  0  0  0  0  0  0  0  0  0
  133.6069   69.1984  226.6609 H   0  0  0  0  0  0  0  0  0  0  0  0
  132.2303   70.9822  227.7086 H   0  0  0  0  0  0  0  0  0  0  0  0
  131.7164   73.3997  227.9795 H   0  0  0  0  0  0  0  0  0  0  0  0
  134.0771   76.2703  225.7804 H   0  0  0  0  0  0  0  0  0  0  0  0
  135.4154   74.4104  224.7728 H   0  0  0  0  0  0  0  0  0  0  0  0
  1  2  1  0
  2  3  1  0
  3  4  1  0
  4  5  1  0
  5  6  1  0
  6  7  1  0
  7  8  1  0
  8  9  1  0
  9 10  2  0
  9 11  1  0
 11 12  1  0
 12 13  1  0
 13 14  2  0
 13 15  1  0
 15 16  2  0
 16 17  1  0
 17 18  2  0
 18 19  1  0
 19 20  2  0
 20 21  1  0
 20 22  1  0
 22 23  2  0
 23 24  1  0
 24 25  2  0
  8  4  1  0
 25 15  1  0
 24 18  1  0
  1 26  1  0
  1 27  1  0
  1 28  1  0
  3 29  1  0
  3 30  1  0
  4 31  1  1
  5 32  1  0
  5 33  1  0
  6 34  1  0
  6 35  1  0
  7 36  1  0
  7 37  1  0
 11 38  1  0
 11 39  1  0
 12 40  1  0
 16 41  1  0
 17 42  1  0
 19 43  1  0
 22 44  1  0
 23 45  1  0
M  END
>  <smiles>  (11) 
COC[C@@H]1CCCN1C(=O)CNC(=O)c1ccc2cc(Cl)ccc2n1

>  <score_type>  (11) 
oracle

>  <origin>  (11) 
autodockgpu

>  <m_score__min__energy>  (11) 
-7.2400000000000002

>  <m_primary>  (11) 
energy

>  <rmsd>  (11) 
8.338678391837666

>  <m_score__min__rmsd>  (11) 
8.338678391837666

>  <meeko>  (11) 
{"free_energy": -6.47, "intermolecular_energy": -8.26, "internal_energy": -1.54, "cluster_size": 7, "cluster_id": 4, "rank_in_cluster": 6}

>  <energy>  (11) 
-7.16

>  <cluster_rmsd>  (11) 
0.0

>  <cluster>  (11) 
2

$$$$

     RDKit          3D

 45 47  0  0  0  0  0  0  0  0999 V2000
  140.8950   72.4200  221.9510 C   0  0  0  0  0  0  0  0  0  0  0  0
  140.4590   73.7300  222.1380 O   0  0  0  0  0  0  0  0  0  0  0  0
  141.3880   74.6220  221.5850 C   0  0  0  0  0  0  0  0  0  0  0  0
  140.6050   75.6250  220.7990 C   0  0  2  0  0  0  0  0  0  0  0  0
  141.0940   77.0460  220.9480 C   0  0  0  0  0  0  0  0  0  0  0  0
  140.6210   77.3490  222.3540 C   0  0  0  0  0  0  0  0  0  0  0  0
  139.4460   76.4190  222.6180 C   0  0  0  0  0  0  0  0  0  0  0  0
  139.2470   75.6690  221.3870 N   0  0  0  0  0  0  0  0  0  0  0  0
  138.1240   75.0860  220.8040 C   0  0  0  0  0  0  0  0  0  0  0  0
  137.7020   75.6520  219.7090 O   0  0  0  0  0  0  0  0  0  0  0  0
  137.3380   73.9380  221.2260 C   0  0  0  0  0  0  0  0  0  0  0  0
  137.8500   73.1110  222.2750 N   0  0  0  0  0  0  0  0  0  0  0  0
  137.5190   71.7210  222.3720 C   0  0  0  0  0  0  0  0  0  0  0  0
  136.7470   71.1530  221.5410 O   0  0  0  0  0  0  0  0  0  0  0  0
  138.0900   70.9150  223.4720 C   0  0  0  0  0  0  0  0  0  0  0  0
  137.6790   69.6120  223.6510 C   0  0  0  0  0  0  0  0  0  0  0  0
  138.2230   68.8690  224.6850 C   0  0  0  0  0  0  0  0  0  0  0  0
  139.1680   69.4210  225.5350 C   0  0  0  0  0  0  0  0  0  0  0  0
  139.7360   68.7200  226.5760 C   0  0  0  0  0  0  0  0  0  0  0  0
  140.6820   69.3620  227.3780 C   0  0  0  0  0  0  0  0  0  0  0  0
  141.4340   68.5150  228.7180 Cl  0  0  0  0  0  0  0  0  0  0  0  0
  141.0580   70.6660  227.1580 C   0  0  0  0  0  0  0  0  0  0  0  0
  140.4890   71.3760  226.1100 C   0  0  0  0  0  0  0  0  0  0  0  0
  139.5580   70.7440  225.3200 C   0  0  0  0  0  0  0  0  0  0  0  0
  139.0110   71.4420  224.3050 N   0  0  0  0  0  0  0  0  0  0  0  0
  141.0537   71.9432  222.9295 H   0  0  0  0  0  0  0  0  0  0  0  0
  140.1356   71.8576  221.3879 H   0  0  0  0  0  0  0  0  0  0  0  0
  141.8400   72.4249  221.3879 H   0  0  0  0  0  0  0  0  0  0  0  0
  141.9535   75.1241  222.3838 H   0  0  0  0  0  0  0  0  0  0  0  0
  142.1107   74.0945  220.9451 H   0  0  0  0  0  0  0  0  0  0  0  0
  140.6771   75.3156  219.7459 H   0  0  0  0  0  0  0  0  0  0  0  0
  142.1889   77.1105  220.8642 H   0  0  0  0  0  0  0  0  0  0  0  0
  140.7276   77.7420  220.1790 H   0  0  0  0  0  0  0  0  0  0  0  0
  141.4279   77.1582  223.0769 H   0  0  0  0  0  0  0  0  0  0  0  0
  140.3278   78.4040  222.4590 H   0  0  0  0  0  0  0  0  0  0  0  0
  139.6775   75.7363  223.4489 H   0  0  0  0  0  0  0  0  0  0  0  0
  138.5426   76.9795  222.9001 H   0  0  0  0  0  0  0  0  0  0  0  0
  136.3608   74.3177  221.5589 H   0  0  0  0  0  0  0  0  0  0  0  0
  137.3260   73.2800  220.3446 H   0  0  0  0  0  0  0  0  0  0  0  0
  138.5010   73.4680  223.0380 H   0  0  0  0  0  0  0  0  0  0  0  0
  136.9282   69.1677  222.9809 H   0  0  0  0  0  0  0  0  0  0  0  0
  137.9011   67.8277  224.8335 H   0  0  0  0  0  0  0  0  0  0  0  0
  139.4502   67.6759  226.7715 H   0  0  0  0  0  0  0  0  0  0  0  0
  141.8053   71.1437  227.8087 H   0  0  0  0  0  0  0  0  0  0  0  0
  140.7762   72.4200  225.9160 H   0  0  0  0  0  0  0  0  0  0  0  0
  1  2  1  0
  2  3  1  0
  3  4  1  0
  4  5  1  0
  5  6  1  0
  6  7  1  0
  7  8  1  0
  8  9  1  0
  9 10  2  0
  9 11  1  0
 11 12  1  0
 12 13  1  0
 13 14  2  0
 13 15  1  0
 15 16  2  0
 16 17  1  0
 17 18  2  0
 18 19  1  0
 19 20  2  0
 20 21  1  0
 20 22  1  0
 22 23  2  0
 23 24  1  0
 24 25  2  0
  8  4  1  0
 25 15  1  0
 24 18  1  0
  1 26  1  0
  1 27  1  0
  1 28  1  0
  3 29  1  0
  3 30  1  0
  4 31  1  6
  5 32  1  0
  5 33  1  0
  6 34  1  0
  6 35  1  0
  7 36  1  0
  7 37  1  0
 11 38  1  0
 11 39  1  0
 12 40  1  0
 16 41  1  0
 17 42  1  0
 19 43  1  0
 22 44  1  0
 23 45  1  0
M  END
>  <smiles>  (12) 
COC[C@@H]1CCCN1C(=O)CNC(=O)c1ccc2cc(Cl)ccc2n1

>  <score_type>  (12) 
oracle

>  <origin>  (12) 
autodockgpu

>  <m_score__min__energy>  (12) 
-7.2400000000000002

>  <m_primary>  (12) 
energy

>  <rmsd>  (12) 
2.5129776390523806

>  <m_score__min__rmsd>  (12) 
2.5129776390523806

>  <meeko>  (12) 
{"free_energy": -6.05, "intermolecular_energy": -7.84, "internal_energy": -2.42, "cluster_size": 26, "cluster_id": 2, "rank_in_cluster": 19}

>  <energy>  (12) 
-7.12

>  <cluster_rmsd>  (12) 
0.16

>  <cluster>  (12) 
2

$$$$

     RDKit          3D

 45 47  0  0  0  0  0  0  0  0999 V2000
  141.1410   72.6430  221.5990 C   0  0  0  0  0  0  0  0  0  0  0  0
  140.6450   73.8610  222.0620 O   0  0  0  0  0  0  0  0  0  0  0  0
  141.4450   74.9090  221.5880 C   0  0  0  0  0  0  0  0  0  0  0  0
  140.5780   75.7430  220.7000 C   0  0  2  0  0  0  0  0  0  0  0  0
  141.1780   77.0790  220.3280 C   0  0  0  0  0  0  0  0  0  0  0  0
  141.0370   77.8150  221.6430 C   0  0  0  0  0  0  0  0  0  0  0  0
  139.8880   77.1470  222.3850 C   0  0  0  0  0  0  0  0  0  0  0  0
  139.3830   76.1160  221.4910 N   0  0  0  0  0  0  0  0  0  0  0  0
  138.1270   75.5370  221.3260 C   0  0  0  0  0  0  0  0  0  0  0  0
  137.1310   76.3740  221.2430 O   0  0  0  0  0  0  0  0  0  0  0  0
  137.7440   74.1380  221.2350 C   0  0  0  0  0  0  0  0  0  0  0  0
  138.1640   73.2480  222.2750 N   0  0  0  0  0  0  0  0  0  0  0  0
  137.7910   71.8650  222.2820 C   0  0  0  0  0  0  0  0  0  0  0  0
  137.0620   71.3590  221.3760 O   0  0  0  0  0  0  0  0  0  0  0  0
  138.2660   70.9930  223.3770 C   0  0  0  0  0  0  0  0  0  0  0  0
  137.8220   69.6910  223.4570 C   0  0  0  0  0  0  0  0  0  0  0  0
  138.2760   68.8860  224.4880 C   0  0  0  0  0  0  0  0  0  0  0  0
  139.1650   69.3750  225.4320 C   0  0  0  0  0  0  0  0  0  0  0  0
  139.6430   68.6110  226.4740 C   0  0  0  0  0  0  0  0  0  0  0  0
  140.5370   69.1920  227.3760 C   0  0  0  0  0  0  0  0  0  0  0  0
  141.1750   68.2630  228.7200 Cl  0  0  0  0  0  0  0  0  0  0  0  0
  140.9490   70.4970  227.2520 C   0  0  0  0  0  0  0  0  0  0  0  0
  140.4700   71.2710  226.2040 C   0  0  0  0  0  0  0  0  0  0  0  0
  139.5900   70.6990  225.3150 C   0  0  0  0  0  0  0  0  0  0  0  0
  139.1320   71.4580  224.3010 N   0  0  0  0  0  0  0  0  0  0  0  0
  141.4013   72.0037  222.4555 H   0  0  0  0  0  0  0  0  0  0  0  0
  140.3747   72.1434  220.9881 H   0  0  0  0  0  0  0  0  0  0  0  0
  142.0383   72.8209  220.9881 H   0  0  0  0  0  0  0  0  0  0  0  0
  141.8175   75.5120  222.4292 H   0  0  0  0  0  0  0  0  0  0  0  0
  142.3181   74.5242  221.0407 H   0  0  0  0  0  0  0  0  0  0  0  0
  140.4030   75.1475  219.7918 H   0  0  0  0  0  0  0  0  0  0  0  0
  142.2315   76.9822  220.0268 H   0  0  0  0  0  0  0  0  0  0  0  0
  140.7010   77.5748  219.4697 H   0  0  0  0  0  0  0  0  0  0  0  0
  141.9659   77.7336  222.2266 H   0  0  0  0  0  0  0  0  0  0  0  0
  140.8412   78.8856  221.4832 H   0  0  0  0  0  0  0  0  0  0  0  0
  140.2474   76.6981  223.3227 H   0  0  0  0  0  0  0  0  0  0  0  0
  139.1036   77.8708  222.6513 H   0  0  0  0  0  0  0  0  0  0  0  0
  136.6451   74.1032  221.2013 H   0  0  0  0  0  0  0  0  0  0  0  0
  138.2666   73.7723  220.3388 H   0  0  0  0  0  0  0  0  0  0  0  0
  138.7710   73.5510  223.0940 H   0  0  0  0  0  0  0  0  0  0  0  0
  137.1161   69.2963  222.7115 H   0  0  0  0  0  0  0  0  0  0  0  0
  137.9267   67.8453  224.5587 H   0  0  0  0  0  0  0  0  0  0  0  0
  139.3268   67.5642  226.5932 H   0  0  0  0  0  0  0  0  0  0  0  0
  141.6543   70.9259  227.9790 H   0  0  0  0  0  0  0  0  0  0  0  0
  140.7869   72.3179  226.0871 H   0  0  0  0  0  0  0  0  0  0  0  0
  1  2  1  0
  2  3  1  0
  3  4  1  0
  4  5  1  0
  5  6  1  0
  6  7  1  0
  7  8  1  0
  8  9  1  0
  9 10  2  0
  9 11  1  0
 11 12  1  0
 12 13  1  0
 13 14  2  0
 13 15  1  0
 15 16  2  0
 16 17  1  0
 17 18  2  0
 18 19  1  0
 19 20  2  0
 20 21  1  0
 20 22  1  0
 22 23  2  0
 23 24  1  0
 24 25  2  0
  8  4  1  0
 25 15  1  0
 24 18  1  0
  1 26  1  0
  1 27  1  0
  1 28  1  0
  3 29  1  0
  3 30  1  0
  4 31  1  6
  5 32  1  0
  5 33  1  0
  6 34  1  0
  6 35  1  0
  7 36  1  0
  7 37  1  0
 11 38  1  0
 11 39  1  0
 12 40  1  0
 16 41  1  0
 17 42  1  0
 19 43  1  0
 22 44  1  0
 23 45  1  0
M  END
>  <smiles>  (13) 
COC[C@@H]1CCCN1C(=O)CNC(=O)c1ccc2cc(Cl)ccc2n1

>  <score_type>  (13) 
oracle

>  <origin>  (13) 
autodockgpu

>  <m_score__min__energy>  (13) 
-7.2400000000000002

>  <m_primary>  (13) 
energy

>  <rmsd>  (13) 
2.400045822090036

>  <m_score__min__rmsd>  (13) 
2.400045822090036

>  <meeko>  (13) 
{"free_energy": -6.3, "intermolecular_energy": -8.09, "internal_energy": -2.28, "cluster_size": 26, "cluster_id": 2, "rank_in_cluster": 9}

>  <energy>  (13) 
-6.92

>  <cluster_rmsd>  (13) 
0.77

>  <cluster>  (13) 
2

$$$$

     RDKit          3D

 45 47  0  0  0  0  0  0  0  0999 V2000
  138.8380   68.0790  223.6540 C   0  0  0  0  0  0  0  0  0  0  0  0
  138.7440   68.2970  225.0280 O   0  0  0  0  0  0  0  0  0  0  0  0
  139.6750   67.4930  225.7000 C   0  0  0  0  0  0  0  0  0  0  0  0
  140.7980   68.3890  226.1120 C   0  0  2  0  0  0  0  0  0  0  0  0
  141.4180   68.0330  227.4430 C   0  0  0  0  0  0  0  0  0  0  0  0
  140.3240   68.4910  228.3830 C   0  0  0  0  0  0  0  0  0  0  0  0
  139.5440   69.5650  227.6380 C   0  0  0  0  0  0  0  0  0  0  0  0
  140.2150   69.7280  226.3580 N   0  0  0  0  0  0  0  0  0  0  0  0
  140.3430   70.8070  225.4870 C   0  0  0  0  0  0  0  0  0  0  0  0
  141.2050   71.7170  225.8440 O   0  0  0  0  0  0  0  0  0  0  0  0
  139.6620   71.0860  224.2320 C   0  0  0  0  0  0  0  0  0  0  0  0
  140.0290   72.2640  223.5070 N   0  0  0  0  0  0  0  0  0  0  0  0
  140.7310   72.1960  222.2610 C   0  0  0  0  0  0  0  0  0  0  0  0
  141.0750   71.0920  221.7410 O   0  0  0  0  0  0  0  0  0  0  0  0
  141.0720   73.4480  221.5520 C   0  0  0  0  0  0  0  0  0  0  0  0
  141.8000   73.3970  220.3830 C   0  0  0  0  0  0  0  0  0  0  0  0
  142.1110   74.5780  219.7300 C   0  0  0  0  0  0  0  0  0  0  0  0
  141.7000   75.8000  220.2390 C   0  0  0  0  0  0  0  0  0  0  0  0
  141.9870   76.9990  219.6240 C   0  0  0  0  0  0  0  0  0  0  0  0
  141.5290   78.1800  220.2120 C   0  0  0  0  0  0  0  0  0  0  0  0
  141.8670   79.7330  219.4710 Cl  0  0  0  0  0  0  0  0  0  0  0  0
  140.8060   78.1770  221.3820 C   0  0  0  0  0  0  0  0  0  0  0  0
  140.5150   76.9710  222.0050 C   0  0  0  0  0  0  0  0  0  0  0  0
  140.9650   75.8080  221.4250 C   0  0  0  0  0  0  0  0  0  0  0  0
  140.6770   74.6430  222.0380 N   0  0  0  0  0  0  0  0  0  0  0  0
  139.2673   67.0832  223.4693 H   0  0  0  0  0  0  0  0  0  0  0  0
  137.8357   68.1353  223.2044 H   0  0  0  0  0  0  0  0  0  0  0  0
  139.4851   68.8465  223.2044 H   0  0  0  0  0  0  0  0  0  0  0  0
  139.2108   67.0350  226.5859 H   0  0  0  0  0  0  0  0  0  0  0  0
  140.0349   66.6793  225.0532 H   0  0  0  0  0  0  0  0  0  0  0  0
  141.5551   68.3179  225.3171 H   0  0  0  0  0  0  0  0  0  0  0  0
  141.6027   66.9521  227.5297 H   0  0  0  0  0  0  0  0  0  0  0  0
  142.4030   68.4864  227.6277 H   0  0  0  0  0  0  0  0  0  0  0  0
  139.6640   67.6489  228.6386 H   0  0  0  0  0  0  0  0  0  0  0  0
  140.7413   68.8794  229.3238 H   0  0  0  0  0  0  0  0  0  0  0  0
  138.5024   69.2457  227.4862 H   0  0  0  0  0  0  0  0  0  0  0  0
  139.5153   70.5087  228.2025 H   0  0  0  0  0  0  0  0  0  0  0  0
  139.8385   70.2270  223.5680 H   0  0  0  0  0  0  0  0  0  0  0  0
  138.6164   71.2627  224.5246 H   0  0  0  0  0  0  0  0  0  0  0  0
  139.8050   73.2500  223.8400 H   0  0  0  0  0  0  0  0  0  0  0  0
  142.1298   72.4307  219.9738 H   0  0  0  0  0  0  0  0  0  0  0  0
  142.6912   74.5459  218.7960 H   0  0  0  0  0  0  0  0  0  0  0  0
  142.5653   77.0255  218.6886 H   0  0  0  0  0  0  0  0  0  0  0  0
  140.4604   79.1244  221.8214 H   0  0  0  0  0  0  0  0  0  0  0  0
  139.9378   76.9462  222.9410 H   0  0  0  0  0  0  0  0  0  0  0  0
  1  2  1  0
  2  3  1  0
  3  4  1  0
  4  5  1  0
  5  6  1  0
  6  7  1  0
  7  8  1  0
  8  9  1  0
  9 10  2  0
  9 11  1  0
 11 12  1  0
 12 13  1  0
 13 14  2  0
 13 15  1  0
 15 16  2  0
 16 17  1  0
 17 18  2  0
 18 19  1  0
 19 20  2  0
 20 21  1  0
 20 22  1  0
 22 23  2  0
 23 24  1  0
 24 25  2  0
  8  4  1  0
 25 15  1  0
 24 18  1  0
  1 26  1  0
  1 27  1  0
  1 28  1  0
  3 29  1  0
  3 30  1  0
  4 31  1  6
  5 32  1  0
  5 33  1  0
  6 34  1  0
  6 35  1  0
  7 36  1  0
  7 37  1  0
 11 38  1  0
 11 39  1  0
 12 40  1  0
 16 41  1  0
 17 42  1  0
 19 43  1  0
 22 44  1  0
 23 45  1  0
M  END
>  <smiles>  (14) 
COC[C@@H]1CCCN1C(=O)CNC(=O)c1ccc2cc(Cl)ccc2n1

>  <score_type>  (14) 
oracle

>  <origin>  (14) 
autodockgpu

>  <m_score__min__energy>  (14) 
-7.2400000000000002

>  <m_primary>  (14) 
energy

>  <rmsd>  (14) 
8.978511003446238

>  <m_score__min__rmsd>  (14) 
8.978511003446238

>  <meeko>  (14) 
{"free_energy": -6.85, "intermolecular_energy": -8.64, "internal_energy": -1.5, "cluster_size": 10, "cluster_id": 1, "rank_in_cluster": 7}

>  <energy>  (14) 
-6.82

>  <cluster_rmsd>  (14) 
1.88

>  <cluster>  (14) 
2

$$$$

     RDKit          3D

 45 47  0  0  0  0  0  0  0  0999 V2000
  140.1810   67.0570  226.1560 C   0  0  0  0  0  0  0  0  0  0  0  0
  139.9090   67.6750  227.3760 O   0  0  0  0  0  0  0  0  0  0  0  0
  140.3970   68.9880  227.3620 C   0  0  0  0  0  0  0  0  0  0  0  0
  140.6690   69.3300  225.9320 C   0  0  2  0  0  0  0  0  0  0  0  0
  141.9230   70.1470  225.7190 C   0  0  0  0  0  0  0  0  0  0  0  0
  141.4670   71.4870  226.2550 C   0  0  0  0  0  0  0  0  0  0  0  0
  139.9510   71.5050  226.1250 C   0  0  0  0  0  0  0  0  0  0  0  0
  139.5900   70.2440  225.4940 N   0  0  0  0  0  0  0  0  0  0  0  0
  138.5300   69.8640  224.6750 C   0  0  0  0  0  0  0  0  0  0  0  0
  137.9660   68.7290  224.9770 O   0  0  0  0  0  0  0  0  0  0  0  0
  137.9460   70.5350  223.5240 C   0  0  0  0  0  0  0  0  0  0  0  0
  138.5090   71.7830  223.1070 N   0  0  0  0  0  0  0  0  0  0  0  0
  139.7420   71.8500  222.3810 C   0  0  0  0  0  0  0  0  0  0  0  0
  140.4040   70.8120  222.0790 O   0  0  0  0  0  0  0  0  0  0  0  0
  140.2670   73.1690  221.9660 C   0  0  0  0  0  0  0  0  0  0  0  0
  141.4120   73.2410  221.2030 C   0  0  0  0  0  0  0  0  0  0  0  0
  141.8920   74.4830  220.8230 C   0  0  0  0  0  0  0  0  0  0  0  0
  141.2360   75.6440  221.2010 C   0  0  0  0  0  0  0  0  0  0  0  0
  141.6760   76.9000  220.8450 C   0  0  0  0  0  0  0  0  0  0  0  0
  140.9480   78.0110  221.2730 C   0  0  0  0  0  0  0  0  0  0  0  0
  141.4650   79.6330  220.8490 Cl  0  0  0  0  0  0  0  0  0  0  0  0
  139.8100   77.8850  222.0350 C   0  0  0  0  0  0  0  0  0  0  0  0
  139.3620   76.6220  222.3950 C   0  0  0  0  0  0  0  0  0  0  0  0
  140.0800   75.5270  221.9740 C   0  0  0  0  0  0  0  0  0  0  0  0
  139.6370   74.3060  222.3280 N   0  0  0  0  0  0  0  0  0  0  0  0
  140.6181   66.0640  226.3374 H   0  0  0  0  0  0  0  0  0  0  0  0
  139.2477   66.9479  225.5841 H   0  0  0  0  0  0  0  0  0  0  0  0
  140.8918   67.6716  225.5841 H   0  0  0  0  0  0  0  0  0  0  0  0
  139.6472   69.6756  227.7802 H   0  0  0  0  0  0  0  0  0  0  0  0
  141.3089   69.0777  227.9707 H   0  0  0  0  0  0  0  0  0  0  0  0
  140.7528   68.3727  225.3967 H   0  0  0  0  0  0  0  0  0  0  0  0
  142.7719   69.7467  226.2927 H   0  0  0  0  0  0  0  0  0  0  0  0
  142.2893   70.1664  224.6820 H   0  0  0  0  0  0  0  0  0  0  0  0
  141.7602   71.5952  227.3097 H   0  0  0  0  0  0  0  0  0  0  0  0
  141.9260   72.3175  225.6987 H   0  0  0  0  0  0  0  0  0  0  0  0
  139.4828   71.5843  227.1172 H   0  0  0  0  0  0  0  0  0  0  0  0
  139.6065   72.3660  225.5334 H   0  0  0  0  0  0  0  0  0  0  0  0
  138.0204   69.8435  222.6718 H   0  0  0  0  0  0  0  0  0  0  0  0
  136.9271   70.7925  223.8487 H   0  0  0  0  0  0  0  0  0  0  0  0
  138.0560   72.7250  223.3040 H   0  0  0  0  0  0  0  0  0  0  0  0
  141.9380   72.3238  220.8997 H   0  0  0  0  0  0  0  0  0  0  0  0
  142.8053   74.5491  220.2135 H   0  0  0  0  0  0  0  0  0  0  0  0
  142.5832   77.0247  220.2355 H   0  0  0  0  0  0  0  0  0  0  0  0
  139.2581   78.7803  222.3572 H   0  0  0  0  0  0  0  0  0  0  0  0
  138.4536   76.4993  223.0031 H   0  0  0  0  0  0  0  0  0  0  0  0
  1  2  1  0
  2  3  1  0
  3  4  1  0
  4  5  1  0
  5  6  1  0
  6  7  1  0
  7  8  1  0
  8  9  1  0
  9 10  2  0
  9 11  1  0
 11 12  1  0
 12 13  1  0
 13 14  2  0
 13 15  1  0
 15 16  2  0
 16 17  1  0
 17 18  2  0
 18 19  1  0
 19 20  2  0
 20 21  1  0
 20 22  1  0
 22 23  2  0
 23 24  1  0
 24 25  2  0
  8  4  1  0
 25 15  1  0
 24 18  1  0
  1 26  1  0
  1 27  1  0
  1 28  1  0
  3 29  1  0
  3 30  1  0
  4 31  1  6
  5 32  1  0
  5 33  1  0
  6 34  1  0
  6 35  1  0
  7 36  1  0
  7 37  1  0
 11 38  1  0
 11 39  1  0
 12 40  1  0
 16 41  1  0
 17 42  1  0
 19 43  1  0
 22 44  1  0
 23 45  1  0
M  END
>  <smiles>  (15) 
COC[C@@H]1CCCN1C(=O)CNC(=O)c1ccc2cc(Cl)ccc2n1

>  <score_type>  (15) 
oracle

>  <origin>  (15) 
autodockgpu

>  <m_score__min__energy>  (15) 
-7.2400000000000002

>  <m_primary>  (15) 
energy

>  <rmsd>  (15) 
7.884595752447391

>  <m_score__min__rmsd>  (15) 
7.884595752447391

>  <meeko>  (15) 
{"free_energy": -6.37, "intermolecular_energy": -8.16, "internal_energy": -1.79, "cluster_size": 10, "cluster_id": 1, "rank_in_cluster": 10}

>  <energy>  (15) 
-6.77

>  <cluster_rmsd>  (15) 
1.78

>  <cluster>  (15) 
2

$$$$

     RDKit          3D

 45 47  0  0  0  0  0  0  0  0999 V2000
  141.3040   73.5520  221.2360 C   0  0  0  0  0  0  0  0  0  0  0  0
  140.5870   74.3970  222.0810 O   0  0  0  0  0  0  0  0  0  0  0  0
  141.0640   75.7090  221.9570 C   0  0  0  0  0  0  0  0  0  0  0  0
  140.1280   76.4200  221.0320 C   0  0  2  0  0  0  0  0  0  0  0  0
  140.3660   77.9090  220.9370 C   0  0  0  0  0  0  0  0  0  0  0  0
  139.8360   78.3550  222.2820 C   0  0  0  0  0  0  0  0  0  0  0  0
  138.8350   77.2950  222.7180 C   0  0  0  0  0  0  0  0  0  0  0  0
  138.7780   76.3300  221.6310 N   0  0  0  0  0  0  0  0  0  0  0  0
  137.7760   75.4770  221.1740 C   0  0  0  0  0  0  0  0  0  0  0  0
  136.6350   76.0450  220.9030 O   0  0  0  0  0  0  0  0  0  0  0  0
  137.7970   74.0400  220.9510 C   0  0  0  0  0  0  0  0  0  0  0  0
  138.1990   73.1900  222.0300 N   0  0  0  0  0  0  0  0  0  0  0  0
  137.8590   71.7990  222.0640 C   0  0  0  0  0  0  0  0  0  0  0  0
  137.1760   71.2510  221.1470 O   0  0  0  0  0  0  0  0  0  0  0  0
  138.3130   70.9690  223.2000 C   0  0  0  0  0  0  0  0  0  0  0  0
  137.8770   69.6670  223.3150 C   0  0  0  0  0  0  0  0  0  0  0  0
  138.3120   68.9020  224.3840 C   0  0  0  0  0  0  0  0  0  0  0  0
  139.1730   69.4320  225.3310 C   0  0  0  0  0  0  0  0  0  0  0  0
  139.6310   68.7080  226.4110 C   0  0  0  0  0  0  0  0  0  0  0  0
  140.4980   69.3270  227.3130 C   0  0  0  0  0  0  0  0  0  0  0  0
  141.1100   68.4510  228.7050 Cl  0  0  0  0  0  0  0  0  0  0  0  0
  140.9030   70.6320  227.1540 C   0  0  0  0  0  0  0  0  0  0  0  0
  140.4450   71.3640  226.0690 C   0  0  0  0  0  0  0  0  0  0  0  0
  139.5910   70.7540  225.1790 C   0  0  0  0  0  0  0  0  0  0  0  0
  139.1520   71.4740  224.1280 N   0  0  0  0  0  0  0  0  0  0  0  0
  141.8995   72.8502  221.8384 H   0  0  0  0  0  0  0  0  0  0  0  0
  140.6044   72.9883  220.6013 H   0  0  0  0  0  0  0  0  0  0  0  0
  141.9741   74.1505  220.6013 H   0  0  0  0  0  0  0  0  0  0  0  0
  141.0744   76.2032  222.9397 H   0  0  0  0  0  0  0  0  0  0  0  0
  142.0923   75.7213  221.5664 H   0  0  0  0  0  0  0  0  0  0  0  0
  140.2609   75.9572  220.0430 H   0  0  0  0  0  0  0  0  0  0  0  0
  141.4346   78.1437  220.8227 H   0  0  0  0  0  0  0  0  0  0  0  0
  139.8929   78.3961  220.0716 H   0  0  0  0  0  0  0  0  0  0  0  0
  140.6571   78.4264  223.0105 H   0  0  0  0  0  0  0  0  0  0  0  0
  139.3658   79.3474  222.2179 H   0  0  0  0  0  0  0  0  0  0  0  0
  139.1726   76.8080  223.6448 H   0  0  0  0  0  0  0  0  0  0  0  0
  137.8466   77.7324  222.9223 H   0  0  0  0  0  0  0  0  0  0  0  0
  136.7784   73.7406  220.6631 H   0  0  0  0  0  0  0  0  0  0  0  0
  138.5763   73.8959  220.1882 H   0  0  0  0  0  0  0  0  0  0  0  0
  138.7690   73.5300  222.8630 H   0  0  0  0  0  0  0  0  0  0  0  0
  137.1921   69.2408  222.5672 H   0  0  0  0  0  0  0  0  0  0  0  0
  137.9699   67.8612  224.4824 H   0  0  0  0  0  0  0  0  0  0  0  0
  139.3195   67.6635  226.5590 H   0  0  0  0  0  0  0  0  0  0  0  0
  141.5861   71.0921  227.8832 H   0  0  0  0  0  0  0  0  0  0  0  0
  140.7573   72.4086  225.9231 H   0  0  0  0  0  0  0  0  0  0  0  0
  1  2  1  0
  2  3  1  0
  3  4  1  0
  4  5  1  0
  5  6  1  0
  6  7  1  0
  7  8  1  0
  8  9  1  0
  9 10  2  0
  9 11  1  0
 11 12  1  0
 12 13  1  0
 13 14  2  0
 13 15  1  0
 15 16  2  0
 16 17  1  0
 17 18  2  0
 18 19  1  0
 19 20  2  0
 20 21  1  0
 20 22  1  0
 22 23  2  0
 23 24  1  0
 24 25  2  0
  8  4  1  0
 25 15  1  0
 24 18  1  0
  1 26  1  0
  1 27  1  0
  1 28  1  0
  3 29  1  0
  3 30  1  0
  4 31  1  6
  5 32  1  0
  5 33  1  0
  6 34  1  0
  6 35  1  0
  7 36  1  0
  7 37  1  0
 11 38  1  0
 11 39  1  0
 12 40  1  0
 16 41  1  0
 17 42  1  0
 19 43  1  0
 22 44  1  0
 23 45  1  0
M  END
>  <smiles>  (16) 
COC[C@@H]1CCCN1C(=O)CNC(=O)c1ccc2cc(Cl)ccc2n1

>  <score_type>  (16) 
oracle

>  <origin>  (16) 
autodockgpu

>  <m_score__min__energy>  (16) 
-7.2400000000000002

>  <m_primary>  (16) 
energy

>  <rmsd>  (16) 
2.579236541851859

>  <m_score__min__rmsd>  (16) 
2.579236541851859

>  <meeko>  (16) 
{"free_energy": -6.15, "intermolecular_energy": -7.94, "internal_energy": -2.27, "cluster_size": 26, "cluster_id": 2, "rank_in_cluster": 15}

>  <energy>  (16) 
-6.65

>  <cluster_rmsd>  (16) 
1.54

>  <cluster>  (16) 
2

$$$$

     RDKit          3D

 45 47  0  0  0  0  0  0  0  0999 V2000
  140.6420   76.8440  222.1010 C   0  0  0  0  0  0  0  0  0  0  0  0
  141.2390   78.0450  221.7230 O   0  0  0  0  0  0  0  0  0  0  0  0
  141.8420   78.6460  222.8360 C   0  0  0  0  0  0  0  0  0  0  0  0
  142.5830   79.8420  222.3300 C   0  0  2  0  0  0  0  0  0  0  0  0
  143.4520   80.5150  223.3660 C   0  0  0  0  0  0  0  0  0  0  0  0
  142.3920   81.1740  224.2230 C   0  0  0  0  0  0  0  0  0  0  0  0
  141.1770   81.3630  223.3260 C   0  0  0  0  0  0  0  0  0  0  0  0
  141.5710   80.8740  222.0140 N   0  0  0  0  0  0  0  0  0  0  0  0
  141.1700   81.2050  220.7210 C   0  0  0  0  0  0  0  0  0  0  0  0
  140.1820   82.0510  220.6390 O   0  0  0  0  0  0  0  0  0  0  0  0
  141.6800   80.7510  219.4360 C   0  0  0  0  0  0  0  0  0  0  0  0
  142.2020   79.4220  219.3430 N   0  0  0  0  0  0  0  0  0  0  0  0
  142.3460   78.7550  218.0840 C   0  0  0  0  0  0  0  0  0  0  0  0
  142.0100   79.3000  216.9890 O   0  0  0  0  0  0  0  0  0  0  0  0
  142.9040   77.3850  218.0500 C   0  0  0  0  0  0  0  0  0  0  0  0
  143.1310   76.7680  216.8390 C   0  0  0  0  0  0  0  0  0  0  0  0
  143.6530   75.4860  216.8230 C   0  0  0  0  0  0  0  0  0  0  0  0
  143.9460   74.8250  218.0050 C   0  0  0  0  0  0  0  0  0  0  0  0
  144.4670   73.5490  218.0370 C   0  0  0  0  0  0  0  0  0  0  0  0
  144.7310   72.9650  219.2770 C   0  0  0  0  0  0  0  0  0  0  0  0
  145.3930   71.3430  219.3740 Cl  0  0  0  0  0  0  0  0  0  0  0  0
  144.4860   73.6240  220.4590 C   0  0  0  0  0  0  0  0  0  0  0  0
  143.9610   74.9080  220.4310 C   0  0  0  0  0  0  0  0  0  0  0  0
  143.7020   75.4840  219.2100 C   0  0  0  0  0  0  0  0  0  0  0  0
  143.1930   76.7320  219.1940 N   0  0  0  0  0  0  0  0  0  0  0  0
  140.6101   76.7799  223.1987 H   0  0  0  0  0  0  0  0  0  0  0  0
  139.6180   76.8018  221.7014 H   0  0  0  0  0  0  0  0  0  0  0  0
  141.2266   76.0022  221.7014 H   0  0  0  0  0  0  0  0  0  0  0  0
  141.0754   78.9543  223.5621 H   0  0  0  0  0  0  0  0  0  0  0  0
  142.5212   77.9457  223.3442 H   0  0  0  0  0  0  0  0  0  0  0  0
  143.2055   79.4885  221.4948 H   0  0  0  0  0  0  0  0  0  0  0  0
  144.0420   79.7844  223.9388 H   0  0  0  0  0  0  0  0  0  0  0  0
  144.2062   81.2033  222.9569 H   0  0  0  0  0  0  0  0  0  0  0  0
  142.1382   80.5300  225.0779 H   0  0  0  0  0  0  0  0  0  0  0  0
  142.7442   82.1342  224.6281 H   0  0  0  0  0  0  0  0  0  0  0  0
  140.3241   80.7841  223.7099 H   0  0  0  0  0  0  0  0  0  0  0  0
  140.8633   82.4166  223.2872 H   0  0  0  0  0  0  0  0  0  0  0  0
  140.8546   80.8277  218.7129 H   0  0  0  0  0  0  0  0  0  0  0  0
  142.5496   81.3974  219.2462 H   0  0  0  0  0  0  0  0  0  0  0  0
  142.5130   78.8540  220.1870 H   0  0  0  0  0  0  0  0  0  0  0  0
  142.9004   77.2874  215.8972 H   0  0  0  0  0  0  0  0  0  0  0  0
  143.8374   74.9862  215.8606 H   0  0  0  0  0  0  0  0  0  0  0  0
  144.6705   73.0023  217.1044 H   0  0  0  0  0  0  0  0  0  0  0  0
  144.7048   73.1363  221.4204 H   0  0  0  0  0  0  0  0  0  0  0  0
  143.7567   75.4527  221.3646 H   0  0  0  0  0  0  0  0  0  0  0  0
  1  2  1  0
  2  3  1  0
  3  4  1  0
  4  5  1  0
  5  6  1  0
  6  7  1  0
  7  8  1  0
  8  9  1  0
  9 10  2  0
  9 11  1  0
 11 12  1  0
 12 13  1  0
 13 14  2  0
 13 15  1  0
 15 16  2  0
 16 17  1  0
 17 18  2  0
 18 19  1  0
 19 20  2  0
 20 21  1  0
 20 22  1  0
 22 23  2  0
 23 24  1  0
 24 25  2  0
  8  4  1  0
 25 15  1  0
 24 18  1  0
  1 26  1  0
  1 27  1  0
  1 28  1  0
  3 29  1  0
  3 30  1  0
  4 31  1  6
  5 32  1  0
  5 33  1  0
  6 34  1  0
  6 35  1  0
  7 36  1  0
  7 37  1  0
 11 38  1  0
 11 39  1  0
 12 40  1  0
 16 41  1  0
 17 42  1  0
 19 43  1  0
 22 44  1  0
 23 45  1  0
M  END
>  <smiles>  (17) 
COC[C@@H]1CCCN1C(=O)CNC(=O)c1ccc2cc(Cl)ccc2n1

>  <score_type>  (17) 
oracle

>  <origin>  (17) 
autodockgpu

>  <m_score__min__energy>  (17) 
-7.2400000000000002

>  <m_primary>  (17) 
energy

>  <rmsd>  (17) 
8.678224599394012

>  <m_score__min__rmsd>  (17) 
8.678224599394012

>  <meeko>  (17) 
{"free_energy": -5.44, "intermolecular_energy": -7.23, "internal_energy": -2.45, "cluster_size": 2, "cluster_id": 7, "rank_in_cluster": 1}

>  <energy>  (17) 
-6.55

>  <cluster_rmsd>  (17) 
1.23

>  <cluster>  (17) 
2

$$$$

     RDKit          3D

 45 47  0  0  0  0  0  0  0  0999 V2000
  141.0220   72.5240  221.8460 C   0  0  0  0  0  0  0  0  0  0  0  0
  140.5300   73.8220  221.9740 O   0  0  0  0  0  0  0  0  0  0  0  0
  141.4260   74.7290  221.3910 C   0  0  0  0  0  0  0  0  0  0  0  0
  140.6000   75.7710  220.7090 C   0  0  2  0  0  0  0  0  0  0  0  0
  141.0970   77.1830  220.9080 C   0  0  0  0  0  0  0  0  0  0  0  0
  140.7060   77.4070  222.3530 C   0  0  0  0  0  0  0  0  0  0  0  0
  139.5480   76.4600  222.6330 C   0  0  0  0  0  0  0  0  0  0  0  0
  139.2780   75.7790  221.3760 N   0  0  0  0  0  0  0  0  0  0  0  0
  138.1230   75.2260  220.8270 C   0  0  0  0  0  0  0  0  0  0  0  0
  137.4190   76.0270  220.0780 O   0  0  0  0  0  0  0  0  0  0  0  0
  137.5700   73.8880  220.9600 C   0  0  0  0  0  0  0  0  0  0  0  0
  138.0250   73.0670  222.0410 N   0  0  0  0  0  0  0  0  0  0  0  0
  137.6870   71.6780  222.1290 C   0  0  0  0  0  0  0  0  0  0  0  0
  136.9600   71.1050  221.2620 O   0  0  0  0  0  0  0  0  0  0  0  0
  138.1980   70.8790  223.2630 C   0  0  0  0  0  0  0  0  0  0  0  0
  137.7940   69.5710  223.4160 C   0  0  0  0  0  0  0  0  0  0  0  0
  138.2810   68.8350  224.4830 C   0  0  0  0  0  0  0  0  0  0  0  0
  139.1620   69.4000  225.3910 C   0  0  0  0  0  0  0  0  0  0  0  0
  139.6720   68.7060  226.4670 C   0  0  0  0  0  0  0  0  0  0  0  0
  140.5550   69.3600  227.3280 C   0  0  0  0  0  0  0  0  0  0  0  0
  141.2320   68.5230  228.7130 Cl  0  0  0  0  0  0  0  0  0  0  0  0
  140.9270   70.6690  227.1320 C   0  0  0  0  0  0  0  0  0  0  0  0
  140.4160   71.3720  226.0500 C   0  0  0  0  0  0  0  0  0  0  0  0
  139.5460   70.7280  225.2010 C   0  0  0  0  0  0  0  0  0  0  0  0
  139.0560   71.4190  224.1530 N   0  0  0  0  0  0  0  0  0  0  0  0
  141.1852   72.0935  222.8450 H   0  0  0  0  0  0  0  0  0  0  0  0
  140.2947   71.9088  221.2960 H   0  0  0  0  0  0  0  0  0  0  0  0
  141.9744   72.5455  221.2960 H   0  0  0  0  0  0  0  0  0  0  0  0
  142.0552   75.1913  222.1658 H   0  0  0  0  0  0  0  0  0  0  0  0
  142.0925   74.2229  220.6771 H   0  0  0  0  0  0  0  0  0  0  0  0
  140.6113   75.5203  219.6380 H   0  0  0  0  0  0  0  0  0  0  0  0
  142.1853   77.2552  220.7651 H   0  0  0  0  0  0  0  0  0  0  0  0
  140.6869   77.9191  220.2009 H   0  0  0  0  0  0  0  0  0  0  0  0
  141.5532   77.1795  223.0166 H   0  0  0  0  0  0  0  0  0  0  0  0
  140.4192   78.4537  222.5323 H   0  0  0  0  0  0  0  0  0  0  0  0
  139.8273   75.7330  223.4099 H   0  0  0  0  0  0  0  0  0  0  0  0
  138.6625   77.0011  222.9979 H   0  0  0  0  0  0  0  0  0  0  0  0
  136.4808   73.9958  221.0698 H   0  0  0  0  0  0  0  0  0  0  0  0
  137.9152   73.3621  220.0576 H   0  0  0  0  0  0  0  0  0  0  0  0
  138.6340   73.4290  222.8340 H   0  0  0  0  0  0  0  0  0  0  0  0
  137.0935   69.1170  222.6997 H   0  0  0  0  0  0  0  0  0  0  0  0
  137.9647   67.7893  224.6113 H   0  0  0  0  0  0  0  0  0  0  0  0
  139.3889   67.6578  226.6438 H   0  0  0  0  0  0  0  0  0  0  0  0
  141.6253   71.1561  227.8285 H   0  0  0  0  0  0  0  0  0  0  0  0
  140.7001   72.4202  225.8753 H   0  0  0  0  0  0  0  0  0  0  0  0
  1  2  1  0
  2  3  1  0
  3  4  1  0
  4  5  1  0
  5  6  1  0
  6  7  1  0
  7  8  1  0
  8  9  1  0
  9 10  2  0
  9 11  1  0
 11 12  1  0
 12 13  1  0
 13 14  2  0
 13 15  1  0
 15 16  2  0
 16 17  1  0
 17 18  2  0
 18 19  1  0
 19 20  2  0
 20 21  1  0
 20 22  1  0
 22 23  2  0
 23 24  1  0
 24 25  2  0
  8  4  1  0
 25 15  1  0
 24 18  1  0
  1 26  1  0
  1 27  1  0
  1 28  1  0
  3 29  1  0
  3 30  1  0
  4 31  1  6
  5 32  1  0
  5 33  1  0
  6 34  1  0
  6 35  1  0
  7 36  1  0
  7 37  1  0
 11 38  1  0
 11 39  1  0
 12 40  1  0
 16 41  1  0
 17 42  1  0
 19 43  1  0
 22 44  1  0
 23 45  1  0
M  END
>  <smiles>  (18) 
COC[C@@H]1CCCN1C(=O)CNC(=O)c1ccc2cc(Cl)ccc2n1

>  <score_type>  (18) 
oracle

>  <origin>  (18) 
autodockgpu

>  <m_score__min__energy>  (18) 
-7.2400000000000002

>  <m_primary>  (18) 
energy

>  <rmsd>  (18) 
2.4761172505275373

>  <m_score__min__rmsd>  (18) 
2.4761172505275373

>  <meeko>  (18) 
{"free_energy": -6.1, "intermolecular_energy": -7.89, "internal_energy": -2.34, "cluster_size": 26, "cluster_id": 2, "rank_in_cluster": 18}

>  <energy>  (18) 
-6.32

>  <cluster_rmsd>  (18) 
1.83

>  <cluster>  (18) 
2

$$$$

     RDKit          3D

 45 47  0  0  0  0  0  0  0  0999 V2000
  141.4470   72.3370  227.3550 C   0  0  0  0  0  0  0  0  0  0  0  0
  141.1260   72.2280  226.0030 O   0  0  0  0  0  0  0  0  0  0  0  0
  140.9870   70.8770  225.6560 C   0  0  0  0  0  0  0  0  0  0  0  0
  139.7500   70.3840  226.3370 C   0  0  2  0  0  0  0  0  0  0  0  0
  140.0080   69.6410  227.6260 C   0  0  0  0  0  0  0  0  0  0  0  0
  140.5740   68.3460  227.0840 C   0  0  0  0  0  0  0  0  0  0  0  0
  140.0310   68.2030  225.6690 C   0  0  0  0  0  0  0  0  0  0  0  0
  139.1590   69.3490  225.4590 N   0  0  0  0  0  0  0  0  0  0  0  0
  138.0340   69.5480  224.6640 C   0  0  0  0  0  0  0  0  0  0  0  0
  136.8970   69.2060  225.2020 O   0  0  0  0  0  0  0  0  0  0  0  0
  137.9210   70.0800  223.3140 C   0  0  0  0  0  0  0  0  0  0  0  0
  138.4580   71.3790  223.0480 N   0  0  0  0  0  0  0  0  0  0  0  0
  139.5800   71.5690  222.1790 C   0  0  0  0  0  0  0  0  0  0  0  0
  140.1640   70.5980  221.6100 O   0  0  0  0  0  0  0  0  0  0  0  0
  140.0820   72.9380  221.9330 C   0  0  0  0  0  0  0  0  0  0  0  0
  141.2860   73.1210  221.2880 C   0  0  0  0  0  0  0  0  0  0  0  0
  141.7430   74.4080  221.0640 C   0  0  0  0  0  0  0  0  0  0  0  0
  141.0060   75.5050  221.4820 C   0  0  0  0  0  0  0  0  0  0  0  0
  141.4220   76.8040  221.2810 C   0  0  0  0  0  0  0  0  0  0  0  0
  140.6110   77.8440  221.7380 C   0  0  0  0  0  0  0  0  0  0  0  0
  141.0930   79.5160  221.5080 Cl  0  0  0  0  0  0  0  0  0  0  0  0
  139.4170   77.6090  222.3780 C   0  0  0  0  0  0  0  0  0  0  0  0
  138.9950   76.3030  222.5820 C   0  0  0  0  0  0  0  0  0  0  0  0
  139.7930   75.2780  222.1330 C   0  0  0  0  0  0  0  0  0  0  0  0
  139.3740   74.0140  222.3350 N   0  0  0  0  0  0  0  0  0  0  0  0
  140.5789   72.0422  227.9629 H   0  0  0  0  0  0  0  0  0  0  0  0
  142.2965   71.6769  227.5845 H   0  0  0  0  0  0  0  0  0  0  0  0
  141.7189   73.3778  227.5845 H   0  0  0  0  0  0  0  0  0  0  0  0
  140.8862   70.7740  224.5655 H   0  0  0  0  0  0  0  0  0  0  0  0
  141.8680   70.2959  225.9661 H   0  0  0  0  0  0  0  0  0  0  0  0
  139.1329   71.2722  226.5378 H   0  0  0  0  0  0  0  0  0  0  0  0
  140.7349   70.1684  228.2612 H   0  0  0  0  0  0  0  0  0  0  0  0
  139.1265   69.5226  228.2732 H   0  0  0  0  0  0  0  0  0  0  0  0
  141.6731   68.3876  227.0680 H   0  0  0  0  0  0  0  0  0  0  0  0
  140.2863   67.4897  227.7116 H   0  0  0  0  0  0  0  0  0  0  0  0
  140.8550   68.2105  224.9403 H   0  0  0  0  0  0  0  0  0  0  0  0
  139.4900   67.2543  225.5379 H   0  0  0  0  0  0  0  0  0  0  0  0
  138.4306   69.3735  222.6422 H   0  0  0  0  0  0  0  0  0  0  0  0
  136.8383   70.1978  223.1593 H   0  0  0  0  0  0  0  0  0  0  0  0
  138.0640   72.2730  223.4700 H   0  0  0  0  0  0  0  0  0  0  0  0
  141.8766   72.2547  220.9552 H   0  0  0  0  0  0  0  0  0  0  0  0
  142.7023   74.5621  220.5482 H   0  0  0  0  0  0  0  0  0  0  0  0
  142.3733   77.0164  220.7711 H   0  0  0  0  0  0  0  0  0  0  0  0
  138.8004   78.4508  222.7260 H   0  0  0  0  0  0  0  0  0  0  0  0
  138.0431   76.0927  223.0916 H   0  0  0  0  0  0  0  0  0  0  0  0
  1  2  1  0
  2  3  1  0
  3  4  1  0
  4  5  1  0
  5  6  1  0
  6  7  1  0
  7  8  1  0
  8  9  1  0
  9 10  2  0
  9 11  1  0
 11 12  1  0
 12 13  1  0
 13 14  2  0
 13 15  1  0
 15 16  2  0
 16 17  1  0
 17 18  2  0
 18 19  1  0
 19 20  2  0
 20 21  1  0
 20 22  1  0
 22 23  2  0
 23 24  1  0
 24 25  2  0
  8  4  1  0
 25 15  1  0
 24 18  1  0
  1 26  1  0
  1 27  1  0
  1 28  1  0
  3 29  1  0
  3 30  1  0
  4 31  1  1
  5 32  1  0
  5 33  1  0
  6 34  1  0
  6 35  1  0
  7 36  1  0
  7 37  1  0
 11 38  1  0
 11 39  1  0
 12 40  1  0
 16 41  1  0
 17 42  1  0
 19 43  1  0
 22 44  1  0
 23 45  1  0
M  END
>  <smiles>  (19) 
COC[C@@H]1CCCN1C(=O)CNC(=O)c1ccc2cc(Cl)ccc2n1

>  <score_type>  (19) 
oracle

>  <origin>  (19) 
autodockgpu

>  <m_score__min__energy>  (19) 
-7.2400000000000002

>  <m_primary>  (19) 
energy

>  <rmsd>  (19) 
8.199926865304786

>  <m_score__min__rmsd>  (19) 
8.199926865304786

>  <meeko>  (19) 
{"free_energy": -6.68, "intermolecular_energy": -8.47, "internal_energy": -1.55, "cluster_size": 10, "cluster_id": 1, "rank_in_cluster": 9}

>  <energy>  (19) 
-6.3

>  <cluster_rmsd>  (19) 
1.79

>  <cluster>  (19) 
2

$$$$

     RDKit          3D

 45 47  0  0  0  0  0  0  0  0999 V2000
  142.5790   69.9210  219.3230 C   0  0  0  0  0  0  0  0  0  0  0  0
  142.9770   71.0430  220.0470 O   0  0  0  0  0  0  0  0  0  0  0  0
  144.3450   71.2730  219.8520 C   0  0  0  0  0  0  0  0  0  0  0  0
  144.4600   72.5150  219.0280 C   0  0  2  0  0  0  0  0  0  0  0  0
  145.8540   73.0930  218.9700 C   0  0  0  0  0  0  0  0  0  0  0  0
  145.9700   73.6630  220.3680 C   0  0  0  0  0  0  0  0  0  0  0  0
  144.5470   73.9280  220.8380 C   0  0  0  0  0  0  0  0  0  0  0  0
  143.6850   73.5670  219.7240 N   0  0  0  0  0  0  0  0  0  0  0  0
  142.4320   74.0150  219.3120 C   0  0  0  0  0  0  0  0  0  0  0  0
  142.4360   74.8610  218.3200 O   0  0  0  0  0  0  0  0  0  0  0  0
  141.1070   73.6910  219.8170 C   0  0  0  0  0  0  0  0  0  0  0  0
  140.9980   72.7310  220.8730 N   0  0  0  0  0  0  0  0  0  0  0  0
  140.3030   73.0230  222.0910 C   0  0  0  0  0  0  0  0  0  0  0  0
  139.7580   74.1490  222.3020 O   0  0  0  0  0  0  0  0  0  0  0  0
  140.2140   71.9860  223.1410 C   0  0  0  0  0  0  0  0  0  0  0  0
  139.6520   70.7620  222.8490 C   0  0  0  0  0  0  0  0  0  0  0  0
  139.5750   69.8010  223.8430 C   0  0  0  0  0  0  0  0  0  0  0  0
  140.0550   70.0580  225.1170 C   0  0  0  0  0  0  0  0  0  0  0  0
  140.0000   69.1320  226.1360 C   0  0  0  0  0  0  0  0  0  0  0  0
  140.5100   69.4830  227.3880 C   0  0  0  0  0  0  0  0  0  0  0  0
  140.4640   68.3420  228.7190 Cl  0  0  0  0  0  0  0  0  0  0  0  0
  141.0610   70.7190  227.6280 C   0  0  0  0  0  0  0  0  0  0  0  0
  141.1180   71.6550  226.6050 C   0  0  0  0  0  0  0  0  0  0  0  0
  140.6170   71.3100  225.3720 C   0  0  0  0  0  0  0  0  0  0  0  0
  140.6780   72.2250  224.3850 N   0  0  0  0  0  0  0  0  0  0  0  0
  142.2941   69.1179  220.0186 H   0  0  0  0  0  0  0  0  0  0  0  0
  141.7179   70.1799  218.6894 H   0  0  0  0  0  0  0  0  0  0  0  0
  143.4108   69.5794  218.6894 H   0  0  0  0  0  0  0  0  0  0  0  0
  144.8475   71.4130  220.8205 H   0  0  0  0  0  0  0  0  0  0  0  0
  144.8213   70.4191  219.3482 H   0  0  0  0  0  0  0  0  0  0  0  0
  144.1275   72.2444  218.0150 H   0  0  0  0  0  0  0  0  0  0  0  0
  146.6094   72.3154  218.7837 H   0  0  0  0  0  0  0  0  0  0  0  0
  146.0170   73.8208  218.1615 H   0  0  0  0  0  0  0  0  0  0  0  0
  146.4634   72.9404  221.0347 H   0  0  0  0  0  0  0  0  0  0  0  0
  146.5729   74.5830  220.3770 H   0  0  0  0  0  0  0  0  0  0  0  0
  144.3136   73.3106  221.7180 H   0  0  0  0  0  0  0  0  0  0  0  0
  144.4081   74.9789  221.1318 H   0  0  0  0  0  0  0  0  0  0  0  0
  140.6596   74.6276  220.1812 H   0  0  0  0  0  0  0  0  0  0  0  0
  140.6013   73.2143  218.9644 H   0  0  0  0  0  0  0  0  0  0  0  0
  141.4180   71.7540  220.8230 H   0  0  0  0  0  0  0  0  0  0  0  0
  139.2695   70.5512  221.8394 H   0  0  0  0  0  0  0  0  0  0  0  0
  139.1273   68.8217  223.6184 H   0  0  0  0  0  0  0  0  0  0  0  0
  139.5633   68.1367  225.9668 H   0  0  0  0  0  0  0  0  0  0  0  0
  141.4546   70.9649  228.6253 H   0  0  0  0  0  0  0  0  0  0  0  0
  141.5540   72.6502  226.7767 H   0  0  0  0  0  0  0  0  0  0  0  0
  1  2  1  0
  2  3  1  0
  3  4  1  0
  4  5  1  0
  5  6  1  0
  6  7  1  0
  7  8  1  0
  8  9  1  0
  9 10  2  0
  9 11  1  0
 11 12  1  0
 12 13  1  0
 13 14  2  0
 13 15  1  0
 15 16  2  0
 16 17  1  0
 17 18  2  0
 18 19  1  0
 19 20  2  0
 20 21  1  0
 20 22  1  0
 22 23  2  0
 23 24  1  0
 24 25  2  0
  8  4  1  0
 25 15  1  0
 24 18  1  0
  1 26  1  0
  1 27  1  0
  1 28  1  0
  3 29  1  0
  3 30  1  0
  4 31  1  6
  5 32  1  0
  5 33  1  0
  6 34  1  0
  6 35  1  0
  7 36  1  0
  7 37  1  0
 11 38  1  0
 11 39  1  0
 12 40  1  0
 16 41  1  0
 17 42  1  0
 19 43  1  0
 22 44  1  0
 23 45  1  0
M  END
>  <smiles>  (20) 
COC[C@@H]1CCCN1C(=O)CNC(=O)c1ccc2cc(Cl)ccc2n1

>  <score_type>  (20) 
oracle

>  <origin>  (20) 
autodockgpu

>  <m_score__min__energy>  (20) 
-7.2400000000000002

>  <m_primary>  (20) 
energy

>  <rmsd>  (20) 
4.178801142679988

>  <m_score__min__rmsd>  (20) 
4.178801142679988

>  <meeko>  (20) 
{"free_energy": -6.05, "intermolecular_energy": -7.84, "internal_energy": -2.01, "cluster_size": 2, "cluster_id": 3, "rank_in_cluster": 2}

>  <energy>  (20) 
-6.27

>  <cluster_rmsd>  (20) 
1.84

>  <cluster>  (20) 
2

$$$$

     RDKit          3D

 45 47  0  0  0  0  0  0  0  0999 V2000
  140.6290   71.4900  223.7210 C   0  0  0  0  0  0  0  0  0  0  0  0
  139.8590   71.7420  224.8550 O   0  0  0  0  0  0  0  0  0  0  0  0
  140.4880   71.2000  225.9850 C   0  0  0  0  0  0  0  0  0  0  0  0
  139.5760   70.1420  226.5180 C   0  0  2  0  0  0  0  0  0  0  0  0
  139.7980   69.8110  227.9750 C   0  0  0  0  0  0  0  0  0  0  0  0
  141.1020   69.0480  227.8840 C   0  0  0  0  0  0  0  0  0  0  0  0
  141.1690   68.4860  226.4710 C   0  0  0  0  0  0  0  0  0  0  0  0
  139.9270   68.8810  225.8260 N   0  0  0  0  0  0  0  0  0  0  0  0
  139.1660   68.3120  224.8070 C   0  0  0  0  0  0  0  0  0  0  0  0
  139.2580   67.0170  224.6940 O   0  0  0  0  0  0  0  0  0  0  0  0
  138.2800   68.9360  223.8370 C   0  0  0  0  0  0  0  0  0  0  0  0
  137.4740   70.0390  224.2630 N   0  0  0  0  0  0  0  0  0  0  0  0
  136.0790   69.8890  224.5490 C   0  0  0  0  0  0  0  0  0  0  0  0
  135.4830   68.7760  224.4290 O   0  0  0  0  0  0  0  0  0  0  0  0
  135.3010   71.0640  224.9970 C   0  0  0  0  0  0  0  0  0  0  0  0
  134.1900   70.8860  225.7940 C   0  0  0  0  0  0  0  0  0  0  0  0
  133.4720   71.9960  226.2060 C   0  0  0  0  0  0  0  0  0  0  0  0
  133.8570   73.2720  225.8260 C   0  0  0  0  0  0  0  0  0  0  0  0
  133.1730   74.4040  226.2130 C   0  0  0  0  0  0  0  0  0  0  0  0
  133.6380   75.6470  225.7800 C   0  0  0  0  0  0  0  0  0  0  0  0
  132.8030   77.1200  226.2430 Cl  0  0  0  0  0  0  0  0  0  0  0  0
  134.7530   75.7710  224.9850 C   0  0  0  0  0  0  0  0  0  0  0  0
  135.4450   74.6340  224.5940 C   0  0  0  0  0  0  0  0  0  0  0  0
  134.9870   73.4080  225.0190 C   0  0  0  0  0  0  0  0  0  0  0  0
  135.6670   72.3110  224.6340 N   0  0  0  0  0  0  0  0  0  0  0  0
  141.6336   71.1612  224.0255 H   0  0  0  0  0  0  0  0  0  0  0  0
  140.1512   70.7013  223.1212 H   0  0  0  0  0  0  0  0  0  0  0  0
  140.7099   72.4085  223.1212 H   0  0  0  0  0  0  0  0  0  0  0  0
  141.4566   70.7599  225.7053 H   0  0  0  0  0  0  0  0  0  0  0  0
  140.6794   71.9753  226.7414 H   0  0  0  0  0  0  0  0  0  0  0  0
  138.5518   70.5162  226.3731 H   0  0  0  0  0  0  0  0  0  0  0  0
  139.8998   70.7189  228.5876 H   0  0  0  0  0  0  0  0  0  0  0  0
  138.9745   69.2596  228.4523 H   0  0  0  0  0  0  0  0  0  0  0  0
  141.9517   69.7223  228.0666 H   0  0  0  0  0  0  0  0  0  0  0  0
  141.1503   68.2468  228.6362 H   0  0  0  0  0  0  0  0  0  0  0  0
  142.0307   68.9069  225.9322 H   0  0  0  0  0  0  0  0  0  0  0  0
  141.2916   67.3929  226.4764 H   0  0  0  0  0  0  0  0  0  0  0  0
  138.9067   69.2927  223.0063 H   0  0  0  0  0  0  0  0  0  0  0  0
  137.5525   68.1489  223.5895 H   0  0  0  0  0  0  0  0  0  0  0  0
  137.8530   71.0250  224.3940 H   0  0  0  0  0  0  0  0  0  0  0  0
  133.8783   69.8760  226.0984 H   0  0  0  0  0  0  0  0  0  0  0  0
  132.5850   71.8634  226.8428 H   0  0  0  0  0  0  0  0  0  0  0  0
  132.2792   74.3297  226.8499 H   0  0  0  0  0  0  0  0  0  0  0  0
  135.0941   76.7654  224.6611 H   0  0  0  0  0  0  0  0  0  0  0  0
  136.3396   74.7108  223.9586 H   0  0  0  0  0  0  0  0  0  0  0  0
  1  2  1  0
  2  3  1  0
  3  4  1  0
  4  5  1  0
  5  6  1  0
  6  7  1  0
  7  8  1  0
  8  9  1  0
  9 10  2  0
  9 11  1  0
 11 12  1  0
 12 13  1  0
 13 14  2  0
 13 15  1  0
 15 16  2  0
 16 17  1  0
 17 18  2  0
 18 19  1  0
 19 20  2  0
 20 21  1  0
 20 22  1  0
 22 23  2  0
 23 24  1  0
 24 25  2  0
  8  4  1  0
 25 15  1  0
 24 18  1  0
  1 26  1  0
  1 27  1  0
  1 28  1  0
  3 29  1  0
  3 30  1  0
  4 31  1  1
  5 32  1  0
  5 33  1  0
  6 34  1  0
  6 35  1  0
  7 36  1  0
  7 37  1  0
 11 38  1  0
 11 39  1  0
 12 40  1  0
 16 41  1  0
 17 42  1  0
 19 43  1  0
 22 44  1  0
 23 45  1  0
M  END
>  <smiles>  (21) 
COC[C@@H]1CCCN1C(=O)CNC(=O)c1ccc2cc(Cl)ccc2n1

>  <score_type>  (21) 
oracle

>  <origin>  (21) 
autodockgpu

>  <m_score__min__energy>  (21) 
-7.2400000000000002

>  <m_primary>  (21) 
energy

>  <rmsd>  (21) 
8.422700217150506

>  <m_score__min__rmsd>  (21) 
8.422700217150506

>  <meeko>  (21) 
{"free_energy": -6.06, "intermolecular_energy": -7.85, "internal_energy": -2.25, "cluster_size": 7, "cluster_id": 4, "rank_in_cluster": 7}

>  <energy>  (21) 
-6.25

>  <cluster_rmsd>  (21) 
1.78

>  <cluster>  (21) 
2

$$$$

     RDKit          3D

 45 47  0  0  0  0  0  0  0  0999 V2000
  140.5570   71.8580  228.3450 C   0  0  0  0  0  0  0  0  0  0  0  0
  140.9030   70.5190  228.1700 O   0  0  0  0  0  0  0  0  0  0  0  0
  139.8500   69.8340  227.5500 C   0  0  0  0  0  0  0  0  0  0  0  0
  140.4090   69.2190  226.3070 C   0  0  2  0  0  0  0  0  0  0  0  0
  141.7380   69.7940  225.8770 C   0  0  0  0  0  0  0  0  0  0  0  0
  141.2940   71.1440  225.3560 C   0  0  0  0  0  0  0  0  0  0  0  0
  139.8340   70.9860  224.9550 C   0  0  0  0  0  0  0  0  0  0  0  0
  139.5030   69.5910  225.1970 N   0  0  0  0  0  0  0  0  0  0  0  0
  138.5880   68.7190  224.6110 C   0  0  0  0  0  0  0  0  0  0  0  0
  138.9250   67.4600  224.6220 O   0  0  0  0  0  0  0  0  0  0  0  0
  137.3060   68.9910  223.9800 C   0  0  0  0  0  0  0  0  0  0  0  0
  136.4660   69.9990  224.5510 N   0  0  0  0  0  0  0  0  0  0  0  0
  135.1860   69.6870  225.1110 C   0  0  0  0  0  0  0  0  0  0  0  0
  134.7240   68.5060  225.1210 O   0  0  0  0  0  0  0  0  0  0  0  0
  134.3690   70.7700  225.6990 C   0  0  0  0  0  0  0  0  0  0  0  0
  133.2660   70.4580  226.4650 C   0  0  0  0  0  0  0  0  0  0  0  0
  132.5110   71.4830  227.0080 C   0  0  0  0  0  0  0  0  0  0  0  0
  132.8520   72.8090  226.7890 C   0  0  0  0  0  0  0  0  0  0  0  0
  132.1290   73.8610  227.3100 C   0  0  0  0  0  0  0  0  0  0  0  0
  132.5510   75.1630  227.0350 C   0  0  0  0  0  0  0  0  0  0  0  0
  131.6670   76.5380  227.6720 Cl  0  0  0  0  0  0  0  0  0  0  0  0
  133.6590   75.4210  226.2630 C   0  0  0  0  0  0  0  0  0  0  0  0
  134.3890   74.3650  225.7360 C   0  0  0  0  0  0  0  0  0  0  0  0
  133.9750   73.0820  226.0080 C   0  0  0  0  0  0  0  0  0  0  0  0
  134.6910   72.0640  225.4920 N   0  0  0  0  0  0  0  0  0  0  0  0
  140.4986   72.0841  229.4199 H   0  0  0  0  0  0  0  0  0  0  0  0
  141.3193   72.4979  227.8766 H   0  0  0  0  0  0  0  0  0  0  0  0
  139.5801   72.0485  227.8766 H   0  0  0  0  0  0  0  0  0  0  0  0
  139.4615   69.0514  228.2183 H   0  0  0  0  0  0  0  0  0  0  0  0
  139.0193   70.5156  227.3147 H   0  0  0  0  0  0  0  0  0  0  0  0
  140.5182   68.1446  226.5163 H   0  0  0  0  0  0  0  0  0  0  0  0
  142.4318   69.8933  226.7249 H   0  0  0  0  0  0  0  0  0  0  0  0
  142.2916   69.1802  225.1512 H   0  0  0  0  0  0  0  0  0  0  0  0
  141.3930   71.9073  226.1419 H   0  0  0  0  0  0  0  0  0  0  0  0
  141.9106   71.4672  224.5043 H   0  0  0  0  0  0  0  0  0  0  0  0
  139.1963   71.6421  225.5657 H   0  0  0  0  0  0  0  0  0  0  0  0
  139.6719   71.2629  223.9028 H   0  0  0  0  0  0  0  0  0  0  0  0
  137.5117   69.2892  222.9414 H   0  0  0  0  0  0  0  0  0  0  0  0
  136.7370   68.0588  224.1116 H   0  0  0  0  0  0  0  0  0  0  0  0
  136.7350   71.0270  224.5980 H   0  0  0  0  0  0  0  0  0  0  0  0
  132.9896   69.4081  226.6423 H   0  0  0  0  0  0  0  0  0  0  0  0
  131.6296   71.2428  227.6208 H   0  0  0  0  0  0  0  0  0  0  0  0
  131.2384   73.6783  227.9293 H   0  0  0  0  0  0  0  0  0  0  0  0
  133.9651   76.4587  226.0642 H   0  0  0  0  0  0  0  0  0  0  0  0
  135.2781   74.5498  225.1152 H   0  0  0  0  0  0  0  0  0  0  0  0
  1  2  1  0
  2  3  1  0
  3  4  1  0
  4  5  1  0
  5  6  1  0
  6  7  1  0
  7  8  1  0
  8  9  1  0
  9 10  2  0
  9 11  1  0
 11 12  1  0
 12 13  1  0
 13 14  2  0
 13 15  1  0
 15 16  2  0
 16 17  1  0
 17 18  2  0
 18 19  1  0
 19 20  2  0
 20 21  1  0
 20 22  1  0
 22 23  2  0
 23 24  1  0
 24 25  2  0
  8  4  1  0
 25 15  1  0
 24 18  1  0
  1 26  1  0
  1 27  1  0
  1 28  1  0
  3 29  1  0
  3 30  1  0
  4 31  1  1
  5 32  1  0
  5 33  1  0
  6 34  1  0
  6 35  1  0
  7 36  1  0
  7 37  1  0
 11 38  1  0
 11 39  1  0
 12 40  1  0
 16 41  1  0
 17 42  1  0
 19 43  1  0
 22 44  1  0
 23 45  1  0
M  END
>  <smiles>  (22) 
COC[C@@H]1CCCN1C(=O)CNC(=O)c1ccc2cc(Cl)ccc2n1

>  <score_type>  (22) 
oracle

>  <origin>  (22) 
autodockgpu

>  <m_score__min__energy>  (22) 
-7.2400000000000002

>  <m_primary>  (22) 
energy

>  <rmsd>  (22) 
8.08593931611481

>  <m_score__min__rmsd>  (22) 
8.08593931611481

>  <meeko>  (22) 
{"free_energy": -6.85, "intermolecular_energy": -8.64, "internal_energy": -1.28, "cluster_size": 7, "cluster_id": 4, "rank_in_cluster": 1}

>  <energy>  (22) 
-6.23

>  <cluster_rmsd>  (22) 
1.76

>  <cluster>  (22) 
2

$$$$

     RDKit          3D

 45 47  0  0  0  0  0  0  0  0999 V2000
  140.9650   72.5170  221.9420 C   0  0  0  0  0  0  0  0  0  0  0  0
  140.5240   73.8380  222.0000 O   0  0  0  0  0  0  0  0  0  0  0  0
  141.4010   74.6630  221.2840 C   0  0  0  0  0  0  0  0  0  0  0  0
  140.5720   75.7510  220.6800 C   0  0  2  0  0  0  0  0  0  0  0  0
  141.1740   77.1300  220.8080 C   0  0  0  0  0  0  0  0  0  0  0  0
  140.9540   77.3860  222.2830 C   0  0  0  0  0  0  0  0  0  0  0  0
  139.7760   76.5150  222.6960 C   0  0  0  0  0  0  0  0  0  0  0  0
  139.3330   75.8450  221.4830 N   0  0  0  0  0  0  0  0  0  0  0  0
  138.0940   75.3610  221.0680 C   0  0  0  0  0  0  0  0  0  0  0  0
  137.3310   76.2240  220.4570 O   0  0  0  0  0  0  0  0  0  0  0  0
  137.5080   74.0380  221.2090 C   0  0  0  0  0  0  0  0  0  0  0  0
  137.9910   73.1880  222.2540 N   0  0  0  0  0  0  0  0  0  0  0  0
  137.6290   71.8050  222.3310 C   0  0  0  0  0  0  0  0  0  0  0  0
  136.8540   71.2630  221.4870 O   0  0  0  0  0  0  0  0  0  0  0  0
  138.1700   70.9740  223.4290 C   0  0  0  0  0  0  0  0  0  0  0  0
  137.7630   69.6650  223.5610 C   0  0  0  0  0  0  0  0  0  0  0  0
  138.2790   68.8990  224.5930 C   0  0  0  0  0  0  0  0  0  0  0  0
  139.1930   69.4360  225.4860 C   0  0  0  0  0  0  0  0  0  0  0  0
  139.7330   68.7120  226.5280 C   0  0  0  0  0  0  0  0  0  0  0  0
  140.6470   69.3390  227.3760 C   0  0  0  0  0  0  0  0  0  0  0  0
  141.3630   68.4630  228.7170 Cl  0  0  0  0  0  0  0  0  0  0  0  0
  141.0210   70.6510  227.2010 C   0  0  0  0  0  0  0  0  0  0  0  0
  140.4800   71.3830  226.1540 C   0  0  0  0  0  0  0  0  0  0  0  0
  139.5790   70.7660  225.3180 C   0  0  0  0  0  0  0  0  0  0  0  0
  139.0610   71.4860  224.3040 N   0  0  0  0  0  0  0  0  0  0  0  0
  141.0947   72.1286  222.9629 H   0  0  0  0  0  0  0  0  0  0  0  0
  140.2222   71.9056  221.4086 H   0  0  0  0  0  0  0  0  0  0  0  0
  141.9261   72.4744  221.4086 H   0  0  0  0  0  0  0  0  0  0  0  0
  142.1549   75.0921  221.9604 H   0  0  0  0  0  0  0  0  0  0  0  0
  141.9335   74.0943  220.5074 H   0  0  0  0  0  0  0  0  0  0  0  0
  140.4529   75.4943  219.6170 H   0  0  0  0  0  0  0  0  0  0  0  0
  142.2432   77.1328  220.5496 H   0  0  0  0  0  0  0  0  0  0  0  0
  140.7373   77.8866  220.1395 H   0  0  0  0  0  0  0  0  0  0  0  0
  141.8515   77.1095  222.8557 H   0  0  0  0  0  0  0  0  0  0  0  0
  140.7532   78.4496  222.4789 H   0  0  0  0  0  0  0  0  0  0  0  0
  140.0909   75.7766  223.4481 H   0  0  0  0  0  0  0  0  0  0  0  0
  138.9693   77.1124  223.1459 H   0  0  0  0  0  0  0  0  0  0  0  0
  136.4293   74.1760  221.3744 H   0  0  0  0  0  0  0  0  0  0  0  0
  137.7917   73.5163  220.2830 H   0  0  0  0  0  0  0  0  0  0  0  0
  138.6420   73.5230  223.0280 H   0  0  0  0  0  0  0  0  0  0  0  0
  137.0374   69.2334  222.8558 H   0  0  0  0  0  0  0  0  0  0  0  0
  137.9598   67.8523  224.7053 H   0  0  0  0  0  0  0  0  0  0  0  0
  139.4490   67.6613  226.6876 H   0  0  0  0  0  0  0  0  0  0  0  0
  141.7442   71.1168  227.8866 H   0  0  0  0  0  0  0  0  0  0  0  0
  140.7653   72.4335  225.9960 H   0  0  0  0  0  0  0  0  0  0  0  0
  1  2  1  0
  2  3  1  0
  3  4  1  0
  4  5  1  0
  5  6  1  0
  6  7  1  0
  7  8  1  0
  8  9  1  0
  9 10  2  0
  9 11  1  0
 11 12  1  0
 12 13  1  0
 13 14  2  0
 13 15  1  0
 15 16  2  0
 16 17  1  0
 17 18  2  0
 18 19  1  0
 19 20  2  0
 20 21  1  0
 20 22  1  0
 22 23  2  0
 23 24  1  0
 24 25  2  0
  8  4  1  0
 25 15  1  0
 24 18  1  0
  1 26  1  0
  1 27  1  0
  1 28  1  0
  3 29  1  0
  3 30  1  0
  4 31  1  6
  5 32  1  0
  5 33  1  0
  6 34  1  0
  6 35  1  0
  7 36  1  0
  7 37  1  0
 11 38  1  0
 11 39  1  0
 12 40  1  0
 16 41  1  0
 17 42  1  0
 19 43  1  0
 22 44  1  0
 23 45  1  0
M  END
>  <smiles>  (23) 
COC[C@@H]1CCCN1C(=O)CNC(=O)c1ccc2cc(Cl)ccc2n1

>  <score_type>  (23) 
oracle

>  <origin>  (23) 
autodockgpu

>  <m_score__min__energy>  (23) 
-7.2400000000000002

>  <m_primary>  (23) 
energy

>  <rmsd>  (23) 
2.49822649026138

>  <m_score__min__rmsd>  (23) 
2.49822649026138

>  <meeko>  (23) 
{"free_energy": -6.11, "intermolecular_energy": -7.9, "internal_energy": -2.33, "cluster_size": 26, "cluster_id": 2, "rank_in_cluster": 17}

>  <energy>  (23) 
-6.16

>  <cluster_rmsd>  (23) 
1.85

>  <cluster>  (23) 
2

$$$$

     RDKit          3D

 45 47  0  0  0  0  0  0  0  0999 V2000
  141.0380   72.6540  221.8110 C   0  0  0  0  0  0  0  0  0  0  0  0
  140.5560   73.9500  221.9850 O   0  0  0  0  0  0  0  0  0  0  0  0
  141.4390   74.8670  221.4010 C   0  0  0  0  0  0  0  0  0  0  0  0
  140.5990   75.9100  220.7360 C   0  0  2  0  0  0  0  0  0  0  0  0
  141.0910   77.3240  220.9400 C   0  0  0  0  0  0  0  0  0  0  0  0
  140.7170   77.5340  222.3920 C   0  0  0  0  0  0  0  0  0  0  0  0
  139.5680   76.5790  222.6780 C   0  0  0  0  0  0  0  0  0  0  0  0
  139.2860   75.9060  221.4200 N   0  0  0  0  0  0  0  0  0  0  0  0
  138.1270   75.3510  220.8820 C   0  0  0  0  0  0  0  0  0  0  0  0
  137.3660   76.1750  220.2170 O   0  0  0  0  0  0  0  0  0  0  0  0
  137.6230   73.9880  220.9460 C   0  0  0  0  0  0  0  0  0  0  0  0
  138.0480   73.1560  222.0290 N   0  0  0  0  0  0  0  0  0  0  0  0
  137.7140   71.7640  222.0880 C   0  0  0  0  0  0  0  0  0  0  0  0
  137.0150   71.2000  221.1930 O   0  0  0  0  0  0  0  0  0  0  0  0
  138.1930   70.9520  223.2280 C   0  0  0  0  0  0  0  0  0  0  0  0
  137.7480   69.6570  223.3810 C   0  0  0  0  0  0  0  0  0  0  0  0
  138.2060   68.9090  224.4520 C   0  0  0  0  0  0  0  0  0  0  0  0
  139.0990   69.4480  225.3640 C   0  0  0  0  0  0  0  0  0  0  0  0
  139.5800   68.7410  226.4450 C   0  0  0  0  0  0  0  0  0  0  0  0
  140.4780   69.3700  227.3100 C   0  0  0  0  0  0  0  0  0  0  0  0
  141.1210   68.5150  228.7010 Cl  0  0  0  0  0  0  0  0  0  0  0  0
  140.8900   70.6670  227.1130 C   0  0  0  0  0  0  0  0  0  0  0  0
  140.4080   71.3820  226.0270 C   0  0  0  0  0  0  0  0  0  0  0  0
  139.5240   70.7640  225.1740 C   0  0  0  0  0  0  0  0  0  0  0  0
  139.0620   71.4670  224.1220 N   0  0  0  0  0  0  0  0  0  0  0  0
  141.2099   72.1917  222.7942 H   0  0  0  0  0  0  0  0  0  0  0  0
  140.3004   72.0606  221.2507 H   0  0  0  0  0  0  0  0  0  0  0  0
  141.9841   72.6868  221.2507 H   0  0  0  0  0  0  0  0  0  0  0  0
  142.0732   75.3269  222.1732 H   0  0  0  0  0  0  0  0  0  0  0  0
  142.1012   74.3713  220.6759 H   0  0  0  0  0  0  0  0  0  0  0  0
  140.5984   75.6674  219.6631 H   0  0  0  0  0  0  0  0  0  0  0  0
  142.1770   77.4035  220.7839 H   0  0  0  0  0  0  0  0  0  0  0  0
  140.6680   78.0635  220.2441 H   0  0  0  0  0  0  0  0  0  0  0  0
  141.5736   77.3054  223.0431 H   0  0  0  0  0  0  0  0  0  0  0  0
  140.4273   78.5777  222.5839 H   0  0  0  0  0  0  0  0  0  0  0  0
  139.8605   75.8477  223.4459 H   0  0  0  0  0  0  0  0  0  0  0  0
  138.6842   77.1129  223.0572 H   0  0  0  0  0  0  0  0  0  0  0  0
  136.5257   74.0489  220.9938 H   0  0  0  0  0  0  0  0  0  0  0  0
  138.0412   73.5027  220.0518 H   0  0  0  0  0  0  0  0  0  0  0  0
  138.6320   73.5090  222.8450 H   0  0  0  0  0  0  0  0  0  0  0  0
  137.0380   69.2232  222.6615 H   0  0  0  0  0  0  0  0  0  0  0  0
  137.8566   67.8739  224.5806 H   0  0  0  0  0  0  0  0  0  0  0  0
  139.2631   67.7027  226.6227 H   0  0  0  0  0  0  0  0  0  0  0  0
  141.5980   71.1348  227.8130 H   0  0  0  0  0  0  0  0  0  0  0  0
  140.7257   72.4204  225.8517 H   0  0  0  0  0  0  0  0  0  0  0  0
  1  2  1  0
  2  3  1  0
  3  4  1  0
  4  5  1  0
  5  6  1  0
  6  7  1  0
  7  8  1  0
  8  9  1  0
  9 10  2  0
  9 11  1  0
 11 12  1  0
 12 13  1  0
 13 14  2  0
 13 15  1  0
 15 16  2  0
 16 17  1  0
 17 18  2  0
 18 19  1  0
 19 20  2  0
 20 21  1  0
 20 22  1  0
 22 23  2  0
 23 24  1  0
 24 25  2  0
  8  4  1  0
 25 15  1  0
 24 18  1  0
  1 26  1  0
  1 27  1  0
  1 28  1  0
  3 29  1  0
  3 30  1  0
  4 31  1  6
  5 32  1  0
  5 33  1  0
  6 34  1  0
  6 35  1  0
  7 36  1  0
  7 37  1  0
 11 38  1  0
 11 39  1  0
 12 40  1  0
 16 41  1  0
 17 42  1  0
 19 43  1  0
 22 44  1  0
 23 45  1  0
M  END
>  <smiles>  (24) 
COC[C@@H]1CCCN1C(=O)CNC(=O)c1ccc2cc(Cl)ccc2n1

>  <score_type>  (24) 
oracle

>  <origin>  (24) 
autodockgpu

>  <m_score__min__energy>  (24) 
-7.2400000000000002

>  <m_primary>  (24) 
energy

>  <rmsd>  (24) 
2.5030601895696316

>  <m_score__min__rmsd>  (24) 
2.5030601895696316

>  <meeko>  (24) 
{"free_energy": -6.13, "intermolecular_energy": -7.92, "internal_energy": -2.32, "cluster_size": 26, "cluster_id": 2, "rank_in_cluster": 16}

>  <energy>  (24) 
-6.15

>  <cluster_rmsd>  (24) 
1.77

>  <cluster>  (24) 
2

$$$$

     RDKit          3D

 45 47  0  0  0  0  0  0  0  0999 V2000
  138.2080   74.3330  221.8060 C   0  0  0  0  0  0  0  0  0  0  0  0
  139.4110   74.7780  222.3510 O   0  0  0  0  0  0  0  0  0  0  0  0
  139.4440   76.1780  222.3500 C   0  0  0  0  0  0  0  0  0  0  0  0
  140.8840   76.5750  222.2800 C   0  0  2  0  0  0  0  0  0  0  0  0
  141.1990   77.8850  222.9630 C   0  0  0  0  0  0  0  0  0  0  0  0
  140.5830   78.8580  221.9800 C   0  0  0  0  0  0  0  0  0  0  0  0
  140.5600   78.1470  220.6350 C   0  0  0  0  0  0  0  0  0  0  0  0
  141.1860   76.8530  220.8580 N   0  0  0  0  0  0  0  0  0  0  0  0
  141.9040   75.9940  220.0300 C   0  0  0  0  0  0  0  0  0  0  0  0
  142.7290   76.5710  219.2010 O   0  0  0  0  0  0  0  0  0  0  0  0
  141.8810   74.5420  219.9370 C   0  0  0  0  0  0  0  0  0  0  0  0
  141.4540   73.7950  221.0800 N   0  0  0  0  0  0  0  0  0  0  0  0
  140.9470   72.4610  220.9640 C   0  0  0  0  0  0  0  0  0  0  0  0
  140.8390   71.8760  219.8440 O   0  0  0  0  0  0  0  0  0  0  0  0
  140.5330   71.7340  222.1840 C   0  0  0  0  0  0  0  0  0  0  0  0
  139.6470   70.6830  222.0880 C   0  0  0  0  0  0  0  0  0  0  0  0
  139.2690   70.0120  223.2390 C   0  0  0  0  0  0  0  0  0  0  0  0
  139.7700   70.3870  224.4750 C   0  0  0  0  0  0  0  0  0  0  0  0
  139.4220   69.7480  225.6460 C   0  0  0  0  0  0  0  0  0  0  0  0
  139.9800   70.1970  226.8440 C   0  0  0  0  0  0  0  0  0  0  0  0
  139.5700   69.4200  228.3630 Cl  0  0  0  0  0  0  0  0  0  0  0  0
  140.8610   71.2530  226.8870 C   0  0  0  0  0  0  0  0  0  0  0  0
  141.2140   71.8980  225.7110 C   0  0  0  0  0  0  0  0  0  0  0  0
  140.6650   71.4560  224.5300 C   0  0  0  0  0  0  0  0  0  0  0  0
  141.0150   72.0900  223.3930 N   0  0  0  0  0  0  0  0  0  0  0  0
  137.5111   74.0752  222.6171 H   0  0  0  0  0  0  0  0  0  0  0  0
  137.7701   75.1286  221.1854 H   0  0  0  0  0  0  0  0  0  0  0  0
  138.3933   73.4439  221.1854 H   0  0  0  0  0  0  0  0  0  0  0  0
  138.9003   76.5692  221.4775 H   0  0  0  0  0  0  0  0  0  0  0  0
  138.9652   76.5852  223.2528 H   0  0  0  0  0  0  0  0  0  0  0  0
  141.4511   75.7614  222.7559 H   0  0  0  0  0  0  0  0  0  0  0  0
  140.7248   77.9520  223.9533 H   0  0  0  0  0  0  0  0  0  0  0  0
  142.2667   78.0520  223.1682 H   0  0  0  0  0  0  0  0  0  0  0  0
  139.5605   79.1180  222.2912 H   0  0  0  0  0  0  0  0  0  0  0  0
  141.1591   79.7937  221.9284 H   0  0  0  0  0  0  0  0  0  0  0  0
  139.5241   78.0164  220.2888 H   0  0  0  0  0  0  0  0  0  0  0  0
  141.0900   78.7247  219.8634 H   0  0  0  0  0  0  0  0  0  0  0  0
  141.2086   74.2796  219.1069 H   0  0  0  0  0  0  0  0  0  0  0  0
  142.9370   74.2618  219.8091 H   0  0  0  0  0  0  0  0  0  0  0  0
  141.4870   74.1740  222.0740 H   0  0  0  0  0  0  0  0  0  0  0  0
  139.2451   70.3808  221.1096 H   0  0  0  0  0  0  0  0  0  0  0  0
  138.5627   69.1715  223.1710 H   0  0  0  0  0  0  0  0  0  0  0  0
  138.7192   68.9019  225.6364 H   0  0  0  0  0  0  0  0  0  0  0  0
  141.2826   71.5835  227.8477 H   0  0  0  0  0  0  0  0  0  0  0  0
  141.9171   72.7439  225.7226 H   0  0  0  0  0  0  0  0  0  0  0  0
  1  2  1  0
  2  3  1  0
  3  4  1  0
  4  5  1  0
  5  6  1  0
  6  7  1  0
  7  8  1  0
  8  9  1  0
  9 10  2  0
  9 11  1  0
 11 12  1  0
 12 13  1  0
 13 14  2  0
 13 15  1  0
 15 16  2  0
 16 17  1  0
 17 18  2  0
 18 19  1  0
 19 20  2  0
 20 21  1  0
 20 22  1  0
 22 23  2  0
 23 24  1  0
 24 25  2  0
  8  4  1  0
 25 15  1  0
 24 18  1  0
  1 26  1  0
  1 27  1  0
  1 28  1  0
  3 29  1  0
  3 30  1  0
  4 31  1  1
  5 32  1  0
  5 33  1  0
  6 34  1  0
  6 35  1  0
  7 36  1  0
  7 37  1  0
 11 38  1  0
 11 39  1  0
 12 40  1  0
 16 41  1  0
 17 42  1  0
 19 43  1  0
 22 44  1  0
 23 45  1  0
M  END
>  <smiles>  (25) 
COC[C@@H]1CCCN1C(=O)CNC(=O)c1ccc2cc(Cl)ccc2n1

>  <score_type>  (25) 
oracle

>  <origin>  (25) 
autodockgpu

>  <m_score__min__energy>  (25) 
-7.2400000000000002

>  <m_primary>  (25) 
energy

>  <rmsd>  (25) 
3.276550267331747

>  <m_score__min__rmsd>  (25) 
3.276550267331747

>  <meeko>  (25) 
{"free_energy": -5.58, "intermolecular_energy": -7.37, "internal_energy": -2.36, "cluster_size": 26, "cluster_id": 2, "rank_in_cluster": 26}

>  <energy>  (25) 
-6.15

>  <cluster_rmsd>  (25) 
1.86

>  <cluster>  (25) 
2

$$$$

     RDKit          3D

 45 47  0  0  0  0  0  0  0  0999 V2000
  140.6700   73.0570  221.4060 C   0  0  0  0  0  0  0  0  0  0  0  0
  140.2600   72.9840  222.7360 O   0  0  0  0  0  0  0  0  0  0  0  0
  140.3800   71.6670  223.1970 C   0  0  0  0  0  0  0  0  0  0  0  0
  139.4020   71.5130  224.3180 C   0  0  2  0  0  0  0  0  0  0  0  0
  139.9580   70.8050  225.5310 C   0  0  0  0  0  0  0  0  0  0  0  0
  140.0240   69.3860  225.0100 C   0  0  0  0  0  0  0  0  0  0  0  0
  138.9900   69.2920  223.8980 C   0  0  0  0  0  0  0  0  0  0  0  0
  138.3430   70.5940  223.8440 N   0  0  0  0  0  0  0  0  0  0  0  0
  137.0690   71.0030  223.4600 C   0  0  0  0  0  0  0  0  0  0  0  0
  136.0810   70.3630  224.0210 O   0  0  0  0  0  0  0  0  0  0  0  0
  136.6580   72.0360  222.5220 C   0  0  0  0  0  0  0  0  0  0  0  0
  137.3020   73.3120  222.5920 N   0  0  0  0  0  0  0  0  0  0  0  0
  136.5660   74.5360  222.4790 C   0  0  0  0  0  0  0  0  0  0  0  0
  135.3110   74.5540  222.3010 O   0  0  0  0  0  0  0  0  0  0  0  0
  137.2860   75.8250  222.5710 C   0  0  0  0  0  0  0  0  0  0  0  0
  136.5750   77.0030  222.6450 C   0  0  0  0  0  0  0  0  0  0  0  0
  137.2630   78.2010  222.7310 C   0  0  0  0  0  0  0  0  0  0  0  0
  138.6480   78.2250  222.7420 C   0  0  0  0  0  0  0  0  0  0  0  0
  139.3740   79.3930  222.8250 C   0  0  0  0  0  0  0  0  0  0  0  0
  140.7680   79.3170  222.8300 C   0  0  0  0  0  0  0  0  0  0  0  0
  141.7400   80.7740  222.9350 Cl  0  0  0  0  0  0  0  0  0  0  0  0
  141.4310   78.1140  222.7530 C   0  0  0  0  0  0  0  0  0  0  0  0
  140.7040   76.9360  222.6680 C   0  0  0  0  0  0  0  0  0  0  0  0
  139.3310   77.0100  222.6640 C   0  0  0  0  0  0  0  0  0  0  0  0
  138.6350   75.8600  222.5820 N   0  0  0  0  0  0  0  0  0  0  0  0
  141.7523   73.2497  221.3660 H   0  0  0  0  0  0  0  0  0  0  0  0
  140.4481   72.1052  220.9011 H   0  0  0  0  0  0  0  0  0  0  0  0
  140.1332   73.8737  220.9011 H   0  0  0  0  0  0  0  0  0  0  0  0
  140.1443   70.9594  222.3885 H   0  0  0  0  0  0  0  0  0  0  0  0
  141.4056   71.4583  223.5354 H   0  0  0  0  0  0  0  0  0  0  0  0
  139.0860   72.5301  224.5930 H   0  0  0  0  0  0  0  0  0  0  0  0
  140.9536   71.1852  225.8032 H   0  0  0  0  0  0  0  0  0  0  0  0
  139.3655   70.9310  226.4492 H   0  0  0  0  0  0  0  0  0  0  0  0
  141.0282   69.1712  224.6157 H   0  0  0  0  0  0  0  0  0  0  0  0
  139.8209   68.6568  225.8081 H   0  0  0  0  0  0  0  0  0  0  0  0
  139.4792   69.0678  222.9386 H   0  0  0  0  0  0  0  0  0  0  0  0
  138.2640   68.4879  224.0885 H   0  0  0  0  0  0  0  0  0  0  0  0
  136.8263   71.6415  221.5090 H   0  0  0  0  0  0  0  0  0  0  0  0
  135.6119   72.2452  222.7903 H   0  0  0  0  0  0  0  0  0  0  0  0
  138.3500   73.4330  222.7310 H   0  0  0  0  0  0  0  0  0  0  0  0
  135.4751   76.9915  222.6359 H   0  0  0  0  0  0  0  0  0  0  0  0
  136.7029   79.1458  222.7914 H   0  0  0  0  0  0  0  0  0  0  0  0
  138.8652   80.3664  222.8861 H   0  0  0  0  0  0  0  0  0  0  0  0
  142.5306   78.0866  222.7588 H   0  0  0  0  0  0  0  0  0  0  0  0
  141.2146   75.9637  222.6051 H   0  0  0  0  0  0  0  0  0  0  0  0
  1  2  1  0
  2  3  1  0
  3  4  1  0
  4  5  1  0
  5  6  1  0
  6  7  1  0
  7  8  1  0
  8  9  1  0
  9 10  2  0
  9 11  1  0
 11 12  1  0
 12 13  1  0
 13 14  2  0
 13 15  1  0
 15 16  2  0
 16 17  1  0
 17 18  2  0
 18 19  1  0
 19 20  2  0
 20 21  1  0
 20 22  1  0
 22 23  2  0
 23 24  1  0
 24 25  2  0
  8  4  1  0
 25 15  1  0
 24 18  1  0
  1 26  1  0
  1 27  1  0
  1 28  1  0
  3 29  1  0
  3 30  1  0
  4 31  1  1
  5 32  1  0
  5 33  1  0
  6 34  1  0
  6 35  1  0
  7 36  1  0
  7 37  1  0
 11 38  1  0
 11 39  1  0
 12 40  1  0
 16 41  1  0
 17 42  1  0
 19 43  1  0
 22 44  1  0
 23 45  1  0
M  END
>  <smiles>  (26) 
COC[C@@H]1CCCN1C(=O)CNC(=O)c1ccc2cc(Cl)ccc2n1

>  <score_type>  (26) 
oracle

>  <origin>  (26) 
autodockgpu

>  <m_score__min__energy>  (26) 
-7.2400000000000002

>  <m_primary>  (26) 
energy

>  <rmsd>  (26) 
7.962485025371283

>  <m_score__min__rmsd>  (26) 
7.962485025371283

>  <meeko>  (26) 
{"free_energy": -5.39, "intermolecular_energy": -7.18, "internal_energy": -2.45, "cluster_size": 2, "cluster_id": 6, "rank_in_cluster": 2}

>  <energy>  (26) 
-6.13

>  <cluster_rmsd>  (26) 
1.79

>  <cluster>  (26) 
2

$$$$

     RDKit          3D

 45 47  0  0  0  0  0  0  0  0999 V2000
  138.8280   67.9260  223.8940 C   0  0  0  0  0  0  0  0  0  0  0  0
  138.5250   68.3060  225.2010 O   0  0  0  0  0  0  0  0  0  0  0  0
  139.2780   67.5430  226.1030 C   0  0  0  0  0  0  0  0  0  0  0  0
  140.5260   68.3180  226.3830 C   0  0  2  0  0  0  0  0  0  0  0  0
  141.2470   67.8970  227.6420 C   0  0  0  0  0  0  0  0  0  0  0  0
  140.3140   68.4650  228.6910 C   0  0  0  0  0  0  0  0  0  0  0  0
  139.5720   69.6150  228.0240 C   0  0  0  0  0  0  0  0  0  0  0  0
  140.1130   69.7090  226.6770 N   0  0  0  0  0  0  0  0  0  0  0  0
  140.2570   70.7710  225.7870 C   0  0  0  0  0  0  0  0  0  0  0  0
  140.7110   71.8780  226.3020 O   0  0  0  0  0  0  0  0  0  0  0  0
  139.9750   70.8450  224.3620 C   0  0  0  0  0  0  0  0  0  0  0  0
  140.3050   72.0500  223.6650 N   0  0  0  0  0  0  0  0  0  0  0  0
  140.6580   72.0480  222.2770 C   0  0  0  0  0  0  0  0  0  0  0  0
  140.7080   70.9790  221.5960 O   0  0  0  0  0  0  0  0  0  0  0  0
  140.9770   73.3280  221.6080 C   0  0  0  0  0  0  0  0  0  0  0  0
  141.5710   73.3210  220.3640 C   0  0  0  0  0  0  0  0  0  0  0  0
  141.8630   74.5280  219.7510 C   0  0  0  0  0  0  0  0  0  0  0  0
  141.5670   75.7300  220.3730 C   0  0  0  0  0  0  0  0  0  0  0  0
  141.8410   76.9540  219.8000 C   0  0  0  0  0  0  0  0  0  0  0  0
  141.5050   78.1120  220.5040 C   0  0  0  0  0  0  0  0  0  0  0  0
  141.8320   79.6940  219.8200 Cl  0  0  0  0  0  0  0  0  0  0  0  0
  140.9140   78.0640  221.7440 C   0  0  0  0  0  0  0  0  0  0  0  0
  140.6370   76.8340  222.3250 C   0  0  0  0  0  0  0  0  0  0  0  0
  140.9670   75.6930  221.6320 C   0  0  0  0  0  0  0  0  0  0  0  0
  140.6940   74.5040  222.2040 N   0  0  0  0  0  0  0  0  0  0  0  0
  139.5137   67.0661  223.9118 H   0  0  0  0  0  0  0  0  0  0  0  0
  137.9024   67.6461  223.3696 H   0  0  0  0  0  0  0  0  0  0  0  0
  139.3069   68.7660  223.3696 H   0  0  0  0  0  0  0  0  0  0  0  0
  138.7117   67.3872  227.0330 H   0  0  0  0  0  0  0  0  0  0  0  0
  139.5122   66.5528  225.6850 H   0  0  0  0  0  0  0  0  0  0  0  0
  141.1818   68.1710  225.5122 H   0  0  0  0  0  0  0  0  0  0  0  0
  141.3272   66.8026  227.7184 H   0  0  0  0  0  0  0  0  0  0  0  0
  142.2879   68.2451  227.7147 H   0  0  0  0  0  0  0  0  0  0  0  0
  139.6026   67.6954  229.0251 H   0  0  0  0  0  0  0  0  0  0  0  0
  140.8689   68.8071  229.5770 H   0  0  0  0  0  0  0  0  0  0  0  0
  138.4927   69.4054  227.9893 H   0  0  0  0  0  0  0  0  0  0  0  0
  139.7021   70.5560  228.5786 H   0  0  0  0  0  0  0  0  0  0  0  0
  140.5289   70.0272  223.8779 H   0  0  0  0  0  0  0  0  0  0  0  0
  138.8782   70.7884  224.3000 H   0  0  0  0  0  0  0  0  0  0  0  0
  140.3080   73.0100  224.1240 H   0  0  0  0  0  0  0  0  0  0  0  0
  141.8097   72.3701  219.8653 H   0  0  0  0  0  0  0  0  0  0  0  0
  142.3359   74.5324  218.7578 H   0  0  0  0  0  0  0  0  0  0  0  0
  142.3144   77.0168  218.8091 H   0  0  0  0  0  0  0  0  0  0  0  0
  140.6619   78.9949  222.2730 H   0  0  0  0  0  0  0  0  0  0  0  0
  140.1646   76.7735  223.3165 H   0  0  0  0  0  0  0  0  0  0  0  0
  1  2  1  0
  2  3  1  0
  3  4  1  0
  4  5  1  0
  5  6  1  0
  6  7  1  0
  7  8  1  0
  8  9  1  0
  9 10  2  0
  9 11  1  0
 11 12  1  0
 12 13  1  0
 13 14  2  0
 13 15  1  0
 15 16  2  0
 16 17  1  0
 17 18  2  0
 18 19  1  0
 19 20  2  0
 20 21  1  0
 20 22  1  0
 22 23  2  0
 23 24  1  0
 24 25  2  0
  8  4  1  0
 25 15  1  0
 24 18  1  0
  1 26  1  0
  1 27  1  0
  1 28  1  0
  3 29  1  0
  3 30  1  0
  4 31  1  6
  5 32  1  0
  5 33  1  0
  6 34  1  0
  6 35  1  0
  7 36  1  0
  7 37  1  0
 11 38  1  0
 11 39  1  0
 12 40  1  0
 16 41  1  0
 17 42  1  0
 19 43  1  0
 22 44  1  0
 23 45  1  0
M  END
>  <smiles>  (27) 
COC[C@@H]1CCCN1C(=O)CNC(=O)c1ccc2cc(Cl)ccc2n1

>  <score_type>  (27) 
oracle

>  <origin>  (27) 
autodockgpu

>  <m_score__min__energy>  (27) 
-7.2400000000000002

>  <m_primary>  (27) 
energy

>  <rmsd>  (27) 
9.036693292563896

>  <m_score__min__rmsd>  (27) 
9.036693292563896

>  <meeko>  (27) 
{"free_energy": -6.8, "intermolecular_energy": -8.59, "internal_energy": -1.66, "cluster_size": 10, "cluster_id": 1, "rank_in_cluster": 8}

>  <energy>  (27) 
-6.11

>  <cluster_rmsd>  (27) 
1.82

>  <cluster>  (27) 
2

$$$$

     RDKit          3D

 45 47  0  0  0  0  0  0  0  0999 V2000
  140.9170   72.4380  221.8930 C   0  0  0  0  0  0  0  0  0  0  0  0
  140.4410   73.7350  222.0810 O   0  0  0  0  0  0  0  0  0  0  0  0
  141.3650   74.6580  221.5740 C   0  0  0  0  0  0  0  0  0  0  0  0
  140.5770   75.6910  220.8340 C   0  0  2  0  0  0  0  0  0  0  0  0
  141.0810   77.1030  221.0200 C   0  0  0  0  0  0  0  0  0  0  0  0
  140.6360   77.3660  222.4420 C   0  0  0  0  0  0  0  0  0  0  0  0
  139.4570   76.4370  222.6970 C   0  0  0  0  0  0  0  0  0  0  0  0
  139.2310   75.7290  221.4470 N   0  0  0  0  0  0  0  0  0  0  0  0
  138.0920   75.1740  220.8660 C   0  0  0  0  0  0  0  0  0  0  0  0
  137.5840   75.8470  219.8730 O   0  0  0  0  0  0  0  0  0  0  0  0
  137.3710   73.9540  221.1940 C   0  0  0  0  0  0  0  0  0  0  0  0
  137.8770   73.1280  222.2480 N   0  0  0  0  0  0  0  0  0  0  0  0
  137.5610   71.7340  222.3310 C   0  0  0  0  0  0  0  0  0  0  0  0
  136.8110   71.1600  221.4850 O   0  0  0  0  0  0  0  0  0  0  0  0
  138.1240   70.9280  223.4370 C   0  0  0  0  0  0  0  0  0  0  0  0
  137.7190   69.6220  223.6080 C   0  0  0  0  0  0  0  0  0  0  0  0
  138.2550   68.8810  224.6470 C   0  0  0  0  0  0  0  0  0  0  0  0
  139.1850   69.4380  225.5100 C   0  0  0  0  0  0  0  0  0  0  0  0
  139.7450   68.7380  226.5570 C   0  0  0  0  0  0  0  0  0  0  0  0
  140.6750   69.3840  227.3730 C   0  0  0  0  0  0  0  0  0  0  0  0
  141.4170   68.5400  228.7200 Cl  0  0  0  0  0  0  0  0  0  0  0  0
  141.0460   70.6910  227.1600 C   0  0  0  0  0  0  0  0  0  0  0  0
  140.4850   71.4000  226.1070 C   0  0  0  0  0  0  0  0  0  0  0  0
  139.5680   70.7630  225.3030 C   0  0  0  0  0  0  0  0  0  0  0  0
  139.0310   71.4600  224.2830 N   0  0  0  0  0  0  0  0  0  0  0  0
  141.0904   71.9657  222.8712 H   0  0  0  0  0  0  0  0  0  0  0  0
  140.1749   71.8531  221.3298 H   0  0  0  0  0  0  0  0  0  0  0  0
  141.8613   72.4720  221.3298 H   0  0  0  0  0  0  0  0  0  0  0  0
  141.9246   75.1258  222.3974 H   0  0  0  0  0  0  0  0  0  0  0  0
  142.0935   74.1665  220.9124 H   0  0  0  0  0  0  0  0  0  0  0  0
  140.6276   75.4135  219.7708 H   0  0  0  0  0  0  0  0  0  0  0  0
  142.1748   77.1610  220.9189 H   0  0  0  0  0  0  0  0  0  0  0  0
  140.7067   77.8258  220.2801 H   0  0  0  0  0  0  0  0  0  0  0  0
  141.4536   77.1460  223.1442 H   0  0  0  0  0  0  0  0  0  0  0  0
  140.3544   78.4196  222.5854 H   0  0  0  0  0  0  0  0  0  0  0  0
  139.6968   75.7262  223.5016 H   0  0  0  0  0  0  0  0  0  0  0  0
  138.5633   76.9953  223.0127 H   0  0  0  0  0  0  0  0  0  0  0  0
  136.3474   74.2456  221.4719 H   0  0  0  0  0  0  0  0  0  0  0  0
  137.4672   73.3316  220.2921 H   0  0  0  0  0  0  0  0  0  0  0  0
  138.5100   73.4890  223.0230 H   0  0  0  0  0  0  0  0  0  0  0  0
  136.9795   69.1743  222.9278 H   0  0  0  0  0  0  0  0  0  0  0  0
  137.9388   67.8371  224.7893 H   0  0  0  0  0  0  0  0  0  0  0  0
  139.4646   67.6912  226.7457 H   0  0  0  0  0  0  0  0  0  0  0  0
  141.7830   71.1716  227.8202 H   0  0  0  0  0  0  0  0  0  0  0  0
  140.7669   72.4466  225.9196 H   0  0  0  0  0  0  0  0  0  0  0  0
  1  2  1  0
  2  3  1  0
  3  4  1  0
  4  5  1  0
  5  6  1  0
  6  7  1  0
  7  8  1  0
  8  9  1  0
  9 10  2  0
  9 11  1  0
 11 12  1  0
 12 13  1  0
 13 14  2  0
 13 15  1  0
 15 16  2  0
 16 17  1  0
 17 18  2  0
 18 19  1  0
 19 20  2  0
 20 21  1  0
 20 22  1  0
 22 23  2  0
 23 24  1  0
 24 25  2  0
  8  4  1  0
 25 15  1  0
 24 18  1  0
  1 26  1  0
  1 27  1  0
  1 28  1  0
  3 29  1  0
  3 30  1  0
  4 31  1  6
  5 32  1  0
  5 33  1  0
  6 34  1  0
  6 35  1  0
  7 36  1  0
  7 37  1  0
 11 38  1  0
 11 39  1  0
 12 40  1  0
 16 41  1  0
 17 42  1  0
 19 43  1  0
 22 44  1  0
 23 45  1  0
M  END
>  <smiles>  (28) 
COC[C@@H]1CCCN1C(=O)CNC(=O)c1ccc2cc(Cl)ccc2n1

>  <score_type>  (28) 
oracle

>  <origin>  (28) 
autodockgpu

>  <m_score__min__energy>  (28) 
-7.2400000000000002

>  <m_primary>  (28) 
energy

>  <rmsd>  (28) 
2.533706729954333

>  <m_score__min__rmsd>  (28) 
2.533706729954333

>  <meeko>  (28) 
{"free_energy": -6.05, "intermolecular_energy": -7.84, "internal_energy": -2.41, "cluster_size": 26, "cluster_id": 2, "rank_in_cluster": 20}

>  <energy>  (28) 
-6.1

>  <cluster_rmsd>  (28) 
1.81

>  <cluster>  (28) 
2

$$$$

     RDKit          3D

 45 47  0  0  0  0  0  0  0  0999 V2000
  141.8450   79.7660  223.8680 C   0  0  0  0  0  0  0  0  0  0  0  0
  141.7420   78.7180  222.9540 O   0  0  0  0  0  0  0  0  0  0  0  0
  141.8920   79.2100  221.6510 C   0  0  0  0  0  0  0  0  0  0  0  0
  141.6780   78.0530  220.7280 C   0  0  2  0  0  0  0  0  0  0  0  0
  141.8450   78.3900  219.2650 C   0  0  0  0  0  0  0  0  0  0  0  0
  140.5820   79.1880  219.0240 C   0  0  0  0  0  0  0  0  0  0  0  0
  139.5800   78.7270  220.0730 C   0  0  0  0  0  0  0  0  0  0  0  0
  140.2490   77.6790  220.8290 N   0  0  0  0  0  0  0  0  0  0  0  0
  139.7810   76.5640  221.5200 C   0  0  0  0  0  0  0  0  0  0  0  0
  139.3050   76.8000  222.7100 O   0  0  0  0  0  0  0  0  0  0  0  0
  139.7390   75.1650  221.1250 C   0  0  0  0  0  0  0  0  0  0  0  0
  139.7500   74.1680  222.1510 N   0  0  0  0  0  0  0  0  0  0  0  0
  140.0200   72.7910  221.8640 C   0  0  0  0  0  0  0  0  0  0  0  0
  140.2510   72.3810  220.6860 O   0  0  0  0  0  0  0  0  0  0  0  0
  140.0290   71.8080  222.9690 C   0  0  0  0  0  0  0  0  0  0  0  0
  139.5450   70.5350  222.7580 C   0  0  0  0  0  0  0  0  0  0  0  0
  139.5610   69.6270  223.8020 C   0  0  0  0  0  0  0  0  0  0  0  0
  140.0530   69.9840  225.0470 C   0  0  0  0  0  0  0  0  0  0  0  0
  140.0880   69.1130  226.1150 C   0  0  0  0  0  0  0  0  0  0  0  0
  140.6030   69.5650  227.3310 C   0  0  0  0  0  0  0  0  0  0  0  0
  140.6700   68.4970  228.7210 Cl  0  0  0  0  0  0  0  0  0  0  0  0
  141.0740   70.8470  227.4900 C   0  0  0  0  0  0  0  0  0  0  0  0
  141.0410   71.7280  226.4180 C   0  0  0  0  0  0  0  0  0  0  0  0
  140.5330   71.2830  225.2200 C   0  0  0  0  0  0  0  0  0  0  0  0
  140.5060   72.1450  224.1850 N   0  0  0  0  0  0  0  0  0  0  0  0
  141.8056   79.3650  224.8916 H   0  0  0  0  0  0  0  0  0  0  0  0
  142.7992   80.2920  223.7167 H   0  0  0  0  0  0  0  0  0  0  0  0
  141.0115   80.4677  223.7167 H   0  0  0  0  0  0  0  0  0  0  0  0
  141.1471   79.9950  221.4540 H   0  0  0  0  0  0  0  0  0  0  0  0
  142.8889   79.6521  221.5071 H   0  0  0  0  0  0  0  0  0  0  0  0
  142.4110   77.2864  221.0196 H   0  0  0  0  0  0  0  0  0  0  0  0
  142.7475   78.9932  219.0870 H   0  0  0  0  0  0  0  0  0  0  0  0
  141.9723   77.5198  218.6042 H   0  0  0  0  0  0  0  0  0  0  0  0
  140.7836   80.2635  219.1362 H   0  0  0  0  0  0  0  0  0  0  0  0
  140.1968   79.0299  218.0058 H   0  0  0  0  0  0  0  0  0  0  0  0
  139.3075   79.5621  220.7351 H   0  0  0  0  0  0  0  0  0  0  0  0
  138.6507   78.3620  219.6114 H   0  0  0  0  0  0  0  0  0  0  0  0
  138.8188   75.0197  220.5401 H   0  0  0  0  0  0  0  0  0  0  0  0
  140.6843   75.0079  220.5849 H   0  0  0  0  0  0  0  0  0  0  0  0
  139.5640   74.3810  223.1770 H   0  0  0  0  0  0  0  0  0  0  0  0
  139.1512   70.2446  221.7728 H   0  0  0  0  0  0  0  0  0  0  0  0
  139.1781   68.6084  223.6414 H   0  0  0  0  0  0  0  0  0  0  0  0
  139.7175   68.0825  226.0110 H   0  0  0  0  0  0  0  0  0  0  0  0
  141.4747   71.1725  228.4613 H   0  0  0  0  0  0  0  0  0  0  0  0
  141.4124   72.7579  226.5241 H   0  0  0  0  0  0  0  0  0  0  0  0
  1  2  1  0
  2  3  1  0
  3  4  1  0
  4  5  1  0
  5  6  1  0
  6  7  1  0
  7  8  1  0
  8  9  1  0
  9 10  2  0
  9 11  1  0
 11 12  1  0
 12 13  1  0
 13 14  2  0
 13 15  1  0
 15 16  2  0
 16 17  1  0
 17 18  2  0
 18 19  1  0
 19 20  2  0
 20 21  1  0
 20 22  1  0
 22 23  2  0
 23 24  1  0
 24 25  2  0
  8  4  1  0
 25 15  1  0
 24 18  1  0
  1 26  1  0
  1 27  1  0
  1 28  1  0
  3 29  1  0
  3 30  1  0
  4 31  1  1
  5 32  1  0
  5 33  1  0
  6 34  1  0
  6 35  1  0
  7 36  1  0
  7 37  1  0
 11 38  1  0
 11 39  1  0
 12 40  1  0
 16 41  1  0
 17 42  1  0
 19 43  1  0
 22 44  1  0
 23 45  1  0
M  END
>  <smiles>  (29) 
COC[C@@H]1CCCN1C(=O)CNC(=O)c1ccc2cc(Cl)ccc2n1

>  <score_type>  (29) 
oracle

>  <origin>  (29) 
autodockgpu

>  <m_score__min__energy>  (29) 
-7.2400000000000002

>  <m_primary>  (29) 
energy

>  <rmsd>  (29) 
2.3103731761453044

>  <m_score__min__rmsd>  (29) 
2.3103731761453044

>  <meeko>  (29) 
{"free_energy": -6.55, "intermolecular_energy": -8.34, "internal_energy": -1.47, "cluster_size": 26, "cluster_id": 2, "rank_in_cluster": 7}

>  <energy>  (29) 
-6.05

>  <cluster_rmsd>  (29) 
1.84

>  <cluster>  (29) 
2

$$$$

     RDKit          3D

 45 47  0  0  0  0  0  0  0  0999 V2000
  141.3810   72.2830  227.4860 C   0  0  0  0  0  0  0  0  0  0  0  0
  141.4210   71.8580  226.1590 O   0  0  0  0  0  0  0  0  0  0  0  0
  141.3460   70.4590  226.1070 C   0  0  0  0  0  0  0  0  0  0  0  0
  139.9450   70.0900  226.4760 C   0  0  2  0  0  0  0  0  0  0  0  0
  139.8030   69.5100  227.8630 C   0  0  0  0  0  0  0  0  0  0  0  0
  140.4140   68.1420  227.6480 C   0  0  0  0  0  0  0  0  0  0  0  0
  140.2620   67.8350  226.1650 C   0  0  0  0  0  0  0  0  0  0  0  0
  139.5480   68.9680  225.5960 N   0  0  0  0  0  0  0  0  0  0  0  0
  138.6910   69.0950  224.5060 C   0  0  0  0  0  0  0  0  0  0  0  0
  138.6340   68.0620  223.7120 O   0  0  0  0  0  0  0  0  0  0  0  0
  137.8420   70.2060  224.1040 C   0  0  0  0  0  0  0  0  0  0  0  0
  138.4650   71.3800  223.5730 N   0  0  0  0  0  0  0  0  0  0  0  0
  139.5270   71.3030  222.6150 C   0  0  0  0  0  0  0  0  0  0  0  0
  139.9790   70.1950  222.1960 O   0  0  0  0  0  0  0  0  0  0  0  0
  140.1230   72.5520  222.0930 C   0  0  0  0  0  0  0  0  0  0  0  0
  141.2550   72.4960  221.3090 C   0  0  0  0  0  0  0  0  0  0  0  0
  141.8010   73.6730  220.8280 C   0  0  0  0  0  0  0  0  0  0  0  0
  141.2230   74.8970  221.1250 C   0  0  0  0  0  0  0  0  0  0  0  0
  141.7320   76.0930  220.6680 C   0  0  0  0  0  0  0  0  0  0  0  0
  141.0800   77.2760  221.0200 C   0  0  0  0  0  0  0  0  0  0  0  0
  141.6870   78.8260  220.4650 Cl  0  0  0  0  0  0  0  0  0  0  0  0
  139.9520   77.2790  221.8060 C   0  0  0  0  0  0  0  0  0  0  0  0
  139.4360   76.0770  222.2690 C   0  0  0  0  0  0  0  0  0  0  0  0
  140.0780   74.9110  221.9220 C   0  0  0  0  0  0  0  0  0  0  0  0
  139.5690   73.7490  222.3760 N   0  0  0  0  0  0  0  0  0  0  0  0
  141.4630   71.4119  228.1526 H   0  0  0  0  0  0  0  0  0  0  0  0
  142.2184   72.9704  227.6763 H   0  0  0  0  0  0  0  0  0  0  0  0
  140.4300   72.8021  227.6763 H   0  0  0  0  0  0  0  0  0  0  0  0
  141.5765   70.1045  225.0915 H   0  0  0  0  0  0  0  0  0  0  0  0
  142.0707   69.9980  226.7943 H   0  0  0  0  0  0  0  0  0  0  0  0
  139.3522   71.0132  226.3964 H   0  0  0  0  0  0  0  0  0  0  0  0
  140.3640   70.0938  228.6077 H   0  0  0  0  0  0  0  0  0  0  0  0
  138.7750   69.4988  228.2543 H   0  0  0  0  0  0  0  0  0  0  0  0
  141.4777   68.1516  227.9280 H   0  0  0  0  0  0  0  0  0  0  0  0
  139.9174   67.3803  228.2671 H   0  0  0  0  0  0  0  0  0  0  0  0
  141.2498   67.7286  225.6928 H   0  0  0  0  0  0  0  0  0  0  0  0
  139.7206   66.8917  226.0006 H   0  0  0  0  0  0  0  0  0  0  0  0
  137.1528   69.8272  223.3349 H   0  0  0  0  0  0  0  0  0  0  0  0
  137.3786   70.5459  225.0419 H   0  0  0  0  0  0  0  0  0  0  0  0
  138.1830   72.3680  223.8480 H   0  0  0  0  0  0  0  0  0  0  0  0
  141.7187   71.5279  221.0686 H   0  0  0  0  0  0  0  0  0  0  0  0
  142.7049   73.6366  220.2022 H   0  0  0  0  0  0  0  0  0  0  0  0
  142.6338   76.1152  220.0385 H   0  0  0  0  0  0  0  0  0  0  0  0
  139.4615   78.2286  222.0663 H   0  0  0  0  0  0  0  0  0  0  0  0
  138.5345   76.0570  222.8989 H   0  0  0  0  0  0  0  0  0  0  0  0
  1  2  1  0
  2  3  1  0
  3  4  1  0
  4  5  1  0
  5  6  1  0
  6  7  1  0
  7  8  1  0
  8  9  1  0
  9 10  2  0
  9 11  1  0
 11 12  1  0
 12 13  1  0
 13 14  2  0
 13 15  1  0
 15 16  2  0
 16 17  1  0
 17 18  2  0
 18 19  1  0
 19 20  2  0
 20 21  1  0
 20 22  1  0
 22 23  2  0
 23 24  1  0
 24 25  2  0
  8  4  1  0
 25 15  1  0
 24 18  1  0
  1 26  1  0
  1 27  1  0
  1 28  1  0
  3 29  1  0
  3 30  1  0
  4 31  1  1
  5 32  1  0
  5 33  1  0
  6 34  1  0
  6 35  1  0
  7 36  1  0
  7 37  1  0
 11 38  1  0
 11 39  1  0
 12 40  1  0
 16 41  1  0
 17 42  1  0
 19 43  1  0
 22 44  1  0
 23 45  1  0
M  END
>  <smiles>  (30) 
COC[C@@H]1CCCN1C(=O)CNC(=O)c1ccc2cc(Cl)ccc2n1

>  <score_type>  (30) 
oracle

>  <origin>  (30) 
autodockgpu

>  <m_score__min__energy>  (30) 
-7.2400000000000002

>  <m_primary>  (30) 
energy

>  <rmsd>  (30) 
8.350145736066478

>  <m_score__min__rmsd>  (30) 
8.350145736066478

>  <meeko>  (30) 
{"free_energy": -7.2, "intermolecular_energy": -8.99, "internal_energy": -1.6, "cluster_size": 10, "cluster_id": 1, "rank_in_cluster": 3}

>  <energy>  (30) 
-6.05

>  <cluster_rmsd>  (30) 
1.83

>  <cluster>  (30) 
2

$$$$

     RDKit          3D

 45 47  0  0  0  0  0  0  0  0999 V2000
  141.0610   72.6840  221.7540 C   0  0  0  0  0  0  0  0  0  0  0  0
  140.6840   73.9970  222.0310 O   0  0  0  0  0  0  0  0  0  0  0  0
  141.4620   74.8830  221.2740 C   0  0  0  0  0  0  0  0  0  0  0  0
  140.5110   75.7580  220.5230 C   0  0  2  0  0  0  0  0  0  0  0  0
  141.0740   77.1100  220.1520 C   0  0  0  0  0  0  0  0  0  0  0  0
  141.0770   77.7840  221.5080 C   0  0  0  0  0  0  0  0  0  0  0  0
  140.0100   77.0810  222.3350 C   0  0  0  0  0  0  0  0  0  0  0  0
  139.4080   76.0940  221.4530 N   0  0  0  0  0  0  0  0  0  0  0  0
  138.1380   75.5240  221.3960 C   0  0  0  0  0  0  0  0  0  0  0  0
  137.1430   76.3650  221.4400 O   0  0  0  0  0  0  0  0  0  0  0  0
  137.7400   74.1290  221.2980 C   0  0  0  0  0  0  0  0  0  0  0  0
  138.1660   73.2260  222.3240 N   0  0  0  0  0  0  0  0  0  0  0  0
  137.6970   71.8740  222.3820 C   0  0  0  0  0  0  0  0  0  0  0  0
  136.8740   71.4090  221.5370 O   0  0  0  0  0  0  0  0  0  0  0  0
  138.1820   70.9850  223.4600 C   0  0  0  0  0  0  0  0  0  0  0  0
  137.7080   69.6950  223.5490 C   0  0  0  0  0  0  0  0  0  0  0  0
  138.1720   68.8740  224.5630 C   0  0  0  0  0  0  0  0  0  0  0  0
  139.1010   69.3370  225.4810 C   0  0  0  0  0  0  0  0  0  0  0  0
  139.5900   68.5560  226.5060 C   0  0  0  0  0  0  0  0  0  0  0  0
  140.5250   69.1110  227.3820 C   0  0  0  0  0  0  0  0  0  0  0  0
  141.1790   68.1600  228.7040 Cl  0  0  0  0  0  0  0  0  0  0  0  0
  140.9670   70.4060  227.2500 C   0  0  0  0  0  0  0  0  0  0  0  0
  140.4770   71.1960  226.2200 C   0  0  0  0  0  0  0  0  0  0  0  0
  139.5560   70.6500  225.3570 C   0  0  0  0  0  0  0  0  0  0  0  0
  139.0870   71.4250  224.3590 N   0  0  0  0  0  0  0  0  0  0  0  0
  141.2171   72.1405  222.6975 H   0  0  0  0  0  0  0  0  0  0  0  0
  140.2685   72.1898  221.1729 H   0  0  0  0  0  0  0  0  0  0  0  0
  141.9950   72.6855  221.1729 H   0  0  0  0  0  0  0  0  0  0  0  0
  142.0949   75.4921  221.9361 H   0  0  0  0  0  0  0  0  0  0  0  0
  142.1248   74.3378  220.5858 H   0  0  0  0  0  0  0  0  0  0  0  0
  140.2387   75.2055  219.6116 H   0  0  0  0  0  0  0  0  0  0  0  0
  142.0891   77.0279  219.7362 H   0  0  0  0  0  0  0  0  0  0  0  0
  140.5106   77.6451  219.3734 H   0  0  0  0  0  0  0  0  0  0  0  0
  142.0621   77.6756  221.9853 H   0  0  0  0  0  0  0  0  0  0  0  0
  140.8708   78.8609  221.4204 H   0  0  0  0  0  0  0  0  0  0  0  0
  140.4648   76.5881  223.2069 H   0  0  0  0  0  0  0  0  0  0  0  0
  139.2618   77.7913  222.7166 H   0  0  0  0  0  0  0  0  0  0  0  0
  136.6404   74.1050  221.2796 H   0  0  0  0  0  0  0  0  0  0  0  0
  138.2462   73.7663  220.3912 H   0  0  0  0  0  0  0  0  0  0  0  0
  138.8470   73.4960  223.0950 H   0  0  0  0  0  0  0  0  0  0  0  0
  136.9701   69.3215  222.8237 H   0  0  0  0  0  0  0  0  0  0  0  0
  137.7987   67.8422  224.6407 H   0  0  0  0  0  0  0  0  0  0  0  0
  139.2508   67.5171  226.6313 H   0  0  0  0  0  0  0  0  0  0  0  0
  141.7048   70.8135  227.9568 H   0  0  0  0  0  0  0  0  0  0  0  0
  140.8173   72.2347  226.0966 H   0  0  0  0  0  0  0  0  0  0  0  0
  1  2  1  0
  2  3  1  0
  3  4  1  0
  4  5  1  0
  5  6  1  0
  6  7  1  0
  7  8  1  0
  8  9  1  0
  9 10  2  0
  9 11  1  0
 11 12  1  0
 12 13  1  0
 13 14  2  0
 13 15  1  0
 15 16  2  0
 16 17  1  0
 17 18  2  0
 18 19  1  0
 19 20  2  0
 20 21  1  0
 20 22  1  0
 22 23  2  0
 23 24  1  0
 24 25  2  0
  8  4  1  0
 25 15  1  0
 24 18  1  0
  1 26  1  0
  1 27  1  0
  1 28  1  0
  3 29  1  0
  3 30  1  0
  4 31  1  6
  5 32  1  0
  5 33  1  0
  6 34  1  0
  6 35  1  0
  7 36  1  0
  7 37  1  0
 11 38  1  0
 11 39  1  0
 12 40  1  0
 16 41  1  0
 17 42  1  0
 19 43  1  0
 22 44  1  0
 23 45  1  0
M  END
>  <smiles>  (31) 
COC[C@@H]1CCCN1C(=O)CNC(=O)c1ccc2cc(Cl)ccc2n1

>  <score_type>  (31) 
oracle

>  <origin>  (31) 
autodockgpu

>  <m_score__min__energy>  (31) 
-7.2400000000000002

>  <m_primary>  (31) 
energy

>  <rmsd>  (31) 
2.374487589077695

>  <m_score__min__rmsd>  (31) 
2.374487589077695

>  <meeko>  (31) 
{"free_energy": -6.32, "intermolecular_energy": -8.11, "internal_energy": -2.26, "cluster_size": 26, "cluster_id": 2, "rank_in_cluster": 8}

>  <energy>  (31) 
-6.02

>  <cluster_rmsd>  (31) 
1.76

>  <cluster>  (31) 
2

$$$$

     RDKit          3D

 45 47  0  0  0  0  0  0  0  0999 V2000
  145.1260   73.9590  220.5860 C   0  0  0  0  0  0  0  0  0  0  0  0
  143.8070   74.2040  220.2090 O   0  0  0  0  0  0  0  0  0  0  0  0
  143.6960   75.5010  219.6880 C   0  0  0  0  0  0  0  0  0  0  0  0
  142.2760   75.6670  219.2490 C   0  0  2  0  0  0  0  0  0  0  0  0
  142.1170   76.3950  217.9350 C   0  0  0  0  0  0  0  0  0  0  0  0
  142.4530   77.8070  218.3640 C   0  0  0  0  0  0  0  0  0  0  0  0
  142.1560   77.8810  219.8550 C   0  0  0  0  0  0  0  0  0  0  0  0
  141.6280   76.5760  220.2210 N   0  0  0  0  0  0  0  0  0  0  0  0
  140.7420   76.1560  221.2110 C   0  0  0  0  0  0  0  0  0  0  0  0
  140.8750   76.7420  222.3670 O   0  0  0  0  0  0  0  0  0  0  0  0
  139.6850   75.1580  221.1620 C   0  0  0  0  0  0  0  0  0  0  0  0
  139.6580   74.1470  222.1740 N   0  0  0  0  0  0  0  0  0  0  0  0
  140.1540   72.8250  221.9340 C   0  0  0  0  0  0  0  0  0  0  0  0
  140.6320   72.4780  220.8120 O   0  0  0  0  0  0  0  0  0  0  0  0
  140.1100   71.8260  223.0240 C   0  0  0  0  0  0  0  0  0  0  0  0
  139.5800   70.5760  222.7860 C   0  0  0  0  0  0  0  0  0  0  0  0
  139.5460   69.6510  223.8160 C   0  0  0  0  0  0  0  0  0  0  0  0
  140.0360   69.9700  225.0720 C   0  0  0  0  0  0  0  0  0  0  0  0
  140.0230   69.0820  226.1260 C   0  0  0  0  0  0  0  0  0  0  0  0
  140.5400   69.4940  227.3550 C   0  0  0  0  0  0  0  0  0  0  0  0
  140.5470   68.4020  228.7290 Cl  0  0  0  0  0  0  0  0  0  0  0  0
  141.0590   70.7540  227.5410 C   0  0  0  0  0  0  0  0  0  0  0  0
  141.0740   71.6510  226.4830 C   0  0  0  0  0  0  0  0  0  0  0  0
  140.5650   71.2460  225.2720 C   0  0  0  0  0  0  0  0  0  0  0  0
  140.5850   72.1250  224.2510 N   0  0  0  0  0  0  0  0  0  0  0  0
  145.1972   73.9458  221.6836 H   0  0  0  0  0  0  0  0  0  0  0  0
  145.4470   72.9859  220.1860 H   0  0  0  0  0  0  0  0  0  0  0  0
  145.7750   74.7520  220.1860 H   0  0  0  0  0  0  0  0  0  0  0  0
  143.9429   76.2429  220.4617 H   0  0  0  0  0  0  0  0  0  0  0  0
  144.3902   75.6510  218.8480 H   0  0  0  0  0  0  0  0  0  0  0  0
  141.8576   74.6530  219.1663 H   0  0  0  0  0  0  0  0  0  0  0  0
  142.8204   76.0223  217.1758 H   0  0  0  0  0  0  0  0  0  0  0  0
  141.1304   76.2805  217.4623 H   0  0  0  0  0  0  0  0  0  0  0  0
  143.5157   78.0197  218.1761 H   0  0  0  0  0  0  0  0  0  0  0  0
  141.8650   78.5470  217.8014 H   0  0  0  0  0  0  0  0  0  0  0  0
  143.0766   78.0932  220.4185 H   0  0  0  0  0  0  0  0  0  0  0  0
  141.4416   78.6851  220.0853 H   0  0  0  0  0  0  0  0  0  0  0  0
  138.7269   75.6959  221.2137 H   0  0  0  0  0  0  0  0  0  0  0  0
  139.8778   74.6046  220.2311 H   0  0  0  0  0  0  0  0  0  0  0  0
  139.2760   74.3090  223.1540 H   0  0  0  0  0  0  0  0  0  0  0  0
  139.1892   70.3167  221.7910 H   0  0  0  0  0  0  0  0  0  0  0  0
  139.1250   68.6511  223.6348 H   0  0  0  0  0  0  0  0  0  0  0  0
  139.6133   68.0688  226.0010 H   0  0  0  0  0  0  0  0  0  0  0  0
  141.4596   71.0485  228.5222 H   0  0  0  0  0  0  0  0  0  0  0  0
  141.4840   72.6638  226.6102 H   0  0  0  0  0  0  0  0  0  0  0  0
  1  2  1  0
  2  3  1  0
  3  4  1  0
  4  5  1  0
  5  6  1  0
  6  7  1  0
  7  8  1  0
  8  9  1  0
  9 10  2  0
  9 11  1  0
 11 12  1  0
 12 13  1  0
 13 14  2  0
 13 15  1  0
 15 16  2  0
 16 17  1  0
 17 18  2  0
 18 19  1  0
 19 20  2  0
 20 21  1  0
 20 22  1  0
 22 23  2  0
 23 24  1  0
 24 25  2  0
  8  4  1  0
 25 15  1  0
 24 18  1  0
  1 26  1  0
  1 27  1  0
  1 28  1  0
  3 29  1  0
  3 30  1  0
  4 31  1  6
  5 32  1  0
  5 33  1  0
  6 34  1  0
  6 35  1  0
  7 36  1  0
  7 37  1  0
 11 38  1  0
 11 39  1  0
 12 40  1  0
 16 41  1  0
 17 42  1  0
 19 43  1  0
 22 44  1  0
 23 45  1  0
M  END
>  <smiles>  (32) 
COC[C@@H]1CCCN1C(=O)CNC(=O)c1ccc2cc(Cl)ccc2n1

>  <score_type>  (32) 
oracle

>  <origin>  (32) 
autodockgpu

>  <m_score__min__energy>  (32) 
-7.2400000000000002

>  <m_primary>  (32) 
energy

>  <rmsd>  (32) 
2.3954858930393113

>  <m_score__min__rmsd>  (32) 
2.3954858930393113

>  <meeko>  (32) 
{"free_energy": -6.77, "intermolecular_energy": -8.56, "internal_energy": -1.32, "cluster_size": 26, "cluster_id": 2, "rank_in_cluster": 5}

>  <energy>  (32) 
-6.01

>  <cluster_rmsd>  (32) 
1.86

>  <cluster>  (32) 
2

$$$$

     RDKit          3D

 45 47  0  0  0  0  0  0  0  0999 V2000
  141.1260   72.8490  221.3980 C   0  0  0  0  0  0  0  0  0  0  0  0
  140.5800   72.8320  222.6800 O   0  0  0  0  0  0  0  0  0  0  0  0
  140.4580   71.5080  223.1250 C   0  0  0  0  0  0  0  0  0  0  0  0
  139.3190   71.4840  224.0940 C   0  0  2  0  0  0  0  0  0  0  0  0
  139.5570   70.6160  225.3070 C   0  0  0  0  0  0  0  0  0  0  0  0
  139.4360   69.2410  224.6850 C   0  0  0  0  0  0  0  0  0  0  0  0
  138.5710   69.4110  223.4440 C   0  0  0  0  0  0  0  0  0  0  0  0
  138.1880   70.8140  223.4140 N   0  0  0  0  0  0  0  0  0  0  0  0
  137.0780   71.4820  222.9020 C   0  0  0  0  0  0  0  0  0  0  0  0
  135.9230   70.9500  223.1880 O   0  0  0  0  0  0  0  0  0  0  0  0
  137.0000   72.6860  222.0900 C   0  0  0  0  0  0  0  0  0  0  0  0
  137.9640   73.7190  222.3120 N   0  0  0  0  0  0  0  0  0  0  0  0
  137.7010   75.0840  221.9660 C   0  0  0  0  0  0  0  0  0  0  0  0
  136.6080   75.4470  221.4360 O   0  0  0  0  0  0  0  0  0  0  0  0
  138.7330   76.1100  222.2300 C   0  0  0  0  0  0  0  0  0  0  0  0
  140.0590   75.8280  221.9830 C   0  0  0  0  0  0  0  0  0  0  0  0
  141.0130   76.7990  222.2350 C   0  0  0  0  0  0  0  0  0  0  0  0
  140.6490   78.0400  222.7310 C   0  0  0  0  0  0  0  0  0  0  0  0
  141.5640   79.0360  222.9970 C   0  0  0  0  0  0  0  0  0  0  0  0
  141.1010   80.2550  223.4950 C   0  0  0  0  0  0  0  0  0  0  0  0
  142.2240   81.5550  223.8500 Cl  0  0  0  0  0  0  0  0  0  0  0  0
  139.7650   80.4870  223.7250 C   0  0  0  0  0  0  0  0  0  0  0  0
  138.8410   79.4870  223.4590 C   0  0  0  0  0  0  0  0  0  0  0  0
  139.2960   78.2860  222.9690 C   0  0  0  0  0  0  0  0  0  0  0  0
  138.3900   77.3220  222.7130 N   0  0  0  0  0  0  0  0  0  0  0  0
  142.2233   72.8832  221.4672 H   0  0  0  0  0  0  0  0  0  0  0  0
  140.8208   71.9409  220.8574 H   0  0  0  0  0  0  0  0  0  0  0  0
  140.7649   73.7363  220.8574 H   0  0  0  0  0  0  0  0  0  0  0  0
  140.2479   70.8405  222.2763 H   0  0  0  0  0  0  0  0  0  0  0  0
  141.3885   71.1624  223.5992 H   0  0  0  0  0  0  0  0  0  0  0  0
  139.1593   72.5262  224.4076 H   0  0  0  0  0  0  0  0  0  0  0  0
  140.5561   70.7818  225.7362 H   0  0  0  0  0  0  0  0  0  0  0  0
  138.8725   70.8025  226.1476 H   0  0  0  0  0  0  0  0  0  0  0  0
  140.4296   68.8590  224.4078 H   0  0  0  0  0  0  0  0  0  0  0  0
  138.9917   68.5208  225.3878 H   0  0  0  0  0  0  0  0  0  0  0  0
  139.1425   69.1510  222.5408 H   0  0  0  0  0  0  0  0  0  0  0  0
  137.6903   68.7525  223.4723 H   0  0  0  0  0  0  0  0  0  0  0  0
  137.0917   72.3759  221.0386 H   0  0  0  0  0  0  0  0  0  0  0  0
  136.0417   73.1440  222.3762 H   0  0  0  0  0  0  0  0  0  0  0  0
  138.9220   73.5450  222.7420 H   0  0  0  0  0  0  0  0  0  0  0  0
  140.3556   74.8441  221.5907 H   0  0  0  0  0  0  0  0  0  0  0  0
  142.0735   76.5823  222.0389 H   0  0  0  0  0  0  0  0  0  0  0  0
  142.6375   78.8735  222.8204 H   0  0  0  0  0  0  0  0  0  0  0  0
  139.4314   81.4590  224.1173 H   0  0  0  0  0  0  0  0  0  0  0  0
  137.7679   79.6515  223.6363 H   0  0  0  0  0  0  0  0  0  0  0  0
  1  2  1  0
  2  3  1  0
  3  4  1  0
  4  5  1  0
  5  6  1  0
  6  7  1  0
  7  8  1  0
  8  9  1  0
  9 10  2  0
  9 11  1  0
 11 12  1  0
 12 13  1  0
 13 14  2  0
 13 15  1  0
 15 16  2  0
 16 17  1  0
 17 18  2  0
 18 19  1  0
 19 20  2  0
 20 21  1  0
 20 22  1  0
 22 23  2  0
 23 24  1  0
 24 25  2  0
  8  4  1  0
 25 15  1  0
 24 18  1  0
  1 26  1  0
  1 27  1  0
  1 28  1  0
  3 29  1  0
  3 30  1  0
  4 31  1  1
  5 32  1  0
  5 33  1  0
  6 34  1  0
  6 35  1  0
  7 36  1  0
  7 37  1  0
 11 38  1  0
 11 39  1  0
 12 40  1  0
 16 41  1  0
 17 42  1  0
 19 43  1  0
 22 44  1  0
 23 45  1  0
M  END
>  <smiles>  (33) 
COC[C@@H]1CCCN1C(=O)CNC(=O)c1ccc2cc(Cl)ccc2n1

>  <score_type>  (33) 
oracle

>  <origin>  (33) 
autodockgpu

>  <m_score__min__energy>  (33) 
-7.2400000000000002

>  <m_primary>  (33) 
energy

>  <rmsd>  (33) 
7.944706138794715

>  <m_score__min__rmsd>  (33) 
7.944706138794715

>  <meeko>  (33) 
{"free_energy": -5.83, "intermolecular_energy": -7.62, "internal_energy": -1.99, "cluster_size": 2, "cluster_id": 6, "rank_in_cluster": 1}

>  <energy>  (33) 
-5.92

>  <cluster_rmsd>  (33) 
1.88

>  <cluster>  (33) 
2

$$$$

     RDKit          3D

 45 47  0  0  0  0  0  0  0  0999 V2000
  141.4340   72.2520  227.5750 C   0  0  0  0  0  0  0  0  0  0  0  0
  141.4560   71.9600  226.2130 O   0  0  0  0  0  0  0  0  0  0  0  0
  141.2920   70.5810  226.0200 C   0  0  0  0  0  0  0  0  0  0  0  0
  139.9330   70.2340  226.5370 C   0  0  2  0  0  0  0  0  0  0  0  0
  139.9440   69.4590  227.8340 C   0  0  0  0  0  0  0  0  0  0  0  0
  140.4190   68.1100  227.3400 C   0  0  0  0  0  0  0  0  0  0  0  0
  140.0390   68.0380  225.8680 C   0  0  0  0  0  0  0  0  0  0  0  0
  139.3380   69.2780  225.5760 N   0  0  0  0  0  0  0  0  0  0  0  0
  138.3480   69.6120  224.6550 C   0  0  0  0  0  0  0  0  0  0  0  0
  137.1220   69.5000  225.0820 O   0  0  0  0  0  0  0  0  0  0  0  0
  138.4630   70.0670  223.2780 C   0  0  0  0  0  0  0  0  0  0  0  0
  138.9020   71.4080  223.0390 N   0  0  0  0  0  0  0  0  0  0  0  0
  139.9390   71.7070  222.0980 C   0  0  0  0  0  0  0  0  0  0  0  0
  140.5310   70.8010  221.4370 O   0  0  0  0  0  0  0  0  0  0  0  0
  140.3410   73.1140  221.8860 C   0  0  0  0  0  0  0  0  0  0  0  0
  141.5100   73.3990  221.2140 C   0  0  0  0  0  0  0  0  0  0  0  0
  141.8730   74.7210  221.0220 C   0  0  0  0  0  0  0  0  0  0  0  0
  141.0770   75.7510  221.4970 C   0  0  0  0  0  0  0  0  0  0  0  0
  141.3980   77.0810  221.3300 C   0  0  0  0  0  0  0  0  0  0  0  0
  140.5330   78.0480  221.8440 C   0  0  0  0  0  0  0  0  0  0  0  0
  140.8950   79.7550  221.6590 Cl  0  0  0  0  0  0  0  0  0  0  0  0
  139.3770   77.7120  222.5090 C   0  0  0  0  0  0  0  0  0  0  0  0
  139.0500   76.3740  222.6800 C   0  0  0  0  0  0  0  0  0  0  0  0
  139.9020   75.4210  222.1730 C   0  0  0  0  0  0  0  0  0  0  0  0
  139.5740   74.1250  222.3440 N   0  0  0  0  0  0  0  0  0  0  0  0
  141.5044   71.3178  228.1515 H   0  0  0  0  0  0  0  0  0  0  0  0
  142.2858   72.9018  227.8245 H   0  0  0  0  0  0  0  0  0  0  0  0
  140.4945   72.7669  227.8245 H   0  0  0  0  0  0  0  0  0  0  0  0
  141.3644   70.3366  224.9499 H   0  0  0  0  0  0  0  0  0  0  0  0
  142.0728   70.0121  226.5460 H   0  0  0  0  0  0  0  0  0  0  0  0
  139.4034   71.1878  226.6776 H   0  0  0  0  0  0  0  0  0  0  0  0
  140.6436   69.8949  228.5624 H   0  0  0  0  0  0  0  0  0  0  0  0
  138.9821   69.4410  228.3673 H   0  0  0  0  0  0  0  0  0  0  0  0
  141.5094   68.0236  227.4568 H   0  0  0  0  0  0  0  0  0  0  0  0
  139.9610   67.2899  227.9124 H   0  0  0  0  0  0  0  0  0  0  0  0
  140.9407   67.9522  225.2439 H   0  0  0  0  0  0  0  0  0  0  0  0
  139.4116   67.1598  225.6555 H   0  0  0  0  0  0  0  0  0  0  0  0
  139.1739   69.3970  222.7723 H   0  0  0  0  0  0  0  0  0  0  0  0
  137.4301   70.0491  222.9000 H   0  0  0  0  0  0  0  0  0  0  0  0
  138.4920   72.2550  223.5350 H   0  0  0  0  0  0  0  0  0  0  0  0
  142.1467   72.5861  220.8349 H   0  0  0  0  0  0  0  0  0  0  0  0
  142.8043   74.9566  220.4861 H   0  0  0  0  0  0  0  0  0  0  0  0
  142.3175   77.3743  220.8022 H   0  0  0  0  0  0  0  0  0  0  0  0
  138.7161   78.4983  222.9027 H   0  0  0  0  0  0  0  0  0  0  0  0
  138.1305   76.0826  223.2089 H   0  0  0  0  0  0  0  0  0  0  0  0
  1  2  1  0
  2  3  1  0
  3  4  1  0
  4  5  1  0
  5  6  1  0
  6  7  1  0
  7  8  1  0
  8  9  1  0
  9 10  2  0
  9 11  1  0
 11 12  1  0
 12 13  1  0
 13 14  2  0
 13 15  1  0
 15 16  2  0
 16 17  1  0
 17 18  2  0
 18 19  1  0
 19 20  2  0
 20 21  1  0
 20 22  1  0
 22 23  2  0
 23 24  1  0
 24 25  2  0
  8  4  1  0
 25 15  1  0
 24 18  1  0
  1 26  1  0
  1 27  1  0
  1 28  1  0
  3 29  1  0
  3 30  1  0
  4 31  1  1
  5 32  1  0
  5 33  1  0
  6 34  1  0
  6 35  1  0
  7 36  1  0
  7 37  1  0
 11 38  1  0
 11 39  1  0
 12 40  1  0
 16 41  1  0
 17 42  1  0
 19 43  1  0
 22 44  1  0
 23 45  1  0
M  END
>  <smiles>  (34) 
COC[C@@H]1CCCN1C(=O)CNC(=O)c1ccc2cc(Cl)ccc2n1

>  <score_type>  (34) 
oracle

>  <origin>  (34) 
autodockgpu

>  <m_score__min__energy>  (34) 
-7.2400000000000002

>  <m_primary>  (34) 
energy

>  <rmsd>  (34) 
8.37615745039944

>  <m_score__min__rmsd>  (34) 
8.37615745039944

>  <meeko>  (34) 
{"free_energy": -7.07, "intermolecular_energy": -8.86, "internal_energy": -1.46, "cluster_size": 10, "cluster_id": 1, "rank_in_cluster": 5}

>  <energy>  (34) 
-5.89

>  <cluster_rmsd>  (34) 
1.95

>  <cluster>  (34) 
2

$$$$

     RDKit          3D

 45 47  0  0  0  0  0  0  0  0999 V2000
  141.4090   68.0870  229.1070 C   0  0  0  0  0  0  0  0  0  0  0  0
  140.3390   68.1690  228.2170 O   0  0  0  0  0  0  0  0  0  0  0  0
  140.3190   69.4360  227.6170 C   0  0  0  0  0  0  0  0  0  0  0  0
  140.6800   69.2360  226.1800 C   0  0  2  0  0  0  0  0  0  0  0  0
  141.8090   70.1170  225.6980 C   0  0  0  0  0  0  0  0  0  0  0  0
  141.1010   71.4540  225.6350 C   0  0  0  0  0  0  0  0  0  0  0  0
  139.6210   71.1450  225.4590 C   0  0  0  0  0  0  0  0  0  0  0  0
  139.5240   69.6960  225.3770 N   0  0  0  0  0  0  0  0  0  0  0  0
  138.6230   68.8410  224.7450 C   0  0  0  0  0  0  0  0  0  0  0  0
  138.9260   67.5740  224.7900 O   0  0  0  0  0  0  0  0  0  0  0  0
  137.3900   69.1390  224.0340 C   0  0  0  0  0  0  0  0  0  0  0  0
  136.5030   70.1140  224.5890 N   0  0  0  0  0  0  0  0  0  0  0  0
  135.2390   69.7500  225.1560 C   0  0  0  0  0  0  0  0  0  0  0  0
  134.8350   68.5490  225.1850 O   0  0  0  0  0  0  0  0  0  0  0  0
  134.3700   70.8030  225.7260 C   0  0  0  0  0  0  0  0  0  0  0  0
  133.2300   70.4510  226.4150 C   0  0  0  0  0  0  0  0  0  0  0  0
  132.4270   71.4470  226.9430 C   0  0  0  0  0  0  0  0  0  0  0  0
  132.7570   72.7830  226.7850 C   0  0  0  0  0  0  0  0  0  0  0  0
  131.9880   73.8080  227.2920 C   0  0  0  0  0  0  0  0  0  0  0  0
  132.4030   75.1240  227.0810 C   0  0  0  0  0  0  0  0  0  0  0  0
  131.4600   76.4660  227.7060 Cl  0  0  0  0  0  0  0  0  0  0  0  0
  133.5500   75.4230  226.3850 C   0  0  0  0  0  0  0  0  0  0  0  0
  134.3270   74.3950  225.8710 C   0  0  0  0  0  0  0  0  0  0  0  0
  133.9190   73.0980  226.0790 C   0  0  0  0  0  0  0  0  0  0  0  0
  134.6820   72.1070  225.5770 N   0  0  0  0  0  0  0  0  0  0  0  0
  141.0303   68.1160  230.1393 H   0  0  0  0  0  0  0  0  0  0  0  0
  141.9518   67.1446  228.9419 H   0  0  0  0  0  0  0  0  0  0  0  0
  142.0891   68.9357  228.9419 H   0  0  0  0  0  0  0  0  0  0  0  0
  139.3150   69.8780  227.6978 H   0  0  0  0  0  0  0  0  0  0  0  0
  141.0253   70.1193  228.1112 H   0  0  0  0  0  0  0  0  0  0  0  0
  140.9631   68.1780  226.0771 H   0  0  0  0  0  0  0  0  0  0  0  0
  142.6459   70.1329  226.4117 H   0  0  0  0  0  0  0  0  0  0  0  0
  142.2721   69.7963  224.7532 H   0  0  0  0  0  0  0  0  0  0  0  0
  141.2647   72.0161  226.5663 H   0  0  0  0  0  0  0  0  0  0  0  0
  141.4823   72.0700  224.8073 H   0  0  0  0  0  0  0  0  0  0  0  0
  139.0470   71.5189  226.3196 H   0  0  0  0  0  0  0  0  0  0  0  0
  139.2112   71.6290  224.5602 H   0  0  0  0  0  0  0  0  0  0  0  0
  137.6703   69.4889  223.0295 H   0  0  0  0  0  0  0  0  0  0  0  0
  136.8196   68.1994  224.0767 H   0  0  0  0  0  0  0  0  0  0  0  0
  136.7210   71.1550  224.6190 H   0  0  0  0  0  0  0  0  0  0  0  0
  132.9615   69.3921  226.5438 H   0  0  0  0  0  0  0  0  0  0  0  0
  131.5154   71.1743  227.4949 H   0  0  0  0  0  0  0  0  0  0  0  0
  131.0657   73.5935  227.8517 H   0  0  0  0  0  0  0  0  0  0  0  0
  133.8500   76.4708  226.2365 H   0  0  0  0  0  0  0  0  0  0  0  0
  135.2480   74.6121  225.3101 H   0  0  0  0  0  0  0  0  0  0  0  0
  1  2  1  0
  2  3  1  0
  3  4  1  0
  4  5  1  0
  5  6  1  0
  6  7  1  0
  7  8  1  0
  8  9  1  0
  9 10  2  0
  9 11  1  0
 11 12  1  0
 12 13  1  0
 13 14  2  0
 13 15  1  0
 15 16  2  0
 16 17  1  0
 17 18  2  0
 18 19  1  0
 19 20  2  0
 20 21  1  0
 20 22  1  0
 22 23  2  0
 23 24  1  0
 24 25  2  0
  8  4  1  0
 25 15  1  0
 24 18  1  0
  1 26  1  0
  1 27  1  0
  1 28  1  0
  3 29  1  0
  3 30  1  0
  4 31  1  1
  5 32  1  0
  5 33  1  0
  6 34  1  0
  6 35  1  0
  7 36  1  0
  7 37  1  0
 11 38  1  0
 11 39  1  0
 12 40  1  0
 16 41  1  0
 17 42  1  0
 19 43  1  0
 22 44  1  0
 23 45  1  0
M  END
>  <smiles>  (35) 
COC[C@@H]1CCCN1C(=O)CNC(=O)c1ccc2cc(Cl)ccc2n1

>  <score_type>  (35) 
oracle

>  <origin>  (35) 
autodockgpu

>  <m_score__min__energy>  (35) 
-7.2400000000000002

>  <m_primary>  (35) 
energy

>  <rmsd>  (35) 
8.088578241414261

>  <m_score__min__rmsd>  (35) 
8.088578241414261

>  <meeko>  (35) 
{"free_energy": -6.62, "intermolecular_energy": -8.41, "internal_energy": -1.38, "cluster_size": 7, "cluster_id": 4, "rank_in_cluster": 5}

>  <energy>  (35) 
-5.86

>  <cluster_rmsd>  (35) 
1.89

>  <cluster>  (35) 
2

$$$$

     RDKit          3D

 45 47  0  0  0  0  0  0  0  0999 V2000
  137.6770   77.1730  222.7210 C   0  0  0  0  0  0  0  0  0  0  0  0
  138.6200   77.8510  221.9500 O   0  0  0  0  0  0  0  0  0  0  0  0
  139.4380   78.6300  222.7790 C   0  0  0  0  0  0  0  0  0  0  0  0
  140.6990   77.8540  222.9900 C   0  0  2  0  0  0  0  0  0  0  0  0
  141.8340   78.6650  223.5700 C   0  0  0  0  0  0  0  0  0  0  0  0
  142.2100   79.5050  222.3690 C   0  0  0  0  0  0  0  0  0  0  0  0
  141.7580   78.7220  221.1440 C   0  0  0  0  0  0  0  0  0  0  0  0
  141.2020   77.4760  221.6500 N   0  0  0  0  0  0  0  0  0  0  0  0
  141.1010   76.1960  221.1110 C   0  0  0  0  0  0  0  0  0  0  0  0
  142.1790   75.7440  220.5330 O   0  0  0  0  0  0  0  0  0  0  0  0
  139.9760   75.2750  221.0850 C   0  0  0  0  0  0  0  0  0  0  0  0
  139.8950   74.2710  222.1020 N   0  0  0  0  0  0  0  0  0  0  0  0
  140.2600   72.9100  221.8500 C   0  0  0  0  0  0  0  0  0  0  0  0
  140.6620   72.5190  220.7130 O   0  0  0  0  0  0  0  0  0  0  0  0
  140.1670   71.9200  222.9450 C   0  0  0  0  0  0  0  0  0  0  0  0
  139.5740   70.6970  222.7150 C   0  0  0  0  0  0  0  0  0  0  0  0
  139.4950   69.7810  223.7490 C   0  0  0  0  0  0  0  0  0  0  0  0
  140.0010   70.0820  225.0040 C   0  0  0  0  0  0  0  0  0  0  0  0
  139.9430   69.2010  226.0630 C   0  0  0  0  0  0  0  0  0  0  0  0
  140.4810   69.5940  227.2900 C   0  0  0  0  0  0  0  0  0  0  0  0
  140.4330   68.5120  228.6700 Cl  0  0  0  0  0  0  0  0  0  0  0  0
  141.0610   70.8280  227.4680 C   0  0  0  0  0  0  0  0  0  0  0  0
  141.1210   71.7170  226.4050 C   0  0  0  0  0  0  0  0  0  0  0  0
  140.5920   71.3310  225.1960 C   0  0  0  0  0  0  0  0  0  0  0  0
  140.6560   72.2020  224.1700 N   0  0  0  0  0  0  0  0  0  0  0  0
  137.8947   77.3295  223.7878 H   0  0  0  0  0  0  0  0  0  0  0  0
  136.6718   77.5565  222.4918 H   0  0  0  0  0  0  0  0  0  0  0  0
  137.7204   76.0980  222.4918 H   0  0  0  0  0  0  0  0  0  0  0  0
  139.6615   79.5922  222.2951 H   0  0  0  0  0  0  0  0  0  0  0  0
  138.9408   78.8451  223.7364 H   0  0  0  0  0  0  0  0  0  0  0  0
  140.4437   77.0297  223.6722 H   0  0  0  0  0  0  0  0  0  0  0  0
  141.4997   79.2875  224.4130 H   0  0  0  0  0  0  0  0  0  0  0  0
  142.6575   78.0686  223.9898 H   0  0  0  0  0  0  0  0  0  0  0  0
  141.6989   80.4782  222.4094 H   0  0  0  0  0  0  0  0  0  0  0  0
  143.2917   79.7028  222.3413 H   0  0  0  0  0  0  0  0  0  0  0  0
  140.9925   79.2857  220.5906 H   0  0  0  0  0  0  0  0  0  0  0  0
  142.5923   78.5399  220.4506 H   0  0  0  0  0  0  0  0  0  0  0  0
  139.0593   75.8794  221.1508 H   0  0  0  0  0  0  0  0  0  0  0  0
  140.1135   74.7062  220.1536 H   0  0  0  0  0  0  0  0  0  0  0  0
  139.5660   74.4690  223.0950 H   0  0  0  0  0  0  0  0  0  0  0  0
  139.1688   70.4524  221.7220 H   0  0  0  0  0  0  0  0  0  0  0  0
  139.0250   68.8021  223.5731 H   0  0  0  0  0  0  0  0  0  0  0  0
  139.4825   68.2092  225.9437 H   0  0  0  0  0  0  0  0  0  0  0  0
  141.4750   71.1085  228.4478 H   0  0  0  0  0  0  0  0  0  0  0  0
  141.5815   72.7086  226.5265 H   0  0  0  0  0  0  0  0  0  0  0  0
  1  2  1  0
  2  3  1  0
  3  4  1  0
  4  5  1  0
  5  6  1  0
  6  7  1  0
  7  8  1  0
  8  9  1  0
  9 10  2  0
  9 11  1  0
 11 12  1  0
 12 13  1  0
 13 14  2  0
 13 15  1  0
 15 16  2  0
 16 17  1  0
 17 18  2  0
 18 19  1  0
 19 20  2  0
 20 21  1  0
 20 22  1  0
 22 23  2  0
 23 24  1  0
 24 25  2  0
  8  4  1  0
 25 15  1  0
 24 18  1  0
  1 26  1  0
  1 27  1  0
  1 28  1  0
  3 29  1  0
  3 30  1  0
  4 31  1  1
  5 32  1  0
  5 33  1  0
  6 34  1  0
  6 35  1  0
  7 36  1  0
  7 37  1  0
 11 38  1  0
 11 39  1  0
 12 40  1  0
 16 41  1  0
 17 42  1  0
 19 43  1  0
 22 44  1  0
 23 45  1  0
M  END
>  <smiles>  (36) 
COC[C@@H]1CCCN1C(=O)CNC(=O)c1ccc2cc(Cl)ccc2n1

>  <score_type>  (36) 
oracle

>  <origin>  (36) 
autodockgpu

>  <m_score__min__energy>  (36) 
-7.2400000000000002

>  <m_primary>  (36) 
energy

>  <rmsd>  (36) 
3.379645733353374

>  <m_score__min__rmsd>  (36) 
3.379645733353374

>  <meeko>  (36) 
{"free_energy": -6.92, "intermolecular_energy": -8.71, "internal_energy": -1.3, "cluster_size": 26, "cluster_id": 2, "rank_in_cluster": 3}

>  <energy>  (36) 
-5.58

>  <cluster_rmsd>  (36) 
1.46

>  <cluster>  (36) 
2

$$$$

     RDKit          3D

 45 47  0  0  0  0  0  0  0  0999 V2000
  141.1390   72.2800  227.5600 C   0  0  0  0  0  0  0  0  0  0  0  0
  141.5560   71.8790  226.2910 O   0  0  0  0  0  0  0  0  0  0  0  0
  141.3540   70.5010  226.1390 C   0  0  0  0  0  0  0  0  0  0  0  0
  139.9500   70.2230  226.5700 C   0  0  2  0  0  0  0  0  0  0  0  0
  139.8410   69.3510  227.7990 C   0  0  0  0  0  0  0  0  0  0  0  0
  140.2350   68.0110  227.2170 C   0  0  0  0  0  0  0  0  0  0  0  0
  139.9210   68.0840  225.7290 C   0  0  0  0  0  0  0  0  0  0  0  0
  139.3300   69.3950  225.5110 N   0  0  0  0  0  0  0  0  0  0  0  0
  138.4130   69.8760  224.5790 C   0  0  0  0  0  0  0  0  0  0  0  0
  137.1790   69.9510  224.9930 O   0  0  0  0  0  0  0  0  0  0  0  0
  138.6120   70.3100  223.2050 C   0  0  0  0  0  0  0  0  0  0  0  0
  139.0150   71.6630  222.9710 N   0  0  0  0  0  0  0  0  0  0  0  0
  140.0400   71.9930  222.0270 C   0  0  0  0  0  0  0  0  0  0  0  0
  140.6510   71.1060  221.3580 O   0  0  0  0  0  0  0  0  0  0  0  0
  140.4050   73.4110  221.8200 C   0  0  0  0  0  0  0  0  0  0  0  0
  141.5410   73.7290  221.1060 C   0  0  0  0  0  0  0  0  0  0  0  0
  141.8690   75.0610  220.9200 C   0  0  0  0  0  0  0  0  0  0  0  0
  141.0730   76.0680  221.4420 C   0  0  0  0  0  0  0  0  0  0  0  0
  141.3610   77.4060  221.2820 C   0  0  0  0  0  0  0  0  0  0  0  0
  140.4990   78.3480  221.8440 C   0  0  0  0  0  0  0  0  0  0  0  0
  140.8190   80.0640  221.6700 Cl  0  0  0  0  0  0  0  0  0  0  0  0
  139.3770   77.9790  222.5490 C   0  0  0  0  0  0  0  0  0  0  0  0
  139.0830   76.6330  222.7130 C   0  0  0  0  0  0  0  0  0  0  0  0
  139.9320   75.7040  222.1590 C   0  0  0  0  0  0  0  0  0  0  0  0
  139.6380   74.4000  222.3230 N   0  0  0  0  0  0  0  0  0  0  0  0
  141.7096   71.7313  228.3238 H   0  0  0  0  0  0  0  0  0  0  0  0
  141.3118   73.3599  227.6785 H   0  0  0  0  0  0  0  0  0  0  0  0
  140.0667   72.0651  227.6785 H   0  0  0  0  0  0  0  0  0  0  0  0
  141.4921   70.2113  225.0869 H   0  0  0  0  0  0  0  0  0  0  0  0
  142.0738   69.9267  226.7407 H   0  0  0  0  0  0  0  0  0  0  0  0
  139.4882   71.2020  226.7660 H   0  0  0  0  0  0  0  0  0  0  0  0
  140.5365   69.6719  228.5885 H   0  0  0  0  0  0  0  0  0  0  0  0
  138.8564   69.3680  228.2892 H   0  0  0  0  0  0  0  0  0  0  0  0
  141.3088   67.8293  227.3714 H   0  0  0  0  0  0  0  0  0  0  0  0
  139.6892   67.1880  227.7015 H   0  0  0  0  0  0  0  0  0  0  0  0
  140.8423   67.9763  225.1377 H   0  0  0  0  0  0  0  0  0  0  0  0
  139.2403   67.2772  225.4195 H   0  0  0  0  0  0  0  0  0  0  0  0
  139.3840   69.6602  222.7671 H   0  0  0  0  0  0  0  0  0  0  0  0
  137.6116   70.2434  222.7525 H   0  0  0  0  0  0  0  0  0  0  0  0
  138.5860   72.4980  223.4730 H   0  0  0  0  0  0  0  0  0  0  0  0
  142.1781   72.9348  220.6897 H   0  0  0  0  0  0  0  0  0  0  0  0
  142.7729   75.3233  220.3507 H   0  0  0  0  0  0  0  0  0  0  0  0
  142.2527   77.7249  220.7224 H   0  0  0  0  0  0  0  0  0  0  0  0
  138.7170   78.7462  222.9800 H   0  0  0  0  0  0  0  0  0  0  0  0
  138.1910   76.3163  223.2734 H   0  0  0  0  0  0  0  0  0  0  0  0
  1  2  1  0
  2  3  1  0
  3  4  1  0
  4  5  1  0
  5  6  1  0
  6  7  1  0
  7  8  1  0
  8  9  1  0
  9 10  2  0
  9 11  1  0
 11 12  1  0
 12 13  1  0
 13 14  2  0
 13 15  1  0
 15 16  2  0
 16 17  1  0
 17 18  2  0
 18 19  1  0
 19 20  2  0
 20 21  1  0
 20 22  1  0
 22 23  2  0
 23 24  1  0
 24 25  2  0
  8  4  1  0
 25 15  1  0
 24 18  1  0
  1 26  1  0
  1 27  1  0
  1 28  1  0
  3 29  1  0
  3 30  1  0
  4 31  1  1
  5 32  1  0
  5 33  1  0
  6 34  1  0
  6 35  1  0
  7 36  1  0
  7 37  1  0
 11 38  1  0
 11 39  1  0
 12 40  1  0
 16 41  1  0
 17 42  1  0
 19 43  1  0
 22 44  1  0
 23 45  1  0
M  END
>  <smiles>  (37) 
COC[C@@H]1CCCN1C(=O)CNC(=O)c1ccc2cc(Cl)ccc2n1

>  <score_type>  (37) 
oracle

>  <origin>  (37) 
autodockgpu

>  <m_score__min__energy>  (37) 
-7.2400000000000002

>  <m_primary>  (37) 
energy

>  <rmsd>  (37) 
8.443393301237338

>  <m_score__min__rmsd>  (37) 
8.443393301237338

>  <meeko>  (37) 
{"free_energy": -7.14, "intermolecular_energy": -8.93, "internal_energy": -1.44, "cluster_size": 10, "cluster_id": 1, "rank_in_cluster": 4}

>  <energy>  (37) 
-6.87

>  <cluster_rmsd>  (37) 
0.0

>  <cluster>  (37) 
3

$$$$

     RDKit          3D

 45 47  0  0  0  0  0  0  0  0999 V2000
  145.1800   73.4450  220.8260 C   0  0  0  0  0  0  0  0  0  0  0  0
  143.8460   73.7560  220.5640 O   0  0  0  0  0  0  0  0  0  0  0  0
  143.7510   75.0680  220.0840 C   0  0  0  0  0  0  0  0  0  0  0  0
  142.3860   75.2110  219.4900 C   0  0  2  0  0  0  0  0  0  0  0  0
  142.3800   75.7150  218.0660 C   0  0  0  0  0  0  0  0  0  0  0  0
  142.7500   77.1650  218.2900 C   0  0  0  0  0  0  0  0  0  0  0  0
  142.3270   77.4980  219.7150 C   0  0  0  0  0  0  0  0  0  0  0  0
  141.7020   76.2920  220.2360 N   0  0  0  0  0  0  0  0  0  0  0  0
  140.7130   76.0760  221.1920 C   0  0  0  0  0  0  0  0  0  0  0  0
  140.8040   76.8060  222.2690 O   0  0  0  0  0  0  0  0  0  0  0  0
  139.5860   75.1560  221.1850 C   0  0  0  0  0  0  0  0  0  0  0  0
  139.5440   74.1250  222.1760 N   0  0  0  0  0  0  0  0  0  0  0  0
  140.3060   72.9200  222.0450 C   0  0  0  0  0  0  0  0  0  0  0  0
  141.0480   72.6970  221.0410 O   0  0  0  0  0  0  0  0  0  0  0  0
  140.2300   71.8950  223.1090 C   0  0  0  0  0  0  0  0  0  0  0  0
  139.6790   70.6620  222.8340 C   0  0  0  0  0  0  0  0  0  0  0  0
  139.6150   69.7130  223.8400 C   0  0  0  0  0  0  0  0  0  0  0  0
  140.0960   69.9910  225.1100 C   0  0  0  0  0  0  0  0  0  0  0  0
  140.0520   69.0780  226.1410 C   0  0  0  0  0  0  0  0  0  0  0  0
  140.5620   69.4500  227.3870 C   0  0  0  0  0  0  0  0  0  0  0  0
  140.5310   68.3250  228.7330 Cl  0  0  0  0  0  0  0  0  0  0  0  0
  141.1010   70.6950  227.6100 C   0  0  0  0  0  0  0  0  0  0  0  0
  141.1460   71.6180  226.5750 C   0  0  0  0  0  0  0  0  0  0  0  0
  140.6450   71.2520  225.3470 C   0  0  0  0  0  0  0  0  0  0  0  0
  140.6940   72.1550  224.3490 N   0  0  0  0  0  0  0  0  0  0  0  0
  145.3410   73.4075  221.9135 H   0  0  0  0  0  0  0  0  0  0  0  0
  145.4217   72.4664  220.3856 H   0  0  0  0  0  0  0  0  0  0  0  0
  145.8295   74.2158  220.3856 H   0  0  0  0  0  0  0  0  0  0  0  0
  143.8823   75.7838  220.9089 H   0  0  0  0  0  0  0  0  0  0  0  0
  144.5312   75.2730  219.3361 H   0  0  0  0  0  0  0  0  0  0  0  0
  141.9253   74.2130  219.5330 H   0  0  0  0  0  0  0  0  0  0  0  0
  143.1266   75.1955  217.4474 H   0  0  0  0  0  0  0  0  0  0  0  0
  141.4339   75.5595  217.5269 H   0  0  0  0  0  0  0  0  0  0  0  0
  143.8348   77.3040  218.1722 H   0  0  0  0  0  0  0  0  0  0  0  0
  142.2529   77.8220  217.5611 H   0  0  0  0  0  0  0  0  0  0  0  0
  143.2041   77.7674  220.3217 H   0  0  0  0  0  0  0  0  0  0  0  0
  141.6379   78.3549  219.7425 H   0  0  0  0  0  0  0  0  0  0  0  0
  138.6734   75.7586  221.3035 H   0  0  0  0  0  0  0  0  0  0  0  0
  139.6857   74.6131  220.2335 H   0  0  0  0  0  0  0  0  0  0  0  0
  138.9550   74.1860  223.0610 H   0  0  0  0  0  0  0  0  0  0  0  0
  139.2951   70.4349  221.8285 H   0  0  0  0  0  0  0  0  0  0  0  0
  139.1771   68.7262  223.6289 H   0  0  0  0  0  0  0  0  0  0  0  0
  139.6240   68.0766  225.9860 H   0  0  0  0  0  0  0  0  0  0  0  0
  141.4943   70.9578  228.6031 H   0  0  0  0  0  0  0  0  0  0  0  0
  141.5725   72.6196  226.7327 H   0  0  0  0  0  0  0  0  0  0  0  0
  1  2  1  0
  2  3  1  0
  3  4  1  0
  4  5  1  0
  5  6  1  0
  6  7  1  0
  7  8  1  0
  8  9  1  0
  9 10  2  0
  9 11  1  0
 11 12  1  0
 12 13  1  0
 13 14  2  0
 13 15  1  0
 15 16  2  0
 16 17  1  0
 17 18  2  0
 18 19  1  0
 19 20  2  0
 20 21  1  0
 20 22  1  0
 22 23  2  0
 23 24  1  0
 24 25  2  0
  8  4  1  0
 25 15  1  0
 24 18  1  0
  1 26  1  0
  1 27  1  0
  1 28  1  0
  3 29  1  0
  3 30  1  0
  4 31  1  6
  5 32  1  0
  5 33  1  0
  6 34  1  0
  6 35  1  0
  7 36  1  0
  7 37  1  0
 11 38  1  0
 11 39  1  0
 12 40  1  0
 16 41  1  0
 17 42  1  0
 19 43  1  0
 22 44  1  0
 23 45  1  0
M  END
>  <smiles>  (38) 
COC[C@@H]1CCCN1C(=O)CNC(=O)c1ccc2cc(Cl)ccc2n1

>  <score_type>  (38) 
oracle

>  <origin>  (38) 
autodockgpu

>  <m_score__min__energy>  (38) 
-7.2400000000000002

>  <m_primary>  (38) 
energy

>  <rmsd>  (38) 
2.449071040974511

>  <m_score__min__rmsd>  (38) 
2.449071040974511

>  <meeko>  (38) 
{"free_energy": -6.82, "intermolecular_energy": -8.61, "internal_energy": -1.31, "cluster_size": 26, "cluster_id": 2, "rank_in_cluster": 4}

>  <energy>  (38) 
-6.05

>  <cluster_rmsd>  (38) 
1.97

>  <cluster>  (38) 
3

$$$$

     RDKit          3D

 45 47  0  0  0  0  0  0  0  0999 V2000
  140.6710   71.4570  224.6090 C   0  0  0  0  0  0  0  0  0  0  0  0
  139.7540   71.4730  225.6590 O   0  0  0  0  0  0  0  0  0  0  0  0
  140.3000   70.8270  226.7760 C   0  0  0  0  0  0  0  0  0  0  0  0
  139.4780   69.5990  227.0050 C   0  0  2  0  0  0  0  0  0  0  0  0
  139.7550   68.9060  228.3190 C   0  0  0  0  0  0  0  0  0  0  0  0
  141.1090   68.2960  228.0230 C   0  0  0  0  0  0  0  0  0  0  0  0
  141.1840   68.1410  226.5100 C   0  0  0  0  0  0  0  0  0  0  0  0
  139.9030   68.6010  225.9980 N   0  0  0  0  0  0  0  0  0  0  0  0
  139.1630   68.2710  224.8650 C   0  0  0  0  0  0  0  0  0  0  0  0
  139.2290   67.0230  224.4950 O   0  0  0  0  0  0  0  0  0  0  0  0
  138.3220   69.1030  224.0190 C   0  0  0  0  0  0  0  0  0  0  0  0
  137.4050   70.0040  224.6470 N   0  0  0  0  0  0  0  0  0  0  0  0
  136.0000   69.7300  224.7080 C   0  0  0  0  0  0  0  0  0  0  0  0
  135.4950   68.6840  224.2010 O   0  0  0  0  0  0  0  0  0  0  0  0
  135.1030   70.6940  225.3810 C   0  0  0  0  0  0  0  0  0  0  0  0
  134.2560   70.2610  226.3780 C   0  0  0  0  0  0  0  0  0  0  0  0
  133.4230   71.1750  227.0000 C   0  0  0  0  0  0  0  0  0  0  0  0
  133.4320   72.5100  226.6300 C   0  0  0  0  0  0  0  0  0  0  0  0
  132.6200   73.4540  227.2200 C   0  0  0  0  0  0  0  0  0  0  0  0
  132.7020   74.7760  226.7800 C   0  0  0  0  0  0  0  0  0  0  0  0
  131.6900   76.0180  227.4970 Cl  0  0  0  0  0  0  0  0  0  0  0  0
  133.5640   75.1590  225.7790 C   0  0  0  0  0  0  0  0  0  0  0  0
  134.3830   74.2110  225.1820 C   0  0  0  0  0  0  0  0  0  0  0  0
  134.3040   72.9090  225.6150 C   0  0  0  0  0  0  0  0  0  0  0  0
  135.1040   71.9970  225.0290 N   0  0  0  0  0  0  0  0  0  0  0  0
  141.6931   71.4392  225.0151 H   0  0  0  0  0  0  0  0  0  0  0  0
  140.5060   70.5616  223.9917 H   0  0  0  0  0  0  0  0  0  0  0  0
  140.5374   72.3576  223.9917 H   0  0  0  0  0  0  0  0  0  0  0  0
  141.3470   70.5517  226.5808 H   0  0  0  0  0  0  0  0  0  0  0  0
  140.2867   71.4830  227.6589 H   0  0  0  0  0  0  0  0  0  0  0  0
  138.4266   69.9202  226.9679 H   0  0  0  0  0  0  0  0  0  0  0  0
  139.8043   69.6208  229.1536 H   0  0  0  0  0  0  0  0  0  0  0  0
  138.9841   68.1862  228.6314 H   0  0  0  0  0  0  0  0  0  0  0  0
  141.9117   68.9587  228.3786 H   0  0  0  0  0  0  0  0  0  0  0  0
  141.2323   67.3284  228.5315 H   0  0  0  0  0  0  0  0  0  0  0  0
  142.0013   68.7542  226.1026 H   0  0  0  0  0  0  0  0  0  0  0  0
  141.3839   67.0988  226.2203 H   0  0  0  0  0  0  0  0  0  0  0  0
  138.9912   69.7070  223.3887 H   0  0  0  0  0  0  0  0  0  0  0  0
  137.6771   68.3859  223.4900 H   0  0  0  0  0  0  0  0  0  0  0  0
  137.7010   70.9190  225.1030 H   0  0  0  0  0  0  0  0  0  0  0  0
  134.2420   69.2022  226.6759 H   0  0  0  0  0  0  0  0  0  0  0  0
  132.7455   70.8371  227.7980 H   0  0  0  0  0  0  0  0  0  0  0  0
  131.9214   73.1715  228.0214 H   0  0  0  0  0  0  0  0  0  0  0  0
  133.6039   76.2091  225.4540 H   0  0  0  0  0  0  0  0  0  0  0  0
  135.0800   74.4954  224.3799 H   0  0  0  0  0  0  0  0  0  0  0  0
  1  2  1  0
  2  3  1  0
  3  4  1  0
  4  5  1  0
  5  6  1  0
  6  7  1  0
  7  8  1  0
  8  9  1  0
  9 10  2  0
  9 11  1  0
 11 12  1  0
 12 13  1  0
 13 14  2  0
 13 15  1  0
 15 16  2  0
 16 17  1  0
 17 18  2  0
 18 19  1  0
 19 20  2  0
 20 21  1  0
 20 22  1  0
 22 23  2  0
 23 24  1  0
 24 25  2  0
  8  4  1  0
 25 15  1  0
 24 18  1  0
  1 26  1  0
  1 27  1  0
  1 28  1  0
  3 29  1  0
  3 30  1  0
  4 31  1  6
  5 32  1  0
  5 33  1  0
  6 34  1  0
  6 35  1  0
  7 36  1  0
  7 37  1  0
 11 38  1  0
 11 39  1  0
 12 40  1  0
 16 41  1  0
 17 42  1  0
 19 43  1  0
 22 44  1  0
 23 45  1  0
M  END
>  <smiles>  (39) 
COC[C@@H]1CCCN1C(=O)CNC(=O)c1ccc2cc(Cl)ccc2n1

>  <score_type>  (39) 
oracle

>  <origin>  (39) 
autodockgpu

>  <m_score__min__energy>  (39) 
-7.2400000000000002

>  <m_primary>  (39) 
energy

>  <rmsd>  (39) 
8.740093445985591

>  <m_score__min__rmsd>  (39) 
8.740093445985591

>  <meeko>  (39) 
{"free_energy": -6.77, "intermolecular_energy": -8.56, "internal_energy": -2.03, "cluster_size": 7, "cluster_id": 4, "rank_in_cluster": 2}

>  <energy>  (39) 
-6.85

>  <cluster_rmsd>  (39) 
0.0

>  <cluster>  (39) 
4

$$$$

     RDKit          3D

 45 47  0  0  0  0  0  0  0  0999 V2000
  141.2700   72.4340  221.5820 C   0  0  0  0  0  0  0  0  0  0  0  0
  141.0500   73.7400  222.0150 O   0  0  0  0  0  0  0  0  0  0  0  0
  141.7760   74.6330  221.2150 C   0  0  0  0  0  0  0  0  0  0  0  0
  140.7990   75.2550  220.2700 C   0  0  2  0  0  0  0  0  0  0  0  0
  141.3820   76.3520  219.4100 C   0  0  0  0  0  0  0  0  0  0  0  0
  141.5300   77.4530  220.4380 C   0  0  0  0  0  0  0  0  0  0  0  0
  140.5110   77.1560  221.5300 C   0  0  0  0  0  0  0  0  0  0  0  0
  139.7950   75.9670  221.0940 N   0  0  0  0  0  0  0  0  0  0  0  0
  138.5030   75.5010  221.3260 C   0  0  0  0  0  0  0  0  0  0  0  0
  137.6190   76.4160  221.6100 O   0  0  0  0  0  0  0  0  0  0  0  0
  137.9780   74.1450  221.3070 C   0  0  0  0  0  0  0  0  0  0  0  0
  138.4160   73.2310  222.3180 N   0  0  0  0  0  0  0  0  0  0  0  0
  137.9090   71.8950  222.3990 C   0  0  0  0  0  0  0  0  0  0  0  0
  137.0390   71.4530  221.5880 O   0  0  0  0  0  0  0  0  0  0  0  0
  138.4100   70.9930  223.4580 C   0  0  0  0  0  0  0  0  0  0  0  0
  138.0280   69.6690  223.4680 C   0  0  0  0  0  0  0  0  0  0  0  0
  138.5060   68.8360  224.4660 C   0  0  0  0  0  0  0  0  0  0  0  0
  139.3550   69.3210  225.4480 C   0  0  0  0  0  0  0  0  0  0  0  0
  139.8540   68.5300  226.4600 C   0  0  0  0  0  0  0  0  0  0  0  0
  140.7050   69.1080  227.4040 C   0  0  0  0  0  0  0  0  0  0  0  0
  141.3670   68.1450  228.7130 Cl  0  0  0  0  0  0  0  0  0  0  0  0
  141.0550   70.4360  227.3510 C   0  0  0  0  0  0  0  0  0  0  0  0
  140.5550   71.2370  226.3330 C   0  0  0  0  0  0  0  0  0  0  0  0
  139.7170   70.6680  225.4030 C   0  0  0  0  0  0  0  0  0  0  0  0
  139.2380   71.4530  224.4190 N   0  0  0  0  0  0  0  0  0  0  0  0
  141.3814   71.7725  222.4538 H   0  0  0  0  0  0  0  0  0  0  0  0
  140.4155   72.1000  220.9752 H   0  0  0  0  0  0  0  0  0  0  0  0
  142.1868   72.3984  220.9752 H   0  0  0  0  0  0  0  0  0  0  0  0
  142.2443   75.4075  221.8403 H   0  0  0  0  0  0  0  0  0  0  0  0
  142.5780   74.1137  220.6699 H   0  0  0  0  0  0  0  0  0  0  0  0
  140.4263   74.4402  219.6318 H   0  0  0  0  0  0  0  0  0  0  0  0
  142.3530   76.0612  218.9826 H   0  0  0  0  0  0  0  0  0  0  0  0
  140.7752   76.6203  218.5326 H   0  0  0  0  0  0  0  0  0  0  0  0
  142.5477   77.4504  220.8555 H   0  0  0  0  0  0  0  0  0  0  0  0
  141.3605   78.4436  219.9909 H   0  0  0  0  0  0  0  0  0  0  0  0
  141.0196   76.9671  222.4869 H   0  0  0  0  0  0  0  0  0  0  0  0
  139.8282   78.0040  221.6869 H   0  0  0  0  0  0  0  0  0  0  0  0
  136.8834   74.2189  221.3876 H   0  0  0  0  0  0  0  0  0  0  0  0
  138.3657   73.7181  220.3703 H   0  0  0  0  0  0  0  0  0  0  0  0
  139.1360   73.4810  223.0610 H   0  0  0  0  0  0  0  0  0  0  0  0
  137.3519   69.2786  222.6931 H   0  0  0  0  0  0  0  0  0  0  0  0
  138.2082   67.7771  224.4793 H   0  0  0  0  0  0  0  0  0  0  0  0
  139.5873   67.4647  226.5229 H   0  0  0  0  0  0  0  0  0  0  0  0
  141.7272   70.8618  228.1105 H   0  0  0  0  0  0  0  0  0  0  0  0
  140.8230   72.3021  226.2719 H   0  0  0  0  0  0  0  0  0  0  0  0
  1  2  1  0
  2  3  1  0
  3  4  1  0
  4  5  1  0
  5  6  1  0
  6  7  1  0
  7  8  1  0
  8  9  1  0
  9 10  2  0
  9 11  1  0
 11 12  1  0
 12 13  1  0
 13 14  2  0
 13 15  1  0
 15 16  2  0
 16 17  1  0
 17 18  2  0
 18 19  1  0
 19 20  2  0
 20 21  1  0
 20 22  1  0
 22 23  2  0
 23 24  1  0
 24 25  2  0
  8  4  1  0
 25 15  1  0
 24 18  1  0
  1 26  1  0
  1 27  1  0
  1 28  1  0
  3 29  1  0
  3 30  1  0
  4 31  1  6
  5 32  1  0
  5 33  1  0
  6 34  1  0
  6 35  1  0
  7 36  1  0
  7 37  1  0
 11 38  1  0
 11 39  1  0
 12 40  1  0
 16 41  1  0
 17 42  1  0
 19 43  1  0
 22 44  1  0
 23 45  1  0
M  END
>  <smiles>  (40) 
COC[C@@H]1CCCN1C(=O)CNC(=O)c1ccc2cc(Cl)ccc2n1

>  <score_type>  (40) 
oracle

>  <origin>  (40) 
autodockgpu

>  <m_score__min__energy>  (40) 
-7.2400000000000002

>  <m_primary>  (40) 
energy

>  <rmsd>  (40) 
2.1517738840638287

>  <m_score__min__rmsd>  (40) 
2.1517738840638287

>  <meeko>  (40) 
{"free_energy": -6.02, "intermolecular_energy": -7.81, "internal_energy": -2.29, "cluster_size": 26, "cluster_id": 2, "rank_in_cluster": 21}

>  <energy>  (40) 
-6.77

>  <cluster_rmsd>  (40) 
1.11

>  <cluster>  (40) 
4

$$$$

     RDKit          3D

 45 47  0  0  0  0  0  0  0  0999 V2000
  142.2180   78.0450  219.0920 C   0  0  0  0  0  0  0  0  0  0  0  0
  141.7810   78.5020  220.3350 O   0  0  0  0  0  0  0  0  0  0  0  0
  141.9150   79.8950  220.4020 C   0  0  0  0  0  0  0  0  0  0  0  0
  141.1570   80.3420  221.6110 C   0  0  2  0  0  0  0  0  0  0  0  0
  141.8290   81.4490  222.3890 C   0  0  0  0  0  0  0  0  0  0  0  0
  142.9640   80.6790  223.0290 C   0  0  0  0  0  0  0  0  0  0  0  0
  142.5100   79.2280  223.0980 C   0  0  0  0  0  0  0  0  0  0  0  0
  141.1570   79.2090  222.5630 N   0  0  0  0  0  0  0  0  0  0  0  0
  140.0570   78.3880  222.8000 C   0  0  0  0  0  0  0  0  0  0  0  0
  139.0670   78.9450  223.4390 O   0  0  0  0  0  0  0  0  0  0  0  0
  139.8340   76.9940  222.4480 C   0  0  0  0  0  0  0  0  0  0  0  0
  140.9130   76.2600  221.8600 N   0  0  0  0  0  0  0  0  0  0  0  0
  140.8360   74.8460  221.6450 C   0  0  0  0  0  0  0  0  0  0  0  0
  139.8160   74.1690  221.9740 O   0  0  0  0  0  0  0  0  0  0  0  0
  141.9790   74.1450  221.0220 C   0  0  0  0  0  0  0  0  0  0  0  0
  143.0530   74.8690  220.5520 C   0  0  0  0  0  0  0  0  0  0  0  0
  144.1160   74.1990  219.9710 C   0  0  0  0  0  0  0  0  0  0  0  0
  144.1080   72.8180  219.8590 C   0  0  0  0  0  0  0  0  0  0  0  0
  145.1430   72.1090  219.2880 C   0  0  0  0  0  0  0  0  0  0  0  0
  145.0440   70.7180  219.2200 C   0  0  0  0  0  0  0  0  0  0  0  0
  146.3330   69.7680  218.5030 Cl  0  0  0  0  0  0  0  0  0  0  0  0
  143.9490   70.0420  219.7040 C   0  0  0  0  0  0  0  0  0  0  0  0
  142.9040   70.7510  220.2790 C   0  0  0  0  0  0  0  0  0  0  0  0
  143.0010   72.1210  220.3460 C   0  0  0  0  0  0  0  0  0  0  0  0
  141.9820   72.8010  220.9070 N   0  0  0  0  0  0  0  0  0  0  0  0
  142.9717   77.2568  219.2354 H   0  0  0  0  0  0  0  0  0  0  0  0
  141.3643   77.6382  218.5301 H   0  0  0  0  0  0  0  0  0  0  0  0
  142.6626   78.8796  218.5301 H   0  0  0  0  0  0  0  0  0  0  0  0
  142.9759   80.1697  220.4967 H   0  0  0  0  0  0  0  0  0  0  0  0
  141.5258   80.3741  219.4915 H   0  0  0  0  0  0  0  0  0  0  0  0
  140.1757   80.6841  221.2503 H   0  0  0  0  0  0  0  0  0  0  0  0
  142.1998   82.2450  221.7265 H   0  0  0  0  0  0  0  0  0  0  0  0
  141.1739   81.9773  223.0974 H   0  0  0  0  0  0  0  0  0  0  0  0
  143.8746   80.7646  222.4179 H   0  0  0  0  0  0  0  0  0  0  0  0
  143.2002   81.0721  224.0289 H   0  0  0  0  0  0  0  0  0  0  0  0
  143.1705   78.5909  222.4915 H   0  0  0  0  0  0  0  0  0  0  0  0
  142.5432   78.8424  224.1277 H   0  0  0  0  0  0  0  0  0  0  0  0
  139.5468   76.4675  223.3701 H   0  0  0  0  0  0  0  0  0  0  0  0
  139.0706   77.0334  221.6570 H   0  0  0  0  0  0  0  0  0  0  0  0
  141.8260   76.7100  221.5470 H   0  0  0  0  0  0  0  0  0  0  0  0
  143.0656   75.9656  220.6374 H   0  0  0  0  0  0  0  0  0  0  0  0
  144.9773   74.7698  219.5937 H   0  0  0  0  0  0  0  0  0  0  0  0
  146.0289   72.6285  218.8939 H   0  0  0  0  0  0  0  0  0  0  0  0
  143.9016   68.9451  219.6358 H   0  0  0  0  0  0  0  0  0  0  0  0
  142.0189   70.2294  220.6720 H   0  0  0  0  0  0  0  0  0  0  0  0
  1  2  1  0
  2  3  1  0
  3  4  1  0
  4  5  1  0
  5  6  1  0
  6  7  1  0
  7  8  1  0
  8  9  1  0
  9 10  2  0
  9 11  1  0
 11 12  1  0
 12 13  1  0
 13 14  2  0
 13 15  1  0
 15 16  2  0
 16 17  1  0
 17 18  2  0
 18 19  1  0
 19 20  2  0
 20 21  1  0
 20 22  1  0
 22 23  2  0
 23 24  1  0
 24 25  2  0
  8  4  1  0
 25 15  1  0
 24 18  1  0
  1 26  1  0
  1 27  1  0
  1 28  1  0
  3 29  1  0
  3 30  1  0
  4 31  1  6
  5 32  1  0
  5 33  1  0
  6 34  1  0
  6 35  1  0
  7 36  1  0
  7 37  1  0
 11 38  1  0
 11 39  1  0
 12 40  1  0
 16 41  1  0
 17 42  1  0
 19 43  1  0
 22 44  1  0
 23 45  1  0
M  END
>  <smiles>  (41) 
COC[C@@H]1CCCN1C(=O)CNC(=O)c1ccc2cc(Cl)ccc2n1

>  <score_type>  (41) 
oracle

>  <origin>  (41) 
autodockgpu

>  <m_score__min__energy>  (41) 
-7.2400000000000002

>  <m_primary>  (41) 
energy

>  <rmsd>  (41) 
6.82374042449364

>  <m_score__min__rmsd>  (41) 
6.82374042449364

>  <meeko>  (41) 
{"free_energy": -5.92, "intermolecular_energy": -7.71, "internal_energy": -1.99, "cluster_size": 1, "cluster_id": 5, "rank_in_cluster": 1}

>  <energy>  (41) 
-6.74

>  <cluster_rmsd>  (41) 
1.08

>  <cluster>  (41) 
4

$$$$

     RDKit          3D

 45 47  0  0  0  0  0  0  0  0999 V2000
  140.9710   73.1590  221.6180 C   0  0  0  0  0  0  0  0  0  0  0  0
  140.3520   74.2340  222.2540 O   0  0  0  0  0  0  0  0  0  0  0  0
  141.0460   75.4170  221.9690 C   0  0  0  0  0  0  0  0  0  0  0  0
  140.1530   76.2410  221.0980 C   0  0  2  0  0  0  0  0  0  0  0  0
  140.1500   77.7140  221.4310 C   0  0  0  0  0  0  0  0  0  0  0  0
  139.3590   77.6990  222.7210 C   0  0  0  0  0  0  0  0  0  0  0  0
  138.4960   76.4470  222.6770 C   0  0  0  0  0  0  0  0  0  0  0  0
  138.7620   75.8250  221.3890 N   0  0  0  0  0  0  0  0  0  0  0  0
  137.9960   75.0190  220.5500 C   0  0  0  0  0  0  0  0  0  0  0  0
  137.7420   75.5160  219.3730 O   0  0  0  0  0  0  0  0  0  0  0  0
  137.4250   73.7010  220.7800 C   0  0  0  0  0  0  0  0  0  0  0  0
  137.8810   72.9500  221.9090 N   0  0  0  0  0  0  0  0  0  0  0  0
  137.6480   71.5410  222.0230 C   0  0  0  0  0  0  0  0  0  0  0  0
  137.0170   70.8890  221.1380 O   0  0  0  0  0  0  0  0  0  0  0  0
  138.1550   70.8170  223.2090 C   0  0  0  0  0  0  0  0  0  0  0  0
  137.6400   69.5790  223.5270 C   0  0  0  0  0  0  0  0  0  0  0  0
  138.1240   68.9120  224.6390 C   0  0  0  0  0  0  0  0  0  0  0  0
  139.1130   69.4760  225.4290 C   0  0  0  0  0  0  0  0  0  0  0  0
  139.6250   68.8500  226.5450 C   0  0  0  0  0  0  0  0  0  0  0  0
  140.6210   69.4980  227.2790 C   0  0  0  0  0  0  0  0  0  0  0  0
  141.3060   68.7450  228.7080 Cl  0  0  0  0  0  0  0  0  0  0  0  0
  141.1000   70.7350  226.9200 C   0  0  0  0  0  0  0  0  0  0  0  0
  140.5880   71.3700  225.7970 C   0  0  0  0  0  0  0  0  0  0  0  0
  139.6070   70.7320  225.0740 C   0  0  0  0  0  0  0  0  0  0  0  0
  139.1170   71.3560  223.9850 N   0  0  0  0  0  0  0  0  0  0  0  0
  141.3699   72.4662  222.3736 H   0  0  0  0  0  0  0  0  0  0  0  0
  140.2374   72.6331  220.9893 H   0  0  0  0  0  0  0  0  0  0  0  0
  141.7941   73.5294  220.9893 H   0  0  0  0  0  0  0  0  0  0  0  0
  141.2713   75.9578  222.9000 H   0  0  0  0  0  0  0  0  0  0  0  0
  142.0010   75.2037  221.4665 H   0  0  0  0  0  0  0  0  0  0  0  0
  140.5078   76.0933  220.0673 H   0  0  0  0  0  0  0  0  0  0  0  0
  141.1692   78.0988  221.5832 H   0  0  0  0  0  0  0  0  0  0  0  0
  139.7359   78.3625  220.6449 H   0  0  0  0  0  0  0  0  0  0  0  0
  140.0392   77.6628  223.5847 H   0  0  0  0  0  0  0  0  0  0  0  0
  138.7443   78.6054  222.8241 H   0  0  0  0  0  0  0  0  0  0  0  0
  138.7696   75.7647  223.4953 H   0  0  0  0  0  0  0  0  0  0  0  0
  137.4293   76.6871  222.7972 H   0  0  0  0  0  0  0  0  0  0  0  0
  136.3388   73.8324  220.8939 H   0  0  0  0  0  0  0  0  0  0  0  0
  137.7513   73.1095  219.9119 H   0  0  0  0  0  0  0  0  0  0  0  0
  138.4150   73.3810  222.7230 H   0  0  0  0  0  0  0  0  0  0  0  0
  136.8539   69.1264  222.9047 H   0  0  0  0  0  0  0  0  0  0  0  0
  137.7189   67.9228  224.8987 H   0  0  0  0  0  0  0  0  0  0  0  0
  139.2566   67.8599  226.8515 H   0  0  0  0  0  0  0  0  0  0  0  0
  141.8850   71.2193  227.5194 H   0  0  0  0  0  0  0  0  0  0  0  0
  140.9580   72.3601  225.4924 H   0  0  0  0  0  0  0  0  0  0  0  0
  1  2  1  0
  2  3  1  0
  3  4  1  0
  4  5  1  0
  5  6  1  0
  6  7  1  0
  7  8  1  0
  8  9  1  0
  9 10  2  0
  9 11  1  0
 11 12  1  0
 12 13  1  0
 13 14  2  0
 13 15  1  0
 15 16  2  0
 16 17  1  0
 17 18  2  0
 18 19  1  0
 19 20  2  0
 20 21  1  0
 20 22  1  0
 22 23  2  0
 23 24  1  0
 24 25  2  0
  8  4  1  0
 25 15  1  0
 24 18  1  0
  1 26  1  0
  1 27  1  0
  1 28  1  0
  3 29  1  0
  3 30  1  0
  4 31  1  6
  5 32  1  0
  5 33  1  0
  6 34  1  0
  6 35  1  0
  7 36  1  0
  7 37  1  0
 11 38  1  0
 11 39  1  0
 12 40  1  0
 16 41  1  0
 17 42  1  0
 19 43  1  0
 22 44  1  0
 23 45  1  0
M  END
>  <smiles>  (42) 
COC[C@@H]1CCCN1C(=O)CNC(=O)c1ccc2cc(Cl)ccc2n1

>  <score_type>  (42) 
oracle

>  <origin>  (42) 
autodockgpu

>  <m_score__min__energy>  (42) 
-7.2400000000000002

>  <m_primary>  (42) 
energy

>  <rmsd>  (42) 
2.62322399006652

>  <m_score__min__rmsd>  (42) 
2.62322399006652

>  <meeko>  (42) 
{"free_energy": -5.86, "intermolecular_energy": -7.65, "internal_energy": -2.37, "cluster_size": 26, "cluster_id": 2, "rank_in_cluster": 25}

>  <energy>  (42) 
-6.64

>  <cluster_rmsd>  (42) 
1.08

>  <cluster>  (42) 
4

$$$$

     RDKit          3D

 45 47  0  0  0  0  0  0  0  0999 V2000
  138.7430   68.1430  223.7000 C   0  0  0  0  0  0  0  0  0  0  0  0
  139.2180   67.2230  224.6330 O   0  0  0  0  0  0  0  0  0  0  0  0
  139.1500   67.7730  225.9200 C   0  0  0  0  0  0  0  0  0  0  0  0
  140.4480   68.4760  226.1570 C   0  0  2  0  0  0  0  0  0  0  0  0
  141.1770   68.0250  227.4010 C   0  0  0  0  0  0  0  0  0  0  0  0
  140.3090   68.6570  228.4680 C   0  0  0  0  0  0  0  0  0  0  0  0
  139.6180   69.8420  227.8080 C   0  0  0  0  0  0  0  0  0  0  0  0
  140.1260   69.8910  226.4460 N   0  0  0  0  0  0  0  0  0  0  0  0
  140.3070   70.9340  225.5400 C   0  0  0  0  0  0  0  0  0  0  0  0
  141.0190   71.9360  225.9730 O   0  0  0  0  0  0  0  0  0  0  0  0
  139.8220   71.0870  224.1770 C   0  0  0  0  0  0  0  0  0  0  0  0
  140.1540   72.2850  223.4680 N   0  0  0  0  0  0  0  0  0  0  0  0
  140.7800   72.2520  222.1810 C   0  0  0  0  0  0  0  0  0  0  0  0
  141.0840   71.1630  221.6070 O   0  0  0  0  0  0  0  0  0  0  0  0
  141.0870   73.5240  221.4920 C   0  0  0  0  0  0  0  0  0  0  0  0
  141.7510   73.5060  220.2840 C   0  0  0  0  0  0  0  0  0  0  0  0
  142.0320   74.7040  219.6510 C   0  0  0  0  0  0  0  0  0  0  0  0
  141.6540   75.9110  220.2170 C   0  0  0  0  0  0  0  0  0  0  0  0
  141.9120   77.1280  219.6230 C   0  0  0  0  0  0  0  0  0  0  0  0
  141.4920   78.2910  220.2700 C   0  0  0  0  0  0  0  0  0  0  0  0
  141.7960   79.8660  219.5570 Cl  0  0  0  0  0  0  0  0  0  0  0  0
  140.8330   78.2560  221.4760 C   0  0  0  0  0  0  0  0  0  0  0  0
  140.5710   77.0330  222.0780 C   0  0  0  0  0  0  0  0  0  0  0  0
  140.9840   75.8870  221.4410 C   0  0  0  0  0  0  0  0  0  0  0  0
  140.7250   74.7050  222.0330 N   0  0  0  0  0  0  0  0  0  0  0  0
  138.2995   69.0019  224.2250 H   0  0  0  0  0  0  0  0  0  0  0  0
  139.5753   68.4886  223.0693 H   0  0  0  0  0  0  0  0  0  0  0  0
  137.9792   67.6646  223.0693 H   0  0  0  0  0  0  0  0  0  0  0  0
  138.3154   68.4867  225.9834 H   0  0  0  0  0  0  0  0  0  0  0  0
  138.9800   66.9916  226.6753 H   0  0  0  0  0  0  0  0  0  0  0  0
  141.0698   68.2827  225.2704 H   0  0  0  0  0  0  0  0  0  0  0  0
  141.1944   66.9285  227.4874 H   0  0  0  0  0  0  0  0  0  0  0  0
  142.2383   68.3115  227.4418 H   0  0  0  0  0  0  0  0  0  0  0  0
  139.5631   67.9341  228.8301 H   0  0  0  0  0  0  0  0  0  0  0  0
  140.9073   68.9743  229.3348 H   0  0  0  0  0  0  0  0  0  0  0  0
  138.5277   69.6961  227.8048 H   0  0  0  0  0  0  0  0  0  0  0  0
  139.8187   70.7790  228.3481 H   0  0  0  0  0  0  0  0  0  0  0  0
  140.2189   70.2430  223.5937 H   0  0  0  0  0  0  0  0  0  0  0  0
  138.7278   71.1287  224.2819 H   0  0  0  0  0  0  0  0  0  0  0  0
  139.9580   73.2610  223.8440 H   0  0  0  0  0  0  0  0  0  0  0  0
  142.0537   72.5513  219.8290 H   0  0  0  0  0  0  0  0  0  0  0  0
  142.5618   74.6981  218.6870 H   0  0  0  0  0  0  0  0  0  0  0  0
  142.4383   77.1813  218.6585 H   0  0  0  0  0  0  0  0  0  0  0  0
  140.5154   79.1910  221.9607 H   0  0  0  0  0  0  0  0  0  0  0  0
  140.0449   76.9820  223.0427 H   0  0  0  0  0  0  0  0  0  0  0  0
  1  2  1  0
  2  3  1  0
  3  4  1  0
  4  5  1  0
  5  6  1  0
  6  7  1  0
  7  8  1  0
  8  9  1  0
  9 10  2  0
  9 11  1  0
 11 12  1  0
 12 13  1  0
 13 14  2  0
 13 15  1  0
 15 16  2  0
 16 17  1  0
 17 18  2  0
 18 19  1  0
 19 20  2  0
 20 21  1  0
 20 22  1  0
 22 23  2  0
 23 24  1  0
 24 25  2  0
  8  4  1  0
 25 15  1  0
 24 18  1  0
  1 26  1  0
  1 27  1  0
  1 28  1  0
  3 29  1  0
  3 30  1  0
  4 31  1  6
  5 32  1  0
  5 33  1  0
  6 34  1  0
  6 35  1  0
  7 36  1  0
  7 37  1  0
 11 38  1  0
 11 39  1  0
 12 40  1  0
 16 41  1  0
 17 42  1  0
 19 43  1  0
 22 44  1  0
 23 45  1  0
M  END
>  <smiles>  (43) 
COC[C@@H]1CCCN1C(=O)CNC(=O)c1ccc2cc(Cl)ccc2n1

>  <score_type>  (43) 
oracle

>  <origin>  (43) 
autodockgpu

>  <m_score__min__energy>  (43) 
-7.2400000000000002

>  <m_primary>  (43) 
energy

>  <rmsd>  (43) 
8.996230813046347

>  <m_score__min__rmsd>  (43) 
8.996230813046347

>  <meeko>  (43) 
{"free_energy": -7.23, "intermolecular_energy": -9.02, "internal_energy": -1.47, "cluster_size": 10, "cluster_id": 1, "rank_in_cluster": 2}

>  <energy>  (43) 
-6.62

>  <cluster_rmsd>  (43) 
0.77

>  <cluster>  (43) 
4

$$$$

     RDKit          3D

 45 47  0  0  0  0  0  0  0  0999 V2000
  138.6550   80.7830  223.7680 C   0  0  0  0  0  0  0  0  0  0  0  0
  139.1330   79.4920  223.9910 O   0  0  0  0  0  0  0  0  0  0  0  0
  139.3970   78.8670  222.7650 C   0  0  0  0  0  0  0  0  0  0  0  0
  140.6220   78.0330  222.9630 C   0  0  2  0  0  0  0  0  0  0  0  0
  141.8320   78.8110  223.4240 C   0  0  0  0  0  0  0  0  0  0  0  0
  142.1860   79.5430  222.1480 C   0  0  0  0  0  0  0  0  0  0  0  0
  141.6220   78.7080  221.0070 C   0  0  0  0  0  0  0  0  0  0  0  0
  141.0270   77.5360  221.6290 N   0  0  0  0  0  0  0  0  0  0  0  0
  140.8240   76.2300  221.1870 C   0  0  0  0  0  0  0  0  0  0  0  0
  141.8280   75.6890  220.5560 O   0  0  0  0  0  0  0  0  0  0  0  0
  139.6600   75.3670  221.3150 C   0  0  0  0  0  0  0  0  0  0  0  0
  139.6830   74.3370  222.3090 N   0  0  0  0  0  0  0  0  0  0  0  0
  139.9840   72.9770  221.9800 C   0  0  0  0  0  0  0  0  0  0  0  0
  140.2340   72.6100  220.7920 O   0  0  0  0  0  0  0  0  0  0  0  0
  140.0040   71.9590  223.0530 C   0  0  0  0  0  0  0  0  0  0  0  0
  139.5420   70.6860  222.7980 C   0  0  0  0  0  0  0  0  0  0  0  0
  139.5680   69.7440  223.8130 C   0  0  0  0  0  0  0  0  0  0  0  0
  140.0490   70.0690  225.0710 C   0  0  0  0  0  0  0  0  0  0  0  0
  140.0930   69.1650  226.1100 C   0  0  0  0  0  0  0  0  0  0  0  0
  140.5950   69.5860  227.3430 C   0  0  0  0  0  0  0  0  0  0  0  0
  140.6730   68.4750  228.6990 Cl  0  0  0  0  0  0  0  0  0  0  0  0
  141.0440   70.8700  227.5460 C   0  0  0  0  0  0  0  0  0  0  0  0
  141.0010   71.7840  226.5030 C   0  0  0  0  0  0  0  0  0  0  0  0
  140.5060   71.3700  225.2880 C   0  0  0  0  0  0  0  0  0  0  0  0
  140.4700   72.2640  224.2820 N   0  0  0  0  0  0  0  0  0  0  0  0
  138.4717   81.2779  224.7331 H   0  0  0  0  0  0  0  0  0  0  0  0
  139.4004   81.3565  223.1975 H   0  0  0  0  0  0  0  0  0  0  0  0
  137.7158   80.7328  223.1975 H   0  0  0  0  0  0  0  0  0  0  0  0
  138.5484   78.2309  222.4733 H   0  0  0  0  0  0  0  0  0  0  0  0
  139.5482   79.6089  221.9671 H   0  0  0  0  0  0  0  0  0  0  0  0
  140.3589   77.2734  223.7139 H   0  0  0  0  0  0  0  0  0  0  0  0
  141.5818   79.5084  224.2371 H   0  0  0  0  0  0  0  0  0  0  0  0
  142.6427   78.1960  223.8417 H   0  0  0  0  0  0  0  0  0  0  0  0
  141.7339   80.5458  222.1460 H   0  0  0  0  0  0  0  0  0  0  0  0
  143.2739   79.6723  222.0495 H   0  0  0  0  0  0  0  0  0  0  0  0
  140.8593   79.2779  220.4562 H   0  0  0  0  0  0  0  0  0  0  0  0
  142.4036   78.4297  220.2847 H   0  0  0  0  0  0  0  0  0  0  0  0
  138.7982   76.0138  221.5365 H   0  0  0  0  0  0  0  0  0  0  0  0
  139.6212   74.8214  220.3606 H   0  0  0  0  0  0  0  0  0  0  0  0
  139.4830   74.5140  223.3390 H   0  0  0  0  0  0  0  0  0  0  0  0
  139.1578   70.4216  221.8018 H   0  0  0  0  0  0  0  0  0  0  0  0
  139.2022   68.7251  223.6179 H   0  0  0  0  0  0  0  0  0  0  0  0
  139.7398   68.1326  225.9709 H   0  0  0  0  0  0  0  0  0  0  0  0
  141.4349   71.1705  228.5293 H   0  0  0  0  0  0  0  0  0  0  0  0
  141.3546   72.8160  226.6443 H   0  0  0  0  0  0  0  0  0  0  0  0
  1  2  1  0
  2  3  1  0
  3  4  1  0
  4  5  1  0
  5  6  1  0
  6  7  1  0
  7  8  1  0
  8  9  1  0
  9 10  2  0
  9 11  1  0
 11 12  1  0
 12 13  1  0
 13 14  2  0
 13 15  1  0
 15 16  2  0
 16 17  1  0
 17 18  2  0
 18 19  1  0
 19 20  2  0
 20 21  1  0
 20 22  1  0
 22 23  2  0
 23 24  1  0
 24 25  2  0
  8  4  1  0
 25 15  1  0
 24 18  1  0
  1 26  1  0
  1 27  1  0
  1 28  1  0
  3 29  1  0
  3 30  1  0
  4 31  1  1
  5 32  1  0
  5 33  1  0
  6 34  1  0
  6 35  1  0
  7 36  1  0
  7 37  1  0
 11 38  1  0
 11 39  1  0
 12 40  1  0
 16 41  1  0
 17 42  1  0
 19 43  1  0
 22 44  1  0
 23 45  1  0
M  END
>  <smiles>  (44) 
COC[C@@H]1CCCN1C(=O)CNC(=O)c1ccc2cc(Cl)ccc2n1

>  <score_type>  (44) 
oracle

>  <origin>  (44) 
autodockgpu

>  <m_score__min__energy>  (44) 
-7.2400000000000002

>  <m_primary>  (44) 
energy

>  <rmsd>  (44) 
3.303602031371753

>  <m_score__min__rmsd>  (44) 
3.303602031371753

>  <meeko>  (44) 
{"free_energy": -7.12, "intermolecular_energy": -8.91, "internal_energy": -1.16, "cluster_size": 26, "cluster_id": 2, "rank_in_cluster": 2}

>  <energy>  (44) 
-6.47

>  <cluster_rmsd>  (44) 
1.07

>  <cluster>  (44) 
4

$$$$

     RDKit          3D

 45 47  0  0  0  0  0  0  0  0999 V2000
  141.2250   74.1280  221.1810 C   0  0  0  0  0  0  0  0  0  0  0  0
  140.3910   74.6960  222.1430 O   0  0  0  0  0  0  0  0  0  0  0  0
  140.6380   76.0720  222.2320 C   0  0  0  0  0  0  0  0  0  0  0  0
  139.6170   76.7490  221.3750 C   0  0  2  0  0  0  0  0  0  0  0  0
  139.5020   78.2370  221.6070 C   0  0  0  0  0  0  0  0  0  0  0  0
  138.8060   78.2500  222.9510 C   0  0  0  0  0  0  0  0  0  0  0  0
  138.0590   76.9280  223.0550 C   0  0  0  0  0  0  0  0  0  0  0  0
  138.2930   76.2370  221.7970 N   0  0  0  0  0  0  0  0  0  0  0  0
  137.5480   75.3090  221.0740 C   0  0  0  0  0  0  0  0  0  0  0  0
  136.4550   75.7660  220.5310 O   0  0  0  0  0  0  0  0  0  0  0  0
  137.7940   73.8970  220.8270 C   0  0  0  0  0  0  0  0  0  0  0  0
  138.1970   73.0740  221.9260 N   0  0  0  0  0  0  0  0  0  0  0  0
  137.8370   71.6900  222.0050 C   0  0  0  0  0  0  0  0  0  0  0  0
  137.1350   71.1240  221.1140 O   0  0  0  0  0  0  0  0  0  0  0  0
  138.2940   70.8880  223.1610 C   0  0  0  0  0  0  0  0  0  0  0  0
  137.8580   69.5890  223.3080 C   0  0  0  0  0  0  0  0  0  0  0  0
  138.2940   68.8500  224.3950 C   0  0  0  0  0  0  0  0  0  0  0  0
  139.1570   69.4030  225.3280 C   0  0  0  0  0  0  0  0  0  0  0  0
  139.6170   68.7050  226.4240 C   0  0  0  0  0  0  0  0  0  0  0  0
  140.4840   69.3470  227.3100 C   0  0  0  0  0  0  0  0  0  0  0  0
  141.0980   68.5050  228.7210 Cl  0  0  0  0  0  0  0  0  0  0  0  0
  140.8890   70.6470  227.1180 C   0  0  0  0  0  0  0  0  0  0  0  0
  140.4290   71.3530  226.0160 C   0  0  0  0  0  0  0  0  0  0  0  0
  139.5740   70.7210  225.1430 C   0  0  0  0  0  0  0  0  0  0  0  0
  139.1340   71.4150  224.0760 N   0  0  0  0  0  0  0  0  0  0  0  0
  142.0358   73.5758  221.6786 H   0  0  0  0  0  0  0  0  0  0  0  0
  140.6430   73.4377  220.5527 H   0  0  0  0  0  0  0  0  0  0  0  0
  141.6542   74.9224  220.5527 H   0  0  0  0  0  0  0  0  0  0  0  0
  140.5402   76.4079  223.2749 H   0  0  0  0  0  0  0  0  0  0  0  0
  141.6577   76.3130  221.8972 H   0  0  0  0  0  0  0  0  0  0  0  0
  139.9128   76.5568  220.3331 H   0  0  0  0  0  0  0  0  0  0  0  0
  140.4898   78.7185  221.6559 H   0  0  0  0  0  0  0  0  0  0  0  0
  138.9770   78.7870  220.8121 H   0  0  0  0  0  0  0  0  0  0  0  0
  139.5443   78.3357  223.7619 H   0  0  0  0  0  0  0  0  0  0  0  0
  138.1206   79.1058  223.0392 H   0  0  0  0  0  0  0  0  0  0  0  0
  138.4475   76.3342  223.8955 H   0  0  0  0  0  0  0  0  0  0  0  0
  136.9853   77.0844  223.2358 H   0  0  0  0  0  0  0  0  0  0  0  0
  136.8632   73.4702  220.4252 H   0  0  0  0  0  0  0  0  0  0  0  0
  138.6611   73.8880  220.1502 H   0  0  0  0  0  0  0  0  0  0  0  0
  138.7820   73.4300  222.7410 H   0  0  0  0  0  0  0  0  0  0  0  0
  137.1724   69.1448  222.5713 H   0  0  0  0  0  0  0  0  0  0  0  0
  137.9515   67.8121  224.5194 H   0  0  0  0  0  0  0  0  0  0  0  0
  139.3074   67.6637  226.5969 H   0  0  0  0  0  0  0  0  0  0  0  0
  141.5739   71.1244  227.8342 H   0  0  0  0  0  0  0  0  0  0  0  0
  140.7406   72.3939  225.8442 H   0  0  0  0  0  0  0  0  0  0  0  0
  1  2  1  0
  2  3  1  0
  3  4  1  0
  4  5  1  0
  5  6  1  0
  6  7  1  0
  7  8  1  0
  8  9  1  0
  9 10  2  0
  9 11  1  0
 11 12  1  0
 12 13  1  0
 13 14  2  0
 13 15  1  0
 15 16  2  0
 16 17  1  0
 17 18  2  0
 18 19  1  0
 19 20  2  0
 20 21  1  0
 20 22  1  0
 22 23  2  0
 23 24  1  0
 24 25  2  0
  8  4  1  0
 25 15  1  0
 24 18  1  0
  1 26  1  0
  1 27  1  0
  1 28  1  0
  3 29  1  0
  3 30  1  0
  4 31  1  6
  5 32  1  0
  5 33  1  0
  6 34  1  0
  6 35  1  0
  7 36  1  0
  7 37  1  0
 11 38  1  0
 11 39  1  0
 12 40  1  0
 16 41  1  0
 17 42  1  0
 19 43  1  0
 22 44  1  0
 23 45  1  0
M  END
>  <smiles>  (45) 
COC[C@@H]1CCCN1C(=O)CNC(=O)c1ccc2cc(Cl)ccc2n1

>  <score_type>  (45) 
oracle

>  <origin>  (45) 
autodockgpu

>  <m_score__min__energy>  (45) 
-7.2400000000000002

>  <m_primary>  (45) 
energy

>  <rmsd>  (45) 
2.822368907150352

>  <m_score__min__rmsd>  (45) 
2.822368907150352

>  <meeko>  (45) 
{"free_energy": -5.89, "intermolecular_energy": -7.68, "internal_energy": -2.27, "cluster_size": 26, "cluster_id": 2, "rank_in_cluster": 24}

>  <energy>  (45) 
-6.06

>  <cluster_rmsd>  (45) 
1.33

>  <cluster>  (45) 
4

$$$$

     RDKit          3D

 45 47  0  0  0  0  0  0  0  0999 V2000
  144.3840   74.3080  219.9990 C   0  0  0  0  0  0  0  0  0  0  0  0
  143.4460   75.2630  220.3900 O   0  0  0  0  0  0  0  0  0  0  0  0
  143.3370   76.2520  219.4030 C   0  0  0  0  0  0  0  0  0  0  0  0
  141.8760   76.4900  219.1930 C   0  0  2  0  0  0  0  0  0  0  0  0
  141.5640   77.5680  218.1820 C   0  0  0  0  0  0  0  0  0  0  0  0
  141.9460   78.8010  218.9740 C   0  0  0  0  0  0  0  0  0  0  0  0
  141.8230   78.4180  220.4420 C   0  0  0  0  0  0  0  0  0  0  0  0
  141.3430   77.0450  220.4570 N   0  0  0  0  0  0  0  0  0  0  0  0
  140.5780   76.3190  221.3670 C   0  0  0  0  0  0  0  0  0  0  0  0
  140.6670   76.7060  222.6090 O   0  0  0  0  0  0  0  0  0  0  0  0
  139.6910   75.1870  221.1550 C   0  0  0  0  0  0  0  0  0  0  0  0
  139.6380   74.1670  222.1570 N   0  0  0  0  0  0  0  0  0  0  0  0
  140.2750   72.8970  221.9770 C   0  0  0  0  0  0  0  0  0  0  0  0
  140.9090   72.6050  220.9190 O   0  0  0  0  0  0  0  0  0  0  0  0
  140.1940   71.8870  223.0550 C   0  0  0  0  0  0  0  0  0  0  0  0
  139.6370   70.6540  222.7980 C   0  0  0  0  0  0  0  0  0  0  0  0
  139.5690   69.7190  223.8170 C   0  0  0  0  0  0  0  0  0  0  0  0
  140.0530   70.0110  225.0820 C   0  0  0  0  0  0  0  0  0  0  0  0
  140.0060   69.1120  226.1260 C   0  0  0  0  0  0  0  0  0  0  0  0
  140.5190   69.4980  227.3650 C   0  0  0  0  0  0  0  0  0  0  0  0
  140.4840   68.3930  228.7270 Cl  0  0  0  0  0  0  0  0  0  0  0  0
  141.0650   70.7440  227.5710 C   0  0  0  0  0  0  0  0  0  0  0  0
  141.1140   71.6520  226.5230 C   0  0  0  0  0  0  0  0  0  0  0  0
  140.6090   71.2720  225.3010 C   0  0  0  0  0  0  0  0  0  0  0  0
  140.6620   72.1610  224.2910 N   0  0  0  0  0  0  0  0  0  0  0  0
  144.8344   73.8495  220.8917 H   0  0  0  0  0  0  0  0  0  0  0  0
  143.8880   73.5313  219.3984 H   0  0  0  0  0  0  0  0  0  0  0  0
  145.1695   74.7900  219.3984 H   0  0  0  0  0  0  0  0  0  0  0  0
  143.8276   77.1777  219.7381 H   0  0  0  0  0  0  0  0  0  0  0  0
  143.8245   75.9347  218.4693 H   0  0  0  0  0  0  0  0  0  0  0  0
  141.4528   75.5316  218.8576 H   0  0  0  0  0  0  0  0  0  0  0  0
  142.1748   77.4627  217.2732 H   0  0  0  0  0  0  0  0  0  0  0  0
  140.5294   77.5632  217.8085 H   0  0  0  0  0  0  0  0  0  0  0  0
  142.9797   79.0977  218.7427 H   0  0  0  0  0  0  0  0  0  0  0  0
  141.2964   79.6535  218.7265 H   0  0  0  0  0  0  0  0  0  0  0  0
  142.8021   78.4865  220.9386 H   0  0  0  0  0  0  0  0  0  0  0  0
  141.1384   79.0910  220.9789 H   0  0  0  0  0  0  0  0  0  0  0  0
  138.6726   75.5880  221.0450 H   0  0  0  0  0  0  0  0  0  0  0  0
  140.1078   74.6784  220.2732 H   0  0  0  0  0  0  0  0  0  0  0  0
  139.1310   74.2840  223.0860 H   0  0  0  0  0  0  0  0  0  0  0  0
  139.2510   70.4150  221.7960 H   0  0  0  0  0  0  0  0  0  0  0  0
  139.1252   68.7320  223.6198 H   0  0  0  0  0  0  0  0  0  0  0  0
  139.5729   68.1107  225.9853 H   0  0  0  0  0  0  0  0  0  0  0  0
  141.4601   71.0185  228.5602 H   0  0  0  0  0  0  0  0  0  0  0  0
  141.5469   72.6531  226.6660 H   0  0  0  0  0  0  0  0  0  0  0  0
  1  2  1  0
  2  3  1  0
  3  4  1  0
  4  5  1  0
  5  6  1  0
  6  7  1  0
  7  8  1  0
  8  9  1  0
  9 10  2  0
  9 11  1  0
 11 12  1  0
 12 13  1  0
 13 14  2  0
 13 15  1  0
 15 16  2  0
 16 17  1  0
 17 18  2  0
 18 19  1  0
 19 20  2  0
 20 21  1  0
 20 22  1  0
 22 23  2  0
 23 24  1  0
 24 25  2  0
  8  4  1  0
 25 15  1  0
 24 18  1  0
  1 26  1  0
  1 27  1  0
  1 28  1  0
  3 29  1  0
  3 30  1  0
  4 31  1  6
  5 32  1  0
  5 33  1  0
  6 34  1  0
  6 35  1  0
  7 36  1  0
  7 37  1  0
 11 38  1  0
 11 39  1  0
 12 40  1  0
 16 41  1  0
 17 42  1  0
 19 43  1  0
 22 44  1  0
 23 45  1  0
M  END
>  <smiles>  (46) 
COC[C@@H]1CCCN1C(=O)CNC(=O)c1ccc2cc(Cl)ccc2n1

>  <score_type>  (46) 
oracle

>  <origin>  (46) 
autodockgpu

>  <m_score__min__energy>  (46) 
-7.2400000000000002

>  <m_primary>  (46) 
energy

>  <rmsd>  (46) 
2.4487651678928497

>  <m_score__min__rmsd>  (46) 
2.4487651678928497

>  <meeko>  (46) 
{"free_energy": -6.65, "intermolecular_energy": -8.44, "internal_energy": -1.35, "cluster_size": 26, "cluster_id": 2, "rank_in_cluster": 6}

>  <energy>  (46) 
-5.92

>  <cluster_rmsd>  (46) 
0.0

>  <cluster>  (46) 
5

$$$$

     RDKit          3D

 45 47  0  0  0  0  0  0  0  0999 V2000
  140.6020   71.3990  224.3470 C   0  0  0  0  0  0  0  0  0  0  0  0
  139.6380   71.4700  225.3520 O   0  0  0  0  0  0  0  0  0  0  0  0
  140.1510   70.9310  226.5400 C   0  0  0  0  0  0  0  0  0  0  0  0
  139.3360   69.7150  226.8460 C   0  0  2  0  0  0  0  0  0  0  0  0
  139.5940   69.1270  228.2130 C   0  0  0  0  0  0  0  0  0  0  0  0
  140.9580   68.5110  227.9910 C   0  0  0  0  0  0  0  0  0  0  0  0
  141.0660   68.2430  226.4960 C   0  0  0  0  0  0  0  0  0  0  0  0
  139.7910   68.6480  225.9260 N   0  0  0  0  0  0  0  0  0  0  0  0
  139.0770   68.2250  224.8070 C   0  0  0  0  0  0  0  0  0  0  0  0
  139.2900   66.9930  224.4380 O   0  0  0  0  0  0  0  0  0  0  0  0
  138.1260   68.9440  223.9750 C   0  0  0  0  0  0  0  0  0  0  0  0
  137.2460   69.8830  224.6020 N   0  0  0  0  0  0  0  0  0  0  0  0
  135.8520   69.6070  224.7820 C   0  0  0  0  0  0  0  0  0  0  0  0
  135.3220   68.5250  224.3860 O   0  0  0  0  0  0  0  0  0  0  0  0
  134.9950   70.6110  225.4490 C   0  0  0  0  0  0  0  0  0  0  0  0
  134.0720   70.2080  226.3890 C   0  0  0  0  0  0  0  0  0  0  0  0
  133.2770   71.1600  227.0050 C   0  0  0  0  0  0  0  0  0  0  0  0
  133.4010   72.5030  226.6850 C   0  0  0  0  0  0  0  0  0  0  0  0
  132.6320   73.4840  227.2720 C   0  0  0  0  0  0  0  0  0  0  0  0
  132.8300   74.8110  226.8860 C   0  0  0  0  0  0  0  0  0  0  0  0
  131.8780   76.0980  227.6020 Cl  0  0  0  0  0  0  0  0  0  0  0  0
  133.7660   75.1610  225.9410 C   0  0  0  0  0  0  0  0  0  0  0  0
  134.5430   74.1770  225.3480 C   0  0  0  0  0  0  0  0  0  0  0  0
  134.3480   72.8700  225.7280 C   0  0  0  0  0  0  0  0  0  0  0  0
  135.1080   71.9210  225.1460 N   0  0  0  0  0  0  0  0  0  0  0  0
  141.6009   71.3254  224.8017 H   0  0  0  0  0  0  0  0  0  0  0  0
  140.4168   70.5121  223.7233 H   0  0  0  0  0  0  0  0  0  0  0  0
  140.5487   72.3035  223.7233 H   0  0  0  0  0  0  0  0  0  0  0  0
  141.2076   70.6557  226.4064 H   0  0  0  0  0  0  0  0  0  0  0  0
  140.0977   71.6606  227.3615 H   0  0  0  0  0  0  0  0  0  0  0  0
  138.2825   70.0207  226.7645 H   0  0  0  0  0  0  0  0  0  0  0  0
  139.6203   69.9037  228.9915 H   0  0  0  0  0  0  0  0  0  0  0  0
  138.8238   68.4245  228.5642 H   0  0  0  0  0  0  0  0  0  0  0  0
  141.7472   69.2070  228.3114 H   0  0  0  0  0  0  0  0  0  0  0  0
  141.0791   67.5858  228.5734 H   0  0  0  0  0  0  0  0  0  0  0  0
  141.8851   68.8333  226.0595 H   0  0  0  0  0  0  0  0  0  0  0  0
  141.2828   67.1845  226.2898 H   0  0  0  0  0  0  0  0  0  0  0  0
  138.7061   69.4957  223.2206 H   0  0  0  0  0  0  0  0  0  0  0  0
  137.4561   68.1604  223.5915 H   0  0  0  0  0  0  0  0  0  0  0  0
  137.5650   70.8290  224.9710 H   0  0  0  0  0  0  0  0  0  0  0  0
  133.9679   69.1438  226.6469 H   0  0  0  0  0  0  0  0  0  0  0  0
  132.5382   70.8467  227.7573 H   0  0  0  0  0  0  0  0  0  0  0  0
  131.8771   73.2268  228.0296 H   0  0  0  0  0  0  0  0  0  0  0  0
  133.8976   76.2155  225.6571 H   0  0  0  0  0  0  0  0  0  0  0  0
  135.2979   74.4362  224.5911 H   0  0  0  0  0  0  0  0  0  0  0  0
  1  2  1  0
  2  3  1  0
  3  4  1  0
  4  5  1  0
  5  6  1  0
  6  7  1  0
  7  8  1  0
  8  9  1  0
  9 10  2  0
  9 11  1  0
 11 12  1  0
 12 13  1  0
 13 14  2  0
 13 15  1  0
 15 16  2  0
 16 17  1  0
 17 18  2  0
 18 19  1  0
 19 20  2  0
 20 21  1  0
 20 22  1  0
 22 23  2  0
 23 24  1  0
 24 25  2  0
  8  4  1  0
 25 15  1  0
 24 18  1  0
  1 26  1  0
  1 27  1  0
  1 28  1  0
  3 29  1  0
  3 30  1  0
  4 31  1  1
  5 32  1  0
  5 33  1  0
  6 34  1  0
  6 35  1  0
  7 36  1  0
  7 37  1  0
 11 38  1  0
 11 39  1  0
 12 40  1  0
 16 41  1  0
 17 42  1  0
 19 43  1  0
 22 44  1  0
 23 45  1  0
M  END
>  <smiles>  (47) 
COC[C@@H]1CCCN1C(=O)CNC(=O)c1ccc2cc(Cl)ccc2n1

>  <score_type>  (47) 
oracle

>  <origin>  (47) 
autodockgpu

>  <m_score__min__energy>  (47) 
-7.2400000000000002

>  <m_primary>  (47) 
energy

>  <rmsd>  (47) 
8.675467496854004

>  <m_score__min__rmsd>  (47) 
8.675467496854004

>  <meeko>  (47) 
{"free_energy": -6.64, "intermolecular_energy": -8.43, "internal_energy": -2.12, "cluster_size": 7, "cluster_id": 4, "rank_in_cluster": 4}

>  <energy>  (47) 
-5.83

>  <cluster_rmsd>  (47) 
0.0

>  <cluster>  (47) 
6

$$$$

     RDKit          3D

 45 47  0  0  0  0  0  0  0  0999 V2000
  145.5520   73.4230  221.0090 C   0  0  0  0  0  0  0  0  0  0  0  0
  144.2030   73.6690  220.7570 O   0  0  0  0  0  0  0  0  0  0  0  0
  144.0550   74.9250  220.1550 C   0  0  0  0  0  0  0  0  0  0  0  0
  142.7050   74.9360  219.5120 C   0  0  2  0  0  0  0  0  0  0  0  0
  142.7310   75.1980  218.0240 C   0  0  0  0  0  0  0  0  0  0  0  0
  143.0670   76.6730  218.0140 C   0  0  0  0  0  0  0  0  0  0  0  0
  142.5980   77.2270  219.3520 C   0  0  0  0  0  0  0  0  0  0  0  0
  141.9810   76.1100  220.0500 N   0  0  0  0  0  0  0  0  0  0  0  0
  140.9680   76.0320  221.0040 C   0  0  0  0  0  0  0  0  0  0  0  0
  141.0750   76.8610  222.0040 O   0  0  0  0  0  0  0  0  0  0  0  0
  139.8020   75.1660  221.0650 C   0  0  0  0  0  0  0  0  0  0  0  0
  139.7500   74.1660  222.0880 N   0  0  0  0  0  0  0  0  0  0  0  0
  140.2330   72.8360  221.8690 C   0  0  0  0  0  0  0  0  0  0  0  0
  140.7210   72.4700  220.7580 O   0  0  0  0  0  0  0  0  0  0  0  0
  140.1640   71.8500  222.9700 C   0  0  0  0  0  0  0  0  0  0  0  0
  139.6110   70.6090  222.7430 C   0  0  0  0  0  0  0  0  0  0  0  0
  139.5530   69.6960  223.7830 C   0  0  0  0  0  0  0  0  0  0  0  0
  140.0430   70.0190  225.0380 C   0  0  0  0  0  0  0  0  0  0  0  0
  140.0070   69.1440  226.1020 C   0  0  0  0  0  0  0  0  0  0  0  0
  140.5250   69.5590  227.3290 C   0  0  0  0  0  0  0  0  0  0  0  0
  140.5040   68.4840  228.7150 Cl  0  0  0  0  0  0  0  0  0  0  0  0
  141.0670   70.8110  227.5040 C   0  0  0  0  0  0  0  0  0  0  0  0
  141.1060   71.6960  226.4360 C   0  0  0  0  0  0  0  0  0  0  0  0
  140.5950   71.2870  225.2260 C   0  0  0  0  0  0  0  0  0  0  0  0
  140.6380   72.1540  224.1960 N   0  0  0  0  0  0  0  0  0  0  0  0
  145.7224   73.3919  222.0953 H   0  0  0  0  0  0  0  0  0  0  0  0
  145.8379   72.4579  220.5653 H   0  0  0  0  0  0  0  0  0  0  0  0
  146.1601   74.2251  220.5653 H   0  0  0  0  0  0  0  0  0  0  0  0
  144.1203   75.7191  220.9134 H   0  0  0  0  0  0  0  0  0  0  0  0
  144.8480   75.1050  219.4142 H   0  0  0  0  0  0  0  0  0  0  0  0
  142.2614   73.9489  219.7089 H   0  0  0  0  0  0  0  0  0  0  0  0
  143.5049   74.6010  217.5193 H   0  0  0  0  0  0  0  0  0  0  0  0
  141.8040   74.9338  217.4941 H   0  0  0  0  0  0  0  0  0  0  0  0
  144.1519   76.8158  217.9019 H   0  0  0  0  0  0  0  0  0  0  0  0
  142.5783   77.1887  217.1743 H   0  0  0  0  0  0  0  0  0  0  0  0
  143.4524   77.6131  219.9272 H   0  0  0  0  0  0  0  0  0  0  0  0
  141.8927   78.0607  219.2198 H   0  0  0  0  0  0  0  0  0  0  0  0
  138.9226   75.8133  221.1979 H   0  0  0  0  0  0  0  0  0  0  0  0
  139.8418   74.5921  220.1274 H   0  0  0  0  0  0  0  0  0  0  0  0
  139.3580   74.3440  223.0610 H   0  0  0  0  0  0  0  0  0  0  0  0
  139.2205   70.3465  221.7487 H   0  0  0  0  0  0  0  0  0  0  0  0
  139.1127   68.7028  223.6105 H   0  0  0  0  0  0  0  0  0  0  0  0
  139.5781   68.1377  225.9860 H   0  0  0  0  0  0  0  0  0  0  0  0
  141.4670   71.1088  228.4845 H   0  0  0  0  0  0  0  0  0  0  0  0
  141.5357   72.7017  226.5542 H   0  0  0  0  0  0  0  0  0  0  0  0
  1  2  1  0
  2  3  1  0
  3  4  1  0
  4  5  1  0
  5  6  1  0
  6  7  1  0
  7  8  1  0
  8  9  1  0
  9 10  2  0
  9 11  1  0
 11 12  1  0
 12 13  1  0
 13 14  2  0
 13 15  1  0
 15 16  2  0
 16 17  1  0
 17 18  2  0
 18 19  1  0
 19 20  2  0
 20 21  1  0
 20 22  1  0
 22 23  2  0
 23 24  1  0
 24 25  2  0
  8  4  1  0
 25 15  1  0
 24 18  1  0
  1 26  1  0
  1 27  1  0
  1 28  1  0
  3 29  1  0
  3 30  1  0
  4 31  1  6
  5 32  1  0
  5 33  1  0
  6 34  1  0
  6 35  1  0
  7 36  1  0
  7 37  1  0
 11 38  1  0
 11 39  1  0
 12 40  1  0
 16 41  1  0
 17 42  1  0
 19 43  1  0
 22 44  1  0
 23 45  1  0
M  END
>  <smiles>  (48) 
COC[C@@H]1CCCN1C(=O)CNC(=O)c1ccc2cc(Cl)ccc2n1

>  <score_type>  (48) 
oracle

>  <origin>  (48) 
autodockgpu

>  <m_score__min__energy>  (48) 
-7.2400000000000002

>  <m_primary>  (48) 
energy

>  <rmsd>  (48) 
2.552596782189549

>  <m_score__min__rmsd>  (48) 
2.552596782189549

>  <meeko>  (48) 
{"free_energy": -6.87, "intermolecular_energy": -8.66, "internal_energy": -1.34, "cluster_size": 2, "cluster_id": 3, "rank_in_cluster": 1}

>  <energy>  (48) 
-5.39

>  <cluster_rmsd>  (48) 
1.08

>  <cluster>  (48) 
6

$$$$

     RDKit          3D

 45 47  0  0  0  0  0  0  0  0999 V2000
  141.0710   72.4530  221.9530 C   0  0  0  0  0  0  0  0  0  0  0  0
  140.6250   73.7730  222.0040 O   0  0  0  0  0  0  0  0  0  0  0  0
  141.4330   74.5780  221.1900 C   0  0  0  0  0  0  0  0  0  0  0  0
  140.5230   75.5460  220.5040 C   0  0  2  0  0  0  0  0  0  0  0  0
  141.1200   76.9180  220.3000 C   0  0  0  0  0  0  0  0  0  0  0  0
  141.0830   77.4440  221.7190 C   0  0  0  0  0  0  0  0  0  0  0  0
  139.9750   76.6770  222.4280 C   0  0  0  0  0  0  0  0  0  0  0  0
  139.3920   75.8010  221.4240 N   0  0  0  0  0  0  0  0  0  0  0  0
  138.1160   75.2640  221.2620 C   0  0  0  0  0  0  0  0  0  0  0  0
  137.1580   76.1330  221.1030 O   0  0  0  0  0  0  0  0  0  0  0  0
  137.6770   73.8780  221.2440 C   0  0  0  0  0  0  0  0  0  0  0  0
  138.1510   73.0010  222.2710 N   0  0  0  0  0  0  0  0  0  0  0  0
  137.7780   71.6190  222.3150 C   0  0  0  0  0  0  0  0  0  0  0  0
  137.0030   71.1020  221.4550 O   0  0  0  0  0  0  0  0  0  0  0  0
  138.3100   70.7600  223.3950 C   0  0  0  0  0  0  0  0  0  0  0  0
  137.9840   69.4210  223.4280 C   0  0  0  0  0  0  0  0  0  0  0  0
  138.4890   68.6290  224.4450 C   0  0  0  0  0  0  0  0  0  0  0  0
  139.3120   69.1680  225.4220 C   0  0  0  0  0  0  0  0  0  0  0  0
  139.8370   68.4180  226.4520 C   0  0  0  0  0  0  0  0  0  0  0  0
  140.6570   69.0490  227.3890 C   0  0  0  0  0  0  0  0  0  0  0  0
  141.3510   68.1410  228.7200 Cl  0  0  0  0  0  0  0  0  0  0  0  0
  140.9520   70.3900  227.3110 C   0  0  0  0  0  0  0  0  0  0  0  0
  140.4250   71.1490  226.2760 C   0  0  0  0  0  0  0  0  0  0  0  0
  139.6180   70.5270  225.3520 C   0  0  0  0  0  0  0  0  0  0  0  0
  139.1120   71.2730  224.3510 N   0  0  0  0  0  0  0  0  0  0  0  0
  141.2004   72.0699  222.9760 H   0  0  0  0  0  0  0  0  0  0  0  0
  140.3313   71.8363  221.4214 H   0  0  0  0  0  0  0  0  0  0  0  0
  142.0331   72.4113  221.4214 H   0  0  0  0  0  0  0  0  0  0  0  0
  142.1691   75.1188  221.8030 H   0  0  0  0  0  0  0  0  0  0  0  0
  141.9879   73.9710  220.4595 H   0  0  0  0  0  0  0  0  0  0  0  0
  140.2758   75.0992  219.5297 H   0  0  0  0  0  0  0  0  0  0  0  0
  142.1485   76.8608  219.9140 H   0  0  0  0  0  0  0  0  0  0  0  0
  140.5942   77.5436  219.5636 H   0  0  0  0  0  0  0  0  0  0  0  0
  142.0479   77.2669  222.2165 H   0  0  0  0  0  0  0  0  0  0  0  0
  140.8967   78.5279  221.7398 H   0  0  0  0  0  0  0  0  0  0  0  0
  140.3894   76.0856  223.2578 H   0  0  0  0  0  0  0  0  0  0  0  0
  139.2237   77.3564  222.8569 H   0  0  0  0  0  0  0  0  0  0  0  0
  136.5786   73.8839  221.3026 H   0  0  0  0  0  0  0  0  0  0  0  0
  138.1088   73.4693  220.3185 H   0  0  0  0  0  0  0  0  0  0  0  0
  138.8000   73.3130  223.0540 H   0  0  0  0  0  0  0  0  0  0  0  0
  137.3310   68.9874  222.6562 H   0  0  0  0  0  0  0  0  0  0  0  0
  138.2343   67.5594  224.4784 H   0  0  0  0  0  0  0  0  0  0  0  0
  139.6144   67.3439  226.5341 H   0  0  0  0  0  0  0  0  0  0  0  0
  141.6020   70.8581  228.0649 H   0  0  0  0  0  0  0  0  0  0  0  0
  140.6474   72.2233  226.1962 H   0  0  0  0  0  0  0  0  0  0  0  0
  1  2  1  0
  2  3  1  0
  3  4  1  0
  4  5  1  0
  5  6  1  0
  6  7  1  0
  7  8  1  0
  8  9  1  0
  9 10  2  0
  9 11  1  0
 11 12  1  0
 12 13  1  0
 13 14  2  0
 13 15  1  0
 15 16  2  0
 16 17  1  0
 17 18  2  0
 18 19  1  0
 19 20  2  0
 20 21  1  0
 20 22  1  0
 22 23  2  0
 23 24  1  0
 24 25  2  0
  8  4  1  0
 25 15  1  0
 24 18  1  0
  1 26  1  0
  1 27  1  0
  1 28  1  0
  3 29  1  0
  3 30  1  0
  4 31  1  6
  5 32  1  0
  5 33  1  0
  6 34  1  0
  6 35  1  0
  7 36  1  0
  7 37  1  0
 11 38  1  0
 11 39  1  0
 12 40  1  0
 16 41  1  0
 17 42  1  0
 19 43  1  0
 22 44  1  0
 23 45  1  0
M  END
>  <smiles>  (49) 
COC[C@@H]1CCCN1C(=O)CNC(=O)c1ccc2cc(Cl)ccc2n1

>  <score_type>  (49) 
oracle

>  <origin>  (49) 
autodockgpu

>  <m_score__min__energy>  (49) 
-7.2400000000000002

>  <m_primary>  (49) 
energy

>  <rmsd>  (49) 
2.341861229208874

>  <m_score__min__rmsd>  (49) 
2.341861229208874

>  <meeko>  (49) 
{"free_energy": -6.27, "intermolecular_energy": -8.06, "internal_energy": -2.28, "cluster_size": 26, "cluster_id": 2, "rank_in_cluster": 10}

>  <energy>  (49) 
-5.44

>  <cluster_rmsd>  (49) 
0.0

>  <cluster>  (49) 
7

$$$$

     RDKit          3D

 45 47  0  0  0  0  0  0  0  0999 V2000
  140.3020   71.8100  228.3180 C   0  0  0  0  0  0  0  0  0  0  0  0
  140.7570   70.5190  228.0520 O   0  0  0  0  0  0  0  0  0  0  0  0
  139.6810   69.6220  228.0790 C   0  0  0  0  0  0  0  0  0  0  0  0
  139.3330   69.3250  226.6560 C   0  0  2  0  0  0  0  0  0  0  0  0
  139.1660   67.8540  226.3540 C   0  0  0  0  0  0  0  0  0  0  0  0
  140.6100   67.4020  226.3980 C   0  0  0  0  0  0  0  0  0  0  0  0
  141.4510   68.6330  226.0900 C   0  0  0  0  0  0  0  0  0  0  0  0
  140.5050   69.7080  225.8360 N   0  0  0  0  0  0  0  0  0  0  0  0
  140.5660   70.8580  225.0520 C   0  0  0  0  0  0  0  0  0  0  0  0
  141.2150   71.8600  225.5760 O   0  0  0  0  0  0  0  0  0  0  0  0
  140.0160   71.1240  223.7320 C   0  0  0  0  0  0  0  0  0  0  0  0
  140.2640   72.4020  223.1370 N   0  0  0  0  0  0  0  0  0  0  0  0
  140.9780   72.5340  221.9030 C   0  0  0  0  0  0  0  0  0  0  0  0
  141.4360   71.5310  221.2780 O   0  0  0  0  0  0  0  0  0  0  0  0
  141.1920   73.8810  221.3310 C   0  0  0  0  0  0  0  0  0  0  0  0
  141.8630   74.0190  220.1350 C   0  0  0  0  0  0  0  0  0  0  0  0
  142.0560   75.2860  219.6120 C   0  0  0  0  0  0  0  0  0  0  0  0
  141.5840   76.4070  220.2760 C   0  0  0  0  0  0  0  0  0  0  0  0
  141.7530   77.6870  219.7940 C   0  0  0  0  0  0  0  0  0  0  0  0
  141.2410   78.7550  220.5340 C   0  0  0  0  0  0  0  0  0  0  0  0
  141.4290   80.4040  219.9650 Cl  0  0  0  0  0  0  0  0  0  0  0  0
  140.5790   78.5640  221.7240 C   0  0  0  0  0  0  0  0  0  0  0  0
  140.4070   77.2770  222.2140 C   0  0  0  0  0  0  0  0  0  0  0  0
  140.9100   76.2250  221.4840 C   0  0  0  0  0  0  0  0  0  0  0  0
  140.7370   74.9800  221.9690 N   0  0  0  0  0  0  0  0  0  0  0  0
  140.2481   71.9629  229.4060 H   0  0  0  0  0  0  0  0  0  0  0  0
  140.9966   72.5413  227.8789 H   0  0  0  0  0  0  0  0  0  0  0  0
  139.3024   71.9442  227.8789 H   0  0  0  0  0  0  0  0  0  0  0  0
  139.9714   68.6973  228.5991 H   0  0  0  0  0  0  0  0  0  0  0  0
  138.8217   70.0512  228.6150 H   0  0  0  0  0  0  0  0  0  0  0  0
  138.3919   69.8566  226.4517 H   0  0  0  0  0  0  0  0  0  0  0  0
  138.5580   67.3482  227.1185 H   0  0  0  0  0  0  0  0  0  0  0  0
  138.6438   67.6344  225.4111 H   0  0  0  0  0  0  0  0  0  0  0  0
  140.8570   67.0117  227.3963 H   0  0  0  0  0  0  0  0  0  0  0  0
  140.7996   66.5961  225.6737 H   0  0  0  0  0  0  0  0  0  0  0  0
  142.0926   68.8826  226.9479 H   0  0  0  0  0  0  0  0  0  0  0  0
  142.1127   68.4649  225.2275 H   0  0  0  0  0  0  0  0  0  0  0  0
  140.4237   70.3631  223.0503 H   0  0  0  0  0  0  0  0  0  0  0  0
  138.9267   71.1025  223.8832 H   0  0  0  0  0  0  0  0  0  0  0  0
  139.9390   73.3200  223.5650 H   0  0  0  0  0  0  0  0  0  0  0  0
  142.2404   73.1334  219.6028 H   0  0  0  0  0  0  0  0  0  0  0  0
  142.5904   75.4044  218.6579 H   0  0  0  0  0  0  0  0  0  0  0  0
  142.2807   77.8639  218.8452 H   0  0  0  0  0  0  0  0  0  0  0  0
  140.1881   79.4262  222.2842 H   0  0  0  0  0  0  0  0  0  0  0  0
  139.8807   77.1021  223.1640 H   0  0  0  0  0  0  0  0  0  0  0  0
  1  2  1  0
  2  3  1  0
  3  4  1  0
  4  5  1  0
  5  6  1  0
  6  7  1  0
  7  8  1  0
  8  9  1  0
  9 10  2  0
  9 11  1  0
 11 12  1  0
 12 13  1  0
 13 14  2  0
 13 15  1  0
 15 16  2  0
 16 17  1  0
 17 18  2  0
 18 19  1  0
 19 20  2  0
 20 21  1  0
 20 22  1  0
 22 23  2  0
 23 24  1  0
 24 25  2  0
  8  4  1  0
 25 15  1  0
 24 18  1  0
  1 26  1  0
  1 27  1  0
  1 28  1  0
  3 29  1  0
  3 30  1  0
  4 31  1  6
  5 32  1  0
  5 33  1  0
  6 34  1  0
  6 35  1  0
  7 36  1  0
  7 37  1  0
 11 38  1  0
 11 39  1  0
 12 40  1  0
 16 41  1  0
 17 42  1  0
 19 43  1  0
 22 44  1  0
 23 45  1  0
M  END
>  <smiles>  (50) 
COC[C@@H]1CCCN1C(=O)CNC(=O)c1ccc2cc(Cl)ccc2n1

>  <score_type>  (50) 
oracle

>  <origin>  (50) 
autodockgpu

>  <m_score__min__energy>  (50) 
-7.2400000000000002

>  <m_primary>  (50) 
energy

>  <rmsd>  (50) 
8.911847989172488

>  <m_score__min__rmsd>  (50) 
8.911847989172488

>  <meeko>  (50) 
{"free_energy": -6.94, "intermolecular_energy": -8.73, "internal_energy": -1.39, "cluster_size": 10, "cluster_id": 1, "rank_in_cluster": 6}

>  <energy>  (50) 
-5.21

>  <cluster_rmsd>  (50) 
0.37

>  <cluster>  (50) 
7

$$$$
