
     RDKit          3D

 40 41  0  0  0  0  0  0  0  0999 V2000
  146.1780   73.5230  220.4630 C   0  0  0  0  0  0  0  0  0  0  0  0
  144.7590   73.4340  220.8490 C   0  0  0  0  0  0  0  0  0  0  0  0
  144.1840   72.0670  220.4530 C   0  0  0  0  0  0  0  0  0  0  0  0
  143.8740   74.5030  220.3770 C   0  0  0  0  0  0  0  0  0  0  0  0
  142.5710   74.6110  220.9080 N   0  0  0  0  0  0  0  0  0  0  0  0
  141.3140   74.3620  220.3440 C   0  0  0  0  0  0  0  0  0  0  0  0
  141.1680   73.9650  219.1350 O   0  0  0  0  0  0  0  0  0  0  0  0
  140.0100   74.5210  221.0640 C   0  0  0  0  0  0  0  0  0  0  0  0
  139.9350   73.6480  222.1830 N   0  0  0  0  0  0  0  0  0  0  0  0
  140.3240   72.2580  222.1450 C   0  0  0  0  0  0  0  0  0  0  0  0
  140.7740   71.7220  221.0980 O   0  0  0  0  0  0  0  0  0  0  0  0
  140.1860   71.4590  223.3740 C   0  0  0  0  0  0  0  0  0  0  0  0
  139.5640   70.2370  223.3210 C   0  0  0  0  0  0  0  0  0  0  0  0
  139.4180   69.4640  224.4530 C   0  0  0  0  0  0  0  0  0  0  0  0
  139.9120   69.9450  225.6470 C   0  0  0  0  0  0  0  0  0  0  0  0
  139.7560   69.1610  226.7580 C   0  0  0  0  0  0  0  0  0  0  0  0
  140.2500   69.6390  227.9580 C   0  0  0  0  0  0  0  0  0  0  0  0
  140.0830   68.8430  229.0420 F   0  0  0  0  0  0  0  0  0  0  0  0
  140.8740   70.8670  228.0070 C   0  0  0  0  0  0  0  0  0  0  0  0
  141.0450   71.6770  226.9010 C   0  0  0  0  0  0  0  0  0  0  0  0
  140.5440   71.1920  225.6910 C   0  0  0  0  0  0  0  0  0  0  0  0
  140.6580   71.9020  224.5540 N   0  0  0  0  0  0  0  0  0  0  0  0
  146.8023   73.5622  221.3678 H   0  0  0  0  0  0  0  0  0  0  0  0
  146.4518   72.6403  219.8665 H   0  0  0  0  0  0  0  0  0  0  0  0
  146.3393   74.4330  219.8665 H   0  0  0  0  0  0  0  0  0  0  0  0
  144.7787   73.5649  221.9410 H   0  0  0  0  0  0  0  0  0  0  0  0
  143.9429   71.4938  221.3604 H   0  0  0  0  0  0  0  0  0  0  0  0
  143.2706   72.2120  219.8574 H   0  0  0  0  0  0  0  0  0  0  0  0
  144.9264   71.5155  219.8574 H   0  0  0  0  0  0  0  0  0  0  0  0
  144.3839   75.4554  220.5840 H   0  0  0  0  0  0  0  0  0  0  0  0
  143.7024   74.2490  219.3206 H   0  0  0  0  0  0  0  0  0  0  0  0
  142.5260   74.9160  221.9500 H   0  0  0  0  0  0  0  0  0  0  0  0
  139.9158   75.5603  221.4119 H   0  0  0  0  0  0  0  0  0  0  0  0
  139.1942   74.2709  220.3698 H   0  0  0  0  0  0  0  0  0  0  0  0
  139.5740   74.0060  223.1180 H   0  0  0  0  0  0  0  0  0  0  0  0
  139.1758   69.8684  222.3601 H   0  0  0  0  0  0  0  0  0  0  0  0
  138.9185   68.4851  224.4048 H   0  0  0  0  0  0  0  0  0  0  0  0
  139.2546   68.1837  226.6984 H   0  0  0  0  0  0  0  0  0  0  0  0
  141.2554   71.2202  228.9764 H   0  0  0  0  0  0  0  0  0  0  0  0
  141.5491   72.6523  226.9698 H   0  0  0  0  0  0  0  0  0  0  0  0
  1  2  1  0
  2  3  1  0
  2  4  1  0
  4  5  1  0
  5  6  1  0
  6  7  2  0
  6  8  1  0
  8  9  1  0
  9 10  1  0
 10 11  2  0
 10 12  1  0
 12 13  2  0
 13 14  1  0
 14 15  2  0
 15 16  1  0
 16 17  2  0
 17 18  1  0
 17 19  1  0
 19 20  2  0
 20 21  1  0
 21 22  2  0
 22 12  1  0
 21 15  1  0
  1 23  1  0
  1 24  1  0
  1 25  1  0
  2 26  1  0
  3 27  1  0
  3 28  1  0
  3 29  1  0
  4 30  1  0
  4 31  1  0
  5 32  1  0
  8 33  1  0
  8 34  1  0
  9 35  1  0
 13 36  1  0
 14 37  1  0
 16 38  1  0
 19 39  1  0
 20 40  1  0
M  END
>  <smiles>  (1) 
CC(C)CNC(=O)CNC(=O)c1ccc2cc(F)ccc2n1

>  <score_type>  (1) 
oracle

>  <origin>  (1) 
autodockgpu

>  <m_score__min__energy>  (1) 
-7.4800000000000004

>  <m_primary>  (1) 
energy

>  <rmsd>  (1) 
3.539578205535067

>  <m_score__min__rmsd>  (1) 
3.539578205535067

>  <meeko>  (1) 
{"free_energy": -6.84, "intermolecular_energy": -8.33, "internal_energy": -1.03, "cluster_size": 33, "cluster_id": 2, "rank_in_cluster": 4}

>  <energy>  (1) 
-7.48

>  <cluster_rmsd>  (1) 
0.0

>  <cluster>  (1) 
1

$$$$

     RDKit          3D

 40 41  0  0  0  0  0  0  0  0999 V2000
  141.0750   71.9790  227.6640 C   0  0  0  0  0  0  0  0  0  0  0  0
  140.6750   70.7340  226.9850 C   0  0  0  0  0  0  0  0  0  0  0  0
  140.8970   69.5300  227.9100 C   0  0  0  0  0  0  0  0  0  0  0  0
  141.2700   70.4720  225.6720 C   0  0  0  0  0  0  0  0  0  0  0  0
  140.5720   70.8470  224.5050 N   0  0  0  0  0  0  0  0  0  0  0  0
  139.2100   70.8010  224.1820 C   0  0  0  0  0  0  0  0  0  0  0  0
  138.3250   70.3580  224.9930 O   0  0  0  0  0  0  0  0  0  0  0  0
  138.6280   71.2570  222.8790 C   0  0  0  0  0  0  0  0  0  0  0  0
  139.0920   72.5560  222.5380 N   0  0  0  0  0  0  0  0  0  0  0  0
  140.3750   72.8180  221.9300 C   0  0  0  0  0  0  0  0  0  0  0  0
  141.1770   71.8890  221.6460 O   0  0  0  0  0  0  0  0  0  0  0  0
  140.7390   74.2130  221.6360 C   0  0  0  0  0  0  0  0  0  0  0  0
  141.7200   74.4780  220.7140 C   0  0  0  0  0  0  0  0  0  0  0  0
  142.0860   75.7740  220.4170 C   0  0  0  0  0  0  0  0  0  0  0  0
  141.4420   76.8050  221.0670 C   0  0  0  0  0  0  0  0  0  0  0  0
  141.8220   78.0840  220.7560 C   0  0  0  0  0  0  0  0  0  0  0  0
  141.1790   79.1210  221.4060 C   0  0  0  0  0  0  0  0  0  0  0  0
  141.5720   80.3770  221.0800 F   0  0  0  0  0  0  0  0  0  0  0  0
  140.1930   78.8510  222.3310 C   0  0  0  0  0  0  0  0  0  0  0  0
  139.7920   77.5720  222.6630 C   0  0  0  0  0  0  0  0  0  0  0  0
  140.4440   76.5250  222.0050 C   0  0  0  0  0  0  0  0  0  0  0  0
  140.1290   75.2410  222.2550 N   0  0  0  0  0  0  0  0  0  0  0  0
  141.0283   71.8338  228.7534 H   0  0  0  0  0  0  0  0  0  0  0  0
  142.1027   72.2416  227.3728 H   0  0  0  0  0  0  0  0  0  0  0  0
  140.3925   72.7910  227.3728 H   0  0  0  0  0  0  0  0  0  0  0  0
  139.6077   70.8878  226.7676 H   0  0  0  0  0  0  0  0  0  0  0  0
  140.8367   69.8571  228.9585 H   0  0  0  0  0  0  0  0  0  0  0  0
  140.1235   68.7720  227.7173 H   0  0  0  0  0  0  0  0  0  0  0  0
  141.8900   69.0977  227.7173 H   0  0  0  0  0  0  0  0  0  0  0  0
  142.2368   70.9961  225.6487 H   0  0  0  0  0  0  0  0  0  0  0  0
  141.2963   69.3738  225.6152 H   0  0  0  0  0  0  0  0  0  0  0  0
  141.1900   71.2740  223.7200 H   0  0  0  0  0  0  0  0  0  0  0  0
  138.9218   70.5515  222.0879 H   0  0  0  0  0  0  0  0  0  0  0  0
  137.5331   71.2922  222.9788 H   0  0  0  0  0  0  0  0  0  0  0  0
  138.4850   73.4090  222.7310 H   0  0  0  0  0  0  0  0  0  0  0  0
  142.2226   73.6433  220.2035 H   0  0  0  0  0  0  0  0  0  0  0  0
  142.8742   75.9804  219.6780 H   0  0  0  0  0  0  0  0  0  0  0  0
  142.6112   78.2790  220.0150 H   0  0  0  0  0  0  0  0  0  0  0  0
  139.7002   79.6982  222.8304 H   0  0  0  0  0  0  0  0  0  0  0  0
  139.0018   77.3869  223.4055 H   0  0  0  0  0  0  0  0  0  0  0  0
  1  2  1  0
  2  3  1  0
  2  4  1  0
  4  5  1  0
  5  6  1  0
  6  7  2  0
  6  8  1  0
  8  9  1  0
  9 10  1  0
 10 11  2  0
 10 12  1  0
 12 13  2  0
 13 14  1  0
 14 15  2  0
 15 16  1  0
 16 17  2  0
 17 18  1  0
 17 19  1  0
 19 20  2  0
 20 21  1  0
 21 22  2  0
 22 12  1  0
 21 15  1  0
  1 23  1  0
  1 24  1  0
  1 25  1  0
  2 26  1  0
  3 27  1  0
  3 28  1  0
  3 29  1  0
  4 30  1  0
  4 31  1  0
  5 32  1  0
  8 33  1  0
  8 34  1  0
  9 35  1  0
 13 36  1  0
 14 37  1  0
 16 38  1  0
 19 39  1  0
 20 40  1  0
M  END
>  <smiles>  (2) 
CC(C)CNC(=O)CNC(=O)c1ccc2cc(F)ccc2n1

>  <score_type>  (2) 
oracle

>  <origin>  (2) 
autodockgpu

>  <m_score__min__energy>  (2) 
-7.4800000000000004

>  <m_primary>  (2) 
energy

>  <rmsd>  (2) 
8.501234396795548

>  <m_score__min__rmsd>  (2) 
8.501234396795548

>  <meeko>  (2) 
{"free_energy": -6.17, "intermolecular_energy": -7.66, "internal_energy": -1.76, "cluster_size": 8, "cluster_id": 3, "rank_in_cluster": 8}

>  <energy>  (2) 
-7.47

>  <cluster_rmsd>  (2) 
0.65

>  <cluster>  (2) 
1

$$$$

     RDKit          3D

 40 41  0  0  0  0  0  0  0  0999 V2000
  146.2360   73.7520  221.2210 C   0  0  0  0  0  0  0  0  0  0  0  0
  144.9000   73.2680  220.8320 C   0  0  0  0  0  0  0  0  0  0  0  0
  145.0190   72.1960  219.7400 C   0  0  0  0  0  0  0  0  0  0  0  0
  143.9170   74.2800  220.4330 C   0  0  0  0  0  0  0  0  0  0  0  0
  142.5450   74.0450  220.6640 N   0  0  0  0  0  0  0  0  0  0  0  0
  141.4710   74.9220  220.8580 C   0  0  0  0  0  0  0  0  0  0  0  0
  141.6130   76.1950  220.8560 O   0  0  0  0  0  0  0  0  0  0  0  0
  140.0530   74.4960  221.0840 C   0  0  0  0  0  0  0  0  0  0  0  0
  139.9540   73.6240  222.2020 N   0  0  0  0  0  0  0  0  0  0  0  0
  140.3930   72.2490  222.1900 C   0  0  0  0  0  0  0  0  0  0  0  0
  140.9140   71.7270  221.1690 O   0  0  0  0  0  0  0  0  0  0  0  0
  140.2240   71.4490  223.4140 C   0  0  0  0  0  0  0  0  0  0  0  0
  139.5950   70.2310  223.3460 C   0  0  0  0  0  0  0  0  0  0  0  0
  139.4200   69.4580  224.4730 C   0  0  0  0  0  0  0  0  0  0  0  0
  139.8910   69.9330  225.6780 C   0  0  0  0  0  0  0  0  0  0  0  0
  139.7050   69.1480  226.7850 C   0  0  0  0  0  0  0  0  0  0  0  0
  140.1760   69.6210  227.9950 C   0  0  0  0  0  0  0  0  0  0  0  0
  139.9800   68.8250  229.0750 F   0  0  0  0  0  0  0  0  0  0  0  0
  140.8070   70.8460  228.0610 C   0  0  0  0  0  0  0  0  0  0  0  0
  141.0060   71.6570  226.9600 C   0  0  0  0  0  0  0  0  0  0  0  0
  140.5300   71.1760  225.7380 C   0  0  0  0  0  0  0  0  0  0  0  0
  140.6720   71.8870  224.6050 N   0  0  0  0  0  0  0  0  0  0  0  0
  146.3110   73.7792  222.3181 H   0  0  0  0  0  0  0  0  0  0  0  0
  147.0032   73.0747  220.8177 H   0  0  0  0  0  0  0  0  0  0  0  0
  146.3913   74.7635  220.8177 H   0  0  0  0  0  0  0  0  0  0  0  0
  144.4927   72.8524  221.7655 H   0  0  0  0  0  0  0  0  0  0  0  0
  145.1288   71.2066  220.2079 H   0  0  0  0  0  0  0  0  0  0  0  0
  144.1141   72.2075  219.1147 H   0  0  0  0  0  0  0  0  0  0  0  0
  145.8994   72.4057  219.1147 H   0  0  0  0  0  0  0  0  0  0  0  0
  144.1771   75.2064  220.9661 H   0  0  0  0  0  0  0  0  0  0  0  0
  143.9950   74.2974  219.3359 H   0  0  0  0  0  0  0  0  0  0  0  0
  142.2560   72.9980  220.6680 H   0  0  0  0  0  0  0  0  0  0  0  0
  139.4348   75.3872  221.2673 H   0  0  0  0  0  0  0  0  0  0  0  0
  139.7019   73.9599  220.1899 H   0  0  0  0  0  0  0  0  0  0  0  0
  139.5350   73.9720  223.1170 H   0  0  0  0  0  0  0  0  0  0  0  0
  139.2248   69.8663  222.3765 H   0  0  0  0  0  0  0  0  0  0  0  0
  138.9151   68.4826  224.4123 H   0  0  0  0  0  0  0  0  0  0  0  0
  139.1981   68.1744  226.7133 H   0  0  0  0  0  0  0  0  0  0  0  0
  141.1699   71.1947  229.0391 H   0  0  0  0  0  0  0  0  0  0  0  0
  141.5125   72.6300  227.0416 H   0  0  0  0  0  0  0  0  0  0  0  0
  1  2  1  0
  2  3  1  0
  2  4  1  0
  4  5  1  0
  5  6  1  0
  6  7  2  0
  6  8  1  0
  8  9  1  0
  9 10  1  0
 10 11  2  0
 10 12  1  0
 12 13  2  0
 13 14  1  0
 14 15  2  0
 15 16  1  0
 16 17  2  0
 17 18  1  0
 17 19  1  0
 19 20  2  0
 20 21  1  0
 21 22  2  0
 22 12  1  0
 21 15  1  0
  1 23  1  0
  1 24  1  0
  1 25  1  0
  2 26  1  0
  3 27  1  0
  3 28  1  0
  3 29  1  0
  4 30  1  0
  4 31  1  0
  5 32  1  0
  8 33  1  0
  8 34  1  0
  9 35  1  0
 13 36  1  0
 14 37  1  0
 16 38  1  0
 19 39  1  0
 20 40  1  0
M  END
>  <smiles>  (3) 
CC(C)CNC(=O)CNC(=O)c1ccc2cc(F)ccc2n1

>  <score_type>  (3) 
oracle

>  <origin>  (3) 
autodockgpu

>  <m_score__min__energy>  (3) 
-7.4800000000000004

>  <m_primary>  (3) 
energy

>  <rmsd>  (3) 
3.5732011424942693

>  <m_score__min__rmsd>  (3) 
3.5732011424942693

>  <meeko>  (3) 
{"free_energy": -6.77, "intermolecular_energy": -8.26, "internal_energy": -1.61, "cluster_size": 33, "cluster_id": 2, "rank_in_cluster": 6}

>  <energy>  (3) 
-7.02

>  <cluster_rmsd>  (3) 
0.95

>  <cluster>  (3) 
1

$$$$

     RDKit          3D

 40 41  0  0  0  0  0  0  0  0999 V2000
  141.0730   71.9100  227.9670 C   0  0  0  0  0  0  0  0  0  0  0  0
  140.6340   70.8400  227.0540 C   0  0  0  0  0  0  0  0  0  0  0  0
  140.7140   69.4770  227.7530 C   0  0  0  0  0  0  0  0  0  0  0  0
  141.2940   70.7700  225.7460 C   0  0  0  0  0  0  0  0  0  0  0  0
  140.5700   71.1100  224.5840 N   0  0  0  0  0  0  0  0  0  0  0  0
  139.2390   70.8790  224.2170 C   0  0  0  0  0  0  0  0  0  0  0  0
  138.4150   70.2550  224.9730 O   0  0  0  0  0  0  0  0  0  0  0  0
  138.6210   71.3250  222.9280 C   0  0  0  0  0  0  0  0  0  0  0  0
  139.0860   72.6160  222.5580 N   0  0  0  0  0  0  0  0  0  0  0  0
  140.3710   72.8640  221.9490 C   0  0  0  0  0  0  0  0  0  0  0  0
  141.1750   71.9290  221.6920 O   0  0  0  0  0  0  0  0  0  0  0  0
  140.7350   74.2520  221.6230 C   0  0  0  0  0  0  0  0  0  0  0  0
  141.6920   74.4950  220.6700 C   0  0  0  0  0  0  0  0  0  0  0  0
  142.0570   75.7830  220.3420 C   0  0  0  0  0  0  0  0  0  0  0  0
  141.4380   76.8300  220.9920 C   0  0  0  0  0  0  0  0  0  0  0  0
  141.8170   78.1000  220.6510 C   0  0  0  0  0  0  0  0  0  0  0  0
  141.1990   79.1520  221.3010 C   0  0  0  0  0  0  0  0  0  0  0  0
  141.5910   80.4000  220.9430 F   0  0  0  0  0  0  0  0  0  0  0  0
  140.2380   78.9040  222.2580 C   0  0  0  0  0  0  0  0  0  0  0  0
  139.8380   77.6330  222.6210 C   0  0  0  0  0  0  0  0  0  0  0  0
  140.4640   76.5710  221.9620 C   0  0  0  0  0  0  0  0  0  0  0  0
  140.1490   75.2940  222.2410 N   0  0  0  0  0  0  0  0  0  0  0  0
  140.9383   71.5818  229.0082 H   0  0  0  0  0  0  0  0  0  0  0  0
  142.1351   72.1326  227.7872 H   0  0  0  0  0  0  0  0  0  0  0  0
  140.4733   72.8144  227.7872 H   0  0  0  0  0  0  0  0  0  0  0  0
  139.5954   71.1128  226.8157 H   0  0  0  0  0  0  0  0  0  0  0  0
  140.7054   69.6230  228.8432 H   0  0  0  0  0  0  0  0  0  0  0  0
  139.8504   68.8626  227.4585 H   0  0  0  0  0  0  0  0  0  0  0  0
  141.6436   68.9679  227.4585 H   0  0  0  0  0  0  0  0  0  0  0  0
  142.1633   71.4427  225.7897 H   0  0  0  0  0  0  0  0  0  0  0  0
  141.5001   69.6971  225.6175 H   0  0  0  0  0  0  0  0  0  0  0  0
  141.1310   71.6760  223.8460 H   0  0  0  0  0  0  0  0  0  0  0  0
  138.8838   70.6079  222.1364 H   0  0  0  0  0  0  0  0  0  0  0  0
  137.5300   71.3711  223.0608 H   0  0  0  0  0  0  0  0  0  0  0  0
  138.4760   73.4730  222.7260 H   0  0  0  0  0  0  0  0  0  0  0  0
  142.1753   73.6487  220.1599 H   0  0  0  0  0  0  0  0  0  0  0  0
  142.8256   75.9718  219.5781 H   0  0  0  0  0  0  0  0  0  0  0  0
  142.5871   78.2777  219.8859 H   0  0  0  0  0  0  0  0  0  0  0  0
  139.7657   79.7625  222.7580 H   0  0  0  0  0  0  0  0  0  0  0  0
  139.0676   77.4652  223.3881 H   0  0  0  0  0  0  0  0  0  0  0  0
  1  2  1  0
  2  3  1  0
  2  4  1  0
  4  5  1  0
  5  6  1  0
  6  7  2  0
  6  8  1  0
  8  9  1  0
  9 10  1  0
 10 11  2  0
 10 12  1  0
 12 13  2  0
 13 14  1  0
 14 15  2  0
 15 16  1  0
 16 17  2  0
 17 18  1  0
 17 19  1  0
 19 20  2  0
 20 21  1  0
 21 22  2  0
 22 12  1  0
 21 15  1  0
  1 23  1  0
  1 24  1  0
  1 25  1  0
  2 26  1  0
  3 27  1  0
  3 28  1  0
  3 29  1  0
  4 30  1  0
  4 31  1  0
  5 32  1  0
  8 33  1  0
  8 34  1  0
  9 35  1  0
 13 36  1  0
 14 37  1  0
 16 38  1  0
 19 39  1  0
 20 40  1  0
M  END
>  <smiles>  (4) 
CC(C)CNC(=O)CNC(=O)c1ccc2cc(F)ccc2n1

>  <score_type>  (4) 
oracle

>  <origin>  (4) 
autodockgpu

>  <m_score__min__energy>  (4) 
-7.4800000000000004

>  <m_primary>  (4) 
energy

>  <rmsd>  (4) 
8.552594741198325

>  <m_score__min__rmsd>  (4) 
8.552594741198325

>  <meeko>  (4) 
{"free_energy": -6.28, "intermolecular_energy": -7.78, "internal_energy": -1.73, "cluster_size": 8, "cluster_id": 3, "rank_in_cluster": 2}

>  <energy>  (4) 
-6.94

>  <cluster_rmsd>  (4) 
0.97

>  <cluster>  (4) 
1

$$$$

     RDKit          3D

 40 41  0  0  0  0  0  0  0  0999 V2000
  143.7890   72.3540  220.8180 C   0  0  0  0  0  0  0  0  0  0  0  0
  144.4640   73.5390  220.2620 C   0  0  0  0  0  0  0  0  0  0  0  0
  145.8410   73.7230  220.9150 C   0  0  0  0  0  0  0  0  0  0  0  0
  143.7230   74.8030  220.2950 C   0  0  0  0  0  0  0  0  0  0  0  0
  142.4240   74.8320  220.8460 N   0  0  0  0  0  0  0  0  0  0  0  0
  141.1900   74.4100  220.3380 C   0  0  0  0  0  0  0  0  0  0  0  0
  141.0650   73.8880  219.1760 O   0  0  0  0  0  0  0  0  0  0  0  0
  139.8880   74.5070  221.0730 C   0  0  0  0  0  0  0  0  0  0  0  0
  139.8630   73.6250  222.1880 N   0  0  0  0  0  0  0  0  0  0  0  0
  140.2250   72.2300  222.1170 C   0  0  0  0  0  0  0  0  0  0  0  0
  140.6040   71.6960  221.0410 O   0  0  0  0  0  0  0  0  0  0  0  0
  140.1460   71.4230  223.3450 C   0  0  0  0  0  0  0  0  0  0  0  0
  139.5830   70.1720  223.2990 C   0  0  0  0  0  0  0  0  0  0  0  0
  139.4930   69.3910  224.4310 C   0  0  0  0  0  0  0  0  0  0  0  0
  139.9820   69.8930  225.6180 C   0  0  0  0  0  0  0  0  0  0  0  0
  139.8820   69.1000  226.7300 C   0  0  0  0  0  0  0  0  0  0  0  0
  140.3710   69.5990  227.9220 C   0  0  0  0  0  0  0  0  0  0  0  0
  140.2600   68.7940  229.0080 F   0  0  0  0  0  0  0  0  0  0  0  0
  140.9360   70.8560  227.9660 C   0  0  0  0  0  0  0  0  0  0  0  0
  141.0490   71.6760  226.8590 C   0  0  0  0  0  0  0  0  0  0  0  0
  140.5530   71.1690  225.6560 C   0  0  0  0  0  0  0  0  0  0  0  0
  140.6140   71.8860  224.5190 N   0  0  0  0  0  0  0  0  0  0  0  0
  143.8147   72.3992  221.9168 H   0  0  0  0  0  0  0  0  0  0  0  0
  142.7436   72.3334  220.4762 H   0  0  0  0  0  0  0  0  0  0  0  0
  144.3045   71.4443  220.4762 H   0  0  0  0  0  0  0  0  0  0  0  0
  144.5509   73.3082  219.1900 H   0  0  0  0  0  0  0  0  0  0  0  0
  145.7326   73.7085  222.0095 H   0  0  0  0  0  0  0  0  0  0  0  0
  146.5075   72.9059  220.6017 H   0  0  0  0  0  0  0  0  0  0  0  0
  146.2696   74.6864  220.6017 H   0  0  0  0  0  0  0  0  0  0  0  0
  144.3312   75.5156  220.8714 H   0  0  0  0  0  0  0  0  0  0  0  0
  143.5585   75.0342  219.2322 H   0  0  0  0  0  0  0  0  0  0  0  0
  142.3650   75.2280  221.8560 H   0  0  0  0  0  0  0  0  0  0  0  0
  139.7519   75.5391  221.4282 H   0  0  0  0  0  0  0  0  0  0  0  0
  139.0768   74.2247  220.3858 H   0  0  0  0  0  0  0  0  0  0  0  0
  139.5640   73.9820  223.1450 H   0  0  0  0  0  0  0  0  0  0  0  0
  139.1975   69.7867  222.3435 H   0  0  0  0  0  0  0  0  0  0  0  0
  139.0409   68.3891  224.3882 H   0  0  0  0  0  0  0  0  0  0  0  0
  139.4278   68.0996  226.6760 H   0  0  0  0  0  0  0  0  0  0  0  0
  141.3158   71.2247  228.9303 H   0  0  0  0  0  0  0  0  0  0  0  0
  141.5054   72.6749  226.9222 H   0  0  0  0  0  0  0  0  0  0  0  0
  1  2  1  0
  2  3  1  0
  2  4  1  0
  4  5  1  0
  5  6  1  0
  6  7  2  0
  6  8  1  0
  8  9  1  0
  9 10  1  0
 10 11  2  0
 10 12  1  0
 12 13  2  0
 13 14  1  0
 14 15  2  0
 15 16  1  0
 16 17  2  0
 17 18  1  0
 17 19  1  0
 19 20  2  0
 20 21  1  0
 21 22  2  0
 22 12  1  0
 21 15  1  0
  1 23  1  0
  1 24  1  0
  1 25  1  0
  2 26  1  0
  3 27  1  0
  3 28  1  0
  3 29  1  0
  4 30  1  0
  4 31  1  0
  5 32  1  0
  8 33  1  0
  8 34  1  0
  9 35  1  0
 13 36  1  0
 14 37  1  0
 16 38  1  0
 19 39  1  0
 20 40  1  0
M  END
>  <smiles>  (5) 
CC(C)CNC(=O)CNC(=O)c1ccc2cc(F)ccc2n1

>  <score_type>  (5) 
oracle

>  <origin>  (5) 
autodockgpu

>  <m_score__min__energy>  (5) 
-7.4800000000000004

>  <m_primary>  (5) 
energy

>  <rmsd>  (5) 
3.2386353894145543

>  <m_score__min__rmsd>  (5) 
3.2386353894145543

>  <meeko>  (5) 
{"free_energy": -6.87, "intermolecular_energy": -8.36, "internal_energy": -1.09, "cluster_size": 33, "cluster_id": 2, "rank_in_cluster": 3}

>  <energy>  (5) 
-6.92

>  <cluster_rmsd>  (5) 
1.03

>  <cluster>  (5) 
1

$$$$

     RDKit          3D

 40 41  0  0  0  0  0  0  0  0999 V2000
  143.8570   72.3790  220.8220 C   0  0  0  0  0  0  0  0  0  0  0  0
  144.5580   73.5440  220.2540 C   0  0  0  0  0  0  0  0  0  0  0  0
  145.9100   73.7440  220.9520 C   0  0  0  0  0  0  0  0  0  0  0  0
  143.8210   74.8110  220.2210 C   0  0  0  0  0  0  0  0  0  0  0  0
  142.5240   74.8750  220.7740 N   0  0  0  0  0  0  0  0  0  0  0  0
  141.3060   74.3280  220.3530 C   0  0  0  0  0  0  0  0  0  0  0  0
  141.1990   73.6240  219.2890 O   0  0  0  0  0  0  0  0  0  0  0  0
  140.0050   74.4890  221.0760 C   0  0  0  0  0  0  0  0  0  0  0  0
  139.9330   73.6190  222.1980 N   0  0  0  0  0  0  0  0  0  0  0  0
  140.3170   72.2290  222.1630 C   0  0  0  0  0  0  0  0  0  0  0  0
  140.7590   71.6880  221.1150 O   0  0  0  0  0  0  0  0  0  0  0  0
  140.1840   71.4340  223.3950 C   0  0  0  0  0  0  0  0  0  0  0  0
  139.5910   70.1980  223.3430 C   0  0  0  0  0  0  0  0  0  0  0  0
  139.4500   69.4290  224.4780 C   0  0  0  0  0  0  0  0  0  0  0  0
  139.9190   69.9280  225.6750 C   0  0  0  0  0  0  0  0  0  0  0  0
  139.7690   69.1470  226.7890 C   0  0  0  0  0  0  0  0  0  0  0  0
  140.2380   69.6430  227.9910 C   0  0  0  0  0  0  0  0  0  0  0  0
  140.0770   68.8510  229.0790 F   0  0  0  0  0  0  0  0  0  0  0  0
  140.8330   70.8860  228.0390 C   0  0  0  0  0  0  0  0  0  0  0  0
  140.9970   71.6930  226.9310 C   0  0  0  0  0  0  0  0  0  0  0  0
  140.5220   71.1890  225.7180 C   0  0  0  0  0  0  0  0  0  0  0  0
  140.6320   71.8950  224.5770 N   0  0  0  0  0  0  0  0  0  0  0  0
  143.8887   72.4316  221.9203 H   0  0  0  0  0  0  0  0  0  0  0  0
  142.8099   72.3809  220.4849 H   0  0  0  0  0  0  0  0  0  0  0  0
  144.3491   71.4548  220.4849 H   0  0  0  0  0  0  0  0  0  0  0  0
  144.6843   73.2797  219.1937 H   0  0  0  0  0  0  0  0  0  0  0  0
  145.7664   73.7228  222.0424 H   0  0  0  0  0  0  0  0  0  0  0  0
  146.5978   72.9378  220.6570 H   0  0  0  0  0  0  0  0  0  0  0  0
  146.3349   74.7148  220.6570 H   0  0  0  0  0  0  0  0  0  0  0  0
  144.4338   75.5516  220.7558 H   0  0  0  0  0  0  0  0  0  0  0  0
  143.6532   74.9844  219.1478 H   0  0  0  0  0  0  0  0  0  0  0  0
  142.4530   75.4240  221.7090 H   0  0  0  0  0  0  0  0  0  0  0  0
  139.9120   75.5293  221.4212 H   0  0  0  0  0  0  0  0  0  0  0  0
  139.1872   74.2369  220.3849 H   0  0  0  0  0  0  0  0  0  0  0  0
  139.5790   73.9820  223.1340 H   0  0  0  0  0  0  0  0  0  0  0  0
  139.2222   69.8146  222.3802 H   0  0  0  0  0  0  0  0  0  0  0  0
  138.9737   68.4386  224.4301 H   0  0  0  0  0  0  0  0  0  0  0  0
  139.2913   68.1579  226.7298 H   0  0  0  0  0  0  0  0  0  0  0  0
  141.1957   71.2535  229.0103 H   0  0  0  0  0  0  0  0  0  0  0  0
  141.4764   72.6807  226.9998 H   0  0  0  0  0  0  0  0  0  0  0  0
  1  2  1  0
  2  3  1  0
  2  4  1  0
  4  5  1  0
  5  6  1  0
  6  7  2  0
  6  8  1  0
  8  9  1  0
  9 10  1  0
 10 11  2  0
 10 12  1  0
 12 13  2  0
 13 14  1  0
 14 15  2  0
 15 16  1  0
 16 17  2  0
 17 18  1  0
 17 19  1  0
 19 20  2  0
 20 21  1  0
 21 22  2  0
 22 12  1  0
 21 15  1  0
  1 23  1  0
  1 24  1  0
  1 25  1  0
  2 26  1  0
  3 27  1  0
  3 28  1  0
  3 29  1  0
  4 30  1  0
  4 31  1  0
  5 32  1  0
  8 33  1  0
  8 34  1  0
  9 35  1  0
 13 36  1  0
 14 37  1  0
 16 38  1  0
 19 39  1  0
 20 40  1  0
M  END
>  <smiles>  (6) 
CC(C)CNC(=O)CNC(=O)c1ccc2cc(F)ccc2n1

>  <score_type>  (6) 
oracle

>  <origin>  (6) 
autodockgpu

>  <m_score__min__energy>  (6) 
-7.4800000000000004

>  <m_primary>  (6) 
energy

>  <rmsd>  (6) 
3.281208265311933

>  <m_score__min__rmsd>  (6) 
3.281208265311933

>  <meeko>  (6) 
{"free_energy": -7.0, "intermolecular_energy": -8.5, "internal_energy": -1.0, "cluster_size": 33, "cluster_id": 2, "rank_in_cluster": 2}

>  <energy>  (6) 
-6.88

>  <cluster_rmsd>  (6) 
0.92

>  <cluster>  (6) 
1

$$$$

     RDKit          3D

 40 41  0  0  0  0  0  0  0  0999 V2000
  141.0330   71.8870  227.9400 C   0  0  0  0  0  0  0  0  0  0  0  0
  140.5780   70.8000  227.0550 C   0  0  0  0  0  0  0  0  0  0  0  0
  140.6770   69.4490  227.7780 C   0  0  0  0  0  0  0  0  0  0  0  0
  141.2100   70.7080  225.7360 C   0  0  0  0  0  0  0  0  0  0  0  0
  140.4740   71.0650  224.5860 N   0  0  0  0  0  0  0  0  0  0  0  0
  139.1560   70.7890  224.2040 C   0  0  0  0  0  0  0  0  0  0  0  0
  138.3610   70.0930  224.9270 O   0  0  0  0  0  0  0  0  0  0  0  0
  138.5210   71.2630  222.9330 C   0  0  0  0  0  0  0  0  0  0  0  0
  139.0080   72.5460  222.5650 N   0  0  0  0  0  0  0  0  0  0  0  0
  140.3020   72.7740  221.9670 C   0  0  0  0  0  0  0  0  0  0  0  0
  141.0940   71.8280  221.7170 O   0  0  0  0  0  0  0  0  0  0  0  0
  140.6900   74.1570  221.6430 C   0  0  0  0  0  0  0  0  0  0  0  0
  141.6750   74.3850  220.7150 C   0  0  0  0  0  0  0  0  0  0  0  0
  142.0620   75.6670  220.3900 C   0  0  0  0  0  0  0  0  0  0  0  0
  141.4370   76.7230  221.0170 C   0  0  0  0  0  0  0  0  0  0  0  0
  141.8380   77.9880  220.6790 C   0  0  0  0  0  0  0  0  0  0  0  0
  141.2130   79.0500  221.3060 C   0  0  0  0  0  0  0  0  0  0  0  0
  141.6280   80.2910  220.9520 F   0  0  0  0  0  0  0  0  0  0  0  0
  140.2240   78.8170  222.2370 C   0  0  0  0  0  0  0  0  0  0  0  0
  139.8010   77.5520  222.5970 C   0  0  0  0  0  0  0  0  0  0  0  0
  140.4340   76.4810  221.9620 C   0  0  0  0  0  0  0  0  0  0  0  0
  140.0980   75.2080  222.2390 N   0  0  0  0  0  0  0  0  0  0  0  0
  140.9057   71.5829  228.9895 H   0  0  0  0  0  0  0  0  0  0  0  0
  142.0949   72.0979  227.7456 H   0  0  0  0  0  0  0  0  0  0  0  0
  140.4380   72.7915  227.7456 H   0  0  0  0  0  0  0  0  0  0  0  0
  139.5341   71.0661  226.8326 H   0  0  0  0  0  0  0  0  0  0  0  0
  140.6650   69.6134  228.8656 H   0  0  0  0  0  0  0  0  0  0  0  0
  139.8227   68.8172  227.4932 H   0  0  0  0  0  0  0  0  0  0  0  0
  141.6142   68.9485  227.4932 H   0  0  0  0  0  0  0  0  0  0  0  0
  142.0985   71.3561  225.7611 H   0  0  0  0  0  0  0  0  0  0  0  0
  141.3830   69.6293  225.6073 H   0  0  0  0  0  0  0  0  0  0  0  0
  141.0100   71.6900  223.8770 H   0  0  0  0  0  0  0  0  0  0  0  0
  138.7494   70.5479  222.1289 H   0  0  0  0  0  0  0  0  0  0  0  0
  137.4347   71.3338  223.0906 H   0  0  0  0  0  0  0  0  0  0  0  0
  138.4110   73.4120  222.7290 H   0  0  0  0  0  0  0  0  0  0  0  0
  142.1633   73.5310  220.2229 H   0  0  0  0  0  0  0  0  0  0  0  0
  142.8528   75.8436  219.6461 H   0  0  0  0  0  0  0  0  0  0  0  0
  142.6303   78.1535  219.9341 H   0  0  0  0  0  0  0  0  0  0  0  0
  139.7466   79.6832  222.7185 H   0  0  0  0  0  0  0  0  0  0  0  0
  139.0083   77.3966  223.3436 H   0  0  0  0  0  0  0  0  0  0  0  0
  1  2  1  0
  2  3  1  0
  2  4  1  0
  4  5  1  0
  5  6  1  0
  6  7  2  0
  6  8  1  0
  8  9  1  0
  9 10  1  0
 10 11  2  0
 10 12  1  0
 12 13  2  0
 13 14  1  0
 14 15  2  0
 15 16  1  0
 16 17  2  0
 17 18  1  0
 17 19  1  0
 19 20  2  0
 20 21  1  0
 21 22  2  0
 22 12  1  0
 21 15  1  0
  1 23  1  0
  1 24  1  0
  1 25  1  0
  2 26  1  0
  3 27  1  0
  3 28  1  0
  3 29  1  0
  4 30  1  0
  4 31  1  0
  5 32  1  0
  8 33  1  0
  8 34  1  0
  9 35  1  0
 13 36  1  0
 14 37  1  0
 16 38  1  0
 19 39  1  0
 20 40  1  0
M  END
>  <smiles>  (7) 
CC(C)CNC(=O)CNC(=O)c1ccc2cc(F)ccc2n1

>  <score_type>  (7) 
oracle

>  <origin>  (7) 
autodockgpu

>  <m_score__min__energy>  (7) 
-7.4800000000000004

>  <m_primary>  (7) 
energy

>  <rmsd>  (7) 
8.51446280806302

>  <m_score__min__rmsd>  (7) 
8.51446280806302

>  <meeko>  (7) 
{"free_energy": -6.27, "intermolecular_energy": -7.77, "internal_energy": -1.73, "cluster_size": 8, "cluster_id": 3, "rank_in_cluster": 3}

>  <energy>  (7) 
-6.82

>  <cluster_rmsd>  (7) 
0.94

>  <cluster>  (7) 
1

$$$$

     RDKit          3D

 40 41  0  0  0  0  0  0  0  0999 V2000
  140.1910   79.2200  223.1850 C   0  0  0  0  0  0  0  0  0  0  0  0
  141.4090   78.6780  222.5590 C   0  0  0  0  0  0  0  0  0  0  0  0
  142.5690   79.6720  222.7000 C   0  0  0  0  0  0  0  0  0  0  0  0
  141.2980   78.2340  221.1660 C   0  0  0  0  0  0  0  0  0  0  0  0
  141.0020   76.8830  220.8880 N   0  0  0  0  0  0  0  0  0  0  0  0
  140.2690   75.9270  221.6010 C   0  0  0  0  0  0  0  0  0  0  0  0
  139.7140   76.1830  222.7260 O   0  0  0  0  0  0  0  0  0  0  0  0
  140.0410   74.5170  221.1490 C   0  0  0  0  0  0  0  0  0  0  0  0
  139.9380   73.6350  222.2590 N   0  0  0  0  0  0  0  0  0  0  0  0
  140.3460   72.2510  222.2250 C   0  0  0  0  0  0  0  0  0  0  0  0
  140.8390   71.7290  221.1900 O   0  0  0  0  0  0  0  0  0  0  0  0
  140.1770   71.4420  223.4420 C   0  0  0  0  0  0  0  0  0  0  0  0
  139.5580   70.2190  223.3630 C   0  0  0  0  0  0  0  0  0  0  0  0
  139.3830   69.4370  224.4840 C   0  0  0  0  0  0  0  0  0  0  0  0
  139.8450   69.9070  225.6950 C   0  0  0  0  0  0  0  0  0  0  0  0
  139.6610   69.1140  226.7950 C   0  0  0  0  0  0  0  0  0  0  0  0
  140.1230   69.5820  228.0110 C   0  0  0  0  0  0  0  0  0  0  0  0
  139.9280   68.7760  229.0840 F   0  0  0  0  0  0  0  0  0  0  0  0
  140.7450   70.8100  228.0870 C   0  0  0  0  0  0  0  0  0  0  0  0
  140.9430   71.6300  226.9930 C   0  0  0  0  0  0  0  0  0  0  0  0
  140.4750   71.1540  225.7660 C   0  0  0  0  0  0  0  0  0  0  0  0
  140.6180   71.8740  224.6380 N   0  0  0  0  0  0  0  0  0  0  0  0
  140.2905   79.1757  224.2796 H   0  0  0  0  0  0  0  0  0  0  0  0
  140.0515   80.2651  222.8715 H   0  0  0  0  0  0  0  0  0  0  0  0
  139.3213   78.6240  222.8715 H   0  0  0  0  0  0  0  0  0  0  0  0
  141.5993   77.7520  223.1214 H   0  0  0  0  0  0  0  0  0  0  0  0
  142.7739   79.8475  223.7664 H   0  0  0  0  0  0  0  0  0  0  0  0
  143.4668   79.2586  222.2173 H   0  0  0  0  0  0  0  0  0  0  0  0
  142.2980   80.6226  222.2173 H   0  0  0  0  0  0  0  0  0  0  0  0
  140.5049   78.8375  220.7003 H   0  0  0  0  0  0  0  0  0  0  0  0
  142.3176   78.3607  220.7730 H   0  0  0  0  0  0  0  0  0  0  0  0
  141.3860   76.5170  219.9400 H   0  0  0  0  0  0  0  0  0  0  0  0
  139.1087   74.4725  220.5668 H   0  0  0  0  0  0  0  0  0  0  0  0
  140.8967   74.2047  220.5323 H   0  0  0  0  0  0  0  0  0  0  0  0
  139.5410   73.9820  223.1830 H   0  0  0  0  0  0  0  0  0  0  0  0
  139.1960   69.8576  222.3892 H   0  0  0  0  0  0  0  0  0  0  0  0
  138.8853   68.4585  224.4142 H   0  0  0  0  0  0  0  0  0  0  0  0
  139.1622   68.1369  226.7143 H   0  0  0  0  0  0  0  0  0  0  0  0
  141.1018   71.1545  229.0689 H   0  0  0  0  0  0  0  0  0  0  0  0
  141.4426   72.6058  227.0833 H   0  0  0  0  0  0  0  0  0  0  0  0
  1  2  1  0
  2  3  1  0
  2  4  1  0
  4  5  1  0
  5  6  1  0
  6  7  2  0
  6  8  1  0
  8  9  1  0
  9 10  1  0
 10 11  2  0
 10 12  1  0
 12 13  2  0
 13 14  1  0
 14 15  2  0
 15 16  1  0
 16 17  2  0
 17 18  1  0
 17 19  1  0
 19 20  2  0
 20 21  1  0
 21 22  2  0
 22 12  1  0
 21 15  1  0
  1 23  1  0
  1 24  1  0
  1 25  1  0
  2 26  1  0
  3 27  1  0
  3 28  1  0
  3 29  1  0
  4 30  1  0
  4 31  1  0
  5 32  1  0
  8 33  1  0
  8 34  1  0
  9 35  1  0
 13 36  1  0
 14 37  1  0
 16 38  1  0
 19 39  1  0
 20 40  1  0
M  END
>  <smiles>  (8) 
CC(C)CNC(=O)CNC(=O)c1ccc2cc(F)ccc2n1

>  <score_type>  (8) 
oracle

>  <origin>  (8) 
autodockgpu

>  <m_score__min__energy>  (8) 
-7.4800000000000004

>  <m_primary>  (8) 
energy

>  <rmsd>  (8) 
3.244532406300788

>  <m_score__min__rmsd>  (8) 
3.244532406300788

>  <meeko>  (8) 
{"free_energy": -6.92, "intermolecular_energy": -8.41, "internal_energy": -1.34, "cluster_size": 9, "cluster_id": 1, "rank_in_cluster": 5}

>  <energy>  (8) 
-6.34

>  <cluster_rmsd>  (8) 
1.72

>  <cluster>  (8) 
1

$$$$

     RDKit          3D

 40 41  0  0  0  0  0  0  0  0999 V2000
  141.0780   71.8580  227.9540 C   0  0  0  0  0  0  0  0  0  0  0  0
  140.6040   70.7670  227.0840 C   0  0  0  0  0  0  0  0  0  0  0  0
  140.7410   69.4170  227.8020 C   0  0  0  0  0  0  0  0  0  0  0  0
  141.1920   70.6820  225.7440 C   0  0  0  0  0  0  0  0  0  0  0  0
  140.4190   71.0440  224.6220 N   0  0  0  0  0  0  0  0  0  0  0  0
  139.1080   70.7190  224.2520 C   0  0  0  0  0  0  0  0  0  0  0  0
  138.3600   69.9610  224.9630 O   0  0  0  0  0  0  0  0  0  0  0  0
  138.4270   71.2070  223.0100 C   0  0  0  0  0  0  0  0  0  0  0  0
  138.9610   72.4560  222.5920 N   0  0  0  0  0  0  0  0  0  0  0  0
  140.2550   72.6100  221.9720 C   0  0  0  0  0  0  0  0  0  0  0  0
  141.0060   71.6240  221.7470 O   0  0  0  0  0  0  0  0  0  0  0  0
  140.6940   73.9640  221.5950 C   0  0  0  0  0  0  0  0  0  0  0  0
  141.7110   74.1180  220.6860 C   0  0  0  0  0  0  0  0  0  0  0  0
  142.1460   75.3710  220.3120 C   0  0  0  0  0  0  0  0  0  0  0  0
  141.5370   76.4740  220.8700 C   0  0  0  0  0  0  0  0  0  0  0  0
  141.9850   77.7080  220.4840 C   0  0  0  0  0  0  0  0  0  0  0  0
  141.3760   78.8170  221.0420 C   0  0  0  0  0  0  0  0  0  0  0  0
  141.8380   80.0280  220.6420 F   0  0  0  0  0  0  0  0  0  0  0  0
  140.3540   78.6590  221.9540 C   0  0  0  0  0  0  0  0  0  0  0  0
  139.8830   77.4260  222.3600 C   0  0  0  0  0  0  0  0  0  0  0  0
  140.5010   76.3070  221.7950 C   0  0  0  0  0  0  0  0  0  0  0  0
  140.1180   75.0590  222.1230 N   0  0  0  0  0  0  0  0  0  0  0  0
  140.9520   71.5679  229.0075 H   0  0  0  0  0  0  0  0  0  0  0  0
  142.1417   72.0523  227.7519 H   0  0  0  0  0  0  0  0  0  0  0  0
  140.4942   72.7681  227.7519 H   0  0  0  0  0  0  0  0  0  0  0  0
  139.5505   71.0226  226.8974 H   0  0  0  0  0  0  0  0  0  0  0  0
  140.7247   69.5771  228.8902 H   0  0  0  0  0  0  0  0  0  0  0  0
  139.9046   68.7626  227.5152 H   0  0  0  0  0  0  0  0  0  0  0  0
  141.6918   68.9440  227.5152 H   0  0  0  0  0  0  0  0  0  0  0  0
  142.0806   71.3304  225.7429 H   0  0  0  0  0  0  0  0  0  0  0  0
  141.3609   69.6041  225.6042 H   0  0  0  0  0  0  0  0  0  0  0  0
  140.9110   71.7180  223.9260 H   0  0  0  0  0  0  0  0  0  0  0  0
  138.5702   70.4683  222.2076 H   0  0  0  0  0  0  0  0  0  0  0  0
  137.3567   71.3391  223.2267 H   0  0  0  0  0  0  0  0  0  0  0  0
  138.4000   73.3510  222.7310 H   0  0  0  0  0  0  0  0  0  0  0  0
  142.1862   73.2273  220.2493 H   0  0  0  0  0  0  0  0  0  0  0  0
  142.9619   75.4882  219.5836 H   0  0  0  0  0  0  0  0  0  0  0  0
  142.8017   77.8142  219.7547 H   0  0  0  0  0  0  0  0  0  0  0  0
  139.8903   79.5610  222.3798 H   0  0  0  0  0  0  0  0  0  0  0  0
  139.0651   77.3297  223.0892 H   0  0  0  0  0  0  0  0  0  0  0  0
  1  2  1  0
  2  3  1  0
  2  4  1  0
  4  5  1  0
  5  6  1  0
  6  7  2  0
  6  8  1  0
  8  9  1  0
  9 10  1  0
 10 11  2  0
 10 12  1  0
 12 13  2  0
 13 14  1  0
 14 15  2  0
 15 16  1  0
 16 17  2  0
 17 18  1  0
 17 19  1  0
 19 20  2  0
 20 21  1  0
 21 22  2  0
 22 12  1  0
 21 15  1  0
  1 23  1  0
  1 24  1  0
  1 25  1  0
  2 26  1  0
  3 27  1  0
  3 28  1  0
  3 29  1  0
  4 30  1  0
  4 31  1  0
  5 32  1  0
  8 33  1  0
  8 34  1  0
  9 35  1  0
 13 36  1  0
 14 37  1  0
 16 38  1  0
 19 39  1  0
 20 40  1  0
M  END
>  <smiles>  (9) 
CC(C)CNC(=O)CNC(=O)c1ccc2cc(F)ccc2n1

>  <score_type>  (9) 
oracle

>  <origin>  (9) 
autodockgpu

>  <m_score__min__energy>  (9) 
-7.4800000000000004

>  <m_primary>  (9) 
energy

>  <rmsd>  (9) 
8.492856568850982

>  <m_score__min__rmsd>  (9) 
8.492856568850982

>  <meeko>  (9) 
{"free_energy": -6.26, "intermolecular_energy": -7.75, "internal_energy": -1.72, "cluster_size": 8, "cluster_id": 3, "rank_in_cluster": 5}

>  <energy>  (9) 
-6.28

>  <cluster_rmsd>  (9) 
1.61

>  <cluster>  (9) 
1

$$$$

     RDKit          3D

 40 41  0  0  0  0  0  0  0  0999 V2000
  142.5270   80.0150  223.4610 C   0  0  0  0  0  0  0  0  0  0  0  0
  142.0940   79.0320  222.4530 C   0  0  0  0  0  0  0  0  0  0  0  0
  141.7910   79.7330  221.1220 C   0  0  0  0  0  0  0  0  0  0  0  0
  140.9810   78.1510  222.8190 C   0  0  0  0  0  0  0  0  0  0  0  0
  140.9440   76.8330  222.3180 N   0  0  0  0  0  0  0  0  0  0  0  0
  139.9020   76.0750  221.7710 C   0  0  0  0  0  0  0  0  0  0  0  0
  138.7120   76.5300  221.6470 O   0  0  0  0  0  0  0  0  0  0  0  0
  140.0410   74.6710  221.2700 C   0  0  0  0  0  0  0  0  0  0  0  0
  139.9520   73.7360  222.3380 N   0  0  0  0  0  0  0  0  0  0  0  0
  140.4480   72.3830  222.2640 C   0  0  0  0  0  0  0  0  0  0  0  0
  141.0140   71.9370  221.2310 O   0  0  0  0  0  0  0  0  0  0  0  0
  140.2840   71.5120  223.4390 C   0  0  0  0  0  0  0  0  0  0  0  0
  139.6660   70.2940  223.2990 C   0  0  0  0  0  0  0  0  0  0  0  0
  139.4960   69.4560  224.3800 C   0  0  0  0  0  0  0  0  0  0  0  0
  139.9600   69.8650  225.6110 C   0  0  0  0  0  0  0  0  0  0  0  0
  139.7800   69.0160  226.6700 C   0  0  0  0  0  0  0  0  0  0  0  0
  140.2440   69.4220  227.9070 C   0  0  0  0  0  0  0  0  0  0  0  0
  140.0540   68.5630  228.9390 F   0  0  0  0  0  0  0  0  0  0  0  0
  140.8640   70.6460  228.0440 C   0  0  0  0  0  0  0  0  0  0  0  0
  141.0590   71.5210  226.9930 C   0  0  0  0  0  0  0  0  0  0  0  0
  140.5880   71.1070  225.7440 C   0  0  0  0  0  0  0  0  0  0  0  0
  140.7270   71.8840  224.6540 N   0  0  0  0  0  0  0  0  0  0  0  0
  142.3487   79.6102  224.4682 H   0  0  0  0  0  0  0  0  0  0  0  0
  143.5998   80.2224  223.3338 H   0  0  0  0  0  0  0  0  0  0  0  0
  141.9559   80.9465  223.3338 H   0  0  0  0  0  0  0  0  0  0  0  0
  142.9547   78.3526  222.3665 H   0  0  0  0  0  0  0  0  0  0  0  0
  141.3617   80.7262  221.3201 H   0  0  0  0  0  0  0  0  0  0  0  0
  142.7215   79.8440  220.5459 H   0  0  0  0  0  0  0  0  0  0  0  0
  141.0726   79.1313  220.5459 H   0  0  0  0  0  0  0  0  0  0  0  0
  140.9799   78.0761  223.9164 H   0  0  0  0  0  0  0  0  0  0  0  0
  140.1083   78.6296  222.3507 H   0  0  0  0  0  0  0  0  0  0  0  0
  141.8990   76.3130  222.3290 H   0  0  0  0  0  0  0  0  0  0  0  0
  139.2387   74.4667  220.5457 H   0  0  0  0  0  0  0  0  0  0  0  0
  141.0271   74.5655  220.7940 H   0  0  0  0  0  0  0  0  0  0  0  0
  139.4980   74.0170  223.2580 H   0  0  0  0  0  0  0  0  0  0  0  0
  139.3011   69.9823  222.3092 H   0  0  0  0  0  0  0  0  0  0  0  0
  139.0003   68.4811  224.2623 H   0  0  0  0  0  0  0  0  0  0  0  0
  139.2827   68.0434  226.5406 H   0  0  0  0  0  0  0  0  0  0  0  0
  141.2217   70.9409  229.0416 H   0  0  0  0  0  0  0  0  0  0  0  0
  141.5581   72.4914  227.1317 H   0  0  0  0  0  0  0  0  0  0  0  0
  1  2  1  0
  2  3  1  0
  2  4  1  0
  4  5  1  0
  5  6  1  0
  6  7  2  0
  6  8  1  0
  8  9  1  0
  9 10  1  0
 10 11  2  0
 10 12  1  0
 12 13  2  0
 13 14  1  0
 14 15  2  0
 15 16  1  0
 16 17  2  0
 17 18  1  0
 17 19  1  0
 19 20  2  0
 20 21  1  0
 21 22  2  0
 22 12  1  0
 21 15  1  0
  1 23  1  0
  1 24  1  0
  1 25  1  0
  2 26  1  0
  3 27  1  0
  3 28  1  0
  3 29  1  0
  4 30  1  0
  4 31  1  0
  5 32  1  0
  8 33  1  0
  8 34  1  0
  9 35  1  0
 13 36  1  0
 14 37  1  0
 16 38  1  0
 19 39  1  0
 20 40  1  0
M  END
>  <smiles>  (10) 
CC(C)CNC(=O)CNC(=O)c1ccc2cc(F)ccc2n1

>  <score_type>  (10) 
oracle

>  <origin>  (10) 
autodockgpu

>  <m_score__min__energy>  (10) 
-7.4800000000000004

>  <m_primary>  (10) 
energy

>  <rmsd>  (10) 
3.460502866768911

>  <m_score__min__rmsd>  (10) 
3.460502866768911

>  <meeko>  (10) 
{"free_energy": -7.47, "intermolecular_energy": -8.96, "internal_energy": -0.77, "cluster_size": 9, "cluster_id": 1, "rank_in_cluster": 2}

>  <energy>  (10) 
-7.07

>  <cluster_rmsd>  (10) 
0.0

>  <cluster>  (10) 
2

$$$$

     RDKit          3D

 40 41  0  0  0  0  0  0  0  0999 V2000
  144.1960   71.9060  220.3980 C   0  0  0  0  0  0  0  0  0  0  0  0
  144.7420   73.2670  220.2570 C   0  0  0  0  0  0  0  0  0  0  0  0
  145.9540   73.4530  221.1800 C   0  0  0  0  0  0  0  0  0  0  0  0
  143.8050   74.3810  220.4330 C   0  0  0  0  0  0  0  0  0  0  0  0
  142.4390   74.1100  220.6600 N   0  0  0  0  0  0  0  0  0  0  0  0
  141.3460   74.9580  220.8700 C   0  0  0  0  0  0  0  0  0  0  0  0
  141.4580   76.2340  220.8920 O   0  0  0  0  0  0  0  0  0  0  0  0
  139.9380   74.4960  221.0890 C   0  0  0  0  0  0  0  0  0  0  0  0
  139.8550   73.6210  222.2060 N   0  0  0  0  0  0  0  0  0  0  0  0
  140.3700   72.2730  222.2100 C   0  0  0  0  0  0  0  0  0  0  0  0
  140.9480   71.7790  221.2060 O   0  0  0  0  0  0  0  0  0  0  0  0
  140.2100   71.4660  223.4310 C   0  0  0  0  0  0  0  0  0  0  0  0
  139.5680   70.2550  223.3630 C   0  0  0  0  0  0  0  0  0  0  0  0
  139.4010   69.4750  224.4880 C   0  0  0  0  0  0  0  0  0  0  0  0
  139.8950   69.9370  225.6890 C   0  0  0  0  0  0  0  0  0  0  0  0
  139.7170   69.1470  226.7930 C   0  0  0  0  0  0  0  0  0  0  0  0
  140.2100   69.6060  228.0000 C   0  0  0  0  0  0  0  0  0  0  0  0
  140.0220   68.8050  229.0760 F   0  0  0  0  0  0  0  0  0  0  0  0
  140.8550   70.8240  228.0640 C   0  0  0  0  0  0  0  0  0  0  0  0
  141.0470   71.6400  226.9660 C   0  0  0  0  0  0  0  0  0  0  0  0
  140.5470   71.1730  225.7480 C   0  0  0  0  0  0  0  0  0  0  0  0
  140.6810   71.8910  224.6180 N   0  0  0  0  0  0  0  0  0  0  0  0
  144.0971   71.6594  221.4654 H   0  0  0  0  0  0  0  0  0  0  0  0
  143.2081   71.8556  219.9169 H   0  0  0  0  0  0  0  0  0  0  0  0
  144.8752   71.1868  219.9169 H   0  0  0  0  0  0  0  0  0  0  0  0
  145.0276   73.3227  219.1962 H   0  0  0  0  0  0  0  0  0  0  0  0
  145.6271   73.4028  222.2291 H   0  0  0  0  0  0  0  0  0  0  0  0
  146.6880   72.6570  220.9862 H   0  0  0  0  0  0  0  0  0  0  0  0
  146.4156   74.4325  220.9862 H   0  0  0  0  0  0  0  0  0  0  0  0
  144.1622   74.9669  221.2927 H   0  0  0  0  0  0  0  0  0  0  0  0
  143.8101   74.8805  219.4530 H   0  0  0  0  0  0  0  0  0  0  0  0
  142.1740   73.0560  220.6440 H   0  0  0  0  0  0  0  0  0  0  0  0
  139.2966   75.3712  221.2697 H   0  0  0  0  0  0  0  0  0  0  0  0
  139.6053   73.9516  220.1929 H   0  0  0  0  0  0  0  0  0  0  0  0
  139.3910   73.9460  223.1070 H   0  0  0  0  0  0  0  0  0  0  0  0
  139.1806   69.9010  222.3963 H   0  0  0  0  0  0  0  0  0  0  0  0
  138.8849   68.5054  224.4282 H   0  0  0  0  0  0  0  0  0  0  0  0
  139.1989   68.1793  226.7218 H   0  0  0  0  0  0  0  0  0  0  0  0
  141.2357   71.1625  229.0389 H   0  0  0  0  0  0  0  0  0  0  0  0
  141.5662   72.6064  227.0465 H   0  0  0  0  0  0  0  0  0  0  0  0
  1  2  1  0
  2  3  1  0
  2  4  1  0
  4  5  1  0
  5  6  1  0
  6  7  2  0
  6  8  1  0
  8  9  1  0
  9 10  1  0
 10 11  2  0
 10 12  1  0
 12 13  2  0
 13 14  1  0
 14 15  2  0
 15 16  1  0
 16 17  2  0
 17 18  1  0
 17 19  1  0
 19 20  2  0
 20 21  1  0
 21 22  2  0
 22 12  1  0
 21 15  1  0
  1 23  1  0
  1 24  1  0
  1 25  1  0
  2 26  1  0
  3 27  1  0
  3 28  1  0
  3 29  1  0
  4 30  1  0
  4 31  1  0
  5 32  1  0
  8 33  1  0
  8 34  1  0
  9 35  1  0
 13 36  1  0
 14 37  1  0
 16 38  1  0
 19 39  1  0
 20 40  1  0
M  END
>  <smiles>  (11) 
CC(C)CNC(=O)CNC(=O)c1ccc2cc(F)ccc2n1

>  <score_type>  (11) 
oracle

>  <origin>  (11) 
autodockgpu

>  <m_score__min__energy>  (11) 
-7.4800000000000004

>  <m_primary>  (11) 
energy

>  <rmsd>  (11) 
3.3803955879758316

>  <m_score__min__rmsd>  (11) 
3.3803955879758316

>  <meeko>  (11) 
{"free_energy": -6.72, "intermolecular_energy": -8.21, "internal_energy": -1.64, "cluster_size": 33, "cluster_id": 2, "rank_in_cluster": 18}

>  <energy>  (11) 
-7.0

>  <cluster_rmsd>  (11) 
0.3

>  <cluster>  (11) 
2

$$$$

     RDKit          3D

 40 41  0  0  0  0  0  0  0  0999 V2000
  144.2810   72.0500  220.4580 C   0  0  0  0  0  0  0  0  0  0  0  0
  144.7800   73.4250  220.2850 C   0  0  0  0  0  0  0  0  0  0  0  0
  145.9790   73.6770  221.2090 C   0  0  0  0  0  0  0  0  0  0  0  0
  143.8030   74.5090  220.4280 C   0  0  0  0  0  0  0  0  0  0  0  0
  142.4420   74.1960  220.6310 N   0  0  0  0  0  0  0  0  0  0  0  0
  141.3390   75.0010  220.9380 C   0  0  0  0  0  0  0  0  0  0  0  0
  141.4340   76.2680  221.0960 O   0  0  0  0  0  0  0  0  0  0  0  0
  139.9390   74.4970  221.1110 C   0  0  0  0  0  0  0  0  0  0  0  0
  139.8460   73.6200  222.2260 N   0  0  0  0  0  0  0  0  0  0  0  0
  140.3880   72.2830  222.2430 C   0  0  0  0  0  0  0  0  0  0  0  0
  141.0010   71.8010  221.2540 O   0  0  0  0  0  0  0  0  0  0  0  0
  140.2140   71.4730  223.4600 C   0  0  0  0  0  0  0  0  0  0  0  0
  139.5760   70.2610  223.3810 C   0  0  0  0  0  0  0  0  0  0  0  0
  139.3960   69.4780  224.5010 C   0  0  0  0  0  0  0  0  0  0  0  0
  139.8730   69.9380  225.7100 C   0  0  0  0  0  0  0  0  0  0  0  0
  139.6830   69.1440  226.8090 C   0  0  0  0  0  0  0  0  0  0  0  0
  140.1600   69.6010  228.0230 C   0  0  0  0  0  0  0  0  0  0  0  0
  139.9600   68.7960  229.0960 F   0  0  0  0  0  0  0  0  0  0  0  0
  140.8010   70.8200  228.0990 C   0  0  0  0  0  0  0  0  0  0  0  0
  141.0050   71.6390  227.0060 C   0  0  0  0  0  0  0  0  0  0  0  0
  140.5220   71.1740  225.7800 C   0  0  0  0  0  0  0  0  0  0  0  0
  140.6690   71.8950  224.6540 N   0  0  0  0  0  0  0  0  0  0  0  0
  144.1983   71.8222  221.5310 H   0  0  0  0  0  0  0  0  0  0  0  0
  143.2917   71.9569  219.9861 H   0  0  0  0  0  0  0  0  0  0  0  0
  144.9803   71.3441  219.9861 H   0  0  0  0  0  0  0  0  0  0  0  0
  145.0703   73.4640  219.2247 H   0  0  0  0  0  0  0  0  0  0  0  0
  145.6544   73.6088  222.2578 H   0  0  0  0  0  0  0  0  0  0  0  0
  146.7558   72.9225  221.0158 H   0  0  0  0  0  0  0  0  0  0  0  0
  146.3863   74.6804  221.0158 H   0  0  0  0  0  0  0  0  0  0  0  0
  144.1230   75.1168  221.2872 H   0  0  0  0  0  0  0  0  0  0  0  0
  143.8115   74.9960  219.4417 H   0  0  0  0  0  0  0  0  0  0  0  0
  142.1910   73.1460  220.5020 H   0  0  0  0  0  0  0  0  0  0  0  0
  139.2660   75.3525  221.2694 H   0  0  0  0  0  0  0  0  0  0  0  0
  139.6522   73.9428  220.2051 H   0  0  0  0  0  0  0  0  0  0  0  0
  139.3530   73.9350  223.1150 H   0  0  0  0  0  0  0  0  0  0  0  0
  139.2022   69.9085  222.4084 H   0  0  0  0  0  0  0  0  0  0  0  0
  138.8830   68.5074  224.4317 H   0  0  0  0  0  0  0  0  0  0  0  0
  139.1682   68.1752  226.7285 H   0  0  0  0  0  0  0  0  0  0  0  0
  141.1682   71.1567  229.0797 H   0  0  0  0  0  0  0  0  0  0  0  0
  141.5206   72.6065  227.0958 H   0  0  0  0  0  0  0  0  0  0  0  0
  1  2  1  0
  2  3  1  0
  2  4  1  0
  4  5  1  0
  5  6  1  0
  6  7  2  0
  6  8  1  0
  8  9  1  0
  9 10  1  0
 10 11  2  0
 10 12  1  0
 12 13  2  0
 13 14  1  0
 14 15  2  0
 15 16  1  0
 16 17  2  0
 17 18  1  0
 17 19  1  0
 19 20  2  0
 20 21  1  0
 21 22  2  0
 22 12  1  0
 21 15  1  0
  1 23  1  0
  1 24  1  0
  1 25  1  0
  2 26  1  0
  3 27  1  0
  3 28  1  0
  3 29  1  0
  4 30  1  0
  4 31  1  0
  5 32  1  0
  8 33  1  0
  8 34  1  0
  9 35  1  0
 13 36  1  0
 14 37  1  0
 16 38  1  0
 19 39  1  0
 20 40  1  0
M  END
>  <smiles>  (12) 
CC(C)CNC(=O)CNC(=O)c1ccc2cc(F)ccc2n1

>  <score_type>  (12) 
oracle

>  <origin>  (12) 
autodockgpu

>  <m_score__min__energy>  (12) 
-7.4800000000000004

>  <m_primary>  (12) 
energy

>  <rmsd>  (12) 
3.3682737943139784

>  <m_score__min__rmsd>  (12) 
3.3682737943139784

>  <meeko>  (12) 
{"free_energy": -6.76, "intermolecular_energy": -8.25, "internal_energy": -1.63, "cluster_size": 33, "cluster_id": 2, "rank_in_cluster": 10}

>  <energy>  (12) 
-6.87

>  <cluster_rmsd>  (12) 
0.36

>  <cluster>  (12) 
2

$$$$

     RDKit          3D

 40 41  0  0  0  0  0  0  0  0999 V2000
  146.1540   73.4280  221.2320 C   0  0  0  0  0  0  0  0  0  0  0  0
  144.7970   73.0250  220.8230 C   0  0  0  0  0  0  0  0  0  0  0  0
  144.8660   72.0270  219.6590 C   0  0  0  0  0  0  0  0  0  0  0  0
  143.8530   74.1000  220.5030 C   0  0  0  0  0  0  0  0  0  0  0  0
  142.4830   73.9310  220.7960 N   0  0  0  0  0  0  0  0  0  0  0  0
  141.3950   74.8050  220.6900 C   0  0  0  0  0  0  0  0  0  0  0  0
  141.5180   76.0090  220.2720 O   0  0  0  0  0  0  0  0  0  0  0  0
  139.9820   74.4540  221.0400 C   0  0  0  0  0  0  0  0  0  0  0  0
  139.9340   73.5890  222.1680 N   0  0  0  0  0  0  0  0  0  0  0  0
  140.3120   72.1960  222.1280 C   0  0  0  0  0  0  0  0  0  0  0  0
  140.7260   71.6500  221.0720 O   0  0  0  0  0  0  0  0  0  0  0  0
  140.2060   71.4080  223.3660 C   0  0  0  0  0  0  0  0  0  0  0  0
  139.6300   70.1630  223.3300 C   0  0  0  0  0  0  0  0  0  0  0  0
  139.5150   69.3980  224.4710 C   0  0  0  0  0  0  0  0  0  0  0  0
  139.9940   69.9110  225.6580 C   0  0  0  0  0  0  0  0  0  0  0  0
  139.8690   69.1340  226.7790 C   0  0  0  0  0  0  0  0  0  0  0  0
  140.3470   69.6450  227.9710 C   0  0  0  0  0  0  0  0  0  0  0  0
  140.2130   68.8560  229.0660 F   0  0  0  0  0  0  0  0  0  0  0  0
  140.9260   70.8960  228.0050 C   0  0  0  0  0  0  0  0  0  0  0  0
  141.0640   71.6990  226.8890 C   0  0  0  0  0  0  0  0  0  0  0  0
  140.5790   71.1810  225.6850 C   0  0  0  0  0  0  0  0  0  0  0  0
  140.6640   71.8810  224.5400 N   0  0  0  0  0  0  0  0  0  0  0  0
  146.2157   73.4463  222.3301 H   0  0  0  0  0  0  0  0  0  0  0  0
  146.8854   72.7083  220.8356 H   0  0  0  0  0  0  0  0  0  0  0  0
  146.3740   74.4302  220.8356 H   0  0  0  0  0  0  0  0  0  0  0  0
  144.3795   72.5626  221.7296 H   0  0  0  0  0  0  0  0  0  0  0  0
  144.9367   71.0039  220.0569 H   0  0  0  0  0  0  0  0  0  0  0  0
  143.9594   72.1190  219.0429 H   0  0  0  0  0  0  0  0  0  0  0  0
  145.7514   72.2429  219.0429 H   0  0  0  0  0  0  0  0  0  0  0  0
  144.1891   74.9940  221.0487 H   0  0  0  0  0  0  0  0  0  0  0  0
  143.8785   74.1480  219.4043 H   0  0  0  0  0  0  0  0  0  0  0  0
  142.2090   72.9370  221.1410 H   0  0  0  0  0  0  0  0  0  0  0  0
  139.4292   75.3766  221.2709 H   0  0  0  0  0  0  0  0  0  0  0  0
  139.5279   73.9358  220.1825 H   0  0  0  0  0  0  0  0  0  0  0  0
  139.6050   73.9570  223.1100 H   0  0  0  0  0  0  0  0  0  0  0  0
  139.2537   69.7688  222.3745 H   0  0  0  0  0  0  0  0  0  0  0  0
  139.0517   68.4010  224.4354 H   0  0  0  0  0  0  0  0  0  0  0  0
  139.4044   68.1380  226.7323 H   0  0  0  0  0  0  0  0  0  0  0  0
  141.2967   71.2738  228.9693 H   0  0  0  0  0  0  0  0  0  0  0  0
  141.5309   72.6934  226.9453 H   0  0  0  0  0  0  0  0  0  0  0  0
  1  2  1  0
  2  3  1  0
  2  4  1  0
  4  5  1  0
  5  6  1  0
  6  7  2  0
  6  8  1  0
  8  9  1  0
  9 10  1  0
 10 11  2  0
 10 12  1  0
 12 13  2  0
 13 14  1  0
 14 15  2  0
 15 16  1  0
 16 17  2  0
 17 18  1  0
 17 19  1  0
 19 20  2  0
 20 21  1  0
 21 22  2  0
 22 12  1  0
 21 15  1  0
  1 23  1  0
  1 24  1  0
  1 25  1  0
  2 26  1  0
  3 27  1  0
  3 28  1  0
  3 29  1  0
  4 30  1  0
  4 31  1  0
  5 32  1  0
  8 33  1  0
  8 34  1  0
  9 35  1  0
 13 36  1  0
 14 37  1  0
 16 38  1  0
 19 39  1  0
 20 40  1  0
M  END
>  <smiles>  (13) 
CC(C)CNC(=O)CNC(=O)c1ccc2cc(F)ccc2n1

>  <score_type>  (13) 
oracle

>  <origin>  (13) 
autodockgpu

>  <m_score__min__energy>  (13) 
-7.4800000000000004

>  <m_primary>  (13) 
energy

>  <rmsd>  (13) 
3.5823531395044785

>  <m_score__min__rmsd>  (13) 
3.5823531395044785

>  <meeko>  (13) 
{"free_energy": -6.61, "intermolecular_energy": -8.1, "internal_energy": -1.61, "cluster_size": 33, "cluster_id": 2, "rank_in_cluster": 20}

>  <energy>  (13) 
-6.84

>  <cluster_rmsd>  (13) 
0.23

>  <cluster>  (13) 
2

$$$$

     RDKit          3D

 40 41  0  0  0  0  0  0  0  0999 V2000
  141.8110   78.5010  223.7110 C   0  0  0  0  0  0  0  0  0  0  0  0
  141.8230   79.0300  222.3360 C   0  0  0  0  0  0  0  0  0  0  0  0
  141.7740   80.5640  222.3550 C   0  0  0  0  0  0  0  0  0  0  0  0
  140.8090   78.5090  221.4140 C   0  0  0  0  0  0  0  0  0  0  0  0
  140.7880   77.1310  221.1120 N   0  0  0  0  0  0  0  0  0  0  0  0
  140.1070   76.0600  221.7030 C   0  0  0  0  0  0  0  0  0  0  0  0
  139.3330   76.2090  222.7120 O   0  0  0  0  0  0  0  0  0  0  0  0
  140.1910   74.6380  221.2420 C   0  0  0  0  0  0  0  0  0  0  0  0
  140.0370   73.7370  222.3300 N   0  0  0  0  0  0  0  0  0  0  0  0
  140.5590   72.3920  222.3400 C   0  0  0  0  0  0  0  0  0  0  0  0
  141.2090   71.9240  221.3680 O   0  0  0  0  0  0  0  0  0  0  0  0
  140.3200   71.5570  223.5290 C   0  0  0  0  0  0  0  0  0  0  0  0
  139.6160   70.3850  223.4030 C   0  0  0  0  0  0  0  0  0  0  0  0
  139.3740   69.5810  224.4960 C   0  0  0  0  0  0  0  0  0  0  0  0
  139.8560   69.9770  225.7250 C   0  0  0  0  0  0  0  0  0  0  0  0
  139.6030   69.1630  226.7960 C   0  0  0  0  0  0  0  0  0  0  0  0
  140.0840   69.5560  228.0310 C   0  0  0  0  0  0  0  0  0  0  0  0
  139.8210   68.7320  229.0750 F   0  0  0  0  0  0  0  0  0  0  0  0
  140.7910   70.7340  228.1540 C   0  0  0  0  0  0  0  0  0  0  0  0
  141.0590   71.5730  227.0900 C   0  0  0  0  0  0  0  0  0  0  0  0
  140.5710   71.1730  225.8430 C   0  0  0  0  0  0  0  0  0  0  0  0
  140.7770   71.9170  224.7420 N   0  0  0  0  0  0  0  0  0  0  0  0
  141.8300   79.3370  224.4257 H   0  0  0  0  0  0  0  0  0  0  0  0
  140.8991   77.9059  223.8670 H   0  0  0  0  0  0  0  0  0  0  0  0
  142.6950   77.8652  223.8670 H   0  0  0  0  0  0  0  0  0  0  0  0
  142.7735   78.6597  221.9244 H   0  0  0  0  0  0  0  0  0  0  0  0
  141.7627   80.9176  223.3965 H   0  0  0  0  0  0  0  0  0  0  0  0
  142.6598   80.9655  221.8410 H   0  0  0  0  0  0  0  0  0  0  0  0
  140.8644   80.9082  221.8410 H   0  0  0  0  0  0  0  0  0  0  0  0
  139.8275   78.7574  221.8440 H   0  0  0  0  0  0  0  0  0  0  0  0
  141.0659   78.9803  220.4539 H   0  0  0  0  0  0  0  0  0  0  0  0
  141.3830   76.8440  220.2490 H   0  0  0  0  0  0  0  0  0  0  0  0
  139.3952   74.4515  220.5058 H   0  0  0  0  0  0  0  0  0  0  0  0
  141.1810   74.4750  220.7912 H   0  0  0  0  0  0  0  0  0  0  0  0
  139.5090   74.0390  223.2040 H   0  0  0  0  0  0  0  0  0  0  0  0
  139.2393   70.0831  222.4146 H   0  0  0  0  0  0  0  0  0  0  0  0
  138.8084   68.6436  224.3897 H   0  0  0  0  0  0  0  0  0  0  0  0
  139.0361   68.2278  226.6780 H   0  0  0  0  0  0  0  0  0  0  0  0
  141.1601   71.0198  229.1500 H   0  0  0  0  0  0  0  0  0  0  0  0
  141.6265   72.5066  227.2174 H   0  0  0  0  0  0  0  0  0  0  0  0
  1  2  1  0
  2  3  1  0
  2  4  1  0
  4  5  1  0
  5  6  1  0
  6  7  2  0
  6  8  1  0
  8  9  1  0
  9 10  1  0
 10 11  2  0
 10 12  1  0
 12 13  2  0
 13 14  1  0
 14 15  2  0
 15 16  1  0
 16 17  2  0
 17 18  1  0
 17 19  1  0
 19 20  2  0
 20 21  1  0
 21 22  2  0
 22 12  1  0
 21 15  1  0
  1 23  1  0
  1 24  1  0
  1 25  1  0
  2 26  1  0
  3 27  1  0
  3 28  1  0
  3 29  1  0
  4 30  1  0
  4 31  1  0
  5 32  1  0
  8 33  1  0
  8 34  1  0
  9 35  1  0
 13 36  1  0
 14 37  1  0
 16 38  1  0
 19 39  1  0
 20 40  1  0
M  END
>  <smiles>  (14) 
CC(C)CNC(=O)CNC(=O)c1ccc2cc(F)ccc2n1

>  <score_type>  (14) 
oracle

>  <origin>  (14) 
autodockgpu

>  <m_score__min__energy>  (14) 
-7.4800000000000004

>  <m_primary>  (14) 
energy

>  <rmsd>  (14) 
3.349292549134639

>  <m_score__min__rmsd>  (14) 
3.349292549134639

>  <meeko>  (14) 
{"free_energy": -6.82, "intermolecular_energy": -8.31, "internal_energy": -1.34, "cluster_size": 9, "cluster_id": 1, "rank_in_cluster": 7}

>  <energy>  (14) 
-6.77

>  <cluster_rmsd>  (14) 
0.95

>  <cluster>  (14) 
2

$$$$

     RDKit          3D

 40 41  0  0  0  0  0  0  0  0999 V2000
  141.4350   78.5120  223.3330 C   0  0  0  0  0  0  0  0  0  0  0  0
  140.3640   78.4420  222.3230 C   0  0  0  0  0  0  0  0  0  0  0  0
  138.9980   78.2870  223.0060 C   0  0  0  0  0  0  0  0  0  0  0  0
  140.5110   77.4370  221.2670 C   0  0  0  0  0  0  0  0  0  0  0  0
  139.7130   76.2730  221.2990 N   0  0  0  0  0  0  0  0  0  0  0  0
  140.0200   74.9440  221.6140 C   0  0  0  0  0  0  0  0  0  0  0  0
  141.1990   74.5710  221.9460 O   0  0  0  0  0  0  0  0  0  0  0  0
  139.0340   73.8170  221.6070 C   0  0  0  0  0  0  0  0  0  0  0  0
  139.3090   72.8910  222.6500 N   0  0  0  0  0  0  0  0  0  0  0  0
  138.7610   71.5570  222.7040 C   0  0  0  0  0  0  0  0  0  0  0  0
  137.9970   71.1150  221.8060 O   0  0  0  0  0  0  0  0  0  0  0  0
  139.1180   70.7000  223.8460 C   0  0  0  0  0  0  0  0  0  0  0  0
  138.7770   69.3710  223.8290 C   0  0  0  0  0  0  0  0  0  0  0  0
  139.0950   68.5410  224.8830 C   0  0  0  0  0  0  0  0  0  0  0  0
  139.7680   69.0750  225.9610 C   0  0  0  0  0  0  0  0  0  0  0  0
  140.0740   68.2320  226.9960 C   0  0  0  0  0  0  0  0  0  0  0  0
  140.7490   68.7630  228.0800 C   0  0  0  0  0  0  0  0  0  0  0  0
  141.0410   67.9080  229.0910 F   0  0  0  0  0  0  0  0  0  0  0  0
  141.0910   70.0990  228.0940 C   0  0  0  0  0  0  0  0  0  0  0  0
  140.7940   70.9700  227.0630 C   0  0  0  0  0  0  0  0  0  0  0  0
  140.1120   70.4300  225.9700 C   0  0  0  0  0  0  0  0  0  0  0  0
  139.7750   71.1920  224.9130 N   0  0  0  0  0  0  0  0  0  0  0  0
  140.9922   78.4831  224.3395 H   0  0  0  0  0  0  0  0  0  0  0  0
  142.1146   77.6564  223.2066 H   0  0  0  0  0  0  0  0  0  0  0  0
  141.9975   79.4488  223.2066 H   0  0  0  0  0  0  0  0  0  0  0  0
  140.4455   79.4016  221.7915 H   0  0  0  0  0  0  0  0  0  0  0  0
  139.1302   78.3020  224.0979 H   0  0  0  0  0  0  0  0  0  0  0  0
  138.3412   79.1164  222.7047 H   0  0  0  0  0  0  0  0  0  0  0  0
  138.5437   77.3315  222.7047 H   0  0  0  0  0  0  0  0  0  0  0  0
  140.3013   77.9425  220.3128 H   0  0  0  0  0  0  0  0  0  0  0  0
  141.5317   77.0545  221.4149 H   0  0  0  0  0  0  0  0  0  0  0  0
  138.6640   76.4320  221.0630 H   0  0  0  0  0  0  0  0  0  0  0  0
  138.0216   74.2243  221.7456 H   0  0  0  0  0  0  0  0  0  0  0  0
  139.1103   73.2915  220.6436 H   0  0  0  0  0  0  0  0  0  0  0  0
  139.9500   73.1660  223.4540 H   0  0  0  0  0  0  0  0  0  0  0  0
  138.2411   68.9611  222.9602 H   0  0  0  0  0  0  0  0  0  0  0  0
  138.8179   67.4766  224.8641 H   0  0  0  0  0  0  0  0  0  0  0  0
  139.7926   67.1690  226.9662 H   0  0  0  0  0  0  0  0  0  0  0  0
  141.6275   70.4913  228.9705 H   0  0  0  0  0  0  0  0  0  0  0  0
  141.0794   72.0317  227.1010 H   0  0  0  0  0  0  0  0  0  0  0  0
  1  2  1  0
  2  3  1  0
  2  4  1  0
  4  5  1  0
  5  6  1  0
  6  7  2  0
  6  8  1  0
  8  9  1  0
  9 10  1  0
 10 11  2  0
 10 12  1  0
 12 13  2  0
 13 14  1  0
 14 15  2  0
 15 16  1  0
 16 17  2  0
 17 18  1  0
 17 19  1  0
 19 20  2  0
 20 21  1  0
 21 22  2  0
 22 12  1  0
 21 15  1  0
  1 23  1  0
  1 24  1  0
  1 25  1  0
  2 26  1  0
  3 27  1  0
  3 28  1  0
  3 29  1  0
  4 30  1  0
  4 31  1  0
  5 32  1  0
  8 33  1  0
  8 34  1  0
  9 35  1  0
 13 36  1  0
 14 37  1  0
 16 38  1  0
 19 39  1  0
 20 40  1  0
M  END
>  <smiles>  (15) 
CC(C)CNC(=O)CNC(=O)c1ccc2cc(F)ccc2n1

>  <score_type>  (15) 
oracle

>  <origin>  (15) 
autodockgpu

>  <m_score__min__energy>  (15) 
-7.4800000000000004

>  <m_primary>  (15) 
energy

>  <rmsd>  (15) 
2.87776732904105

>  <m_score__min__rmsd>  (15) 
2.87776732904105

>  <meeko>  (15) 
{"free_energy": -6.28, "intermolecular_energy": -7.77, "internal_energy": -1.4, "cluster_size": 9, "cluster_id": 1, "rank_in_cluster": 9}

>  <energy>  (15) 
-6.77

>  <cluster_rmsd>  (15) 
0.85

>  <cluster>  (15) 
2

$$$$

     RDKit          3D

 40 41  0  0  0  0  0  0  0  0999 V2000
  140.2710   79.4050  223.5310 C   0  0  0  0  0  0  0  0  0  0  0  0
  141.3420   78.7740  222.7390 C   0  0  0  0  0  0  0  0  0  0  0  0
  142.5890   79.6690  222.7240 C   0  0  0  0  0  0  0  0  0  0  0  0
  141.0050   78.3630  221.3730 C   0  0  0  0  0  0  0  0  0  0  0  0
  140.8820   76.9900  221.0710 N   0  0  0  0  0  0  0  0  0  0  0  0
  140.1510   75.9660  221.6840 C   0  0  0  0  0  0  0  0  0  0  0  0
  139.4200   76.1640  222.7170 O   0  0  0  0  0  0  0  0  0  0  0  0
  140.1250   74.5420  221.2190 C   0  0  0  0  0  0  0  0  0  0  0  0
  139.9980   73.6490  222.3170 N   0  0  0  0  0  0  0  0  0  0  0  0
  140.4540   72.2790  222.2950 C   0  0  0  0  0  0  0  0  0  0  0  0
  141.0140   71.7810  221.2830 O   0  0  0  0  0  0  0  0  0  0  0  0
  140.2520   71.4550  223.4980 C   0  0  0  0  0  0  0  0  0  0  0  0
  139.6100   70.2470  223.3920 C   0  0  0  0  0  0  0  0  0  0  0  0
  139.4040   69.4520  224.4990 C   0  0  0  0  0  0  0  0  0  0  0  0
  139.8600   69.8950  225.7220 C   0  0  0  0  0  0  0  0  0  0  0  0
  139.6450   69.0880  226.8080 C   0  0  0  0  0  0  0  0  0  0  0  0
  140.1000   69.5290  228.0360 C   0  0  0  0  0  0  0  0  0  0  0  0
  139.8750   68.7120  229.0950 F   0  0  0  0  0  0  0  0  0  0  0  0
  140.7450   70.7430  228.1390 C   0  0  0  0  0  0  0  0  0  0  0  0
  140.9750   71.5750  227.0610 C   0  0  0  0  0  0  0  0  0  0  0  0
  140.5130   71.1270  225.8200 C   0  0  0  0  0  0  0  0  0  0  0  0
  140.6850   71.8610  224.7060 N   0  0  0  0  0  0  0  0  0  0  0  0
  140.4847   79.2791  224.6027 H   0  0  0  0  0  0  0  0  0  0  0  0
  140.2204   80.4772  223.2907 H   0  0  0  0  0  0  0  0  0  0  0  0
  139.3086   78.9296  223.2907 H   0  0  0  0  0  0  0  0  0  0  0  0
  141.5291   77.8256  223.2638 H   0  0  0  0  0  0  0  0  0  0  0  0
  142.8951   79.8887  223.7575 H   0  0  0  0  0  0  0  0  0  0  0  0
  143.4065   79.1502  222.2019 H   0  0  0  0  0  0  0  0  0  0  0  0
  142.3591   80.6095  222.2019 H   0  0  0  0  0  0  0  0  0  0  0  0
  140.0414   78.8325  221.1261 H   0  0  0  0  0  0  0  0  0  0  0  0
  141.8790   78.6797  220.7848 H   0  0  0  0  0  0  0  0  0  0  0  0
  141.4300   76.6660  220.1910 H   0  0  0  0  0  0  0  0  0  0  0  0
  139.2710   74.4010  220.5402 H   0  0  0  0  0  0  0  0  0  0  0  0
  141.0704   74.3260  220.6997 H   0  0  0  0  0  0  0  0  0  0  0  0
  139.5440   73.9750  223.2230 H   0  0  0  0  0  0  0  0  0  0  0  0
  139.2541   69.9076  222.4080 H   0  0  0  0  0  0  0  0  0  0  0  0
  138.8871   68.4853  224.4084 H   0  0  0  0  0  0  0  0  0  0  0  0
  139.1281   68.1224  226.7060 H   0  0  0  0  0  0  0  0  0  0  0  0
  141.0944   71.0656  229.1309 H   0  0  0  0  0  0  0  0  0  0  0  0
  141.4939   72.5385  227.1729 H   0  0  0  0  0  0  0  0  0  0  0  0
  1  2  1  0
  2  3  1  0
  2  4  1  0
  4  5  1  0
  5  6  1  0
  6  7  2  0
  6  8  1  0
  8  9  1  0
  9 10  1  0
 10 11  2  0
 10 12  1  0
 12 13  2  0
 13 14  1  0
 14 15  2  0
 15 16  1  0
 16 17  2  0
 17 18  1  0
 17 19  1  0
 19 20  2  0
 20 21  1  0
 21 22  2  0
 22 12  1  0
 21 15  1  0
  1 23  1  0
  1 24  1  0
  1 25  1  0
  2 26  1  0
  3 27  1  0
  3 28  1  0
  3 29  1  0
  4 30  1  0
  4 31  1  0
  5 32  1  0
  8 33  1  0
  8 34  1  0
  9 35  1  0
 13 36  1  0
 14 37  1  0
 16 38  1  0
 19 39  1  0
 20 40  1  0
M  END
>  <smiles>  (16) 
CC(C)CNC(=O)CNC(=O)c1ccc2cc(F)ccc2n1

>  <score_type>  (16) 
oracle

>  <origin>  (16) 
autodockgpu

>  <m_score__min__energy>  (16) 
-7.4800000000000004

>  <m_primary>  (16) 
energy

>  <rmsd>  (16) 
3.3485812679525897

>  <m_score__min__rmsd>  (16) 
3.3485812679525897

>  <meeko>  (16) 
{"free_energy": -6.94, "intermolecular_energy": -8.43, "internal_energy": -1.34, "cluster_size": 9, "cluster_id": 1, "rank_in_cluster": 4}

>  <energy>  (16) 
-6.77

>  <cluster_rmsd>  (16) 
0.87

>  <cluster>  (16) 
2

$$$$

     RDKit          3D

 40 41  0  0  0  0  0  0  0  0999 V2000
  139.1080   79.0610  223.1360 C   0  0  0  0  0  0  0  0  0  0  0  0
  139.9230   77.9340  222.6500 C   0  0  0  0  0  0  0  0  0  0  0  0
  141.4120   78.3030  222.6780 C   0  0  0  0  0  0  0  0  0  0  0  0
  139.5710   77.3750  221.3420 C   0  0  0  0  0  0  0  0  0  0  0  0
  139.0500   76.0660  221.2620 N   0  0  0  0  0  0  0  0  0  0  0  0
  139.5440   74.8400  221.7240 C   0  0  0  0  0  0  0  0  0  0  0  0
  140.6600   74.7370  222.3440 O   0  0  0  0  0  0  0  0  0  0  0  0
  138.8470   73.5250  221.5610 C   0  0  0  0  0  0  0  0  0  0  0  0
  139.1570   72.6450  222.6340 N   0  0  0  0  0  0  0  0  0  0  0  0
  138.7570   71.2590  222.6770 C   0  0  0  0  0  0  0  0  0  0  0  0
  138.1020   70.7270  221.7430 O   0  0  0  0  0  0  0  0  0  0  0  0
  139.1360   70.4580  223.8530 C   0  0  0  0  0  0  0  0  0  0  0  0
  138.8480   69.1160  223.8790 C   0  0  0  0  0  0  0  0  0  0  0  0
  139.1880   68.3380  224.9650 C   0  0  0  0  0  0  0  0  0  0  0  0
  139.8270   68.9360  226.0300 C   0  0  0  0  0  0  0  0  0  0  0  0
  140.1560   68.1440  227.0970 C   0  0  0  0  0  0  0  0  0  0  0  0
  140.7960   68.7390  228.1680 C   0  0  0  0  0  0  0  0  0  0  0  0
  141.1110   67.9330  229.2110 F   0  0  0  0  0  0  0  0  0  0  0  0
  141.0840   70.0870  228.1370 C   0  0  0  0  0  0  0  0  0  0  0  0
  140.7640   70.9090  227.0740 C   0  0  0  0  0  0  0  0  0  0  0  0
  140.1160   70.3040  225.9940 C   0  0  0  0  0  0  0  0  0  0  0  0
  139.7600   71.0130  224.9070 N   0  0  0  0  0  0  0  0  0  0  0  0
  139.1056   79.0643  224.2360 H   0  0  0  0  0  0  0  0  0  0  0  0
  139.5327   80.0064  222.7674 H   0  0  0  0  0  0  0  0  0  0  0  0
  138.0771   78.9538  222.7674 H   0  0  0  0  0  0  0  0  0  0  0  0
  139.6930   77.1235  223.3572 H   0  0  0  0  0  0  0  0  0  0  0  0
  141.7495   78.3866  223.7216 H   0  0  0  0  0  0  0  0  0  0  0  0
  141.9931   77.5217  222.1662 H   0  0  0  0  0  0  0  0  0  0  0  0
  141.5610   79.2652  222.1662 H   0  0  0  0  0  0  0  0  0  0  0  0
  138.8198   78.0457  220.8994 H   0  0  0  0  0  0  0  0  0  0  0  0
  140.5390   77.2992  220.8251 H   0  0  0  0  0  0  0  0  0  0  0  0
  138.0800   75.9890  220.7810 H   0  0  0  0  0  0  0  0  0  0  0  0
  137.7604   73.6947  221.5380 H   0  0  0  0  0  0  0  0  0  0  0  0
  139.1862   73.0638  220.6217 H   0  0  0  0  0  0  0  0  0  0  0  0
  139.7150   72.9960  223.4690 H   0  0  0  0  0  0  0  0  0  0  0  0
  138.3383   68.6546  223.0204 H   0  0  0  0  0  0  0  0  0  0  0  0
  138.9544   67.2632  224.9814 H   0  0  0  0  0  0  0  0  0  0  0  0
  139.9190   67.0699  227.1019 H   0  0  0  0  0  0  0  0  0  0  0  0
  141.5952   70.5310  229.0039 H   0  0  0  0  0  0  0  0  0  0  0  0
  141.0063   71.9820  227.0775 H   0  0  0  0  0  0  0  0  0  0  0  0
  1  2  1  0
  2  3  1  0
  2  4  1  0
  4  5  1  0
  5  6  1  0
  6  7  2  0
  6  8  1  0
  8  9  1  0
  9 10  1  0
 10 11  2  0
 10 12  1  0
 12 13  2  0
 13 14  1  0
 14 15  2  0
 15 16  1  0
 16 17  2  0
 17 18  1  0
 17 19  1  0
 19 20  2  0
 20 21  1  0
 21 22  2  0
 22 12  1  0
 21 15  1  0
  1 23  1  0
  1 24  1  0
  1 25  1  0
  2 26  1  0
  3 27  1  0
  3 28  1  0
  3 29  1  0
  4 30  1  0
  4 31  1  0
  5 32  1  0
  8 33  1  0
  8 34  1  0
  9 35  1  0
 13 36  1  0
 14 37  1  0
 16 38  1  0
 19 39  1  0
 20 40  1  0
M  END
>  <smiles>  (17) 
CC(C)CNC(=O)CNC(=O)c1ccc2cc(F)ccc2n1

>  <score_type>  (17) 
oracle

>  <origin>  (17) 
autodockgpu

>  <m_score__min__energy>  (17) 
-7.4800000000000004

>  <m_primary>  (17) 
energy

>  <rmsd>  (17) 
2.8869938190791498

>  <m_score__min__rmsd>  (17) 
2.8869938190791498

>  <meeko>  (17) 
{"free_energy": -6.34, "intermolecular_energy": -7.83, "internal_energy": -1.55, "cluster_size": 9, "cluster_id": 1, "rank_in_cluster": 8}

>  <energy>  (17) 
-6.77

>  <cluster_rmsd>  (17) 
0.89

>  <cluster>  (17) 
2

$$$$

     RDKit          3D

 40 41  0  0  0  0  0  0  0  0999 V2000
  146.2380   73.7490  220.8240 C   0  0  0  0  0  0  0  0  0  0  0  0
  144.7940   73.4720  220.7400 C   0  0  0  0  0  0  0  0  0  0  0  0
  144.5400   72.2260  219.8810 C   0  0  0  0  0  0  0  0  0  0  0  0
  143.9310   74.5700  220.2960 C   0  0  0  0  0  0  0  0  0  0  0  0
  142.6310   74.6930  220.8310 N   0  0  0  0  0  0  0  0  0  0  0  0
  141.3900   74.2360  220.3720 C   0  0  0  0  0  0  0  0  0  0  0  0
  141.2590   73.5780  219.2810 O   0  0  0  0  0  0  0  0  0  0  0  0
  140.0880   74.4490  221.0810 C   0  0  0  0  0  0  0  0  0  0  0  0
  139.9720   73.5870  222.2060 N   0  0  0  0  0  0  0  0  0  0  0  0
  140.3850   72.2050  222.2050 C   0  0  0  0  0  0  0  0  0  0  0  0
  140.8960   71.6640  221.1880 O   0  0  0  0  0  0  0  0  0  0  0  0
  140.2010   71.4180  223.4350 C   0  0  0  0  0  0  0  0  0  0  0  0
  139.5400   70.2170  223.3780 C   0  0  0  0  0  0  0  0  0  0  0  0
  139.3490   69.4560  224.5120 C   0  0  0  0  0  0  0  0  0  0  0  0
  139.8390   69.9260  225.7110 C   0  0  0  0  0  0  0  0  0  0  0  0
  139.6380   69.1540  226.8240 C   0  0  0  0  0  0  0  0  0  0  0  0
  140.1270   69.6230  228.0290 C   0  0  0  0  0  0  0  0  0  0  0  0
  139.9160   68.8390  229.1150 F   0  0  0  0  0  0  0  0  0  0  0  0
  140.7910   70.8300  228.0830 C   0  0  0  0  0  0  0  0  0  0  0  0
  141.0070   71.6280  226.9760 C   0  0  0  0  0  0  0  0  0  0  0  0
  140.5110   71.1520  225.7590 C   0  0  0  0  0  0  0  0  0  0  0  0
  140.6670   71.8510  224.6210 N   0  0  0  0  0  0  0  0  0  0  0  0
  146.5394   73.8068  221.8803 H   0  0  0  0  0  0  0  0  0  0  0  0
  146.7958   72.9415  220.3272 H   0  0  0  0  0  0  0  0  0  0  0  0
  146.4574   74.7056  220.3272 H   0  0  0  0  0  0  0  0  0  0  0  0
  144.5001   73.3090  221.7874 H   0  0  0  0  0  0  0  0  0  0  0  0
  144.3633   71.3595  220.5351 H   0  0  0  0  0  0  0  0  0  0  0  0
  143.6572   72.3921  219.2461 H   0  0  0  0  0  0  0  0  0  0  0  0
  145.4173   72.0333  219.2461 H   0  0  0  0  0  0  0  0  0  0  0  0
  144.4611   75.5062  220.5254 H   0  0  0  0  0  0  0  0  0  0  0  0
  143.7527   74.3447  219.2342 H   0  0  0  0  0  0  0  0  0  0  0  0
  142.5770   75.2100  221.7850 H   0  0  0  0  0  0  0  0  0  0  0  0
  140.0305   75.4935  221.4210 H   0  0  0  0  0  0  0  0  0  0  0  0
  139.2684   74.2248  220.3824 H   0  0  0  0  0  0  0  0  0  0  0  0
  139.5590   73.9500  223.1180 H   0  0  0  0  0  0  0  0  0  0  0  0
  139.1564   69.8555  222.4125 H   0  0  0  0  0  0  0  0  0  0  0  0
  138.8170   68.4946  224.4605 H   0  0  0  0  0  0  0  0  0  0  0  0
  139.1056   68.1935  226.7614 H   0  0  0  0  0  0  0  0  0  0  0  0
  141.1680   71.1753  229.0570 H   0  0  0  0  0  0  0  0  0  0  0  0
  141.5409   72.5870  227.0486 H   0  0  0  0  0  0  0  0  0  0  0  0
  1  2  1  0
  2  3  1  0
  2  4  1  0
  4  5  1  0
  5  6  1  0
  6  7  2  0
  6  8  1  0
  8  9  1  0
  9 10  1  0
 10 11  2  0
 10 12  1  0
 12 13  2  0
 13 14  1  0
 14 15  2  0
 15 16  1  0
 16 17  2  0
 17 18  1  0
 17 19  1  0
 19 20  2  0
 20 21  1  0
 21 22  2  0
 22 12  1  0
 21 15  1  0
  1 23  1  0
  1 24  1  0
  1 25  1  0
  2 26  1  0
  3 27  1  0
  3 28  1  0
  3 29  1  0
  4 30  1  0
  4 31  1  0
  5 32  1  0
  8 33  1  0
  8 34  1  0
  9 35  1  0
 13 36  1  0
 14 37  1  0
 16 38  1  0
 19 39  1  0
 20 40  1  0
M  END
>  <smiles>  (18) 
CC(C)CNC(=O)CNC(=O)c1ccc2cc(F)ccc2n1

>  <score_type>  (18) 
oracle

>  <origin>  (18) 
autodockgpu

>  <m_score__min__energy>  (18) 
-7.4800000000000004

>  <m_primary>  (18) 
energy

>  <rmsd>  (18) 
3.5316876677478404

>  <m_score__min__rmsd>  (18) 
3.5316876677478404

>  <meeko>  (18) 
{"free_energy": -7.07, "intermolecular_energy": -8.57, "internal_energy": -0.9, "cluster_size": 33, "cluster_id": 2, "rank_in_cluster": 1}

>  <energy>  (18) 
-6.76

>  <cluster_rmsd>  (18) 
0.86

>  <cluster>  (18) 
2

$$$$

     RDKit          3D

 40 41  0  0  0  0  0  0  0  0999 V2000
  145.8750   73.7760  221.0580 C   0  0  0  0  0  0  0  0  0  0  0  0
  144.7050   73.1150  220.4530 C   0  0  0  0  0  0  0  0  0  0  0  0
  145.1580   72.0410  219.4540 C   0  0  0  0  0  0  0  0  0  0  0  0
  143.6990   73.9820  219.8320 C   0  0  0  0  0  0  0  0  0  0  0  0
  142.3390   73.8200  220.1690 N   0  0  0  0  0  0  0  0  0  0  0  0
  141.4420   74.6580  220.8420 C   0  0  0  0  0  0  0  0  0  0  0  0
  141.7800   75.8070  221.2940 O   0  0  0  0  0  0  0  0  0  0  0  0
  140.0060   74.3280  221.1100 C   0  0  0  0  0  0  0  0  0  0  0  0
  139.8790   73.4850  222.2480 N   0  0  0  0  0  0  0  0  0  0  0  0
  140.4250   72.1510  222.3250 C   0  0  0  0  0  0  0  0  0  0  0  0
  141.0720   71.6420  221.3720 O   0  0  0  0  0  0  0  0  0  0  0  0
  140.2130   71.3780  223.5600 C   0  0  0  0  0  0  0  0  0  0  0  0
  139.5610   70.1720  223.5010 C   0  0  0  0  0  0  0  0  0  0  0  0
  139.3460   69.4240  224.6390 C   0  0  0  0  0  0  0  0  0  0  0  0
  139.8020   69.9130  225.8440 C   0  0  0  0  0  0  0  0  0  0  0  0
  139.5780   69.1530  226.9610 C   0  0  0  0  0  0  0  0  0  0  0  0
  140.0330   69.6390  228.1720 C   0  0  0  0  0  0  0  0  0  0  0  0
  139.7990   68.8670  229.2620 F   0  0  0  0  0  0  0  0  0  0  0  0
  140.6890   70.8510  228.2280 C   0  0  0  0  0  0  0  0  0  0  0  0
  140.9280   71.6360  227.1170 C   0  0  0  0  0  0  0  0  0  0  0  0
  140.4660   71.1430  225.8940 C   0  0  0  0  0  0  0  0  0  0  0  0
  140.6470   71.8290  224.7510 N   0  0  0  0  0  0  0  0  0  0  0  0
  145.7954   73.7310  222.1542 H   0  0  0  0  0  0  0  0  0  0  0  0
  146.7932   73.2632  220.7357 H   0  0  0  0  0  0  0  0  0  0  0  0
  145.9097   74.8272  220.7357 H   0  0  0  0  0  0  0  0  0  0  0  0
  144.1823   72.6734  221.3143 H   0  0  0  0  0  0  0  0  0  0  0  0
  145.5285   71.1626  220.0028 H   0  0  0  0  0  0  0  0  0  0  0  0
  144.3075   71.7463  218.8217 H   0  0  0  0  0  0  0  0  0  0  0  0
  145.9626   72.4444  218.8217 H   0  0  0  0  0  0  0  0  0  0  0  0
  143.9699   75.0179  220.0842 H   0  0  0  0  0  0  0  0  0  0  0  0
  143.7369   73.7013  218.7691 H   0  0  0  0  0  0  0  0  0  0  0  0
  141.8910   72.8910  219.8260 H   0  0  0  0  0  0  0  0  0  0  0  0
  139.4505   75.2603  221.2895 H   0  0  0  0  0  0  0  0  0  0  0  0
  139.5997   73.7986  220.2355 H   0  0  0  0  0  0  0  0  0  0  0  0
  139.3560   73.8250  223.1100 H   0  0  0  0  0  0  0  0  0  0  0  0
  139.2044   69.7962  222.5307 H   0  0  0  0  0  0  0  0  0  0  0  0
  138.8220   68.4582  224.5863 H   0  0  0  0  0  0  0  0  0  0  0  0
  139.0536   68.1882  226.8964 H   0  0  0  0  0  0  0  0  0  0  0  0
  141.0395   71.2105  229.2067 H   0  0  0  0  0  0  0  0  0  0  0  0
  141.4545   72.5990  227.1912 H   0  0  0  0  0  0  0  0  0  0  0  0
  1  2  1  0
  2  3  1  0
  2  4  1  0
  4  5  1  0
  5  6  1  0
  6  7  2  0
  6  8  1  0
  8  9  1  0
  9 10  1  0
 10 11  2  0
 10 12  1  0
 12 13  2  0
 13 14  1  0
 14 15  2  0
 15 16  1  0
 16 17  2  0
 17 18  1  0
 17 19  1  0
 19 20  2  0
 20 21  1  0
 21 22  2  0
 22 12  1  0
 21 15  1  0
  1 23  1  0
  1 24  1  0
  1 25  1  0
  2 26  1  0
  3 27  1  0
  3 28  1  0
  3 29  1  0
  4 30  1  0
  4 31  1  0
  5 32  1  0
  8 33  1  0
  8 34  1  0
  9 35  1  0
 13 36  1  0
 14 37  1  0
 16 38  1  0
 19 39  1  0
 20 40  1  0
M  END
>  <smiles>  (19) 
CC(C)CNC(=O)CNC(=O)c1ccc2cc(F)ccc2n1

>  <score_type>  (19) 
oracle

>  <origin>  (19) 
autodockgpu

>  <m_score__min__energy>  (19) 
-7.4800000000000004

>  <m_primary>  (19) 
energy

>  <rmsd>  (19) 
3.4139664583253158

>  <m_score__min__rmsd>  (19) 
3.4139664583253158

>  <meeko>  (19) 
{"free_energy": -6.56, "intermolecular_energy": -8.05, "internal_energy": -1.57, "cluster_size": 33, "cluster_id": 2, "rank_in_cluster": 23}

>  <energy>  (19) 
-6.76

>  <cluster_rmsd>  (19) 
0.89

>  <cluster>  (19) 
2

$$$$

     RDKit          3D

 40 41  0  0  0  0  0  0  0  0999 V2000
  146.2560   73.7660  220.8350 C   0  0  0  0  0  0  0  0  0  0  0  0
  144.8470   73.3380  220.8500 C   0  0  0  0  0  0  0  0  0  0  0  0
  144.6700   72.0560  220.0250 C   0  0  0  0  0  0  0  0  0  0  0  0
  143.8460   74.3320  220.4500 C   0  0  0  0  0  0  0  0  0  0  0  0
  142.4770   74.0660  220.6660 N   0  0  0  0  0  0  0  0  0  0  0  0
  141.3920   74.9160  220.9080 C   0  0  0  0  0  0  0  0  0  0  0  0
  141.5170   76.1890  220.9780 O   0  0  0  0  0  0  0  0  0  0  0  0
  139.9800   74.4590  221.1070 C   0  0  0  0  0  0  0  0  0  0  0  0
  139.8780   73.5850  222.2240 N   0  0  0  0  0  0  0  0  0  0  0  0
  140.3930   72.2370  222.2380 C   0  0  0  0  0  0  0  0  0  0  0  0
  140.9880   71.7420  221.2440 O   0  0  0  0  0  0  0  0  0  0  0  0
  140.2130   71.4320  223.4570 C   0  0  0  0  0  0  0  0  0  0  0  0
  139.5710   70.2210  223.3800 C   0  0  0  0  0  0  0  0  0  0  0  0
  139.3850   69.4430  224.5020 C   0  0  0  0  0  0  0  0  0  0  0  0
  139.8600   69.9050  225.7110 C   0  0  0  0  0  0  0  0  0  0  0  0
  139.6650   69.1160  226.8120 C   0  0  0  0  0  0  0  0  0  0  0  0
  140.1400   69.5760  228.0260 C   0  0  0  0  0  0  0  0  0  0  0  0
  139.9340   68.7750  229.1000 F   0  0  0  0  0  0  0  0  0  0  0  0
  140.7850   70.7920  228.0990 C   0  0  0  0  0  0  0  0  0  0  0  0
  140.9960   71.6070  227.0040 C   0  0  0  0  0  0  0  0  0  0  0  0
  140.5140   71.1400  225.7790 C   0  0  0  0  0  0  0  0  0  0  0  0
  140.6660   71.8570  224.6500 N   0  0  0  0  0  0  0  0  0  0  0  0
  146.6169   73.8756  221.8683 H   0  0  0  0  0  0  0  0  0  0  0  0
  146.8628   73.0117  220.3128 H   0  0  0  0  0  0  0  0  0  0  0  0
  146.3407   74.7304  220.3128 H   0  0  0  0  0  0  0  0  0  0  0  0
  144.6406   73.1648  221.9165 H   0  0  0  0  0  0  0  0  0  0  0  0
  144.5515   71.1975  220.7024 H   0  0  0  0  0  0  0  0  0  0  0  0
  143.7761   72.1487  219.3906 H   0  0  0  0  0  0  0  0  0  0  0  0
  145.5555   71.9030  219.3906 H   0  0  0  0  0  0  0  0  0  0  0  0
  144.0812   75.2592  220.9930 H   0  0  0  0  0  0  0  0  0  0  0  0
  143.9337   74.3599  219.3539 H   0  0  0  0  0  0  0  0  0  0  0  0
  142.2020   73.0160  220.6090 H   0  0  0  0  0  0  0  0  0  0  0  0
  139.3389   75.3365  221.2776 H   0  0  0  0  0  0  0  0  0  0  0  0
  139.6585   73.9148  220.2067 H   0  0  0  0  0  0  0  0  0  0  0  0
  139.3990   73.9110  223.1170 H   0  0  0  0  0  0  0  0  0  0  0  0
  139.1993   69.8662  222.4074 H   0  0  0  0  0  0  0  0  0  0  0  0
  138.8686   68.4741  224.4345 H   0  0  0  0  0  0  0  0  0  0  0  0
  139.1477   68.1484  226.7336 H   0  0  0  0  0  0  0  0  0  0  0  0
  141.1505   71.1307  229.0797 H   0  0  0  0  0  0  0  0  0  0  0  0
  141.5159   72.5724  227.0920 H   0  0  0  0  0  0  0  0  0  0  0  0
  1  2  1  0
  2  3  1  0
  2  4  1  0
  4  5  1  0
  5  6  1  0
  6  7  2  0
  6  8  1  0
  8  9  1  0
  9 10  1  0
 10 11  2  0
 10 12  1  0
 12 13  2  0
 13 14  1  0
 14 15  2  0
 15 16  1  0
 16 17  2  0
 17 18  1  0
 17 19  1  0
 19 20  2  0
 20 21  1  0
 21 22  2  0
 22 12  1  0
 21 15  1  0
  1 23  1  0
  1 24  1  0
  1 25  1  0
  2 26  1  0
  3 27  1  0
  3 28  1  0
  3 29  1  0
  4 30  1  0
  4 31  1  0
  5 32  1  0
  8 33  1  0
  8 34  1  0
  9 35  1  0
 13 36  1  0
 14 37  1  0
 16 38  1  0
 19 39  1  0
 20 40  1  0
M  END
>  <smiles>  (20) 
CC(C)CNC(=O)CNC(=O)c1ccc2cc(F)ccc2n1

>  <score_type>  (20) 
oracle

>  <origin>  (20) 
autodockgpu

>  <m_score__min__energy>  (20) 
-7.4800000000000004

>  <m_primary>  (20) 
energy

>  <rmsd>  (20) 
3.534112540741146

>  <m_score__min__rmsd>  (20) 
3.534112540741146

>  <meeko>  (20) 
{"free_energy": -6.76, "intermolecular_energy": -8.26, "internal_energy": -1.61, "cluster_size": 33, "cluster_id": 2, "rank_in_cluster": 9}

>  <energy>  (20) 
-6.76

>  <cluster_rmsd>  (20) 
0.96

>  <cluster>  (20) 
2

$$$$

     RDKit          3D

 40 41  0  0  0  0  0  0  0  0999 V2000
  143.9190   71.8910  220.8470 C   0  0  0  0  0  0  0  0  0  0  0  0
  144.3780   73.0670  220.0860 C   0  0  0  0  0  0  0  0  0  0  0  0
  145.4540   73.8250  220.8750 C   0  0  0  0  0  0  0  0  0  0  0  0
  143.3490   74.0010  219.6200 C   0  0  0  0  0  0  0  0  0  0  0  0
  142.0370   73.8970  220.1280 N   0  0  0  0  0  0  0  0  0  0  0  0
  141.2100   74.8310  220.7630 C   0  0  0  0  0  0  0  0  0  0  0  0
  141.5820   76.0340  220.9970 O   0  0  0  0  0  0  0  0  0  0  0  0
  139.8160   74.5520  221.2370 C   0  0  0  0  0  0  0  0  0  0  0  0
  139.8210   73.6530  222.3370 N   0  0  0  0  0  0  0  0  0  0  0  0
  140.1780   72.2580  222.2340 C   0  0  0  0  0  0  0  0  0  0  0  0
  140.5270   71.7410  221.1390 O   0  0  0  0  0  0  0  0  0  0  0  0
  140.1320   71.4310  223.4500 C   0  0  0  0  0  0  0  0  0  0  0  0
  139.6130   70.1630  223.3880 C   0  0  0  0  0  0  0  0  0  0  0  0
  139.5540   69.3630  224.5090 C   0  0  0  0  0  0  0  0  0  0  0  0
  140.0300   69.8640  225.7010 C   0  0  0  0  0  0  0  0  0  0  0  0
  139.9610   69.0520  226.8020 C   0  0  0  0  0  0  0  0  0  0  0  0
  140.4370   69.5500  228.0000 C   0  0  0  0  0  0  0  0  0  0  0  0
  140.3580   68.7260  229.0740 F   0  0  0  0  0  0  0  0  0  0  0  0
  140.9580   70.8250  228.0590 C   0  0  0  0  0  0  0  0  0  0  0  0
  141.0390   71.6650  226.9650 C   0  0  0  0  0  0  0  0  0  0  0  0
  140.5570   71.1580  225.7550 C   0  0  0  0  0  0  0  0  0  0  0  0
  140.5880   71.8930  224.6290 N   0  0  0  0  0  0  0  0  0  0  0  0
  143.9995   72.0972  221.9245 H   0  0  0  0  0  0  0  0  0  0  0  0
  142.8708   71.6756  220.5922 H   0  0  0  0  0  0  0  0  0  0  0  0
  144.5442   71.0225  220.5922 H   0  0  0  0  0  0  0  0  0  0  0  0
  144.7838   72.6337  219.1600 H   0  0  0  0  0  0  0  0  0  0  0  0
  145.2752   73.6990  221.9530 H   0  0  0  0  0  0  0  0  0  0  0  0
  146.4463   73.4254  220.6188 H   0  0  0  0  0  0  0  0  0  0  0  0
  145.4118   74.8939  220.6188 H   0  0  0  0  0  0  0  0  0  0  0  0
  143.7050   75.0143  219.8575 H   0  0  0  0  0  0  0  0  0  0  0  0
  143.2350   73.7505  218.5550 H   0  0  0  0  0  0  0  0  0  0  0  0
  141.5640   72.9300  219.9790 H   0  0  0  0  0  0  0  0  0  0  0  0
  139.3460   75.4969  221.5472 H   0  0  0  0  0  0  0  0  0  0  0  0
  139.2516   74.0924  220.4123 H   0  0  0  0  0  0  0  0  0  0  0  0
  139.5480   73.9940  223.3080 H   0  0  0  0  0  0  0  0  0  0  0  0
  139.2378   69.7782  222.4282 H   0  0  0  0  0  0  0  0  0  0  0  0
  139.1361   68.3470  224.4532 H   0  0  0  0  0  0  0  0  0  0  0  0
  139.5408   68.0376  226.7348 H   0  0  0  0  0  0  0  0  0  0  0  0
  141.3284   71.1927  229.0273 H   0  0  0  0  0  0  0  0  0  0  0  0
  141.4602   72.6782  227.0422 H   0  0  0  0  0  0  0  0  0  0  0  0
  1  2  1  0
  2  3  1  0
  2  4  1  0
  4  5  1  0
  5  6  1  0
  6  7  2  0
  6  8  1  0
  8  9  1  0
  9 10  1  0
 10 11  2  0
 10 12  1  0
 12 13  2  0
 13 14  1  0
 14 15  2  0
 15 16  1  0
 16 17  2  0
 17 18  1  0
 17 19  1  0
 19 20  2  0
 20 21  1  0
 21 22  2  0
 22 12  1  0
 21 15  1  0
  1 23  1  0
  1 24  1  0
  1 25  1  0
  2 26  1  0
  3 27  1  0
  3 28  1  0
  3 29  1  0
  4 30  1  0
  4 31  1  0
  5 32  1  0
  8 33  1  0
  8 34  1  0
  9 35  1  0
 13 36  1  0
 14 37  1  0
 16 38  1  0
 19 39  1  0
 20 40  1  0
M  END
>  <smiles>  (21) 
CC(C)CNC(=O)CNC(=O)c1ccc2cc(F)ccc2n1

>  <score_type>  (21) 
oracle

>  <origin>  (21) 
autodockgpu

>  <m_score__min__energy>  (21) 
-7.4800000000000004

>  <m_primary>  (21) 
energy

>  <rmsd>  (21) 
3.2285176676808196

>  <m_score__min__rmsd>  (21) 
3.2285176676808196

>  <meeko>  (21) 
{"free_energy": -6.28, "intermolecular_energy": -7.77, "internal_energy": -1.79, "cluster_size": 33, "cluster_id": 2, "rank_in_cluster": 32}

>  <energy>  (21) 
-6.76

>  <cluster_rmsd>  (21) 
0.85

>  <cluster>  (21) 
2

$$$$

     RDKit          3D

 40 41  0  0  0  0  0  0  0  0999 V2000
  146.2810   73.7610  220.9450 C   0  0  0  0  0  0  0  0  0  0  0  0
  144.8850   73.3030  220.8310 C   0  0  0  0  0  0  0  0  0  0  0  0
  144.8040   72.0580  219.9380 C   0  0  0  0  0  0  0  0  0  0  0  0
  143.8950   74.2940  220.3990 C   0  0  0  0  0  0  0  0  0  0  0  0
  142.5250   74.0570  220.6400 N   0  0  0  0  0  0  0  0  0  0  0  0
  141.4520   74.9320  220.8440 C   0  0  0  0  0  0  0  0  0  0  0  0
  141.5920   76.2050  220.8440 O   0  0  0  0  0  0  0  0  0  0  0  0
  140.0360   74.5050  221.0800 C   0  0  0  0  0  0  0  0  0  0  0  0
  139.9440   73.6350  222.2000 N   0  0  0  0  0  0  0  0  0  0  0  0
  140.3930   72.2630  222.1920 C   0  0  0  0  0  0  0  0  0  0  0  0
  140.9140   71.7410  221.1710 O   0  0  0  0  0  0  0  0  0  0  0  0
  140.2310   71.4660  223.4190 C   0  0  0  0  0  0  0  0  0  0  0  0
  139.5970   70.2510  223.3580 C   0  0  0  0  0  0  0  0  0  0  0  0
  139.4280   69.4800  224.4880 C   0  0  0  0  0  0  0  0  0  0  0  0
  139.9120   69.9550  225.6880 C   0  0  0  0  0  0  0  0  0  0  0  0
  139.7330   69.1730  226.7980 C   0  0  0  0  0  0  0  0  0  0  0  0
  140.2170   69.6460  228.0030 C   0  0  0  0  0  0  0  0  0  0  0  0
  140.0280   68.8530  229.0860 F   0  0  0  0  0  0  0  0  0  0  0  0
  140.8540   70.8680  228.0600 C   0  0  0  0  0  0  0  0  0  0  0  0
  141.0470   71.6760  226.9570 C   0  0  0  0  0  0  0  0  0  0  0  0
  140.5570   71.1950  225.7400 C   0  0  0  0  0  0  0  0  0  0  0  0
  140.6920   71.9040  224.6040 N   0  0  0  0  0  0  0  0  0  0  0  0
  146.5521   73.8499  222.0074 H   0  0  0  0  0  0  0  0  0  0  0  0
  146.9465   73.0341  220.4564 H   0  0  0  0  0  0  0  0  0  0  0  0
  146.3865   74.7409  220.4564 H   0  0  0  0  0  0  0  0  0  0  0  0
  144.6004   73.0753  221.8689 H   0  0  0  0  0  0  0  0  0  0  0  0
  144.7455   71.1581  220.5679 H   0  0  0  0  0  0  0  0  0  0  0  0
  143.9080   72.1199  219.3029 H   0  0  0  0  0  0  0  0  0  0  0  0
  145.7005   72.0033  219.3029 H   0  0  0  0  0  0  0  0  0  0  0  0
  144.1492   75.2398  220.8998 H   0  0  0  0  0  0  0  0  0  0  0  0
  143.9718   74.2751  219.3018 H   0  0  0  0  0  0  0  0  0  0  0  0
  142.2360   73.0090  220.6430 H   0  0  0  0  0  0  0  0  0  0  0  0
  139.4182   75.3960  221.2655 H   0  0  0  0  0  0  0  0  0  0  0  0
  139.6803   73.9666  220.1892 H   0  0  0  0  0  0  0  0  0  0  0  0
  139.5250   73.9830  223.1150 H   0  0  0  0  0  0  0  0  0  0  0  0
  139.2175   69.8863  222.3921 H   0  0  0  0  0  0  0  0  0  0  0  0
  138.9180   68.5069  224.4333 H   0  0  0  0  0  0  0  0  0  0  0  0
  139.2214   68.2014  226.7327 H   0  0  0  0  0  0  0  0  0  0  0  0
  141.2275   71.2168  229.0341 H   0  0  0  0  0  0  0  0  0  0  0  0
  141.5592   72.6466  227.0324 H   0  0  0  0  0  0  0  0  0  0  0  0
  1  2  1  0
  2  3  1  0
  2  4  1  0
  4  5  1  0
  5  6  1  0
  6  7  2  0
  6  8  1  0
  8  9  1  0
  9 10  1  0
 10 11  2  0
 10 12  1  0
 12 13  2  0
 13 14  1  0
 14 15  2  0
 15 16  1  0
 16 17  2  0
 17 18  1  0
 17 19  1  0
 19 20  2  0
 20 21  1  0
 21 22  2  0
 22 12  1  0
 21 15  1  0
  1 23  1  0
  1 24  1  0
  1 25  1  0
  2 26  1  0
  3 27  1  0
  3 28  1  0
  3 29  1  0
  4 30  1  0
  4 31  1  0
  5 32  1  0
  8 33  1  0
  8 34  1  0
  9 35  1  0
 13 36  1  0
 14 37  1  0
 16 38  1  0
 19 39  1  0
 20 40  1  0
M  END
>  <smiles>  (22) 
CC(C)CNC(=O)CNC(=O)c1ccc2cc(F)ccc2n1

>  <score_type>  (22) 
oracle

>  <origin>  (22) 
autodockgpu

>  <m_score__min__energy>  (22) 
-7.4800000000000004

>  <m_primary>  (22) 
energy

>  <rmsd>  (22) 
3.5605057389778363

>  <m_score__min__rmsd>  (22) 
3.5605057389778363

>  <meeko>  (22) 
{"free_energy": -6.75, "intermolecular_energy": -8.24, "internal_energy": -1.62, "cluster_size": 33, "cluster_id": 2, "rank_in_cluster": 14}

>  <energy>  (22) 
-6.75

>  <cluster_rmsd>  (22) 
0.87

>  <cluster>  (22) 
2

$$$$

     RDKit          3D

 40 41  0  0  0  0  0  0  0  0999 V2000
  143.7020   71.6390  220.8270 C   0  0  0  0  0  0  0  0  0  0  0  0
  144.2680   72.9060  220.3330 C   0  0  0  0  0  0  0  0  0  0  0  0
  145.4610   73.3300  221.2000 C   0  0  0  0  0  0  0  0  0  0  0  0
  143.3410   74.0300  220.1730 C   0  0  0  0  0  0  0  0  0  0  0  0
  142.0270   73.9240  220.6760 N   0  0  0  0  0  0  0  0  0  0  0  0
  140.9490   74.8170  220.6540 C   0  0  0  0  0  0  0  0  0  0  0  0
  141.0260   75.9770  220.1190 O   0  0  0  0  0  0  0  0  0  0  0  0
  139.5980   74.5350  221.2360 C   0  0  0  0  0  0  0  0  0  0  0  0
  139.6910   73.6370  222.3350 N   0  0  0  0  0  0  0  0  0  0  0  0
  139.9260   72.2200  222.1960 C   0  0  0  0  0  0  0  0  0  0  0  0
  140.0770   71.6780  221.0700 O   0  0  0  0  0  0  0  0  0  0  0  0
  139.9910   71.3990  223.4160 C   0  0  0  0  0  0  0  0  0  0  0  0
  139.5590   70.0970  223.3810 C   0  0  0  0  0  0  0  0  0  0  0  0
  139.6060   69.3020  224.5050 C   0  0  0  0  0  0  0  0  0  0  0  0
  140.0990   69.8410  225.6740 C   0  0  0  0  0  0  0  0  0  0  0  0
  140.1360   69.0330  226.7790 C   0  0  0  0  0  0  0  0  0  0  0  0
  140.6290   69.5700  227.9530 C   0  0  0  0  0  0  0  0  0  0  0  0
  140.6560   68.7490  229.0310 F   0  0  0  0  0  0  0  0  0  0  0  0
  141.0630   70.8790  227.9850 C   0  0  0  0  0  0  0  0  0  0  0  0
  141.0360   71.7150  226.8860 C   0  0  0  0  0  0  0  0  0  0  0  0
  140.5370   71.1690  225.7010 C   0  0  0  0  0  0  0  0  0  0  0  0
  140.4670   71.8980  224.5720 N   0  0  0  0  0  0  0  0  0  0  0  0
  143.7030   71.6412  221.9270 H   0  0  0  0  0  0  0  0  0  0  0  0
  142.6701   71.5312  220.4615 H   0  0  0  0  0  0  0  0  0  0  0  0
  144.3102   70.7985  220.4615 H   0  0  0  0  0  0  0  0  0  0  0  0
  144.5789   72.6682  219.3050 H   0  0  0  0  0  0  0  0  0  0  0  0
  145.1939   73.2351  222.2629 H   0  0  0  0  0  0  0  0  0  0  0  0
  146.3229   72.6831  220.9793 H   0  0  0  0  0  0  0  0  0  0  0  0
  145.7213   74.3757  220.9793 H   0  0  0  0  0  0  0  0  0  0  0  0
  143.8030   74.8983  220.6655 H   0  0  0  0  0  0  0  0  0  0  0  0
  143.1965   74.0927  219.0843 H   0  0  0  0  0  0  0  0  0  0  0  0
  141.7920   72.9720  221.1430 H   0  0  0  0  0  0  0  0  0  0  0  0
  139.1511   75.4792  221.5805 H   0  0  0  0  0  0  0  0  0  0  0  0
  138.9725   74.0720  220.4586 H   0  0  0  0  0  0  0  0  0  0  0  0
  139.5850   73.9980  223.3300 H   0  0  0  0  0  0  0  0  0  0  0  0
  139.1689   69.6814  222.4402 H   0  0  0  0  0  0  0  0  0  0  0  0
  139.2575   68.2592  224.4704 H   0  0  0  0  0  0  0  0  0  0  0  0
  139.7851   67.9915  226.7336 H   0  0  0  0  0  0  0  0  0  0  0  0
  141.4504   71.2773  228.9343 H   0  0  0  0  0  0  0  0  0  0  0  0
  141.3887   72.7555  226.9409 H   0  0  0  0  0  0  0  0  0  0  0  0
  1  2  1  0
  2  3  1  0
  2  4  1  0
  4  5  1  0
  5  6  1  0
  6  7  2  0
  6  8  1  0
  8  9  1  0
  9 10  1  0
 10 11  2  0
 10 12  1  0
 12 13  2  0
 13 14  1  0
 14 15  2  0
 15 16  1  0
 16 17  2  0
 17 18  1  0
 17 19  1  0
 19 20  2  0
 20 21  1  0
 21 22  2  0
 22 12  1  0
 21 15  1  0
  1 23  1  0
  1 24  1  0
  1 25  1  0
  2 26  1  0
  3 27  1  0
  3 28  1  0
  3 29  1  0
  4 30  1  0
  4 31  1  0
  5 32  1  0
  8 33  1  0
  8 34  1  0
  9 35  1  0
 13 36  1  0
 14 37  1  0
 16 38  1  0
 19 39  1  0
 20 40  1  0
M  END
>  <smiles>  (23) 
CC(C)CNC(=O)CNC(=O)c1ccc2cc(F)ccc2n1

>  <score_type>  (23) 
oracle

>  <origin>  (23) 
autodockgpu

>  <m_score__min__energy>  (23) 
-7.4800000000000004

>  <m_primary>  (23) 
energy

>  <rmsd>  (23) 
3.265827830715248

>  <m_score__min__rmsd>  (23) 
3.265827830715248

>  <meeko>  (23) 
{"free_energy": -6.18, "intermolecular_energy": -7.67, "internal_energy": -1.79, "cluster_size": 33, "cluster_id": 2, "rank_in_cluster": 33}

>  <energy>  (23) 
-6.75

>  <cluster_rmsd>  (23) 
0.85

>  <cluster>  (23) 
2

$$$$

     RDKit          3D

 40 41  0  0  0  0  0  0  0  0999 V2000
  146.2780   73.7550  220.8790 C   0  0  0  0  0  0  0  0  0  0  0  0
  144.8830   73.2960  220.7660 C   0  0  0  0  0  0  0  0  0  0  0  0
  144.8020   72.0550  219.8670 C   0  0  0  0  0  0  0  0  0  0  0  0
  143.8890   74.2860  220.3400 C   0  0  0  0  0  0  0  0  0  0  0  0
  142.5190   74.0390  220.5680 N   0  0  0  0  0  0  0  0  0  0  0  0
  141.4570   74.8990  220.8710 C   0  0  0  0  0  0  0  0  0  0  0  0
  141.6100   76.1630  221.0000 O   0  0  0  0  0  0  0  0  0  0  0  0
  140.0390   74.4620  221.0750 C   0  0  0  0  0  0  0  0  0  0  0  0
  139.9270   73.5950  222.1960 N   0  0  0  0  0  0  0  0  0  0  0  0
  140.4230   72.2400  222.2160 C   0  0  0  0  0  0  0  0  0  0  0  0
  141.0100   71.7320  221.2240 O   0  0  0  0  0  0  0  0  0  0  0  0
  140.2340   71.4430  223.4390 C   0  0  0  0  0  0  0  0  0  0  0  0
  139.5910   70.2330  223.3660 C   0  0  0  0  0  0  0  0  0  0  0  0
  139.3970   69.4620  224.4930 C   0  0  0  0  0  0  0  0  0  0  0  0
  139.8630   69.9330  225.7010 C   0  0  0  0  0  0  0  0  0  0  0  0
  139.6590   69.1510  226.8070 C   0  0  0  0  0  0  0  0  0  0  0  0
  140.1250   69.6200  228.0210 C   0  0  0  0  0  0  0  0  0  0  0  0
  139.9110   68.8270  229.0990 F   0  0  0  0  0  0  0  0  0  0  0  0
  140.7710   70.8360  228.0900 C   0  0  0  0  0  0  0  0  0  0  0  0
  140.9890   71.6440  226.9910 C   0  0  0  0  0  0  0  0  0  0  0  0
  140.5170   71.1680  225.7650 C   0  0  0  0  0  0  0  0  0  0  0  0
  140.6780   71.8760  224.6330 N   0  0  0  0  0  0  0  0  0  0  0  0
  146.5497   73.8444  221.9412 H   0  0  0  0  0  0  0  0  0  0  0  0
  146.9438   73.0285  220.3901 H   0  0  0  0  0  0  0  0  0  0  0  0
  146.3823   74.7348  220.3901 H   0  0  0  0  0  0  0  0  0  0  0  0
  144.6021   73.0647  221.8041 H   0  0  0  0  0  0  0  0  0  0  0  0
  144.7431   71.1522  220.4927 H   0  0  0  0  0  0  0  0  0  0  0  0
  143.9062   72.1201  219.2320 H   0  0  0  0  0  0  0  0  0  0  0  0
  145.6987   72.0031  219.2320 H   0  0  0  0  0  0  0  0  0  0  0  0
  144.1341   75.2269  220.8544 H   0  0  0  0  0  0  0  0  0  0  0  0
  143.9729   74.2800  219.2432 H   0  0  0  0  0  0  0  0  0  0  0  0
  142.2200   72.9990  220.4660 H   0  0  0  0  0  0  0  0  0  0  0  0
  139.4103   75.3489  221.2425 H   0  0  0  0  0  0  0  0  0  0  0  0
  139.7086   73.9178  220.1780 H   0  0  0  0  0  0  0  0  0  0  0  0
  139.4530   73.9320  223.0870 H   0  0  0  0  0  0  0  0  0  0  0  0
  139.2246   69.8723  222.3935 H   0  0  0  0  0  0  0  0  0  0  0  0
  138.8816   68.4924  224.4288 H   0  0  0  0  0  0  0  0  0  0  0  0
  139.1420   68.1830  226.7317 H   0  0  0  0  0  0  0  0  0  0  0  0
  141.1313   71.1805  229.0706 H   0  0  0  0  0  0  0  0  0  0  0  0
  141.5067   72.6108  227.0765 H   0  0  0  0  0  0  0  0  0  0  0  0
  1  2  1  0
  2  3  1  0
  2  4  1  0
  4  5  1  0
  5  6  1  0
  6  7  2  0
  6  8  1  0
  8  9  1  0
  9 10  1  0
 10 11  2  0
 10 12  1  0
 12 13  2  0
 13 14  1  0
 14 15  2  0
 15 16  1  0
 16 17  2  0
 17 18  1  0
 17 19  1  0
 19 20  2  0
 20 21  1  0
 21 22  2  0
 22 12  1  0
 21 15  1  0
  1 23  1  0
  1 24  1  0
  1 25  1  0
  2 26  1  0
  3 27  1  0
  3 28  1  0
  3 29  1  0
  4 30  1  0
  4 31  1  0
  5 32  1  0
  8 33  1  0
  8 34  1  0
  9 35  1  0
 13 36  1  0
 14 37  1  0
 16 38  1  0
 19 39  1  0
 20 40  1  0
M  END
>  <smiles>  (24) 
CC(C)CNC(=O)CNC(=O)c1ccc2cc(F)ccc2n1

>  <score_type>  (24) 
oracle

>  <origin>  (24) 
autodockgpu

>  <m_score__min__energy>  (24) 
-7.4800000000000004

>  <m_primary>  (24) 
energy

>  <rmsd>  (24) 
3.5450728683188495

>  <m_score__min__rmsd>  (24) 
3.5450728683188495

>  <meeko>  (24) 
{"free_energy": -6.75, "intermolecular_energy": -8.24, "internal_energy": -1.61, "cluster_size": 33, "cluster_id": 2, "rank_in_cluster": 13}

>  <energy>  (24) 
-6.75

>  <cluster_rmsd>  (24) 
0.94

>  <cluster>  (24) 
2

$$$$

     RDKit          3D

 40 41  0  0  0  0  0  0  0  0999 V2000
  146.2230   73.7650  221.1840 C   0  0  0  0  0  0  0  0  0  0  0  0
  144.9010   73.2500  220.7870 C   0  0  0  0  0  0  0  0  0  0  0  0
  145.0550   72.1470  219.7310 C   0  0  0  0  0  0  0  0  0  0  0  0
  143.9110   74.2340  220.3400 C   0  0  0  0  0  0  0  0  0  0  0  0
  142.5390   73.9900  220.5610 N   0  0  0  0  0  0  0  0  0  0  0  0
  141.4870   74.8450  220.9090 C   0  0  0  0  0  0  0  0  0  0  0  0
  141.6540   76.1000  221.0980 O   0  0  0  0  0  0  0  0  0  0  0  0
  140.0650   74.4130  221.0960 C   0  0  0  0  0  0  0  0  0  0  0  0
  139.9340   73.5630  222.2280 N   0  0  0  0  0  0  0  0  0  0  0  0
  140.4610   72.2210  222.2900 C   0  0  0  0  0  0  0  0  0  0  0  0
  141.0940   71.7100  221.3280 O   0  0  0  0  0  0  0  0  0  0  0  0
  140.2470   71.4410  223.5200 C   0  0  0  0  0  0  0  0  0  0  0  0
  139.5910   70.2380  223.4530 C   0  0  0  0  0  0  0  0  0  0  0  0
  139.3740   69.4830  224.5860 C   0  0  0  0  0  0  0  0  0  0  0  0
  139.8320   69.9620  225.7950 C   0  0  0  0  0  0  0  0  0  0  0  0
  139.6050   69.1960  226.9060 C   0  0  0  0  0  0  0  0  0  0  0  0
  140.0620   69.6720  228.1210 C   0  0  0  0  0  0  0  0  0  0  0  0
  139.8260   68.8950  229.2060 F   0  0  0  0  0  0  0  0  0  0  0  0
  140.7220   70.8820  228.1840 C   0  0  0  0  0  0  0  0  0  0  0  0
  140.9630   71.6730  227.0780 C   0  0  0  0  0  0  0  0  0  0  0  0
  140.5000   71.1890  225.8520 C   0  0  0  0  0  0  0  0  0  0  0  0
  140.6830   71.8820  224.7140 N   0  0  0  0  0  0  0  0  0  0  0  0
  146.2916   73.7917  222.2815 H   0  0  0  0  0  0  0  0  0  0  0  0
  147.0082   73.1070  220.7834 H   0  0  0  0  0  0  0  0  0  0  0  0
  146.3562   74.7808  220.7834 H   0  0  0  0  0  0  0  0  0  0  0  0
  144.4829   72.8578  221.7258 H   0  0  0  0  0  0  0  0  0  0  0  0
  145.1905   71.1768  220.2313 H   0  0  0  0  0  0  0  0  0  0  0  0
  144.1529   72.1127  219.1024 H   0  0  0  0  0  0  0  0  0  0  0  0
  145.9320   72.3610  219.1024 H   0  0  0  0  0  0  0  0  0  0  0  0
  144.1524   75.1818  220.8434 H   0  0  0  0  0  0  0  0  0  0  0  0
  144.0034   74.2133  219.2441 H   0  0  0  0  0  0  0  0  0  0  0  0
  142.2300   72.9590  220.4110 H   0  0  0  0  0  0  0  0  0  0  0  0
  139.4349   75.3031  221.2400 H   0  0  0  0  0  0  0  0  0  0  0  0
  139.7481   73.8562  220.2019 H   0  0  0  0  0  0  0  0  0  0  0  0
  139.4220   73.9040  223.0970 H   0  0  0  0  0  0  0  0  0  0  0  0
  139.2326   69.8701  222.4803 H   0  0  0  0  0  0  0  0  0  0  0  0
  138.8469   68.5194  224.5267 H   0  0  0  0  0  0  0  0  0  0  0  0
  139.0767   68.2338  226.8348 H   0  0  0  0  0  0  0  0  0  0  0  0
  141.0740   71.2344  229.1648 H   0  0  0  0  0  0  0  0  0  0  0  0
  141.4920   72.6341  227.1582 H   0  0  0  0  0  0  0  0  0  0  0  0
  1  2  1  0
  2  3  1  0
  2  4  1  0
  4  5  1  0
  5  6  1  0
  6  7  2  0
  6  8  1  0
  8  9  1  0
  9 10  1  0
 10 11  2  0
 10 12  1  0
 12 13  2  0
 13 14  1  0
 14 15  2  0
 15 16  1  0
 16 17  2  0
 17 18  1  0
 17 19  1  0
 19 20  2  0
 20 21  1  0
 21 22  2  0
 22 12  1  0
 21 15  1  0
  1 23  1  0
  1 24  1  0
  1 25  1  0
  2 26  1  0
  3 27  1  0
  3 28  1  0
  3 29  1  0
  4 30  1  0
  4 31  1  0
  5 32  1  0
  8 33  1  0
  8 34  1  0
  9 35  1  0
 13 36  1  0
 14 37  1  0
 16 38  1  0
 19 39  1  0
 20 40  1  0
M  END
>  <smiles>  (25) 
CC(C)CNC(=O)CNC(=O)c1ccc2cc(F)ccc2n1

>  <score_type>  (25) 
oracle

>  <origin>  (25) 
autodockgpu

>  <m_score__min__energy>  (25) 
-7.4800000000000004

>  <m_primary>  (25) 
energy

>  <rmsd>  (25) 
3.5686369351051557

>  <m_score__min__rmsd>  (25) 
3.5686369351051557

>  <meeko>  (25) 
{"free_energy": -6.77, "intermolecular_energy": -8.26, "internal_energy": -1.58, "cluster_size": 33, "cluster_id": 2, "rank_in_cluster": 8}

>  <energy>  (25) 
-6.74

>  <cluster_rmsd>  (25) 
0.85

>  <cluster>  (25) 
2

$$$$

     RDKit          3D

 40 41  0  0  0  0  0  0  0  0999 V2000
  146.3160   73.7390  221.4840 C   0  0  0  0  0  0  0  0  0  0  0  0
  145.1430   73.1090  220.8540 C   0  0  0  0  0  0  0  0  0  0  0  0
  145.5780   72.2490  219.6590 C   0  0  0  0  0  0  0  0  0  0  0  0
  144.0450   73.9950  220.4570 C   0  0  0  0  0  0  0  0  0  0  0  0
  142.7200   73.5100  220.4730 N   0  0  0  0  0  0  0  0  0  0  0  0
  142.0180   72.6930  219.5780 C   0  0  0  0  0  0  0  0  0  0  0  0
  142.5470   72.2330  218.5070 O   0  0  0  0  0  0  0  0  0  0  0  0
  140.5960   72.2590  219.7560 C   0  0  0  0  0  0  0  0  0  0  0  0
  140.4160   71.5960  221.0010 N   0  0  0  0  0  0  0  0  0  0  0  0
  140.2950   72.2800  222.2660 C   0  0  0  0  0  0  0  0  0  0  0  0
  140.3330   73.5360  222.3480 O   0  0  0  0  0  0  0  0  0  0  0  0
  140.1220   71.4730  223.4840 C   0  0  0  0  0  0  0  0  0  0  0  0
  139.4150   70.2990  223.4240 C   0  0  0  0  0  0  0  0  0  0  0  0
  139.2330   69.5200  224.5470 C   0  0  0  0  0  0  0  0  0  0  0  0
  139.7800   69.9440  225.7390 C   0  0  0  0  0  0  0  0  0  0  0  0
  139.5880   69.1550  226.8410 C   0  0  0  0  0  0  0  0  0  0  0  0
  140.1350   69.5770  228.0380 C   0  0  0  0  0  0  0  0  0  0  0  0
  139.9310   68.7780  229.1140 F   0  0  0  0  0  0  0  0  0  0  0  0
  140.8460   70.7570  228.0950 C   0  0  0  0  0  0  0  0  0  0  0  0
  141.0540   71.5720  226.9990 C   0  0  0  0  0  0  0  0  0  0  0  0
  140.5000   71.1430  225.7900 C   0  0  0  0  0  0  0  0  0  0  0  0
  140.6440   71.8620  224.6620 N   0  0  0  0  0  0  0  0  0  0  0  0
  146.2172   73.6859  222.5783 H   0  0  0  0  0  0  0  0  0  0  0  0
  147.2283   73.2095  221.1721 H   0  0  0  0  0  0  0  0  0  0  0  0
  146.3784   74.7920  221.1721 H   0  0  0  0  0  0  0  0  0  0  0  0
  144.7140   72.4964  221.6607 H   0  0  0  0  0  0  0  0  0  0  0  0
  146.0463   71.3232  220.0246 H   0  0  0  0  0  0  0  0  0  0  0  0
  144.6983   71.9984  219.0481 H   0  0  0  0  0  0  0  0  0  0  0  0
  146.3012   72.8092  219.0481 H   0  0  0  0  0  0  0  0  0  0  0  0
  144.0757   74.8641  221.1306 H   0  0  0  0  0  0  0  0  0  0  0  0
  144.2381   74.1835  219.3906 H   0  0  0  0  0  0  0  0  0  0  0  0
  142.1400   73.7950  221.3460 H   0  0  0  0  0  0  0  0  0  0  0  0
  139.9433   73.1438  219.7223 H   0  0  0  0  0  0  0  0  0  0  0  0
  140.3400   71.5592  218.9468 H   0  0  0  0  0  0  0  0  0  0  0  0
  140.3640   70.5340  221.0380 H   0  0  0  0  0  0  0  0  0  0  0  0
  138.9864   69.9738  222.4645 H   0  0  0  0  0  0  0  0  0  0  0  0
  138.6636   68.5804  224.4928 H   0  0  0  0  0  0  0  0  0  0  0  0
  139.0176   68.2167  226.7760 H   0  0  0  0  0  0  0  0  0  0  0  0
  141.2692   71.0652  229.0624 H   0  0  0  0  0  0  0  0  0  0  0  0
  141.6254   72.5089  227.0741 H   0  0  0  0  0  0  0  0  0  0  0  0
  1  2  1  0
  2  3  1  0
  2  4  1  0
  4  5  1  0
  5  6  1  0
  6  7  2  0
  6  8  1  0
  8  9  1  0
  9 10  1  0
 10 11  2  0
 10 12  1  0
 12 13  2  0
 13 14  1  0
 14 15  2  0
 15 16  1  0
 16 17  2  0
 17 18  1  0
 17 19  1  0
 19 20  2  0
 20 21  1  0
 21 22  2  0
 22 12  1  0
 21 15  1  0
  1 23  1  0
  1 24  1  0
  1 25  1  0
  2 26  1  0
  3 27  1  0
  3 28  1  0
  3 29  1  0
  4 30  1  0
  4 31  1  0
  5 32  1  0
  8 33  1  0
  8 34  1  0
  9 35  1  0
 13 36  1  0
 14 37  1  0
 16 38  1  0
 19 39  1  0
 20 40  1  0
M  END
>  <smiles>  (26) 
CC(C)CNC(=O)CNC(=O)c1ccc2cc(F)ccc2n1

>  <score_type>  (26) 
oracle

>  <origin>  (26) 
autodockgpu

>  <m_score__min__energy>  (26) 
-7.4800000000000004

>  <m_primary>  (26) 
energy

>  <rmsd>  (26) 
3.9132688180475443

>  <m_score__min__rmsd>  (26) 
3.9132688180475443

>  <meeko>  (26) 
{"free_energy": -6.49, "intermolecular_energy": -7.99, "internal_energy": -1.47, "cluster_size": 33, "cluster_id": 2, "rank_in_cluster": 26}

>  <energy>  (26) 
-6.72

>  <cluster_rmsd>  (26) 
0.9

>  <cluster>  (26) 
2

$$$$

     RDKit          3D

 40 41  0  0  0  0  0  0  0  0999 V2000
  144.1670   71.8860  220.4180 C   0  0  0  0  0  0  0  0  0  0  0  0
  144.7270   73.2420  220.2830 C   0  0  0  0  0  0  0  0  0  0  0  0
  145.9420   73.4100  221.2050 C   0  0  0  0  0  0  0  0  0  0  0  0
  143.8010   74.3640  220.4670 C   0  0  0  0  0  0  0  0  0  0  0  0
  142.4390   74.1060  220.7250 N   0  0  0  0  0  0  0  0  0  0  0  0
  141.3430   74.9630  220.8800 C   0  0  0  0  0  0  0  0  0  0  0  0
  141.4490   76.2370  220.8020 O   0  0  0  0  0  0  0  0  0  0  0  0
  139.9390   74.5130  221.1450 C   0  0  0  0  0  0  0  0  0  0  0  0
  139.8870   73.6310  222.2590 N   0  0  0  0  0  0  0  0  0  0  0  0
  140.3070   72.2510  222.2120 C   0  0  0  0  0  0  0  0  0  0  0  0
  140.7670   71.7320  221.1600 O   0  0  0  0  0  0  0  0  0  0  0  0
  140.1910   71.4430  223.4360 C   0  0  0  0  0  0  0  0  0  0  0  0
  139.6010   70.2050  223.3770 C   0  0  0  0  0  0  0  0  0  0  0  0
  139.4760   69.4230  224.5050 C   0  0  0  0  0  0  0  0  0  0  0  0
  139.9590   69.9090  225.7010 C   0  0  0  0  0  0  0  0  0  0  0  0
  139.8240   69.1150  226.8080 C   0  0  0  0  0  0  0  0  0  0  0  0
  140.3080   69.5980  228.0090 C   0  0  0  0  0  0  0  0  0  0  0  0
  140.1630   68.7920  229.0900 F   0  0  0  0  0  0  0  0  0  0  0  0
  140.9020   70.8410  228.0650 C   0  0  0  0  0  0  0  0  0  0  0  0
  141.0500   71.6620  226.9630 C   0  0  0  0  0  0  0  0  0  0  0  0
  140.5600   71.1710  225.7510 C   0  0  0  0  0  0  0  0  0  0  0  0
  140.6540   71.8900  224.6170 N   0  0  0  0  0  0  0  0  0  0  0  0
  144.0639   71.6364  221.4843 H   0  0  0  0  0  0  0  0  0  0  0  0
  143.1794   71.8474  219.9352 H   0  0  0  0  0  0  0  0  0  0  0  0
  144.8396   71.1618  219.9352 H   0  0  0  0  0  0  0  0  0  0  0  0
  145.0120   73.3013  219.2222 H   0  0  0  0  0  0  0  0  0  0  0  0
  145.6150   73.3648  222.2543 H   0  0  0  0  0  0  0  0  0  0  0  0
  146.6640   72.6031  221.0108 H   0  0  0  0  0  0  0  0  0  0  0  0
  146.4180   74.3825  221.0108 H   0  0  0  0  0  0  0  0  0  0  0  0
  144.1801   74.9561  221.3130 H   0  0  0  0  0  0  0  0  0  0  0  0
  143.7888   74.8526  219.4816 H   0  0  0  0  0  0  0  0  0  0  0  0
  142.1780   73.0530  220.7920 H   0  0  0  0  0  0  0  0  0  0  0  0
  139.3128   75.3930  221.3537 H   0  0  0  0  0  0  0  0  0  0  0  0
  139.5697   73.9780  220.2576 H   0  0  0  0  0  0  0  0  0  0  0  0
  139.5210   73.9760  223.1970 H   0  0  0  0  0  0  0  0  0  0  0  0
  139.2220   69.8312  222.4144 H   0  0  0  0  0  0  0  0  0  0  0  0
  139.0010   68.4323  224.4520 H   0  0  0  0  0  0  0  0  0  0  0  0
  139.3465   68.1261  226.7437 H   0  0  0  0  0  0  0  0  0  0  0  0
  141.2770   71.1973  229.0358 H   0  0  0  0  0  0  0  0  0  0  0  0
  141.5284   72.6498  227.0367 H   0  0  0  0  0  0  0  0  0  0  0  0
  1  2  1  0
  2  3  1  0
  2  4  1  0
  4  5  1  0
  5  6  1  0
  6  7  2  0
  6  8  1  0
  8  9  1  0
  9 10  1  0
 10 11  2  0
 10 12  1  0
 12 13  2  0
 13 14  1  0
 14 15  2  0
 15 16  1  0
 16 17  2  0
 17 18  1  0
 17 19  1  0
 19 20  2  0
 20 21  1  0
 21 22  2  0
 22 12  1  0
 21 15  1  0
  1 23  1  0
  1 24  1  0
  1 25  1  0
  2 26  1  0
  3 27  1  0
  3 28  1  0
  3 29  1  0
  4 30  1  0
  4 31  1  0
  5 32  1  0
  8 33  1  0
  8 34  1  0
  9 35  1  0
 13 36  1  0
 14 37  1  0
 16 38  1  0
 19 39  1  0
 20 40  1  0
M  END
>  <smiles>  (27) 
CC(C)CNC(=O)CNC(=O)c1ccc2cc(F)ccc2n1

>  <score_type>  (27) 
oracle

>  <origin>  (27) 
autodockgpu

>  <m_score__min__energy>  (27) 
-7.4800000000000004

>  <m_primary>  (27) 
energy

>  <rmsd>  (27) 
3.37963812730277

>  <m_score__min__rmsd>  (27) 
3.37963812730277

>  <meeko>  (27) 
{"free_energy": -6.66, "intermolecular_energy": -8.15, "internal_energy": -1.67, "cluster_size": 33, "cluster_id": 2, "rank_in_cluster": 19}

>  <energy>  (27) 
-6.72

>  <cluster_rmsd>  (27) 
0.87

>  <cluster>  (27) 
2

$$$$

     RDKit          3D

 40 41  0  0  0  0  0  0  0  0999 V2000
  146.3040   73.7580  221.4130 C   0  0  0  0  0  0  0  0  0  0  0  0
  145.1430   73.1290  220.7590 C   0  0  0  0  0  0  0  0  0  0  0  0
  145.6010   72.2690  219.5730 C   0  0  0  0  0  0  0  0  0  0  0  0
  144.0540   74.0160  220.3410 C   0  0  0  0  0  0  0  0  0  0  0  0
  142.7230   73.5490  220.3800 N   0  0  0  0  0  0  0  0  0  0  0  0
  142.0220   72.6700  219.5460 C   0  0  0  0  0  0  0  0  0  0  0  0
  142.5570   72.1190  218.5220 O   0  0  0  0  0  0  0  0  0  0  0  0
  140.5920   72.2680  219.7420 C   0  0  0  0  0  0  0  0  0  0  0  0
  140.4150   71.6000  220.9840 N   0  0  0  0  0  0  0  0  0  0  0  0
  140.2990   72.2800  222.2520 C   0  0  0  0  0  0  0  0  0  0  0  0
  140.3390   73.5360  222.3390 O   0  0  0  0  0  0  0  0  0  0  0  0
  140.1280   71.4690  223.4680 C   0  0  0  0  0  0  0  0  0  0  0  0
  139.4260   70.2910  223.4040 C   0  0  0  0  0  0  0  0  0  0  0  0
  139.2470   69.5080  224.5240 C   0  0  0  0  0  0  0  0  0  0  0  0
  139.7900   69.9320  225.7180 C   0  0  0  0  0  0  0  0  0  0  0  0
  139.5990   69.1390  226.8180 C   0  0  0  0  0  0  0  0  0  0  0  0
  140.1420   69.5610  228.0170 C   0  0  0  0  0  0  0  0  0  0  0  0
  139.9390   68.7570  229.0900 F   0  0  0  0  0  0  0  0  0  0  0  0
  140.8460   70.7440  228.0780 C   0  0  0  0  0  0  0  0  0  0  0  0
  141.0530   71.5630  226.9850 C   0  0  0  0  0  0  0  0  0  0  0  0
  140.5030   71.1340  225.7740 C   0  0  0  0  0  0  0  0  0  0  0  0
  140.6460   71.8570  224.6480 N   0  0  0  0  0  0  0  0  0  0  0  0
  146.1882   73.6953  222.5051 H   0  0  0  0  0  0  0  0  0  0  0  0
  147.2231   73.2345  221.1111 H   0  0  0  0  0  0  0  0  0  0  0  0
  146.3674   74.8139  221.1111 H   0  0  0  0  0  0  0  0  0  0  0  0
  144.6974   72.5162  221.5565 H   0  0  0  0  0  0  0  0  0  0  0  0
  146.0871   71.3563  219.9480 H   0  0  0  0  0  0  0  0  0  0  0  0
  144.7293   71.9950  218.9605 H   0  0  0  0  0  0  0  0  0  0  0  0
  146.3148   72.8394  218.9605 H   0  0  0  0  0  0  0  0  0  0  0  0
  144.1000   74.9052  220.9869 H   0  0  0  0  0  0  0  0  0  0  0  0
  144.2427   74.1684  219.2681 H   0  0  0  0  0  0  0  0  0  0  0  0
  142.1370   73.9100  221.2210 H   0  0  0  0  0  0  0  0  0  0  0  0
  139.9599   73.1681  219.7247 H   0  0  0  0  0  0  0  0  0  0  0  0
  140.3075   71.5809  218.9315 H   0  0  0  0  0  0  0  0  0  0  0  0
  140.3610   70.5380  221.0180 H   0  0  0  0  0  0  0  0  0  0  0  0
  138.9995   69.9668  222.4433 H   0  0  0  0  0  0  0  0  0  0  0  0
  138.6831   68.5653  224.4664 H   0  0  0  0  0  0  0  0  0  0  0  0
  139.0328   68.1984  226.7497 H   0  0  0  0  0  0  0  0  0  0  0  0
  141.2649   71.0522  229.0473 H   0  0  0  0  0  0  0  0  0  0  0  0
  141.6202   72.5022  227.0636 H   0  0  0  0  0  0  0  0  0  0  0  0
  1  2  1  0
  2  3  1  0
  2  4  1  0
  4  5  1  0
  5  6  1  0
  6  7  2  0
  6  8  1  0
  8  9  1  0
  9 10  1  0
 10 11  2  0
 10 12  1  0
 12 13  2  0
 13 14  1  0
 14 15  2  0
 15 16  1  0
 16 17  2  0
 17 18  1  0
 17 19  1  0
 19 20  2  0
 20 21  1  0
 21 22  2  0
 22 12  1  0
 21 15  1  0
  1 23  1  0
  1 24  1  0
  1 25  1  0
  2 26  1  0
  3 27  1  0
  3 28  1  0
  3 29  1  0
  4 30  1  0
  4 31  1  0
  5 32  1  0
  8 33  1  0
  8 34  1  0
  9 35  1  0
 13 36  1  0
 14 37  1  0
 16 38  1  0
 19 39  1  0
 20 40  1  0
M  END
>  <smiles>  (28) 
CC(C)CNC(=O)CNC(=O)c1ccc2cc(F)ccc2n1

>  <score_type>  (28) 
oracle

>  <origin>  (28) 
autodockgpu

>  <m_score__min__energy>  (28) 
-7.4800000000000004

>  <m_primary>  (28) 
energy

>  <rmsd>  (28) 
3.8923105659383337

>  <m_score__min__rmsd>  (28) 
3.8923105659383337

>  <meeko>  (28) 
{"free_energy": -6.47, "intermolecular_energy": -7.97, "internal_energy": -1.47, "cluster_size": 33, "cluster_id": 2, "rank_in_cluster": 27}

>  <energy>  (28) 
-6.66

>  <cluster_rmsd>  (28) 
0.86

>  <cluster>  (28) 
2

$$$$

     RDKit          3D

 40 41  0  0  0  0  0  0  0  0999 V2000
  144.2650   72.0940  220.3160 C   0  0  0  0  0  0  0  0  0  0  0  0
  144.7420   73.4800  220.1710 C   0  0  0  0  0  0  0  0  0  0  0  0
  145.8690   73.7630  221.1730 C   0  0  0  0  0  0  0  0  0  0  0  0
  143.7330   74.5410  220.2410 C   0  0  0  0  0  0  0  0  0  0  0  0
  142.3810   74.2010  220.4600 N   0  0  0  0  0  0  0  0  0  0  0  0
  141.3200   74.9230  221.0190 C   0  0  0  0  0  0  0  0  0  0  0  0
  141.4570   76.1180  221.4580 O   0  0  0  0  0  0  0  0  0  0  0  0
  139.9230   74.4050  221.1690 C   0  0  0  0  0  0  0  0  0  0  0  0
  139.8180   73.5330  222.2870 N   0  0  0  0  0  0  0  0  0  0  0  0
  140.4420   72.2330  222.3530 C   0  0  0  0  0  0  0  0  0  0  0  0
  141.1420   71.7830  221.4080 O   0  0  0  0  0  0  0  0  0  0  0  0
  140.2450   71.4240  223.5670 C   0  0  0  0  0  0  0  0  0  0  0  0
  139.6000   70.2160  223.4790 C   0  0  0  0  0  0  0  0  0  0  0  0
  139.4000   69.4340  224.5960 C   0  0  0  0  0  0  0  0  0  0  0  0
  139.8630   69.8900  225.8110 C   0  0  0  0  0  0  0  0  0  0  0  0
  139.6530   69.0970  226.9070 C   0  0  0  0  0  0  0  0  0  0  0  0
  140.1160   69.5510  228.1280 C   0  0  0  0  0  0  0  0  0  0  0  0
  139.8960   68.7480  229.1970 F   0  0  0  0  0  0  0  0  0  0  0  0
  140.7640   70.7660  228.2130 C   0  0  0  0  0  0  0  0  0  0  0  0
  140.9890   71.5840  227.1230 C   0  0  0  0  0  0  0  0  0  0  0  0
  140.5190   71.1230  225.8910 C   0  0  0  0  0  0  0  0  0  0  0  0
  140.6860   71.8430  224.7670 N   0  0  0  0  0  0  0  0  0  0  0  0
  144.1795   71.8455  221.3841 H   0  0  0  0  0  0  0  0  0  0  0  0
  143.2804   71.9930  219.8361 H   0  0  0  0  0  0  0  0  0  0  0  0
  144.9789   71.4084  219.8361 H   0  0  0  0  0  0  0  0  0  0  0  0
  145.1027   73.5225  219.1327 H   0  0  0  0  0  0  0  0  0  0  0  0
  145.4814   73.6657  222.1979 H   0  0  0  0  0  0  0  0  0  0  0  0
  146.6855   73.0420  221.0198 H   0  0  0  0  0  0  0  0  0  0  0  0
  146.2480   74.7842  221.0198 H   0  0  0  0  0  0  0  0  0  0  0  0
  144.0308   75.2122  221.0600 H   0  0  0  0  0  0  0  0  0  0  0  0
  143.7318   74.9636  219.2254 H   0  0  0  0  0  0  0  0  0  0  0  0
  142.0970   73.2120  220.1110 H   0  0  0  0  0  0  0  0  0  0  0  0
  139.2381   75.2542  221.3101 H   0  0  0  0  0  0  0  0  0  0  0  0
  139.6594   73.8426  220.2611 H   0  0  0  0  0  0  0  0  0  0  0  0
  139.2530   73.8240  223.1410 H   0  0  0  0  0  0  0  0  0  0  0  0
  139.2368   69.8663  222.5013 H   0  0  0  0  0  0  0  0  0  0  0  0
  138.8819   68.4667  224.5193 H   0  0  0  0  0  0  0  0  0  0  0  0
  139.1335   68.1314  226.8191 H   0  0  0  0  0  0  0  0  0  0  0  0
  141.1195   71.1003  229.1988 H   0  0  0  0  0  0  0  0  0  0  0  0
  141.5107   72.5475  227.2200 H   0  0  0  0  0  0  0  0  0  0  0  0
  1  2  1  0
  2  3  1  0
  2  4  1  0
  4  5  1  0
  5  6  1  0
  6  7  2  0
  6  8  1  0
  8  9  1  0
  9 10  1  0
 10 11  2  0
 10 12  1  0
 12 13  2  0
 13 14  1  0
 14 15  2  0
 15 16  1  0
 16 17  2  0
 17 18  1  0
 17 19  1  0
 19 20  2  0
 20 21  1  0
 21 22  2  0
 22 12  1  0
 21 15  1  0
  1 23  1  0
  1 24  1  0
  1 25  1  0
  2 26  1  0
  3 27  1  0
  3 28  1  0
  3 29  1  0
  4 30  1  0
  4 31  1  0
  5 32  1  0
  8 33  1  0
  8 34  1  0
  9 35  1  0
 13 36  1  0
 14 37  1  0
 16 38  1  0
 19 39  1  0
 20 40  1  0
M  END
>  <smiles>  (29) 
CC(C)CNC(=O)CNC(=O)c1ccc2cc(F)ccc2n1

>  <score_type>  (29) 
oracle

>  <origin>  (29) 
autodockgpu

>  <m_score__min__energy>  (29) 
-7.4800000000000004

>  <m_primary>  (29) 
energy

>  <rmsd>  (29) 
3.3158088935044563

>  <m_score__min__rmsd>  (29) 
3.3158088935044563

>  <meeko>  (29) 
{"free_energy": -6.75, "intermolecular_energy": -8.24, "internal_energy": -1.61, "cluster_size": 33, "cluster_id": 2, "rank_in_cluster": 15}

>  <energy>  (29) 
-6.61

>  <cluster_rmsd>  (29) 
0.79

>  <cluster>  (29) 
2

$$$$

     RDKit          3D

 40 41  0  0  0  0  0  0  0  0999 V2000
  141.0820   71.9020  227.9450 C   0  0  0  0  0  0  0  0  0  0  0  0
  140.6060   70.8250  227.0590 C   0  0  0  0  0  0  0  0  0  0  0  0
  140.7250   69.4660  227.7620 C   0  0  0  0  0  0  0  0  0  0  0  0
  141.2030   70.7500  225.7230 C   0  0  0  0  0  0  0  0  0  0  0  0
  140.4360   71.1170  224.5970 N   0  0  0  0  0  0  0  0  0  0  0  0
  139.1460   70.7520  224.1930 C   0  0  0  0  0  0  0  0  0  0  0  0
  138.4170   69.9430  224.8670 O   0  0  0  0  0  0  0  0  0  0  0  0
  138.4690   71.2500  222.9540 C   0  0  0  0  0  0  0  0  0  0  0  0
  138.9680   72.5260  222.5770 N   0  0  0  0  0  0  0  0  0  0  0  0
  140.2690   72.7390  221.9890 C   0  0  0  0  0  0  0  0  0  0  0  0
  141.0570   71.7840  221.7580 O   0  0  0  0  0  0  0  0  0  0  0  0
  140.6690   74.1150  221.6530 C   0  0  0  0  0  0  0  0  0  0  0  0
  141.6720   74.3250  220.7400 C   0  0  0  0  0  0  0  0  0  0  0  0
  142.0710   75.6010  220.4040 C   0  0  0  0  0  0  0  0  0  0  0  0
  141.4390   76.6690  221.0050 C   0  0  0  0  0  0  0  0  0  0  0  0
  141.8520   77.9270  220.6560 C   0  0  0  0  0  0  0  0  0  0  0  0
  141.2220   79.0000  221.2560 C   0  0  0  0  0  0  0  0  0  0  0  0
  141.6490   80.2350  220.8930 F   0  0  0  0  0  0  0  0  0  0  0  0
  140.2140   78.7860  222.1730 C   0  0  0  0  0  0  0  0  0  0  0  0
  139.7790   77.5270  222.5420 C   0  0  0  0  0  0  0  0  0  0  0  0
  140.4190   76.4440  221.9340 C   0  0  0  0  0  0  0  0  0  0  0  0
  140.0710   75.1770  222.2230 N   0  0  0  0  0  0  0  0  0  0  0  0
  140.9484   71.5997  228.9942 H   0  0  0  0  0  0  0  0  0  0  0  0
  142.1480   72.0921  227.7511 H   0  0  0  0  0  0  0  0  0  0  0  0
  140.5050   72.8182  227.7511 H   0  0  0  0  0  0  0  0  0  0  0  0
  139.5564   71.0924  226.8674 H   0  0  0  0  0  0  0  0  0  0  0  0
  140.7120   69.6146  228.8518 H   0  0  0  0  0  0  0  0  0  0  0  0
  139.8794   68.8263  227.4690 H   0  0  0  0  0  0  0  0  0  0  0  0
  141.6689   68.9830  227.4690 H   0  0  0  0  0  0  0  0  0  0  0  0
  142.0897   71.4009  225.7319 H   0  0  0  0  0  0  0  0  0  0  0  0
  141.3758   69.6734  225.5777 H   0  0  0  0  0  0  0  0  0  0  0  0
  140.9130   71.8310  223.9320 H   0  0  0  0  0  0  0  0  0  0  0  0
  138.6485   70.5376  222.1353 H   0  0  0  0  0  0  0  0  0  0  0  0
  137.3918   71.3417  223.1569 H   0  0  0  0  0  0  0  0  0  0  0  0
  138.3740   73.3980  222.7240 H   0  0  0  0  0  0  0  0  0  0  0  0
  142.1651   73.4618  220.2691 H   0  0  0  0  0  0  0  0  0  0  0  0
  142.8761   75.7637  219.6723 H   0  0  0  0  0  0  0  0  0  0  0  0
  142.6580   78.0780  219.9228 H   0  0  0  0  0  0  0  0  0  0  0  0
  139.7323   79.6611  222.6336 H   0  0  0  0  0  0  0  0  0  0  0  0
  138.9717   77.3852  223.2755 H   0  0  0  0  0  0  0  0  0  0  0  0
  1  2  1  0
  2  3  1  0
  2  4  1  0
  4  5  1  0
  5  6  1  0
  6  7  2  0
  6  8  1  0
  8  9  1  0
  9 10  1  0
 10 11  2  0
 10 12  1  0
 12 13  2  0
 13 14  1  0
 14 15  2  0
 15 16  1  0
 16 17  2  0
 17 18  1  0
 17 19  1  0
 19 20  2  0
 20 21  1  0
 21 22  2  0
 22 12  1  0
 21 15  1  0
  1 23  1  0
  1 24  1  0
  1 25  1  0
  2 26  1  0
  3 27  1  0
  3 28  1  0
  3 29  1  0
  4 30  1  0
  4 31  1  0
  5 32  1  0
  8 33  1  0
  8 34  1  0
  9 35  1  0
 13 36  1  0
 14 37  1  0
 16 38  1  0
 19 39  1  0
 20 40  1  0
M  END
>  <smiles>  (30) 
CC(C)CNC(=O)CNC(=O)c1ccc2cc(F)ccc2n1

>  <score_type>  (30) 
oracle

>  <origin>  (30) 
autodockgpu

>  <m_score__min__energy>  (30) 
-7.4800000000000004

>  <m_primary>  (30) 
energy

>  <rmsd>  (30) 
8.500223208219333

>  <m_score__min__rmsd>  (30) 
8.500223208219333

>  <meeko>  (30) 
{"free_energy": -6.27, "intermolecular_energy": -7.76, "internal_energy": -1.71, "cluster_size": 8, "cluster_id": 3, "rank_in_cluster": 4}

>  <energy>  (30) 
-6.6

>  <cluster_rmsd>  (30) 
0.95

>  <cluster>  (30) 
2

$$$$

     RDKit          3D

 40 41  0  0  0  0  0  0  0  0999 V2000
  146.1620   73.4800  221.4710 C   0  0  0  0  0  0  0  0  0  0  0  0
  144.9050   73.1010  220.8020 C   0  0  0  0  0  0  0  0  0  0  0  0
  145.2010   72.3050  219.5240 C   0  0  0  0  0  0  0  0  0  0  0  0
  143.9560   74.1790  220.5110 C   0  0  0  0  0  0  0  0  0  0  0  0
  142.5790   73.9720  220.7380 N   0  0  0  0  0  0  0  0  0  0  0  0
  141.5050   74.8680  220.8180 C   0  0  0  0  0  0  0  0  0  0  0  0
  141.6530   76.1330  220.6860 O   0  0  0  0  0  0  0  0  0  0  0  0
  140.0810   74.4710  221.0590 C   0  0  0  0  0  0  0  0  0  0  0  0
  139.9740   73.6090  222.1840 N   0  0  0  0  0  0  0  0  0  0  0  0
  140.4090   72.2330  222.1860 C   0  0  0  0  0  0  0  0  0  0  0  0
  140.9320   71.7000  221.1720 O   0  0  0  0  0  0  0  0  0  0  0  0
  140.2320   71.4450  223.4170 C   0  0  0  0  0  0  0  0  0  0  0  0
  139.5930   70.2310  223.3580 C   0  0  0  0  0  0  0  0  0  0  0  0
  139.4100   69.4680  224.4910 C   0  0  0  0  0  0  0  0  0  0  0  0
  139.8840   69.9500  225.6930 C   0  0  0  0  0  0  0  0  0  0  0  0
  139.6900   69.1760  226.8050 C   0  0  0  0  0  0  0  0  0  0  0  0
  140.1630   69.6550  228.0130 C   0  0  0  0  0  0  0  0  0  0  0  0
  139.9600   68.8690  229.0980 F   0  0  0  0  0  0  0  0  0  0  0  0
  140.8040   70.8740  228.0680 C   0  0  0  0  0  0  0  0  0  0  0  0
  141.0120   71.6740  226.9620 C   0  0  0  0  0  0  0  0  0  0  0  0
  140.5330   71.1880  225.7430 C   0  0  0  0  0  0  0  0  0  0  0  0
  140.6820   71.8880  224.6040 N   0  0  0  0  0  0  0  0  0  0  0  0
  146.0240   73.4384  222.5615 H   0  0  0  0  0  0  0  0  0  0  0  0
  146.9595   72.7824  221.1754 H   0  0  0  0  0  0  0  0  0  0  0  0
  146.4409   74.5022  221.1754 H   0  0  0  0  0  0  0  0  0  0  0  0
  144.3875   72.4851  221.5522 H   0  0  0  0  0  0  0  0  0  0  0  0
  145.5728   71.3052  219.7926 H   0  0  0  0  0  0  0  0  0  0  0  0
  144.2794   72.2065  218.9316 H   0  0  0  0  0  0  0  0  0  0  0  0
  145.9630   72.8326  218.9316 H   0  0  0  0  0  0  0  0  0  0  0  0
  144.2550   75.0425  221.1233 H   0  0  0  0  0  0  0  0  0  0  0  0
  144.0234   74.2950  219.4192 H   0  0  0  0  0  0  0  0  0  0  0  0
  142.2850   72.9320  220.8440 H   0  0  0  0  0  0  0  0  0  0  0  0
  139.4817   75.3753  221.2409 H   0  0  0  0  0  0  0  0  0  0  0  0
  139.7125   73.9353  220.1718 H   0  0  0  0  0  0  0  0  0  0  0  0
  139.5520   73.9660  223.0940 H   0  0  0  0  0  0  0  0  0  0  0  0
  139.2212   69.8616  222.3909 H   0  0  0  0  0  0  0  0  0  0  0  0
  138.8973   68.4962  224.4377 H   0  0  0  0  0  0  0  0  0  0  0  0
  139.1754   68.2060  226.7400 H   0  0  0  0  0  0  0  0  0  0  0  0
  141.1688   71.2278  229.0436 H   0  0  0  0  0  0  0  0  0  0  0  0
  141.5276   72.6428  227.0368 H   0  0  0  0  0  0  0  0  0  0  0  0
  1  2  1  0
  2  3  1  0
  2  4  1  0
  4  5  1  0
  5  6  1  0
  6  7  2  0
  6  8  1  0
  8  9  1  0
  9 10  1  0
 10 11  2  0
 10 12  1  0
 12 13  2  0
 13 14  1  0
 14 15  2  0
 15 16  1  0
 16 17  2  0
 17 18  1  0
 17 19  1  0
 19 20  2  0
 20 21  1  0
 21 22  2  0
 22 12  1  0
 21 15  1  0
  1 23  1  0
  1 24  1  0
  1 25  1  0
  2 26  1  0
  3 27  1  0
  3 28  1  0
  3 29  1  0
  4 30  1  0
  4 31  1  0
  5 32  1  0
  8 33  1  0
  8 34  1  0
  9 35  1  0
 13 36  1  0
 14 37  1  0
 16 38  1  0
 19 39  1  0
 20 40  1  0
M  END
>  <smiles>  (31) 
CC(C)CNC(=O)CNC(=O)c1ccc2cc(F)ccc2n1

>  <score_type>  (31) 
oracle

>  <origin>  (31) 
autodockgpu

>  <m_score__min__energy>  (31) 
-7.4800000000000004

>  <m_primary>  (31) 
energy

>  <rmsd>  (31) 
3.6208985165696093

>  <m_score__min__rmsd>  (31) 
3.6208985165696093

>  <meeko>  (31) 
{"free_energy": -6.76, "intermolecular_energy": -8.25, "internal_energy": -1.59, "cluster_size": 33, "cluster_id": 2, "rank_in_cluster": 12}

>  <energy>  (31) 
-6.58

>  <cluster_rmsd>  (31) 
0.96

>  <cluster>  (31) 
2

$$$$

     RDKit          3D

 40 41  0  0  0  0  0  0  0  0999 V2000
  141.4040   72.2620  227.6390 C   0  0  0  0  0  0  0  0  0  0  0  0
  140.7490   71.1030  227.0080 C   0  0  0  0  0  0  0  0  0  0  0  0
  140.7580   69.9020  227.9630 C   0  0  0  0  0  0  0  0  0  0  0  0
  141.2430   70.6970  225.6890 C   0  0  0  0  0  0  0  0  0  0  0  0
  140.5210   71.0630  224.5330 N   0  0  0  0  0  0  0  0  0  0  0  0
  139.1870   70.8520  224.1650 C   0  0  0  0  0  0  0  0  0  0  0  0
  138.3580   70.2240  224.9120 O   0  0  0  0  0  0  0  0  0  0  0  0
  138.5720   71.3250  222.8840 C   0  0  0  0  0  0  0  0  0  0  0  0
  139.0480   72.6180  222.5350 N   0  0  0  0  0  0  0  0  0  0  0  0
  140.3360   72.8650  221.9320 C   0  0  0  0  0  0  0  0  0  0  0  0
  141.1320   71.9280  221.6610 O   0  0  0  0  0  0  0  0  0  0  0  0
  140.7120   74.2550  221.6290 C   0  0  0  0  0  0  0  0  0  0  0  0
  141.6870   74.5050  220.6970 C   0  0  0  0  0  0  0  0  0  0  0  0
  142.0640   75.7950  220.3900 C   0  0  0  0  0  0  0  0  0  0  0  0
  141.4390   76.8360  221.0420 C   0  0  0  0  0  0  0  0  0  0  0  0
  141.8290   78.1090  220.7220 C   0  0  0  0  0  0  0  0  0  0  0  0
  141.2040   79.1560  221.3730 C   0  0  0  0  0  0  0  0  0  0  0  0
  141.6080   80.4060  221.0370 F   0  0  0  0  0  0  0  0  0  0  0  0
  140.2250   78.9020  222.3090 C   0  0  0  0  0  0  0  0  0  0  0  0
  139.8130   77.6280  222.6500 C   0  0  0  0  0  0  0  0  0  0  0  0
  140.4460   76.5710  221.9910 C   0  0  0  0  0  0  0  0  0  0  0  0
  140.1200   75.2920  222.2490 N   0  0  0  0  0  0  0  0  0  0  0  0
  141.3485   72.1637  228.7332 H   0  0  0  0  0  0  0  0  0  0  0  0
  142.4582   72.3019  227.3275 H   0  0  0  0  0  0  0  0  0  0  0  0
  140.8944   73.1857  227.3275 H   0  0  0  0  0  0  0  0  0  0  0  0
  139.7263   71.4575  226.8121 H   0  0  0  0  0  0  0  0  0  0  0  0
  140.7553   70.2605  229.0029 H   0  0  0  0  0  0  0  0  0  0  0  0
  139.8644   69.2856  227.7853 H   0  0  0  0  0  0  0  0  0  0  0  0
  141.6607   69.2990  227.7853 H   0  0  0  0  0  0  0  0  0  0  0  0
  142.2532   71.1189  225.5821 H   0  0  0  0  0  0  0  0  0  0  0  0
  141.1598   69.6003  225.7087 H   0  0  0  0  0  0  0  0  0  0  0  0
  141.0870   71.6360  223.8040 H   0  0  0  0  0  0  0  0  0  0  0  0
  138.8279   70.6189  222.0803 H   0  0  0  0  0  0  0  0  0  0  0  0
  137.4816   71.3786  223.0187 H   0  0  0  0  0  0  0  0  0  0  0  0
  138.4460   73.4770  222.7170 H   0  0  0  0  0  0  0  0  0  0  0  0
  142.1760   73.6624  220.1863 H   0  0  0  0  0  0  0  0  0  0  0  0
  142.8462   75.9891  219.6413 H   0  0  0  0  0  0  0  0  0  0  0  0
  142.6129   78.2922  219.9724 H   0  0  0  0  0  0  0  0  0  0  0  0
  139.7473   79.7568  222.8101 H   0  0  0  0  0  0  0  0  0  0  0  0
  139.0279   77.4550  223.4008 H   0  0  0  0  0  0  0  0  0  0  0  0
  1  2  1  0
  2  3  1  0
  2  4  1  0
  4  5  1  0
  5  6  1  0
  6  7  2  0
  6  8  1  0
  8  9  1  0
  9 10  1  0
 10 11  2  0
 10 12  1  0
 12 13  2  0
 13 14  1  0
 14 15  2  0
 15 16  1  0
 16 17  2  0
 17 18  1  0
 17 19  1  0
 19 20  2  0
 20 21  1  0
 21 22  2  0
 22 12  1  0
 21 15  1  0
  1 23  1  0
  1 24  1  0
  1 25  1  0
  2 26  1  0
  3 27  1  0
  3 28  1  0
  3 29  1  0
  4 30  1  0
  4 31  1  0
  5 32  1  0
  8 33  1  0
  8 34  1  0
  9 35  1  0
 13 36  1  0
 14 37  1  0
 16 38  1  0
 19 39  1  0
 20 40  1  0
M  END
>  <smiles>  (32) 
CC(C)CNC(=O)CNC(=O)c1ccc2cc(F)ccc2n1

>  <score_type>  (32) 
oracle

>  <origin>  (32) 
autodockgpu

>  <m_score__min__energy>  (32) 
-7.4800000000000004

>  <m_primary>  (32) 
energy

>  <rmsd>  (32) 
8.475202036800873

>  <m_score__min__rmsd>  (32) 
8.475202036800873

>  <meeko>  (32) 
{"free_energy": -6.24, "intermolecular_energy": -7.73, "internal_energy": -1.76, "cluster_size": 8, "cluster_id": 3, "rank_in_cluster": 7}

>  <energy>  (32) 
-6.56

>  <cluster_rmsd>  (32) 
0.97

>  <cluster>  (32) 
2

$$$$

     RDKit          3D

 40 41  0  0  0  0  0  0  0  0999 V2000
  144.2170   72.1960  220.4590 C   0  0  0  0  0  0  0  0  0  0  0  0
  144.6470   73.5450  220.0530 C   0  0  0  0  0  0  0  0  0  0  0  0
  145.8900   73.9690  220.8470 C   0  0  0  0  0  0  0  0  0  0  0  0
  143.6380   74.6070  220.1020 C   0  0  0  0  0  0  0  0  0  0  0  0
  142.2890   74.2740  220.3520 N   0  0  0  0  0  0  0  0  0  0  0  0
  141.2560   74.9840  220.9730 C   0  0  0  0  0  0  0  0  0  0  0  0
  141.4210   76.1590  221.4550 O   0  0  0  0  0  0  0  0  0  0  0  0
  139.8580   74.4760  221.1480 C   0  0  0  0  0  0  0  0  0  0  0  0
  139.7710   73.5880  222.2550 N   0  0  0  0  0  0  0  0  0  0  0  0
  140.4330   72.3070  222.3120 C   0  0  0  0  0  0  0  0  0  0  0  0
  141.1550   71.8900  221.3680 O   0  0  0  0  0  0  0  0  0  0  0  0
  140.2520   71.4790  223.5140 C   0  0  0  0  0  0  0  0  0  0  0  0
  139.6020   70.2740  223.4160 C   0  0  0  0  0  0  0  0  0  0  0  0
  139.4160   69.4740  224.5230 C   0  0  0  0  0  0  0  0  0  0  0  0
  139.8980   69.9090  225.7390 C   0  0  0  0  0  0  0  0  0  0  0  0
  139.7010   69.0990  226.8250 C   0  0  0  0  0  0  0  0  0  0  0  0
  140.1830   69.5310  228.0460 C   0  0  0  0  0  0  0  0  0  0  0  0
  139.9770   68.7100  229.1050 F   0  0  0  0  0  0  0  0  0  0  0  0
  140.8360   70.7420  228.1420 C   0  0  0  0  0  0  0  0  0  0  0  0
  141.0480   71.5780  227.0620 C   0  0  0  0  0  0  0  0  0  0  0  0
  140.5590   71.1380  225.8290 C   0  0  0  0  0  0  0  0  0  0  0  0
  140.7120   71.8770  224.7150 N   0  0  0  0  0  0  0  0  0  0  0  0
  144.1968   72.1326  221.5570 H   0  0  0  0  0  0  0  0  0  0  0  0
  143.2108   71.9968  220.0616 H   0  0  0  0  0  0  0  0  0  0  0  0
  144.9223   71.4512  220.0616 H   0  0  0  0  0  0  0  0  0  0  0  0
  144.8680   73.4348  218.9811 H   0  0  0  0  0  0  0  0  0  0  0  0
  145.6791   73.8971  221.9242 H   0  0  0  0  0  0  0  0  0  0  0  0
  146.7309   73.3069  220.5930 H   0  0  0  0  0  0  0  0  0  0  0  0
  146.1509   75.0070  220.5930 H   0  0  0  0  0  0  0  0  0  0  0  0
  143.9470   75.3055  220.8936 H   0  0  0  0  0  0  0  0  0  0  0  0
  143.6215   74.9950  219.0728 H   0  0  0  0  0  0  0  0  0  0  0  0
  141.9820   73.3030  219.9730 H   0  0  0  0  0  0  0  0  0  0  0  0
  139.1844   75.3289  221.3178 H   0  0  0  0  0  0  0  0  0  0  0  0
  139.5683   73.9297  220.2382 H   0  0  0  0  0  0  0  0  0  0  0  0
  139.1900   73.8520  223.1070 H   0  0  0  0  0  0  0  0  0  0  0  0
  139.2234   69.9414  222.4382 H   0  0  0  0  0  0  0  0  0  0  0  0
  138.8942   68.5094  224.4379 H   0  0  0  0  0  0  0  0  0  0  0  0
  139.1767   68.1368  226.7289 H   0  0  0  0  0  0  0  0  0  0  0  0
  141.2069   71.0585  229.1280 H   0  0  0  0  0  0  0  0  0  0  0  0
  141.5736   72.5385  227.1674 H   0  0  0  0  0  0  0  0  0  0  0  0
  1  2  1  0
  2  3  1  0
  2  4  1  0
  4  5  1  0
  5  6  1  0
  6  7  2  0
  6  8  1  0
  8  9  1  0
  9 10  1  0
 10 11  2  0
 10 12  1  0
 12 13  2  0
 13 14  1  0
 14 15  2  0
 15 16  1  0
 16 17  2  0
 17 18  1  0
 17 19  1  0
 19 20  2  0
 20 21  1  0
 21 22  2  0
 22 12  1  0
 21 15  1  0
  1 23  1  0
  1 24  1  0
  1 25  1  0
  2 26  1  0
  3 27  1  0
  3 28  1  0
  3 29  1  0
  4 30  1  0
  4 31  1  0
  5 32  1  0
  8 33  1  0
  8 34  1  0
  9 35  1  0
 13 36  1  0
 14 37  1  0
 16 38  1  0
 19 39  1  0
 20 40  1  0
M  END
>  <smiles>  (33) 
CC(C)CNC(=O)CNC(=O)c1ccc2cc(F)ccc2n1

>  <score_type>  (33) 
oracle

>  <origin>  (33) 
autodockgpu

>  <m_score__min__energy>  (33) 
-7.4800000000000004

>  <m_primary>  (33) 
energy

>  <rmsd>  (33) 
3.2516504547997886

>  <m_score__min__rmsd>  (33) 
3.2516504547997886

>  <meeko>  (33) 
{"free_energy": -6.76, "intermolecular_energy": -8.25, "internal_energy": -1.6, "cluster_size": 33, "cluster_id": 2, "rank_in_cluster": 11}

>  <energy>  (33) 
-6.55

>  <cluster_rmsd>  (33) 
0.87

>  <cluster>  (33) 
2

$$$$

     RDKit          3D

 40 41  0  0  0  0  0  0  0  0999 V2000
  144.0690   71.9800  220.6610 C   0  0  0  0  0  0  0  0  0  0  0  0
  144.5770   73.2970  220.2390 C   0  0  0  0  0  0  0  0  0  0  0  0
  145.7160   73.7490  221.1620 C   0  0  0  0  0  0  0  0  0  0  0  0
  143.5930   74.3740  220.0960 C   0  0  0  0  0  0  0  0  0  0  0  0
  142.2400   74.1260  220.4130 N   0  0  0  0  0  0  0  0  0  0  0  0
  141.2400   74.9550  220.9340 C   0  0  0  0  0  0  0  0  0  0  0  0
  141.4490   76.1830  221.2300 O   0  0  0  0  0  0  0  0  0  0  0  0
  139.8310   74.5250  221.2040 C   0  0  0  0  0  0  0  0  0  0  0  0
  139.7720   73.6300  222.3070 N   0  0  0  0  0  0  0  0  0  0  0  0
  140.2780   72.2780  222.2730 C   0  0  0  0  0  0  0  0  0  0  0  0
  140.8240   71.7990  221.2440 O   0  0  0  0  0  0  0  0  0  0  0  0
  140.1450   71.4500  223.4820 C   0  0  0  0  0  0  0  0  0  0  0  0
  139.5570   70.2130  223.3960 C   0  0  0  0  0  0  0  0  0  0  0  0
  139.4170   69.4140  224.5100 C   0  0  0  0  0  0  0  0  0  0  0  0
  139.8820   69.8820  225.7200 C   0  0  0  0  0  0  0  0  0  0  0  0
  139.7320   69.0710  226.8130 C   0  0  0  0  0  0  0  0  0  0  0  0
  140.1970   69.5370  228.0290 C   0  0  0  0  0  0  0  0  0  0  0  0
  140.0370   68.7150  229.0940 F   0  0  0  0  0  0  0  0  0  0  0  0
  140.7870   70.7800  228.1120 C   0  0  0  0  0  0  0  0  0  0  0  0
  140.9500   71.6180  227.0250 C   0  0  0  0  0  0  0  0  0  0  0  0
  140.4800   71.1440  225.7980 C   0  0  0  0  0  0  0  0  0  0  0  0
  140.5890   71.8810  224.6780 N   0  0  0  0  0  0  0  0  0  0  0  0
  144.0495   71.9294  221.7597 H   0  0  0  0  0  0  0  0  0  0  0  0
  143.0512   71.8369  220.2692 H   0  0  0  0  0  0  0  0  0  0  0  0
  144.7271   71.1904  220.2692 H   0  0  0  0  0  0  0  0  0  0  0  0
  144.9322   73.1212  219.2129 H   0  0  0  0  0  0  0  0  0  0  0  0
  145.4083   73.6269  222.2110 H   0  0  0  0  0  0  0  0  0  0  0  0
  146.6095   73.1373  220.9684 H   0  0  0  0  0  0  0  0  0  0  0  0
  145.9469   74.8069  220.9684 H   0  0  0  0  0  0  0  0  0  0  0  0
  143.9266   75.1999  220.7414 H   0  0  0  0  0  0  0  0  0  0  0  0
  143.5738   74.5642  219.0127 H   0  0  0  0  0  0  0  0  0  0  0  0
  141.8970   73.1190  220.1900 H   0  0  0  0  0  0  0  0  0  0  0  0
  139.2211   75.4126  221.4284 H   0  0  0  0  0  0  0  0  0  0  0  0
  139.4466   74.0073  220.3128 H   0  0  0  0  0  0  0  0  0  0  0  0
  139.3350   73.9410  223.2260 H   0  0  0  0  0  0  0  0  0  0  0  0
  139.1917   69.8537  222.4226 H   0  0  0  0  0  0  0  0  0  0  0  0
  138.9441   68.4237  224.4350 H   0  0  0  0  0  0  0  0  0  0  0  0
  139.2576   68.0823  226.7267 H   0  0  0  0  0  0  0  0  0  0  0  0
  141.1465   71.1225  229.0935 H   0  0  0  0  0  0  0  0  0  0  0  0
  141.4246   72.6057  227.1211 H   0  0  0  0  0  0  0  0  0  0  0  0
  1  2  1  0
  2  3  1  0
  2  4  1  0
  4  5  1  0
  5  6  1  0
  6  7  2  0
  6  8  1  0
  8  9  1  0
  9 10  1  0
 10 11  2  0
 10 12  1  0
 12 13  2  0
 13 14  1  0
 14 15  2  0
 15 16  1  0
 16 17  2  0
 17 18  1  0
 17 19  1  0
 19 20  2  0
 20 21  1  0
 21 22  2  0
 22 12  1  0
 21 15  1  0
  1 23  1  0
  1 24  1  0
  1 25  1  0
  2 26  1  0
  3 27  1  0
  3 28  1  0
  3 29  1  0
  4 30  1  0
  4 31  1  0
  5 32  1  0
  8 33  1  0
  8 34  1  0
  9 35  1  0
 13 36  1  0
 14 37  1  0
 16 38  1  0
 19 39  1  0
 20 40  1  0
M  END
>  <smiles>  (34) 
CC(C)CNC(=O)CNC(=O)c1ccc2cc(F)ccc2n1

>  <score_type>  (34) 
oracle

>  <origin>  (34) 
autodockgpu

>  <m_score__min__energy>  (34) 
-7.4800000000000004

>  <m_primary>  (34) 
energy

>  <rmsd>  (34) 
3.2902229353104184

>  <m_score__min__rmsd>  (34) 
3.2902229353104184

>  <meeko>  (34) 
{"free_energy": -6.6, "intermolecular_energy": -8.09, "internal_energy": -1.69, "cluster_size": 33, "cluster_id": 2, "rank_in_cluster": 21}

>  <energy>  (34) 
-6.53

>  <cluster_rmsd>  (34) 
0.82

>  <cluster>  (34) 
2

$$$$

     RDKit          3D

 40 41  0  0  0  0  0  0  0  0999 V2000
  141.0660   71.8850  227.9300 C   0  0  0  0  0  0  0  0  0  0  0  0
  140.6340   70.7780  227.0590 C   0  0  0  0  0  0  0  0  0  0  0  0
  140.7420   69.4410  227.8040 C   0  0  0  0  0  0  0  0  0  0  0  0
  141.2810   70.6730  225.7480 C   0  0  0  0  0  0  0  0  0  0  0  0
  140.5550   71.0130  224.5860 N   0  0  0  0  0  0  0  0  0  0  0  0
  139.2160   70.8100  224.2340 C   0  0  0  0  0  0  0  0  0  0  0  0
  138.3830   70.2180  225.0070 O   0  0  0  0  0  0  0  0  0  0  0  0
  138.5980   71.2510  222.9430 C   0  0  0  0  0  0  0  0  0  0  0  0
  139.0710   72.5360  222.5630 N   0  0  0  0  0  0  0  0  0  0  0  0
  140.3530   72.7700  221.9440 C   0  0  0  0  0  0  0  0  0  0  0  0
  141.1480   71.8270  221.6860 O   0  0  0  0  0  0  0  0  0  0  0  0
  140.7270   74.1530  221.6080 C   0  0  0  0  0  0  0  0  0  0  0  0
  141.7110   74.3830  220.6800 C   0  0  0  0  0  0  0  0  0  0  0  0
  142.0850   75.6660  220.3430 C   0  0  0  0  0  0  0  0  0  0  0  0
  141.4480   76.7210  220.9600 C   0  0  0  0  0  0  0  0  0  0  0  0
  141.8360   77.9870  220.6100 C   0  0  0  0  0  0  0  0  0  0  0  0
  141.1990   79.0480  221.2260 C   0  0  0  0  0  0  0  0  0  0  0  0
  141.6010   80.2910  220.8620 F   0  0  0  0  0  0  0  0  0  0  0  0
  140.2110   78.8140  222.1590 C   0  0  0  0  0  0  0  0  0  0  0  0
  139.8010   77.5480  222.5290 C   0  0  0  0  0  0  0  0  0  0  0  0
  140.4460   76.4770  221.9050 C   0  0  0  0  0  0  0  0  0  0  0  0
  140.1230   75.2040  222.1930 N   0  0  0  0  0  0  0  0  0  0  0  0
  140.9506   71.5893  228.9832 H   0  0  0  0  0  0  0  0  0  0  0  0
  142.1216   72.1196  227.7285 H   0  0  0  0  0  0  0  0  0  0  0  0
  140.4483   72.7726  227.7285 H   0  0  0  0  0  0  0  0  0  0  0  0
  139.5890   71.0268  226.8224 H   0  0  0  0  0  0  0  0  0  0  0  0
  140.7273   69.6234  228.8887 H   0  0  0  0  0  0  0  0  0  0  0  0
  139.8929   68.7982  227.5287 H   0  0  0  0  0  0  0  0  0  0  0  0
  141.6833   68.9429  227.5287 H   0  0  0  0  0  0  0  0  0  0  0  0
  142.1662   71.3255  225.7747 H   0  0  0  0  0  0  0  0  0  0  0  0
  141.4609   69.5938  225.6341 H   0  0  0  0  0  0  0  0  0  0  0  0
  141.1240   71.5530  223.8350 H   0  0  0  0  0  0  0  0  0  0  0  0
  138.8542   70.5265  222.1559 H   0  0  0  0  0  0  0  0  0  0  0  0
  137.5077   71.3054  223.0778 H   0  0  0  0  0  0  0  0  0  0  0  0
  138.4700   73.3990  222.7320 H   0  0  0  0  0  0  0  0  0  0  0  0
  142.2095   73.5296  220.1971 H   0  0  0  0  0  0  0  0  0  0  0  0
  142.8745   75.8440  219.5980 H   0  0  0  0  0  0  0  0  0  0  0  0
  142.6273   78.1538  219.8643 H   0  0  0  0  0  0  0  0  0  0  0  0
  139.7247   79.6795  222.6327 H   0  0  0  0  0  0  0  0  0  0  0  0
  139.0085   77.3911  223.2756 H   0  0  0  0  0  0  0  0  0  0  0  0
  1  2  1  0
  2  3  1  0
  2  4  1  0
  4  5  1  0
  5  6  1  0
  6  7  2  0
  6  8  1  0
  8  9  1  0
  9 10  1  0
 10 11  2  0
 10 12  1  0
 12 13  2  0
 13 14  1  0
 14 15  2  0
 15 16  1  0
 16 17  2  0
 17 18  1  0
 17 19  1  0
 19 20  2  0
 20 21  1  0
 21 22  2  0
 22 12  1  0
 21 15  1  0
  1 23  1  0
  1 24  1  0
  1 25  1  0
  2 26  1  0
  3 27  1  0
  3 28  1  0
  3 29  1  0
  4 30  1  0
  4 31  1  0
  5 32  1  0
  8 33  1  0
  8 34  1  0
  9 35  1  0
 13 36  1  0
 14 37  1  0
 16 38  1  0
 19 39  1  0
 20 40  1  0
M  END
>  <smiles>  (35) 
CC(C)CNC(=O)CNC(=O)c1ccc2cc(F)ccc2n1

>  <score_type>  (35) 
oracle

>  <origin>  (35) 
autodockgpu

>  <m_score__min__energy>  (35) 
-7.4800000000000004

>  <m_primary>  (35) 
energy

>  <rmsd>  (35) 
8.537106316114874

>  <m_score__min__rmsd>  (35) 
8.537106316114874

>  <meeko>  (35) 
{"free_energy": -6.26, "intermolecular_energy": -7.75, "internal_energy": -1.74, "cluster_size": 8, "cluster_id": 3, "rank_in_cluster": 6}

>  <energy>  (35) 
-6.49

>  <cluster_rmsd>  (35) 
1.39

>  <cluster>  (35) 
2

$$$$

     RDKit          3D

 40 41  0  0  0  0  0  0  0  0999 V2000
  141.0750   71.9040  227.9540 C   0  0  0  0  0  0  0  0  0  0  0  0
  140.6200   70.8210  227.0650 C   0  0  0  0  0  0  0  0  0  0  0  0
  140.7290   69.4660  227.7780 C   0  0  0  0  0  0  0  0  0  0  0  0
  141.2450   70.7410  225.7420 C   0  0  0  0  0  0  0  0  0  0  0  0
  140.4940   71.0840  224.5970 N   0  0  0  0  0  0  0  0  0  0  0  0
  139.1700   70.8070  224.2370 C   0  0  0  0  0  0  0  0  0  0  0  0
  138.3820   70.1260  224.9810 O   0  0  0  0  0  0  0  0  0  0  0  0
  138.5190   71.2640  222.9680 C   0  0  0  0  0  0  0  0  0  0  0  0
  139.0130   72.5370  222.5700 N   0  0  0  0  0  0  0  0  0  0  0  0
  140.2990   72.7410  221.9480 C   0  0  0  0  0  0  0  0  0  0  0  0
  141.0790   71.7820  221.7050 O   0  0  0  0  0  0  0  0  0  0  0  0
  140.6950   74.1130  221.5940 C   0  0  0  0  0  0  0  0  0  0  0  0
  141.6320   74.3160  220.6110 C   0  0  0  0  0  0  0  0  0  0  0  0
  142.0260   75.5880  220.2560 C   0  0  0  0  0  0  0  0  0  0  0  0
  141.4560   76.6600  220.9080 C   0  0  0  0  0  0  0  0  0  0  0  0
  141.8620   77.9150  220.5390 C   0  0  0  0  0  0  0  0  0  0  0  0
  141.2940   78.9930  221.1910 C   0  0  0  0  0  0  0  0  0  0  0  0
  141.7120   80.2240  220.8060 F   0  0  0  0  0  0  0  0  0  0  0  0
  140.3520   78.7860  222.1770 C   0  0  0  0  0  0  0  0  0  0  0  0
  139.9260   77.5320  222.5690 C   0  0  0  0  0  0  0  0  0  0  0  0
  140.5020   76.4440  221.9080 C   0  0  0  0  0  0  0  0  0  0  0  0
  140.1580   75.1800  222.2130 N   0  0  0  0  0  0  0  0  0  0  0  0
  140.9458   71.5966  229.0022 H   0  0  0  0  0  0  0  0  0  0  0  0
  142.1375   72.1142  227.7618 H   0  0  0  0  0  0  0  0  0  0  0  0
  140.4814   72.8099  227.7618 H   0  0  0  0  0  0  0  0  0  0  0  0
  139.5735   71.0834  226.8507 H   0  0  0  0  0  0  0  0  0  0  0  0
  140.7164   69.6225  228.8667 H   0  0  0  0  0  0  0  0  0  0  0  0
  139.8791   68.8302  227.4891 H   0  0  0  0  0  0  0  0  0  0  0  0
  141.6696   68.9743  227.4891 H   0  0  0  0  0  0  0  0  0  0  0  0
  142.1210   71.4060  225.7612 H   0  0  0  0  0  0  0  0  0  0  0  0
  141.4382   69.6659  225.6119 H   0  0  0  0  0  0  0  0  0  0  0  0
  141.0230   71.6950  223.8710 H   0  0  0  0  0  0  0  0  0  0  0  0
  138.7280   70.5328  222.1732 H   0  0  0  0  0  0  0  0  0  0  0  0
  137.4359   71.3474  223.1408 H   0  0  0  0  0  0  0  0  0  0  0  0
  138.4260   73.4110  222.7250 H   0  0  0  0  0  0  0  0  0  0  0  0
  142.0753   73.4494  220.0986 H   0  0  0  0  0  0  0  0  0  0  0  0
  142.7790   75.7442  219.4695 H   0  0  0  0  0  0  0  0  0  0  0  0
  142.6149   78.0600  219.7502 H   0  0  0  0  0  0  0  0  0  0  0  0
  139.9178   79.6645  222.6767 H   0  0  0  0  0  0  0  0  0  0  0  0
  139.1732   77.3970  223.3596 H   0  0  0  0  0  0  0  0  0  0  0  0
  1  2  1  0
  2  3  1  0
  2  4  1  0
  4  5  1  0
  5  6  1  0
  6  7  2  0
  6  8  1  0
  8  9  1  0
  9 10  1  0
 10 11  2  0
 10 12  1  0
 12 13  2  0
 13 14  1  0
 14 15  2  0
 15 16  1  0
 16 17  2  0
 17 18  1  0
 17 19  1  0
 19 20  2  0
 20 21  1  0
 21 22  2  0
 22 12  1  0
 21 15  1  0
  1 23  1  0
  1 24  1  0
  1 25  1  0
  2 26  1  0
  3 27  1  0
  3 28  1  0
  3 29  1  0
  4 30  1  0
  4 31  1  0
  5 32  1  0
  8 33  1  0
  8 34  1  0
  9 35  1  0
 13 36  1  0
 14 37  1  0
 16 38  1  0
 19 39  1  0
 20 40  1  0
M  END
>  <smiles>  (36) 
CC(C)CNC(=O)CNC(=O)c1ccc2cc(F)ccc2n1

>  <score_type>  (36) 
oracle

>  <origin>  (36) 
autodockgpu

>  <m_score__min__energy>  (36) 
-7.4800000000000004

>  <m_primary>  (36) 
energy

>  <rmsd>  (36) 
8.513170187766125

>  <m_score__min__rmsd>  (36) 
8.513170187766125

>  <meeko>  (36) 
{"free_energy": -6.29, "intermolecular_energy": -7.78, "internal_energy": -1.72, "cluster_size": 8, "cluster_id": 3, "rank_in_cluster": 1}

>  <energy>  (36) 
-6.47

>  <cluster_rmsd>  (36) 
1.39

>  <cluster>  (36) 
2

$$$$

     RDKit          3D

 40 41  0  0  0  0  0  0  0  0999 V2000
  140.1890   79.2910  223.4760 C   0  0  0  0  0  0  0  0  0  0  0  0
  141.3930   78.7220  222.8460 C   0  0  0  0  0  0  0  0  0  0  0  0
  142.5850   79.6730  223.0210 C   0  0  0  0  0  0  0  0  0  0  0  0
  141.2800   78.3160  221.4420 C   0  0  0  0  0  0  0  0  0  0  0  0
  141.0680   76.9570  221.1270 N   0  0  0  0  0  0  0  0  0  0  0  0
  140.2430   75.9860  221.7070 C   0  0  0  0  0  0  0  0  0  0  0  0
  139.4930   76.2330  222.7150 O   0  0  0  0  0  0  0  0  0  0  0  0
  140.1300   74.5700  221.2330 C   0  0  0  0  0  0  0  0  0  0  0  0
  140.0000   73.6730  222.3280 N   0  0  0  0  0  0  0  0  0  0  0  0
  140.4670   72.3070  222.3070 C   0  0  0  0  0  0  0  0  0  0  0  0
  141.0410   71.8160  221.3000 O   0  0  0  0  0  0  0  0  0  0  0  0
  140.2610   71.4790  223.5070 C   0  0  0  0  0  0  0  0  0  0  0  0
  139.5980   70.2820  223.3980 C   0  0  0  0  0  0  0  0  0  0  0  0
  139.3880   69.4840  224.5020 C   0  0  0  0  0  0  0  0  0  0  0  0
  139.8590   69.9120  225.7240 C   0  0  0  0  0  0  0  0  0  0  0  0
  139.6390   69.1020  226.8060 C   0  0  0  0  0  0  0  0  0  0  0  0
  140.1100   69.5280  228.0340 C   0  0  0  0  0  0  0  0  0  0  0  0
  139.8800   68.7080  229.0890 F   0  0  0  0  0  0  0  0  0  0  0  0
  140.7760   70.7310  228.1400 C   0  0  0  0  0  0  0  0  0  0  0  0
  141.0110   71.5650  227.0650 C   0  0  0  0  0  0  0  0  0  0  0  0
  140.5330   71.1330  225.8250 C   0  0  0  0  0  0  0  0  0  0  0  0
  140.7090   71.8710  224.7140 N   0  0  0  0  0  0  0  0  0  0  0  0
  140.2903   79.2431  224.5703 H   0  0  0  0  0  0  0  0  0  0  0  0
  140.0726   80.3394  223.1641 H   0  0  0  0  0  0  0  0  0  0  0  0
  139.3051   78.7153  223.1641 H   0  0  0  0  0  0  0  0  0  0  0  0
  141.5459   77.7760  223.3861 H   0  0  0  0  0  0  0  0  0  0  0  0
  142.7773   79.8264  224.0931 H   0  0  0  0  0  0  0  0  0  0  0  0
  143.4761   79.2350  222.5476 H   0  0  0  0  0  0  0  0  0  0  0  0
  142.3558   80.6391  222.5476 H   0  0  0  0  0  0  0  0  0  0  0  0
  140.4382   78.8791  221.0128 H   0  0  0  0  0  0  0  0  0  0  0  0
  142.2792   78.5237  221.0316 H   0  0  0  0  0  0  0  0  0  0  0  0
  141.6220   76.5970  220.2640 H   0  0  0  0  0  0  0  0  0  0  0  0
  139.2455   74.4773  220.5856 H   0  0  0  0  0  0  0  0  0  0  0  0
  141.0441   74.3133  220.6775 H   0  0  0  0  0  0  0  0  0  0  0  0
  139.5350   73.9940  223.2300 H   0  0  0  0  0  0  0  0  0  0  0  0
  139.2288   69.9547  222.4148 H   0  0  0  0  0  0  0  0  0  0  0  0
  138.8557   68.5258  224.4094 H   0  0  0  0  0  0  0  0  0  0  0  0
  139.1060   68.1454  226.7017 H   0  0  0  0  0  0  0  0  0  0  0  0
  141.1383   71.0418  229.1310 H   0  0  0  0  0  0  0  0  0  0  0  0
  141.5463   72.5192  227.1787 H   0  0  0  0  0  0  0  0  0  0  0  0
  1  2  1  0
  2  3  1  0
  2  4  1  0
  4  5  1  0
  5  6  1  0
  6  7  2  0
  6  8  1  0
  8  9  1  0
  9 10  1  0
 10 11  2  0
 10 12  1  0
 12 13  2  0
 13 14  1  0
 14 15  2  0
 15 16  1  0
 16 17  2  0
 17 18  1  0
 17 19  1  0
 19 20  2  0
 20 21  1  0
 21 22  2  0
 22 12  1  0
 21 15  1  0
  1 23  1  0
  1 24  1  0
  1 25  1  0
  2 26  1  0
  3 27  1  0
  3 28  1  0
  3 29  1  0
  4 30  1  0
  4 31  1  0
  5 32  1  0
  8 33  1  0
  8 34  1  0
  9 35  1  0
 13 36  1  0
 14 37  1  0
 16 38  1  0
 19 39  1  0
 20 40  1  0
M  END
>  <smiles>  (37) 
CC(C)CNC(=O)CNC(=O)c1ccc2cc(F)ccc2n1

>  <score_type>  (37) 
oracle

>  <origin>  (37) 
autodockgpu

>  <m_score__min__energy>  (37) 
-7.4800000000000004

>  <m_primary>  (37) 
energy

>  <rmsd>  (37) 
3.3856578832360222

>  <m_score__min__rmsd>  (37) 
3.3856578832360222

>  <meeko>  (37) 
{"free_energy": -7.02, "intermolecular_energy": -8.51, "internal_energy": -1.28, "cluster_size": 9, "cluster_id": 1, "rank_in_cluster": 3}

>  <energy>  (37) 
-6.47

>  <cluster_rmsd>  (37) 
0.81

>  <cluster>  (37) 
2

$$$$

     RDKit          3D

 40 41  0  0  0  0  0  0  0  0999 V2000
  146.2600   73.7440  220.6950 C   0  0  0  0  0  0  0  0  0  0  0  0
  144.8450   73.3570  220.8310 C   0  0  0  0  0  0  0  0  0  0  0  0
  144.5790   72.0430  220.0830 C   0  0  0  0  0  0  0  0  0  0  0  0
  143.8430   74.3580  220.4550 C   0  0  0  0  0  0  0  0  0  0  0  0
  142.4760   74.0920  220.6830 N   0  0  0  0  0  0  0  0  0  0  0  0
  141.3850   74.9450  220.8910 C   0  0  0  0  0  0  0  0  0  0  0  0
  141.5020   76.2200  220.9070 O   0  0  0  0  0  0  0  0  0  0  0  0
  139.9760   74.4880  221.1110 C   0  0  0  0  0  0  0  0  0  0  0  0
  139.8920   73.6120  222.2280 N   0  0  0  0  0  0  0  0  0  0  0  0
  140.4000   72.2610  222.2290 C   0  0  0  0  0  0  0  0  0  0  0  0
  140.9720   71.7650  221.2230 O   0  0  0  0  0  0  0  0  0  0  0  0
  140.2390   71.4540  223.4490 C   0  0  0  0  0  0  0  0  0  0  0  0
  139.6050   70.2390  223.3790 C   0  0  0  0  0  0  0  0  0  0  0  0
  139.4380   69.4590  224.5030 C   0  0  0  0  0  0  0  0  0  0  0  0
  139.9220   69.9250  225.7070 C   0  0  0  0  0  0  0  0  0  0  0  0
  139.7440   69.1330  226.8100 C   0  0  0  0  0  0  0  0  0  0  0  0
  140.2270   69.5970  228.0190 C   0  0  0  0  0  0  0  0  0  0  0  0
  140.0390   68.7950  229.0950 F   0  0  0  0  0  0  0  0  0  0  0  0
  140.8640   70.8190  228.0860 C   0  0  0  0  0  0  0  0  0  0  0  0
  141.0560   71.6360  226.9890 C   0  0  0  0  0  0  0  0  0  0  0  0
  140.5660   71.1650  225.7680 C   0  0  0  0  0  0  0  0  0  0  0  0
  140.7000   71.8830  224.6380 N   0  0  0  0  0  0  0  0  0  0  0  0
  146.7045   73.8656  221.6938 H   0  0  0  0  0  0  0  0  0  0  0  0
  146.8029   72.9614  220.1448 H   0  0  0  0  0  0  0  0  0  0  0  0
  146.3291   74.6940  220.1448 H   0  0  0  0  0  0  0  0  0  0  0  0
  144.7107   73.2403  221.9165 H   0  0  0  0  0  0  0  0  0  0  0  0
  144.4152   71.2339  220.8100 H   0  0  0  0  0  0  0  0  0  0  0  0
  143.6853   72.1550  219.4515 H   0  0  0  0  0  0  0  0  0  0  0  0
  145.4459   71.7986  219.4515 H   0  0  0  0  0  0  0  0  0  0  0  0
  144.0865   75.2777  221.0072 H   0  0  0  0  0  0  0  0  0  0  0  0
  143.9187   74.4003  219.3584 H   0  0  0  0  0  0  0  0  0  0  0  0
  142.2070   73.0390  220.6710 H   0  0  0  0  0  0  0  0  0  0  0  0
  139.3378   75.3652  221.2932 H   0  0  0  0  0  0  0  0  0  0  0  0
  139.6399   73.9458  220.2149 H   0  0  0  0  0  0  0  0  0  0  0  0
  139.4320   73.9390  223.1300 H   0  0  0  0  0  0  0  0  0  0  0  0
  139.2241   69.8820  222.4108 H   0  0  0  0  0  0  0  0  0  0  0  0
  138.9295   68.4856  224.4408 H   0  0  0  0  0  0  0  0  0  0  0  0
  139.2342   68.1611  226.7363 H   0  0  0  0  0  0  0  0  0  0  0  0
  141.2380   71.1599  229.0627 H   0  0  0  0  0  0  0  0  0  0  0  0
  141.5676   72.6062  227.0721 H   0  0  0  0  0  0  0  0  0  0  0  0
  1  2  1  0
  2  3  1  0
  2  4  1  0
  4  5  1  0
  5  6  1  0
  6  7  2  0
  6  8  1  0
  8  9  1  0
  9 10  1  0
 10 11  2  0
 10 12  1  0
 12 13  2  0
 13 14  1  0
 14 15  2  0
 15 16  1  0
 16 17  2  0
 17 18  1  0
 17 19  1  0
 19 20  2  0
 20 21  1  0
 21 22  2  0
 22 12  1  0
 21 15  1  0
  1 23  1  0
  1 24  1  0
  1 25  1  0
  2 26  1  0
  3 27  1  0
  3 28  1  0
  3 29  1  0
  4 30  1  0
  4 31  1  0
  5 32  1  0
  8 33  1  0
  8 34  1  0
  9 35  1  0
 13 36  1  0
 14 37  1  0
 16 38  1  0
 19 39  1  0
 20 40  1  0
M  END
>  <smiles>  (38) 
CC(C)CNC(=O)CNC(=O)c1ccc2cc(F)ccc2n1

>  <score_type>  (38) 
oracle

>  <origin>  (38) 
autodockgpu

>  <m_score__min__energy>  (38) 
-7.4800000000000004

>  <m_primary>  (38) 
energy

>  <rmsd>  (38) 
3.5309593930654852

>  <m_score__min__rmsd>  (38) 
3.5309593930654852

>  <meeko>  (38) 
{"free_energy": -6.74, "intermolecular_energy": -8.23, "internal_energy": -1.62, "cluster_size": 33, "cluster_id": 2, "rank_in_cluster": 16}

>  <energy>  (38) 
-6.47

>  <cluster_rmsd>  (38) 
0.83

>  <cluster>  (38) 
2

$$$$

     RDKit          3D

 40 41  0  0  0  0  0  0  0  0999 V2000
  146.0260   73.6420  220.8560 C   0  0  0  0  0  0  0  0  0  0  0  0
  144.6200   73.2000  220.8410 C   0  0  0  0  0  0  0  0  0  0  0  0
  144.4730   71.9240  220.0010 C   0  0  0  0  0  0  0  0  0  0  0  0
  143.6170   74.1870  220.4300 C   0  0  0  0  0  0  0  0  0  0  0  0
  142.2670   73.9960  220.7920 N   0  0  0  0  0  0  0  0  0  0  0  0
  141.1650   74.8590  220.7570 C   0  0  0  0  0  0  0  0  0  0  0  0
  141.2510   76.0700  220.3520 O   0  0  0  0  0  0  0  0  0  0  0  0
  139.7760   74.4850  221.1770 C   0  0  0  0  0  0  0  0  0  0  0  0
  139.7990   73.5980  222.2870 N   0  0  0  0  0  0  0  0  0  0  0  0
  140.1270   72.1960  222.1890 C   0  0  0  0  0  0  0  0  0  0  0  0
  140.4310   71.6600  221.0910 O   0  0  0  0  0  0  0  0  0  0  0  0
  140.1040   71.3840  223.4170 C   0  0  0  0  0  0  0  0  0  0  0  0
  139.5880   70.1130  223.3790 C   0  0  0  0  0  0  0  0  0  0  0  0
  139.5510   69.3270  224.5100 C   0  0  0  0  0  0  0  0  0  0  0  0
  140.0450   69.8440  225.6890 C   0  0  0  0  0  0  0  0  0  0  0  0
  139.9980   69.0460  226.8000 C   0  0  0  0  0  0  0  0  0  0  0  0
  140.4930   69.5610  227.9830 C   0  0  0  0  0  0  0  0  0  0  0  0
  140.4350   68.7500  229.0690 F   0  0  0  0  0  0  0  0  0  0  0  0
  141.0110   70.8390  228.0180 C   0  0  0  0  0  0  0  0  0  0  0  0
  141.0700   71.6640  226.9120 C   0  0  0  0  0  0  0  0  0  0  0  0
  140.5690   71.1410  225.7170 C   0  0  0  0  0  0  0  0  0  0  0  0
  140.5790   71.8620  224.5810 N   0  0  0  0  0  0  0  0  0  0  0  0
  146.3657   73.7488  221.8968 H   0  0  0  0  0  0  0  0  0  0  0  0
  146.6502   72.8967  220.3412 H   0  0  0  0  0  0  0  0  0  0  0  0
  146.1115   74.6103  220.3412 H   0  0  0  0  0  0  0  0  0  0  0  0
  144.3943   73.0161  221.9018 H   0  0  0  0  0  0  0  0  0  0  0  0
  144.3729   71.0553  220.6683 H   0  0  0  0  0  0  0  0  0  0  0  0
  143.5781   72.0039  219.3663 H   0  0  0  0  0  0  0  0  0  0  0  0
  145.3626   71.7983  219.3663 H   0  0  0  0  0  0  0  0  0  0  0  0
  143.9279   75.1542  220.8519 H   0  0  0  0  0  0  0  0  0  0  0  0
  143.6053   74.1029  219.3333 H   0  0  0  0  0  0  0  0  0  0  0  0
  142.0230   72.9950  221.1370 H   0  0  0  0  0  0  0  0  0  0  0  0
  139.2275   75.3965  221.4567 H   0  0  0  0  0  0  0  0  0  0  0  0
  139.2806   73.9789  220.3353 H   0  0  0  0  0  0  0  0  0  0  0  0
  139.5640   73.9550  223.2620 H   0  0  0  0  0  0  0  0  0  0  0  0
  139.1977   69.7154  222.4305 H   0  0  0  0  0  0  0  0  0  0  0  0
  139.1362   68.3089  224.4732 H   0  0  0  0  0  0  0  0  0  0  0  0
  139.5805   68.0294  226.7529 H   0  0  0  0  0  0  0  0  0  0  0  0
  141.3965   71.2202  228.9751 H   0  0  0  0  0  0  0  0  0  0  0  0
  141.4893   72.6794  226.9688 H   0  0  0  0  0  0  0  0  0  0  0  0
  1  2  1  0
  2  3  1  0
  2  4  1  0
  4  5  1  0
  5  6  1  0
  6  7  2  0
  6  8  1  0
  8  9  1  0
  9 10  1  0
 10 11  2  0
 10 12  1  0
 12 13  2  0
 13 14  1  0
 14 15  2  0
 15 16  1  0
 16 17  2  0
 17 18  1  0
 17 19  1  0
 19 20  2  0
 20 21  1  0
 21 22  2  0
 22 12  1  0
 21 15  1  0
  1 23  1  0
  1 24  1  0
  1 25  1  0
  2 26  1  0
  3 27  1  0
  3 28  1  0
  3 29  1  0
  4 30  1  0
  4 31  1  0
  5 32  1  0
  8 33  1  0
  8 34  1  0
  9 35  1  0
 13 36  1  0
 14 37  1  0
 16 38  1  0
 19 39  1  0
 20 40  1  0
M  END
>  <smiles>  (39) 
CC(C)CNC(=O)CNC(=O)c1ccc2cc(F)ccc2n1

>  <score_type>  (39) 
oracle

>  <origin>  (39) 
autodockgpu

>  <m_score__min__energy>  (39) 
-7.4800000000000004

>  <m_primary>  (39) 
energy

>  <rmsd>  (39) 
3.439409957659328

>  <m_score__min__rmsd>  (39) 
3.439409957659328

>  <meeko>  (39) 
{"free_energy": -6.53, "intermolecular_energy": -8.03, "internal_energy": -1.67, "cluster_size": 33, "cluster_id": 2, "rank_in_cluster": 25}

>  <energy>  (39) 
-6.39

>  <cluster_rmsd>  (39) 
0.75

>  <cluster>  (39) 
2

$$$$

     RDKit          3D

 40 41  0  0  0  0  0  0  0  0999 V2000
  142.6660   80.4150  223.4750 C   0  0  0  0  0  0  0  0  0  0  0  0
  142.2550   79.2950  222.6090 C   0  0  0  0  0  0  0  0  0  0  0  0
  141.7440   79.8240  221.2620 C   0  0  0  0  0  0  0  0  0  0  0  0
  141.2930   78.3410  223.1690 C   0  0  0  0  0  0  0  0  0  0  0  0
  141.0280   77.1380  222.4810 N   0  0  0  0  0  0  0  0  0  0  0  0
  139.8330   76.4520  222.2340 C   0  0  0  0  0  0  0  0  0  0  0  0
  138.6990   76.8740  222.6530 O   0  0  0  0  0  0  0  0  0  0  0  0
  139.7280   75.1720  221.4650 C   0  0  0  0  0  0  0  0  0  0  0  0
  139.6030   74.0580  222.3400 N   0  0  0  0  0  0  0  0  0  0  0  0
  140.4970   72.9250  222.3300 C   0  0  0  0  0  0  0  0  0  0  0  0
  141.4710   72.8530  221.5350 O   0  0  0  0  0  0  0  0  0  0  0  0
  140.2500   71.8310  223.2830 C   0  0  0  0  0  0  0  0  0  0  0  0
  139.5590   70.7180  222.8740 C   0  0  0  0  0  0  0  0  0  0  0  0
  139.3100   69.6770  223.7420 C   0  0  0  0  0  0  0  0  0  0  0  0
  139.7720   69.7730  225.0370 C   0  0  0  0  0  0  0  0  0  0  0  0
  139.5140   68.7270  225.8820 C   0  0  0  0  0  0  0  0  0  0  0  0
  139.9760   68.8200  227.1810 C   0  0  0  0  0  0  0  0  0  0  0  0
  139.7080   67.7710  227.9970 F   0  0  0  0  0  0  0  0  0  0  0  0
  140.6700   69.9390  227.5890 C   0  0  0  0  0  0  0  0  0  0  0  0
  140.9440   71.0080  226.7580 C   0  0  0  0  0  0  0  0  0  0  0  0
  140.4760   70.9110  225.4450 C   0  0  0  0  0  0  0  0  0  0  0  0
  140.6880   71.8970  224.5540 N   0  0  0  0  0  0  0  0  0  0  0  0
  142.5583   80.1216  224.5297 H   0  0  0  0  0  0  0  0  0  0  0  0
  143.7163   80.6701  223.2708 H   0  0  0  0  0  0  0  0  0  0  0  0
  142.0300   81.2889  223.2708 H   0  0  0  0  0  0  0  0  0  0  0  0
  143.1766   78.7064  222.4900 H   0  0  0  0  0  0  0  0  0  0  0  0
  140.9895   80.6051  221.4372 H   0  0  0  0  0  0  0  0  0  0  0  0
  142.5841   80.2470  220.6917 H   0  0  0  0  0  0  0  0  0  0  0  0
  141.2921   78.9990  220.6917 H   0  0  0  0  0  0  0  0  0  0  0  0
  141.6612   78.0641  224.1679 H   0  0  0  0  0  0  0  0  0  0  0  0
  140.3360   78.8815  223.1232 H   0  0  0  0  0  0  0  0  0  0  0  0
  141.8990   76.6650  222.0360 H   0  0  0  0  0  0  0  0  0  0  0  0
  138.8441   75.2168  220.8118 H   0  0  0  0  0  0  0  0  0  0  0  0
  140.6436   75.0467  220.8684 H   0  0  0  0  0  0  0  0  0  0  0  0
  138.8160   74.0260  223.0550 H   0  0  0  0  0  0  0  0  0  0  0  0
  139.1982   70.6559  221.8367 H   0  0  0  0  0  0  0  0  0  0  0  0
  138.7543   68.7883  223.4084 H   0  0  0  0  0  0  0  0  0  0  0  0
  138.9577   67.8424  225.5384 H   0  0  0  0  0  0  0  0  0  0  0  0
  141.0237   69.9830  228.6296 H   0  0  0  0  0  0  0  0  0  0  0  0
  141.5008   71.8885  227.1111 H   0  0  0  0  0  0  0  0  0  0  0  0
  1  2  1  0
  2  3  1  0
  2  4  1  0
  4  5  1  0
  5  6  1  0
  6  7  2  0
  6  8  1  0
  8  9  1  0
  9 10  1  0
 10 11  2  0
 10 12  1  0
 12 13  2  0
 13 14  1  0
 14 15  2  0
 15 16  1  0
 16 17  2  0
 17 18  1  0
 17 19  1  0
 19 20  2  0
 20 21  1  0
 21 22  2  0
 22 12  1  0
 21 15  1  0
  1 23  1  0
  1 24  1  0
  1 25  1  0
  2 26  1  0
  3 27  1  0
  3 28  1  0
  3 29  1  0
  4 30  1  0
  4 31  1  0
  5 32  1  0
  8 33  1  0
  8 34  1  0
  9 35  1  0
 13 36  1  0
 14 37  1  0
 16 38  1  0
 19 39  1  0
 20 40  1  0
M  END
>  <smiles>  (40) 
CC(C)CNC(=O)CNC(=O)c1ccc2cc(F)ccc2n1

>  <score_type>  (40) 
oracle

>  <origin>  (40) 
autodockgpu

>  <m_score__min__energy>  (40) 
-7.4800000000000004

>  <m_primary>  (40) 
energy

>  <rmsd>  (40) 
3.7114304271922776

>  <m_score__min__rmsd>  (40) 
3.7114304271922776

>  <meeko>  (40) 
{"free_energy": -7.48, "intermolecular_energy": -8.97, "internal_energy": -0.77, "cluster_size": 9, "cluster_id": 1, "rank_in_cluster": 1}

>  <energy>  (40) 
-6.36

>  <cluster_rmsd>  (40) 
0.88

>  <cluster>  (40) 
2

$$$$

     RDKit          3D

 40 41  0  0  0  0  0  0  0  0999 V2000
  145.9540   73.7830  221.2300 C   0  0  0  0  0  0  0  0  0  0  0  0
  144.7670   73.4440  220.4260 C   0  0  0  0  0  0  0  0  0  0  0  0
  145.1900   72.9310  219.0420 C   0  0  0  0  0  0  0  0  0  0  0  0
  143.7430   74.4830  220.2820 C   0  0  0  0  0  0  0  0  0  0  0  0
  142.3860   74.1540  220.4890 N   0  0  0  0  0  0  0  0  0  0  0  0
  141.3110   74.9090  220.9720 C   0  0  0  0  0  0  0  0  0  0  0  0
  141.4340   76.1310  221.3330 O   0  0  0  0  0  0  0  0  0  0  0  0
  139.9110   74.3980  221.1210 C   0  0  0  0  0  0  0  0  0  0  0  0
  139.8000   73.5300  222.2410 N   0  0  0  0  0  0  0  0  0  0  0  0
  140.4310   72.2350  222.3190 C   0  0  0  0  0  0  0  0  0  0  0  0
  141.1440   71.7850  221.3840 O   0  0  0  0  0  0  0  0  0  0  0  0
  140.2270   71.4290  223.5340 C   0  0  0  0  0  0  0  0  0  0  0  0
  139.5710   70.2270  223.4480 C   0  0  0  0  0  0  0  0  0  0  0  0
  139.3630   69.4490  224.5670 C   0  0  0  0  0  0  0  0  0  0  0  0
  139.8310   69.9030  225.7820 C   0  0  0  0  0  0  0  0  0  0  0  0
  139.6130   69.1140  226.8790 C   0  0  0  0  0  0  0  0  0  0  0  0
  140.0800   69.5660  228.0990 C   0  0  0  0  0  0  0  0  0  0  0  0
  139.8530   68.7660  229.1700 F   0  0  0  0  0  0  0  0  0  0  0  0
  140.7400   70.7740  228.1820 C   0  0  0  0  0  0  0  0  0  0  0  0
  140.9720   71.5890  227.0910 C   0  0  0  0  0  0  0  0  0  0  0  0
  140.4990   71.1300  225.8590 C   0  0  0  0  0  0  0  0  0  0  0  0
  140.6720   71.8460  224.7340 N   0  0  0  0  0  0  0  0  0  0  0  0
  145.7052   73.7119  222.2991 H   0  0  0  0  0  0  0  0  0  0  0  0
  146.7682   73.0815  220.9956 H   0  0  0  0  0  0  0  0  0  0  0  0
  146.2749   74.8087  220.9956 H   0  0  0  0  0  0  0  0  0  0  0  0
  144.2703   72.6590  221.0151 H   0  0  0  0  0  0  0  0  0  0  0  0
  145.8857   72.0873  219.1606 H   0  0  0  0  0  0  0  0  0  0  0  0
  144.3007   72.5977  218.4869 H   0  0  0  0  0  0  0  0  0  0  0  0
  145.6866   73.7405  218.4869 H   0  0  0  0  0  0  0  0  0  0  0  0
  143.9922   75.2795  220.9986 H   0  0  0  0  0  0  0  0  0  0  0  0
  143.7862   74.7425  219.2139 H   0  0  0  0  0  0  0  0  0  0  0  0
  142.1120   73.1430  220.2010 H   0  0  0  0  0  0  0  0  0  0  0  0
  139.2299   75.2508  221.2584 H   0  0  0  0  0  0  0  0  0  0  0  0
  139.6463   73.8343  220.2143 H   0  0  0  0  0  0  0  0  0  0  0  0
  139.2240   73.8210  223.0880 H   0  0  0  0  0  0  0  0  0  0  0  0
  139.2053   69.8786  222.4708 H   0  0  0  0  0  0  0  0  0  0  0  0
  138.8351   68.4868  224.4922 H   0  0  0  0  0  0  0  0  0  0  0  0
  139.0844   68.1532  226.7927 H   0  0  0  0  0  0  0  0  0  0  0  0
  141.1001   71.1055  229.1671 H   0  0  0  0  0  0  0  0  0  0  0  0
  141.5011   72.5486  227.1871 H   0  0  0  0  0  0  0  0  0  0  0  0
  1  2  1  0
  2  3  1  0
  2  4  1  0
  4  5  1  0
  5  6  1  0
  6  7  2  0
  6  8  1  0
  8  9  1  0
  9 10  1  0
 10 11  2  0
 10 12  1  0
 12 13  2  0
 13 14  1  0
 14 15  2  0
 15 16  1  0
 16 17  2  0
 17 18  1  0
 17 19  1  0
 19 20  2  0
 20 21  1  0
 21 22  2  0
 22 12  1  0
 21 15  1  0
  1 23  1  0
  1 24  1  0
  1 25  1  0
  2 26  1  0
  3 27  1  0
  3 28  1  0
  3 29  1  0
  4 30  1  0
  4 31  1  0
  5 32  1  0
  8 33  1  0
  8 34  1  0
  9 35  1  0
 13 36  1  0
 14 37  1  0
 16 38  1  0
 19 39  1  0
 20 40  1  0
M  END
>  <smiles>  (41) 
CC(C)CNC(=O)CNC(=O)c1ccc2cc(F)ccc2n1

>  <score_type>  (41) 
oracle

>  <origin>  (41) 
autodockgpu

>  <m_score__min__energy>  (41) 
-7.4800000000000004

>  <m_primary>  (41) 
energy

>  <rmsd>  (41) 
3.4070879123055913

>  <m_score__min__rmsd>  (41) 
3.4070879123055913

>  <meeko>  (41) 
{"free_energy": -6.77, "intermolecular_energy": -8.26, "internal_energy": -1.53, "cluster_size": 33, "cluster_id": 2, "rank_in_cluster": 5}

>  <energy>  (41) 
-6.28

>  <cluster_rmsd>  (41) 
1.03

>  <cluster>  (41) 
2

$$$$

     RDKit          3D

 40 41  0  0  0  0  0  0  0  0999 V2000
  143.8930   71.7620  220.7740 C   0  0  0  0  0  0  0  0  0  0  0  0
  144.4620   73.0650  220.3840 C   0  0  0  0  0  0  0  0  0  0  0  0
  145.7220   73.3630  221.2070 C   0  0  0  0  0  0  0  0  0  0  0  0
  143.5590   74.2190  220.4160 C   0  0  0  0  0  0  0  0  0  0  0  0
  142.2140   74.0390  220.8010 N   0  0  0  0  0  0  0  0  0  0  0  0
  141.1120   74.9020  220.7600 C   0  0  0  0  0  0  0  0  0  0  0  0
  141.1940   76.1030  220.3230 O   0  0  0  0  0  0  0  0  0  0  0  0
  139.7290   74.5400  221.2060 C   0  0  0  0  0  0  0  0  0  0  0  0
  139.7670   73.6340  222.3010 N   0  0  0  0  0  0  0  0  0  0  0  0
  140.0450   72.2240  222.1690 C   0  0  0  0  0  0  0  0  0  0  0  0
  140.2880   71.6970  221.0510 O   0  0  0  0  0  0  0  0  0  0  0  0
  140.0440   71.3930  223.3840 C   0  0  0  0  0  0  0  0  0  0  0  0
  139.5810   70.1020  223.3210 C   0  0  0  0  0  0  0  0  0  0  0  0
  139.5660   69.2980  224.4410 C   0  0  0  0  0  0  0  0  0  0  0  0
  140.0270   69.8170  225.6310 C   0  0  0  0  0  0  0  0  0  0  0  0
  140.0020   69.0000  226.7300 C   0  0  0  0  0  0  0  0  0  0  0  0
  140.4640   69.5170  227.9260 C   0  0  0  0  0  0  0  0  0  0  0  0
  140.4290   68.6880  228.9980 F   0  0  0  0  0  0  0  0  0  0  0  0
  140.9280   70.8140  227.9850 C   0  0  0  0  0  0  0  0  0  0  0  0
  140.9630   71.6580  226.8930 C   0  0  0  0  0  0  0  0  0  0  0  0
  140.4960   71.1340  225.6850 C   0  0  0  0  0  0  0  0  0  0  0  0
  140.4870   71.8720  224.5600 N   0  0  0  0  0  0  0  0  0  0  0  0
  143.8613   71.6894  221.8711 H   0  0  0  0  0  0  0  0  0  0  0  0
  142.8735   71.6717  220.3709 H   0  0  0  0  0  0  0  0  0  0  0  0
  144.5197   70.9528  220.3709 H   0  0  0  0  0  0  0  0  0  0  0  0
  144.6965   72.9381  219.3168 H   0  0  0  0  0  0  0  0  0  0  0  0
  145.4817   73.3062  222.2789 H   0  0  0  0  0  0  0  0  0  0  0  0
  146.5006   72.6242  220.9661 H   0  0  0  0  0  0  0  0  0  0  0  0
  146.0871   74.3723  220.9661 H   0  0  0  0  0  0  0  0  0  0  0  0
  143.9965   74.9481  221.1138 H   0  0  0  0  0  0  0  0  0  0  0  0
  143.4871   74.5196  219.3603 H   0  0  0  0  0  0  0  0  0  0  0  0
  141.9740   73.0470  221.1730 H   0  0  0  0  0  0  0  0  0  0  0  0
  139.1996   75.4539  221.5136 H   0  0  0  0  0  0  0  0  0  0  0  0
  139.2065   74.0551  220.3682 H   0  0  0  0  0  0  0  0  0  0  0  0
  139.5820   73.9820  223.2900 H   0  0  0  0  0  0  0  0  0  0  0  0
  139.2166   69.7032  222.3628 H   0  0  0  0  0  0  0  0  0  0  0  0
  139.1939   68.2643  224.3856 H   0  0  0  0  0  0  0  0  0  0  0  0
  139.6272   67.9680  226.6633 H   0  0  0  0  0  0  0  0  0  0  0  0
  141.2887   71.1958  228.9515 H   0  0  0  0  0  0  0  0  0  0  0  0
  141.3388   72.6889  226.9700 H   0  0  0  0  0  0  0  0  0  0  0  0
  1  2  1  0
  2  3  1  0
  2  4  1  0
  4  5  1  0
  5  6  1  0
  6  7  2  0
  6  8  1  0
  8  9  1  0
  9 10  1  0
 10 11  2  0
 10 12  1  0
 12 13  2  0
 13 14  1  0
 14 15  2  0
 15 16  1  0
 16 17  2  0
 17 18  1  0
 17 19  1  0
 19 20  2  0
 20 21  1  0
 21 22  2  0
 22 12  1  0
 21 15  1  0
  1 23  1  0
  1 24  1  0
  1 25  1  0
  2 26  1  0
  3 27  1  0
  3 28  1  0
  3 29  1  0
  4 30  1  0
  4 31  1  0
  5 32  1  0
  8 33  1  0
  8 34  1  0
  9 35  1  0
 13 36  1  0
 14 37  1  0
 16 38  1  0
 19 39  1  0
 20 40  1  0
M  END
>  <smiles>  (42) 
CC(C)CNC(=O)CNC(=O)c1ccc2cc(F)ccc2n1

>  <score_type>  (42) 
oracle

>  <origin>  (42) 
autodockgpu

>  <m_score__min__energy>  (42) 
-7.4800000000000004

>  <m_primary>  (42) 
energy

>  <rmsd>  (42) 
3.316662087003427

>  <m_score__min__rmsd>  (42) 
3.316662087003427

>  <meeko>  (42) 
{"free_energy": -6.36, "intermolecular_energy": -7.85, "internal_energy": -1.75, "cluster_size": 33, "cluster_id": 2, "rank_in_cluster": 31}

>  <energy>  (42) 
-6.18

>  <cluster_rmsd>  (42) 
0.93

>  <cluster>  (42) 
2

$$$$

     RDKit          3D

 40 41  0  0  0  0  0  0  0  0999 V2000
  144.0610   71.8590  220.5960 C   0  0  0  0  0  0  0  0  0  0  0  0
  144.6120   73.2000  220.3350 C   0  0  0  0  0  0  0  0  0  0  0  0
  145.8620   73.4380  221.1940 C   0  0  0  0  0  0  0  0  0  0  0  0
  143.6930   74.3340  220.4660 C   0  0  0  0  0  0  0  0  0  0  0  0
  142.3370   74.0970  220.7800 N   0  0  0  0  0  0  0  0  0  0  0  0
  141.2360   74.9580  220.8530 C   0  0  0  0  0  0  0  0  0  0  0  0
  141.3280   76.2140  220.6250 O   0  0  0  0  0  0  0  0  0  0  0  0
  139.8420   74.5300  221.1960 C   0  0  0  0  0  0  0  0  0  0  0  0
  139.8380   73.6380  222.3030 N   0  0  0  0  0  0  0  0  0  0  0  0
  140.1930   72.2420  222.2110 C   0  0  0  0  0  0  0  0  0  0  0  0
  140.5470   71.7170  221.1220 O   0  0  0  0  0  0  0  0  0  0  0  0
  140.1380   71.4240  223.4330 C   0  0  0  0  0  0  0  0  0  0  0  0
  139.6060   70.1600  223.3790 C   0  0  0  0  0  0  0  0  0  0  0  0
  139.5390   69.3680  224.5050 C   0  0  0  0  0  0  0  0  0  0  0  0
  140.0200   69.8720  225.6940 C   0  0  0  0  0  0  0  0  0  0  0  0
  139.9430   69.0680  226.8000 C   0  0  0  0  0  0  0  0  0  0  0  0
  140.4250   69.5700  227.9950 C   0  0  0  0  0  0  0  0  0  0  0  0
  140.3380   68.7540  229.0740 F   0  0  0  0  0  0  0  0  0  0  0  0
  140.9590   70.8400  228.0460 C   0  0  0  0  0  0  0  0  0  0  0  0
  141.0480   71.6710  226.9460 C   0  0  0  0  0  0  0  0  0  0  0  0
  140.5610   71.1610  225.7400 C   0  0  0  0  0  0  0  0  0  0  0  0
  140.6000   71.8890  224.6080 N   0  0  0  0  0  0  0  0  0  0  0  0
  143.9937   71.6952  221.6816 H   0  0  0  0  0  0  0  0  0  0  0  0
  143.0582   71.7816  220.1506 H   0  0  0  0  0  0  0  0  0  0  0  0
  144.7197   71.0989  220.1506 H   0  0  0  0  0  0  0  0  0  0  0  0
  144.8547   73.1760  219.2624 H   0  0  0  0  0  0  0  0  0  0  0  0
  145.5905   73.3863  222.2587 H   0  0  0  0  0  0  0  0  0  0  0  0
  146.6135   72.6668  220.9694 H   0  0  0  0  0  0  0  0  0  0  0  0
  146.2776   74.4314  220.9694 H   0  0  0  0  0  0  0  0  0  0  0  0
  144.0961   74.9828  221.2576 H   0  0  0  0  0  0  0  0  0  0  0  0
  143.6535   74.7534  219.4498 H   0  0  0  0  0  0  0  0  0  0  0  0
  142.0890   73.0570  220.9740 H   0  0  0  0  0  0  0  0  0  0  0  0
  139.2453   75.4188  221.4487 H   0  0  0  0  0  0  0  0  0  0  0  0
  139.4125   74.0101  220.3270 H   0  0  0  0  0  0  0  0  0  0  0  0
  139.5620   73.9870  223.2700 H   0  0  0  0  0  0  0  0  0  0  0  0
  139.2270   69.7728  222.4217 H   0  0  0  0  0  0  0  0  0  0  0  0
  139.1110   68.3559  224.4557 H   0  0  0  0  0  0  0  0  0  0  0  0
  139.5125   68.0575  226.7399 H   0  0  0  0  0  0  0  0  0  0  0  0
  141.3333   71.2105  229.0118 H   0  0  0  0  0  0  0  0  0  0  0  0
  141.4794   72.6805  227.0160 H   0  0  0  0  0  0  0  0  0  0  0  0
  1  2  1  0
  2  3  1  0
  2  4  1  0
  4  5  1  0
  5  6  1  0
  6  7  2  0
  6  8  1  0
  8  9  1  0
  9 10  1  0
 10 11  2  0
 10 12  1  0
 12 13  2  0
 13 14  1  0
 14 15  2  0
 15 16  1  0
 16 17  2  0
 17 18  1  0
 17 19  1  0
 19 20  2  0
 20 21  1  0
 21 22  2  0
 22 12  1  0
 21 15  1  0
  1 23  1  0
  1 24  1  0
  1 25  1  0
  2 26  1  0
  3 27  1  0
  3 28  1  0
  3 29  1  0
  4 30  1  0
  4 31  1  0
  5 32  1  0
  8 33  1  0
  8 34  1  0
  9 35  1  0
 13 36  1  0
 14 37  1  0
 16 38  1  0
 19 39  1  0
 20 40  1  0
M  END
>  <smiles>  (43) 
CC(C)CNC(=O)CNC(=O)c1ccc2cc(F)ccc2n1

>  <score_type>  (43) 
oracle

>  <origin>  (43) 
autodockgpu

>  <m_score__min__energy>  (43) 
-7.4800000000000004

>  <m_primary>  (43) 
energy

>  <rmsd>  (43) 
3.347516728257521

>  <m_score__min__rmsd>  (43) 
3.347516728257521

>  <meeko>  (43) 
{"free_energy": -6.55, "intermolecular_energy": -8.05, "internal_energy": -1.7, "cluster_size": 33, "cluster_id": 2, "rank_in_cluster": 24}

>  <energy>  (43) 
-6.29

>  <cluster_rmsd>  (43) 
0.0

>  <cluster>  (43) 
3

$$$$

     RDKit          3D

 40 41  0  0  0  0  0  0  0  0999 V2000
  142.3160   79.9730  222.7280 C   0  0  0  0  0  0  0  0  0  0  0  0
  141.8640   78.7770  221.9960 C   0  0  0  0  0  0  0  0  0  0  0  0
  141.1460   79.1840  220.7020 C   0  0  0  0  0  0  0  0  0  0  0  0
  141.0470   77.8120  222.7380 C   0  0  0  0  0  0  0  0  0  0  0  0
  140.9040   76.4980  222.2450 N   0  0  0  0  0  0  0  0  0  0  0  0
  139.7690   75.7380  221.9410 C   0  0  0  0  0  0  0  0  0  0  0  0
  138.5790   76.1860  222.0940 O   0  0  0  0  0  0  0  0  0  0  0  0
  139.7980   74.3380  221.4080 C   0  0  0  0  0  0  0  0  0  0  0  0
  139.8290   73.3890  222.4660 N   0  0  0  0  0  0  0  0  0  0  0  0
  139.7480   71.9620  222.2670 C   0  0  0  0  0  0  0  0  0  0  0  0
  139.6530   71.4550  221.1180 O   0  0  0  0  0  0  0  0  0  0  0  0
  139.7810   71.0870  223.4510 C   0  0  0  0  0  0  0  0  0  0  0  0
  139.3250   69.7970  223.3530 C   0  0  0  0  0  0  0  0  0  0  0  0
  139.3410   68.9520  224.4420 C   0  0  0  0  0  0  0  0  0  0  0  0
  139.8290   69.4310  225.6390 C   0  0  0  0  0  0  0  0  0  0  0  0
  139.8350   68.5750  226.7080 C   0  0  0  0  0  0  0  0  0  0  0  0
  140.3230   69.0500  227.9100 C   0  0  0  0  0  0  0  0  0  0  0  0
  140.3190   68.1830  228.9520 F   0  0  0  0  0  0  0  0  0  0  0  0
  140.7810   70.3480  228.0060 C   0  0  0  0  0  0  0  0  0  0  0  0
  140.7850   71.2310  226.9440 C   0  0  0  0  0  0  0  0  0  0  0  0
  140.2910   70.7480  225.7290 C   0  0  0  0  0  0  0  0  0  0  0  0
  140.2510   71.5260  224.6330 N   0  0  0  0  0  0  0  0  0  0  0  0
  142.2463   79.7887  223.8102 H   0  0  0  0  0  0  0  0  0  0  0  0
  143.3597   80.1942  222.4602 H   0  0  0  0  0  0  0  0  0  0  0  0
  141.6794   80.8292  222.4602 H   0  0  0  0  0  0  0  0  0  0  0  0
  142.7972   78.2330  221.7883 H   0  0  0  0  0  0  0  0  0  0  0  0
  140.2138   79.7124  220.9505 H   0  0  0  0  0  0  0  0  0  0  0  0
  141.7977   79.8470  220.1140 H   0  0  0  0  0  0  0  0  0  0  0  0
  140.9119   78.2843  220.1140 H   0  0  0  0  0  0  0  0  0  0  0  0
  141.4835   77.7303  223.7444 H   0  0  0  0  0  0  0  0  0  0  0  0
  140.0304   78.2262  222.6674 H   0  0  0  0  0  0  0  0  0  0  0  0
  141.8390   75.9850  222.0360 H   0  0  0  0  0  0  0  0  0  0  0  0
  138.8988   74.1669  220.7980 H   0  0  0  0  0  0  0  0  0  0  0  0
  140.7064   74.2139  220.8002 H   0  0  0  0  0  0  0  0  0  0  0  0
  139.9150   73.7160  223.4750 H   0  0  0  0  0  0  0  0  0  0  0  0
  138.9403   69.4309  222.3897 H   0  0  0  0  0  0  0  0  0  0  0  0
  138.9727   67.9189  224.3578 H   0  0  0  0  0  0  0  0  0  0  0  0
  139.4638   67.5439  226.6128 H   0  0  0  0  0  0  0  0  0  0  0  0
  141.1621   70.6970  228.9771 H   0  0  0  0  0  0  0  0  0  0  0  0
  141.1575   72.2607  227.0489 H   0  0  0  0  0  0  0  0  0  0  0  0
  1  2  1  0
  2  3  1  0
  2  4  1  0
  4  5  1  0
  5  6  1  0
  6  7  2  0
  6  8  1  0
  8  9  1  0
  9 10  1  0
 10 11  2  0
 10 12  1  0
 12 13  2  0
 13 14  1  0
 14 15  2  0
 15 16  1  0
 16 17  2  0
 17 18  1  0
 17 19  1  0
 19 20  2  0
 20 21  1  0
 21 22  2  0
 22 12  1  0
 21 15  1  0
  1 23  1  0
  1 24  1  0
  1 25  1  0
  2 26  1  0
  3 27  1  0
  3 28  1  0
  3 29  1  0
  4 30  1  0
  4 31  1  0
  5 32  1  0
  8 33  1  0
  8 34  1  0
  9 35  1  0
 13 36  1  0
 14 37  1  0
 16 38  1  0
 19 39  1  0
 20 40  1  0
M  END
>  <smiles>  (44) 
CC(C)CNC(=O)CNC(=O)c1ccc2cc(F)ccc2n1

>  <score_type>  (44) 
oracle

>  <origin>  (44) 
autodockgpu

>  <m_score__min__energy>  (44) 
-7.4800000000000004

>  <m_primary>  (44) 
energy

>  <rmsd>  (44) 
3.129228930574068

>  <m_score__min__rmsd>  (44) 
3.129228930574068

>  <meeko>  (44) 
{"free_energy": -6.88, "intermolecular_energy": -8.37, "internal_energy": -0.97, "cluster_size": 9, "cluster_id": 1, "rank_in_cluster": 6}

>  <energy>  (44) 
-6.28

>  <cluster_rmsd>  (44) 
0.15

>  <cluster>  (44) 
3

$$$$

     RDKit          3D

 40 41  0  0  0  0  0  0  0  0999 V2000
  146.2560   73.7320  221.1660 C   0  0  0  0  0  0  0  0  0  0  0  0
  144.9240   73.2400  220.7710 C   0  0  0  0  0  0  0  0  0  0  0  0
  145.0550   72.1560  219.6930 C   0  0  0  0  0  0  0  0  0  0  0  0
  143.9420   74.2440  220.3540 C   0  0  0  0  0  0  0  0  0  0  0  0
  142.5690   74.0130  220.5870 N   0  0  0  0  0  0  0  0  0  0  0  0
  141.5100   74.8910  220.8460 C   0  0  0  0  0  0  0  0  0  0  0  0
  141.6690   76.1590  220.9180 O   0  0  0  0  0  0  0  0  0  0  0  0
  140.0890   74.4700  221.0640 C   0  0  0  0  0  0  0  0  0  0  0  0
  139.9780   73.6060  222.1870 N   0  0  0  0  0  0  0  0  0  0  0  0
  140.4260   72.2340  222.1930 C   0  0  0  0  0  0  0  0  0  0  0  0
  140.9640   71.7060  221.1840 O   0  0  0  0  0  0  0  0  0  0  0  0
  140.2430   71.4430  223.4200 C   0  0  0  0  0  0  0  0  0  0  0  0
  139.6070   70.2280  223.3560 C   0  0  0  0  0  0  0  0  0  0  0  0
  139.4190   69.4630  224.4860 C   0  0  0  0  0  0  0  0  0  0  0  0
  139.8850   69.9430  225.6920 C   0  0  0  0  0  0  0  0  0  0  0  0
  139.6870   69.1660  226.8020 C   0  0  0  0  0  0  0  0  0  0  0  0
  140.1530   69.6440  228.0120 C   0  0  0  0  0  0  0  0  0  0  0  0
  139.9450   68.8550  229.0960 F   0  0  0  0  0  0  0  0  0  0  0  0
  140.7910   70.8640  228.0740 C   0  0  0  0  0  0  0  0  0  0  0  0
  141.0040   71.6670  226.9700 C   0  0  0  0  0  0  0  0  0  0  0  0
  140.5320   71.1820  225.7480 C   0  0  0  0  0  0  0  0  0  0  0  0
  140.6860   71.8850  224.6110 N   0  0  0  0  0  0  0  0  0  0  0  0
  146.3266   73.7581  222.2634 H   0  0  0  0  0  0  0  0  0  0  0  0
  147.0289   73.0600  220.7647 H   0  0  0  0  0  0  0  0  0  0  0  0
  146.4065   74.7451  220.7647 H   0  0  0  0  0  0  0  0  0  0  0  0
  144.5097   72.8337  221.7055 H   0  0  0  0  0  0  0  0  0  0  0  0
  145.1737   71.1736  220.1734 H   0  0  0  0  0  0  0  0  0  0  0  0
  144.1509   72.1509  219.0664 H   0  0  0  0  0  0  0  0  0  0  0  0
  145.9342   72.3664  219.0664 H   0  0  0  0  0  0  0  0  0  0  0  0
  144.2013   75.1793  220.8717 H   0  0  0  0  0  0  0  0  0  0  0  0
  144.0214   74.2425  219.2569 H   0  0  0  0  0  0  0  0  0  0  0  0
  142.2660   72.9710  220.5320 H   0  0  0  0  0  0  0  0  0  0  0  0
  139.4718   75.3641  221.2362 H   0  0  0  0  0  0  0  0  0  0  0  0
  139.7441   73.9283  220.1709 H   0  0  0  0  0  0  0  0  0  0  0  0
  139.5440   73.9580  223.0930 H   0  0  0  0  0  0  0  0  0  0  0  0
  139.2415   69.8593  222.3862 H   0  0  0  0  0  0  0  0  0  0  0  0
  138.9084   68.4905  224.4277 H   0  0  0  0  0  0  0  0  0  0  0  0
  139.1748   68.1950  226.7329 H   0  0  0  0  0  0  0  0  0  0  0  0
  141.1490   71.2165  229.0526 H   0  0  0  0  0  0  0  0  0  0  0  0
  141.5178   72.6364  227.0491 H   0  0  0  0  0  0  0  0  0  0  0  0
  1  2  1  0
  2  3  1  0
  2  4  1  0
  4  5  1  0
  5  6  1  0
  6  7  2  0
  6  8  1  0
  8  9  1  0
  9 10  1  0
 10 11  2  0
 10 12  1  0
 12 13  2  0
 13 14  1  0
 14 15  2  0
 15 16  1  0
 16 17  2  0
 17 18  1  0
 17 19  1  0
 19 20  2  0
 20 21  1  0
 21 22  2  0
 22 12  1  0
 21 15  1  0
  1 23  1  0
  1 24  1  0
  1 25  1  0
  2 26  1  0
  3 27  1  0
  3 28  1  0
  3 29  1  0
  4 30  1  0
  4 31  1  0
  5 32  1  0
  8 33  1  0
  8 34  1  0
  9 35  1  0
 13 36  1  0
 14 37  1  0
 16 38  1  0
 19 39  1  0
 20 40  1  0
M  END
>  <smiles>  (45) 
CC(C)CNC(=O)CNC(=O)c1ccc2cc(F)ccc2n1

>  <score_type>  (45) 
oracle

>  <origin>  (45) 
autodockgpu

>  <m_score__min__energy>  (45) 
-7.4800000000000004

>  <m_primary>  (45) 
energy

>  <rmsd>  (45) 
3.5772455921505317

>  <m_score__min__rmsd>  (45) 
3.5772455921505317

>  <meeko>  (45) 
{"free_energy": -6.77, "intermolecular_energy": -8.26, "internal_energy": -1.61, "cluster_size": 33, "cluster_id": 2, "rank_in_cluster": 7}

>  <energy>  (45) 
-6.27

>  <cluster_rmsd>  (45) 
0.1

>  <cluster>  (45) 
3

$$$$

     RDKit          3D

 40 41  0  0  0  0  0  0  0  0999 V2000
  146.0190   73.7840  220.2550 C   0  0  0  0  0  0  0  0  0  0  0  0
  144.6460   73.6440  220.7700 C   0  0  0  0  0  0  0  0  0  0  0  0
  144.2460   72.1640  220.8250 C   0  0  0  0  0  0  0  0  0  0  0  0
  143.6010   74.4190  220.0940 C   0  0  0  0  0  0  0  0  0  0  0  0
  142.2440   74.1480  220.3740 N   0  0  0  0  0  0  0  0  0  0  0  0
  141.2380   74.9370  220.9440 C   0  0  0  0  0  0  0  0  0  0  0  0
  141.4430   76.1400  221.3330 O   0  0  0  0  0  0  0  0  0  0  0  0
  139.8260   74.4890  221.1630 C   0  0  0  0  0  0  0  0  0  0  0  0
  139.7370   73.6010  222.2700 N   0  0  0  0  0  0  0  0  0  0  0  0
  140.3410   72.2910  222.3000 C   0  0  0  0  0  0  0  0  0  0  0  0
  141.0090   71.8450  221.3290 O   0  0  0  0  0  0  0  0  0  0  0  0
  140.1650   71.4660  223.5060 C   0  0  0  0  0  0  0  0  0  0  0  0
  139.5210   70.2580  223.4130 C   0  0  0  0  0  0  0  0  0  0  0  0
  139.3390   69.4620  224.5230 C   0  0  0  0  0  0  0  0  0  0  0  0
  139.8200   69.9040  225.7370 C   0  0  0  0  0  0  0  0  0  0  0  0
  139.6270   69.0970  226.8260 C   0  0  0  0  0  0  0  0  0  0  0  0
  140.1080   69.5370  228.0450 C   0  0  0  0  0  0  0  0  0  0  0  0
  139.9060   68.7190  229.1070 F   0  0  0  0  0  0  0  0  0  0  0  0
  140.7550   70.7510  228.1360 C   0  0  0  0  0  0  0  0  0  0  0  0
  140.9610   71.5840  227.0530 C   0  0  0  0  0  0  0  0  0  0  0  0
  140.4750   71.1370  225.8220 C   0  0  0  0  0  0  0  0  0  0  0  0
  140.6230   71.8710  224.7040 N   0  0  0  0  0  0  0  0  0  0  0  0
  146.7215   73.8556  221.0985 H   0  0  0  0  0  0  0  0  0  0  0  0
  146.2715   72.9069  219.6410 H   0  0  0  0  0  0  0  0  0  0  0  0
  146.0893   74.6940  219.6410 H   0  0  0  0  0  0  0  0  0  0  0  0
  144.6997   74.0867  221.7756 H   0  0  0  0  0  0  0  0  0  0  0  0
  144.1601   71.8462  221.8746 H   0  0  0  0  0  0  0  0  0  0  0  0
  143.2785   72.0266  220.3199 H   0  0  0  0  0  0  0  0  0  0  0  0
  145.0126   71.5580  220.3199 H   0  0  0  0  0  0  0  0  0  0  0  0
  143.7744   75.4761  220.3438 H   0  0  0  0  0  0  0  0  0  0  0  0
  143.7092   74.1324  219.0375 H   0  0  0  0  0  0  0  0  0  0  0  0
  141.9040   73.1620  220.0730 H   0  0  0  0  0  0  0  0  0  0  0  0
  139.1957   75.3694  221.3569 H   0  0  0  0  0  0  0  0  0  0  0  0
  139.4835   73.9595  220.2617 H   0  0  0  0  0  0  0  0  0  0  0  0
  139.2000   73.8870  223.1430 H   0  0  0  0  0  0  0  0  0  0  0  0
  139.1439   69.9195  222.4366 H   0  0  0  0  0  0  0  0  0  0  0  0
  138.8212   68.4949  224.4422 H   0  0  0  0  0  0  0  0  0  0  0  0
  139.1072   68.1319  226.7341 H   0  0  0  0  0  0  0  0  0  0  0  0
  141.1259   71.0727  229.1204 H   0  0  0  0  0  0  0  0  0  0  0  0
  141.4803   72.5483  227.1548 H   0  0  0  0  0  0  0  0  0  0  0  0
  1  2  1  0
  2  3  1  0
  2  4  1  0
  4  5  1  0
  5  6  1  0
  6  7  2  0
  6  8  1  0
  8  9  1  0
  9 10  1  0
 10 11  2  0
 10 12  1  0
 12 13  2  0
 13 14  1  0
 14 15  2  0
 15 16  1  0
 16 17  2  0
 17 18  1  0
 17 19  1  0
 19 20  2  0
 20 21  1  0
 21 22  2  0
 22 12  1  0
 21 15  1  0
  1 23  1  0
  1 24  1  0
  1 25  1  0
  2 26  1  0
  3 27  1  0
  3 28  1  0
  3 29  1  0
  4 30  1  0
  4 31  1  0
  5 32  1  0
  8 33  1  0
  8 34  1  0
  9 35  1  0
 13 36  1  0
 14 37  1  0
 16 38  1  0
 19 39  1  0
 20 40  1  0
M  END
>  <smiles>  (46) 
CC(C)CNC(=O)CNC(=O)c1ccc2cc(F)ccc2n1

>  <score_type>  (46) 
oracle

>  <origin>  (46) 
autodockgpu

>  <m_score__min__energy>  (46) 
-7.4800000000000004

>  <m_primary>  (46) 
energy

>  <rmsd>  (46) 
3.3768231019340775

>  <m_score__min__rmsd>  (46) 
3.3768231019340775

>  <meeko>  (46) 
{"free_energy": -6.58, "intermolecular_energy": -8.07, "internal_energy": -1.63, "cluster_size": 33, "cluster_id": 2, "rank_in_cluster": 22}

>  <energy>  (46) 
-6.27

>  <cluster_rmsd>  (46) 
0.1

>  <cluster>  (46) 
3

$$$$

     RDKit          3D

 40 41  0  0  0  0  0  0  0  0999 V2000
  146.0970   73.7430  221.2160 C   0  0  0  0  0  0  0  0  0  0  0  0
  144.8460   73.1870  220.6710 C   0  0  0  0  0  0  0  0  0  0  0  0
  145.1540   72.1380  219.5950 C   0  0  0  0  0  0  0  0  0  0  0  0
  143.8580   74.1460  220.1660 C   0  0  0  0  0  0  0  0  0  0  0  0
  142.4890   73.9430  220.4420 N   0  0  0  0  0  0  0  0  0  0  0  0
  141.4830   74.8270  220.8510 C   0  0  0  0  0  0  0  0  0  0  0  0
  141.7010   76.0720  221.0550 O   0  0  0  0  0  0  0  0  0  0  0  0
  140.0560   74.4400  221.0930 C   0  0  0  0  0  0  0  0  0  0  0  0
  139.9450   73.5730  222.2140 N   0  0  0  0  0  0  0  0  0  0  0  0
  140.4200   72.2100  222.2270 C   0  0  0  0  0  0  0  0  0  0  0  0
  140.9860   71.6940  221.2260 O   0  0  0  0  0  0  0  0  0  0  0  0
  140.2340   71.4150  223.4510 C   0  0  0  0  0  0  0  0  0  0  0  0
  139.5830   70.2080  223.3830 C   0  0  0  0  0  0  0  0  0  0  0  0
  139.3920   69.4390  224.5100 C   0  0  0  0  0  0  0  0  0  0  0  0
  139.8690   69.9070  225.7160 C   0  0  0  0  0  0  0  0  0  0  0  0
  139.6670   69.1260  226.8230 C   0  0  0  0  0  0  0  0  0  0  0  0
  140.1450   69.5920  228.0340 C   0  0  0  0  0  0  0  0  0  0  0  0
  139.9330   68.8000  229.1130 F   0  0  0  0  0  0  0  0  0  0  0  0
  140.7980   70.8040  228.0990 C   0  0  0  0  0  0  0  0  0  0  0  0
  141.0140   71.6100  226.9980 C   0  0  0  0  0  0  0  0  0  0  0  0
  140.5310   71.1370  225.7750 C   0  0  0  0  0  0  0  0  0  0  0  0
  140.6890   71.8450  224.6420 N   0  0  0  0  0  0  0  0  0  0  0  0
  146.0578   73.7256  222.3152 H   0  0  0  0  0  0  0  0  0  0  0  0
  146.9483   73.1385  220.8699 H   0  0  0  0  0  0  0  0  0  0  0  0
  146.2188   74.7800  220.8699 H   0  0  0  0  0  0  0  0  0  0  0  0
  144.3581   72.7363  221.5478 H   0  0  0  0  0  0  0  0  0  0  0  0
  145.4326   71.1893  220.0770 H   0  0  0  0  0  0  0  0  0  0  0  0
  144.2634   71.9832  218.9682 H   0  0  0  0  0  0  0  0  0  0  0  0
  145.9869   72.4893  218.9682 H   0  0  0  0  0  0  0  0  0  0  0  0
  144.1256   75.1293  220.5802 H   0  0  0  0  0  0  0  0  0  0  0  0
  143.9213   74.0315  219.0738 H   0  0  0  0  0  0  0  0  0  0  0  0
  142.1380   72.9270  220.2870 H   0  0  0  0  0  0  0  0  0  0  0  0
  139.4642   75.3480  221.2809 H   0  0  0  0  0  0  0  0  0  0  0  0
  139.6811   73.9119  220.2038 H   0  0  0  0  0  0  0  0  0  0  0  0
  139.4890   73.9160  223.1130 H   0  0  0  0  0  0  0  0  0  0  0  0
  139.2079   69.8493  222.4131 H   0  0  0  0  0  0  0  0  0  0  0  0
  138.8702   68.4725  224.4490 H   0  0  0  0  0  0  0  0  0  0  0  0
  139.1428   68.1616  226.7512 H   0  0  0  0  0  0  0  0  0  0  0  0
  141.1659   71.1470  229.0773 H   0  0  0  0  0  0  0  0  0  0  0  0
  141.5386   72.5734  227.0797 H   0  0  0  0  0  0  0  0  0  0  0  0
  1  2  1  0
  2  3  1  0
  2  4  1  0
  4  5  1  0
  5  6  1  0
  6  7  2  0
  6  8  1  0
  8  9  1  0
  9 10  1  0
 10 11  2  0
 10 12  1  0
 12 13  2  0
 13 14  1  0
 14 15  2  0
 15 16  1  0
 16 17  2  0
 17 18  1  0
 17 19  1  0
 19 20  2  0
 20 21  1  0
 21 22  2  0
 22 12  1  0
 21 15  1  0
  1 23  1  0
  1 24  1  0
  1 25  1  0
  2 26  1  0
  3 27  1  0
  3 28  1  0
  3 29  1  0
  4 30  1  0
  4 31  1  0
  5 32  1  0
  8 33  1  0
  8 34  1  0
  9 35  1  0
 13 36  1  0
 14 37  1  0
 16 38  1  0
 19 39  1  0
 20 40  1  0
M  END
>  <smiles>  (47) 
CC(C)CNC(=O)CNC(=O)c1ccc2cc(F)ccc2n1

>  <score_type>  (47) 
oracle

>  <origin>  (47) 
autodockgpu

>  <m_score__min__energy>  (47) 
-7.4800000000000004

>  <m_primary>  (47) 
energy

>  <rmsd>  (47) 
3.51804535218753

>  <m_score__min__rmsd>  (47) 
3.51804535218753

>  <meeko>  (47) 
{"free_energy": -6.72, "intermolecular_energy": -8.22, "internal_energy": -1.59, "cluster_size": 33, "cluster_id": 2, "rank_in_cluster": 17}

>  <energy>  (47) 
-6.26

>  <cluster_rmsd>  (47) 
0.17

>  <cluster>  (47) 
3

$$$$

     RDKit          3D

 40 41  0  0  0  0  0  0  0  0999 V2000
  144.0690   71.8200  220.4880 C   0  0  0  0  0  0  0  0  0  0  0  0
  144.6400   73.1670  220.3120 C   0  0  0  0  0  0  0  0  0  0  0  0
  145.8960   73.3310  221.1790 C   0  0  0  0  0  0  0  0  0  0  0  0
  143.7370   74.3030  220.5220 C   0  0  0  0  0  0  0  0  0  0  0  0
  142.3770   74.0660  220.8120 N   0  0  0  0  0  0  0  0  0  0  0  0
  141.2440   74.8770  220.6820 C   0  0  0  0  0  0  0  0  0  0  0  0
  141.3030   76.0770  220.2380 O   0  0  0  0  0  0  0  0  0  0  0  0
  139.8500   74.4560  221.0340 C   0  0  0  0  0  0  0  0  0  0  0  0
  139.8470   73.5890  222.1600 N   0  0  0  0  0  0  0  0  0  0  0  0
  140.2050   72.1920  222.0990 C   0  0  0  0  0  0  0  0  0  0  0  0
  140.5600   71.6430  221.0220 O   0  0  0  0  0  0  0  0  0  0  0  0
  140.1500   71.4010  223.3390 C   0  0  0  0  0  0  0  0  0  0  0  0
  139.6040   70.1420  223.3150 C   0  0  0  0  0  0  0  0  0  0  0  0
  139.5360   69.3750  224.4590 C   0  0  0  0  0  0  0  0  0  0  0  0
  140.0310   69.8990  225.6340 C   0  0  0  0  0  0  0  0  0  0  0  0
  139.9540   69.1190  226.7570 C   0  0  0  0  0  0  0  0  0  0  0  0
  140.4490   69.6410  227.9370 C   0  0  0  0  0  0  0  0  0  0  0  0
  140.3610   68.8490  229.0340 F   0  0  0  0  0  0  0  0  0  0  0  0
  140.9970   70.9060  227.9570 C   0  0  0  0  0  0  0  0  0  0  0  0
  141.0870   71.7120  226.8390 C   0  0  0  0  0  0  0  0  0  0  0  0
  140.5860   71.1830  225.6480 C   0  0  0  0  0  0  0  0  0  0  0  0
  140.6240   71.8850  224.5010 N   0  0  0  0  0  0  0  0  0  0  0  0
  143.9753   71.5989  221.5615 H   0  0  0  0  0  0  0  0  0  0  0  0
  143.0758   71.7783  220.0170 H   0  0  0  0  0  0  0  0  0  0  0  0
  144.7297   71.0773  220.0170 H   0  0  0  0  0  0  0  0  0  0  0  0
  144.8799   73.2091  219.2393 H   0  0  0  0  0  0  0  0  0  0  0  0
  145.6152   73.2943  222.2419 H   0  0  0  0  0  0  0  0  0  0  0  0
  146.6027   72.5175  220.9582 H   0  0  0  0  0  0  0  0  0  0  0  0
  146.3702   74.2987  220.9582 H   0  0  0  0  0  0  0  0  0  0  0  0
  144.1459   74.8857  221.3606 H   0  0  0  0  0  0  0  0  0  0  0  0
  143.7090   74.7954  219.5388 H   0  0  0  0  0  0  0  0  0  0  0  0
  142.1560   73.0670  221.1780 H   0  0  0  0  0  0  0  0  0  0  0  0
  139.2527   75.3498  221.2671 H   0  0  0  0  0  0  0  0  0  0  0  0
  139.4205   73.9171  220.1766 H   0  0  0  0  0  0  0  0  0  0  0  0
  139.5680   73.9580  223.1190 H   0  0  0  0  0  0  0  0  0  0  0  0
  139.2147   69.7386  222.3686 H   0  0  0  0  0  0  0  0  0  0  0  0
  139.0963   68.3670  224.4345 H   0  0  0  0  0  0  0  0  0  0  0  0
  139.5133   68.1118  226.7211 H   0  0  0  0  0  0  0  0  0  0  0  0
  141.3821   71.2930  228.9119 H   0  0  0  0  0  0  0  0  0  0  0  0
  141.5301   72.7178  226.8846 H   0  0  0  0  0  0  0  0  0  0  0  0
  1  2  1  0
  2  3  1  0
  2  4  1  0
  4  5  1  0
  5  6  1  0
  6  7  2  0
  6  8  1  0
  8  9  1  0
  9 10  1  0
 10 11  2  0
 10 12  1  0
 12 13  2  0
 13 14  1  0
 14 15  2  0
 15 16  1  0
 16 17  2  0
 17 18  1  0
 17 19  1  0
 19 20  2  0
 20 21  1  0
 21 22  2  0
 22 12  1  0
 21 15  1  0
  1 23  1  0
  1 24  1  0
  1 25  1  0
  2 26  1  0
  3 27  1  0
  3 28  1  0
  3 29  1  0
  4 30  1  0
  4 31  1  0
  5 32  1  0
  8 33  1  0
  8 34  1  0
  9 35  1  0
 13 36  1  0
 14 37  1  0
 16 38  1  0
 19 39  1  0
 20 40  1  0
M  END
>  <smiles>  (48) 
CC(C)CNC(=O)CNC(=O)c1ccc2cc(F)ccc2n1

>  <score_type>  (48) 
oracle

>  <origin>  (48) 
autodockgpu

>  <m_score__min__energy>  (48) 
-7.4800000000000004

>  <m_primary>  (48) 
energy

>  <rmsd>  (48) 
3.3608413611076764

>  <m_score__min__rmsd>  (48) 
3.3608413611076764

>  <meeko>  (48) 
{"free_energy": -6.47, "intermolecular_energy": -7.96, "internal_energy": -1.7, "cluster_size": 33, "cluster_id": 2, "rank_in_cluster": 28}

>  <energy>  (48) 
-6.26

>  <cluster_rmsd>  (48) 
0.1

>  <cluster>  (48) 
3

$$$$

     RDKit          3D

 40 41  0  0  0  0  0  0  0  0999 V2000
  144.0290   71.8380  220.4870 C   0  0  0  0  0  0  0  0  0  0  0  0
  144.5930   73.1880  220.3100 C   0  0  0  0  0  0  0  0  0  0  0  0
  145.8390   73.3630  221.1880 C   0  0  0  0  0  0  0  0  0  0  0  0
  143.6820   74.3200  220.5050 C   0  0  0  0  0  0  0  0  0  0  0  0
  142.3270   74.0750  220.8150 N   0  0  0  0  0  0  0  0  0  0  0  0
  141.1910   74.8870  220.7190 C   0  0  0  0  0  0  0  0  0  0  0  0
  141.2410   76.0940  220.2950 O   0  0  0  0  0  0  0  0  0  0  0  0
  139.8040   74.4590  221.0880 C   0  0  0  0  0  0  0  0  0  0  0  0
  139.8200   73.5820  222.2060 N   0  0  0  0  0  0  0  0  0  0  0  0
  140.1760   72.1850  222.1270 C   0  0  0  0  0  0  0  0  0  0  0  0
  140.5110   71.6450  221.0400 O   0  0  0  0  0  0  0  0  0  0  0  0
  140.1420   71.3830  223.3610 C   0  0  0  0  0  0  0  0  0  0  0  0
  139.6220   70.1140  223.3310 C   0  0  0  0  0  0  0  0  0  0  0  0
  139.5750   69.3370  224.4690 C   0  0  0  0  0  0  0  0  0  0  0  0
  140.0650   69.8620  225.6450 C   0  0  0  0  0  0  0  0  0  0  0  0
  140.0090   69.0730  226.7630 C   0  0  0  0  0  0  0  0  0  0  0  0
  140.4990   69.5960  227.9450 C   0  0  0  0  0  0  0  0  0  0  0  0
  140.4320   68.7940  229.0360 F   0  0  0  0  0  0  0  0  0  0  0  0
  141.0220   70.8710  227.9720 C   0  0  0  0  0  0  0  0  0  0  0  0
  141.0900   71.6880  226.8600 C   0  0  0  0  0  0  0  0  0  0  0  0
  140.5940   71.1570  225.6660 C   0  0  0  0  0  0  0  0  0  0  0  0
  140.6130   71.8690  224.5250 N   0  0  0  0  0  0  0  0  0  0  0  0
  143.9367   71.6171  221.5606 H   0  0  0  0  0  0  0  0  0  0  0  0
  143.0359   71.7909  220.0162 H   0  0  0  0  0  0  0  0  0  0  0  0
  144.6934   71.0984  220.0162 H   0  0  0  0  0  0  0  0  0  0  0  0
  144.8420   73.2267  219.2393 H   0  0  0  0  0  0  0  0  0  0  0  0
  145.5491   73.3223  222.2483 H   0  0  0  0  0  0  0  0  0  0  0  0
  146.5555   72.5567  220.9726 H   0  0  0  0  0  0  0  0  0  0  0  0
  146.3057   74.3355  220.9726 H   0  0  0  0  0  0  0  0  0  0  0  0
  144.0940   74.9248  221.3263 H   0  0  0  0  0  0  0  0  0  0  0  0
  143.6392   74.7917  219.5122 H   0  0  0  0  0  0  0  0  0  0  0  0
  142.1140   73.0700  221.1670 H   0  0  0  0  0  0  0  0  0  0  0  0
  139.2079   75.3490  221.3380 H   0  0  0  0  0  0  0  0  0  0  0  0
  139.3632   73.9265  220.2323 H   0  0  0  0  0  0  0  0  0  0  0  0
  139.5600   73.9430  223.1730 H   0  0  0  0  0  0  0  0  0  0  0  0
  139.2362   69.7097  222.3835 H   0  0  0  0  0  0  0  0  0  0  0  0
  139.1556   68.3205  224.4388 H   0  0  0  0  0  0  0  0  0  0  0  0
  139.5883   68.0574  226.7218 H   0  0  0  0  0  0  0  0  0  0  0  0
  141.4049   71.2578  228.9279 H   0  0  0  0  0  0  0  0  0  0  0  0
  141.5121   72.7025  226.9115 H   0  0  0  0  0  0  0  0  0  0  0  0
  1  2  1  0
  2  3  1  0
  2  4  1  0
  4  5  1  0
  5  6  1  0
  6  7  2  0
  6  8  1  0
  8  9  1  0
  9 10  1  0
 10 11  2  0
 10 12  1  0
 12 13  2  0
 13 14  1  0
 14 15  2  0
 15 16  1  0
 16 17  2  0
 17 18  1  0
 17 19  1  0
 19 20  2  0
 20 21  1  0
 21 22  2  0
 22 12  1  0
 21 15  1  0
  1 23  1  0
  1 24  1  0
  1 25  1  0
  2 26  1  0
  3 27  1  0
  3 28  1  0
  3 29  1  0
  4 30  1  0
  4 31  1  0
  5 32  1  0
  8 33  1  0
  8 34  1  0
  9 35  1  0
 13 36  1  0
 14 37  1  0
 16 38  1  0
 19 39  1  0
 20 40  1  0
M  END
>  <smiles>  (49) 
CC(C)CNC(=O)CNC(=O)c1ccc2cc(F)ccc2n1

>  <score_type>  (49) 
oracle

>  <origin>  (49) 
autodockgpu

>  <m_score__min__energy>  (49) 
-7.4800000000000004

>  <m_primary>  (49) 
energy

>  <rmsd>  (49) 
3.3320587061276252

>  <m_score__min__rmsd>  (49) 
3.3320587061276252

>  <meeko>  (49) 
{"free_energy": -6.47, "intermolecular_energy": -7.96, "internal_energy": -1.71, "cluster_size": 33, "cluster_id": 2, "rank_in_cluster": 29}

>  <energy>  (49) 
-6.24

>  <cluster_rmsd>  (49) 
0.23

>  <cluster>  (49) 
3

$$$$

     RDKit          3D

 40 41  0  0  0  0  0  0  0  0999 V2000
  146.0110   73.3440  220.6730 C   0  0  0  0  0  0  0  0  0  0  0  0
  144.5790   73.0380  220.8410 C   0  0  0  0  0  0  0  0  0  0  0  0
  144.2110   71.7690  220.0610 C   0  0  0  0  0  0  0  0  0  0  0  0
  143.6290   74.1100  220.5280 C   0  0  0  0  0  0  0  0  0  0  0  0
  142.2710   73.9590  220.8800 N   0  0  0  0  0  0  0  0  0  0  0  0
  141.1440   74.7380  220.5920 C   0  0  0  0  0  0  0  0  0  0  0  0
  141.2090   75.8120  219.8980 O   0  0  0  0  0  0  0  0  0  0  0  0
  139.7520   74.4210  221.0440 C   0  0  0  0  0  0  0  0  0  0  0  0
  139.7640   73.5590  222.1740 N   0  0  0  0  0  0  0  0  0  0  0  0
  140.1400   72.1660  222.1170 C   0  0  0  0  0  0  0  0  0  0  0  0
  140.4980   71.6180  221.0410 O   0  0  0  0  0  0  0  0  0  0  0  0
  140.1010   71.3800  223.3600 C   0  0  0  0  0  0  0  0  0  0  0  0
  139.5640   70.1170  223.3460 C   0  0  0  0  0  0  0  0  0  0  0  0
  139.5110   69.3540  224.4930 C   0  0  0  0  0  0  0  0  0  0  0  0
  140.0110   69.8860  225.6620 C   0  0  0  0  0  0  0  0  0  0  0  0
  139.9480   69.1110  226.7890 C   0  0  0  0  0  0  0  0  0  0  0  0
  140.4490   69.6410  227.9630 C   0  0  0  0  0  0  0  0  0  0  0  0
  140.3750   68.8520  229.0640 F   0  0  0  0  0  0  0  0  0  0  0  0
  140.9880   70.9100  227.9740 C   0  0  0  0  0  0  0  0  0  0  0  0
  141.0630   71.7120  226.8520 C   0  0  0  0  0  0  0  0  0  0  0  0
  140.5560   71.1740  225.6660 C   0  0  0  0  0  0  0  0  0  0  0  0
  140.5810   71.8720  224.5170 N   0  0  0  0  0  0  0  0  0  0  0  0
  146.4828   73.4448  221.6615 H   0  0  0  0  0  0  0  0  0  0  0  0
  146.4971   72.5295  220.1160 H   0  0  0  0  0  0  0  0  0  0  0  0
  146.1218   74.2861  220.1160 H   0  0  0  0  0  0  0  0  0  0  0  0
  144.4703   72.8930  221.9260 H   0  0  0  0  0  0  0  0  0  0  0  0
  143.9762   70.9594  220.7677 H   0  0  0  0  0  0  0  0  0  0  0  0
  143.3339   71.9691  219.4281 H   0  0  0  0  0  0  0  0  0  0  0  0
  145.0591   71.4688  219.4281 H   0  0  0  0  0  0  0  0  0  0  0  0
  143.9918   75.0169  221.0338 H   0  0  0  0  0  0  0  0  0  0  0  0
  143.6107   74.1263  219.4283 H   0  0  0  0  0  0  0  0  0  0  0  0
  142.0450   73.0660  221.4570 H   0  0  0  0  0  0  0  0  0  0  0  0
  139.2395   75.3568  221.3116 H   0  0  0  0  0  0  0  0  0  0  0  0
  139.2256   73.9126  220.2228 H   0  0  0  0  0  0  0  0  0  0  0  0
  139.4850   73.9280  223.1320 H   0  0  0  0  0  0  0  0  0  0  0  0
  139.1696   69.7070  222.4045 H   0  0  0  0  0  0  0  0  0  0  0  0
  139.0790   68.3425  224.4756 H   0  0  0  0  0  0  0  0  0  0  0  0
  139.5134   68.1009  226.7610 H   0  0  0  0  0  0  0  0  0  0  0  0
  141.3780   71.3036  228.9243 H   0  0  0  0  0  0  0  0  0  0  0  0
  141.4989   72.7212  226.8899 H   0  0  0  0  0  0  0  0  0  0  0  0
  1  2  1  0
  2  3  1  0
  2  4  1  0
  4  5  1  0
  5  6  1  0
  6  7  2  0
  6  8  1  0
  8  9  1  0
  9 10  1  0
 10 11  2  0
 10 12  1  0
 12 13  2  0
 13 14  1  0
 14 15  2  0
 15 16  1  0
 16 17  2  0
 17 18  1  0
 17 19  1  0
 19 20  2  0
 20 21  1  0
 21 22  2  0
 22 12  1  0
 21 15  1  0
  1 23  1  0
  1 24  1  0
  1 25  1  0
  2 26  1  0
  3 27  1  0
  3 28  1  0
  3 29  1  0
  4 30  1  0
  4 31  1  0
  5 32  1  0
  8 33  1  0
  8 34  1  0
  9 35  1  0
 13 36  1  0
 14 37  1  0
 16 38  1  0
 19 39  1  0
 20 40  1  0
M  END
>  <smiles>  (50) 
CC(C)CNC(=O)CNC(=O)c1ccc2cc(F)ccc2n1

>  <score_type>  (50) 
oracle

>  <origin>  (50) 
autodockgpu

>  <m_score__min__energy>  (50) 
-7.4800000000000004

>  <m_primary>  (50) 
energy

>  <rmsd>  (50) 
3.478020385791766

>  <m_score__min__rmsd>  (50) 
3.478020385791766

>  <meeko>  (50) 
{"free_energy": -6.39, "intermolecular_energy": -7.88, "internal_energy": -1.65, "cluster_size": 33, "cluster_id": 2, "rank_in_cluster": 30}

>  <energy>  (50) 
-6.17

>  <cluster_rmsd>  (50) 
0.22

>  <cluster>  (50) 
3

$$$$
