
     RDKit          3D

 50 53  0  0  0  0  0  0  0  0999 V2000
  137.0400   76.1980  222.0200 O   0  0  0  0  0  0  0  0  0  0  0  0
  138.2940   76.2640  222.2690 C   0  0  0  0  0  0  0  0  0  0  0  0
  139.1040   75.0970  222.2030 N   0  0  0  0  0  0  0  0  0  0  0  0
  138.6000   73.7880  221.8630 C   0  0  0  0  0  0  0  0  0  0  0  0
  139.5460   72.7130  222.2970 C   0  0  0  0  0  0  0  0  0  0  0  0
  140.7570   73.0400  222.3470 O   0  0  0  0  0  0  0  0  0  0  0  0
  139.0470   71.4250  222.6190 N   0  0  0  0  0  0  0  0  0  0  0  0
  138.2240   70.6170  221.6970 C   0  0  0  0  0  0  0  0  0  0  0  0
  139.0410   69.3130  221.7930 C   0  0  2  0  0  0  0  0  0  0  0  0
  138.2760   68.3030  221.2510 O   0  0  0  0  0  0  0  0  0  0  0  0
  139.1830   69.2260  223.3050 C   0  0  0  0  0  0  0  0  0  0  0  0
  139.2090   70.6350  223.8340 C   0  0  1  0  0  0  0  0  0  0  0  0
  140.4460   70.9780  224.5830 C   0  0  0  0  0  0  0  0  0  0  0  0
  140.5750   70.4320  225.9330 C   0  0  0  0  0  0  0  0  0  0  0  0
  140.7150   71.1430  227.0960 C   0  0  0  0  0  0  0  0  0  0  0  0
  140.8350   70.5690  228.3160 N   0  0  0  0  0  0  0  0  0  0  0  0
  140.8130   69.2180  228.3940 C   0  0  0  0  0  0  0  0  0  0  0  0
  140.6730   68.4780  227.2490 C   0  0  0  0  0  0  0  0  0  0  0  0
  140.5580   69.0720  226.0570 N   0  0  0  0  0  0  0  0  0  0  0  0
  138.8990   77.5670  222.6290 C   0  0  0  0  0  0  0  0  0  0  0  0
  138.0720   78.6550  222.8160 C   0  0  0  0  0  0  0  0  0  0  0  0
  138.6480   79.8630  223.1540 C   0  0  0  0  0  0  0  0  0  0  0  0
  140.0250   79.9620  223.2950 C   0  0  0  0  0  0  0  0  0  0  0  0
  140.6210   81.1580  223.6310 C   0  0  0  0  0  0  0  0  0  0  0  0
  141.9930   81.2190  223.7640 C   0  0  0  0  0  0  0  0  0  0  0  0
  142.6260   82.3720  224.0930 F   0  0  0  0  0  0  0  0  0  0  0  0
  142.8080   80.1100  223.5700 C   0  0  0  0  0  0  0  0  0  0  0  0
  142.2000   78.9200  223.2350 C   0  0  0  0  0  0  0  0  0  0  0  0
  140.8140   78.8500  223.0990 C   0  0  0  0  0  0  0  0  0  0  0  0
  140.2510   77.6640  222.7670 N   0  0  0  0  0  0  0  0  0  0  0  0
  140.1320   75.2520  222.4270 H   0  0  0  0  0  0  0  0  0  0  0  0
  137.6314   73.6361  222.3617 H   0  0  0  0  0  0  0  0  0  0  0  0
  138.4874   73.7318  220.7702 H   0  0  0  0  0  0  0  0  0  0  0  0
  137.1918   70.4924  222.0562 H   0  0  0  0  0  0  0  0  0  0  0  0
  138.0756   71.0274  220.6873 H   0  0  0  0  0  0  0  0  0  0  0  0
  140.0065   69.2588  221.2688 H   0  0  0  0  0  0  0  0  0  0  0  0
  138.7110   68.0460  220.4010 H   0  0  0  0  0  0  0  0  0  0  0  0
  138.3296   68.6792  223.7324 H   0  0  0  0  0  0  0  0  0  0  0  0
  140.1035   68.6899  223.5795 H   0  0  0  0  0  0  0  0  0  0  0  0
  138.4290   70.8162  224.5882 H   0  0  0  0  0  0  0  0  0  0  0  0
  141.3019   70.6154  223.9948 H   0  0  0  0  0  0  0  0  0  0  0  0
  140.4063   72.0690  224.7177 H   0  0  0  0  0  0  0  0  0  0  0  0
  140.7307   72.2412  227.0348 H   0  0  0  0  0  0  0  0  0  0  0  0
  140.9068   68.7177  229.3691 H   0  0  0  0  0  0  0  0  0  0  0  0
  140.6550   67.3799  227.3117 H   0  0  0  0  0  0  0  0  0  0  0  0
  136.9822   78.5624  222.6988 H   0  0  0  0  0  0  0  0  0  0  0  0
  138.0147   80.7484  223.3118 H   0  0  0  0  0  0  0  0  0  0  0  0
  140.0079   82.0570  223.7919 H   0  0  0  0  0  0  0  0  0  0  0  0
  143.9002   80.1800  223.6801 H   0  0  0  0  0  0  0  0  0  0  0  0
  142.8114   78.0199  223.0739 H   0  0  0  0  0  0  0  0  0  0  0  0
  1  2  2  0
  2  3  1  0
  3  4  1  0
  4  5  1  0
  5  6  2  0
  5  7  1  0
  7  8  1  0
  8  9  1  0
  9 10  1  0
  9 11  1  0
 11 12  1  0
 12 13  1  0
 13 14  1  0
 14 15  2  0
 15 16  1  0
 16 17  2  0
 17 18  1  0
 18 19  2  0
  2 20  1  0
 20 21  2  0
 21 22  1  0
 22 23  2  0
 23 24  1  0
 24 25  2  0
 25 26  1  0
 25 27  1  0
 27 28  2  0
 28 29  1  0
 29 30  2  0
 12  7  1  0
 19 14  1  0
 30 20  1  0
 29 23  1  0
  3 31  1  0
  4 32  1  0
  4 33  1  0
  8 34  1  0
  8 35  1  0
  9 36  1  6
 10 37  1  0
 11 38  1  0
 11 39  1  0
 12 40  1  1
 13 41  1  0
 13 42  1  0
 15 43  1  0
 17 44  1  0
 18 45  1  0
 21 46  1  0
 22 47  1  0
 24 48  1  0
 27 49  1  0
 28 50  1  0
M  END
>  <smiles>  (1) 
O=C(NCC(=O)N1C[C@H](O)C[C@H]1Cc1cnccn1)c1ccc2cc(F)ccc2n1

>  <score_type>  (1) 
oracle

>  <origin>  (1) 
autodockgpu

>  <m_score__min__energy>  (1) 
-8.5199999999999996

>  <m_primary>  (1) 
energy

>  <rmsd>  (1) 
8.576713404807595

>  <m_score__min__rmsd>  (1) 
8.576713404807595

>  <meeko>  (1) 
{"free_energy": -7.24, "intermolecular_energy": -9.33, "internal_energy": -1.81, "cluster_size": 2, "cluster_id": 7, "rank_in_cluster": 1}

>  <energy>  (1) 
-8.52

>  <cluster_rmsd>  (1) 
0.0

>  <cluster>  (1) 
1

$$$$

     RDKit          3D

 50 53  0  0  0  0  0  0  0  0999 V2000
  136.8870   76.3970  222.1770 O   0  0  0  0  0  0  0  0  0  0  0  0
  138.1560   76.4450  222.3380 C   0  0  0  0  0  0  0  0  0  0  0  0
  138.9500   75.2790  222.1610 N   0  0  0  0  0  0  0  0  0  0  0  0
  138.4130   73.9890  221.7970 C   0  0  0  0  0  0  0  0  0  0  0  0
  139.4220   72.9040  222.0020 C   0  0  0  0  0  0  0  0  0  0  0  0
  140.5660   73.2820  222.3550 O   0  0  0  0  0  0  0  0  0  0  0  0
  139.0520   71.5500  221.7960 N   0  0  0  0  0  0  0  0  0  0  0  0
  138.6350   71.0110  220.4850 C   0  0  0  0  0  0  0  0  0  0  0  0
  139.5800   69.7940  220.4630 C   0  0  2  0  0  0  0  0  0  0  0  0
  139.1460   68.9510  219.4620 O   0  0  0  0  0  0  0  0  0  0  0  0
  139.3220   69.2610  221.8640 C   0  0  0  0  0  0  0  0  0  0  0  0
  138.9970   70.4410  222.7390 C   0  0  1  0  0  0  0  0  0  0  0  0
  139.9230   70.6160  223.8890 C   0  0  0  0  0  0  0  0  0  0  0  0
  139.9340   69.5560  224.8970 C   0  0  0  0  0  0  0  0  0  0  0  0
  139.1370   68.4430  224.9270 C   0  0  0  0  0  0  0  0  0  0  0  0
  139.1990   67.5030  225.8980 N   0  0  0  0  0  0  0  0  0  0  0  0
  140.0990   67.6680  226.8950 C   0  0  0  0  0  0  0  0  0  0  0  0
  140.9130   68.7710  226.8930 C   0  0  0  0  0  0  0  0  0  0  0  0
  140.8290   69.6850  225.9210 N   0  0  0  0  0  0  0  0  0  0  0  0
  138.7960   77.7270  222.7130 C   0  0  0  0  0  0  0  0  0  0  0  0
  137.9990   78.8350  222.9100 C   0  0  0  0  0  0  0  0  0  0  0  0
  138.6060   80.0230  223.2620 C   0  0  0  0  0  0  0  0  0  0  0  0
  139.9850   80.0830  223.4090 C   0  0  0  0  0  0  0  0  0  0  0  0
  140.6130   81.2590  223.7590 C   0  0  0  0  0  0  0  0  0  0  0  0
  141.9860   81.2800  223.8960 C   0  0  0  0  0  0  0  0  0  0  0  0
  142.6500   82.4120  224.2390 F   0  0  0  0  0  0  0  0  0  0  0  0
  142.7710   80.1510  223.6920 C   0  0  0  0  0  0  0  0  0  0  0  0
  142.1310   78.9820  223.3420 C   0  0  0  0  0  0  0  0  0  0  0  0
  140.7440   78.9520  223.2020 C   0  0  0  0  0  0  0  0  0  0  0  0
  140.1490   77.7850  222.8570 N   0  0  0  0  0  0  0  0  0  0  0  0
  139.9930   75.4180  222.3170 H   0  0  0  0  0  0  0  0  0  0  0  0
  137.5301   73.7797  222.4189 H   0  0  0  0  0  0  0  0  0  0  0  0
  138.1408   74.0138  220.7315 H   0  0  0  0  0  0  0  0  0  0  0  0
  137.5746   70.7189  220.4697 H   0  0  0  0  0  0  0  0  0  0  0  0
  138.7033   71.6988  219.6293 H   0  0  0  0  0  0  0  0  0  0  0  0
  140.6479   69.9614  220.2593 H   0  0  0  0  0  0  0  0  0  0  0  0
  138.3150   68.5270  219.7930 H   0  0  0  0  0  0  0  0  0  0  0  0
  138.4755   68.5587  221.8496 H   0  0  0  0  0  0  0  0  0  0  0  0
  140.2036   68.7248  222.2451 H   0  0  0  0  0  0  0  0  0  0  0  0
  138.0253   70.3360  223.2438 H   0  0  0  0  0  0  0  0  0  0  0  0
  140.9425   70.7008  223.4848 H   0  0  0  0  0  0  0  0  0  0  0  0
  139.5591   71.5099  224.4168 H   0  0  0  0  0  0  0  0  0  0  0  0
  138.4058   68.3056  224.1168 H   0  0  0  0  0  0  0  0  0  0  0  0
  140.1768   66.9230  227.7006 H   0  0  0  0  0  0  0  0  0  0  0  0
  141.6455   68.9059  227.7025 H   0  0  0  0  0  0  0  0  0  0  0  0
  136.9073   78.7733  222.7896 H   0  0  0  0  0  0  0  0  0  0  0  0
  137.9964   80.9237  223.4263 H   0  0  0  0  0  0  0  0  0  0  0  0
  140.0247   82.1730  223.9277 H   0  0  0  0  0  0  0  0  0  0  0  0
  143.8644   80.1895  223.8060 H   0  0  0  0  0  0  0  0  0  0  0  0
  142.7177   78.0672  223.1720 H   0  0  0  0  0  0  0  0  0  0  0  0
  1  2  2  0
  2  3  1  0
  3  4  1  0
  4  5  1  0
  5  6  2  0
  5  7  1  0
  7  8  1  0
  8  9  1  0
  9 10  1  0
  9 11  1  0
 11 12  1  0
 12 13  1  0
 13 14  1  0
 14 15  2  0
 15 16  1  0
 16 17  2  0
 17 18  1  0
 18 19  2  0
  2 20  1  0
 20 21  2  0
 21 22  1  0
 22 23  2  0
 23 24  1  0
 24 25  2  0
 25 26  1  0
 25 27  1  0
 27 28  2  0
 28 29  1  0
 29 30  2  0
 12  7  1  0
 19 14  1  0
 30 20  1  0
 29 23  1  0
  3 31  1  0
  4 32  1  0
  4 33  1  0
  8 34  1  0
  8 35  1  0
  9 36  1  6
 10 37  1  0
 11 38  1  0
 11 39  1  0
 12 40  1  1
 13 41  1  0
 13 42  1  0
 15 43  1  0
 17 44  1  0
 18 45  1  0
 21 46  1  0
 22 47  1  0
 24 48  1  0
 27 49  1  0
 28 50  1  0
M  END
>  <smiles>  (2) 
O=C(NCC(=O)N1C[C@H](O)C[C@H]1Cc1cnccn1)c1ccc2cc(F)ccc2n1

>  <score_type>  (2) 
oracle

>  <origin>  (2) 
autodockgpu

>  <m_score__min__energy>  (2) 
-8.5199999999999996

>  <m_primary>  (2) 
energy

>  <rmsd>  (2) 
8.43783644528011

>  <m_score__min__rmsd>  (2) 
8.43783644528011

>  <meeko>  (2) 
{"free_energy": -6.92, "intermolecular_energy": -9.01, "internal_energy": -1.89, "cluster_size": 2, "cluster_id": 7, "rank_in_cluster": 2}

>  <energy>  (2) 
-8.46

>  <cluster_rmsd>  (2) 
0.52

>  <cluster>  (2) 
1

$$$$

     RDKit          3D

 50 53  0  0  0  0  0  0  0  0999 V2000
  140.6880   74.0320  222.3380 O   0  0  0  0  0  0  0  0  0  0  0  0
  140.3160   74.8800  221.4540 C   0  0  0  0  0  0  0  0  0  0  0  0
  139.9570   74.4480  220.1480 N   0  0  0  0  0  0  0  0  0  0  0  0
  139.9810   73.0690  219.7220 C   0  0  0  0  0  0  0  0  0  0  0  0
  141.3490   72.6650  219.2700 C   0  0  0  0  0  0  0  0  0  0  0  0
  141.3890   71.7930  218.3680 O   0  0  0  0  0  0  0  0  0  0  0  0
  142.4910   73.2630  219.8610 N   0  0  0  0  0  0  0  0  0  0  0  0
  143.4270   72.5350  220.7410 C   0  0  0  0  0  0  0  0  0  0  0  0
  144.7300   72.9390  220.0210 C   0  0  2  0  0  0  0  0  0  0  0  0
  145.7790   72.6280  220.8590 O   0  0  0  0  0  0  0  0  0  0  0  0
  144.4790   74.4330  219.8860 C   0  0  0  0  0  0  0  0  0  0  0  0
  142.9920   74.6280  219.7570 C   0  0  1  0  0  0  0  0  0  0  0  0
  142.5770   75.3000  218.4980 C   0  0  0  0  0  0  0  0  0  0  0  0
  142.0540   76.6600  218.6150 C   0  0  0  0  0  0  0  0  0  0  0  0
  142.7820   77.8080  218.7830 C   0  0  0  0  0  0  0  0  0  0  0  0
  142.2290   79.0380  218.8890 N   0  0  0  0  0  0  0  0  0  0  0  0
  140.8810   79.1440  218.8240 C   0  0  0  0  0  0  0  0  0  0  0  0
  140.1240   78.0140  218.6550 C   0  0  0  0  0  0  0  0  0  0  0  0
  140.6970   76.8110  218.5540 N   0  0  0  0  0  0  0  0  0  0  0  0
  140.2600   76.3190  221.8000 C   0  0  0  0  0  0  0  0  0  0  0  0
  139.0300   76.9100  221.9940 C   0  0  0  0  0  0  0  0  0  0  0  0
  138.9910   78.2500  222.3190 C   0  0  0  0  0  0  0  0  0  0  0  0
  140.1720   78.9700  222.4430 C   0  0  0  0  0  0  0  0  0  0  0  0
  140.1580   80.3100  222.7660 C   0  0  0  0  0  0  0  0  0  0  0  0
  141.3510   80.9920  222.8810 C   0  0  0  0  0  0  0  0  0  0  0  0
  141.3890   82.3110  223.1980 F   0  0  0  0  0  0  0  0  0  0  0  0
  142.5810   80.3780  222.6810 C   0  0  0  0  0  0  0  0  0  0  0  0
  142.5820   79.0380  222.3580 C   0  0  0  0  0  0  0  0  0  0  0  0
  141.3800   78.3400  222.2410 C   0  0  0  0  0  0  0  0  0  0  0  0
  141.4190   77.0250  221.9210 N   0  0  0  0  0  0  0  0  0  0  0  0
  139.6610   75.2250  219.4840 H   0  0  0  0  0  0  0  0  0  0  0  0
  139.6775   72.4285  220.5632 H   0  0  0  0  0  0  0  0  0  0  0  0
  139.2871   72.9540  218.8763 H   0  0  0  0  0  0  0  0  0  0  0  0
  143.3926   72.8958  221.7796 H   0  0  0  0  0  0  0  0  0  0  0  0
  143.2481   71.4561  220.8591 H   0  0  0  0  0  0  0  0  0  0  0  0
  144.9718   72.4578  219.0618 H   0  0  0  0  0  0  0  0  0  0  0  0
  145.5970   71.7220  221.2130 H   0  0  0  0  0  0  0  0  0  0  0  0
  144.8516   74.9592  220.7772 H   0  0  0  0  0  0  0  0  0  0  0  0
  145.0022   74.8376  219.0071 H   0  0  0  0  0  0  0  0  0  0  0  0
  142.5877   75.3079  220.5214 H   0  0  0  0  0  0  0  0  0  0  0  0
  143.4550   75.3375  217.8364 H   0  0  0  0  0  0  0  0  0  0  0  0
  141.7362   74.7015  218.1175 H   0  0  0  0  0  0  0  0  0  0  0  0
  143.8777   77.7251  218.8346 H   0  0  0  0  0  0  0  0  0  0  0  0
  140.3974   80.1286  218.9061 H   0  0  0  0  0  0  0  0  0  0  0  0
  139.0285   78.0986  218.6017 H   0  0  0  0  0  0  0  0  0  0  0  0
  138.1025   76.3275  221.8922 H   0  0  0  0  0  0  0  0  0  0  0  0
  138.0238   78.7486  222.4801 H   0  0  0  0  0  0  0  0  0  0  0  0
  139.2032   80.8309  222.9307 H   0  0  0  0  0  0  0  0  0  0  0  0
  143.5209   80.9413  222.7770 H   0  0  0  0  0  0  0  0  0  0  0  0
  143.5360   78.5162  222.1916 H   0  0  0  0  0  0  0  0  0  0  0  0
  1  2  2  0
  2  3  1  0
  3  4  1  0
  4  5  1  0
  5  6  2  0
  5  7  1  0
  7  8  1  0
  8  9  1  0
  9 10  1  0
  9 11  1  0
 11 12  1  0
 12 13  1  0
 13 14  1  0
 14 15  2  0
 15 16  1  0
 16 17  2  0
 17 18  1  0
 18 19  2  0
  2 20  1  0
 20 21  2  0
 21 22  1  0
 22 23  2  0
 23 24  1  0
 24 25  2  0
 25 26  1  0
 25 27  1  0
 27 28  2  0
 28 29  1  0
 29 30  2  0
 12  7  1  0
 19 14  1  0
 30 20  1  0
 29 23  1  0
  3 31  1  0
  4 32  1  0
  4 33  1  0
  8 34  1  0
  8 35  1  0
  9 36  1  6
 10 37  1  0
 11 38  1  0
 11 39  1  0
 12 40  1  1
 13 41  1  0
 13 42  1  0
 15 43  1  0
 17 44  1  0
 18 45  1  0
 21 46  1  0
 22 47  1  0
 24 48  1  0
 27 49  1  0
 28 50  1  0
M  END
>  <smiles>  (3) 
O=C(NCC(=O)N1C[C@H](O)C[C@H]1Cc1cnccn1)c1ccc2cc(F)ccc2n1

>  <score_type>  (3) 
oracle

>  <origin>  (3) 
autodockgpu

>  <m_score__min__energy>  (3) 
-8.5199999999999996

>  <m_primary>  (3) 
energy

>  <rmsd>  (3) 
7.632539985647354

>  <m_score__min__rmsd>  (3) 
7.632539985647354

>  <meeko>  (3) 
{"free_energy": -5.37, "intermolecular_energy": -7.46, "internal_energy": -3.39, "cluster_size": 4, "cluster_id": 9, "rank_in_cluster": 4}

>  <energy>  (3) 
-8.46

>  <cluster_rmsd>  (3) 
0.53

>  <cluster>  (3) 
1

$$$$

     RDKit          3D

 50 53  0  0  0  0  0  0  0  0999 V2000
  140.4860   71.3180  221.0360 O   0  0  0  0  0  0  0  0  0  0  0  0
  140.1460   71.9060  222.1210 C   0  0  0  0  0  0  0  0  0  0  0  0
  139.9260   73.3110  222.1410 N   0  0  0  0  0  0  0  0  0  0  0  0
  140.0630   74.1620  220.9830 C   0  0  0  0  0  0  0  0  0  0  0  0
  140.8540   75.3910  221.3030 C   0  0  0  0  0  0  0  0  0  0  0  0
  140.5060   76.0090  222.3390 O   0  0  0  0  0  0  0  0  0  0  0  0
  141.9180   75.7840  220.4520 N   0  0  0  0  0  0  0  0  0  0  0  0
  142.7400   74.8290  219.6820 C   0  0  0  0  0  0  0  0  0  0  0  0
  142.6120   75.5190  218.3090 C   0  0  2  0  0  0  0  0  0  0  0  0
  143.5670   74.9730  217.4800 O   0  0  0  0  0  0  0  0  0  0  0  0
  142.9130   76.9500  218.7280 C   0  0  0  0  0  0  0  0  0  0  0  0
  142.4260   77.1150  220.1420 C   0  0  1  0  0  0  0  0  0  0  0  0
  141.3980   78.1760  220.3090 C   0  0  0  0  0  0  0  0  0  0  0  0
  141.5910   79.1170  221.4110 C   0  0  0  0  0  0  0  0  0  0  0  0
  141.7860   80.4690  221.3120 C   0  0  0  0  0  0  0  0  0  0  0  0
  141.9630   81.2820  222.3800 N   0  0  0  0  0  0  0  0  0  0  0  0
  141.9460   80.7300  223.6150 C   0  0  0  0  0  0  0  0  0  0  0  0
  141.7520   79.3800  223.7490 C   0  0  0  0  0  0  0  0  0  0  0  0
  141.5800   78.6010  222.6760 N   0  0  0  0  0  0  0  0  0  0  0  0
  139.9830   71.1130  223.3620 C   0  0  0  0  0  0  0  0  0  0  0  0
  139.4020   69.8650  223.2810 C   0  0  0  0  0  0  0  0  0  0  0  0
  139.2590   69.1340  224.4420 C   0  0  0  0  0  0  0  0  0  0  0  0
  139.6910   69.6580  225.6520 C   0  0  0  0  0  0  0  0  0  0  0  0
  139.5570   68.9470  226.8250 C   0  0  0  0  0  0  0  0  0  0  0  0
  140.0000   69.5000  228.0090 C   0  0  0  0  0  0  0  0  0  0  0  0
  139.8900   68.8400  229.1880 F   0  0  0  0  0  0  0  0  0  0  0  0
  140.5810   70.7610  228.0680 C   0  0  0  0  0  0  0  0  0  0  0  0
  140.7100   71.4620  226.8890 C   0  0  0  0  0  0  0  0  0  0  0  0
  140.2660   70.9100  225.6880 C   0  0  0  0  0  0  0  0  0  0  0  0
  140.4080   71.6290  224.5490 N   0  0  0  0  0  0  0  0  0  0  0  0
  139.6480   73.7080  223.0880 H   0  0  0  0  0  0  0  0  0  0  0  0
  140.5756   73.6032  220.1861 H   0  0  0  0  0  0  0  0  0  0  0  0
  139.0585   74.4702  220.6574 H   0  0  0  0  0  0  0  0  0  0  0  0
  143.7806   74.7907  220.0365 H   0  0  0  0  0  0  0  0  0  0  0  0
  142.4347   73.7732  219.7286 H   0  0  0  0  0  0  0  0  0  0  0  0
  141.6635   75.4247  217.7599 H   0  0  0  0  0  0  0  0  0  0  0  0
  144.4450   75.2610  217.8360 H   0  0  0  0  0  0  0  0  0  0  0  0
  143.9959   77.1366  218.6788 H   0  0  0  0  0  0  0  0  0  0  0  0
  142.4126   77.6649  218.0583 H   0  0  0  0  0  0  0  0  0  0  0  0
  143.2192   77.4572  220.8230 H   0  0  0  0  0  0  0  0  0  0  0  0
  141.3672   78.7584  219.3764 H   0  0  0  0  0  0  0  0  0  0  0  0
  140.4687   77.6391  220.5501 H   0  0  0  0  0  0  0  0  0  0  0  0
  141.7996   80.9195  220.3086 H   0  0  0  0  0  0  0  0  0  0  0  0
  142.0869   81.3604  224.5054 H   0  0  0  0  0  0  0  0  0  0  0  0
  141.7376   78.9311  224.7531 H   0  0  0  0  0  0  0  0  0  0  0  0
  139.0614   69.4628  222.3155 H   0  0  0  0  0  0  0  0  0  0  0  0
  138.8018   68.1341  224.4085 H   0  0  0  0  0  0  0  0  0  0  0  0
  139.1004   67.9463  226.8174 H   0  0  0  0  0  0  0  0  0  0  0  0
  140.9259   71.1847  229.0227 H   0  0  0  0  0  0  0  0  0  0  0  0
  141.1660   72.4630  226.8952 H   0  0  0  0  0  0  0  0  0  0  0  0
  1  2  2  0
  2  3  1  0
  3  4  1  0
  4  5  1  0
  5  6  2  0
  5  7  1  0
  7  8  1  0
  8  9  1  0
  9 10  1  0
  9 11  1  0
 11 12  1  0
 12 13  1  0
 13 14  1  0
 14 15  2  0
 15 16  1  0
 16 17  2  0
 17 18  1  0
 18 19  2  0
  2 20  1  0
 20 21  2  0
 21 22  1  0
 22 23  2  0
 23 24  1  0
 24 25  2  0
 25 26  1  0
 25 27  1  0
 27 28  2  0
 28 29  1  0
 29 30  2  0
 12  7  1  0
 19 14  1  0
 30 20  1  0
 29 23  1  0
  3 31  1  0
  4 32  1  0
  4 33  1  0
  8 34  1  0
  8 35  1  0
  9 36  1  6
 10 37  1  0
 11 38  1  0
 11 39  1  0
 12 40  1  1
 13 41  1  0
 13 42  1  0
 15 43  1  0
 17 44  1  0
 18 45  1  0
 21 46  1  0
 22 47  1  0
 24 48  1  0
 27 49  1  0
 28 50  1  0
M  END
>  <smiles>  (4) 
O=C(NCC(=O)N1C[C@H](O)C[C@H]1Cc1cnccn1)c1ccc2cc(F)ccc2n1

>  <score_type>  (4) 
oracle

>  <origin>  (4) 
autodockgpu

>  <m_score__min__energy>  (4) 
-8.5199999999999996

>  <m_primary>  (4) 
energy

>  <rmsd>  (4) 
1.8692745551908667

>  <m_score__min__rmsd>  (4) 
1.8692745551908667

>  <meeko>  (4) 
{"free_energy": -8.37, "intermolecular_energy": -10.46, "internal_energy": -1.47, "cluster_size": 21, "cluster_id": 1, "rank_in_cluster": 8}

>  <energy>  (4) 
-8.46

>  <cluster_rmsd>  (4) 
0.53

>  <cluster>  (4) 
1

$$$$

     RDKit          3D

 50 53  0  0  0  0  0  0  0  0999 V2000
  141.2250   71.7370  221.6630 O   0  0  0  0  0  0  0  0  0  0  0  0
  140.2420   71.9540  222.4540 C   0  0  0  0  0  0  0  0  0  0  0  0
  139.3140   72.9950  222.1800 N   0  0  0  0  0  0  0  0  0  0  0  0
  139.3970   73.8630  221.0290 C   0  0  0  0  0  0  0  0  0  0  0  0
  140.1630   75.1100  221.3440 C   0  0  0  0  0  0  0  0  0  0  0  0
  139.9570   75.6040  222.4790 O   0  0  0  0  0  0  0  0  0  0  0  0
  141.0500   75.6530  220.3790 N   0  0  0  0  0  0  0  0  0  0  0  0
  140.8220   76.9440  219.6990 C   0  0  0  0  0  0  0  0  0  0  0  0
  142.2100   77.5580  219.9700 C   0  0  2  0  0  0  0  0  0  0  0  0
  142.3440   78.6560  219.1490 O   0  0  0  0  0  0  0  0  0  0  0  0
  143.0800   76.3800  219.5610 C   0  0  0  0  0  0  0  0  0  0  0  0
  142.3060   75.1250  219.8610 C   0  0  1  0  0  0  0  0  0  0  0  0
  142.9830   74.2080  220.8160 C   0  0  0  0  0  0  0  0  0  0  0  0
  143.9460   73.2620  220.2550 C   0  0  0  0  0  0  0  0  0  0  0  0
  145.2160   73.5420  219.8240 C   0  0  0  0  0  0  0  0  0  0  0  0
  146.0540   72.6130  219.3090 N   0  0  0  0  0  0  0  0  0  0  0  0
  145.6170   71.3350  219.2150 C   0  0  0  0  0  0  0  0  0  0  0  0
  144.3520   71.0230  219.6380 C   0  0  0  0  0  0  0  0  0  0  0  0
  143.5440   71.9610  220.1420 N   0  0  0  0  0  0  0  0  0  0  0  0
  140.0770   71.1130  223.6620 C   0  0  0  0  0  0  0  0  0  0  0  0
  139.3720   69.9320  223.5580 C   0  0  0  0  0  0  0  0  0  0  0  0
  139.2280   69.1550  224.6900 C   0  0  0  0  0  0  0  0  0  0  0  0
  139.7830   69.5690  225.8930 C   0  0  0  0  0  0  0  0  0  0  0  0
  139.6500   68.8100  227.0360 C   0  0  0  0  0  0  0  0  0  0  0  0
  140.2160   69.2530  228.2140 C   0  0  0  0  0  0  0  0  0  0  0  0
  140.1130   68.5420  229.3640 F   0  0  0  0  0  0  0  0  0  0  0  0
  140.9220   70.4470  228.2960 C   0  0  0  0  0  0  0  0  0  0  0  0
  141.0470   71.1970  227.1470 C   0  0  0  0  0  0  0  0  0  0  0  0
  140.4790   70.7560  225.9520 C   0  0  0  0  0  0  0  0  0  0  0  0
  140.6210   71.5200  224.8420 N   0  0  0  0  0  0  0  0  0  0  0  0
  138.5320   73.0990  222.8940 H   0  0  0  0  0  0  0  0  0  0  0  0
  139.9033   73.3279  220.2121 H   0  0  0  0  0  0  0  0  0  0  0  0
  138.3763   74.1472  220.7334 H   0  0  0  0  0  0  0  0  0  0  0  0
  140.6200   76.8221  218.6246 H   0  0  0  0  0  0  0  0  0  0  0  0
  139.9542   77.5286  220.0383 H   0  0  0  0  0  0  0  0  0  0  0  0
  142.4346   77.9238  220.9828 H   0  0  0  0  0  0  0  0  0  0  0  0
  143.3120   78.7540  218.9680 H   0  0  0  0  0  0  0  0  0  0  0  0
  143.3060   76.4346  218.4859 H   0  0  0  0  0  0  0  0  0  0  0  0
  144.0324   76.3904  220.1113 H   0  0  0  0  0  0  0  0  0  0  0  0
  142.1863   74.4825  218.9762 H   0  0  0  0  0  0  0  0  0  0  0  0
  143.5164   74.8286  221.5511 H   0  0  0  0  0  0  0  0  0  0  0  0
  142.1788   73.5846  221.2339 H   0  0  0  0  0  0  0  0  0  0  0  0
  145.5741   74.5792  219.9009 H   0  0  0  0  0  0  0  0  0  0  0  0
  146.2723   70.5537  218.8024 H   0  0  0  0  0  0  0  0  0  0  0  0
  143.9958   69.9851  219.5618 H   0  0  0  0  0  0  0  0  0  0  0  0
  138.9360   69.6175  222.5983 H   0  0  0  0  0  0  0  0  0  0  0  0
  138.6728   68.2068  224.6386 H   0  0  0  0  0  0  0  0  0  0  0  0
  139.0974   67.8593  227.0093 H   0  0  0  0  0  0  0  0  0  0  0  0
  141.3657   70.7818  229.2453 H   0  0  0  0  0  0  0  0  0  0  0  0
  141.5978   72.1488  227.1723 H   0  0  0  0  0  0  0  0  0  0  0  0
  1  2  2  0
  2  3  1  0
  3  4  1  0
  4  5  1  0
  5  6  2  0
  5  7  1  0
  7  8  1  0
  8  9  1  0
  9 10  1  0
  9 11  1  0
 11 12  1  0
 12 13  1  0
 13 14  1  0
 14 15  2  0
 15 16  1  0
 16 17  2  0
 17 18  1  0
 18 19  2  0
  2 20  1  0
 20 21  2  0
 21 22  1  0
 22 23  2  0
 23 24  1  0
 24 25  2  0
 25 26  1  0
 25 27  1  0
 27 28  2  0
 28 29  1  0
 29 30  2  0
 12  7  1  0
 19 14  1  0
 30 20  1  0
 29 23  1  0
  3 31  1  0
  4 32  1  0
  4 33  1  0
  8 34  1  0
  8 35  1  0
  9 36  1  1
 10 37  1  0
 11 38  1  0
 11 39  1  0
 12 40  1  6
 13 41  1  0
 13 42  1  0
 15 43  1  0
 17 44  1  0
 18 45  1  0
 21 46  1  0
 22 47  1  0
 24 48  1  0
 27 49  1  0
 28 50  1  0
M  END
>  <smiles>  (5) 
O=C(NCC(=O)N1C[C@H](O)C[C@H]1Cc1cnccn1)c1ccc2cc(F)ccc2n1

>  <score_type>  (5) 
oracle

>  <origin>  (5) 
autodockgpu

>  <m_score__min__energy>  (5) 
-8.5199999999999996

>  <m_primary>  (5) 
energy

>  <rmsd>  (5) 
2.023743058819967

>  <m_score__min__rmsd>  (5) 
2.023743058819967

>  <meeko>  (5) 
{"free_energy": -8.15, "intermolecular_energy": -10.24, "internal_energy": -1.41, "cluster_size": 11, "cluster_id": 3, "rank_in_cluster": 2}

>  <energy>  (5) 
-8.41

>  <cluster_rmsd>  (5) 
0.52

>  <cluster>  (5) 
1

$$$$

     RDKit          3D

 50 53  0  0  0  0  0  0  0  0999 V2000
  140.7090   71.4230  221.1180 O   0  0  0  0  0  0  0  0  0  0  0  0
  140.2550   71.9930  222.1710 C   0  0  0  0  0  0  0  0  0  0  0  0
  139.9390   73.3790  222.1610 N   0  0  0  0  0  0  0  0  0  0  0  0
  140.0980   74.2310  221.0070 C   0  0  0  0  0  0  0  0  0  0  0  0
  140.9130   75.4420  221.3340 C   0  0  0  0  0  0  0  0  0  0  0  0
  140.5960   76.0430  222.3890 O   0  0  0  0  0  0  0  0  0  0  0  0
  141.9640   75.8380  220.4680 N   0  0  0  0  0  0  0  0  0  0  0  0
  142.7830   74.8850  219.6920 C   0  0  0  0  0  0  0  0  0  0  0  0
  142.6330   75.5680  218.3180 C   0  0  2  0  0  0  0  0  0  0  0  0
  143.5820   75.0240  217.4800 O   0  0  0  0  0  0  0  0  0  0  0  0
  142.9310   77.0020  218.7270 C   0  0  0  0  0  0  0  0  0  0  0  0
  142.4600   77.1710  220.1470 C   0  0  1  0  0  0  0  0  0  0  0  0
  141.4290   78.2270  220.3220 C   0  0  0  0  0  0  0  0  0  0  0  0
  141.6210   79.1630  221.4280 C   0  0  0  0  0  0  0  0  0  0  0  0
  141.7990   80.5180  221.3350 C   0  0  0  0  0  0  0  0  0  0  0  0
  141.9770   81.3260  222.4060 N   0  0  0  0  0  0  0  0  0  0  0  0
  141.9780   80.7680  223.6380 C   0  0  0  0  0  0  0  0  0  0  0  0
  141.8000   79.4150  223.7650 C   0  0  0  0  0  0  0  0  0  0  0  0
  141.6280   78.6400  222.6900 N   0  0  0  0  0  0  0  0  0  0  0  0
  140.0600   71.1960  223.4050 C   0  0  0  0  0  0  0  0  0  0  0  0
  139.4380   69.9690  223.3130 C   0  0  0  0  0  0  0  0  0  0  0  0
  139.2650   69.2350  224.4690 C   0  0  0  0  0  0  0  0  0  0  0  0
  139.7100   69.7370  225.6840 C   0  0  0  0  0  0  0  0  0  0  0  0
  139.5470   69.0220  226.8510 C   0  0  0  0  0  0  0  0  0  0  0  0
  140.0030   69.5520  228.0410 C   0  0  0  0  0  0  0  0  0  0  0  0
  139.8660   68.8880  229.2150 F   0  0  0  0  0  0  0  0  0  0  0  0
  140.6260   70.7920  228.1110 C   0  0  0  0  0  0  0  0  0  0  0  0
  140.7830   71.4970  226.9380 C   0  0  0  0  0  0  0  0  0  0  0  0
  140.3260   70.9680  225.7310 C   0  0  0  0  0  0  0  0  0  0  0  0
  140.4960   71.6900  224.5970 N   0  0  0  0  0  0  0  0  0  0  0  0
  139.5690   73.7610  223.0830 H   0  0  0  0  0  0  0  0  0  0  0  0
  140.6018   73.6645  220.2100 H   0  0  0  0  0  0  0  0  0  0  0  0
  139.1013   74.5613  220.6792 H   0  0  0  0  0  0  0  0  0  0  0  0
  143.8282   74.8554  220.0336 H   0  0  0  0  0  0  0  0  0  0  0  0
  142.4857   73.8274  219.7471 H   0  0  0  0  0  0  0  0  0  0  0  0
  141.6783   75.4657  217.7813 H   0  0  0  0  0  0  0  0  0  0  0  0
  144.4630   75.2820  217.8480 H   0  0  0  0  0  0  0  0  0  0  0  0
  144.0122   77.1942  218.6639 H   0  0  0  0  0  0  0  0  0  0  0  0
  142.4185   77.7111  218.0603 H   0  0  0  0  0  0  0  0  0  0  0  0
  143.2588   77.5210  220.8175 H   0  0  0  0  0  0  0  0  0  0  0  0
  141.3937   78.8140  219.3924 H   0  0  0  0  0  0  0  0  0  0  0  0
  140.5024   77.6854  220.5629 H   0  0  0  0  0  0  0  0  0  0  0  0
  141.7971   80.9747  220.3343 H   0  0  0  0  0  0  0  0  0  0  0  0
  142.1205   81.3948  224.5306 H   0  0  0  0  0  0  0  0  0  0  0  0
  141.7987   78.9603  224.7666 H   0  0  0  0  0  0  0  0  0  0  0  0
  139.0886   69.5849  222.3433 H   0  0  0  0  0  0  0  0  0  0  0  0
  138.7741   68.2515  224.4273 H   0  0  0  0  0  0  0  0  0  0  0  0
  139.0575   68.0371  226.8341 H   0  0  0  0  0  0  0  0  0  0  0  0
  140.9816   71.1968  229.0700 H   0  0  0  0  0  0  0  0  0  0  0  0
  141.2714   72.4825  226.9533 H   0  0  0  0  0  0  0  0  0  0  0  0
  1  2  2  0
  2  3  1  0
  3  4  1  0
  4  5  1  0
  5  6  2  0
  5  7  1  0
  7  8  1  0
  8  9  1  0
  9 10  1  0
  9 11  1  0
 11 12  1  0
 12 13  1  0
 13 14  1  0
 14 15  2  0
 15 16  1  0
 16 17  2  0
 17 18  1  0
 18 19  2  0
  2 20  1  0
 20 21  2  0
 21 22  1  0
 22 23  2  0
 23 24  1  0
 24 25  2  0
 25 26  1  0
 25 27  1  0
 27 28  2  0
 28 29  1  0
 29 30  2  0
 12  7  1  0
 19 14  1  0
 30 20  1  0
 29 23  1  0
  3 31  1  0
  4 32  1  0
  4 33  1  0
  8 34  1  0
  8 35  1  0
  9 36  1  6
 10 37  1  0
 11 38  1  0
 11 39  1  0
 12 40  1  1
 13 41  1  0
 13 42  1  0
 15 43  1  0
 17 44  1  0
 18 45  1  0
 21 46  1  0
 22 47  1  0
 24 48  1  0
 27 49  1  0
 28 50  1  0
M  END
>  <smiles>  (6) 
O=C(NCC(=O)N1C[C@H](O)C[C@H]1Cc1cnccn1)c1ccc2cc(F)ccc2n1

>  <score_type>  (6) 
oracle

>  <origin>  (6) 
autodockgpu

>  <m_score__min__energy>  (6) 
-8.5199999999999996

>  <m_primary>  (6) 
energy

>  <rmsd>  (6) 
1.9145955073419167

>  <m_score__min__rmsd>  (6) 
1.9145955073419167

>  <meeko>  (6) 
{"free_energy": -8.46, "intermolecular_energy": -10.55, "internal_energy": -1.41, "cluster_size": 21, "cluster_id": 1, "rank_in_cluster": 4}

>  <energy>  (6) 
-8.39

>  <cluster_rmsd>  (6) 
0.67

>  <cluster>  (6) 
1

$$$$

     RDKit          3D

 50 53  0  0  0  0  0  0  0  0999 V2000
  140.2380   71.6170  220.9860 O   0  0  0  0  0  0  0  0  0  0  0  0
  139.9960   72.1550  222.1220 C   0  0  0  0  0  0  0  0  0  0  0  0
  139.7490   73.5520  222.2200 N   0  0  0  0  0  0  0  0  0  0  0  0
  139.7510   74.4490  221.0890 C   0  0  0  0  0  0  0  0  0  0  0  0
  139.6100   75.8730  221.5250 C   0  0  0  0  0  0  0  0  0  0  0  0
  139.5710   76.0620  222.7650 O   0  0  0  0  0  0  0  0  0  0  0  0
  139.5280   76.9020  220.5530 N   0  0  0  0  0  0  0  0  0  0  0  0
  138.2510   77.4050  220.0050 C   0  0  0  0  0  0  0  0  0  0  0  0
  138.5170   78.9070  220.2320 C   0  0  2  0  0  0  0  0  0  0  0  0
  137.5810   79.6070  219.5010 O   0  0  0  0  0  0  0  0  0  0  0  0
  139.9240   78.9930  219.6620 C   0  0  0  0  0  0  0  0  0  0  0  0
  140.5880   77.6640  219.9050 C   0  0  1  0  0  0  0  0  0  0  0  0
  141.8240   77.7460  220.7270 C   0  0  0  0  0  0  0  0  0  0  0  0
  141.8090   78.6780  221.8530 C   0  0  0  0  0  0  0  0  0  0  0  0
  141.4550   78.3970  223.1460 C   0  0  0  0  0  0  0  0  0  0  0  0
  141.4610   79.3140  224.1410 N   0  0  0  0  0  0  0  0  0  0  0  0
  141.8380   80.5800  223.8450 C   0  0  0  0  0  0  0  0  0  0  0  0
  142.1990   80.8930  222.5610 C   0  0  0  0  0  0  0  0  0  0  0  0
  142.1840   79.9670  221.5970 N   0  0  0  0  0  0  0  0  0  0  0  0
  139.9740   71.3120  223.3400 C   0  0  0  0  0  0  0  0  0  0  0  0
  139.5280   70.0110  223.2400 C   0  0  0  0  0  0  0  0  0  0  0  0
  139.5150   69.2340  224.3800 C   0  0  0  0  0  0  0  0  0  0  0  0
  139.9430   69.7670  225.5890 C   0  0  0  0  0  0  0  0  0  0  0  0
  139.9380   69.0100  226.7410 C   0  0  0  0  0  0  0  0  0  0  0  0
  140.3710   69.5730  227.9240 C   0  0  0  0  0  0  0  0  0  0  0  0
  140.3850   68.8690  229.0840 F   0  0  0  0  0  0  0  0  0  0  0  0
  140.8150   70.8870  228.0030 C   0  0  0  0  0  0  0  0  0  0  0  0
  140.8150   71.6330  226.8450 C   0  0  0  0  0  0  0  0  0  0  0  0
  140.3800   71.0720  225.6440 C   0  0  0  0  0  0  0  0  0  0  0  0
  140.3930   71.8350  224.5260 N   0  0  0  0  0  0  0  0  0  0  0  0
  139.5580   73.9060  223.2050 H   0  0  0  0  0  0  0  0  0  0  0  0
  140.6983   74.3338  220.5419 H   0  0  0  0  0  0  0  0  0  0  0  0
  138.8963   74.1969  220.4441 H   0  0  0  0  0  0  0  0  0  0  0  0
  138.1250   77.1576  218.9406 H   0  0  0  0  0  0  0  0  0  0  0  0
  137.3325   76.9979  220.4529 H   0  0  0  0  0  0  0  0  0  0  0  0
  138.4452   79.3052  221.2549 H   0  0  0  0  0  0  0  0  0  0  0  0
  137.5220   79.1610  218.6200 H   0  0  0  0  0  0  0  0  0  0  0  0
  139.8807   79.2003  218.5826 H   0  0  0  0  0  0  0  0  0  0  0  0
  140.4898   79.8045  220.1429 H   0  0  0  0  0  0  0  0  0  0  0  0
  140.9615   77.2039  218.9783 H   0  0  0  0  0  0  0  0  0  0  0  0
  142.0226   76.7417  221.1295 H   0  0  0  0  0  0  0  0  0  0  0  0
  142.5964   78.1321  220.0456 H   0  0  0  0  0  0  0  0  0  0  0  0
  141.1488   77.3688  223.3890 H   0  0  0  0  0  0  0  0  0  0  0  0
  141.8544   81.3513  224.6291 H   0  0  0  0  0  0  0  0  0  0  0  0
  142.5057   81.9215  222.3198 H   0  0  0  0  0  0  0  0  0  0  0  0
  139.1911   69.6030  222.2756 H   0  0  0  0  0  0  0  0  0  0  0  0
  139.1656   68.1921  224.3314 H   0  0  0  0  0  0  0  0  0  0  0  0
  139.5918   67.9662  226.7174 H   0  0  0  0  0  0  0  0  0  0  0  0
  141.1547   71.3167  228.9569 H   0  0  0  0  0  0  0  0  0  0  0  0
  141.1600   72.6773  226.8674 H   0  0  0  0  0  0  0  0  0  0  0  0
  1  2  2  0
  2  3  1  0
  3  4  1  0
  4  5  1  0
  5  6  2  0
  5  7  1  0
  7  8  1  0
  8  9  1  0
  9 10  1  0
  9 11  1  0
 11 12  1  0
 12 13  1  0
 13 14  1  0
 14 15  2  0
 15 16  1  0
 16 17  2  0
 17 18  1  0
 18 19  2  0
  2 20  1  0
 20 21  2  0
 21 22  1  0
 22 23  2  0
 23 24  1  0
 24 25  2  0
 25 26  1  0
 25 27  1  0
 27 28  2  0
 28 29  1  0
 29 30  2  0
 12  7  1  0
 19 14  1  0
 30 20  1  0
 29 23  1  0
  3 31  1  0
  4 32  1  0
  4 33  1  0
  8 34  1  0
  8 35  1  0
  9 36  1  1
 10 37  1  0
 11 38  1  0
 11 39  1  0
 12 40  1  6
 13 41  1  0
 13 42  1  0
 15 43  1  0
 17 44  1  0
 18 45  1  0
 21 46  1  0
 22 47  1  0
 24 48  1  0
 27 49  1  0
 28 50  1  0
M  END
>  <smiles>  (7) 
O=C(NCC(=O)N1C[C@H](O)C[C@H]1Cc1cnccn1)c1ccc2cc(F)ccc2n1

>  <score_type>  (7) 
oracle

>  <origin>  (7) 
autodockgpu

>  <m_score__min__energy>  (7) 
-8.5199999999999996

>  <m_primary>  (7) 
energy

>  <rmsd>  (7) 
1.9652166830672817

>  <m_score__min__rmsd>  (7) 
1.9652166830672817

>  <meeko>  (7) 
{"free_energy": -7.24, "intermolecular_energy": -9.33, "internal_energy": -2.05, "cluster_size": 21, "cluster_id": 1, "rank_in_cluster": 20}

>  <energy>  (7) 
-8.38

>  <cluster_rmsd>  (7) 
0.56

>  <cluster>  (7) 
1

$$$$

     RDKit          3D

 50 53  0  0  0  0  0  0  0  0999 V2000
  140.4740   71.1290  221.0460 O   0  0  0  0  0  0  0  0  0  0  0  0
  140.2060   71.7540  222.1300 C   0  0  0  0  0  0  0  0  0  0  0  0
  140.0940   73.1710  222.1360 N   0  0  0  0  0  0  0  0  0  0  0  0
  140.2660   73.9960  220.9640 C   0  0  0  0  0  0  0  0  0  0  0  0
  140.9600   75.2780  221.3000 C   0  0  0  0  0  0  0  0  0  0  0  0
  140.5650   75.8560  222.3410 O   0  0  0  0  0  0  0  0  0  0  0  0
  141.9920   75.7620  220.4550 N   0  0  0  0  0  0  0  0  0  0  0  0
  142.8260   74.8870  219.6060 C   0  0  0  0  0  0  0  0  0  0  0  0
  142.6450   75.6630  218.2860 C   0  0  2  0  0  0  0  0  0  0  0  0
  143.5990   75.2040  217.4030 O   0  0  0  0  0  0  0  0  0  0  0  0
  142.9120   77.0710  218.7940 C   0  0  0  0  0  0  0  0  0  0  0  0
  142.4510   77.1260  220.2250 C   0  0  1  0  0  0  0  0  0  0  0  0
  141.3950   78.1400  220.4840 C   0  0  0  0  0  0  0  0  0  0  0  0
  141.5580   78.9780  221.6710 C   0  0  0  0  0  0  0  0  0  0  0  0
  141.3180   78.6170  222.9690 C   0  0  0  0  0  0  0  0  0  0  0  0
  141.4860   79.4500  224.0230 N   0  0  0  0  0  0  0  0  0  0  0  0
  141.9180   80.7100  223.7820 C   0  0  0  0  0  0  0  0  0  0  0  0
  142.1690   81.1020  222.4930 C   0  0  0  0  0  0  0  0  0  0  0  0
  141.9930   80.2580  221.4710 N   0  0  0  0  0  0  0  0  0  0  0  0
  140.0140   70.9900  223.3850 C   0  0  0  0  0  0  0  0  0  0  0  0
  139.4060   69.7540  223.3240 C   0  0  0  0  0  0  0  0  0  0  0  0
  139.2360   69.0500  224.4980 C   0  0  0  0  0  0  0  0  0  0  0  0
  139.6690   69.5900  225.7010 C   0  0  0  0  0  0  0  0  0  0  0  0
  139.5080   68.9050  226.8870 C   0  0  0  0  0  0  0  0  0  0  0  0
  139.9510   69.4730  228.0640 C   0  0  0  0  0  0  0  0  0  0  0  0
  139.8160   68.8390  229.2550 F   0  0  0  0  0  0  0  0  0  0  0  0
  140.5600   70.7210  228.1030 C   0  0  0  0  0  0  0  0  0  0  0  0
  140.7150   71.3960  226.9110 C   0  0  0  0  0  0  0  0  0  0  0  0
  140.2700   70.8290  225.7170 C   0  0  0  0  0  0  0  0  0  0  0  0
  140.4390   71.5210  224.5650 N   0  0  0  0  0  0  0  0  0  0  0  0
  139.8700   73.6000  223.0840 H   0  0  0  0  0  0  0  0  0  0  0  0
  140.8663   73.4467  220.2238 H   0  0  0  0  0  0  0  0  0  0  0  0
  139.2719   74.2349  220.5581 H   0  0  0  0  0  0  0  0  0  0  0  0
  143.8751   74.8590  219.9356 H   0  0  0  0  0  0  0  0  0  0  0  0
  142.5553   73.8210  219.5878 H   0  0  0  0  0  0  0  0  0  0  0  0
  141.6875   75.5757  217.7516 H   0  0  0  0  0  0  0  0  0  0  0  0
  144.4780   75.4060  217.8090 H   0  0  0  0  0  0  0  0  0  0  0  0
  143.9876   77.2942  218.7363 H   0  0  0  0  0  0  0  0  0  0  0  0
  142.3762   77.8130  218.1838 H   0  0  0  0  0  0  0  0  0  0  0  0
  143.2479   77.4480  220.9115 H   0  0  0  0  0  0  0  0  0  0  0  0
  141.3533   78.8067  219.6100 H   0  0  0  0  0  0  0  0  0  0  0  0
  140.4791   77.5590  220.6673 H   0  0  0  0  0  0  0  0  0  0  0  0
  140.9691   77.5928  223.1671 H   0  0  0  0  0  0  0  0  0  0  0  0
  142.0664   81.4138  224.6143 H   0  0  0  0  0  0  0  0  0  0  0  0
  142.5203   82.1257  222.2964 H   0  0  0  0  0  0  0  0  0  0  0  0
  139.0652   69.3399  222.3636 H   0  0  0  0  0  0  0  0  0  0  0  0
  138.7569   68.0600  224.4807 H   0  0  0  0  0  0  0  0  0  0  0  0
  139.0304   67.9141  226.8947 H   0  0  0  0  0  0  0  0  0  0  0  0
  140.9066   71.1556  229.0522 H   0  0  0  0  0  0  0  0  0  0  0  0
  141.1922   72.3871  226.9015 H   0  0  0  0  0  0  0  0  0  0  0  0
  1  2  2  0
  2  3  1  0
  3  4  1  0
  4  5  1  0
  5  6  2  0
  5  7  1  0
  7  8  1  0
  8  9  1  0
  9 10  1  0
  9 11  1  0
 11 12  1  0
 12 13  1  0
 13 14  1  0
 14 15  2  0
 15 16  1  0
 16 17  2  0
 17 18  1  0
 18 19  2  0
  2 20  1  0
 20 21  2  0
 21 22  1  0
 22 23  2  0
 23 24  1  0
 24 25  2  0
 25 26  1  0
 25 27  1  0
 27 28  2  0
 28 29  1  0
 29 30  2  0
 12  7  1  0
 19 14  1  0
 30 20  1  0
 29 23  1  0
  3 31  1  0
  4 32  1  0
  4 33  1  0
  8 34  1  0
  8 35  1  0
  9 36  1  6
 10 37  1  0
 11 38  1  0
 11 39  1  0
 12 40  1  1
 13 41  1  0
 13 42  1  0
 15 43  1  0
 17 44  1  0
 18 45  1  0
 21 46  1  0
 22 47  1  0
 24 48  1  0
 27 49  1  0
 28 50  1  0
M  END
>  <smiles>  (8) 
O=C(NCC(=O)N1C[C@H](O)C[C@H]1Cc1cnccn1)c1ccc2cc(F)ccc2n1

>  <score_type>  (8) 
oracle

>  <origin>  (8) 
autodockgpu

>  <m_score__min__energy>  (8) 
-8.5199999999999996

>  <m_primary>  (8) 
energy

>  <rmsd>  (8) 
1.9021308275524667

>  <m_score__min__rmsd>  (8) 
1.9021308275524667

>  <meeko>  (8) 
{"free_energy": -8.19, "intermolecular_energy": -10.28, "internal_energy": -1.55, "cluster_size": 21, "cluster_id": 1, "rank_in_cluster": 11}

>  <energy>  (8) 
-8.37

>  <cluster_rmsd>  (8) 
0.56

>  <cluster>  (8) 
1

$$$$

     RDKit          3D

 50 53  0  0  0  0  0  0  0  0999 V2000
  141.1510   71.7960  221.2430 O   0  0  0  0  0  0  0  0  0  0  0  0
  140.4080   72.2340  222.1890 C   0  0  0  0  0  0  0  0  0  0  0  0
  139.7960   73.5130  222.0910 N   0  0  0  0  0  0  0  0  0  0  0  0
  139.9560   74.3960  220.9600 C   0  0  0  0  0  0  0  0  0  0  0  0
  140.8080   75.5750  221.3070 C   0  0  0  0  0  0  0  0  0  0  0  0
  140.4830   76.1950  222.3490 O   0  0  0  0  0  0  0  0  0  0  0  0
  141.9010   75.9240  220.4730 N   0  0  0  0  0  0  0  0  0  0  0  0
  142.7070   74.9340  219.7300 C   0  0  0  0  0  0  0  0  0  0  0  0
  142.6270   75.6110  218.3480 C   0  0  2  0  0  0  0  0  0  0  0  0
  143.5810   75.0240  217.5440 O   0  0  0  0  0  0  0  0  0  0  0  0
  142.9660   77.0360  218.7550 C   0  0  0  0  0  0  0  0  0  0  0  0
  142.4570   77.2340  220.1580 C   0  0  1  0  0  0  0  0  0  0  0  0
  141.4610   78.3300  220.2910 C   0  0  0  0  0  0  0  0  0  0  0  0
  141.6190   79.2330  221.4300 C   0  0  0  0  0  0  0  0  0  0  0  0
  141.8350   78.8790  222.7350 C   0  0  0  0  0  0  0  0  0  0  0  0
  141.9670   79.7720  223.7430 N   0  0  0  0  0  0  0  0  0  0  0  0
  141.8830   81.0900  223.4470 C   0  0  0  0  0  0  0  0  0  0  0  0
  141.6690   81.4780  222.1500 C   0  0  0  0  0  0  0  0  0  0  0  0
  141.5410   80.5730  221.1740 N   0  0  0  0  0  0  0  0  0  0  0  0
  140.1870   71.3970  223.3910 C   0  0  0  0  0  0  0  0  0  0  0  0
  139.5100   70.2030  223.2540 C   0  0  0  0  0  0  0  0  0  0  0  0
  139.3140   69.4300  224.3810 C   0  0  0  0  0  0  0  0  0  0  0  0
  139.7900   69.8610  225.6110 C   0  0  0  0  0  0  0  0  0  0  0  0
  139.6050   69.1060  226.7500 C   0  0  0  0  0  0  0  0  0  0  0  0
  140.0930   69.5660  227.9550 C   0  0  0  0  0  0  0  0  0  0  0  0
  139.9360   68.8600  229.1030 F   0  0  0  0  0  0  0  0  0  0  0  0
  140.7710   70.7730  228.0710 C   0  0  0  0  0  0  0  0  0  0  0  0
  140.9500   71.5190  226.9260 C   0  0  0  0  0  0  0  0  0  0  0  0
  140.4600   71.0610  225.7030 C   0  0  0  0  0  0  0  0  0  0  0  0
  140.6540   71.8200  224.5980 N   0  0  0  0  0  0  0  0  0  0  0  0
  139.1970   73.7900  222.9260 H   0  0  0  0  0  0  0  0  0  0  0  0
  140.4299   73.8414  220.1367 H   0  0  0  0  0  0  0  0  0  0  0  0
  138.9623   74.7616  220.6619 H   0  0  0  0  0  0  0  0  0  0  0  0
  143.7389   74.8671  220.1050 H   0  0  0  0  0  0  0  0  0  0  0  0
  142.3677   73.8890  219.7827 H   0  0  0  0  0  0  0  0  0  0  0  0
  141.6863   75.5407  217.7823 H   0  0  0  0  0  0  0  0  0  0  0  0
  144.4550   75.3880  217.8340 H   0  0  0  0  0  0  0  0  0  0  0  0
  144.0552   77.1871  218.7249 H   0  0  0  0  0  0  0  0  0  0  0  0
  142.5024   77.7583  218.0670 H   0  0  0  0  0  0  0  0  0  0  0  0
  143.2467   77.5586  220.8515 H   0  0  0  0  0  0  0  0  0  0  0  0
  141.5116   78.9378  219.3756 H   0  0  0  0  0  0  0  0  0  0  0  0
  140.4986   77.8241  220.4576 H   0  0  0  0  0  0  0  0  0  0  0  0
  141.9052   77.8084  222.9776 H   0  0  0  0  0  0  0  0  0  0  0  0
  141.9857   81.8440  224.2413 H   0  0  0  0  0  0  0  0  0  0  0  0
  141.6016   82.5491  221.9085 H   0  0  0  0  0  0  0  0  0  0  0  0
  139.1362   69.8754  222.2727 H   0  0  0  0  0  0  0  0  0  0  0  0
  138.7799   68.4715  224.3037 H   0  0  0  0  0  0  0  0  0  0  0  0
  139.0726   68.1448  226.6978 H   0  0  0  0  0  0  0  0  0  0  0  0
  141.1516   71.1211  229.0426 H   0  0  0  0  0  0  0  0  0  0  0  0
  141.4820   72.4805  226.9769 H   0  0  0  0  0  0  0  0  0  0  0  0
  1  2  2  0
  2  3  1  0
  3  4  1  0
  4  5  1  0
  5  6  2  0
  5  7  1  0
  7  8  1  0
  8  9  1  0
  9 10  1  0
  9 11  1  0
 11 12  1  0
 12 13  1  0
 13 14  1  0
 14 15  2  0
 15 16  1  0
 16 17  2  0
 17 18  1  0
 18 19  2  0
  2 20  1  0
 20 21  2  0
 21 22  1  0
 22 23  2  0
 23 24  1  0
 24 25  2  0
 25 26  1  0
 25 27  1  0
 27 28  2  0
 28 29  1  0
 29 30  2  0
 12  7  1  0
 19 14  1  0
 30 20  1  0
 29 23  1  0
  3 31  1  0
  4 32  1  0
  4 33  1  0
  8 34  1  0
  8 35  1  0
  9 36  1  6
 10 37  1  0
 11 38  1  0
 11 39  1  0
 12 40  1  1
 13 41  1  0
 13 42  1  0
 15 43  1  0
 17 44  1  0
 18 45  1  0
 21 46  1  0
 22 47  1  0
 24 48  1  0
 27 49  1  0
 28 50  1  0
M  END
>  <smiles>  (9) 
O=C(NCC(=O)N1C[C@H](O)C[C@H]1Cc1cnccn1)c1ccc2cc(F)ccc2n1

>  <score_type>  (9) 
oracle

>  <origin>  (9) 
autodockgpu

>  <m_score__min__energy>  (9) 
-8.5199999999999996

>  <m_primary>  (9) 
energy

>  <rmsd>  (9) 
1.9387920666539782

>  <m_score__min__rmsd>  (9) 
1.9387920666539782

>  <meeko>  (9) 
{"free_energy": -8.52, "intermolecular_energy": -10.6, "internal_energy": -1.3, "cluster_size": 21, "cluster_id": 1, "rank_in_cluster": 1}

>  <energy>  (9) 
-8.29

>  <cluster_rmsd>  (9) 
0.68

>  <cluster>  (9) 
1

$$$$

     RDKit          3D

 50 53  0  0  0  0  0  0  0  0999 V2000
  140.4920   71.5410  221.0220 O   0  0  0  0  0  0  0  0  0  0  0  0
  140.1260   72.0890  222.1190 C   0  0  0  0  0  0  0  0  0  0  0  0
  139.8630   73.4850  222.1740 N   0  0  0  0  0  0  0  0  0  0  0  0
  139.9820   74.3700  221.0390 C   0  0  0  0  0  0  0  0  0  0  0  0
  140.6760   75.6420  221.4130 C   0  0  0  0  0  0  0  0  0  0  0  0
  140.3010   76.1720  222.4870 O   0  0  0  0  0  0  0  0  0  0  0  0
  141.6870   76.1660  220.5680 N   0  0  0  0  0  0  0  0  0  0  0  0
  142.4890   75.3370  219.6460 C   0  0  0  0  0  0  0  0  0  0  0  0
  142.2760   76.1880  218.3780 C   0  0  2  0  0  0  0  0  0  0  0  0
  143.1990   75.7750  217.4420 O   0  0  0  0  0  0  0  0  0  0  0  0
  142.5670   77.5630  218.9570 C   0  0  0  0  0  0  0  0  0  0  0  0
  142.1490   77.5390  220.4020 C   0  0  1  0  0  0  0  0  0  0  0  0
  141.1080   78.5430  220.7490 C   0  0  0  0  0  0  0  0  0  0  0  0
  141.4530   79.5270  221.7730 C   0  0  0  0  0  0  0  0  0  0  0  0
  141.1650   80.8660  221.7560 C   0  0  0  0  0  0  0  0  0  0  0  0
  141.5210   81.7230  222.7410 N   0  0  0  0  0  0  0  0  0  0  0  0
  142.1990   81.2320  223.8050 C   0  0  0  0  0  0  0  0  0  0  0  0
  142.5020   79.8960  223.8530 C   0  0  0  0  0  0  0  0  0  0  0  0
  142.1390   79.0720  222.8650 N   0  0  0  0  0  0  0  0  0  0  0  0
  139.9780   71.2590  223.3370 C   0  0  0  0  0  0  0  0  0  0  0  0
  139.4100   70.0070  223.2230 C   0  0  0  0  0  0  0  0  0  0  0  0
  139.2800   69.2420  224.3640 C   0  0  0  0  0  0  0  0  0  0  0  0
  139.7140   69.7360  225.5860 C   0  0  0  0  0  0  0  0  0  0  0  0
  139.5940   68.9900  226.7390 C   0  0  0  0  0  0  0  0  0  0  0  0
  140.0380   69.5140  227.9350 C   0  0  0  0  0  0  0  0  0  0  0  0
  139.9410   68.8190  229.0960 F   0  0  0  0  0  0  0  0  0  0  0  0
  140.6060   70.7780  228.0280 C   0  0  0  0  0  0  0  0  0  0  0  0
  140.7210   71.5140  226.8690 C   0  0  0  0  0  0  0  0  0  0  0  0
  140.2760   70.9920  225.6550 C   0  0  0  0  0  0  0  0  0  0  0  0
  140.4040   71.7450  224.5360 N   0  0  0  0  0  0  0  0  0  0  0  0
  139.5650   73.8490  223.1280 H   0  0  0  0  0  0  0  0  0  0  0  0
  140.5589   73.8655  220.2499 H   0  0  0  0  0  0  0  0  0  0  0  0
  138.9708   74.6173  220.6835 H   0  0  0  0  0  0  0  0  0  0  0  0
  143.5470   75.2840  219.9425 H   0  0  0  0  0  0  0  0  0  0  0  0
  142.2094   74.2755  219.5747 H   0  0  0  0  0  0  0  0  0  0  0  0
  141.3028   76.1365  217.8678 H   0  0  0  0  0  0  0  0  0  0  0  0
  142.7110   75.6880  216.5860 H   0  0  0  0  0  0  0  0  0  0  0  0
  143.6418   77.7839  218.8799 H   0  0  0  0  0  0  0  0  0  0  0  0
  142.0181   78.3410  218.4062 H   0  0  0  0  0  0  0  0  0  0  0  0
  142.9680   77.8168  221.0818 H   0  0  0  0  0  0  0  0  0  0  0  0
  140.8580   79.0935  219.8301 H   0  0  0  0  0  0  0  0  0  0  0  0
  140.2800   77.9603  221.1790 H   0  0  0  0  0  0  0  0  0  0  0  0
  140.6133   81.2673  220.8931 H   0  0  0  0  0  0  0  0  0  0  0  0
  142.5042   81.8996  224.6242 H   0  0  0  0  0  0  0  0  0  0  0  0
  143.0521   79.4960  224.7175 H   0  0  0  0  0  0  0  0  0  0  0  0
  139.0696   69.6284  222.2479 H   0  0  0  0  0  0  0  0  0  0  0  0
  138.8317   68.2392  224.3048 H   0  0  0  0  0  0  0  0  0  0  0  0
  139.1478   67.9851  226.7054 H   0  0  0  0  0  0  0  0  0  0  0  0
  140.9518   71.1773  228.9929 H   0  0  0  0  0  0  0  0  0  0  0  0
  141.1664   72.5193  226.9015 H   0  0  0  0  0  0  0  0  0  0  0  0
  1  2  2  0
  2  3  1  0
  3  4  1  0
  4  5  1  0
  5  6  2  0
  5  7  1  0
  7  8  1  0
  8  9  1  0
  9 10  1  0
  9 11  1  0
 11 12  1  0
 12 13  1  0
 13 14  1  0
 14 15  2  0
 15 16  1  0
 16 17  2  0
 17 18  1  0
 18 19  2  0
  2 20  1  0
 20 21  2  0
 21 22  1  0
 22 23  2  0
 23 24  1  0
 24 25  2  0
 25 26  1  0
 25 27  1  0
 27 28  2  0
 28 29  1  0
 29 30  2  0
 12  7  1  0
 19 14  1  0
 30 20  1  0
 29 23  1  0
  3 31  1  0
  4 32  1  0
  4 33  1  0
  8 34  1  0
  8 35  1  0
  9 36  1  6
 10 37  1  0
 11 38  1  0
 11 39  1  0
 12 40  1  1
 13 41  1  0
 13 42  1  0
 15 43  1  0
 17 44  1  0
 18 45  1  0
 21 46  1  0
 22 47  1  0
 24 48  1  0
 27 49  1  0
 28 50  1  0
M  END
>  <smiles>  (10) 
O=C(NCC(=O)N1C[C@H](O)C[C@H]1Cc1cnccn1)c1ccc2cc(F)ccc2n1

>  <score_type>  (10) 
oracle

>  <origin>  (10) 
autodockgpu

>  <m_score__min__energy>  (10) 
-8.5199999999999996

>  <m_primary>  (10) 
energy

>  <rmsd>  (10) 
1.797380495986518

>  <m_score__min__rmsd>  (10) 
1.797380495986518

>  <meeko>  (10) 
{"free_energy": -7.95, "intermolecular_energy": -10.04, "internal_energy": -1.47, "cluster_size": 21, "cluster_id": 1, "rank_in_cluster": 14}

>  <energy>  (10) 
-8.25

>  <cluster_rmsd>  (10) 
0.59

>  <cluster>  (10) 
1

$$$$

     RDKit          3D

 50 53  0  0  0  0  0  0  0  0999 V2000
  140.1380   73.5850  222.3940 O   0  0  0  0  0  0  0  0  0  0  0  0
  140.2030   72.3160  222.2430 C   0  0  0  0  0  0  0  0  0  0  0  0
  140.3460   71.7510  220.9460 N   0  0  0  0  0  0  0  0  0  0  0  0
  140.4250   72.5320  219.7340 C   0  0  0  0  0  0  0  0  0  0  0  0
  141.7700   72.4010  219.0920 C   0  0  0  0  0  0  0  0  0  0  0  0
  141.7830   71.8660  217.9570 O   0  0  0  0  0  0  0  0  0  0  0  0
  142.9230   72.8700  219.7720 N   0  0  0  0  0  0  0  0  0  0  0  0
  144.2600   72.2600  219.6250 C   0  0  0  0  0  0  0  0  0  0  0  0
  145.0380   73.5570  219.3270 C   0  0  2  0  0  0  0  0  0  0  0  0
  146.3800   73.2750  219.4630 O   0  0  0  0  0  0  0  0  0  0  0  0
  144.4830   74.4330  220.4390 C   0  0  0  0  0  0  0  0  0  0  0  0
  143.0730   73.9800  220.7050 C   0  0  1  0  0  0  0  0  0  0  0  0
  142.0490   75.0400  220.5090 C   0  0  0  0  0  0  0  0  0  0  0  0
  142.3300   76.0510  219.4910 C   0  0  0  0  0  0  0  0  0  0  0  0
  142.2570   77.4100  219.6430 C   0  0  0  0  0  0  0  0  0  0  0  0
  142.5280   78.2910  218.6520 N   0  0  0  0  0  0  0  0  0  0  0  0
  142.8920   77.8050  217.4430 C   0  0  0  0  0  0  0  0  0  0  0  0
  142.9750   76.4490  217.2590 C   0  0  0  0  0  0  0  0  0  0  0  0
  142.7010   75.6020  218.2560 N   0  0  0  0  0  0  0  0  0  0  0  0
  140.1290   71.4350  223.4310 C   0  0  0  0  0  0  0  0  0  0  0  0
  139.5600   70.1850  223.2980 C   0  0  0  0  0  0  0  0  0  0  0  0
  139.4990   69.3720  224.4110 C   0  0  0  0  0  0  0  0  0  0  0  0
  140.0010   69.8180  225.6260 C   0  0  0  0  0  0  0  0  0  0  0  0
  139.9510   69.0230  226.7510 C   0  0  0  0  0  0  0  0  0  0  0  0
  140.4600   69.5000  227.9420 C   0  0  0  0  0  0  0  0  0  0  0  0
  140.4340   68.7560  229.0750 F   0  0  0  0  0  0  0  0  0  0  0  0
  141.0290   70.7630  228.0540 C   0  0  0  0  0  0  0  0  0  0  0  0
  141.0730   71.5480  226.9230 C   0  0  0  0  0  0  0  0  0  0  0  0
  140.5610   71.0730  225.7150 C   0  0  0  0  0  0  0  0  0  0  0  0
  140.6210   71.8730  224.6230 N   0  0  0  0  0  0  0  0  0  0  0  0
  140.3910   70.6890  220.9220 H   0  0  0  0  0  0  0  0  0  0  0  0
  139.6559   72.1809  219.0303 H   0  0  0  0  0  0  0  0  0  0  0  0
  140.2631   73.5894  219.9901 H   0  0  0  0  0  0  0  0  0  0  0  0
  144.6009   71.7695  220.5487 H   0  0  0  0  0  0  0  0  0  0  0  0
  144.3504   71.4543  218.8816 H   0  0  0  0  0  0  0  0  0  0  0  0
  144.9367   74.0141  218.3316 H   0  0  0  0  0  0  0  0  0  0  0  0
  146.8600   74.1330  219.3470 H   0  0  0  0  0  0  0  0  0  0  0  0
  145.0926   74.3190  221.3475 H   0  0  0  0  0  0  0  0  0  0  0  0
  144.5024   75.4930  220.1457 H   0  0  0  0  0  0  0  0  0  0  0  0
  142.9118   73.7001  221.7565 H   0  0  0  0  0  0  0  0  0  0  0  0
  141.1062   74.5445  220.2339 H   0  0  0  0  0  0  0  0  0  0  0  0
  142.0211   75.5912  221.4605 H   0  0  0  0  0  0  0  0  0  0  0  0
  141.9617   77.8077  220.6252 H   0  0  0  0  0  0  0  0  0  0  0  0
  143.1194   78.4921  216.6146 H   0  0  0  0  0  0  0  0  0  0  0  0
  143.2714   76.0524  216.2767 H   0  0  0  0  0  0  0  0  0  0  0  0
  139.1651   69.8453  222.3292 H   0  0  0  0  0  0  0  0  0  0  0  0
  139.0522   68.3696  224.3356 H   0  0  0  0  0  0  0  0  0  0  0  0
  139.5092   68.0169  226.7000 H   0  0  0  0  0  0  0  0  0  0  0  0
  141.4304   71.1233  229.0127 H   0  0  0  0  0  0  0  0  0  0  0  0
  141.5140   72.5545  226.9724 H   0  0  0  0  0  0  0  0  0  0  0  0
  1  2  2  0
  2  3  1  0
  3  4  1  0
  4  5  1  0
  5  6  2  0
  5  7  1  0
  7  8  1  0
  8  9  1  0
  9 10  1  0
  9 11  1  0
 11 12  1  0
 12 13  1  0
 13 14  1  0
 14 15  2  0
 15 16  1  0
 16 17  2  0
 17 18  1  0
 18 19  2  0
  2 20  1  0
 20 21  2  0
 21 22  1  0
 22 23  2  0
 23 24  1  0
 24 25  2  0
 25 26  1  0
 25 27  1  0
 27 28  2  0
 28 29  1  0
 29 30  2  0
 12  7  1  0
 19 14  1  0
 30 20  1  0
 29 23  1  0
  3 31  1  0
  4 32  1  0
  4 33  1  0
  8 34  1  0
  8 35  1  0
  9 36  1  6
 10 37  1  0
 11 38  1  0
 11 39  1  0
 12 40  1  1
 13 41  1  0
 13 42  1  0
 15 43  1  0
 17 44  1  0
 18 45  1  0
 21 46  1  0
 22 47  1  0
 24 48  1  0
 27 49  1  0
 28 50  1  0
M  END
>  <smiles>  (11) 
O=C(NCC(=O)N1C[C@H](O)C[C@H]1Cc1cnccn1)c1ccc2cc(F)ccc2n1

>  <score_type>  (11) 
oracle

>  <origin>  (11) 
autodockgpu

>  <m_score__min__energy>  (11) 
-8.5199999999999996

>  <m_primary>  (11) 
energy

>  <rmsd>  (11) 
3.3746680942326543

>  <m_score__min__rmsd>  (11) 
3.3746680942326543

>  <meeko>  (11) 
{"free_energy": -7.84, "intermolecular_energy": -9.92, "internal_energy": -1.43, "cluster_size": 4, "cluster_id": 4, "rank_in_cluster": 4}

>  <energy>  (11) 
-8.19

>  <cluster_rmsd>  (11) 
0.43

>  <cluster>  (11) 
1

$$$$

     RDKit          3D

 50 53  0  0  0  0  0  0  0  0999 V2000
  141.3190   72.4090  221.8260 O   0  0  0  0  0  0  0  0  0  0  0  0
  140.2840   72.4310  222.5780 C   0  0  0  0  0  0  0  0  0  0  0  0
  139.2420   73.3680  222.3430 N   0  0  0  0  0  0  0  0  0  0  0  0
  139.2600   74.3390  221.2750 C   0  0  0  0  0  0  0  0  0  0  0  0
  139.8140   75.6490  221.7420 C   0  0  0  0  0  0  0  0  0  0  0  0
  140.9380   75.5980  222.2970 O   0  0  0  0  0  0  0  0  0  0  0  0
  139.0680   76.8390  221.5430 N   0  0  0  0  0  0  0  0  0  0  0  0
  137.7090   77.0470  222.0800 C   0  0  0  0  0  0  0  0  0  0  0  0
  137.9660   78.4140  222.7450 C   0  0  2  0  0  0  0  0  0  0  0  0
  136.7390   78.9640  223.0490 O   0  0  0  0  0  0  0  0  0  0  0  0
  138.6790   79.1120  221.5970 C   0  0  0  0  0  0  0  0  0  0  0  0
  139.4240   78.0570  220.8240 C   0  0  1  0  0  0  0  0  0  0  0  0
  140.8920   78.2780  220.7580 C   0  0  0  0  0  0  0  0  0  0  0  0
  141.4990   79.0290  221.8560 C   0  0  0  0  0  0  0  0  0  0  0  0
  142.1980   80.2020  221.7600 C   0  0  0  0  0  0  0  0  0  0  0  0
  142.7390   80.8420  222.8230 N   0  0  0  0  0  0  0  0  0  0  0  0
  142.5800   80.2940  224.0510 C   0  0  0  0  0  0  0  0  0  0  0  0
  141.8840   79.1200  224.1800 C   0  0  0  0  0  0  0  0  0  0  0  0
  141.3610   78.5100  223.1130 N   0  0  0  0  0  0  0  0  0  0  0  0
  140.1780   71.4700  223.7010 C   0  0  0  0  0  0  0  0  0  0  0  0
  139.5910   70.2430  223.4740 C   0  0  0  0  0  0  0  0  0  0  0  0
  139.5010   69.3560  224.5260 C   0  0  0  0  0  0  0  0  0  0  0  0
  139.9910   69.7080  225.7760 C   0  0  0  0  0  0  0  0  0  0  0  0
  139.9110   68.8380  226.8430 C   0  0  0  0  0  0  0  0  0  0  0  0
  140.4110   69.2220  228.0700 C   0  0  0  0  0  0  0  0  0  0  0  0
  140.3550   68.4020  229.1490 F   0  0  0  0  0  0  0  0  0  0  0  0
  140.9970   70.4640  228.2780 C   0  0  0  0  0  0  0  0  0  0  0  0
  141.0710   71.3250  227.2050 C   0  0  0  0  0  0  0  0  0  0  0  0
  140.5700   70.9450  225.9600 C   0  0  0  0  0  0  0  0  0  0  0  0
  140.6590   71.8170  224.9280 N   0  0  0  0  0  0  0  0  0  0  0  0
  138.4230   73.3090  223.0200 H   0  0  0  0  0  0  0  0  0  0  0  0
  139.8850   73.9576  220.4541 H   0  0  0  0  0  0  0  0  0  0  0  0
  138.2267   74.5001  220.9340 H   0  0  0  0  0  0  0  0  0  0  0  0
  136.9488   77.1029  221.2869 H   0  0  0  0  0  0  0  0  0  0  0  0
  137.3140   76.2533  222.7312 H   0  0  0  0  0  0  0  0  0  0  0  0
  138.5379   78.4420  223.6842 H   0  0  0  0  0  0  0  0  0  0  0  0
  136.1780   78.2250  223.3920 H   0  0  0  0  0  0  0  0  0  0  0  0
  137.9455   79.6086  220.9449 H   0  0  0  0  0  0  0  0  0  0  0  0
  139.3714   79.8776  221.9771 H   0  0  0  0  0  0  0  0  0  0  0  0
  139.1486   78.0409  219.7592 H   0  0  0  0  0  0  0  0  0  0  0  0
  141.3753   77.2905  220.7240 H   0  0  0  0  0  0  0  0  0  0  0  0
  141.0479   78.9007  219.8647 H   0  0  0  0  0  0  0  0  0  0  0  0
  142.3273   80.6495  220.7635 H   0  0  0  0  0  0  0  0  0  0  0  0
  143.0057   80.7867  224.9376 H   0  0  0  0  0  0  0  0  0  0  0  0
  141.7543   78.6737  225.1770 H   0  0  0  0  0  0  0  0  0  0  0  0
  139.2043   69.9784  222.4788 H   0  0  0  0  0  0  0  0  0  0  0  0
  139.0405   68.3686  224.3744 H   0  0  0  0  0  0  0  0  0  0  0  0
  139.4523   67.8462  226.7167 H   0  0  0  0  0  0  0  0  0  0  0  0
  141.3885   70.7503  229.2653 H   0  0  0  0  0  0  0  0  0  0  0  0
  141.5278   72.3177  227.3309 H   0  0  0  0  0  0  0  0  0  0  0  0
  1  2  2  0
  2  3  1  0
  3  4  1  0
  4  5  1  0
  5  6  2  0
  5  7  1  0
  7  8  1  0
  8  9  1  0
  9 10  1  0
  9 11  1  0
 11 12  1  0
 12 13  1  0
 13 14  1  0
 14 15  2  0
 15 16  1  0
 16 17  2  0
 17 18  1  0
 18 19  2  0
  2 20  1  0
 20 21  2  0
 21 22  1  0
 22 23  2  0
 23 24  1  0
 24 25  2  0
 25 26  1  0
 25 27  1  0
 27 28  2  0
 28 29  1  0
 29 30  2  0
 12  7  1  0
 19 14  1  0
 30 20  1  0
 29 23  1  0
  3 31  1  0
  4 32  1  0
  4 33  1  0
  8 34  1  0
  8 35  1  0
  9 36  1  1
 10 37  1  0
 11 38  1  0
 11 39  1  0
 12 40  1  6
 13 41  1  0
 13 42  1  0
 15 43  1  0
 17 44  1  0
 18 45  1  0
 21 46  1  0
 22 47  1  0
 24 48  1  0
 27 49  1  0
 28 50  1  0
M  END
>  <smiles>  (12) 
O=C(NCC(=O)N1C[C@H](O)C[C@H]1Cc1cnccn1)c1ccc2cc(F)ccc2n1

>  <score_type>  (12) 
oracle

>  <origin>  (12) 
autodockgpu

>  <m_score__min__energy>  (12) 
-8.5199999999999996

>  <m_primary>  (12) 
energy

>  <rmsd>  (12) 
2.7234482835155194

>  <m_score__min__rmsd>  (12) 
2.7234482835155194

>  <meeko>  (12) 
{"free_energy": -7.95, "intermolecular_energy": -10.04, "internal_energy": -1.26, "cluster_size": 21, "cluster_id": 1, "rank_in_cluster": 15}

>  <energy>  (12) 
-8.11

>  <cluster_rmsd>  (12) 
1.94

>  <cluster>  (12) 
1

$$$$

     RDKit          3D

 50 53  0  0  0  0  0  0  0  0999 V2000
  140.7260   71.4690  221.0910 O   0  0  0  0  0  0  0  0  0  0  0  0
  140.2700   72.0220  222.1520 C   0  0  0  0  0  0  0  0  0  0  0  0
  139.9370   73.4040  222.1580 N   0  0  0  0  0  0  0  0  0  0  0  0
  140.0800   74.2700  221.0120 C   0  0  0  0  0  0  0  0  0  0  0  0
  140.9230   75.4630  221.3330 C   0  0  0  0  0  0  0  0  0  0  0  0
  140.6140   76.0830  222.3800 O   0  0  0  0  0  0  0  0  0  0  0  0
  141.9910   75.8230  220.4720 N   0  0  0  0  0  0  0  0  0  0  0  0
  142.8110   74.8390  219.7360 C   0  0  0  0  0  0  0  0  0  0  0  0
  142.6880   75.4830  218.3410 C   0  0  2  0  0  0  0  0  0  0  0  0
  143.6430   74.9050  217.5330 O   0  0  0  0  0  0  0  0  0  0  0  0
  142.9950   76.9260  218.7120 C   0  0  0  0  0  0  0  0  0  0  0  0
  142.5050   77.1400  220.1190 C   0  0  1  0  0  0  0  0  0  0  0  0
  141.4820   78.2110  220.2470 C   0  0  0  0  0  0  0  0  0  0  0  0
  141.6670   79.1770  221.3300 C   0  0  0  0  0  0  0  0  0  0  0  0
  141.7130   80.5410  221.2140 C   0  0  0  0  0  0  0  0  0  0  0  0
  141.8920   81.3770  222.2630 N   0  0  0  0  0  0  0  0  0  0  0  0
  142.0330   80.8380  223.4960 C   0  0  0  0  0  0  0  0  0  0  0  0
  141.9910   79.4760  223.6460 C   0  0  0  0  0  0  0  0  0  0  0  0
  141.8130   78.6740  222.5920 N   0  0  0  0  0  0  0  0  0  0  0  0
  140.0920   71.2110  223.3790 C   0  0  0  0  0  0  0  0  0  0  0  0
  139.4920   69.9740  223.2760 C   0  0  0  0  0  0  0  0  0  0  0  0
  139.3340   69.2260  224.4250 C   0  0  0  0  0  0  0  0  0  0  0  0
  139.7720   69.7240  225.6440 C   0  0  0  0  0  0  0  0  0  0  0  0
  139.6240   68.9960  226.8050 C   0  0  0  0  0  0  0  0  0  0  0  0
  140.0710   69.5230  227.9990 C   0  0  0  0  0  0  0  0  0  0  0  0
  139.9480   68.8460  229.1670 F   0  0  0  0  0  0  0  0  0  0  0  0
  140.6720   70.7740  228.0800 C   0  0  0  0  0  0  0  0  0  0  0  0
  140.8150   71.4920  226.9130 C   0  0  0  0  0  0  0  0  0  0  0  0
  140.3650   70.9660  225.7020 C   0  0  0  0  0  0  0  0  0  0  0  0
  140.5210   71.7010  224.5750 N   0  0  0  0  0  0  0  0  0  0  0  0
  139.5670   73.7730  223.0850 H   0  0  0  0  0  0  0  0  0  0  0  0
  140.5532   73.7067  220.1942 H   0  0  0  0  0  0  0  0  0  0  0  0
  139.0805   74.6212  220.7159 H   0  0  0  0  0  0  0  0  0  0  0  0
  143.8508   74.8086  220.0936 H   0  0  0  0  0  0  0  0  0  0  0  0
  142.5017   73.7865  219.8174 H   0  0  0  0  0  0  0  0  0  0  0  0
  141.7399   75.3747  217.7938 H   0  0  0  0  0  0  0  0  0  0  0  0
  144.5170   75.2570  217.8360 H   0  0  0  0  0  0  0  0  0  0  0  0
  144.0789   77.1058  218.6594 H   0  0  0  0  0  0  0  0  0  0  0  0
  142.5001   77.6206  218.0173 H   0  0  0  0  0  0  0  0  0  0  0  0
  143.2977   77.5007  220.7910 H   0  0  0  0  0  0  0  0  0  0  0  0
  141.4675   78.7715  219.3006 H   0  0  0  0  0  0  0  0  0  0  0  0
  140.5458   77.6860  220.4878 H   0  0  0  0  0  0  0  0  0  0  0  0
  141.5980   80.9813  220.2126 H   0  0  0  0  0  0  0  0  0  0  0  0
  142.1802   81.4877  224.3713 H   0  0  0  0  0  0  0  0  0  0  0  0
  142.1054   79.0371  224.6481 H   0  0  0  0  0  0  0  0  0  0  0  0
  139.1481   69.5930  222.3031 H   0  0  0  0  0  0  0  0  0  0  0  0
  138.8606   68.2344  224.3745 H   0  0  0  0  0  0  0  0  0  0  0  0
  139.1530   68.0023  226.7797 H   0  0  0  0  0  0  0  0  0  0  0  0
  141.0212   71.1765  229.0423 H   0  0  0  0  0  0  0  0  0  0  0  0
  141.2866   72.4855  226.9363 H   0  0  0  0  0  0  0  0  0  0  0  0
  1  2  2  0
  2  3  1  0
  3  4  1  0
  4  5  1  0
  5  6  2  0
  5  7  1  0
  7  8  1  0
  8  9  1  0
  9 10  1  0
  9 11  1  0
 11 12  1  0
 12 13  1  0
 13 14  1  0
 14 15  2  0
 15 16  1  0
 16 17  2  0
 17 18  1  0
 18 19  2  0
  2 20  1  0
 20 21  2  0
 21 22  1  0
 22 23  2  0
 23 24  1  0
 24 25  2  0
 25 26  1  0
 25 27  1  0
 27 28  2  0
 28 29  1  0
 29 30  2  0
 12  7  1  0
 19 14  1  0
 30 20  1  0
 29 23  1  0
  3 31  1  0
  4 32  1  0
  4 33  1  0
  8 34  1  0
  8 35  1  0
  9 36  1  6
 10 37  1  0
 11 38  1  0
 11 39  1  0
 12 40  1  1
 13 41  1  0
 13 42  1  0
 15 43  1  0
 17 44  1  0
 18 45  1  0
 21 46  1  0
 22 47  1  0
 24 48  1  0
 27 49  1  0
 28 50  1  0
M  END
>  <smiles>  (13) 
O=C(NCC(=O)N1C[C@H](O)C[C@H]1Cc1cnccn1)c1ccc2cc(F)ccc2n1

>  <score_type>  (13) 
oracle

>  <origin>  (13) 
autodockgpu

>  <m_score__min__energy>  (13) 
-8.5199999999999996

>  <m_primary>  (13) 
energy

>  <rmsd>  (13) 
1.9341065612788955

>  <m_score__min__rmsd>  (13) 
1.9341065612788955

>  <meeko>  (13) 
{"free_energy": -8.46, "intermolecular_energy": -10.55, "internal_energy": -1.42, "cluster_size": 21, "cluster_id": 1, "rank_in_cluster": 2}

>  <energy>  (13) 
-7.97

>  <cluster_rmsd>  (13) 
0.61

>  <cluster>  (13) 
1

$$$$

     RDKit          3D

 50 53  0  0  0  0  0  0  0  0999 V2000
  140.8630   71.8390  221.1200 O   0  0  0  0  0  0  0  0  0  0  0  0
  140.1910   72.2530  222.1280 C   0  0  0  0  0  0  0  0  0  0  0  0
  139.5310   73.5110  222.0860 N   0  0  0  0  0  0  0  0  0  0  0  0
  139.5600   74.3960  220.9460 C   0  0  0  0  0  0  0  0  0  0  0  0
  140.8330   75.1800  220.8990 C   0  0  0  0  0  0  0  0  0  0  0  0
  141.4180   75.3360  221.9990 O   0  0  0  0  0  0  0  0  0  0  0  0
  141.3000   75.6910  219.6610 N   0  0  0  0  0  0  0  0  0  0  0  0
  141.4050   77.1340  219.3640 C   0  0  0  0  0  0  0  0  0  0  0  0
  142.8610   77.1250  218.8570 C   0  0  2  0  0  0  0  0  0  0  0  0
  143.0840   78.3260  218.2180 O   0  0  0  0  0  0  0  0  0  0  0  0
  142.7820   75.9370  217.9110 C   0  0  0  0  0  0  0  0  0  0  0  0
  141.7600   74.9850  218.4710 C   0  0  1  0  0  0  0  0  0  0  0  0
  142.2950   73.6320  218.7750 C   0  0  0  0  0  0  0  0  0  0  0  0
  143.6930   73.5520  219.1970 C   0  0  0  0  0  0  0  0  0  0  0  0
  144.7270   72.9770  218.5080 C   0  0  0  0  0  0  0  0  0  0  0  0
  146.0000   72.9350  218.9640 N   0  0  0  0  0  0  0  0  0  0  0  0
  146.2700   73.4930  220.1670 C   0  0  0  0  0  0  0  0  0  0  0  0
  145.2570   74.0770  220.8820 C   0  0  0  0  0  0  0  0  0  0  0  0
  144.0070   74.1040  220.4070 N   0  0  0  0  0  0  0  0  0  0  0  0
  140.1060   71.4120  223.3450 C   0  0  0  0  0  0  0  0  0  0  0  0
  139.5290   70.1630  223.2500 C   0  0  0  0  0  0  0  0  0  0  0  0
  139.4580   69.3870  224.3890 C   0  0  0  0  0  0  0  0  0  0  0  0
  139.9590   69.8690  225.5900 C   0  0  0  0  0  0  0  0  0  0  0  0
  139.8980   69.1120  226.7410 C   0  0  0  0  0  0  0  0  0  0  0  0
  140.4070   69.6230  227.9170 C   0  0  0  0  0  0  0  0  0  0  0  0
  140.3710   68.9180  229.0750 F   0  0  0  0  0  0  0  0  0  0  0  0
  140.9840   70.8850  227.9910 C   0  0  0  0  0  0  0  0  0  0  0  0
  141.0390   71.6320  226.8340 C   0  0  0  0  0  0  0  0  0  0  0  0
  140.5270   71.1230  225.6410 C   0  0  0  0  0  0  0  0  0  0  0  0
  140.5980   71.8850  224.5240 N   0  0  0  0  0  0  0  0  0  0  0  0
  138.9990   73.7690  222.9710 H   0  0  0  0  0  0  0  0  0  0  0  0
  139.4728   73.7988  220.0264 H   0  0  0  0  0  0  0  0  0  0  0  0
  138.7206   75.1016  221.0327 H   0  0  0  0  0  0  0  0  0  0  0  0
  140.6931   77.4557  218.5896 H   0  0  0  0  0  0  0  0  0  0  0  0
  141.1798   77.8216  220.1925 H   0  0  0  0  0  0  0  0  0  0  0  0
  143.6729   77.0318  219.5933 H   0  0  0  0  0  0  0  0  0  0  0  0
  143.6760   78.1300  217.4500 H   0  0  0  0  0  0  0  0  0  0  0  0
  142.4743   76.2731  216.9098 H   0  0  0  0  0  0  0  0  0  0  0  0
  143.7622   75.4462  217.8202 H   0  0  0  0  0  0  0  0  0  0  0  0
  140.9587   74.7563  217.7529 H   0  0  0  0  0  0  0  0  0  0  0  0
  141.6798   73.2049  219.5807 H   0  0  0  0  0  0  0  0  0  0  0  0
  142.2521   73.0860  217.8210 H   0  0  0  0  0  0  0  0  0  0  0  0
  144.5107   72.5240  217.5292 H   0  0  0  0  0  0  0  0  0  0  0  0
  147.2943   73.4779  220.5678 H   0  0  0  0  0  0  0  0  0  0  0  0
  145.4751   74.5299  221.8604 H   0  0  0  0  0  0  0  0  0  0  0  0
  139.1355   69.7948  222.2910 H   0  0  0  0  0  0  0  0  0  0  0  0
  139.0041   68.3860  224.3449 H   0  0  0  0  0  0  0  0  0  0  0  0
  139.4471   68.1088  226.7216 H   0  0  0  0  0  0  0  0  0  0  0  0
  141.3828   71.2741  228.9395 H   0  0  0  0  0  0  0  0  0  0  0  0
  141.4894   72.6354  226.8518 H   0  0  0  0  0  0  0  0  0  0  0  0
  1  2  2  0
  2  3  1  0
  3  4  1  0
  4  5  1  0
  5  6  2  0
  5  7  1  0
  7  8  1  0
  8  9  1  0
  9 10  1  0
  9 11  1  0
 11 12  1  0
 12 13  1  0
 13 14  1  0
 14 15  2  0
 15 16  1  0
 16 17  2  0
 17 18  1  0
 18 19  2  0
  2 20  1  0
 20 21  2  0
 21 22  1  0
 22 23  2  0
 23 24  1  0
 24 25  2  0
 25 26  1  0
 25 27  1  0
 27 28  2  0
 28 29  1  0
 29 30  2  0
 12  7  1  0
 19 14  1  0
 30 20  1  0
 29 23  1  0
  3 31  1  0
  4 32  1  0
  4 33  1  0
  8 34  1  0
  8 35  1  0
  9 36  1  1
 10 37  1  0
 11 38  1  0
 11 39  1  0
 12 40  1  6
 13 41  1  0
 13 42  1  0
 15 43  1  0
 17 44  1  0
 18 45  1  0
 21 46  1  0
 22 47  1  0
 24 48  1  0
 27 49  1  0
 28 50  1  0
M  END
>  <smiles>  (14) 
O=C(NCC(=O)N1C[C@H](O)C[C@H]1Cc1cnccn1)c1ccc2cc(F)ccc2n1

>  <score_type>  (14) 
oracle

>  <origin>  (14) 
autodockgpu

>  <m_score__min__energy>  (14) 
-8.5199999999999996

>  <m_primary>  (14) 
energy

>  <rmsd>  (14) 
2.1303667214061823

>  <m_score__min__rmsd>  (14) 
2.1303667214061823

>  <meeko>  (14) 
{"free_energy": -7.98, "intermolecular_energy": -10.07, "internal_energy": -1.68, "cluster_size": 11, "cluster_id": 3, "rank_in_cluster": 7}

>  <energy>  (14) 
-7.95

>  <cluster_rmsd>  (14) 
0.73

>  <cluster>  (14) 
1

$$$$

     RDKit          3D

 50 53  0  0  0  0  0  0  0  0999 V2000
  138.2170   70.8170  221.7640 O   0  0  0  0  0  0  0  0  0  0  0  0
  138.8830   71.3080  222.7400 C   0  0  0  0  0  0  0  0  0  0  0  0
  139.3130   72.6630  222.7100 N   0  0  0  0  0  0  0  0  0  0  0  0
  139.0450   73.5670  221.6170 C   0  0  0  0  0  0  0  0  0  0  0  0
  139.7390   74.8770  221.8140 C   0  0  0  0  0  0  0  0  0  0  0  0
  140.9350   74.8100  222.1890 O   0  0  0  0  0  0  0  0  0  0  0  0
  139.0370   76.0880  221.5780 N   0  0  0  0  0  0  0  0  0  0  0  0
  137.6370   76.3110  221.9910 C   0  0  0  0  0  0  0  0  0  0  0  0
  137.8550   77.6550  222.7120 C   0  0  2  0  0  0  0  0  0  0  0  0
  136.6160   78.2230  222.9150 O   0  0  0  0  0  0  0  0  0  0  0  0
  138.6860   78.3660  221.6550 C   0  0  0  0  0  0  0  0  0  0  0  0
  139.4810   77.3150  220.9290 C   0  0  1  0  0  0  0  0  0  0  0  0
  140.9530   77.5080  221.0060 C   0  0  0  0  0  0  0  0  0  0  0  0
  141.4460   78.4500  222.0090 C   0  0  0  0  0  0  0  0  0  0  0  0
  141.4540   78.2720  223.3670 C   0  0  0  0  0  0  0  0  0  0  0  0
  141.9230   79.1940  224.2410 N   0  0  0  0  0  0  0  0  0  0  0  0
  142.4130   80.3550  223.7480 C   0  0  0  0  0  0  0  0  0  0  0  0
  142.4200   80.5630  222.3930 C   0  0  0  0  0  0  0  0  0  0  0  0
  141.9490   79.6350  221.5530 N   0  0  0  0  0  0  0  0  0  0  0  0
  139.2060   70.4540  223.9070 C   0  0  0  0  0  0  0  0  0  0  0  0
  138.8870   69.1130  223.8570 C   0  0  0  0  0  0  0  0  0  0  0  0
  139.1950   68.3270  224.9490 C   0  0  0  0  0  0  0  0  0  0  0  0
  139.8090   68.8890  226.0590 C   0  0  0  0  0  0  0  0  0  0  0  0
  140.1260   68.1230  227.1610 C   0  0  0  0  0  0  0  0  0  0  0  0
  140.7370   68.7160  228.2460 C   0  0  0  0  0  0  0  0  0  0  0  0
  141.0680   68.0050  229.3530 F   0  0  0  0  0  0  0  0  0  0  0  0
  141.0490   70.0690  228.2760 C   0  0  0  0  0  0  0  0  0  0  0  0
  140.7270   70.8240  227.1690 C   0  0  0  0  0  0  0  0  0  0  0  0
  140.1100   70.2330  226.0670 C   0  0  0  0  0  0  0  0  0  0  0  0
  139.8080   71.0060  224.9960 N   0  0  0  0  0  0  0  0  0  0  0  0
  139.8590   72.9790  223.5670 H   0  0  0  0  0  0  0  0  0  0  0  0
  139.3982   73.1115  220.6801 H   0  0  0  0  0  0  0  0  0  0  0  0
  137.9612   73.7505  221.5755 H   0  0  0  0  0  0  0  0  0  0  0  0
  136.9559   76.4017  221.1320 H   0  0  0  0  0  0  0  0  0  0  0  0
  137.1682   75.5100  222.5815 H   0  0  0  0  0  0  0  0  0  0  0  0
  138.3363   77.6479  223.7011 H   0  0  0  0  0  0  0  0  0  0  0  0
  136.6020   79.0600  222.3880 H   0  0  0  0  0  0  0  0  0  0  0  0
  138.0267   78.8933  220.9498 H   0  0  0  0  0  0  0  0  0  0  0  0
  139.3530   79.1080  222.1182 H   0  0  0  0  0  0  0  0  0  0  0  0
  139.3068   77.3300  219.8430 H   0  0  0  0  0  0  0  0  0  0  0  0
  141.4056   76.5285  221.2196 H   0  0  0  0  0  0  0  0  0  0  0  0
  141.2351   77.9472  220.0377 H   0  0  0  0  0  0  0  0  0  0  0  0
  141.0577   77.3283  223.7699 H   0  0  0  0  0  0  0  0  0  0  0  0
  142.8026   81.1259  224.4292 H   0  0  0  0  0  0  0  0  0  0  0  0
  142.8185   81.5062  221.9911 H   0  0  0  0  0  0  0  0  0  0  0  0
  138.3999   68.6813  222.9702 H   0  0  0  0  0  0  0  0  0  0  0  0
  138.9534   67.2539  224.9392 H   0  0  0  0  0  0  0  0  0  0  0  0
  139.8935   67.0479  227.1746 H   0  0  0  0  0  0  0  0  0  0  0  0
  141.5358   70.5219  229.1523 H   0  0  0  0  0  0  0  0  0  0  0  0
  140.9581   71.8993  227.1546 H   0  0  0  0  0  0  0  0  0  0  0  0
  1  2  2  0
  2  3  1  0
  3  4  1  0
  4  5  1  0
  5  6  2  0
  5  7  1  0
  7  8  1  0
  8  9  1  0
  9 10  1  0
  9 11  1  0
 11 12  1  0
 12 13  1  0
 13 14  1  0
 14 15  2  0
 15 16  1  0
 16 17  2  0
 17 18  1  0
 18 19  2  0
  2 20  1  0
 20 21  2  0
 21 22  1  0
 22 23  2  0
 23 24  1  0
 24 25  2  0
 25 26  1  0
 25 27  1  0
 27 28  2  0
 28 29  1  0
 29 30  2  0
 12  7  1  0
 19 14  1  0
 30 20  1  0
 29 23  1  0
  3 31  1  0
  4 32  1  0
  4 33  1  0
  8 34  1  0
  8 35  1  0
  9 36  1  1
 10 37  1  0
 11 38  1  0
 11 39  1  0
 12 40  1  6
 13 41  1  0
 13 42  1  0
 15 43  1  0
 17 44  1  0
 18 45  1  0
 21 46  1  0
 22 47  1  0
 24 48  1  0
 27 49  1  0
 28 50  1  0
M  END
>  <smiles>  (15) 
O=C(NCC(=O)N1C[C@H](O)C[C@H]1Cc1cnccn1)c1ccc2cc(F)ccc2n1

>  <score_type>  (15) 
oracle

>  <origin>  (15) 
autodockgpu

>  <m_score__min__energy>  (15) 
-8.5199999999999996

>  <m_primary>  (15) 
energy

>  <rmsd>  (15) 
2.489645435110085

>  <m_score__min__rmsd>  (15) 
2.489645435110085

>  <meeko>  (15) 
{"free_energy": -7.7, "intermolecular_energy": -9.78, "internal_energy": -1.72, "cluster_size": 5, "cluster_id": 5, "rank_in_cluster": 4}

>  <energy>  (15) 
-7.95

>  <cluster_rmsd>  (15) 
1.96

>  <cluster>  (15) 
1

$$$$

     RDKit          3D

 50 53  0  0  0  0  0  0  0  0999 V2000
  139.6690   73.6440  222.4560 O   0  0  0  0  0  0  0  0  0  0  0  0
  140.0210   72.4280  222.2690 C   0  0  0  0  0  0  0  0  0  0  0  0
  140.4110   71.9820  220.9760 N   0  0  0  0  0  0  0  0  0  0  0  0
  140.4410   72.8300  219.8090 C   0  0  0  0  0  0  0  0  0  0  0  0
  141.7650   72.7540  219.1160 C   0  0  0  0  0  0  0  0  0  0  0  0
  141.7260   72.4510  217.8990 O   0  0  0  0  0  0  0  0  0  0  0  0
  142.9550   73.0150  219.8420 N   0  0  0  0  0  0  0  0  0  0  0  0
  143.9700   71.9850  220.1390 C   0  0  0  0  0  0  0  0  0  0  0  0
  145.2000   72.7670  219.6360 C   0  0  2  0  0  0  0  0  0  0  0  0
  146.3230   72.1210  220.1060 O   0  0  0  0  0  0  0  0  0  0  0  0
  144.9340   74.1010  220.3170 C   0  0  0  0  0  0  0  0  0  0  0  0
  143.4410   74.2600  220.4240 C   0  0  1  0  0  0  0  0  0  0  0  0
  142.9100   75.4650  219.7350 C   0  0  0  0  0  0  0  0  0  0  0  0
  141.9690   76.2950  220.4850 C   0  0  0  0  0  0  0  0  0  0  0  0
  141.6210   77.5920  220.2130 C   0  0  0  0  0  0  0  0  0  0  0  0
  140.7430   78.3040  220.9560 N   0  0  0  0  0  0  0  0  0  0  0  0
  140.1730   77.7040  222.0270 C   0  0  0  0  0  0  0  0  0  0  0  0
  140.4990   76.4070  222.3250 C   0  0  0  0  0  0  0  0  0  0  0  0
  141.3710   75.7270  221.5740 N   0  0  0  0  0  0  0  0  0  0  0  0
  140.0200   71.4830  223.4100 C   0  0  0  0  0  0  0  0  0  0  0  0
  139.5280   70.2090  223.2180 C   0  0  0  0  0  0  0  0  0  0  0  0
  139.5350   69.3380  224.2880 C   0  0  0  0  0  0  0  0  0  0  0  0
  140.0280   69.7500  225.5180 C   0  0  0  0  0  0  0  0  0  0  0  0
  140.0440   68.8970  226.6000 C   0  0  0  0  0  0  0  0  0  0  0  0
  140.5420   69.3420  227.8080 C   0  0  0  0  0  0  0  0  0  0  0  0
  140.5800   68.5410  228.9010 F   0  0  0  0  0  0  0  0  0  0  0  0
  141.0330   70.6310  227.9790 C   0  0  0  0  0  0  0  0  0  0  0  0
  141.0110   71.4740  226.8900 C   0  0  0  0  0  0  0  0  0  0  0  0
  140.5100   71.0320  225.6660 C   0  0  0  0  0  0  0  0  0  0  0  0
  140.5040   71.8890  224.6170 N   0  0  0  0  0  0  0  0  0  0  0  0
  140.6860   70.9560  220.9200 H   0  0  0  0  0  0  0  0  0  0  0  0
  139.6528   72.5087  219.1122 H   0  0  0  0  0  0  0  0  0  0  0  0
  140.2763   73.8690  220.1304 H   0  0  0  0  0  0  0  0  0  0  0  0
  144.0307   71.7538  221.2127 H   0  0  0  0  0  0  0  0  0  0  0  0
  143.8052   70.9936  219.6918 H   0  0  0  0  0  0  0  0  0  0  0  0
  145.3535   72.8633  218.5510 H   0  0  0  0  0  0  0  0  0  0  0  0
  146.1340   71.8790  221.0470 H   0  0  0  0  0  0  0  0  0  0  0  0
  145.3860   74.1083  221.3198 H   0  0  0  0  0  0  0  0  0  0  0  0
  145.3729   74.9274  219.7387 H   0  0  0  0  0  0  0  0  0  0  0  0
  143.1072   74.4250  221.4591 H   0  0  0  0  0  0  0  0  0  0  0  0
  143.7679   76.0977  219.4636 H   0  0  0  0  0  0  0  0  0  0  0  0
  142.3335   75.0770  218.8823 H   0  0  0  0  0  0  0  0  0  0  0  0
  142.0812   78.0815  219.3420 H   0  0  0  0  0  0  0  0  0  0  0  0
  139.4541   78.2530  222.6529 H   0  0  0  0  0  0  0  0  0  0  0  0
  140.0363   75.9181  223.1950 H   0  0  0  0  0  0  0  0  0  0  0  0
  139.1402   69.8955  222.2375 H   0  0  0  0  0  0  0  0  0  0  0  0
  139.1491   68.3152  224.1659 H   0  0  0  0  0  0  0  0  0  0  0  0
  139.6630   67.8698  226.5019 H   0  0  0  0  0  0  0  0  0  0  0  0
  141.4255   70.9662  228.9504 H   0  0  0  0  0  0  0  0  0  0  0  0
  141.3908   72.5018  226.9864 H   0  0  0  0  0  0  0  0  0  0  0  0
  1  2  2  0
  2  3  1  0
  3  4  1  0
  4  5  1  0
  5  6  2  0
  5  7  1  0
  7  8  1  0
  8  9  1  0
  9 10  1  0
  9 11  1  0
 11 12  1  0
 12 13  1  0
 13 14  1  0
 14 15  2  0
 15 16  1  0
 16 17  2  0
 17 18  1  0
 18 19  2  0
  2 20  1  0
 20 21  2  0
 21 22  1  0
 22 23  2  0
 23 24  1  0
 24 25  2  0
 25 26  1  0
 25 27  1  0
 27 28  2  0
 28 29  1  0
 29 30  2  0
 12  7  1  0
 19 14  1  0
 30 20  1  0
 29 23  1  0
  3 31  1  0
  4 32  1  0
  4 33  1  0
  8 34  1  0
  8 35  1  0
  9 36  1  6
 10 37  1  0
 11 38  1  0
 11 39  1  0
 12 40  1  1
 13 41  1  0
 13 42  1  0
 15 43  1  0
 17 44  1  0
 18 45  1  0
 21 46  1  0
 22 47  1  0
 24 48  1  0
 27 49  1  0
 28 50  1  0
M  END
>  <smiles>  (16) 
O=C(NCC(=O)N1C[C@H](O)C[C@H]1Cc1cnccn1)c1ccc2cc(F)ccc2n1

>  <score_type>  (16) 
oracle

>  <origin>  (16) 
autodockgpu

>  <m_score__min__energy>  (16) 
-8.5199999999999996

>  <m_primary>  (16) 
energy

>  <rmsd>  (16) 
3.460095318532619

>  <m_score__min__rmsd>  (16) 
3.460095318532619

>  <meeko>  (16) 
{"free_energy": -7.99, "intermolecular_energy": -10.08, "internal_energy": -1.47, "cluster_size": 4, "cluster_id": 4, "rank_in_cluster": 2}

>  <energy>  (16) 
-7.91

>  <cluster_rmsd>  (16) 
0.88

>  <cluster>  (16) 
1

$$$$

     RDKit          3D

 50 53  0  0  0  0  0  0  0  0999 V2000
  139.2470   71.0460  221.1040 O   0  0  0  0  0  0  0  0  0  0  0  0
  139.4470   71.6210  222.2300 C   0  0  0  0  0  0  0  0  0  0  0  0
  139.5700   73.0350  222.3040 N   0  0  0  0  0  0  0  0  0  0  0  0
  139.4840   73.9110  221.1600 C   0  0  0  0  0  0  0  0  0  0  0  0
  140.5570   74.9530  221.1920 C   0  0  0  0  0  0  0  0  0  0  0  0
  140.9140   75.3330  222.3340 O   0  0  0  0  0  0  0  0  0  0  0  0
  141.0970   75.4450  219.9760 N   0  0  0  0  0  0  0  0  0  0  0  0
  141.1580   76.8800  219.6340 C   0  0  0  0  0  0  0  0  0  0  0  0
  142.6480   76.9270  219.2430 C   0  0  2  0  0  0  0  0  0  0  0  0
  142.8660   78.1160  218.5800 O   0  0  0  0  0  0  0  0  0  0  0  0
  142.7000   75.7060  218.3380 C   0  0  0  0  0  0  0  0  0  0  0  0
  141.6820   74.7240  218.8530 C   0  0  1  0  0  0  0  0  0  0  0  0
  142.2530   73.4090  219.2470 C   0  0  0  0  0  0  0  0  0  0  0  0
  143.6800   73.3770  219.5660 C   0  0  0  0  0  0  0  0  0  0  0  0
  144.6970   72.9840  218.7380 C   0  0  0  0  0  0  0  0  0  0  0  0
  146.0010   72.9740  219.1030 N   0  0  0  0  0  0  0  0  0  0  0  0
  146.3190   73.3760  220.3550 C   0  0  0  0  0  0  0  0  0  0  0  0
  145.3240   73.7760  221.2090 C   0  0  0  0  0  0  0  0  0  0  0  0
  144.0440   73.7750  220.8210 N   0  0  0  0  0  0  0  0  0  0  0  0
  139.5500   70.8020  223.4600 C   0  0  0  0  0  0  0  0  0  0  0  0
  139.1080   69.4960  223.4280 C   0  0  0  0  0  0  0  0  0  0  0  0
  139.2120   68.7420  224.5790 C   0  0  0  0  0  0  0  0  0  0  0  0
  139.7500   69.3020  225.7300 C   0  0  0  0  0  0  0  0  0  0  0  0
  139.8630   68.5680  226.8920 C   0  0  0  0  0  0  0  0  0  0  0  0
  140.4030   69.1570  228.0170 C   0  0  0  0  0  0  0  0  0  0  0  0
  140.5350   68.4770  229.1820 F   0  0  0  0  0  0  0  0  0  0  0  0
  140.8420   70.4750  228.0270 C   0  0  0  0  0  0  0  0  0  0  0  0
  140.7230   71.1990  226.8600 C   0  0  0  0  0  0  0  0  0  0  0  0
  140.1790   70.6100  225.7180 C   0  0  0  0  0  0  0  0  0  0  0  0
  140.0770   71.3520  224.5890 N   0  0  0  0  0  0  0  0  0  0  0  0
  139.7340   73.4200  223.2820 H   0  0  0  0  0  0  0  0  0  0  0  0
  139.5915   73.3139  220.2425 H   0  0  0  0  0  0  0  0  0  0  0  0
  138.5076   74.4170  221.1825 H   0  0  0  0  0  0  0  0  0  0  0  0
  140.4959   77.1395  218.7948 H   0  0  0  0  0  0  0  0  0  0  0  0
  140.8356   77.5830  220.4162 H   0  0  0  0  0  0  0  0  0  0  0  0
  143.4019   76.8988  220.0435 H   0  0  0  0  0  0  0  0  0  0  0  0
  143.6990   78.4970  218.9530 H   0  0  0  0  0  0  0  0  0  0  0  0
  142.4570   75.9929  217.3043 H   0  0  0  0  0  0  0  0  0  0  0  0
  143.7062   75.2616  218.3407 H   0  0  0  0  0  0  0  0  0  0  0  0
  140.9515   74.4327  218.0840 H   0  0  0  0  0  0  0  0  0  0  0  0
  141.7058   73.0618  220.1358 H   0  0  0  0  0  0  0  0  0  0  0  0
  142.1431   72.7703  218.3582 H   0  0  0  0  0  0  0  0  0  0  0  0
  144.4405   72.6581  217.7192 H   0  0  0  0  0  0  0  0  0  0  0  0
  147.3682   73.3819  220.6853 H   0  0  0  0  0  0  0  0  0  0  0  0
  145.5819   74.1023  222.2274 H   0  0  0  0  0  0  0  0  0  0  0  0
  138.6835   69.0665  222.5086 H   0  0  0  0  0  0  0  0  0  0  0  0
  138.8686   67.6970  224.5847 H   0  0  0  0  0  0  0  0  0  0  0  0
  139.5254   67.5215  226.9218 H   0  0  0  0  0  0  0  0  0  0  0  0
  141.2698   70.9253  228.9348 H   0  0  0  0  0  0  0  0  0  0  0  0
  141.0585   72.2461  226.8289 H   0  0  0  0  0  0  0  0  0  0  0  0
  1  2  2  0
  2  3  1  0
  3  4  1  0
  4  5  1  0
  5  6  2  0
  5  7  1  0
  7  8  1  0
  8  9  1  0
  9 10  1  0
  9 11  1  0
 11 12  1  0
 12 13  1  0
 13 14  1  0
 14 15  2  0
 15 16  1  0
 16 17  2  0
 17 18  1  0
 18 19  2  0
  2 20  1  0
 20 21  2  0
 21 22  1  0
 22 23  2  0
 23 24  1  0
 24 25  2  0
 25 26  1  0
 25 27  1  0
 27 28  2  0
 28 29  1  0
 29 30  2  0
 12  7  1  0
 19 14  1  0
 30 20  1  0
 29 23  1  0
  3 31  1  0
  4 32  1  0
  4 33  1  0
  8 34  1  0
  8 35  1  0
  9 36  1  1
 10 37  1  0
 11 38  1  0
 11 39  1  0
 12 40  1  6
 13 41  1  0
 13 42  1  0
 15 43  1  0
 17 44  1  0
 18 45  1  0
 21 46  1  0
 22 47  1  0
 24 48  1  0
 27 49  1  0
 28 50  1  0
M  END
>  <smiles>  (17) 
O=C(NCC(=O)N1C[C@H](O)C[C@H]1Cc1cnccn1)c1ccc2cc(F)ccc2n1

>  <score_type>  (17) 
oracle

>  <origin>  (17) 
autodockgpu

>  <m_score__min__energy>  (17) 
-8.5199999999999996

>  <m_primary>  (17) 
energy

>  <rmsd>  (17) 
1.961913295360175

>  <m_score__min__rmsd>  (17) 
1.961913295360175

>  <meeko>  (17) 
{"free_energy": -8.07, "intermolecular_energy": -10.16, "internal_energy": -1.98, "cluster_size": 11, "cluster_id": 3, "rank_in_cluster": 4}

>  <energy>  (17) 
-7.8

>  <cluster_rmsd>  (17) 
0.74

>  <cluster>  (17) 
1

$$$$

     RDKit          3D

 50 53  0  0  0  0  0  0  0  0999 V2000
  140.6780   71.4390  221.0870 O   0  0  0  0  0  0  0  0  0  0  0  0
  140.2300   72.0000  222.1470 C   0  0  0  0  0  0  0  0  0  0  0  0
  139.9090   73.3840  222.1490 N   0  0  0  0  0  0  0  0  0  0  0  0
  140.0560   74.2450  220.9990 C   0  0  0  0  0  0  0  0  0  0  0  0
  140.8800   75.4500  221.3250 C   0  0  0  0  0  0  0  0  0  0  0  0
  140.5560   76.0660  222.3700 O   0  0  0  0  0  0  0  0  0  0  0  0
  141.9460   75.8260  220.4690 N   0  0  0  0  0  0  0  0  0  0  0  0
  142.7610   74.8560  219.7100 C   0  0  0  0  0  0  0  0  0  0  0  0
  142.6370   75.5310  218.3290 C   0  0  2  0  0  0  0  0  0  0  0  0
  143.5890   74.9680  217.5060 O   0  0  0  0  0  0  0  0  0  0  0  0
  142.9500   76.9640  218.7310 C   0  0  0  0  0  0  0  0  0  0  0  0
  142.4640   77.1490  220.1440 C   0  0  1  0  0  0  0  0  0  0  0  0
  141.4440   78.2200  220.2980 C   0  0  0  0  0  0  0  0  0  0  0  0
  141.6350   79.1610  221.4010 C   0  0  0  0  0  0  0  0  0  0  0  0
  141.7770   80.5200  221.3060 C   0  0  0  0  0  0  0  0  0  0  0  0
  141.9550   81.3320  222.3730 N   0  0  0  0  0  0  0  0  0  0  0  0
  141.9940   80.7730  223.6050 C   0  0  0  0  0  0  0  0  0  0  0  0
  141.8540   79.4160  223.7350 C   0  0  0  0  0  0  0  0  0  0  0  0
  141.6800   78.6370  222.6620 N   0  0  0  0  0  0  0  0  0  0  0  0
  140.0470   71.1940  223.3770 C   0  0  0  0  0  0  0  0  0  0  0  0
  139.4380   69.9610  223.2800 C   0  0  0  0  0  0  0  0  0  0  0  0
  139.2760   69.2190  224.4330 C   0  0  0  0  0  0  0  0  0  0  0  0
  139.7200   69.7190  225.6490 C   0  0  0  0  0  0  0  0  0  0  0  0
  139.5690   68.9950  226.8130 C   0  0  0  0  0  0  0  0  0  0  0  0
  140.0240   69.5230  228.0040 C   0  0  0  0  0  0  0  0  0  0  0  0
  139.8980   68.8510  229.1750 F   0  0  0  0  0  0  0  0  0  0  0  0
  140.6350   70.7690  228.0790 C   0  0  0  0  0  0  0  0  0  0  0  0
  140.7800   71.4820  226.9090 C   0  0  0  0  0  0  0  0  0  0  0  0
  140.3240   70.9560  225.7010 C   0  0  0  0  0  0  0  0  0  0  0  0
  140.4830   71.6850  224.5710 N   0  0  0  0  0  0  0  0  0  0  0  0
  139.5440   73.7590  223.0760 H   0  0  0  0  0  0  0  0  0  0  0  0
  140.5469   73.6830  220.1908 H   0  0  0  0  0  0  0  0  0  0  0  0
  139.0564   74.5816  220.6868 H   0  0  0  0  0  0  0  0  0  0  0  0
  143.8015   74.8145  220.0645 H   0  0  0  0  0  0  0  0  0  0  0  0
  142.4485   73.8030  219.7692 H   0  0  0  0  0  0  0  0  0  0  0  0
  141.6874   75.4375  217.7818 H   0  0  0  0  0  0  0  0  0  0  0  0
  144.4670   75.2810  217.8380 H   0  0  0  0  0  0  0  0  0  0  0  0
  144.0344   77.1410  218.6797 H   0  0  0  0  0  0  0  0  0  0  0  0
  142.4559   77.6754  218.0530 H   0  0  0  0  0  0  0  0  0  0  0  0
  143.2596   77.4926  220.8215 H   0  0  0  0  0  0  0  0  0  0  0  0
  141.4285   78.8011  219.3642 H   0  0  0  0  0  0  0  0  0  0  0  0
  140.5068   77.6927  220.5296 H   0  0  0  0  0  0  0  0  0  0  0  0
  141.7444   80.9767  220.3058 H   0  0  0  0  0  0  0  0  0  0  0  0
  142.1370   81.4032  224.4952 H   0  0  0  0  0  0  0  0  0  0  0  0
  141.8852   78.9611  224.7360 H   0  0  0  0  0  0  0  0  0  0  0  0
  139.0902   69.5783  222.3092 H   0  0  0  0  0  0  0  0  0  0  0  0
  138.7947   68.2309  224.3877 H   0  0  0  0  0  0  0  0  0  0  0  0
  139.0899   68.0050  226.7922 H   0  0  0  0  0  0  0  0  0  0  0  0
  140.9904   71.1719  229.0389 H   0  0  0  0  0  0  0  0  0  0  0  0
  141.2585   72.4723  226.9281 H   0  0  0  0  0  0  0  0  0  0  0  0
  1  2  2  0
  2  3  1  0
  3  4  1  0
  4  5  1  0
  5  6  2  0
  5  7  1  0
  7  8  1  0
  8  9  1  0
  9 10  1  0
  9 11  1  0
 11 12  1  0
 12 13  1  0
 13 14  1  0
 14 15  2  0
 15 16  1  0
 16 17  2  0
 17 18  1  0
 18 19  2  0
  2 20  1  0
 20 21  2  0
 21 22  1  0
 22 23  2  0
 23 24  1  0
 24 25  2  0
 25 26  1  0
 25 27  1  0
 27 28  2  0
 28 29  1  0
 29 30  2  0
 12  7  1  0
 19 14  1  0
 30 20  1  0
 29 23  1  0
  3 31  1  0
  4 32  1  0
  4 33  1  0
  8 34  1  0
  8 35  1  0
  9 36  1  6
 10 37  1  0
 11 38  1  0
 11 39  1  0
 12 40  1  1
 13 41  1  0
 13 42  1  0
 15 43  1  0
 17 44  1  0
 18 45  1  0
 21 46  1  0
 22 47  1  0
 24 48  1  0
 27 49  1  0
 28 50  1  0
M  END
>  <smiles>  (18) 
O=C(NCC(=O)N1C[C@H](O)C[C@H]1Cc1cnccn1)c1ccc2cc(F)ccc2n1

>  <score_type>  (18) 
oracle

>  <origin>  (18) 
autodockgpu

>  <m_score__min__energy>  (18) 
-8.5199999999999996

>  <m_primary>  (18) 
energy

>  <rmsd>  (18) 
1.9031631928482406

>  <m_score__min__rmsd>  (18) 
1.9031631928482406

>  <meeko>  (18) 
{"free_energy": -8.46, "intermolecular_energy": -10.55, "internal_energy": -1.41, "cluster_size": 21, "cluster_id": 1, "rank_in_cluster": 3}

>  <energy>  (18) 
-7.77

>  <cluster_rmsd>  (18) 
0.73

>  <cluster>  (18) 
1

$$$$

     RDKit          3D

 50 53  0  0  0  0  0  0  0  0999 V2000
  138.0350   70.7820  221.8660 O   0  0  0  0  0  0  0  0  0  0  0  0
  138.7690   71.2690  222.7950 C   0  0  0  0  0  0  0  0  0  0  0  0
  139.2260   72.6130  222.7230 N   0  0  0  0  0  0  0  0  0  0  0  0
  138.9140   73.5110  221.6370 C   0  0  0  0  0  0  0  0  0  0  0  0
  139.7210   74.7670  221.7220 C   0  0  0  0  0  0  0  0  0  0  0  0
  140.9350   74.6180  222.0040 O   0  0  0  0  0  0  0  0  0  0  0  0
  139.0980   76.0210  221.4910 N   0  0  0  0  0  0  0  0  0  0  0  0
  137.7190   76.1630  220.9830 C   0  0  0  0  0  0  0  0  0  0  0  0
  137.2140   77.1500  222.0540 C   0  0  2  0  0  0  0  0  0  0  0  0
  136.0240   77.6790  221.6020 O   0  0  0  0  0  0  0  0  0  0  0  0
  138.3680   78.1400  222.0340 C   0  0  0  0  0  0  0  0  0  0  0  0
  139.6130   77.3710  221.6820 C   0  0  1  0  0  0  0  0  0  0  0  0
  140.6800   77.4400  222.7150 C   0  0  0  0  0  0  0  0  0  0  0  0
  141.2720   78.7520  222.9690 C   0  0  0  0  0  0  0  0  0  0  0  0
  142.5460   79.1510  222.6620 C   0  0  0  0  0  0  0  0  0  0  0  0
  143.0300   80.3850  222.9320 N   0  0  0  0  0  0  0  0  0  0  0  0
  142.2120   81.2780  223.5360 C   0  0  0  0  0  0  0  0  0  0  0  0
  140.9310   80.9100  223.8550 C   0  0  0  0  0  0  0  0  0  0  0  0
  140.4790   79.6830  223.5780 N   0  0  0  0  0  0  0  0  0  0  0  0
  139.1420   70.4200  223.9510 C   0  0  0  0  0  0  0  0  0  0  0  0
  138.8520   69.0720  223.9070 C   0  0  0  0  0  0  0  0  0  0  0  0
  139.2070   68.2920  224.9880 C   0  0  0  0  0  0  0  0  0  0  0  0
  139.8370   68.8660  226.0830 C   0  0  0  0  0  0  0  0  0  0  0  0
  140.2000   68.1050  227.1750 C   0  0  0  0  0  0  0  0  0  0  0  0
  140.8250   68.7110  228.2450 C   0  0  0  0  0  0  0  0  0  0  0  0
  141.2010   68.0060  229.3410 F   0  0  0  0  0  0  0  0  0  0  0  0
  141.1070   70.0710  228.2700 C   0  0  0  0  0  0  0  0  0  0  0  0
  140.7390   70.8200  227.1730 C   0  0  0  0  0  0  0  0  0  0  0  0
  140.1070   70.2160  226.0860 C   0  0  0  0  0  0  0  0  0  0  0  0
  139.7590   70.9840  225.0260 N   0  0  0  0  0  0  0  0  0  0  0  0
  139.8300   72.9260  223.5410 H   0  0  0  0  0  0  0  0  0  0  0  0
  139.1320   73.0089  220.6829 H   0  0  0  0  0  0  0  0  0  0  0  0
  137.8488   73.7776  221.7019 H   0  0  0  0  0  0  0  0  0  0  0  0
  137.6873   76.5910  219.9702 H   0  0  0  0  0  0  0  0  0  0  0  0
  137.1434   75.2330  220.8653 H   0  0  0  0  0  0  0  0  0  0  0  0
  136.9968   76.7662  223.0617 H   0  0  0  0  0  0  0  0  0  0  0  0
  136.2100   78.0680  220.7120 H   0  0  0  0  0  0  0  0  0  0  0  0
  138.1818   78.9197  221.2807 H   0  0  0  0  0  0  0  0  0  0  0  0
  138.4772   78.6299  223.0128 H   0  0  0  0  0  0  0  0  0  0  0  0
  140.1256   77.7796  220.7987 H   0  0  0  0  0  0  0  0  0  0  0  0
  140.2496   77.0810  223.6615 H   0  0  0  0  0  0  0  0  0  0  0  0
  141.5025   76.8267  222.3184 H   0  0  0  0  0  0  0  0  0  0  0  0
  143.2123   78.4280  222.1687 H   0  0  0  0  0  0  0  0  0  0  0  0
  142.5723   82.2909  223.7690 H   0  0  0  0  0  0  0  0  0  0  0  0
  140.2652   81.6349  224.3461 H   0  0  0  0  0  0  0  0  0  0  0  0
  138.3509   68.6307  223.0329 H   0  0  0  0  0  0  0  0  0  0  0  0
  138.9903   67.2136  224.9819 H   0  0  0  0  0  0  0  0  0  0  0  0
  139.9929   67.0248  227.1923 H   0  0  0  0  0  0  0  0  0  0  0  0
  141.6061   70.5336  229.1343 H   0  0  0  0  0  0  0  0  0  0  0  0
  140.9449   71.9004  227.1546 H   0  0  0  0  0  0  0  0  0  0  0  0
  1  2  2  0
  2  3  1  0
  3  4  1  0
  4  5  1  0
  5  6  2  0
  5  7  1  0
  7  8  1  0
  8  9  1  0
  9 10  1  0
  9 11  1  0
 11 12  1  0
 12 13  1  0
 13 14  1  0
 14 15  2  0
 15 16  1  0
 16 17  2  0
 17 18  1  0
 18 19  2  0
  2 20  1  0
 20 21  2  0
 21 22  1  0
 22 23  2  0
 23 24  1  0
 24 25  2  0
 25 26  1  0
 25 27  1  0
 27 28  2  0
 28 29  1  0
 29 30  2  0
 12  7  1  0
 19 14  1  0
 30 20  1  0
 29 23  1  0
  3 31  1  0
  4 32  1  0
  4 33  1  0
  8 34  1  0
  8 35  1  0
  9 36  1  1
 10 37  1  0
 11 38  1  0
 11 39  1  0
 12 40  1  6
 13 41  1  0
 13 42  1  0
 15 43  1  0
 17 44  1  0
 18 45  1  0
 21 46  1  0
 22 47  1  0
 24 48  1  0
 27 49  1  0
 28 50  1  0
M  END
>  <smiles>  (19) 
O=C(NCC(=O)N1C[C@H](O)C[C@H]1Cc1cnccn1)c1ccc2cc(F)ccc2n1

>  <score_type>  (19) 
oracle

>  <origin>  (19) 
autodockgpu

>  <m_score__min__energy>  (19) 
-8.5199999999999996

>  <m_primary>  (19) 
energy

>  <rmsd>  (19) 
2.4093939614516664

>  <m_score__min__rmsd>  (19) 
2.4093939614516664

>  <meeko>  (19) 
{"free_energy": -7.82, "intermolecular_energy": -9.91, "internal_energy": -1.54, "cluster_size": 5, "cluster_id": 5, "rank_in_cluster": 1}

>  <energy>  (19) 
-7.29

>  <cluster_rmsd>  (19) 
0.77

>  <cluster>  (19) 
1

$$$$

     RDKit          3D

 50 53  0  0  0  0  0  0  0  0999 V2000
  139.3730   71.1730  221.0960 O   0  0  0  0  0  0  0  0  0  0  0  0
  139.4600   71.7350  222.2430 C   0  0  0  0  0  0  0  0  0  0  0  0
  139.4760   73.1530  222.3510 N   0  0  0  0  0  0  0  0  0  0  0  0
  139.3990   74.0460  221.2190 C   0  0  0  0  0  0  0  0  0  0  0  0
  140.5400   75.0120  221.2120 C   0  0  0  0  0  0  0  0  0  0  0  0
  140.9250   75.4100  222.3380 O   0  0  0  0  0  0  0  0  0  0  0  0
  141.1110   75.4180  219.9780 N   0  0  0  0  0  0  0  0  0  0  0  0
  141.2150   76.8290  219.5540 C   0  0  0  0  0  0  0  0  0  0  0  0
  142.7110   76.8150  219.1850 C   0  0  2  0  0  0  0  0  0  0  0  0
  142.9690   77.9570  218.4570 O   0  0  0  0  0  0  0  0  0  0  0  0
  142.7440   75.5420  218.3540 C   0  0  0  0  0  0  0  0  0  0  0  0
  141.6930   74.6180  218.9080 C   0  0  1  0  0  0  0  0  0  0  0  0
  142.2250   73.3150  219.3870 C   0  0  0  0  0  0  0  0  0  0  0  0
  143.6550   73.2510  219.6840 C   0  0  0  0  0  0  0  0  0  0  0  0
  144.6280   72.6720  218.9130 C   0  0  0  0  0  0  0  0  0  0  0  0
  145.9370   72.6460  219.2530 N   0  0  0  0  0  0  0  0  0  0  0  0
  146.3090   73.2260  220.4180 C   0  0  0  0  0  0  0  0  0  0  0  0
  145.3600   73.8150  221.2120 C   0  0  0  0  0  0  0  0  0  0  0  0
  144.0730   73.8250  220.8510 N   0  0  0  0  0  0  0  0  0  0  0  0
  139.5450   70.8980  223.4620 C   0  0  0  0  0  0  0  0  0  0  0  0
  139.0840   69.5990  223.4110 C   0  0  0  0  0  0  0  0  0  0  0  0
  139.1710   68.8290  224.5520 C   0  0  0  0  0  0  0  0  0  0  0  0
  139.7110   69.3640  225.7130 C   0  0  0  0  0  0  0  0  0  0  0  0
  139.8070   68.6130  226.8650 C   0  0  0  0  0  0  0  0  0  0  0  0
  140.3500   69.1780  228.0000 C   0  0  0  0  0  0  0  0  0  0  0  0
  140.4660   68.4810  229.1570 F   0  0  0  0  0  0  0  0  0  0  0  0
  140.8070   70.4900  228.0310 C   0  0  0  0  0  0  0  0  0  0  0  0
  140.7050   71.2310  226.8730 C   0  0  0  0  0  0  0  0  0  0  0  0
  140.1590   70.6660  225.7210 C   0  0  0  0  0  0  0  0  0  0  0  0
  140.0740   71.4240  224.6020 N   0  0  0  0  0  0  0  0  0  0  0  0
  139.5510   73.5260  223.3440 H   0  0  0  0  0  0  0  0  0  0  0  0
  139.4251   73.4535  220.2925 H   0  0  0  0  0  0  0  0  0  0  0  0
  138.4610   74.6163  221.2892 H   0  0  0  0  0  0  0  0  0  0  0  0
  140.5723   77.0558  218.6906 H   0  0  0  0  0  0  0  0  0  0  0  0
  140.8999   77.5846  220.2887 H   0  0  0  0  0  0  0  0  0  0  0  0
  143.4525   76.8148  219.9975 H   0  0  0  0  0  0  0  0  0  0  0  0
  143.6950   78.4340  218.9310 H   0  0  0  0  0  0  0  0  0  0  0  0
  142.5243   75.7739  217.3014 H   0  0  0  0  0  0  0  0  0  0  0  0
  143.7379   75.0729  218.3997 H   0  0  0  0  0  0  0  0  0  0  0  0
  140.9659   74.3009  218.1459 H   0  0  0  0  0  0  0  0  0  0  0  0
  141.6828   73.0534  220.3076 H   0  0  0  0  0  0  0  0  0  0  0  0
  142.0761   72.6197  218.5478 H   0  0  0  0  0  0  0  0  0  0  0  0
  144.3282   72.2021  217.9647 H   0  0  0  0  0  0  0  0  0  0  0  0
  147.3652   73.2246  220.7252 H   0  0  0  0  0  0  0  0  0  0  0  0
  145.6614   74.2860  222.1593 H   0  0  0  0  0  0  0  0  0  0  0  0
  138.6579   69.1877  222.4841 H   0  0  0  0  0  0  0  0  0  0  0  0
  138.8118   67.7893  224.5417 H   0  0  0  0  0  0  0  0  0  0  0  0
  139.4534   67.5715  226.8789 H   0  0  0  0  0  0  0  0  0  0  0  0
  141.2352   70.9221  228.9475 H   0  0  0  0  0  0  0  0  0  0  0  0
  141.0561   72.2733  226.8577 H   0  0  0  0  0  0  0  0  0  0  0  0
  1  2  2  0
  2  3  1  0
  3  4  1  0
  4  5  1  0
  5  6  2  0
  5  7  1  0
  7  8  1  0
  8  9  1  0
  9 10  1  0
  9 11  1  0
 11 12  1  0
 12 13  1  0
 13 14  1  0
 14 15  2  0
 15 16  1  0
 16 17  2  0
 17 18  1  0
 18 19  2  0
  2 20  1  0
 20 21  2  0
 21 22  1  0
 22 23  2  0
 23 24  1  0
 24 25  2  0
 25 26  1  0
 25 27  1  0
 27 28  2  0
 28 29  1  0
 29 30  2  0
 12  7  1  0
 19 14  1  0
 30 20  1  0
 29 23  1  0
  3 31  1  0
  4 32  1  0
  4 33  1  0
  8 34  1  0
  8 35  1  0
  9 36  1  1
 10 37  1  0
 11 38  1  0
 11 39  1  0
 12 40  1  6
 13 41  1  0
 13 42  1  0
 15 43  1  0
 17 44  1  0
 18 45  1  0
 21 46  1  0
 22 47  1  0
 24 48  1  0
 27 49  1  0
 28 50  1  0
M  END
>  <smiles>  (20) 
O=C(NCC(=O)N1C[C@H](O)C[C@H]1Cc1cnccn1)c1ccc2cc(F)ccc2n1

>  <score_type>  (20) 
oracle

>  <origin>  (20) 
autodockgpu

>  <m_score__min__energy>  (20) 
-8.5199999999999996

>  <m_primary>  (20) 
energy

>  <rmsd>  (20) 
1.9808414042129567

>  <m_score__min__rmsd>  (20) 
1.9808414042129567

>  <meeko>  (20) 
{"free_energy": -8.12, "intermolecular_energy": -10.21, "internal_energy": -1.91, "cluster_size": 11, "cluster_id": 3, "rank_in_cluster": 3}

>  <energy>  (20) 
-7.24

>  <cluster_rmsd>  (20) 
1.93

>  <cluster>  (20) 
1

$$$$

     RDKit          3D

 50 53  0  0  0  0  0  0  0  0999 V2000
  140.6740   71.6140  221.0930 O   0  0  0  0  0  0  0  0  0  0  0  0
  140.2520   72.1410  222.1800 C   0  0  0  0  0  0  0  0  0  0  0  0
  139.9240   73.5230  222.2320 N   0  0  0  0  0  0  0  0  0  0  0  0
  140.0360   74.4170  221.1040 C   0  0  0  0  0  0  0  0  0  0  0  0
  139.7340   75.8290  221.4980 C   0  0  0  0  0  0  0  0  0  0  0  0
  139.5700   76.0280  222.7270 O   0  0  0  0  0  0  0  0  0  0  0  0
  139.6490   76.8350  220.5020 N   0  0  0  0  0  0  0  0  0  0  0  0
  138.3890   77.2140  219.8330 C   0  0  0  0  0  0  0  0  0  0  0  0
  138.4970   78.7360  220.0530 C   0  0  2  0  0  0  0  0  0  0  0  0
  137.5730   79.3400  219.2280 O   0  0  0  0  0  0  0  0  0  0  0  0
  139.9370   78.9430  219.6110 C   0  0  0  0  0  0  0  0  0  0  0  0
  140.6920   77.6830  219.9380 C   0  0  1  0  0  0  0  0  0  0  0  0
  141.8360   77.8850  220.8660 C   0  0  0  0  0  0  0  0  0  0  0  0
  141.6880   78.9270  221.8800 C   0  0  0  0  0  0  0  0  0  0  0  0
  142.5400   79.9740  222.1110 C   0  0  0  0  0  0  0  0  0  0  0  0
  142.3430   80.9030  223.0760 N   0  0  0  0  0  0  0  0  0  0  0  0
  141.2420   80.7940  223.8560 C   0  0  0  0  0  0  0  0  0  0  0  0
  140.3690   79.7580  223.6490 C   0  0  0  0  0  0  0  0  0  0  0  0
  140.5900   78.8540  222.6900 N   0  0  0  0  0  0  0  0  0  0  0  0
  140.1070   71.2990  223.3910 C   0  0  0  0  0  0  0  0  0  0  0  0
  139.5660   70.0370  223.2630 C   0  0  0  0  0  0  0  0  0  0  0  0
  139.4390   69.2620  224.3970 C   0  0  0  0  0  0  0  0  0  0  0  0
  139.8480   69.7570  225.6270 C   0  0  0  0  0  0  0  0  0  0  0  0
  139.7300   69.0000  226.7730 C   0  0  0  0  0  0  0  0  0  0  0  0
  140.1490   69.5250  227.9790 C   0  0  0  0  0  0  0  0  0  0  0  0
  140.0530   68.8200  229.1330 F   0  0  0  0  0  0  0  0  0  0  0  0
  140.6910   70.8000  228.0860 C   0  0  0  0  0  0  0  0  0  0  0  0
  140.8040   71.5460  226.9330 C   0  0  0  0  0  0  0  0  0  0  0  0
  140.3830   71.0230  225.7100 C   0  0  0  0  0  0  0  0  0  0  0  0
  140.5090   71.7860  224.5980 N   0  0  0  0  0  0  0  0  0  0  0  0
  139.5830   73.8690  223.1780 H   0  0  0  0  0  0  0  0  0  0  0  0
  141.0607   74.3669  220.7073 H   0  0  0  0  0  0  0  0  0  0  0  0
  139.3078   74.1060  220.3404 H   0  0  0  0  0  0  0  0  0  0  0  0
  138.3830   76.9441  218.7666 H   0  0  0  0  0  0  0  0  0  0  0  0
  137.4738   76.7305  220.2052 H   0  0  0  0  0  0  0  0  0  0  0  0
  138.2960   79.1377  221.0571 H   0  0  0  0  0  0  0  0  0  0  0  0
  136.7800   78.7480  219.2140 H   0  0  0  0  0  0  0  0  0  0  0  0
  139.9745   79.1339  218.5283 H   0  0  0  0  0  0  0  0  0  0  0  0
  140.3815   79.8076  220.1257 H   0  0  0  0  0  0  0  0  0  0  0  0
  141.1886   77.2489  219.0577 H   0  0  0  0  0  0  0  0  0  0  0  0
  142.0110   76.9338  221.3899 H   0  0  0  0  0  0  0  0  0  0  0  0
  142.6670   78.2209  220.2284 H   0  0  0  0  0  0  0  0  0  0  0  0
  143.4343   80.0653  221.4771 H   0  0  0  0  0  0  0  0  0  0  0  0
  141.0496   81.5310  224.6496 H   0  0  0  0  0  0  0  0  0  0  0  0
  139.4734   79.6693  224.2815 H   0  0  0  0  0  0  0  0  0  0  0  0
  139.2440   69.6581  222.2818 H   0  0  0  0  0  0  0  0  0  0  0  0
  139.0130   68.2503  224.3261 H   0  0  0  0  0  0  0  0  0  0  0  0
  139.3056   67.9862  226.7269 H   0  0  0  0  0  0  0  0  0  0  0  0
  141.0184   71.1998  229.0571 H   0  0  0  0  0  0  0  0  0  0  0  0
  141.2286   72.5598  226.9771 H   0  0  0  0  0  0  0  0  0  0  0  0
  1  2  2  0
  2  3  1  0
  3  4  1  0
  4  5  1  0
  5  6  2  0
  5  7  1  0
  7  8  1  0
  8  9  1  0
  9 10  1  0
  9 11  1  0
 11 12  1  0
 12 13  1  0
 13 14  1  0
 14 15  2  0
 15 16  1  0
 16 17  2  0
 17 18  1  0
 18 19  2  0
  2 20  1  0
 20 21  2  0
 21 22  1  0
 22 23  2  0
 23 24  1  0
 24 25  2  0
 25 26  1  0
 25 27  1  0
 27 28  2  0
 28 29  1  0
 29 30  2  0
 12  7  1  0
 19 14  1  0
 30 20  1  0
 29 23  1  0
  3 31  1  0
  4 32  1  0
  4 33  1  0
  8 34  1  0
  8 35  1  0
  9 36  1  1
 10 37  1  0
 11 38  1  0
 11 39  1  0
 12 40  1  6
 13 41  1  0
 13 42  1  0
 15 43  1  0
 17 44  1  0
 18 45  1  0
 21 46  1  0
 22 47  1  0
 24 48  1  0
 27 49  1  0
 28 50  1  0
M  END
>  <smiles>  (21) 
O=C(NCC(=O)N1C[C@H](O)C[C@H]1Cc1cnccn1)c1ccc2cc(F)ccc2n1

>  <score_type>  (21) 
oracle

>  <origin>  (21) 
autodockgpu

>  <m_score__min__energy>  (21) 
-8.5199999999999996

>  <m_primary>  (21) 
energy

>  <rmsd>  (21) 
1.941313658818801

>  <m_score__min__rmsd>  (21) 
1.941313658818801

>  <meeko>  (21) 
{"free_energy": -7.13, "intermolecular_energy": -9.22, "internal_energy": -1.97, "cluster_size": 21, "cluster_id": 1, "rank_in_cluster": 21}

>  <energy>  (21) 
-7.13

>  <cluster_rmsd>  (21) 
1.92

>  <cluster>  (21) 
1

$$$$

     RDKit          3D

 50 53  0  0  0  0  0  0  0  0999 V2000
  133.8340   69.5610  226.8210 O   0  0  0  0  0  0  0  0  0  0  0  0
  134.2190   70.6230  226.2180 C   0  0  0  0  0  0  0  0  0  0  0  0
  135.2460   70.5620  225.2370 N   0  0  0  0  0  0  0  0  0  0  0  0
  135.9170   69.3440  224.8510 C   0  0  0  0  0  0  0  0  0  0  0  0
  136.4240   69.4250  223.4460 C   0  0  0  0  0  0  0  0  0  0  0  0
  135.6030   69.1060  222.5510 O   0  0  0  0  0  0  0  0  0  0  0  0
  137.7570   69.8420  223.2010 N   0  0  0  0  0  0  0  0  0  0  0  0
  138.1060   71.1480  222.6070 C   0  0  0  0  0  0  0  0  0  0  0  0
  139.1430   71.5760  223.6640 C   0  0  2  0  0  0  0  0  0  0  0  0
  139.8460   72.6430  223.1470 O   0  0  0  0  0  0  0  0  0  0  0  0
  139.9540   70.2920  223.7420 C   0  0  0  0  0  0  0  0  0  0  0  0
  139.0150   69.1510  223.4560 C   0  0  1  0  0  0  0  0  0  0  0  0
  138.9150   68.1590  224.5580 C   0  0  0  0  0  0  0  0  0  0  0  0
  139.5630   68.5050  225.8220 C   0  0  0  0  0  0  0  0  0  0  0  0
  140.6020   67.8440  226.4200 C   0  0  0  0  0  0  0  0  0  0  0  0
  141.1510   68.2200  227.5990 N   0  0  0  0  0  0  0  0  0  0  0  0
  140.6480   69.3110  228.2220 C   0  0  0  0  0  0  0  0  0  0  0  0
  139.6090   69.9950  227.6490 C   0  0  0  0  0  0  0  0  0  0  0  0
  139.0850   69.6010  226.4840 N   0  0  0  0  0  0  0  0  0  0  0  0
  133.5860   71.9210  226.5500 C   0  0  0  0  0  0  0  0  0  0  0  0
  132.3970   71.9220  227.2490 C   0  0  0  0  0  0  0  0  0  0  0  0
  131.8200   73.1370  227.5550 C   0  0  0  0  0  0  0  0  0  0  0  0
  132.4330   74.3170  227.1600 C   0  0  0  0  0  0  0  0  0  0  0  0
  131.8740   75.5430  227.4530 C   0  0  0  0  0  0  0  0  0  0  0  0
  132.5130   76.6950  227.0450 C   0  0  0  0  0  0  0  0  0  0  0  0
  132.0030   77.9240  227.3100 F   0  0  0  0  0  0  0  0  0  0  0  0
  133.7110   76.6720  226.3410 C   0  0  0  0  0  0  0  0  0  0  0  0
  134.2600   75.4410  226.0540 C   0  0  0  0  0  0  0  0  0  0  0  0
  133.6210   74.2710  226.4630 C   0  0  0  0  0  0  0  0  0  0  0  0
  134.1890   73.0790  226.1620 N   0  0  0  0  0  0  0  0  0  0  0  0
  135.4960   71.4950  224.7920 H   0  0  0  0  0  0  0  0  0  0  0  0
  136.7660   69.1722  225.5290 H   0  0  0  0  0  0  0  0  0  0  0  0
  135.1960   68.5156  224.9129 H   0  0  0  0  0  0  0  0  0  0  0  0
  138.5465   71.0480  221.6040 H   0  0  0  0  0  0  0  0  0  0  0  0
  137.2719   71.8433  222.4313 H   0  0  0  0  0  0  0  0  0  0  0  0
  138.7824   71.9146  224.6465 H   0  0  0  0  0  0  0  0  0  0  0  0
  139.2690   73.4400  223.2590 H   0  0  0  0  0  0  0  0  0  0  0  0
  140.7616   70.3110  222.9954 H   0  0  0  0  0  0  0  0  0  0  0  0
  140.4111   70.1801  224.7363 H   0  0  0  0  0  0  0  0  0  0  0  0
  139.3546   68.5253  222.6174 H   0  0  0  0  0  0  0  0  0  0  0  0
  137.8465   67.9996  224.7653 H   0  0  0  0  0  0  0  0  0  0  0  0
  139.4535   67.2716  224.1939 H   0  0  0  0  0  0  0  0  0  0  0  0
  141.0137   66.9581  225.9144 H   0  0  0  0  0  0  0  0  0  0  0  0
  141.0703   69.6457  229.1810 H   0  0  0  0  0  0  0  0  0  0  0  0
  139.1996   70.8818  228.1550 H   0  0  0  0  0  0  0  0  0  0  0  0
  131.9212   70.9784  227.5545 H   0  0  0  0  0  0  0  0  0  0  0  0
  130.8726   73.1702  228.1129 H   0  0  0  0  0  0  0  0  0  0  0  0
  130.9259   75.6017  228.0077 H   0  0  0  0  0  0  0  0  0  0  0  0
  134.2035   77.6032  226.0242 H   0  0  0  0  0  0  0  0  0  0  0  0
  135.2078   75.3810  225.4990 H   0  0  0  0  0  0  0  0  0  0  0  0
  1  2  2  0
  2  3  1  0
  3  4  1  0
  4  5  1  0
  5  6  2  0
  5  7  1  0
  7  8  1  0
  8  9  1  0
  9 10  1  0
  9 11  1  0
 11 12  1  0
 12 13  1  0
 13 14  1  0
 14 15  2  0
 15 16  1  0
 16 17  2  0
 17 18  1  0
 18 19  2  0
  2 20  1  0
 20 21  2  0
 21 22  1  0
 22 23  2  0
 23 24  1  0
 24 25  2  0
 25 26  1  0
 25 27  1  0
 27 28  2  0
 28 29  1  0
 29 30  2  0
 12  7  1  0
 19 14  1  0
 30 20  1  0
 29 23  1  0
  3 31  1  0
  4 32  1  0
  4 33  1  0
  8 34  1  0
  8 35  1  0
  9 36  1  1
 10 37  1  0
 11 38  1  0
 11 39  1  0
 12 40  1  6
 13 41  1  0
 13 42  1  0
 15 43  1  0
 17 44  1  0
 18 45  1  0
 21 46  1  0
 22 47  1  0
 24 48  1  0
 27 49  1  0
 28 50  1  0
M  END
>  <smiles>  (22) 
O=C(NCC(=O)N1C[C@H](O)C[C@H]1Cc1cnccn1)c1ccc2cc(F)ccc2n1

>  <score_type>  (22) 
oracle

>  <origin>  (22) 
autodockgpu

>  <m_score__min__energy>  (22) 
-8.5199999999999996

>  <m_primary>  (22) 
energy

>  <rmsd>  (22) 
8.3043807336134

>  <m_score__min__rmsd>  (22) 
8.3043807336134

>  <meeko>  (22) 
{"free_energy": -7.32, "intermolecular_energy": -9.41, "internal_energy": -1.55, "cluster_size": 1, "cluster_id": 6, "rank_in_cluster": 1}

>  <energy>  (22) 
-8.4

>  <cluster_rmsd>  (22) 
0.0

>  <cluster>  (22) 
2

$$$$

     RDKit          3D

 50 53  0  0  0  0  0  0  0  0999 V2000
  140.4660   73.5930  222.3160 O   0  0  0  0  0  0  0  0  0  0  0  0
  140.3540   72.3240  222.1940 C   0  0  0  0  0  0  0  0  0  0  0  0
  140.4330   71.7130  220.9130 N   0  0  0  0  0  0  0  0  0  0  0  0
  140.6390   72.4450  219.6860 C   0  0  0  0  0  0  0  0  0  0  0  0
  142.0750   72.4070  219.2660 C   0  0  0  0  0  0  0  0  0  0  0  0
  142.3180   71.7700  218.2130 O   0  0  0  0  0  0  0  0  0  0  0  0
  143.0550   73.0690  220.0500 N   0  0  0  0  0  0  0  0  0  0  0  0
  144.1210   72.3610  220.7870 C   0  0  0  0  0  0  0  0  0  0  0  0
  145.3090   73.1930  220.2630 C   0  0  2  0  0  0  0  0  0  0  0  0
  146.3950   72.9140  221.0640 O   0  0  0  0  0  0  0  0  0  0  0  0
  144.7390   74.5870  220.4710 C   0  0  0  0  0  0  0  0  0  0  0  0
  143.2460   74.4910  220.3030 C   0  0  1  0  0  0  0  0  0  0  0  0
  142.7030   75.3480  219.2170 C   0  0  0  0  0  0  0  0  0  0  0  0
  142.3240   76.7130  219.5780 C   0  0  0  0  0  0  0  0  0  0  0  0
  142.4860   77.8390  218.8160 C   0  0  0  0  0  0  0  0  0  0  0  0
  142.1150   79.0770  219.2170 N   0  0  0  0  0  0  0  0  0  0  0  0
  141.5490   79.2120  220.4390 C   0  0  0  0  0  0  0  0  0  0  0  0
  141.3710   78.1050  221.2260 C   0  0  0  0  0  0  0  0  0  0  0  0
  141.7480   76.8940  220.8040 N   0  0  0  0  0  0  0  0  0  0  0  0
  140.1390   71.4910  223.4000 C   0  0  0  0  0  0  0  0  0  0  0  0
  139.3990   70.3330  223.2860 C   0  0  0  0  0  0  0  0  0  0  0  0
  139.2080   69.5640  224.4150 C   0  0  0  0  0  0  0  0  0  0  0  0
  139.7540   69.9620  225.6280 C   0  0  0  0  0  0  0  0  0  0  0  0
  139.5760   69.2110  226.7690 C   0  0  0  0  0  0  0  0  0  0  0  0
  140.1330   69.6380  227.9570 C   0  0  0  0  0  0  0  0  0  0  0  0
  139.9860   68.9330  229.1060 F   0  0  0  0  0  0  0  0  0  0  0  0
  140.8750   70.8090  228.0510 C   0  0  0  0  0  0  0  0  0  0  0  0
  141.0460   71.5520  226.9030 C   0  0  0  0  0  0  0  0  0  0  0  0
  140.4860   71.1270  225.6980 C   0  0  0  0  0  0  0  0  0  0  0  0
  140.6740   71.8830  224.5900 N   0  0  0  0  0  0  0  0  0  0  0  0
  140.3280   70.6550  220.9130 H   0  0  0  0  0  0  0  0  0  0  0  0
  140.0216   71.9971  218.8934 H   0  0  0  0  0  0  0  0  0  0  0  0
  140.3538   73.4939  219.8548 H   0  0  0  0  0  0  0  0  0  0  0  0
  144.0014   72.4413  221.8775 H   0  0  0  0  0  0  0  0  0  0  0  0
  144.1810   71.2732  220.6351 H   0  0  0  0  0  0  0  0  0  0  0  0
  145.6567   73.0228  219.2334 H   0  0  0  0  0  0  0  0  0  0  0  0
  146.1640   72.0990  221.5760 H   0  0  0  0  0  0  0  0  0  0  0  0
  144.9815   74.9456  221.4822 H   0  0  0  0  0  0  0  0  0  0  0  0
  145.1673   75.2946  219.7458 H   0  0  0  0  0  0  0  0  0  0  0  0
  142.6975   74.8627  221.1811 H   0  0  0  0  0  0  0  0  0  0  0  0
  143.4693   75.4130  218.4305 H   0  0  0  0  0  0  0  0  0  0  0  0
  141.7652   74.8619  218.9101 H   0  0  0  0  0  0  0  0  0  0  0  0
  142.9436   77.7311  217.8215 H   0  0  0  0  0  0  0  0  0  0  0  0
  141.2343   80.2032  220.7975 H   0  0  0  0  0  0  0  0  0  0  0  0
  140.9113   78.2142  222.2194 H   0  0  0  0  0  0  0  0  0  0  0  0
  138.9717   70.0301  222.3187 H   0  0  0  0  0  0  0  0  0  0  0  0
  138.6226   68.6347  224.3543 H   0  0  0  0  0  0  0  0  0  0  0  0
  138.9943   68.2781  226.7333 H   0  0  0  0  0  0  0  0  0  0  0  0
  141.3106   71.1317  229.0081 H   0  0  0  0  0  0  0  0  0  0  0  0
  141.6272   72.4853  226.9370 H   0  0  0  0  0  0  0  0  0  0  0  0
  1  2  2  0
  2  3  1  0
  3  4  1  0
  4  5  1  0
  5  6  2  0
  5  7  1  0
  7  8  1  0
  8  9  1  0
  9 10  1  0
  9 11  1  0
 11 12  1  0
 12 13  1  0
 13 14  1  0
 14 15  2  0
 15 16  1  0
 16 17  2  0
 17 18  1  0
 18 19  2  0
  2 20  1  0
 20 21  2  0
 21 22  1  0
 22 23  2  0
 23 24  1  0
 24 25  2  0
 25 26  1  0
 25 27  1  0
 27 28  2  0
 28 29  1  0
 29 30  2  0
 12  7  1  0
 19 14  1  0
 30 20  1  0
 29 23  1  0
  3 31  1  0
  4 32  1  0
  4 33  1  0
  8 34  1  0
  8 35  1  0
  9 36  1  6
 10 37  1  0
 11 38  1  0
 11 39  1  0
 12 40  1  1
 13 41  1  0
 13 42  1  0
 15 43  1  0
 17 44  1  0
 18 45  1  0
 21 46  1  0
 22 47  1  0
 24 48  1  0
 27 49  1  0
 28 50  1  0
M  END
>  <smiles>  (23) 
O=C(NCC(=O)N1C[C@H](O)C[C@H]1Cc1cnccn1)c1ccc2cc(F)ccc2n1

>  <score_type>  (23) 
oracle

>  <origin>  (23) 
autodockgpu

>  <m_score__min__energy>  (23) 
-8.5199999999999996

>  <m_primary>  (23) 
energy

>  <rmsd>  (23) 
3.518509187765424

>  <m_score__min__rmsd>  (23) 
3.518509187765424

>  <meeko>  (23) 
{"free_energy": -7.86, "intermolecular_energy": -9.94, "internal_energy": -1.33, "cluster_size": 4, "cluster_id": 4, "rank_in_cluster": 3}

>  <energy>  (23) 
-8.2

>  <cluster_rmsd>  (23) 
0.0

>  <cluster>  (23) 
3

$$$$

     RDKit          3D

 50 53  0  0  0  0  0  0  0  0999 V2000
  140.1560   71.6460  220.9760 O   0  0  0  0  0  0  0  0  0  0  0  0
  139.9620   72.1920  222.1180 C   0  0  0  0  0  0  0  0  0  0  0  0
  139.7160   73.5880  222.2160 N   0  0  0  0  0  0  0  0  0  0  0  0
  139.6670   74.4780  221.0810 C   0  0  0  0  0  0  0  0  0  0  0  0
  140.7060   75.5490  221.1840 C   0  0  0  0  0  0  0  0  0  0  0  0
  140.8520   76.0580  222.3220 O   0  0  0  0  0  0  0  0  0  0  0  0
  141.4460   75.9250  220.0340 N   0  0  0  0  0  0  0  0  0  0  0  0
  141.0790   77.0610  219.1640 C   0  0  0  0  0  0  0  0  0  0  0  0
  142.4580   77.7490  219.1450 C   0  0  2  0  0  0  0  0  0  0  0  0
  142.4420   78.6780  218.1270 O   0  0  0  0  0  0  0  0  0  0  0  0
  143.3300   76.5380  218.8520 C   0  0  0  0  0  0  0  0  0  0  0  0
  142.6570   75.3420  219.4690 C   0  0  1  0  0  0  0  0  0  0  0  0
  143.4850   74.6370  220.4830 C   0  0  0  0  0  0  0  0  0  0  0  0
  144.1590   73.4140  220.0520 C   0  0  0  0  0  0  0  0  0  0  0  0
  145.3750   73.3220  219.4280 C   0  0  0  0  0  0  0  0  0  0  0  0
  145.9380   72.1510  219.0510 N   0  0  0  0  0  0  0  0  0  0  0  0
  145.2670   71.0040  219.3060 C   0  0  0  0  0  0  0  0  0  0  0  0
  144.0480   71.0610  219.9300 C   0  0  0  0  0  0  0  0  0  0  0  0
  143.5140   72.2330  220.2900 N   0  0  0  0  0  0  0  0  0  0  0  0
  139.9950   71.3570  223.3410 C   0  0  0  0  0  0  0  0  0  0  0  0
  139.5330   70.0590  223.2730 C   0  0  0  0  0  0  0  0  0  0  0  0
  139.5720   69.2900  224.4180 C   0  0  0  0  0  0  0  0  0  0  0  0
  140.0660   69.8270  225.5990 C   0  0  0  0  0  0  0  0  0  0  0  0
  140.1140   69.0770  226.7560 C   0  0  0  0  0  0  0  0  0  0  0  0
  140.6120   69.6440  227.9110 C   0  0  0  0  0  0  0  0  0  0  0  0
  140.6790   68.9480  229.0730 F   0  0  0  0  0  0  0  0  0  0  0  0
  141.0720   70.9540  227.9580 C   0  0  0  0  0  0  0  0  0  0  0  0
  141.0180   71.6930  226.7950 C   0  0  0  0  0  0  0  0  0  0  0  0
  140.5170   71.1280  225.6230 C   0  0  0  0  0  0  0  0  0  0  0  0
  140.4790   71.8840  224.5000 N   0  0  0  0  0  0  0  0  0  0  0  0
  139.5670   73.9490  223.2060 H   0  0  0  0  0  0  0  0  0  0  0  0
  139.8407   73.8975  220.1629 H   0  0  0  0  0  0  0  0  0  0  0  0
  138.6768   74.9564  221.0579 H   0  0  0  0  0  0  0  0  0  0  0  0
  140.7587   76.7362  218.1631 H   0  0  0  0  0  0  0  0  0  0  0  0
  140.2301   77.6767  219.4961 H   0  0  0  0  0  0  0  0  0  0  0  0
  142.7819   78.3022  220.0389 H   0  0  0  0  0  0  0  0  0  0  0  0
  143.3640   78.7180  217.7680 H   0  0  0  0  0  0  0  0  0  0  0  0
  143.4256   76.3971  217.7653 H   0  0  0  0  0  0  0  0  0  0  0  0
  144.3390   76.6748  219.2683 H   0  0  0  0  0  0  0  0  0  0  0  0
  142.4646   74.5430  218.7378 H   0  0  0  0  0  0  0  0  0  0  0  0
  144.2587   75.3393  220.8268 H   0  0  0  0  0  0  0  0  0  0  0  0
  142.7751   74.3149  221.2591 H   0  0  0  0  0  0  0  0  0  0  0  0
  145.9245   74.2524  219.2219 H   0  0  0  0  0  0  0  0  0  0  0  0
  145.6962   70.0339  219.0149 H   0  0  0  0  0  0  0  0  0  0  0  0
  143.5011   70.1294  220.1376 H   0  0  0  0  0  0  0  0  0  0  0  0
  139.1435   69.6475  222.3301 H   0  0  0  0  0  0  0  0  0  0  0  0
  139.2115   68.2510  224.3950 H   0  0  0  0  0  0  0  0  0  0  0  0
  139.7583   68.0361  226.7576 H   0  0  0  0  0  0  0  0  0  0  0  0
  141.4653   71.3864  228.8898 H   0  0  0  0  0  0  0  0  0  0  0  0
  141.3723   72.7344  226.7920 H   0  0  0  0  0  0  0  0  0  0  0  0
  1  2  2  0
  2  3  1  0
  3  4  1  0
  4  5  1  0
  5  6  2  0
  5  7  1  0
  7  8  1  0
  8  9  1  0
  9 10  1  0
  9 11  1  0
 11 12  1  0
 12 13  1  0
 13 14  1  0
 14 15  2  0
 15 16  1  0
 16 17  2  0
 17 18  1  0
 18 19  2  0
  2 20  1  0
 20 21  2  0
 21 22  1  0
 22 23  2  0
 23 24  1  0
 24 25  2  0
 25 26  1  0
 25 27  1  0
 27 28  2  0
 28 29  1  0
 29 30  2  0
 12  7  1  0
 19 14  1  0
 30 20  1  0
 29 23  1  0
  3 31  1  0
  4 32  1  0
  4 33  1  0
  8 34  1  0
  8 35  1  0
  9 36  1  1
 10 37  1  0
 11 38  1  0
 11 39  1  0
 12 40  1  6
 13 41  1  0
 13 42  1  0
 15 43  1  0
 17 44  1  0
 18 45  1  0
 21 46  1  0
 22 47  1  0
 24 48  1  0
 27 49  1  0
 28 50  1  0
M  END
>  <smiles>  (24) 
O=C(NCC(=O)N1C[C@H](O)C[C@H]1Cc1cnccn1)c1ccc2cc(F)ccc2n1

>  <score_type>  (24) 
oracle

>  <origin>  (24) 
autodockgpu

>  <m_score__min__energy>  (24) 
-8.5199999999999996

>  <m_primary>  (24) 
energy

>  <rmsd>  (24) 
2.0269733998434356

>  <m_score__min__rmsd>  (24) 
2.0269733998434356

>  <meeko>  (24) 
{"free_energy": -7.96, "intermolecular_energy": -10.05, "internal_energy": -1.71, "cluster_size": 11, "cluster_id": 3, "rank_in_cluster": 8}

>  <energy>  (24) 
-8.15

>  <cluster_rmsd>  (24) 
0.98

>  <cluster>  (24) 
3

$$$$

     RDKit          3D

 50 53  0  0  0  0  0  0  0  0999 V2000
  139.1000   71.2990  221.1440 O   0  0  0  0  0  0  0  0  0  0  0  0
  139.3260   71.8410  222.2810 C   0  0  0  0  0  0  0  0  0  0  0  0
  139.4100   73.2550  222.4010 N   0  0  0  0  0  0  0  0  0  0  0  0
  139.2520   74.1660  221.2920 C   0  0  0  0  0  0  0  0  0  0  0  0
  140.3600   75.1710  221.2540 C   0  0  0  0  0  0  0  0  0  0  0  0
  140.6280   75.7290  222.3450 O   0  0  0  0  0  0  0  0  0  0  0  0
  141.0270   75.4360  220.0310 N   0  0  0  0  0  0  0  0  0  0  0  0
  140.9940   76.7480  219.3520 C   0  0  0  0  0  0  0  0  0  0  0  0
  142.5140   76.9050  219.1510 C   0  0  2  0  0  0  0  0  0  0  0  0
  142.7090   77.9250  218.2450 O   0  0  0  0  0  0  0  0  0  0  0  0
  142.8290   75.5260  218.5930 C   0  0  0  0  0  0  0  0  0  0  0  0
  141.8490   74.5610  219.2040 C   0  0  1  0  0  0  0  0  0  0  0  0
  142.4840   73.4640  219.9820 C   0  0  0  0  0  0  0  0  0  0  0  0
  143.9450   73.4090  219.9760 C   0  0  0  0  0  0  0  0  0  0  0  0
  144.7490   73.0490  218.9280 C   0  0  0  0  0  0  0  0  0  0  0  0
  146.1000   73.0160  218.9960 N   0  0  0  0  0  0  0  0  0  0  0  0
  146.6920   73.3570  220.1640 C   0  0  0  0  0  0  0  0  0  0  0  0
  145.9160   73.7230  221.2320 C   0  0  0  0  0  0  0  0  0  0  0  0
  144.5830   73.7460  221.1370 N   0  0  0  0  0  0  0  0  0  0  0  0
  139.5030   70.9840  223.4770 C   0  0  0  0  0  0  0  0  0  0  0  0
  139.1110   69.6640  223.4120 C   0  0  0  0  0  0  0  0  0  0  0  0
  139.2840   68.8750  224.5310 C   0  0  0  0  0  0  0  0  0  0  0  0
  139.8370   69.4150  225.6830 C   0  0  0  0  0  0  0  0  0  0  0  0
  140.0180   68.6460  226.8130 C   0  0  0  0  0  0  0  0  0  0  0  0
  140.5730   69.2160  227.9410 C   0  0  0  0  0  0  0  0  0  0  0  0
  140.7710   68.5020  229.0760 F   0  0  0  0  0  0  0  0  0  0  0  0
  140.9600   70.5500  227.9850 C   0  0  0  0  0  0  0  0  0  0  0  0
  140.7740   71.3080  226.8490 C   0  0  0  0  0  0  0  0  0  0  0  0
  140.2150   70.7390  225.7050 C   0  0  0  0  0  0  0  0  0  0  0  0
  140.0460   71.5150  224.6080 N   0  0  0  0  0  0  0  0  0  0  0  0
  139.6010   73.6120  223.3850 H   0  0  0  0  0  0  0  0  0  0  0  0
  139.2557   73.5924  220.3534 H   0  0  0  0  0  0  0  0  0  0  0  0
  138.2997   74.7025  221.4155 H   0  0  0  0  0  0  0  0  0  0  0  0
  140.4464   76.7130  218.3986 H   0  0  0  0  0  0  0  0  0  0  0  0
  140.4851   77.5629  219.8877 H   0  0  0  0  0  0  0  0  0  0  0  0
  143.1344   77.1664  220.0209 H   0  0  0  0  0  0  0  0  0  0  0  0
  141.9030   77.9470  217.6700 H   0  0  0  0  0  0  0  0  0  0  0  0
  142.7212   75.5293  217.4983 H   0  0  0  0  0  0  0  0  0  0  0  0
  143.8624   75.2356  218.8332 H   0  0  0  0  0  0  0  0  0  0  0  0
  141.2795   74.0031  218.4461 H   0  0  0  0  0  0  0  0  0  0  0  0
  142.1596   73.5674  221.0280 H   0  0  0  0  0  0  0  0  0  0  0  0
  142.1600   72.5366  219.4871 H   0  0  0  0  0  0  0  0  0  0  0  0
  144.2699   72.7711  217.9776 H   0  0  0  0  0  0  0  0  0  0  0  0
  147.7881   73.3405  220.2553 H   0  0  0  0  0  0  0  0  0  0  0  0
  146.3968   74.0019  222.1812 H   0  0  0  0  0  0  0  0  0  0  0  0
  138.6718   69.2504  222.4922 H   0  0  0  0  0  0  0  0  0  0  0  0
  138.9832   67.8172  224.5095 H   0  0  0  0  0  0  0  0  0  0  0  0
  139.7224   67.5865  226.8156 H   0  0  0  0  0  0  0  0  0  0  0  0
  141.3993   70.9856  228.8945 H   0  0  0  0  0  0  0  0  0  0  0  0
  141.0682   72.3679  226.8447 H   0  0  0  0  0  0  0  0  0  0  0  0
  1  2  2  0
  2  3  1  0
  3  4  1  0
  4  5  1  0
  5  6  2  0
  5  7  1  0
  7  8  1  0
  8  9  1  0
  9 10  1  0
  9 11  1  0
 11 12  1  0
 12 13  1  0
 13 14  1  0
 14 15  2  0
 15 16  1  0
 16 17  2  0
 17 18  1  0
 18 19  2  0
  2 20  1  0
 20 21  2  0
 21 22  1  0
 22 23  2  0
 23 24  1  0
 24 25  2  0
 25 26  1  0
 25 27  1  0
 27 28  2  0
 28 29  1  0
 29 30  2  0
 12  7  1  0
 19 14  1  0
 30 20  1  0
 29 23  1  0
  3 31  1  0
  4 32  1  0
  4 33  1  0
  8 34  1  0
  8 35  1  0
  9 36  1  1
 10 37  1  0
 11 38  1  0
 11 39  1  0
 12 40  1  6
 13 41  1  0
 13 42  1  0
 15 43  1  0
 17 44  1  0
 18 45  1  0
 21 46  1  0
 22 47  1  0
 24 48  1  0
 27 49  1  0
 28 50  1  0
M  END
>  <smiles>  (25) 
O=C(NCC(=O)N1C[C@H](O)C[C@H]1Cc1cnccn1)c1ccc2cc(F)ccc2n1

>  <score_type>  (25) 
oracle

>  <origin>  (25) 
autodockgpu

>  <m_score__min__energy>  (25) 
-8.5199999999999996

>  <m_primary>  (25) 
energy

>  <rmsd>  (25) 
1.9150701605008178

>  <m_score__min__rmsd>  (25) 
1.9150701605008178

>  <meeko>  (25) 
{"free_energy": -7.65, "intermolecular_energy": -9.73, "internal_energy": -1.76, "cluster_size": 11, "cluster_id": 3, "rank_in_cluster": 11}

>  <energy>  (25) 
-8.12

>  <cluster_rmsd>  (25) 
0.26

>  <cluster>  (25) 
3

$$$$

     RDKit          3D

 50 53  0  0  0  0  0  0  0  0999 V2000
  139.8410   73.7390  222.4200 O   0  0  0  0  0  0  0  0  0  0  0  0
  140.4960   72.6410  222.3600 C   0  0  0  0  0  0  0  0  0  0  0  0
  141.3910   72.3940  221.2840 N   0  0  0  0  0  0  0  0  0  0  0  0
  141.6300   73.3260  220.2080 C   0  0  0  0  0  0  0  0  0  0  0  0
  142.1510   72.6280  218.9920 C   0  0  0  0  0  0  0  0  0  0  0  0
  141.2900   72.3060  218.1370 O   0  0  0  0  0  0  0  0  0  0  0  0
  143.5410   72.3730  218.8680 N   0  0  0  0  0  0  0  0  0  0  0  0
  144.5570   73.4390  218.7500 C   0  0  0  0  0  0  0  0  0  0  0  0
  145.5010   72.9350  219.8600 C   0  0  2  0  0  0  0  0  0  0  0  0
  146.6970   73.6060  219.7220 O   0  0  0  0  0  0  0  0  0  0  0  0
  145.5760   71.4680  219.4670 C   0  0  0  0  0  0  0  0  0  0  0  0
  144.2610   71.1060  218.8320 C   0  0  1  0  0  0  0  0  0  0  0  0
  143.5340   70.0120  219.5280 C   0  0  0  0  0  0  0  0  0  0  0  0
  144.0910   68.6650  219.4070 C   0  0  0  0  0  0  0  0  0  0  0  0
  143.4280   67.5340  219.0120 C   0  0  0  0  0  0  0  0  0  0  0  0
  144.0090   66.3150  218.9270 N   0  0  0  0  0  0  0  0  0  0  0  0
  145.3180   66.2040  219.2500 C   0  0  0  0  0  0  0  0  0  0  0  0
  146.0110   67.3180  219.6480 C   0  0  0  0  0  0  0  0  0  0  0  0
  145.4120   68.5100  219.7230 N   0  0  0  0  0  0  0  0  0  0  0  0
  140.3140   71.6230  223.4210 C   0  0  0  0  0  0  0  0  0  0  0  0
  139.7100   70.4260  223.0990 C   0  0  0  0  0  0  0  0  0  0  0  0
  139.5490   69.4850  224.0950 C   0  0  0  0  0  0  0  0  0  0  0  0
  139.9890   69.7550  225.3840 C   0  0  0  0  0  0  0  0  0  0  0  0
  139.8380   68.8300  226.3950 C   0  0  0  0  0  0  0  0  0  0  0  0
  140.2880   69.1330  227.6640 C   0  0  0  0  0  0  0  0  0  0  0  0
  140.1620   68.2570  228.6910 F   0  0  0  0  0  0  0  0  0  0  0  0
  140.8930   70.3460  227.9680 C   0  0  0  0  0  0  0  0  0  0  0  0
  141.0380   71.2620  226.9480 C   0  0  0  0  0  0  0  0  0  0  0  0
  140.5870   70.9640  225.6630 C   0  0  0  0  0  0  0  0  0  0  0  0
  140.7450   71.8890  224.6860 N   0  0  0  0  0  0  0  0  0  0  0  0
  141.8890   71.4550  221.3210 H   0  0  0  0  0  0  0  0  0  0  0  0
  140.6862   73.8311  219.9548 H   0  0  0  0  0  0  0  0  0  0  0  0
  142.3837   74.0550  220.5403 H   0  0  0  0  0  0  0  0  0  0  0  0
  145.0401   73.4505  217.7618 H   0  0  0  0  0  0  0  0  0  0  0  0
  144.1947   74.4730  218.8482 H   0  0  0  0  0  0  0  0  0  0  0  0
  145.2045   73.0819  220.9091 H   0  0  0  0  0  0  0  0  0  0  0  0
  146.4770   74.5010  219.3620 H   0  0  0  0  0  0  0  0  0  0  0  0
  146.3956   71.3120  218.7501 H   0  0  0  0  0  0  0  0  0  0  0  0
  145.7687   70.8386  220.3483 H   0  0  0  0  0  0  0  0  0  0  0  0
  144.3815   70.6925  217.8198 H   0  0  0  0  0  0  0  0  0  0  0  0
  143.5016   70.2632  220.5985 H   0  0  0  0  0  0  0  0  0  0  0  0
  142.5521   69.9614  219.0347 H   0  0  0  0  0  0  0  0  0  0  0  0
  142.3635   67.6213  218.7490 H   0  0  0  0  0  0  0  0  0  0  0  0
  145.8222   65.2280  219.1938 H   0  0  0  0  0  0  0  0  0  0  0  0
  147.0758   67.2292  219.9094 H   0  0  0  0  0  0  0  0  0  0  0  0
  139.3652   70.2264  222.0737 H   0  0  0  0  0  0  0  0  0  0  0  0
  139.0718   68.5203  223.8678 H   0  0  0  0  0  0  0  0  0  0  0  0
  139.3630   67.8589  226.1920 H   0  0  0  0  0  0  0  0  0  0  0  0
  141.2440   70.5678  228.9866 H   0  0  0  0  0  0  0  0  0  0  0  0
  141.5124   72.2338  227.1493 H   0  0  0  0  0  0  0  0  0  0  0  0
  1  2  2  0
  2  3  1  0
  3  4  1  0
  4  5  1  0
  5  6  2  0
  5  7  1  0
  7  8  1  0
  8  9  1  0
  9 10  1  0
  9 11  1  0
 11 12  1  0
 12 13  1  0
 13 14  1  0
 14 15  2  0
 15 16  1  0
 16 17  2  0
 17 18  1  0
 18 19  2  0
  2 20  1  0
 20 21  2  0
 21 22  1  0
 22 23  2  0
 23 24  1  0
 24 25  2  0
 25 26  1  0
 25 27  1  0
 27 28  2  0
 28 29  1  0
 29 30  2  0
 12  7  1  0
 19 14  1  0
 30 20  1  0
 29 23  1  0
  3 31  1  0
  4 32  1  0
  4 33  1  0
  8 34  1  0
  8 35  1  0
  9 36  1  1
 10 37  1  0
 11 38  1  0
 11 39  1  0
 12 40  1  6
 13 41  1  0
 13 42  1  0
 15 43  1  0
 17 44  1  0
 18 45  1  0
 21 46  1  0
 22 47  1  0
 24 48  1  0
 27 49  1  0
 28 50  1  0
M  END
>  <smiles>  (26) 
O=C(NCC(=O)N1C[C@H](O)C[C@H]1Cc1cnccn1)c1ccc2cc(F)ccc2n1

>  <score_type>  (26) 
oracle

>  <origin>  (26) 
autodockgpu

>  <m_score__min__energy>  (26) 
-8.5199999999999996

>  <m_primary>  (26) 
energy

>  <rmsd>  (26) 
4.367922170734356

>  <m_score__min__rmsd>  (26) 
4.367922170734356

>  <meeko>  (26) 
{"free_energy": -8.4, "intermolecular_energy": -10.49, "internal_energy": -1.09, "cluster_size": 1, "cluster_id": 2, "rank_in_cluster": 1}

>  <energy>  (26) 
-8.07

>  <cluster_rmsd>  (26) 
0.29

>  <cluster>  (26) 
3

$$$$

     RDKit          3D

 50 53  0  0  0  0  0  0  0  0999 V2000
  141.0620   72.0840  221.8810 O   0  0  0  0  0  0  0  0  0  0  0  0
  140.0360   72.0620  222.6470 C   0  0  0  0  0  0  0  0  0  0  0  0
  138.9380   72.9310  222.4060 N   0  0  0  0  0  0  0  0  0  0  0  0
  138.8860   73.8780  221.3180 C   0  0  0  0  0  0  0  0  0  0  0  0
  139.6490   75.1230  221.6450 C   0  0  0  0  0  0  0  0  0  0  0  0
  140.8240   74.9520  222.0510 O   0  0  0  0  0  0  0  0  0  0  0  0
  139.0300   76.3900  221.4890 N   0  0  0  0  0  0  0  0  0  0  0  0
  137.6370   76.6700  221.8910 C   0  0  0  0  0  0  0  0  0  0  0  0
  137.9210   77.9400  222.7170 C   0  0  2  0  0  0  0  0  0  0  0  0
  136.7150   78.5690  222.9390 O   0  0  0  0  0  0  0  0  0  0  0  0
  138.8190   78.6740  221.7320 C   0  0  0  0  0  0  0  0  0  0  0  0
  139.5640   77.6310  220.9430 C   0  0  1  0  0  0  0  0  0  0  0  0
  141.0420   77.7240  221.0610 C   0  0  0  0  0  0  0  0  0  0  0  0
  141.5720   78.7490  221.9590 C   0  0  0  0  0  0  0  0  0  0  0  0
  142.1230   79.9500  221.6000 C   0  0  0  0  0  0  0  0  0  0  0  0
  142.5990   80.8520  222.4890 N   0  0  0  0  0  0  0  0  0  0  0  0
  142.5270   80.5540  223.8070 C   0  0  0  0  0  0  0  0  0  0  0  0
  141.9810   79.3600  224.2000 C   0  0  0  0  0  0  0  0  0  0  0  0
  141.5180   78.4870  223.2990 N   0  0  0  0  0  0  0  0  0  0  0  0
  140.0010   71.1210  223.7910 C   0  0  0  0  0  0  0  0  0  0  0  0
  139.4310   69.8780  223.6130 C   0  0  0  0  0  0  0  0  0  0  0  0
  139.4070   69.0100  224.6850 C   0  0  0  0  0  0  0  0  0  0  0  0
  139.9450   69.3960  225.9050 C   0  0  0  0  0  0  0  0  0  0  0  0
  139.9310   68.5460  226.9900 C   0  0  0  0  0  0  0  0  0  0  0  0
  140.4750   68.9640  228.1860 C   0  0  0  0  0  0  0  0  0  0  0  0
  140.4860   68.1650  229.2820 F   0  0  0  0  0  0  0  0  0  0  0  0
  141.0440   70.2220  228.3450 C   0  0  0  0  0  0  0  0  0  0  0  0
  141.0520   71.0630  227.2530 C   0  0  0  0  0  0  0  0  0  0  0  0
  140.5040   70.6480  226.0400 C   0  0  0  0  0  0  0  0  0  0  0  0
  140.5290   71.5010  224.9880 N   0  0  0  0  0  0  0  0  0  0  0  0
  138.1330   72.8390  223.0960 H   0  0  0  0  0  0  0  0  0  0  0  0
  139.3216   73.4162  220.4197 H   0  0  0  0  0  0  0  0  0  0  0  0
  137.8345   74.1503  221.1442 H   0  0  0  0  0  0  0  0  0  0  0  0
  136.9835   76.8681  221.0286 H   0  0  0  0  0  0  0  0  0  0  0  0
  137.1054   75.8585  222.4095 H   0  0  0  0  0  0  0  0  0  0  0  0
  138.3775   77.8283  223.7115 H   0  0  0  0  0  0  0  0  0  0  0  0
  136.0270   77.8580  222.9540 H   0  0  0  0  0  0  0  0  0  0  0  0
  138.2102   79.2932  221.0568 H   0  0  0  0  0  0  0  0  0  0  0  0
  139.5198   79.3357  222.2622 H   0  0  0  0  0  0  0  0  0  0  0  0
  139.4160   77.7375  219.8582 H   0  0  0  0  0  0  0  0  0  0  0  0
  141.4087   76.7496  221.4161 H   0  0  0  0  0  0  0  0  0  0  0  0
  141.3915   78.0131  220.0589 H   0  0  0  0  0  0  0  0  0  0  0  0
  142.1819   80.1951  220.5293 H   0  0  0  0  0  0  0  0  0  0  0  0
  142.9038   81.2647  224.5573 H   0  0  0  0  0  0  0  0  0  0  0  0
  141.9228   79.1164  225.2711 H   0  0  0  0  0  0  0  0  0  0  0  0
  139.0063   69.5861  222.6412 H   0  0  0  0  0  0  0  0  0  0  0  0
  138.9610   68.0108  224.5728 H   0  0  0  0  0  0  0  0  0  0  0  0
  139.4894   67.5423  226.9024 H   0  0  0  0  0  0  0  0  0  0  0  0
  141.4728   70.5354  229.3083 H   0  0  0  0  0  0  0  0  0  0  0  0
  141.4931   72.0670  227.3390 H   0  0  0  0  0  0  0  0  0  0  0  0
  1  2  2  0
  2  3  1  0
  3  4  1  0
  4  5  1  0
  5  6  2  0
  5  7  1  0
  7  8  1  0
  8  9  1  0
  9 10  1  0
  9 11  1  0
 11 12  1  0
 12 13  1  0
 13 14  1  0
 14 15  2  0
 15 16  1  0
 16 17  2  0
 17 18  1  0
 18 19  2  0
  2 20  1  0
 20 21  2  0
 21 22  1  0
 22 23  2  0
 23 24  1  0
 24 25  2  0
 25 26  1  0
 25 27  1  0
 27 28  2  0
 28 29  1  0
 29 30  2  0
 12  7  1  0
 19 14  1  0
 30 20  1  0
 29 23  1  0
  3 31  1  0
  4 32  1  0
  4 33  1  0
  8 34  1  0
  8 35  1  0
  9 36  1  1
 10 37  1  0
 11 38  1  0
 11 39  1  0
 12 40  1  6
 13 41  1  0
 13 42  1  0
 15 43  1  0
 17 44  1  0
 18 45  1  0
 21 46  1  0
 22 47  1  0
 24 48  1  0
 27 49  1  0
 28 50  1  0
M  END
>  <smiles>  (27) 
O=C(NCC(=O)N1C[C@H](O)C[C@H]1Cc1cnccn1)c1ccc2cc(F)ccc2n1

>  <score_type>  (27) 
oracle

>  <origin>  (27) 
autodockgpu

>  <m_score__min__energy>  (27) 
-8.5199999999999996

>  <m_primary>  (27) 
energy

>  <rmsd>  (27) 
2.5535240629492297

>  <m_score__min__rmsd>  (27) 
2.5535240629492297

>  <meeko>  (27) 
{"free_energy": -8.11, "intermolecular_energy": -10.2, "internal_energy": -1.17, "cluster_size": 21, "cluster_id": 1, "rank_in_cluster": 12}

>  <energy>  (27) 
-8.03

>  <cluster_rmsd>  (27) 
0.99

>  <cluster>  (27) 
3

$$$$

     RDKit          3D

 50 53  0  0  0  0  0  0  0  0999 V2000
  141.5160   72.2810  221.6540 O   0  0  0  0  0  0  0  0  0  0  0  0
  140.4680   72.4350  222.3730 C   0  0  0  0  0  0  0  0  0  0  0  0
  139.5290   73.4580  222.0700 N   0  0  0  0  0  0  0  0  0  0  0  0
  139.6720   74.3770  220.9670 C   0  0  0  0  0  0  0  0  0  0  0  0
  140.4310   75.6010  221.3730 C   0  0  0  0  0  0  0  0  0  0  0  0
  139.9460   76.2490  222.3330 O   0  0  0  0  0  0  0  0  0  0  0  0
  141.6160   75.9560  220.6810 N   0  0  0  0  0  0  0  0  0  0  0  0
  142.4920   74.9750  220.0090 C   0  0  0  0  0  0  0  0  0  0  0  0
  142.5800   75.6900  218.6460 C   0  0  2  0  0  0  0  0  0  0  0  0
  143.6140   75.1110  217.9410 O   0  0  0  0  0  0  0  0  0  0  0  0
  142.8850   77.0990  219.1300 C   0  0  0  0  0  0  0  0  0  0  0  0
  142.2190   77.2660  220.4690 C   0  0  1  0  0  0  0  0  0  0  0  0
  141.2260   78.3720  220.5170 C   0  0  0  0  0  0  0  0  0  0  0  0
  141.3490   79.3240  221.6190 C   0  0  0  0  0  0  0  0  0  0  0  0
  140.3530   80.1010  222.1480 C   0  0  0  0  0  0  0  0  0  0  0  0
  140.5400   80.9680  223.1700 N   0  0  0  0  0  0  0  0  0  0  0  0
  141.7800   81.0750  223.7020 C   0  0  0  0  0  0  0  0  0  0  0  0
  142.7990   80.3110  223.1960 C   0  0  0  0  0  0  0  0  0  0  0  0
  142.5860   79.4630  222.1850 N   0  0  0  0  0  0  0  0  0  0  0  0
  140.2390   71.5370  223.5290 C   0  0  0  0  0  0  0  0  0  0  0  0
  139.5200   70.3760  223.3370 C   0  0  0  0  0  0  0  0  0  0  0  0
  139.3150   69.5460  224.4210 C   0  0  0  0  0  0  0  0  0  0  0  0
  139.8260   69.8890  225.6650 C   0  0  0  0  0  0  0  0  0  0  0  0
  139.6330   69.0760  226.7610 C   0  0  0  0  0  0  0  0  0  0  0  0
  140.1570   69.4480  227.9820 C   0  0  0  0  0  0  0  0  0  0  0  0
  139.9940   68.6830  229.0900 F   0  0  0  0  0  0  0  0  0  0  0  0
  140.8780   70.6230  228.1540 C   0  0  0  0  0  0  0  0  0  0  0  0
  141.0640   71.4280  227.0510 C   0  0  0  0  0  0  0  0  0  0  0  0
  140.5380   71.0580  225.8130 C   0  0  0  0  0  0  0  0  0  0  0  0
  140.7400   71.8740  224.7500 N   0  0  0  0  0  0  0  0  0  0  0  0
  138.6920   73.5070  222.7250 H   0  0  0  0  0  0  0  0  0  0  0  0
  140.2118   73.8752  220.1504 H   0  0  0  0  0  0  0  0  0  0  0  0
  138.6680   74.6843  220.6392 H   0  0  0  0  0  0  0  0  0  0  0  0
  143.4727   74.8839  220.4988 H   0  0  0  0  0  0  0  0  0  0  0  0
  142.1378   73.9337  219.9929 H   0  0  0  0  0  0  0  0  0  0  0  0
  141.7106   75.6483  217.9734 H   0  0  0  0  0  0  0  0  0  0  0  0
  144.4210   75.6500  218.1350 H   0  0  0  0  0  0  0  0  0  0  0  0
  143.9719   77.2355  219.2305 H   0  0  0  0  0  0  0  0  0  0  0  0
  142.5123   77.8461  218.4138 H   0  0  0  0  0  0  0  0  0  0  0  0
  142.9267   77.5607  221.2579 H   0  0  0  0  0  0  0  0  0  0  0  0
  141.3133   78.9379  219.5778 H   0  0  0  0  0  0  0  0  0  0  0  0
  140.2549   77.8788  220.6713 H   0  0  0  0  0  0  0  0  0  0  0  0
  139.3442   80.0155  221.7179 H   0  0  0  0  0  0  0  0  0  0  0  0
  141.9683   81.7697  224.5339 H   0  0  0  0  0  0  0  0  0  0  0  0
  143.8069   80.3969  223.6282 H   0  0  0  0  0  0  0  0  0  0  0  0
  139.1200   70.1178  222.3454 H   0  0  0  0  0  0  0  0  0  0  0  0
  138.7464   68.6123  224.2987 H   0  0  0  0  0  0  0  0  0  0  0  0
  139.0660   68.1385  226.6632 H   0  0  0  0  0  0  0  0  0  0  0  0
  141.2864   70.9012  229.1368 H   0  0  0  0  0  0  0  0  0  0  0  0
  141.6297   72.3665  227.1472 H   0  0  0  0  0  0  0  0  0  0  0  0
  1  2  2  0
  2  3  1  0
  3  4  1  0
  4  5  1  0
  5  6  2  0
  5  7  1  0
  7  8  1  0
  8  9  1  0
  9 10  1  0
  9 11  1  0
 11 12  1  0
 12 13  1  0
 13 14  1  0
 14 15  2  0
 15 16  1  0
 16 17  2  0
 17 18  1  0
 18 19  2  0
  2 20  1  0
 20 21  2  0
 21 22  1  0
 22 23  2  0
 23 24  1  0
 24 25  2  0
 25 26  1  0
 25 27  1  0
 27 28  2  0
 28 29  1  0
 29 30  2  0
 12  7  1  0
 19 14  1  0
 30 20  1  0
 29 23  1  0
  3 31  1  0
  4 32  1  0
  4 33  1  0
  8 34  1  0
  8 35  1  0
  9 36  1  6
 10 37  1  0
 11 38  1  0
 11 39  1  0
 12 40  1  1
 13 41  1  0
 13 42  1  0
 15 43  1  0
 17 44  1  0
 18 45  1  0
 21 46  1  0
 22 47  1  0
 24 48  1  0
 27 49  1  0
 28 50  1  0
M  END
>  <smiles>  (28) 
O=C(NCC(=O)N1C[C@H](O)C[C@H]1Cc1cnccn1)c1ccc2cc(F)ccc2n1

>  <score_type>  (28) 
oracle

>  <origin>  (28) 
autodockgpu

>  <m_score__min__energy>  (28) 
-8.5199999999999996

>  <m_primary>  (28) 
energy

>  <rmsd>  (28) 
1.9313108032401

>  <m_score__min__rmsd>  (28) 
1.9313108032401

>  <meeko>  (28) 
{"free_energy": -8.39, "intermolecular_energy": -10.48, "internal_energy": -1.24, "cluster_size": 21, "cluster_id": 1, "rank_in_cluster": 6}

>  <energy>  (28) 
-8.02

>  <cluster_rmsd>  (28) 
0.49

>  <cluster>  (28) 
3

$$$$

     RDKit          3D

 50 53  0  0  0  0  0  0  0  0999 V2000
  139.8960   74.5940  222.0010 O   0  0  0  0  0  0  0  0  0  0  0  0
  140.0320   75.6510  221.2920 C   0  0  0  0  0  0  0  0  0  0  0  0
  140.0210   75.5740  219.8730 N   0  0  0  0  0  0  0  0  0  0  0  0
  139.8620   74.3430  219.1360 C   0  0  0  0  0  0  0  0  0  0  0  0
  141.1310   73.5500  219.1230 C   0  0  0  0  0  0  0  0  0  0  0  0
  141.1010   72.4850  218.4600 O   0  0  0  0  0  0  0  0  0  0  0  0
  142.2640   74.0230  219.8340 N   0  0  0  0  0  0  0  0  0  0  0  0
  142.9440   73.2460  220.8900 C   0  0  0  0  0  0  0  0  0  0  0  0
  144.3790   73.3850  220.3440 C   0  0  2  0  0  0  0  0  0  0  0  0
  145.2430   72.9990  221.3460 O   0  0  0  0  0  0  0  0  0  0  0  0
  144.3910   74.8820  220.0720 C   0  0  0  0  0  0  0  0  0  0  0  0
  142.9860   75.2830  219.7130 C   0  0  1  0  0  0  0  0  0  0  0  0
  142.8560   75.8930  218.3640 C   0  0  0  0  0  0  0  0  0  0  0  0
  142.5280   77.3170  218.3100 C   0  0  0  0  0  0  0  0  0  0  0  0
  142.8340   78.1930  217.3020 C   0  0  0  0  0  0  0  0  0  0  0  0
  142.5020   79.5040  217.3220 N   0  0  0  0  0  0  0  0  0  0  0  0
  141.8280   79.9800  218.3950 C   0  0  0  0  0  0  0  0  0  0  0  0
  141.5060   79.1290  219.4200 C   0  0  0  0  0  0  0  0  0  0  0  0
  141.8480   77.8380  219.3750 N   0  0  0  0  0  0  0  0  0  0  0  0
  140.2020   76.9610  221.9620 C   0  0  0  0  0  0  0  0  0  0  0  0
  139.0930   77.5880  222.4900 C   0  0  0  0  0  0  0  0  0  0  0  0
  139.2650   78.8060  223.1140 C   0  0  0  0  0  0  0  0  0  0  0  0
  140.5290   79.3720  223.1980 C   0  0  0  0  0  0  0  0  0  0  0  0
  140.7240   80.5890  223.8160 C   0  0  0  0  0  0  0  0  0  0  0  0
  141.9960   81.1210  223.8800 C   0  0  0  0  0  0  0  0  0  0  0  0
  142.2390   82.3140  224.4780 F   0  0  0  0  0  0  0  0  0  0  0  0
  143.1010   80.4730  223.3410 C   0  0  0  0  0  0  0  0  0  0  0  0
  142.8920   79.2580  222.7250 C   0  0  0  0  0  0  0  0  0  0  0  0
  141.6100   78.7130  222.6560 C   0  0  0  0  0  0  0  0  0  0  0  0
  141.4430   77.5170  222.0430 N   0  0  0  0  0  0  0  0  0  0  0  0
  140.1420   76.5050  219.3720 H   0  0  0  0  0  0  0  0  0  0  0  0
  139.0693   73.7431  219.6069 H   0  0  0  0  0  0  0  0  0  0  0  0
  139.5968   74.5914  218.0977 H   0  0  0  0  0  0  0  0  0  0  0  0
  142.8281   73.7000  221.8852 H   0  0  0  0  0  0  0  0  0  0  0  0
  142.5803   72.2209  221.0538 H   0  0  0  0  0  0  0  0  0  0  0  0
  144.6670   72.7881  219.4661 H   0  0  0  0  0  0  0  0  0  0  0  0
  145.2620   72.0090  221.3330 H   0  0  0  0  0  0  0  0  0  0  0  0
  144.7195   75.4252  220.9704 H   0  0  0  0  0  0  0  0  0  0  0  0
  145.0859   75.1236  219.2542 H   0  0  0  0  0  0  0  0  0  0  0  0
  142.5973   76.0814  220.3622 H   0  0  0  0  0  0  0  0  0  0  0  0
  143.8142   75.7528  217.8423 H   0  0  0  0  0  0  0  0  0  0  0  0
  141.9981   75.3837  217.9008 H   0  0  0  0  0  0  0  0  0  0  0  0
  143.3801   77.8087  216.4278 H   0  0  0  0  0  0  0  0  0  0  0  0
  141.5411   81.0408  218.4439 H   0  0  0  0  0  0  0  0  0  0  0  0
  140.9580   79.5144  220.2925 H   0  0  0  0  0  0  0  0  0  0  0  0
  138.0964   77.1284  222.4154 H   0  0  0  0  0  0  0  0  0  0  0  0
  138.3990   79.3293  223.5456 H   0  0  0  0  0  0  0  0  0  0  0  0
  139.8732   81.1313  224.2542 H   0  0  0  0  0  0  0  0  0  0  0  0
  144.1067   80.9142  223.4038 H   0  0  0  0  0  0  0  0  0  0  0  0
  143.7414   78.7148  222.2851 H   0  0  0  0  0  0  0  0  0  0  0  0
  1  2  2  0
  2  3  1  0
  3  4  1  0
  4  5  1  0
  5  6  2  0
  5  7  1  0
  7  8  1  0
  8  9  1  0
  9 10  1  0
  9 11  1  0
 11 12  1  0
 12 13  1  0
 13 14  1  0
 14 15  2  0
 15 16  1  0
 16 17  2  0
 17 18  1  0
 18 19  2  0
  2 20  1  0
 20 21  2  0
 21 22  1  0
 22 23  2  0
 23 24  1  0
 24 25  2  0
 25 26  1  0
 25 27  1  0
 27 28  2  0
 28 29  1  0
 29 30  2  0
 12  7  1  0
 19 14  1  0
 30 20  1  0
 29 23  1  0
  3 31  1  0
  4 32  1  0
  4 33  1  0
  8 34  1  0
  8 35  1  0
  9 36  1  6
 10 37  1  0
 11 38  1  0
 11 39  1  0
 12 40  1  1
 13 41  1  0
 13 42  1  0
 15 43  1  0
 17 44  1  0
 18 45  1  0
 21 46  1  0
 22 47  1  0
 24 48  1  0
 27 49  1  0
 28 50  1  0
M  END
>  <smiles>  (29) 
O=C(NCC(=O)N1C[C@H](O)C[C@H]1Cc1cnccn1)c1ccc2cc(F)ccc2n1

>  <score_type>  (29) 
oracle

>  <origin>  (29) 
autodockgpu

>  <m_score__min__energy>  (29) 
-8.5199999999999996

>  <m_primary>  (29) 
energy

>  <rmsd>  (29) 
7.672999257349133

>  <m_score__min__rmsd>  (29) 
7.672999257349133

>  <meeko>  (29) 
{"free_energy": -6.28, "intermolecular_energy": -8.37, "internal_energy": -2.85, "cluster_size": 4, "cluster_id": 9, "rank_in_cluster": 1}

>  <energy>  (29) 
-7.98

>  <cluster_rmsd>  (29) 
0.48

>  <cluster>  (29) 
3

$$$$

     RDKit          3D

 50 53  0  0  0  0  0  0  0  0999 V2000
  140.2290   71.6210  220.8950 O   0  0  0  0  0  0  0  0  0  0  0  0
  139.9640   72.1690  222.0220 C   0  0  0  0  0  0  0  0  0  0  0  0
  139.6430   73.5520  222.0930 N   0  0  0  0  0  0  0  0  0  0  0  0
  139.5920   74.4250  220.9450 C   0  0  0  0  0  0  0  0  0  0  0  0
  140.2920   75.7190  221.2150 C   0  0  0  0  0  0  0  0  0  0  0  0
  139.7060   76.5030  222.0000 O   0  0  0  0  0  0  0  0  0  0  0  0
  141.5380   75.9880  220.5930 N   0  0  0  0  0  0  0  0  0  0  0  0
  142.3590   74.9530  219.9320 C   0  0  0  0  0  0  0  0  0  0  0  0
  142.5790   75.6960  218.5990 C   0  0  2  0  0  0  0  0  0  0  0  0
  143.5930   75.0500  217.9270 O   0  0  0  0  0  0  0  0  0  0  0  0
  142.9800   77.0580  219.1440 C   0  0  0  0  0  0  0  0  0  0  0  0
  142.2630   77.2450  220.4540 C   0  0  1  0  0  0  0  0  0  0  0  0
  141.3690   78.4320  220.4910 C   0  0  0  0  0  0  0  0  0  0  0  0
  141.4900   79.3160  221.6500 C   0  0  0  0  0  0  0  0  0  0  0  0
  142.5830   79.4620  222.4610 C   0  0  0  0  0  0  0  0  0  0  0  0
  142.6230   80.2990  223.5230 N   0  0  0  0  0  0  0  0  0  0  0  0
  141.5230   81.0360  223.8010 C   0  0  0  0  0  0  0  0  0  0  0  0
  140.4120   80.9140  223.0080 C   0  0  0  0  0  0  0  0  0  0  0  0
  140.4000   80.0780  221.9650 N   0  0  0  0  0  0  0  0  0  0  0  0
  139.9930   71.3500  223.2560 C   0  0  0  0  0  0  0  0  0  0  0  0
  139.5310   70.0520  223.2040 C   0  0  0  0  0  0  0  0  0  0  0  0
  139.5670   69.2980  224.3590 C   0  0  0  0  0  0  0  0  0  0  0  0
  140.0560   69.8500  225.5350 C   0  0  0  0  0  0  0  0  0  0  0  0
  140.1000   69.1160  226.7010 C   0  0  0  0  0  0  0  0  0  0  0  0
  140.5930   69.6980  227.8500 C   0  0  0  0  0  0  0  0  0  0  0  0
  140.6570   69.0180  229.0220 F   0  0  0  0  0  0  0  0  0  0  0  0
  141.0530   71.0090  227.8810 C   0  0  0  0  0  0  0  0  0  0  0  0
  141.0040   71.7330  226.7090 C   0  0  0  0  0  0  0  0  0  0  0  0
  140.5070   71.1520  225.5430 C   0  0  0  0  0  0  0  0  0  0  0  0
  140.4730   71.8930  224.4100 N   0  0  0  0  0  0  0  0  0  0  0  0
  139.4380   73.9150  223.0720 H   0  0  0  0  0  0  0  0  0  0  0  0
  140.0774   73.9259  220.0934 H   0  0  0  0  0  0  0  0  0  0  0  0
  138.5372   74.6412  220.7197 H   0  0  0  0  0  0  0  0  0  0  0  0
  143.3016   74.7615  220.4657 H   0  0  0  0  0  0  0  0  0  0  0  0
  141.9167   73.9481  219.8641 H   0  0  0  0  0  0  0  0  0  0  0  0
  141.7449   75.7498  217.8838 H   0  0  0  0  0  0  0  0  0  0  0  0
  144.3940   75.6260  218.0060 H   0  0  0  0  0  0  0  0  0  0  0  0
  144.0680   77.0948  219.3018 H   0  0  0  0  0  0  0  0  0  0  0  0
  142.7109   77.8554  218.4356 H   0  0  0  0  0  0  0  0  0  0  0  0
  142.9527   77.4533  221.2852 H   0  0  0  0  0  0  0  0  0  0  0  0
  141.5759   79.0319  219.5925 H   0  0  0  0  0  0  0  0  0  0  0  0
  140.3500   78.0217  220.5486 H   0  0  0  0  0  0  0  0  0  0  0  0
  143.4793   78.8651  222.2365 H   0  0  0  0  0  0  0  0  0  0  0  0
  141.5204   81.7275  224.6565 H   0  0  0  0  0  0  0  0  0  0  0  0
  139.5171   81.5127  223.2330 H   0  0  0  0  0  0  0  0  0  0  0  0
  139.1436   69.6283  222.2657 H   0  0  0  0  0  0  0  0  0  0  0  0
  139.2078   68.2584  224.3478 H   0  0  0  0  0  0  0  0  0  0  0  0
  139.7449   68.0750  226.7149 H   0  0  0  0  0  0  0  0  0  0  0  0
  141.4427   71.4536  228.8086 H   0  0  0  0  0  0  0  0  0  0  0  0
  141.3587   72.7741  226.6936 H   0  0  0  0  0  0  0  0  0  0  0  0
  1  2  2  0
  2  3  1  0
  3  4  1  0
  4  5  1  0
  5  6  2  0
  5  7  1  0
  7  8  1  0
  8  9  1  0
  9 10  1  0
  9 11  1  0
 11 12  1  0
 12 13  1  0
 13 14  1  0
 14 15  2  0
 15 16  1  0
 16 17  2  0
 17 18  1  0
 18 19  2  0
  2 20  1  0
 20 21  2  0
 21 22  1  0
 22 23  2  0
 23 24  1  0
 24 25  2  0
 25 26  1  0
 25 27  1  0
 27 28  2  0
 28 29  1  0
 29 30  2  0
 12  7  1  0
 19 14  1  0
 30 20  1  0
 29 23  1  0
  3 31  1  0
  4 32  1  0
  4 33  1  0
  8 34  1  0
  8 35  1  0
  9 36  1  6
 10 37  1  0
 11 38  1  0
 11 39  1  0
 12 40  1  1
 13 41  1  0
 13 42  1  0
 15 43  1  0
 17 44  1  0
 18 45  1  0
 21 46  1  0
 22 47  1  0
 24 48  1  0
 27 49  1  0
 28 50  1  0
M  END
>  <smiles>  (30) 
O=C(NCC(=O)N1C[C@H](O)C[C@H]1Cc1cnccn1)c1ccc2cc(F)ccc2n1

>  <score_type>  (30) 
oracle

>  <origin>  (30) 
autodockgpu

>  <m_score__min__energy>  (30) 
-8.5199999999999996

>  <m_primary>  (30) 
energy

>  <rmsd>  (30) 
1.8180318071965333

>  <m_score__min__rmsd>  (30) 
1.8180318071965333

>  <meeko>  (30) 
{"free_energy": -7.97, "intermolecular_energy": -10.06, "internal_energy": -1.38, "cluster_size": 21, "cluster_id": 1, "rank_in_cluster": 13}

>  <energy>  (30) 
-7.96

>  <cluster_rmsd>  (30) 
0.93

>  <cluster>  (30) 
3

$$$$

     RDKit          3D

 50 53  0  0  0  0  0  0  0  0999 V2000
  139.7760   71.1200  220.9370 O   0  0  0  0  0  0  0  0  0  0  0  0
  140.1070   71.6680  222.0450 C   0  0  0  0  0  0  0  0  0  0  0  0
  140.6160   72.9950  222.0690 N   0  0  0  0  0  0  0  0  0  0  0  0
  140.7950   73.8080  220.8890 C   0  0  0  0  0  0  0  0  0  0  0  0
  141.4040   75.1310  221.2290 C   0  0  0  0  0  0  0  0  0  0  0  0
  141.0610   75.6220  222.3320 O   0  0  0  0  0  0  0  0  0  0  0  0
  142.3050   75.7460  220.3220 N   0  0  0  0  0  0  0  0  0  0  0  0
  143.2050   74.9870  219.4290 C   0  0  0  0  0  0  0  0  0  0  0  0
  142.8380   75.7100  218.1180 C   0  0  2  0  0  0  0  0  0  0  0  0
  143.7940   75.3800  217.1820 O   0  0  0  0  0  0  0  0  0  0  0  0
  142.9280   77.1490  218.6010 C   0  0  0  0  0  0  0  0  0  0  0  0
  142.5490   77.1580  220.0570 C   0  0  1  0  0  0  0  0  0  0  0  0
  141.3750   78.0140  220.3720 C   0  0  0  0  0  0  0  0  0  0  0  0
  141.4390   78.7980  221.6050 C   0  0  0  0  0  0  0  0  0  0  0  0
  140.8070   78.5220  222.7870 C   0  0  0  0  0  0  0  0  0  0  0  0
  140.9080   79.2980  223.8910 N   0  0  0  0  0  0  0  0  0  0  0  0
  141.6780   80.4090  223.8260 C   0  0  0  0  0  0  0  0  0  0  0  0
  142.3250   80.7130  222.6580 C   0  0  0  0  0  0  0  0  0  0  0  0
  142.2070   79.9290  221.5820 N   0  0  0  0  0  0  0  0  0  0  0  0
  139.9580   70.9090  223.3090 C   0  0  0  0  0  0  0  0  0  0  0  0
  139.3270   69.6830  223.2780 C   0  0  0  0  0  0  0  0  0  0  0  0
  139.1970   68.9840  224.4610 C   0  0  0  0  0  0  0  0  0  0  0  0
  139.6940   69.5180  225.6410 C   0  0  0  0  0  0  0  0  0  0  0  0
  139.5750   68.8380  226.8350 C   0  0  0  0  0  0  0  0  0  0  0  0
  140.0830   69.3980  227.9890 C   0  0  0  0  0  0  0  0  0  0  0  0
  139.9900   68.7690  229.1860 F   0  0  0  0  0  0  0  0  0  0  0  0
  140.7150   70.6360  227.9980 C   0  0  0  0  0  0  0  0  0  0  0  0
  140.8280   71.3060  226.7990 C   0  0  0  0  0  0  0  0  0  0  0  0
  140.3180   70.7450  225.6280 C   0  0  0  0  0  0  0  0  0  0  0  0
  140.4460   71.4330  224.4680 N   0  0  0  0  0  0  0  0  0  0  0  0
  140.8630   73.3640  223.0350 H   0  0  0  0  0  0  0  0  0  0  0  0
  141.4557   73.2792  220.1862 H   0  0  0  0  0  0  0  0  0  0  0  0
  139.8083   73.9856  220.4363 H   0  0  0  0  0  0  0  0  0  0  0  0
  144.2647   75.1138  219.6953 H   0  0  0  0  0  0  0  0  0  0  0  0
  143.0892   73.8931  219.4330 H   0  0  0  0  0  0  0  0  0  0  0  0
  141.8736   75.4785  217.6422 H   0  0  0  0  0  0  0  0  0  0  0  0
  144.6660   75.6510  217.5640 H   0  0  0  0  0  0  0  0  0  0  0  0
  143.9547   77.5239  218.4772 H   0  0  0  0  0  0  0  0  0  0  0  0
  142.2554   77.7971  218.0200 H   0  0  0  0  0  0  0  0  0  0  0  0
  143.3302   77.6001  220.6928 H   0  0  0  0  0  0  0  0  0  0  0  0
  141.2436   78.7180  219.5371 H   0  0  0  0  0  0  0  0  0  0  0  0
  140.5408   77.3127  220.5213 H   0  0  0  0  0  0  0  0  0  0  0  0
  140.1818   77.6187  222.8428 H   0  0  0  0  0  0  0  0  0  0  0  0
  141.7833   81.0627  224.7044 H   0  0  0  0  0  0  0  0  0  0  0  0
  142.9511   81.6158  222.6046 H   0  0  0  0  0  0  0  0  0  0  0  0
  138.9373   69.2728  222.3347 H   0  0  0  0  0  0  0  0  0  0  0  0
  138.6992   68.0031  224.4682 H   0  0  0  0  0  0  0  0  0  0  0  0
  139.0789   67.8567  226.8670 H   0  0  0  0  0  0  0  0  0  0  0  0
  141.1112   71.0660  228.9298 H   0  0  0  0  0  0  0  0  0  0  0  0
  141.3227   72.2879  226.7652 H   0  0  0  0  0  0  0  0  0  0  0  0
  1  2  2  0
  2  3  1  0
  3  4  1  0
  4  5  1  0
  5  6  2  0
  5  7  1  0
  7  8  1  0
  8  9  1  0
  9 10  1  0
  9 11  1  0
 11 12  1  0
 12 13  1  0
 13 14  1  0
 14 15  2  0
 15 16  1  0
 16 17  2  0
 17 18  1  0
 18 19  2  0
  2 20  1  0
 20 21  2  0
 21 22  1  0
 22 23  2  0
 23 24  1  0
 24 25  2  0
 25 26  1  0
 25 27  1  0
 27 28  2  0
 28 29  1  0
 29 30  2  0
 12  7  1  0
 19 14  1  0
 30 20  1  0
 29 23  1  0
  3 31  1  0
  4 32  1  0
  4 33  1  0
  8 34  1  0
  8 35  1  0
  9 36  1  6
 10 37  1  0
 11 38  1  0
 11 39  1  0
 12 40  1  1
 13 41  1  0
 13 42  1  0
 15 43  1  0
 17 44  1  0
 18 45  1  0
 21 46  1  0
 22 47  1  0
 24 48  1  0
 27 49  1  0
 28 50  1  0
M  END
>  <smiles>  (31) 
O=C(NCC(=O)N1C[C@H](O)C[C@H]1Cc1cnccn1)c1ccc2cc(F)ccc2n1

>  <score_type>  (31) 
oracle

>  <origin>  (31) 
autodockgpu

>  <m_score__min__energy>  (31) 
-8.5199999999999996

>  <m_primary>  (31) 
energy

>  <rmsd>  (31) 
2.0562946232329935

>  <m_score__min__rmsd>  (31) 
2.0562946232329935

>  <meeko>  (31) 
{"free_energy": -7.8, "intermolecular_energy": -9.89, "internal_energy": -1.81, "cluster_size": 21, "cluster_id": 1, "rank_in_cluster": 17}

>  <energy>  (31) 
-7.82

>  <cluster_rmsd>  (31) 
0.29

>  <cluster>  (31) 
3

$$$$

     RDKit          3D

 50 53  0  0  0  0  0  0  0  0999 V2000
  138.1160   70.7830  221.7810 O   0  0  0  0  0  0  0  0  0  0  0  0
  138.8110   71.2710  222.7390 C   0  0  0  0  0  0  0  0  0  0  0  0
  139.2430   72.6240  222.6990 N   0  0  0  0  0  0  0  0  0  0  0  0
  138.9460   73.5310  221.6150 C   0  0  0  0  0  0  0  0  0  0  0  0
  139.6830   74.8230  221.7710 C   0  0  0  0  0  0  0  0  0  0  0  0
  140.8910   74.7260  222.1000 O   0  0  0  0  0  0  0  0  0  0  0  0
  139.0070   76.0500  221.5490 N   0  0  0  0  0  0  0  0  0  0  0  0
  137.6090   76.2940  221.9560 C   0  0  0  0  0  0  0  0  0  0  0  0
  137.8480   77.6230  222.7000 C   0  0  2  0  0  0  0  0  0  0  0  0
  136.6180   78.2110  222.9030 O   0  0  0  0  0  0  0  0  0  0  0  0
  138.7000   78.3340  221.6600 C   0  0  0  0  0  0  0  0  0  0  0  0
  139.4800   77.2790  220.9220 C   0  0  1  0  0  0  0  0  0  0  0  0
  140.9540   77.4410  221.0130 C   0  0  0  0  0  0  0  0  0  0  0  0
  141.4530   78.4540  221.9420 C   0  0  0  0  0  0  0  0  0  0  0  0
  141.9810   79.6750  221.6200 C   0  0  0  0  0  0  0  0  0  0  0  0
  142.4300   80.5640  222.5370 N   0  0  0  0  0  0  0  0  0  0  0  0
  142.3520   80.2300  223.8460 C   0  0  0  0  0  0  0  0  0  0  0  0
  141.8280   79.0150  224.2020 C   0  0  0  0  0  0  0  0  0  0  0  0
  141.3930   78.1560  223.2750 N   0  0  0  0  0  0  0  0  0  0  0  0
  139.1660   70.4130  223.8940 C   0  0  0  0  0  0  0  0  0  0  0  0
  138.8600   69.0700  223.8430 C   0  0  0  0  0  0  0  0  0  0  0  0
  139.1980   68.2810  224.9240 C   0  0  0  0  0  0  0  0  0  0  0  0
  139.8270   68.8430  226.0260 C   0  0  0  0  0  0  0  0  0  0  0  0
  140.1730   68.0750  227.1170 C   0  0  0  0  0  0  0  0  0  0  0  0
  140.7980   68.6690  228.1940 C   0  0  0  0  0  0  0  0  0  0  0  0
  141.1580   67.9560  229.2900 F   0  0  0  0  0  0  0  0  0  0  0  0
  141.0970   70.0260  228.2250 C   0  0  0  0  0  0  0  0  0  0  0  0
  140.7460   70.7830  227.1290 C   0  0  0  0  0  0  0  0  0  0  0  0
  140.1140   70.1910  226.0350 C   0  0  0  0  0  0  0  0  0  0  0  0
  139.7830   70.9660  224.9750 N   0  0  0  0  0  0  0  0  0  0  0  0
  139.8150   72.9380  223.5390 H   0  0  0  0  0  0  0  0  0  0  0  0
  139.2411   73.0625  220.6645 H   0  0  0  0  0  0  0  0  0  0  0  0
  137.8667   73.7432  221.6253 H   0  0  0  0  0  0  0  0  0  0  0  0
  136.9358   76.4114  221.0940 H   0  0  0  0  0  0  0  0  0  0  0  0
  137.1207   75.4933  222.5308 H   0  0  0  0  0  0  0  0  0  0  0  0
  138.3223   77.5918  223.6920 H   0  0  0  0  0  0  0  0  0  0  0  0
  136.2370   78.3800  222.0060 H   0  0  0  0  0  0  0  0  0  0  0  0
  138.0560   78.8852  220.9590 H   0  0  0  0  0  0  0  0  0  0  0  0
  139.3782   79.0551  222.1396 H   0  0  0  0  0  0  0  0  0  0  0  0
  139.3142   77.3153  219.8352 H   0  0  0  0  0  0  0  0  0  0  0  0
  141.3763   76.4726  221.3194 H   0  0  0  0  0  0  0  0  0  0  0  0
  141.2660   77.7876  220.0168 H   0  0  0  0  0  0  0  0  0  0  0  0
  142.0441   79.9493  220.5566 H   0  0  0  0  0  0  0  0  0  0  0  0
  142.7065   80.9285  224.6183 H   0  0  0  0  0  0  0  0  0  0  0  0
  141.7644   78.7427  225.2659 H   0  0  0  0  0  0  0  0  0  0  0  0
  138.3595   68.6382  222.9638 H   0  0  0  0  0  0  0  0  0  0  0  0
  138.9685   67.2053  224.9119 H   0  0  0  0  0  0  0  0  0  0  0  0
  139.9526   66.9974  227.1289 H   0  0  0  0  0  0  0  0  0  0  0  0
  141.5963   70.4794  229.0940 H   0  0  0  0  0  0  0  0  0  0  0  0
  140.9653   71.8608  227.1162 H   0  0  0  0  0  0  0  0  0  0  0  0
  1  2  2  0
  2  3  1  0
  3  4  1  0
  4  5  1  0
  5  6  2  0
  5  7  1  0
  7  8  1  0
  8  9  1  0
  9 10  1  0
  9 11  1  0
 11 12  1  0
 12 13  1  0
 13 14  1  0
 14 15  2  0
 15 16  1  0
 16 17  2  0
 17 18  1  0
 18 19  2  0
  2 20  1  0
 20 21  2  0
 21 22  1  0
 22 23  2  0
 23 24  1  0
 24 25  2  0
 25 26  1  0
 25 27  1  0
 27 28  2  0
 28 29  1  0
 29 30  2  0
 12  7  1  0
 19 14  1  0
 30 20  1  0
 29 23  1  0
  3 31  1  0
  4 32  1  0
  4 33  1  0
  8 34  1  0
  8 35  1  0
  9 36  1  1
 10 37  1  0
 11 38  1  0
 11 39  1  0
 12 40  1  6
 13 41  1  0
 13 42  1  0
 15 43  1  0
 17 44  1  0
 18 45  1  0
 21 46  1  0
 22 47  1  0
 24 48  1  0
 27 49  1  0
 28 50  1  0
M  END
>  <smiles>  (32) 
O=C(NCC(=O)N1C[C@H](O)C[C@H]1Cc1cnccn1)c1ccc2cc(F)ccc2n1

>  <score_type>  (32) 
oracle

>  <origin>  (32) 
autodockgpu

>  <m_score__min__energy>  (32) 
-8.5199999999999996

>  <m_primary>  (32) 
energy

>  <rmsd>  (32) 
2.478549776143001

>  <m_score__min__rmsd>  (32) 
2.478549776143001

>  <meeko>  (32) 
{"free_energy": -7.76, "intermolecular_energy": -9.85, "internal_energy": -1.73, "cluster_size": 5, "cluster_id": 5, "rank_in_cluster": 3}

>  <energy>  (32) 
-7.81

>  <cluster_rmsd>  (32) 
0.27

>  <cluster>  (32) 
3

$$$$

     RDKit          3D

 50 53  0  0  0  0  0  0  0  0999 V2000
  139.7760   71.1590  220.8910 O   0  0  0  0  0  0  0  0  0  0  0  0
  140.0980   71.7140  221.9980 C   0  0  0  0  0  0  0  0  0  0  0  0
  140.5910   73.0470  222.0180 N   0  0  0  0  0  0  0  0  0  0  0  0
  140.7640   73.8580  220.8370 C   0  0  0  0  0  0  0  0  0  0  0  0
  141.3080   75.2090  221.1800 C   0  0  0  0  0  0  0  0  0  0  0  0
  141.0060   75.6450  222.3180 O   0  0  0  0  0  0  0  0  0  0  0  0
  142.1060   75.9070  220.2380 N   0  0  0  0  0  0  0  0  0  0  0  0
  142.8580   75.2400  219.1560 C   0  0  0  0  0  0  0  0  0  0  0  0
  142.3520   76.1180  217.9940 C   0  0  2  0  0  0  0  0  0  0  0  0
  143.1690   75.8800  216.9090 O   0  0  0  0  0  0  0  0  0  0  0  0
  142.5540   77.4890  218.6210 C   0  0  0  0  0  0  0  0  0  0  0  0
  142.3640   77.3350  220.1060 C   0  0  1  0  0  0  0  0  0  0  0  0
  141.2710   78.1720  220.6660 C   0  0  0  0  0  0  0  0  0  0  0  0
  141.6100   79.0290  221.8010 C   0  0  0  0  0  0  0  0  0  0  0  0
  141.8060   78.6350  223.0980 C   0  0  0  0  0  0  0  0  0  0  0  0
  142.1130   79.4880  224.1030 N   0  0  0  0  0  0  0  0  0  0  0  0
  142.2360   80.8040  223.8130 C   0  0  0  0  0  0  0  0  0  0  0  0
  142.0470   81.2310  222.5250 C   0  0  0  0  0  0  0  0  0  0  0  0
  141.7430   80.3660  221.5510 N   0  0  0  0  0  0  0  0  0  0  0  0
  139.9550   70.9570  223.2630 C   0  0  0  0  0  0  0  0  0  0  0  0
  139.3350   69.7250  223.2350 C   0  0  0  0  0  0  0  0  0  0  0  0
  139.2110   69.0290  224.4190 C   0  0  0  0  0  0  0  0  0  0  0  0
  139.7010   69.5700  225.5990 C   0  0  0  0  0  0  0  0  0  0  0  0
  139.5860   68.8930  226.7950 C   0  0  0  0  0  0  0  0  0  0  0  0
  140.0860   69.4620  227.9480 C   0  0  0  0  0  0  0  0  0  0  0  0
  139.9980   68.8350  229.1470 F   0  0  0  0  0  0  0  0  0  0  0  0
  140.7060   70.7060  227.9540 C   0  0  0  0  0  0  0  0  0  0  0  0
  140.8140   71.3730  226.7540 C   0  0  0  0  0  0  0  0  0  0  0  0
  140.3120   70.8040  225.5830 C   0  0  0  0  0  0  0  0  0  0  0  0
  140.4350   71.4900  224.4210 N   0  0  0  0  0  0  0  0  0  0  0  0
  140.8320   73.4220  222.9850 H   0  0  0  0  0  0  0  0  0  0  0  0
  141.4634   73.3528  220.1547 H   0  0  0  0  0  0  0  0  0  0  0  0
  139.7818   73.9902  220.3597 H   0  0  0  0  0  0  0  0  0  0  0  0
  143.9467   75.3142  219.2945 H   0  0  0  0  0  0  0  0  0  0  0  0
  142.7062   74.1555  219.0515 H   0  0  0  0  0  0  0  0  0  0  0  0
  141.3273   75.9631  217.6253 H   0  0  0  0  0  0  0  0  0  0  0  0
  142.7580   75.1330  216.4070 H   0  0  0  0  0  0  0  0  0  0  0  0
  143.5692   77.8546  218.4074 H   0  0  0  0  0  0  0  0  0  0  0  0
  141.8365   78.2145  218.2100 H   0  0  0  0  0  0  0  0  0  0  0  0
  143.2346   77.6833  220.6811 H   0  0  0  0  0  0  0  0  0  0  0  0
  140.9020   78.8209  219.8581 H   0  0  0  0  0  0  0  0  0  0  0  0
  140.5331   77.4562  221.0572 H   0  0  0  0  0  0  0  0  0  0  0  0
  141.7084   77.5655  223.3362 H   0  0  0  0  0  0  0  0  0  0  0  0
  142.4857   81.5252  224.6051 H   0  0  0  0  0  0  0  0  0  0  0  0
  142.1467   82.3006  222.2884 H   0  0  0  0  0  0  0  0  0  0  0  0
  138.9495   69.3086  222.2927 H   0  0  0  0  0  0  0  0  0  0  0  0
  138.7228   68.0433  224.4280 H   0  0  0  0  0  0  0  0  0  0  0  0
  139.0994   67.9071  226.8293 H   0  0  0  0  0  0  0  0  0  0  0  0
  141.0968   71.1426  228.8849 H   0  0  0  0  0  0  0  0  0  0  0  0
  141.2987   72.3598  226.7184 H   0  0  0  0  0  0  0  0  0  0  0  0
  1  2  2  0
  2  3  1  0
  3  4  1  0
  4  5  1  0
  5  6  2  0
  5  7  1  0
  7  8  1  0
  8  9  1  0
  9 10  1  0
  9 11  1  0
 11 12  1  0
 12 13  1  0
 13 14  1  0
 14 15  2  0
 15 16  1  0
 16 17  2  0
 17 18  1  0
 18 19  2  0
  2 20  1  0
 20 21  2  0
 21 22  1  0
 22 23  2  0
 23 24  1  0
 24 25  2  0
 25 26  1  0
 25 27  1  0
 27 28  2  0
 28 29  1  0
 29 30  2  0
 12  7  1  0
 19 14  1  0
 30 20  1  0
 29 23  1  0
  3 31  1  0
  4 32  1  0
  4 33  1  0
  8 34  1  0
  8 35  1  0
  9 36  1  6
 10 37  1  0
 11 38  1  0
 11 39  1  0
 12 40  1  1
 13 41  1  0
 13 42  1  0
 15 43  1  0
 17 44  1  0
 18 45  1  0
 21 46  1  0
 22 47  1  0
 24 48  1  0
 27 49  1  0
 28 50  1  0
M  END
>  <smiles>  (33) 
O=C(NCC(=O)N1C[C@H](O)C[C@H]1Cc1cnccn1)c1ccc2cc(F)ccc2n1

>  <score_type>  (33) 
oracle

>  <origin>  (33) 
autodockgpu

>  <m_score__min__energy>  (33) 
-8.5199999999999996

>  <m_primary>  (33) 
energy

>  <rmsd>  (33) 
1.9116038468370844

>  <m_score__min__rmsd>  (33) 
1.9116038468370844

>  <meeko>  (33) 
{"free_energy": -7.29, "intermolecular_energy": -9.37, "internal_energy": -1.83, "cluster_size": 21, "cluster_id": 1, "rank_in_cluster": 19}

>  <energy>  (33) 
-7.65

>  <cluster_rmsd>  (33) 
0.54

>  <cluster>  (33) 
3

$$$$

     RDKit          3D

 50 53  0  0  0  0  0  0  0  0999 V2000
  140.9920   71.4320  221.2370 O   0  0  0  0  0  0  0  0  0  0  0  0
  140.4450   71.9940  222.2490 C   0  0  0  0  0  0  0  0  0  0  0  0
  140.0680   73.3640  222.1970 N   0  0  0  0  0  0  0  0  0  0  0  0
  140.2630   74.2070  221.0420 C   0  0  0  0  0  0  0  0  0  0  0  0
  140.8560   75.5260  221.4270 C   0  0  0  0  0  0  0  0  0  0  0  0
  140.4010   76.0430  222.4760 O   0  0  0  0  0  0  0  0  0  0  0  0
  141.8660   76.1060  220.6170 N   0  0  0  0  0  0  0  0  0  0  0  0
  142.7730   75.3200  219.7570 C   0  0  0  0  0  0  0  0  0  0  0  0
  142.5600   76.1220  218.4580 C   0  0  2  0  0  0  0  0  0  0  0  0
  143.5580   75.7590  217.5790 O   0  0  0  0  0  0  0  0  0  0  0  0
  142.7180   77.5290  219.0130 C   0  0  0  0  0  0  0  0  0  0  0  0
  142.2310   77.5060  220.4370 C   0  0  1  0  0  0  0  0  0  0  0  0
  141.1020   78.4350  220.7060 C   0  0  0  0  0  0  0  0  0  0  0  0
  141.2730   79.3840  221.8050 C   0  0  0  0  0  0  0  0  0  0  0  0
  140.2840   80.0630  222.4650 C   0  0  0  0  0  0  0  0  0  0  0  0
  140.5170   80.9340  223.4740 N   0  0  0  0  0  0  0  0  0  0  0  0
  141.7970   81.1470  223.8560 C   0  0  0  0  0  0  0  0  0  0  0  0
  142.8110   80.4830  223.2150 C   0  0  0  0  0  0  0  0  0  0  0  0
  142.5520   79.6280  222.2200 N   0  0  0  0  0  0  0  0  0  0  0  0
  140.2050   71.2060  223.4810 C   0  0  0  0  0  0  0  0  0  0  0  0
  139.5510   69.9960  223.3800 C   0  0  0  0  0  0  0  0  0  0  0  0
  139.3370   69.2700  224.5330 C   0  0  0  0  0  0  0  0  0  0  0  0
  139.7750   69.7610  225.7550 C   0  0  0  0  0  0  0  0  0  0  0  0
  139.5710   69.0530  226.9200 C   0  0  0  0  0  0  0  0  0  0  0  0
  140.0220   69.5720  228.1170 C   0  0  0  0  0  0  0  0  0  0  0  0
  139.8460   68.9140  229.2890 F   0  0  0  0  0  0  0  0  0  0  0  0
  140.6790   70.7930  228.1970 C   0  0  0  0  0  0  0  0  0  0  0  0
  140.8760   71.4920  227.0250 C   0  0  0  0  0  0  0  0  0  0  0  0
  140.4250   70.9740  225.8110 C   0  0  0  0  0  0  0  0  0  0  0  0
  140.6360   71.6880  224.6800 N   0  0  0  0  0  0  0  0  0  0  0  0
  139.6210   73.7400  223.0860 H   0  0  0  0  0  0  0  0  0  0  0  0
  140.9407   73.7007  220.3389 H   0  0  0  0  0  0  0  0  0  0  0  0
  139.2838   74.3890  220.5750 H   0  0  0  0  0  0  0  0  0  0  0  0
  143.8159   75.3553  220.1051 H   0  0  0  0  0  0  0  0  0  0  0  0
  142.5780   74.2389  219.7010 H   0  0  0  0  0  0  0  0  0  0  0  0
  141.6201   75.9842  217.9033 H   0  0  0  0  0  0  0  0  0  0  0  0
  144.4150   75.9270  218.0440 H   0  0  0  0  0  0  0  0  0  0  0  0
  143.7757   77.8294  218.9818 H   0  0  0  0  0  0  0  0  0  0  0  0
  142.1408   78.2502  218.4157 H   0  0  0  0  0  0  0  0  0  0  0  0
  142.9916   77.8607  221.1482 H   0  0  0  0  0  0  0  0  0  0  0  0
  140.9248   79.0167  219.7893 H   0  0  0  0  0  0  0  0  0  0  0  0
  140.2663   77.7889  221.0128 H   0  0  0  0  0  0  0  0  0  0  0  0
  139.2419   79.8908  222.1578 H   0  0  0  0  0  0  0  0  0  0  0  0
  142.0225   81.8470  224.6740 H   0  0  0  0  0  0  0  0  0  0  0  0
  143.8525   80.6561  223.5237 H   0  0  0  0  0  0  0  0  0  0  0  0
  139.2088   69.6195  222.4047 H   0  0  0  0  0  0  0  0  0  0  0  0
  138.8187   68.3010  224.4840 H   0  0  0  0  0  0  0  0  0  0  0  0
  139.0533   68.0828  226.8960 H   0  0  0  0  0  0  0  0  0  0  0  0
  141.0299   71.1885  229.1616 H   0  0  0  0  0  0  0  0  0  0  0  0
  141.3916   72.4634  227.0475 H   0  0  0  0  0  0  0  0  0  0  0  0
  1  2  2  0
  2  3  1  0
  3  4  1  0
  4  5  1  0
  5  6  2  0
  5  7  1  0
  7  8  1  0
  8  9  1  0
  9 10  1  0
  9 11  1  0
 11 12  1  0
 12 13  1  0
 13 14  1  0
 14 15  2  0
 15 16  1  0
 16 17  2  0
 17 18  1  0
 18 19  2  0
  2 20  1  0
 20 21  2  0
 21 22  1  0
 22 23  2  0
 23 24  1  0
 24 25  2  0
 25 26  1  0
 25 27  1  0
 27 28  2  0
 28 29  1  0
 29 30  2  0
 12  7  1  0
 19 14  1  0
 30 20  1  0
 29 23  1  0
  3 31  1  0
  4 32  1  0
  4 33  1  0
  8 34  1  0
  8 35  1  0
  9 36  1  6
 10 37  1  0
 11 38  1  0
 11 39  1  0
 12 40  1  1
 13 41  1  0
 13 42  1  0
 15 43  1  0
 17 44  1  0
 18 45  1  0
 21 46  1  0
 22 47  1  0
 24 48  1  0
 27 49  1  0
 28 50  1  0
M  END
>  <smiles>  (34) 
O=C(NCC(=O)N1C[C@H](O)C[C@H]1Cc1cnccn1)c1ccc2cc(F)ccc2n1

>  <score_type>  (34) 
oracle

>  <origin>  (34) 
autodockgpu

>  <m_score__min__energy>  (34) 
-8.5199999999999996

>  <m_primary>  (34) 
energy

>  <rmsd>  (34) 
1.9603571546889094

>  <m_score__min__rmsd>  (34) 
1.9603571546889094

>  <meeko>  (34) 
{"free_energy": -8.29, "intermolecular_energy": -10.38, "internal_energy": -1.45, "cluster_size": 21, "cluster_id": 1, "rank_in_cluster": 9}

>  <energy>  (34) 
-8.03

>  <cluster_rmsd>  (34) 
0.0

>  <cluster>  (34) 
4

$$$$

     RDKit          3D

 50 53  0  0  0  0  0  0  0  0999 V2000
  140.1070   73.4030  222.3900 O   0  0  0  0  0  0  0  0  0  0  0  0
  140.1610   74.3340  221.5130 C   0  0  0  0  0  0  0  0  0  0  0  0
  140.3490   74.0210  220.1390 N   0  0  0  0  0  0  0  0  0  0  0  0
  140.4910   72.6760  219.6340 C   0  0  0  0  0  0  0  0  0  0  0  0
  141.9190   72.3630  219.3170 C   0  0  0  0  0  0  0  0  0  0  0  0
  142.1020   71.4620  218.4620 O   0  0  0  0  0  0  0  0  0  0  0  0
  142.9570   73.0710  219.9730 N   0  0  0  0  0  0  0  0  0  0  0  0
  143.9330   72.4320  220.8790 C   0  0  0  0  0  0  0  0  0  0  0  0
  145.2090   73.0020  220.2290 C   0  0  2  0  0  0  0  0  0  0  0  0
  146.2510   72.7910  221.1060 O   0  0  0  0  0  0  0  0  0  0  0  0
  144.7930   74.4600  220.1160 C   0  0  0  0  0  0  0  0  0  0  0  0
  143.3010   74.4870  219.9230 C   0  0  1  0  0  0  0  0  0  0  0  0
  142.8650   75.1420  218.6620 C   0  0  0  0  0  0  0  0  0  0  0  0
  142.2130   76.4450  218.7840 C   0  0  0  0  0  0  0  0  0  0  0  0
  142.8280   77.6640  218.8860 C   0  0  0  0  0  0  0  0  0  0  0  0
  142.1580   78.8350  219.0010 N   0  0  0  0  0  0  0  0  0  0  0  0
  140.8050   78.8010  219.0140 C   0  0  0  0  0  0  0  0  0  0  0  0
  140.1590   77.5970  218.9130 C   0  0  0  0  0  0  0  0  0  0  0  0
  140.8460   76.4560  218.8010 N   0  0  0  0  0  0  0  0  0  0  0  0
  140.0260   75.7470  221.9390 C   0  0  0  0  0  0  0  0  0  0  0  0
  138.7870   76.2080  222.3320 C   0  0  0  0  0  0  0  0  0  0  0  0
  138.6740   77.5240  222.7300 C   0  0  0  0  0  0  0  0  0  0  0  0
  139.7900   78.3490  222.7270 C   0  0  0  0  0  0  0  0  0  0  0  0
  139.7020   79.6670  223.1190 C   0  0  0  0  0  0  0  0  0  0  0  0
  140.8330   80.4570  223.1040 C   0  0  0  0  0  0  0  0  0  0  0  0
  140.7970   81.7600  223.4810 F   0  0  0  0  0  0  0  0  0  0  0  0
  142.0720   79.9730  222.7040 C   0  0  0  0  0  0  0  0  0  0  0  0
  142.1480   78.6540  222.3140 C   0  0  0  0  0  0  0  0  0  0  0  0
  141.0100   77.8480  222.3270 C   0  0  0  0  0  0  0  0  0  0  0  0
  141.1220   76.5560  221.9360 N   0  0  0  0  0  0  0  0  0  0  0  0
  140.3810   74.8610  219.4880 H   0  0  0  0  0  0  0  0  0  0  0  0
  140.1290   71.9678  220.3938 H   0  0  0  0  0  0  0  0  0  0  0  0
  139.9024   72.5883  218.7088 H   0  0  0  0  0  0  0  0  0  0  0  0
  143.8124   72.7583  221.9226 H   0  0  0  0  0  0  0  0  0  0  0  0
  143.8757   71.3369  220.9651 H   0  0  0  0  0  0  0  0  0  0  0  0
  145.5452   72.5776  219.2715 H   0  0  0  0  0  0  0  0  0  0  0  0
  146.0670   71.9300  221.5580 H   0  0  0  0  0  0  0  0  0  0  0  0
  145.0634   75.0007  221.0350 H   0  0  0  0  0  0  0  0  0  0  0  0
  145.3034   74.9458  219.2713 H   0  0  0  0  0  0  0  0  0  0  0  0
  142.7886   75.0949  220.6832 H   0  0  0  0  0  0  0  0  0  0  0  0
  143.7562   75.2743  218.0310 H   0  0  0  0  0  0  0  0  0  0  0  0
  142.0967   74.4752  218.2436 H   0  0  0  0  0  0  0  0  0  0  0  0
  143.9275   77.6937  218.8738 H   0  0  0  0  0  0  0  0  0  0  0  0
  140.2282   79.7332  219.1050 H   0  0  0  0  0  0  0  0  0  0  0  0
  139.0594   77.5690  218.9242 H   0  0  0  0  0  0  0  0  0  0  0  0
  137.9108   75.5430  222.3282 H   0  0  0  0  0  0  0  0  0  0  0  0
  137.6988   77.9197  223.0499 H   0  0  0  0  0  0  0  0  0  0  0  0
  138.7374   80.0861  223.4414 H   0  0  0  0  0  0  0  0  0  0  0  0
  142.9614   80.6203  222.6988 H   0  0  0  0  0  0  0  0  0  0  0  0
  143.1118   78.2341  221.9905 H   0  0  0  0  0  0  0  0  0  0  0  0
  1  2  2  0
  2  3  1  0
  3  4  1  0
  4  5  1  0
  5  6  2  0
  5  7  1  0
  7  8  1  0
  8  9  1  0
  9 10  1  0
  9 11  1  0
 11 12  1  0
 12 13  1  0
 13 14  1  0
 14 15  2  0
 15 16  1  0
 16 17  2  0
 17 18  1  0
 18 19  2  0
  2 20  1  0
 20 21  2  0
 21 22  1  0
 22 23  2  0
 23 24  1  0
 24 25  2  0
 25 26  1  0
 25 27  1  0
 27 28  2  0
 28 29  1  0
 29 30  2  0
 12  7  1  0
 19 14  1  0
 30 20  1  0
 29 23  1  0
  3 31  1  0
  4 32  1  0
  4 33  1  0
  8 34  1  0
  8 35  1  0
  9 36  1  6
 10 37  1  0
 11 38  1  0
 11 39  1  0
 12 40  1  1
 13 41  1  0
 13 42  1  0
 15 43  1  0
 17 44  1  0
 18 45  1  0
 21 46  1  0
 22 47  1  0
 24 48  1  0
 27 49  1  0
 28 50  1  0
M  END
>  <smiles>  (35) 
O=C(NCC(=O)N1C[C@H](O)C[C@H]1Cc1cnccn1)c1ccc2cc(F)ccc2n1

>  <score_type>  (35) 
oracle

>  <origin>  (35) 
autodockgpu

>  <m_score__min__energy>  (35) 
-8.5199999999999996

>  <m_primary>  (35) 
energy

>  <rmsd>  (35) 
7.381346262810497

>  <m_score__min__rmsd>  (35) 
7.381346262810497

>  <meeko>  (35) 
{"free_energy": -5.89, "intermolecular_energy": -7.98, "internal_energy": -3.32, "cluster_size": 4, "cluster_id": 9, "rank_in_cluster": 3}

>  <energy>  (35) 
-7.99

>  <cluster_rmsd>  (35) 
0.32

>  <cluster>  (35) 
4

$$$$

     RDKit          3D

 50 53  0  0  0  0  0  0  0  0999 V2000
  139.3750   71.2210  221.0510 O   0  0  0  0  0  0  0  0  0  0  0  0
  139.4840   71.7870  222.1940 C   0  0  0  0  0  0  0  0  0  0  0  0
  139.5190   73.2040  222.2960 N   0  0  0  0  0  0  0  0  0  0  0  0
  139.4380   74.0930  221.1630 C   0  0  0  0  0  0  0  0  0  0  0  0
  140.5230   75.1230  221.2010 C   0  0  0  0  0  0  0  0  0  0  0  0
  140.8610   75.5160  222.3440 O   0  0  0  0  0  0  0  0  0  0  0  0
  141.0940   75.5890  219.9890 N   0  0  0  0  0  0  0  0  0  0  0  0
  141.1800   77.0180  219.6260 C   0  0  0  0  0  0  0  0  0  0  0  0
  142.6790   77.0410  219.2670 C   0  0  2  0  0  0  0  0  0  0  0  0
  142.9250   78.2160  218.5900 O   0  0  0  0  0  0  0  0  0  0  0  0
  142.7360   75.8040  218.3830 C   0  0  0  0  0  0  0  0  0  0  0  0
  141.6950   74.8430  218.8910 C   0  0  1  0  0  0  0  0  0  0  0  0
  142.2420   73.5280  219.3180 C   0  0  0  0  0  0  0  0  0  0  0  0
  143.6760   73.4680  219.5990 C   0  0  0  0  0  0  0  0  0  0  0  0
  144.6630   73.0590  218.7430 C   0  0  0  0  0  0  0  0  0  0  0  0
  145.9750   73.0240  219.0730 N   0  0  0  0  0  0  0  0  0  0  0  0
  146.3350   73.4150  220.3180 C   0  0  0  0  0  0  0  0  0  0  0  0
  145.3700   73.8300  221.1980 C   0  0  0  0  0  0  0  0  0  0  0  0
  144.0810   73.8540  220.8450 N   0  0  0  0  0  0  0  0  0  0  0  0
  139.5750   70.9530  223.4160 C   0  0  0  0  0  0  0  0  0  0  0  0
  139.1160   69.6530  223.3690 C   0  0  0  0  0  0  0  0  0  0  0  0
  139.2090   68.8860  224.5120 C   0  0  0  0  0  0  0  0  0  0  0  0
  139.7520   69.4250  225.6700 C   0  0  0  0  0  0  0  0  0  0  0  0
  139.8540   68.6770  226.8230 C   0  0  0  0  0  0  0  0  0  0  0  0
  140.4000   69.2470  227.9550 C   0  0  0  0  0  0  0  0  0  0  0  0
  140.5220   68.5530  229.1140 F   0  0  0  0  0  0  0  0  0  0  0  0
  140.8550   70.5600  227.9810 C   0  0  0  0  0  0  0  0  0  0  0  0
  140.7480   71.2970  226.8210 C   0  0  0  0  0  0  0  0  0  0  0  0
  140.1980   70.7280  225.6730 C   0  0  0  0  0  0  0  0  0  0  0  0
  140.1070   71.4830  224.5520 N   0  0  0  0  0  0  0  0  0  0  0  0
  139.6120   73.5800  223.2870 H   0  0  0  0  0  0  0  0  0  0  0  0
  139.5346   73.5048  220.2385 H   0  0  0  0  0  0  0  0  0  0  0  0
  138.4675   74.6098  221.1960 H   0  0  0  0  0  0  0  0  0  0  0  0
  140.5395   77.2721  218.7685 H   0  0  0  0  0  0  0  0  0  0  0  0
  140.8493   77.7371  220.3899 H   0  0  0  0  0  0  0  0  0  0  0  0
  143.4152   77.0171  220.0839 H   0  0  0  0  0  0  0  0  0  0  0  0
  143.5650   77.9950  217.8680 H   0  0  0  0  0  0  0  0  0  0  0  0
  142.5195   76.0766  217.3395 H   0  0  0  0  0  0  0  0  0  0  0  0
  143.7364   75.3477  218.4154 H   0  0  0  0  0  0  0  0  0  0  0  0
  140.9774   74.5480  218.1112 H   0  0  0  0  0  0  0  0  0  0  0  0
  141.7111   73.2286  220.2337 H   0  0  0  0  0  0  0  0  0  0  0  0
  142.0902   72.8608  218.4567 H   0  0  0  0  0  0  0  0  0  0  0  0
  144.3735   72.7411  217.7305 H   0  0  0  0  0  0  0  0  0  0  0  0
  147.3925   73.3997  220.6205 H   0  0  0  0  0  0  0  0  0  0  0  0
  145.6605   74.1482  222.2101 H   0  0  0  0  0  0  0  0  0  0  0  0
  138.6871   69.2388  222.4446 H   0  0  0  0  0  0  0  0  0  0  0  0
  138.8522   67.8455  224.5055 H   0  0  0  0  0  0  0  0  0  0  0  0
  139.5032   67.6346  226.8408 H   0  0  0  0  0  0  0  0  0  0  0  0
  141.2852   70.9956  228.8948 H   0  0  0  0  0  0  0  0  0  0  0  0
  141.0984   72.3395  226.8009 H   0  0  0  0  0  0  0  0  0  0  0  0
  1  2  2  0
  2  3  1  0
  3  4  1  0
  4  5  1  0
  5  6  2  0
  5  7  1  0
  7  8  1  0
  8  9  1  0
  9 10  1  0
  9 11  1  0
 11 12  1  0
 12 13  1  0
 13 14  1  0
 14 15  2  0
 15 16  1  0
 16 17  2  0
 17 18  1  0
 18 19  2  0
  2 20  1  0
 20 21  2  0
 21 22  1  0
 22 23  2  0
 23 24  1  0
 24 25  2  0
 25 26  1  0
 25 27  1  0
 27 28  2  0
 28 29  1  0
 29 30  2  0
 12  7  1  0
 19 14  1  0
 30 20  1  0
 29 23  1  0
  3 31  1  0
  4 32  1  0
  4 33  1  0
  8 34  1  0
  8 35  1  0
  9 36  1  1
 10 37  1  0
 11 38  1  0
 11 39  1  0
 12 40  1  6
 13 41  1  0
 13 42  1  0
 15 43  1  0
 17 44  1  0
 18 45  1  0
 21 46  1  0
 22 47  1  0
 24 48  1  0
 27 49  1  0
 28 50  1  0
M  END
>  <smiles>  (36) 
O=C(NCC(=O)N1C[C@H](O)C[C@H]1Cc1cnccn1)c1ccc2cc(F)ccc2n1

>  <score_type>  (36) 
oracle

>  <origin>  (36) 
autodockgpu

>  <m_score__min__energy>  (36) 
-8.5199999999999996

>  <m_primary>  (36) 
energy

>  <rmsd>  (36) 
1.9724907367777436

>  <m_score__min__rmsd>  (36) 
1.9724907367777436

>  <meeko>  (36) 
{"free_energy": -7.82, "intermolecular_energy": -9.9, "internal_energy": -1.91, "cluster_size": 11, "cluster_id": 3, "rank_in_cluster": 9}

>  <energy>  (36) 
-7.86

>  <cluster_rmsd>  (36) 
0.78

>  <cluster>  (36) 
4

$$$$

     RDKit          3D

 50 53  0  0  0  0  0  0  0  0999 V2000
  140.8340   71.5450  221.0750 O   0  0  0  0  0  0  0  0  0  0  0  0
  140.3480   72.0820  222.1310 C   0  0  0  0  0  0  0  0  0  0  0  0
  139.9950   73.4590  222.1410 N   0  0  0  0  0  0  0  0  0  0  0  0
  140.1470   74.3360  221.0050 C   0  0  0  0  0  0  0  0  0  0  0  0
  140.9950   75.5210  221.3440 C   0  0  0  0  0  0  0  0  0  0  0  0
  140.7120   76.1050  222.4180 O   0  0  0  0  0  0  0  0  0  0  0  0
  142.0390   75.9140  220.4670 N   0  0  0  0  0  0  0  0  0  0  0  0
  142.8880   74.9550  219.7310 C   0  0  0  0  0  0  0  0  0  0  0  0
  142.7260   75.5800  218.3320 C   0  0  2  0  0  0  0  0  0  0  0  0
  143.6940   75.0320  217.5180 O   0  0  0  0  0  0  0  0  0  0  0  0
  142.9800   77.0370  218.6860 C   0  0  0  0  0  0  0  0  0  0  0  0
  142.4980   77.2470  220.0960 C   0  0  1  0  0  0  0  0  0  0  0  0
  141.4350   78.2780  220.2250 C   0  0  0  0  0  0  0  0  0  0  0  0
  141.3700   79.0050  221.4920 C   0  0  0  0  0  0  0  0  0  0  0  0
  140.2640   79.1830  222.2800 C   0  0  0  0  0  0  0  0  0  0  0  0
  140.2750   79.8760  223.4430 N   0  0  0  0  0  0  0  0  0  0  0  0
  141.4430   80.4220  223.8530 C   0  0  0  0  0  0  0  0  0  0  0  0
  142.5680   80.2620  223.0870 C   0  0  0  0  0  0  0  0  0  0  0  0
  142.5280   79.5730  221.9420 N   0  0  0  0  0  0  0  0  0  0  0  0
  140.1560   71.2590  223.3470 C   0  0  0  0  0  0  0  0  0  0  0  0
  139.5550   70.0240  223.2260 C   0  0  0  0  0  0  0  0  0  0  0  0
  139.3850   69.2640  224.3660 C   0  0  0  0  0  0  0  0  0  0  0  0
  139.8130   69.7490  225.5940 C   0  0  0  0  0  0  0  0  0  0  0  0
  139.6520   69.0080  226.7460 C   0  0  0  0  0  0  0  0  0  0  0  0
  140.0910   69.5220  227.9490 C   0  0  0  0  0  0  0  0  0  0  0  0
  139.9550   68.8320  229.1090 F   0  0  0  0  0  0  0  0  0  0  0  0
  140.6940   70.7700  228.0490 C   0  0  0  0  0  0  0  0  0  0  0  0
  140.8480   71.5000  226.8910 C   0  0  0  0  0  0  0  0  0  0  0  0
  140.4080   70.9880  225.6700 C   0  0  0  0  0  0  0  0  0  0  0  0
  140.5760   71.7350  224.5520 N   0  0  0  0  0  0  0  0  0  0  0  0
  139.6000   73.8140  223.0630 H   0  0  0  0  0  0  0  0  0  0  0  0
  140.6210   73.7793  220.1832 H   0  0  0  0  0  0  0  0  0  0  0  0
  139.1508   74.6951  220.7073 H   0  0  0  0  0  0  0  0  0  0  0  0
  143.9319   74.9676  220.0774 H   0  0  0  0  0  0  0  0  0  0  0  0
  142.6198   73.8924  219.8255 H   0  0  0  0  0  0  0  0  0  0  0  0
  141.7772   75.4292  217.7963 H   0  0  0  0  0  0  0  0  0  0  0  0
  144.5630   75.3660  217.8520 H   0  0  0  0  0  0  0  0  0  0  0  0
  144.0554   77.2584  218.6192 H   0  0  0  0  0  0  0  0  0  0  0  0
  142.4499   77.7043  217.9904 H   0  0  0  0  0  0  0  0  0  0  0  0
  143.2832   77.6457  220.7551 H   0  0  0  0  0  0  0  0  0  0  0  0
  141.5898   79.0171  219.4252 H   0  0  0  0  0  0  0  0  0  0  0  0
  140.4874   77.7227  220.1636 H   0  0  0  0  0  0  0  0  0  0  0  0
  139.3138   78.7381  221.9495 H   0  0  0  0  0  0  0  0  0  0  0  0
  141.4892   80.9899  224.7939 H   0  0  0  0  0  0  0  0  0  0  0  0
  143.5176   80.7069  223.4190 H   0  0  0  0  0  0  0  0  0  0  0  0
  139.2195   69.6537  222.2461 H   0  0  0  0  0  0  0  0  0  0  0  0
  138.9102   68.2739  224.3010 H   0  0  0  0  0  0  0  0  0  0  0  0
  139.1779   68.0162  226.7062 H   0  0  0  0  0  0  0  0  0  0  0  0
  141.0362   71.1611  229.0185 H   0  0  0  0  0  0  0  0  0  0  0  0
  141.3207   72.4925  226.9292 H   0  0  0  0  0  0  0  0  0  0  0  0
  1  2  2  0
  2  3  1  0
  3  4  1  0
  4  5  1  0
  5  6  2  0
  5  7  1  0
  7  8  1  0
  8  9  1  0
  9 10  1  0
  9 11  1  0
 11 12  1  0
 12 13  1  0
 13 14  1  0
 14 15  2  0
 15 16  1  0
 16 17  2  0
 17 18  1  0
 18 19  2  0
  2 20  1  0
 20 21  2  0
 21 22  1  0
 22 23  2  0
 23 24  1  0
 24 25  2  0
 25 26  1  0
 25 27  1  0
 27 28  2  0
 28 29  1  0
 29 30  2  0
 12  7  1  0
 19 14  1  0
 30 20  1  0
 29 23  1  0
  3 31  1  0
  4 32  1  0
  4 33  1  0
  8 34  1  0
  8 35  1  0
  9 36  1  6
 10 37  1  0
 11 38  1  0
 11 39  1  0
 12 40  1  1
 13 41  1  0
 13 42  1  0
 15 43  1  0
 17 44  1  0
 18 45  1  0
 21 46  1  0
 22 47  1  0
 24 48  1  0
 27 49  1  0
 28 50  1  0
M  END
>  <smiles>  (37) 
O=C(NCC(=O)N1C[C@H](O)C[C@H]1Cc1cnccn1)c1ccc2cc(F)ccc2n1

>  <score_type>  (37) 
oracle

>  <origin>  (37) 
autodockgpu

>  <m_score__min__energy>  (37) 
-8.5199999999999996

>  <m_primary>  (37) 
energy

>  <rmsd>  (37) 
1.9740902119611161

>  <m_score__min__rmsd>  (37) 
1.9740902119611161

>  <meeko>  (37) 
{"free_energy": -8.25, "intermolecular_energy": -10.34, "internal_energy": -1.48, "cluster_size": 21, "cluster_id": 1, "rank_in_cluster": 10}

>  <energy>  (37) 
-7.84

>  <cluster_rmsd>  (37) 
1.36

>  <cluster>  (37) 
4

$$$$

     RDKit          3D

 50 53  0  0  0  0  0  0  0  0999 V2000
  140.9900   72.0020  221.2100 O   0  0  0  0  0  0  0  0  0  0  0  0
  140.2570   72.3940  222.1820 C   0  0  0  0  0  0  0  0  0  0  0  0
  139.6060   73.6570  222.1310 N   0  0  0  0  0  0  0  0  0  0  0  0
  139.7130   74.5710  221.0180 C   0  0  0  0  0  0  0  0  0  0  0  0
  140.9520   75.4040  221.1170 C   0  0  0  0  0  0  0  0  0  0  0  0
  141.3590   75.6390  222.2800 O   0  0  0  0  0  0  0  0  0  0  0  0
  141.5810   75.8710  219.9350 N   0  0  0  0  0  0  0  0  0  0  0  0
  141.0350   76.9570  219.0960 C   0  0  0  0  0  0  0  0  0  0  0  0
  142.3180   77.8080  219.0140 C   0  0  2  0  0  0  0  0  0  0  0  0
  142.1380   78.7330  218.0070 O   0  0  0  0  0  0  0  0  0  0  0  0
  143.3130   76.7120  218.6640 C   0  0  0  0  0  0  0  0  0  0  0  0
  142.8220   75.4410  219.3020 C   0  0  1  0  0  0  0  0  0  0  0  0
  143.7800   74.8370  220.2650 C   0  0  0  0  0  0  0  0  0  0  0  0
  144.3300   73.5270  219.9190 C   0  0  0  0  0  0  0  0  0  0  0  0
  145.5010   73.2780  219.2550 C   0  0  0  0  0  0  0  0  0  0  0  0
  145.9480   72.0350  218.9620 N   0  0  0  0  0  0  0  0  0  0  0  0
  145.1980   70.9760  219.3480 C   0  0  0  0  0  0  0  0  0  0  0  0
  144.0200   71.1920  220.0150 C   0  0  0  0  0  0  0  0  0  0  0  0
  143.6030   72.4310  220.2900 N   0  0  0  0  0  0  0  0  0  0  0  0
  140.0890   71.5220  223.3680 C   0  0  0  0  0  0  0  0  0  0  0  0
  139.3680   70.3540  223.2390 C   0  0  0  0  0  0  0  0  0  0  0  0
  139.2220   69.5490  224.3490 C   0  0  0  0  0  0  0  0  0  0  0  0
  139.7920   69.9220  225.5580 C   0  0  0  0  0  0  0  0  0  0  0  0
  139.6580   69.1340  226.6820 C   0  0  0  0  0  0  0  0  0  0  0  0
  140.2390   69.5360  227.8660 C   0  0  0  0  0  0  0  0  0  0  0  0
  140.1360   68.7960  228.9980 F   0  0  0  0  0  0  0  0  0  0  0  0
  140.9620   70.7180  227.9760 C   0  0  0  0  0  0  0  0  0  0  0  0
  141.0880   71.4970  226.8460 C   0  0  0  0  0  0  0  0  0  0  0  0
  140.5040   71.0970  225.6440 C   0  0  0  0  0  0  0  0  0  0  0  0
  140.6490   71.8890  224.5550 N   0  0  0  0  0  0  0  0  0  0  0  0
  139.0190   73.8950  222.9860 H   0  0  0  0  0  0  0  0  0  0  0  0
  139.7427   73.9941  220.0819 H   0  0  0  0  0  0  0  0  0  0  0  0
  138.8411   75.2415  221.0338 H   0  0  0  0  0  0  0  0  0  0  0  0
  140.7054   76.5993  218.1094 H   0  0  0  0  0  0  0  0  0  0  0  0
  140.1360   77.4637  219.4767 H   0  0  0  0  0  0  0  0  0  0  0  0
  142.6180   78.3931  219.8959 H   0  0  0  0  0  0  0  0  0  0  0  0
  143.0330   78.9090  217.6250 H   0  0  0  0  0  0  0  0  0  0  0  0
  143.3681   76.5883  217.5724 H   0  0  0  0  0  0  0  0  0  0  0  0
  144.3185   76.9678  219.0295 H   0  0  0  0  0  0  0  0  0  0  0  0
  142.6895   74.6281  218.5728 H   0  0  0  0  0  0  0  0  0  0  0  0
  144.6245   75.5334  220.3744 H   0  0  0  0  0  0  0  0  0  0  0  0
  143.1965   74.6693  221.1823 H   0  0  0  0  0  0  0  0  0  0  0  0
  146.1130   74.1368  218.9421 H   0  0  0  0  0  0  0  0  0  0  0  0
  145.5311   69.9509  219.1283 H   0  0  0  0  0  0  0  0  0  0  0  0
  143.4092   70.3325  220.3284 H   0  0  0  0  0  0  0  0  0  0  0  0
  138.9204   70.0713  222.2748 H   0  0  0  0  0  0  0  0  0  0  0  0
  138.6532   68.6103  224.2761 H   0  0  0  0  0  0  0  0  0  0  0  0
  139.0919   68.1920  226.6342 H   0  0  0  0  0  0  0  0  0  0  0  0
  141.4172   71.0208  228.9305 H   0  0  0  0  0  0  0  0  0  0  0  0
  141.6525   72.4399  226.8923 H   0  0  0  0  0  0  0  0  0  0  0  0
  1  2  2  0
  2  3  1  0
  3  4  1  0
  4  5  1  0
  5  6  2  0
  5  7  1  0
  7  8  1  0
  8  9  1  0
  9 10  1  0
  9 11  1  0
 11 12  1  0
 12 13  1  0
 13 14  1  0
 14 15  2  0
 15 16  1  0
 16 17  2  0
 17 18  1  0
 18 19  2  0
  2 20  1  0
 20 21  2  0
 21 22  1  0
 22 23  2  0
 23 24  1  0
 24 25  2  0
 25 26  1  0
 25 27  1  0
 27 28  2  0
 28 29  1  0
 29 30  2  0
 12  7  1  0
 19 14  1  0
 30 20  1  0
 29 23  1  0
  3 31  1  0
  4 32  1  0
  4 33  1  0
  8 34  1  0
  8 35  1  0
  9 36  1  1
 10 37  1  0
 11 38  1  0
 11 39  1  0
 12 40  1  6
 13 41  1  0
 13 42  1  0
 15 43  1  0
 17 44  1  0
 18 45  1  0
 21 46  1  0
 22 47  1  0
 24 48  1  0
 27 49  1  0
 28 50  1  0
M  END
>  <smiles>  (38) 
O=C(NCC(=O)N1C[C@H](O)C[C@H]1Cc1cnccn1)c1ccc2cc(F)ccc2n1

>  <score_type>  (38) 
oracle

>  <origin>  (38) 
autodockgpu

>  <m_score__min__energy>  (38) 
-8.5199999999999996

>  <m_primary>  (38) 
energy

>  <rmsd>  (38) 
2.0516865859248643

>  <m_score__min__rmsd>  (38) 
2.0516865859248643

>  <meeko>  (38) 
{"free_energy": -8.03, "intermolecular_energy": -10.12, "internal_energy": -1.46, "cluster_size": 11, "cluster_id": 3, "rank_in_cluster": 5}

>  <energy>  (38) 
-7.82

>  <cluster_rmsd>  (38) 
0.0

>  <cluster>  (38) 
5

$$$$

     RDKit          3D

 50 53  0  0  0  0  0  0  0  0999 V2000
  140.1370   70.9360  220.9780 O   0  0  0  0  0  0  0  0  0  0  0  0
  140.1850   71.5620  222.0930 C   0  0  0  0  0  0  0  0  0  0  0  0
  140.4060   72.9650  222.1230 N   0  0  0  0  0  0  0  0  0  0  0  0
  140.5880   73.7750  220.9430 C   0  0  0  0  0  0  0  0  0  0  0  0
  141.0690   75.1480  221.2940 C   0  0  0  0  0  0  0  0  0  0  0  0
  140.5970   75.6370  222.3500 O   0  0  0  0  0  0  0  0  0  0  0  0
  142.0000   75.8060  220.4490 N   0  0  0  0  0  0  0  0  0  0  0  0
  142.9380   75.0920  219.5600 C   0  0  0  0  0  0  0  0  0  0  0  0
  142.6160   75.8690  218.2680 C   0  0  2  0  0  0  0  0  0  0  0  0
  143.6090   75.5860  217.3560 O   0  0  0  0  0  0  0  0  0  0  0  0
  142.6780   77.2870  218.8160 C   0  0  0  0  0  0  0  0  0  0  0  0
  142.2430   77.2300  220.2560 C   0  0  1  0  0  0  0  0  0  0  0  0
  141.0530   78.0650  220.5630 C   0  0  0  0  0  0  0  0  0  0  0  0
  141.1410   78.9410  221.7300 C   0  0  0  0  0  0  0  0  0  0  0  0
  140.2820   78.9780  222.7960 C   0  0  0  0  0  0  0  0  0  0  0  0
  140.4240   79.8230  223.8440 N   0  0  0  0  0  0  0  0  0  0  0  0
  141.4730   80.6770  223.8420 C   0  0  0  0  0  0  0  0  0  0  0  0
  142.3510   80.6650  222.7910 C   0  0  0  0  0  0  0  0  0  0  0  0
  142.1870   79.8200  221.7680 N   0  0  0  0  0  0  0  0  0  0  0  0
  140.0100   70.8120  223.3590 C   0  0  0  0  0  0  0  0  0  0  0  0
  139.3650   69.5930  223.3260 C   0  0  0  0  0  0  0  0  0  0  0  0
  139.2100   68.9020  224.5100 C   0  0  0  0  0  0  0  0  0  0  0  0
  139.6960   69.4370  225.6950 C   0  0  0  0  0  0  0  0  0  0  0  0
  139.5520   68.7660  226.8910 C   0  0  0  0  0  0  0  0  0  0  0  0
  140.0490   69.3280  228.0490 C   0  0  0  0  0  0  0  0  0  0  0  0
  139.9320   68.7070  229.2480 F   0  0  0  0  0  0  0  0  0  0  0  0
  140.6940   70.5580  228.0600 C   0  0  0  0  0  0  0  0  0  0  0  0
  140.8320   71.2200  226.8590 C   0  0  0  0  0  0  0  0  0  0  0  0
  140.3340   70.6580  225.6840 C   0  0  0  0  0  0  0  0  0  0  0  0
  140.4860   71.3370  224.5220 N   0  0  0  0  0  0  0  0  0  0  0  0
  140.4300   73.3950  223.0960 H   0  0  0  0  0  0  0  0  0  0  0  0
  141.3285   73.2926  220.2881 H   0  0  0  0  0  0  0  0  0  0  0  0
  139.6180   73.8672  220.4325 H   0  0  0  0  0  0  0  0  0  0  0  0
  143.9859   75.2131  219.8720 H   0  0  0  0  0  0  0  0  0  0  0  0
  142.8300   73.9984  219.5125 H   0  0  0  0  0  0  0  0  0  0  0  0
  141.6720   75.6525  217.7464 H   0  0  0  0  0  0  0  0  0  0  0  0
  144.4670   75.6530  217.8450 H   0  0  0  0  0  0  0  0  0  0  0  0
  143.7062   77.6721  218.7483 H   0  0  0  0  0  0  0  0  0  0  0  0
  142.0243   77.9567  218.2380 H   0  0  0  0  0  0  0  0  0  0  0  0
  142.9955   77.6482  220.9407 H   0  0  0  0  0  0  0  0  0  0  0  0
  140.8572   78.6992  219.6858 H   0  0  0  0  0  0  0  0  0  0  0  0
  140.2546   77.3476  220.8035 H   0  0  0  0  0  0  0  0  0  0  0  0
  139.4296   78.2827  222.8009 H   0  0  0  0  0  0  0  0  0  0  0  0
  141.6198   81.3761  224.6785 H   0  0  0  0  0  0  0  0  0  0  0  0
  143.2032   81.3605  222.7885 H   0  0  0  0  0  0  0  0  0  0  0  0
  138.9838   69.1823  222.3794 H   0  0  0  0  0  0  0  0  0  0  0  0
  138.7011   67.9268  224.5149 H   0  0  0  0  0  0  0  0  0  0  0  0
  139.0449   67.7903  226.9217 H   0  0  0  0  0  0  0  0  0  0  0  0
  141.0814   70.9890  228.9950 H   0  0  0  0  0  0  0  0  0  0  0  0
  141.3375   72.1965  226.8272 H   0  0  0  0  0  0  0  0  0  0  0  0
  1  2  2  0
  2  3  1  0
  3  4  1  0
  4  5  1  0
  5  6  2  0
  5  7  1  0
  7  8  1  0
  8  9  1  0
  9 10  1  0
  9 11  1  0
 11 12  1  0
 12 13  1  0
 13 14  1  0
 14 15  2  0
 15 16  1  0
 16 17  2  0
 17 18  1  0
 18 19  2  0
  2 20  1  0
 20 21  2  0
 21 22  1  0
 22 23  2  0
 23 24  1  0
 24 25  2  0
 25 26  1  0
 25 27  1  0
 27 28  2  0
 28 29  1  0
 29 30  2  0
 12  7  1  0
 19 14  1  0
 30 20  1  0
 29 23  1  0
  3 31  1  0
  4 32  1  0
  4 33  1  0
  8 34  1  0
  8 35  1  0
  9 36  1  6
 10 37  1  0
 11 38  1  0
 11 39  1  0
 12 40  1  1
 13 41  1  0
 13 42  1  0
 15 43  1  0
 17 44  1  0
 18 45  1  0
 21 46  1  0
 22 47  1  0
 24 48  1  0
 27 49  1  0
 28 50  1  0
M  END
>  <smiles>  (39) 
O=C(NCC(=O)N1C[C@H](O)C[C@H]1Cc1cnccn1)c1ccc2cc(F)ccc2n1

>  <score_type>  (39) 
oracle

>  <origin>  (39) 
autodockgpu

>  <m_score__min__energy>  (39) 
-8.5199999999999996

>  <m_primary>  (39) 
energy

>  <rmsd>  (39) 
1.9270416660426897

>  <m_score__min__rmsd>  (39) 
1.9270416660426897

>  <meeko>  (39) 
{"free_energy": -7.77, "intermolecular_energy": -9.86, "internal_energy": -1.75, "cluster_size": 21, "cluster_id": 1, "rank_in_cluster": 18}

>  <energy>  (39) 
-7.79

>  <cluster_rmsd>  (39) 
0.77

>  <cluster>  (39) 
5

$$$$

     RDKit          3D

 50 53  0  0  0  0  0  0  0  0999 V2000
  140.6780   71.4430  221.0930 O   0  0  0  0  0  0  0  0  0  0  0  0
  140.2480   72.0080  222.1580 C   0  0  0  0  0  0  0  0  0  0  0  0
  139.9460   73.3960  222.1660 N   0  0  0  0  0  0  0  0  0  0  0  0
  140.0930   74.2570  221.0160 C   0  0  0  0  0  0  0  0  0  0  0  0
  140.7440   75.5520  221.3860 C   0  0  0  0  0  0  0  0  0  0  0  0
  140.3060   76.1040  222.4250 O   0  0  0  0  0  0  0  0  0  0  0  0
  141.7840   76.0740  220.5760 N   0  0  0  0  0  0  0  0  0  0  0  0
  142.6470   75.2370  219.7190 C   0  0  0  0  0  0  0  0  0  0  0  0
  142.4790   76.0460  218.4180 C   0  0  2  0  0  0  0  0  0  0  0  0
  143.4550   75.6270  217.5400 O   0  0  0  0  0  0  0  0  0  0  0  0
  142.7140   77.4440  218.9700 C   0  0  0  0  0  0  0  0  0  0  0  0
  142.2260   77.4510  220.3930 C   0  0  1  0  0  0  0  0  0  0  0  0
  141.1500   78.4420  220.6600 C   0  0  0  0  0  0  0  0  0  0  0  0
  141.4260   79.4630  221.6690 C   0  0  0  0  0  0  0  0  0  0  0  0
  141.2560   80.8150  221.5360 C   0  0  0  0  0  0  0  0  0  0  0  0
  141.5380   81.7060  222.5150 N   0  0  0  0  0  0  0  0  0  0  0  0
  142.0130   81.2380  223.6920 C   0  0  0  0  0  0  0  0  0  0  0  0
  142.1930   79.8890  223.8580 C   0  0  0  0  0  0  0  0  0  0  0  0
  141.9070   79.0310  222.8730 N   0  0  0  0  0  0  0  0  0  0  0  0
  140.0670   71.2030  223.3890 C   0  0  0  0  0  0  0  0  0  0  0  0
  139.4360   69.9800  223.2970 C   0  0  0  0  0  0  0  0  0  0  0  0
  139.2760   69.2380  224.4500 C   0  0  0  0  0  0  0  0  0  0  0  0
  139.7420   69.7280  225.6620 C   0  0  0  0  0  0  0  0  0  0  0  0
  139.5920   69.0050  226.8260 C   0  0  0  0  0  0  0  0  0  0  0  0
  140.0690   69.5230  228.0130 C   0  0  0  0  0  0  0  0  0  0  0  0
  139.9460   68.8510  229.1840 F   0  0  0  0  0  0  0  0  0  0  0  0
  140.7010   70.7590  228.0830 C   0  0  0  0  0  0  0  0  0  0  0  0
  140.8440   71.4720  226.9130 C   0  0  0  0  0  0  0  0  0  0  0  0
  140.3660   70.9550  225.7090 C   0  0  0  0  0  0  0  0  0  0  0  0
  140.5240   71.6840  224.5780 N   0  0  0  0  0  0  0  0  0  0  0  0
  139.5950   73.7750  223.0960 H   0  0  0  0  0  0  0  0  0  0  0  0
  140.7121   73.7469  220.2634 H   0  0  0  0  0  0  0  0  0  0  0  0
  139.0921   74.4739  220.6146 H   0  0  0  0  0  0  0  0  0  0  0  0
  143.6900   75.2159  220.0678 H   0  0  0  0  0  0  0  0  0  0  0  0
  142.3932   74.1680  219.6658 H   0  0  0  0  0  0  0  0  0  0  0  0
  141.5331   75.9584  217.8633 H   0  0  0  0  0  0  0  0  0  0  0  0
  144.3240   75.8290  217.9690 H   0  0  0  0  0  0  0  0  0  0  0  0
  143.7867   77.6857  218.9387 H   0  0  0  0  0  0  0  0  0  0  0  0
  142.1778   78.1945  218.3707 H   0  0  0  0  0  0  0  0  0  0  0  0
  143.0049   77.7646  221.1036 H   0  0  0  0  0  0  0  0  0  0  0  0
  140.9331   78.9599  219.7141 H   0  0  0  0  0  0  0  0  0  0  0  0
  140.3143   77.8545  221.0680 H   0  0  0  0  0  0  0  0  0  0  0  0
  140.8687   81.1984  220.5805 H   0  0  0  0  0  0  0  0  0  0  0  0
  142.2529   81.9341  224.5092 H   0  0  0  0  0  0  0  0  0  0  0  0
  142.5781   79.5071  224.8150 H   0  0  0  0  0  0  0  0  0  0  0  0
  139.0697   69.6055  222.3297 H   0  0  0  0  0  0  0  0  0  0  0  0
  138.7788   68.2577  224.4081 H   0  0  0  0  0  0  0  0  0  0  0  0
  139.0962   68.0232  226.8090 H   0  0  0  0  0  0  0  0  0  0  0  0
  141.0740   71.1541  229.0394 H   0  0  0  0  0  0  0  0  0  0  0  0
  141.3380   72.4547  226.9284 H   0  0  0  0  0  0  0  0  0  0  0  0
  1  2  2  0
  2  3  1  0
  3  4  1  0
  4  5  1  0
  5  6  2  0
  5  7  1  0
  7  8  1  0
  8  9  1  0
  9 10  1  0
  9 11  1  0
 11 12  1  0
 12 13  1  0
 13 14  1  0
 14 15  2  0
 15 16  1  0
 16 17  2  0
 17 18  1  0
 18 19  2  0
  2 20  1  0
 20 21  2  0
 21 22  1  0
 22 23  2  0
 23 24  1  0
 24 25  2  0
 25 26  1  0
 25 27  1  0
 27 28  2  0
 28 29  1  0
 29 30  2  0
 12  7  1  0
 19 14  1  0
 30 20  1  0
 29 23  1  0
  3 31  1  0
  4 32  1  0
  4 33  1  0
  8 34  1  0
  8 35  1  0
  9 36  1  6
 10 37  1  0
 11 38  1  0
 11 39  1  0
 12 40  1  1
 13 41  1  0
 13 42  1  0
 15 43  1  0
 17 44  1  0
 18 45  1  0
 21 46  1  0
 22 47  1  0
 24 48  1  0
 27 49  1  0
 28 50  1  0
M  END
>  <smiles>  (40) 
O=C(NCC(=O)N1C[C@H](O)C[C@H]1Cc1cnccn1)c1ccc2cc(F)ccc2n1

>  <score_type>  (40) 
oracle

>  <origin>  (40) 
autodockgpu

>  <m_score__min__energy>  (40) 
-8.5199999999999996

>  <m_primary>  (40) 
energy

>  <rmsd>  (40) 
1.8685371824491899

>  <m_score__min__rmsd>  (40) 
1.8685371824491899

>  <meeko>  (40) 
{"free_energy": -8.38, "intermolecular_energy": -10.47, "internal_energy": -1.44, "cluster_size": 21, "cluster_id": 1, "rank_in_cluster": 7}

>  <energy>  (40) 
-7.76

>  <cluster_rmsd>  (40) 
0.77

>  <cluster>  (40) 
5

$$$$

     RDKit          3D

 50 53  0  0  0  0  0  0  0  0999 V2000
  140.2750   71.6610  220.9820 O   0  0  0  0  0  0  0  0  0  0  0  0
  140.0150   72.1940  222.1160 C   0  0  0  0  0  0  0  0  0  0  0  0
  139.7610   73.5890  222.2150 N   0  0  0  0  0  0  0  0  0  0  0  0
  139.7740   74.4900  221.0870 C   0  0  0  0  0  0  0  0  0  0  0  0
  139.5400   75.9040  221.5190 C   0  0  0  0  0  0  0  0  0  0  0  0
  139.4520   76.0880  222.7570 O   0  0  0  0  0  0  0  0  0  0  0  0
  139.4330   76.9280  220.5440 N   0  0  0  0  0  0  0  0  0  0  0  0
  138.1430   77.4510  220.0500 C   0  0  0  0  0  0  0  0  0  0  0  0
  138.4450   78.9490  220.2550 C   0  0  2  0  0  0  0  0  0  0  0  0
  137.4900   79.6620  219.5630 O   0  0  0  0  0  0  0  0  0  0  0  0
  139.8270   79.0060  219.6230 C   0  0  0  0  0  0  0  0  0  0  0  0
  140.4770   77.6670  219.8440 C   0  0  1  0  0  0  0  0  0  0  0  0
  141.7490   77.7310  220.6090 C   0  0  0  0  0  0  0  0  0  0  0  0
  141.8220   78.7090  221.6930 C   0  0  0  0  0  0  0  0  0  0  0  0
  142.1930   80.0240  221.5890 C   0  0  0  0  0  0  0  0  0  0  0  0
  142.2420   80.8740  222.6410 N   0  0  0  0  0  0  0  0  0  0  0  0
  141.9050   80.4040  223.8630 C   0  0  0  0  0  0  0  0  0  0  0  0
  141.5280   79.0930  224.0010 C   0  0  0  0  0  0  0  0  0  0  0  0
  141.4890   78.2740  222.9450 N   0  0  0  0  0  0  0  0  0  0  0  0
  139.9800   71.3470  223.3310 C   0  0  0  0  0  0  0  0  0  0  0  0
  139.5270   70.0490  223.2230 C   0  0  0  0  0  0  0  0  0  0  0  0
  139.5030   69.2680  224.3610 C   0  0  0  0  0  0  0  0  0  0  0  0
  139.9260   69.7940  225.5740 C   0  0  0  0  0  0  0  0  0  0  0  0
  139.9100   69.0330  226.7230 C   0  0  0  0  0  0  0  0  0  0  0  0
  140.3390   69.5890  227.9110 C   0  0  0  0  0  0  0  0  0  0  0  0
  140.3420   68.8810  229.0680 F   0  0  0  0  0  0  0  0  0  0  0  0
  140.7910   70.9000  227.9970 C   0  0  0  0  0  0  0  0  0  0  0  0
  140.8030   71.6500  226.8420 C   0  0  0  0  0  0  0  0  0  0  0  0
  140.3710   71.0960  225.6370 C   0  0  0  0  0  0  0  0  0  0  0  0
  140.3960   71.8630  224.5210 N   0  0  0  0  0  0  0  0  0  0  0  0
  139.5550   73.9400  223.1980 H   0  0  0  0  0  0  0  0  0  0  0  0
  140.7518   74.4249  220.5874 H   0  0  0  0  0  0  0  0  0  0  0  0
  138.9662   74.1983  220.3997 H   0  0  0  0  0  0  0  0  0  0  0  0
  137.9656   77.1998  218.9939 H   0  0  0  0  0  0  0  0  0  0  0  0
  137.2382   77.0632  220.5410 H   0  0  0  0  0  0  0  0  0  0  0  0
  138.4256   79.3545  221.2774 H   0  0  0  0  0  0  0  0  0  0  0  0
  137.9080   79.9350  218.7080 H   0  0  0  0  0  0  0  0  0  0  0  0
  139.7398   79.2086  218.5453 H   0  0  0  0  0  0  0  0  0  0  0  0
  140.4281   79.8093  220.0740 H   0  0  0  0  0  0  0  0  0  0  0  0
  140.8003   77.1950  218.9045 H   0  0  0  0  0  0  0  0  0  0  0  0
  141.9238   76.7369  221.0464 H   0  0  0  0  0  0  0  0  0  0  0  0
  142.5055   78.0556  219.8794 H   0  0  0  0  0  0  0  0  0  0  0  0
  142.4660   80.4100  220.5958 H   0  0  0  0  0  0  0  0  0  0  0  0
  141.9330   81.0680  224.7395 H   0  0  0  0  0  0  0  0  0  0  0  0
  141.2537   78.7096  224.9948 H   0  0  0  0  0  0  0  0  0  0  0  0
  139.1934   69.6464  222.2552 H   0  0  0  0  0  0  0  0  0  0  0  0
  139.1485   68.2281  224.3066 H   0  0  0  0  0  0  0  0  0  0  0  0
  139.5582   67.9912  226.6934 H   0  0  0  0  0  0  0  0  0  0  0  0
  141.1276   71.3242  228.9545 H   0  0  0  0  0  0  0  0  0  0  0  0
  141.1552   72.6917  226.8699 H   0  0  0  0  0  0  0  0  0  0  0  0
  1  2  2  0
  2  3  1  0
  3  4  1  0
  4  5  1  0
  5  6  2  0
  5  7  1  0
  7  8  1  0
  8  9  1  0
  9 10  1  0
  9 11  1  0
 11 12  1  0
 12 13  1  0
 13 14  1  0
 14 15  2  0
 15 16  1  0
 16 17  2  0
 17 18  1  0
 18 19  2  0
  2 20  1  0
 20 21  2  0
 21 22  1  0
 22 23  2  0
 23 24  1  0
 24 25  2  0
 25 26  1  0
 25 27  1  0
 27 28  2  0
 28 29  1  0
 29 30  2  0
 12  7  1  0
 19 14  1  0
 30 20  1  0
 29 23  1  0
  3 31  1  0
  4 32  1  0
  4 33  1  0
  8 34  1  0
  8 35  1  0
  9 36  1  1
 10 37  1  0
 11 38  1  0
 11 39  1  0
 12 40  1  6
 13 41  1  0
 13 42  1  0
 15 43  1  0
 17 44  1  0
 18 45  1  0
 21 46  1  0
 22 47  1  0
 24 48  1  0
 27 49  1  0
 28 50  1  0
M  END
>  <smiles>  (41) 
O=C(NCC(=O)N1C[C@H](O)C[C@H]1Cc1cnccn1)c1ccc2cc(F)ccc2n1

>  <score_type>  (41) 
oracle

>  <origin>  (41) 
autodockgpu

>  <m_score__min__energy>  (41) 
-8.5199999999999996

>  <m_primary>  (41) 
energy

>  <rmsd>  (41) 
2.0075433587159757

>  <m_score__min__rmsd>  (41) 
2.0075433587159757

>  <meeko>  (41) 
{"free_energy": -7.19, "intermolecular_energy": -9.28, "internal_energy": -2.02, "cluster_size": 5, "cluster_id": 5, "rank_in_cluster": 5}

>  <energy>  (41) 
-7.7

>  <cluster_rmsd>  (41) 
0.83

>  <cluster>  (41) 
5

$$$$

     RDKit          3D

 50 53  0  0  0  0  0  0  0  0999 V2000
  139.7500   70.9600  220.9000 O   0  0  0  0  0  0  0  0  0  0  0  0
  140.1390   71.5200  221.9830 C   0  0  0  0  0  0  0  0  0  0  0  0
  140.7380   72.8080  221.9540 N   0  0  0  0  0  0  0  0  0  0  0  0
  140.9530   73.5670  220.7450 C   0  0  0  0  0  0  0  0  0  0  0  0
  141.3710   74.9700  221.0520 C   0  0  0  0  0  0  0  0  0  0  0  0
  140.8550   75.4810  222.0760 O   0  0  0  0  0  0  0  0  0  0  0  0
  142.2940   75.6320  220.2030 N   0  0  0  0  0  0  0  0  0  0  0  0
  143.1780   74.9250  219.2540 C   0  0  0  0  0  0  0  0  0  0  0  0
  142.8400   75.7640  218.0060 C   0  0  2  0  0  0  0  0  0  0  0  0
  143.7930   75.4850  217.0490 O   0  0  0  0  0  0  0  0  0  0  0  0
  142.9680   77.1550  218.6070 C   0  0  0  0  0  0  0  0  0  0  0  0
  142.5800   77.0540  220.0570 C   0  0  1  0  0  0  0  0  0  0  0  0
  141.4290   77.9140  220.4370 C   0  0  0  0  0  0  0  0  0  0  0  0
  141.6300   78.8320  221.5580 C   0  0  0  0  0  0  0  0  0  0  0  0
  142.0280   80.1400  221.4850 C   0  0  0  0  0  0  0  0  0  0  0  0
  142.1990   80.9330  222.5690 N   0  0  0  0  0  0  0  0  0  0  0  0
  141.9630   80.4060  223.7930 C   0  0  0  0  0  0  0  0  0  0  0  0
  141.5620   79.1000  223.8990 C   0  0  0  0  0  0  0  0  0  0  0  0
  141.4010   78.3390  222.8120 N   0  0  0  0  0  0  0  0  0  0  0  0
  139.9600   70.8140  223.2740 C   0  0  0  0  0  0  0  0  0  0  0  0
  139.2980   69.6040  223.2840 C   0  0  0  0  0  0  0  0  0  0  0  0
  139.1410   68.9560  224.4920 C   0  0  0  0  0  0  0  0  0  0  0  0
  139.6400   69.5220  225.6560 C   0  0  0  0  0  0  0  0  0  0  0  0
  139.4940   68.8930  226.8740 C   0  0  0  0  0  0  0  0  0  0  0  0
  140.0040   69.4860  228.0100 C   0  0  0  0  0  0  0  0  0  0  0  0
  139.8850   68.9060  229.2300 F   0  0  0  0  0  0  0  0  0  0  0  0
  140.6670   70.7070  227.9770 C   0  0  0  0  0  0  0  0  0  0  0  0
  140.8070   71.3260  226.7550 C   0  0  0  0  0  0  0  0  0  0  0  0
  140.2940   70.7330  225.6010 C   0  0  0  0  0  0  0  0  0  0  0  0
  140.4500   71.3710  224.4160 N   0  0  0  0  0  0  0  0  0  0  0  0
  141.0280   73.1900  222.9040 H   0  0  0  0  0  0  0  0  0  0  0  0
  141.7407   73.0801  220.1514 H   0  0  0  0  0  0  0  0  0  0  0  0
  140.0078   73.6010  220.1833 H   0  0  0  0  0  0  0  0  0  0  0  0
  144.2391   74.9994  219.5344 H   0  0  0  0  0  0  0  0  0  0  0  0
  143.0317   73.8383  219.1666 H   0  0  0  0  0  0  0  0  0  0  0  0
  141.8725   75.6005  217.5089 H   0  0  0  0  0  0  0  0  0  0  0  0
  144.6720   75.6580  217.4700 H   0  0  0  0  0  0  0  0  0  0  0  0
  144.0058   77.5090  218.5189 H   0  0  0  0  0  0  0  0  0  0  0  0
  142.3181   77.8684  218.0790 H   0  0  0  0  0  0  0  0  0  0  0  0
  143.3694   77.4191  220.7304 H   0  0  0  0  0  0  0  0  0  0  0  0
  141.1605   78.5175  219.5574 H   0  0  0  0  0  0  0  0  0  0  0  0
  140.6488   77.2159  220.7746 H   0  0  0  0  0  0  0  0  0  0  0  0
  142.2194   80.5703  220.4909 H   0  0  0  0  0  0  0  0  0  0  0  0
  142.0921   81.0212  224.6957 H   0  0  0  0  0  0  0  0  0  0  0  0
  141.3697   78.6714  224.8937 H   0  0  0  0  0  0  0  0  0  0  0  0
  138.9057   69.1673  222.3538 H   0  0  0  0  0  0  0  0  0  0  0  0
  138.6191   67.9885  224.5321 H   0  0  0  0  0  0  0  0  0  0  0  0
  138.9747   67.9255  226.9393 H   0  0  0  0  0  0  0  0  0  0  0  0
  141.0660   71.1630  228.8951 H   0  0  0  0  0  0  0  0  0  0  0  0
  141.3262   72.2934  226.6883 H   0  0  0  0  0  0  0  0  0  0  0  0
  1  2  2  0
  2  3  1  0
  3  4  1  0
  4  5  1  0
  5  6  2  0
  5  7  1  0
  7  8  1  0
  8  9  1  0
  9 10  1  0
  9 11  1  0
 11 12  1  0
 12 13  1  0
 13 14  1  0
 14 15  2  0
 15 16  1  0
 16 17  2  0
 17 18  1  0
 18 19  2  0
  2 20  1  0
 20 21  2  0
 21 22  1  0
 22 23  2  0
 23 24  1  0
 24 25  2  0
 25 26  1  0
 25 27  1  0
 27 28  2  0
 28 29  1  0
 29 30  2  0
 12  7  1  0
 19 14  1  0
 30 20  1  0
 29 23  1  0
  3 31  1  0
  4 32  1  0
  4 33  1  0
  8 34  1  0
  8 35  1  0
  9 36  1  6
 10 37  1  0
 11 38  1  0
 11 39  1  0
 12 40  1  1
 13 41  1  0
 13 42  1  0
 15 43  1  0
 17 44  1  0
 18 45  1  0
 21 46  1  0
 22 47  1  0
 24 48  1  0
 27 49  1  0
 28 50  1  0
M  END
>  <smiles>  (42) 
O=C(NCC(=O)N1C[C@H](O)C[C@H]1Cc1cnccn1)c1ccc2cc(F)ccc2n1

>  <score_type>  (42) 
oracle

>  <origin>  (42) 
autodockgpu

>  <m_score__min__energy>  (42) 
-8.5199999999999996

>  <m_primary>  (42) 
energy

>  <rmsd>  (42) 
2.073931201305072

>  <m_score__min__rmsd>  (42) 
2.073931201305072

>  <meeko>  (42) 
{"free_energy": -7.91, "intermolecular_energy": -10.0, "internal_energy": -1.7, "cluster_size": 21, "cluster_id": 1, "rank_in_cluster": 16}

>  <energy>  (42) 
-7.19

>  <cluster_rmsd>  (42) 
1.64

>  <cluster>  (42) 
5

$$$$

     RDKit          3D

 50 53  0  0  0  0  0  0  0  0999 V2000
  139.4380   71.3000  221.0690 O   0  0  0  0  0  0  0  0  0  0  0  0
  139.5300   71.8520  222.2200 C   0  0  0  0  0  0  0  0  0  0  0  0
  139.5480   73.2680  222.3420 N   0  0  0  0  0  0  0  0  0  0  0  0
  139.4670   74.1710  221.2190 C   0  0  0  0  0  0  0  0  0  0  0  0
  140.6160   75.1310  221.2110 C   0  0  0  0  0  0  0  0  0  0  0  0
  141.0400   75.4830  222.3380 O   0  0  0  0  0  0  0  0  0  0  0  0
  141.1490   75.5790  219.9750 N   0  0  0  0  0  0  0  0  0  0  0  0
  141.2360   77.0040  219.5960 C   0  0  0  0  0  0  0  0  0  0  0  0
  142.7210   77.0090  219.1840 C   0  0  2  0  0  0  0  0  0  0  0  0
  142.9540   78.1750  218.4870 O   0  0  0  0  0  0  0  0  0  0  0  0
  142.7350   75.7640  218.3100 C   0  0  0  0  0  0  0  0  0  0  0  0
  141.7030   74.8170  218.8630 C   0  0  1  0  0  0  0  0  0  0  0  0
  142.2520   73.5020  219.2840 C   0  0  0  0  0  0  0  0  0  0  0  0
  143.6840   73.4440  219.5760 C   0  0  0  0  0  0  0  0  0  0  0  0
  144.6800   73.0420  218.7260 C   0  0  0  0  0  0  0  0  0  0  0  0
  145.9890   73.0090  219.0670 N   0  0  0  0  0  0  0  0  0  0  0  0
  146.3370   73.3980  220.3160 C   0  0  0  0  0  0  0  0  0  0  0  0
  145.3640   73.8070  221.1900 C   0  0  0  0  0  0  0  0  0  0  0  0
  144.0780   73.8280  220.8270 N   0  0  0  0  0  0  0  0  0  0  0  0
  139.6190   71.0020  223.4310 C   0  0  0  0  0  0  0  0  0  0  0  0
  139.1650   69.7020  223.3660 C   0  0  0  0  0  0  0  0  0  0  0  0
  139.2560   68.9200  224.4990 C   0  0  0  0  0  0  0  0  0  0  0  0
  139.7910   69.4460  225.6660 C   0  0  0  0  0  0  0  0  0  0  0  0
  139.8910   68.6840  226.8100 C   0  0  0  0  0  0  0  0  0  0  0  0
  140.4300   69.2410  227.9520 C   0  0  0  0  0  0  0  0  0  0  0  0
  140.5490   68.5330  229.1020 F   0  0  0  0  0  0  0  0  0  0  0  0
  140.8800   70.5550  227.9960 C   0  0  0  0  0  0  0  0  0  0  0  0
  140.7750   71.3070  226.8460 C   0  0  0  0  0  0  0  0  0  0  0  0
  140.2320   70.7510  225.6880 C   0  0  0  0  0  0  0  0  0  0  0  0
  140.1440   71.5200  224.5760 N   0  0  0  0  0  0  0  0  0  0  0  0
  139.6270   73.6320  223.3380 H   0  0  0  0  0  0  0  0  0  0  0  0
  139.4814   73.5866  220.2872 H   0  0  0  0  0  0  0  0  0  0  0  0
  138.5333   74.7466  221.3020 H   0  0  0  0  0  0  0  0  0  0  0  0
  140.5680   77.2568  218.7594 H   0  0  0  0  0  0  0  0  0  0  0  0
  140.9396   77.7330  220.3645 H   0  0  0  0  0  0  0  0  0  0  0  0
  143.4851   76.9853  219.9749 H   0  0  0  0  0  0  0  0  0  0  0  0
  143.6100   77.9530  217.7800 H   0  0  0  0  0  0  0  0  0  0  0  0
  142.4845   76.0297  217.2724 H   0  0  0  0  0  0  0  0  0  0  0  0
  143.7315   75.2982  218.3116 H   0  0  0  0  0  0  0  0  0  0  0  0
  140.9562   74.5218  218.1113 H   0  0  0  0  0  0  0  0  0  0  0  0
  141.7150   73.1937  220.1932 H   0  0  0  0  0  0  0  0  0  0  0  0
  142.1101   72.8416  218.4158 H   0  0  0  0  0  0  0  0  0  0  0  0
  144.4001   72.7285  217.7094 H   0  0  0  0  0  0  0  0  0  0  0  0
  147.3921   73.3859  220.6268 H   0  0  0  0  0  0  0  0  0  0  0  0
  145.6456   74.1227  222.2054 H   0  0  0  0  0  0  0  0  0  0  0  0
  138.7410   69.2985  222.4346 H   0  0  0  0  0  0  0  0  0  0  0  0
  138.9039   67.8781  224.4770 H   0  0  0  0  0  0  0  0  0  0  0  0
  139.5440   67.6402  226.8129 H   0  0  0  0  0  0  0  0  0  0  0  0
  141.3054   70.9802  228.9170 H   0  0  0  0  0  0  0  0  0  0  0  0
  141.1212   72.3511  226.8414 H   0  0  0  0  0  0  0  0  0  0  0  0
  1  2  2  0
  2  3  1  0
  3  4  1  0
  4  5  1  0
  5  6  2  0
  5  7  1  0
  7  8  1  0
  8  9  1  0
  9 10  1  0
  9 11  1  0
 11 12  1  0
 12 13  1  0
 13 14  1  0
 14 15  2  0
 15 16  1  0
 16 17  2  0
 17 18  1  0
 18 19  2  0
  2 20  1  0
 20 21  2  0
 21 22  1  0
 22 23  2  0
 23 24  1  0
 24 25  2  0
 25 26  1  0
 25 27  1  0
 27 28  2  0
 28 29  1  0
 29 30  2  0
 12  7  1  0
 19 14  1  0
 30 20  1  0
 29 23  1  0
  3 31  1  0
  4 32  1  0
  4 33  1  0
  8 34  1  0
  8 35  1  0
  9 36  1  1
 10 37  1  0
 11 38  1  0
 11 39  1  0
 12 40  1  6
 13 41  1  0
 13 42  1  0
 15 43  1  0
 17 44  1  0
 18 45  1  0
 21 46  1  0
 22 47  1  0
 24 48  1  0
 27 49  1  0
 28 50  1  0
M  END
>  <smiles>  (43) 
O=C(NCC(=O)N1C[C@H](O)C[C@H]1Cc1cnccn1)c1ccc2cc(F)ccc2n1

>  <score_type>  (43) 
oracle

>  <origin>  (43) 
autodockgpu

>  <m_score__min__energy>  (43) 
-8.5199999999999996

>  <m_primary>  (43) 
energy

>  <rmsd>  (43) 
1.991314369791976

>  <m_score__min__rmsd>  (43) 
1.991314369791976

>  <meeko>  (43) 
{"free_energy": -7.81, "intermolecular_energy": -9.9, "internal_energy": -1.91, "cluster_size": 11, "cluster_id": 3, "rank_in_cluster": 10}

>  <energy>  (43) 
-7.32

>  <cluster_rmsd>  (43) 
0.0

>  <cluster>  (43) 
6

$$$$

     RDKit          3D

 50 53  0  0  0  0  0  0  0  0999 V2000
  140.1450   73.5340  222.3530 O   0  0  0  0  0  0  0  0  0  0  0  0
  140.1890   72.2630  222.2070 C   0  0  0  0  0  0  0  0  0  0  0  0
  140.2900   71.6900  220.9100 N   0  0  0  0  0  0  0  0  0  0  0  0
  140.3490   72.4620  219.6930 C   0  0  0  0  0  0  0  0  0  0  0  0
  141.7240   72.4450  219.1050 C   0  0  0  0  0  0  0  0  0  0  0  0
  141.8040   72.0490  217.9160 O   0  0  0  0  0  0  0  0  0  0  0  0
  142.8310   72.8610  219.8890 N   0  0  0  0  0  0  0  0  0  0  0  0
  143.9530   71.9710  220.2500 C   0  0  0  0  0  0  0  0  0  0  0  0
  145.0960   72.9040  219.8050 C   0  0  2  0  0  0  0  0  0  0  0  0
  146.2660   72.4100  220.3390 O   0  0  0  0  0  0  0  0  0  0  0  0
  144.6250   74.1940  220.4590 C   0  0  0  0  0  0  0  0  0  0  0  0
  143.1200   74.1590  220.4850 C   0  0  1  0  0  0  0  0  0  0  0  0
  142.4750   75.2830  219.7570 C   0  0  0  0  0  0  0  0  0  0  0  0
  141.8420   76.3210  220.5700 C   0  0  0  0  0  0  0  0  0  0  0  0
  141.9300   77.6750  220.3860 C   0  0  0  0  0  0  0  0  0  0  0  0
  141.3180   78.5820  221.1840 N   0  0  0  0  0  0  0  0  0  0  0  0
  140.5760   78.1270  222.2200 C   0  0  0  0  0  0  0  0  0  0  0  0
  140.4660   76.7770  222.4300 C   0  0  0  0  0  0  0  0  0  0  0  0
  141.0820   75.9040  221.6270 N   0  0  0  0  0  0  0  0  0  0  0  0
  140.1340   71.3890  223.4020 C   0  0  0  0  0  0  0  0  0  0  0  0
  139.5940   70.1260  223.2780 C   0  0  0  0  0  0  0  0  0  0  0  0
  139.5500   69.3200  224.3970 C   0  0  0  0  0  0  0  0  0  0  0  0
  140.0410   69.7860  225.6080 C   0  0  0  0  0  0  0  0  0  0  0  0
  140.0070   68.9990  226.7400 C   0  0  0  0  0  0  0  0  0  0  0  0
  140.5050   69.4960  227.9270 C   0  0  0  0  0  0  0  0  0  0  0  0
  140.4940   68.7600  229.0660 F   0  0  0  0  0  0  0  0  0  0  0  0
  141.0440   70.7720  228.0310 C   0  0  0  0  0  0  0  0  0  0  0  0
  141.0720   71.5490  226.8930 C   0  0  0  0  0  0  0  0  0  0  0  0
  140.5720   71.0550  225.6890 C   0  0  0  0  0  0  0  0  0  0  0  0
  140.6150   71.8470  224.5910 N   0  0  0  0  0  0  0  0  0  0  0  0
  140.3200   70.6260  220.8910 H   0  0  0  0  0  0  0  0  0  0  0  0
  139.6425   72.0373  218.9646 H   0  0  0  0  0  0  0  0  0  0  0  0
  140.0852   73.5034  219.9293 H   0  0  0  0  0  0  0  0  0  0  0  0
  143.9852   71.7529  221.3277 H   0  0  0  0  0  0  0  0  0  0  0  0
  143.9418   70.9650  219.8051 H   0  0  0  0  0  0  0  0  0  0  0  0
  145.2926   73.0168  218.7286 H   0  0  0  0  0  0  0  0  0  0  0  0
  146.0190   71.9500  221.1800 H   0  0  0  0  0  0  0  0  0  0  0  0
  145.0178   74.2615  221.4843 H   0  0  0  0  0  0  0  0  0  0  0  0
  144.9846   75.0691  219.8979 H   0  0  0  0  0  0  0  0  0  0  0  0
  142.7132   74.2823  221.4995 H   0  0  0  0  0  0  0  0  0  0  0  0
  143.2476   75.7676  219.1420 H   0  0  0  0  0  0  0  0  0  0  0  0
  141.6533   74.8228  219.1887 H   0  0  0  0  0  0  0  0  0  0  0  0
  142.5312   78.0467  219.5431 H   0  0  0  0  0  0  0  0  0  0  0  0
  140.0649   78.8352  222.8887 H   0  0  0  0  0  0  0  0  0  0  0  0
  139.8621   76.4067  223.2715 H   0  0  0  0  0  0  0  0  0  0  0  0
  139.2081   69.7702  222.3113 H   0  0  0  0  0  0  0  0  0  0  0  0
  139.1255   68.3075  224.3289 H   0  0  0  0  0  0  0  0  0  0  0  0
  139.5864   67.9835  226.6970 H   0  0  0  0  0  0  0  0  0  0  0  0
  141.4346   71.1490  228.9877 H   0  0  0  0  0  0  0  0  0  0  0  0
  141.4914   72.5651  226.9350 H   0  0  0  0  0  0  0  0  0  0  0  0
  1  2  2  0
  2  3  1  0
  3  4  1  0
  4  5  1  0
  5  6  2  0
  5  7  1  0
  7  8  1  0
  8  9  1  0
  9 10  1  0
  9 11  1  0
 11 12  1  0
 12 13  1  0
 13 14  1  0
 14 15  2  0
 15 16  1  0
 16 17  2  0
 17 18  1  0
 18 19  2  0
  2 20  1  0
 20 21  2  0
 21 22  1  0
 22 23  2  0
 23 24  1  0
 24 25  2  0
 25 26  1  0
 25 27  1  0
 27 28  2  0
 28 29  1  0
 29 30  2  0
 12  7  1  0
 19 14  1  0
 30 20  1  0
 29 23  1  0
  3 31  1  0
  4 32  1  0
  4 33  1  0
  8 34  1  0
  8 35  1  0
  9 36  1  6
 10 37  1  0
 11 38  1  0
 11 39  1  0
 12 40  1  1
 13 41  1  0
 13 42  1  0
 15 43  1  0
 17 44  1  0
 18 45  1  0
 21 46  1  0
 22 47  1  0
 24 48  1  0
 27 49  1  0
 28 50  1  0
M  END
>  <smiles>  (44) 
O=C(NCC(=O)N1C[C@H](O)C[C@H]1Cc1cnccn1)c1ccc2cc(F)ccc2n1

>  <score_type>  (44) 
oracle

>  <origin>  (44) 
autodockgpu

>  <m_score__min__energy>  (44) 
-8.5199999999999996

>  <m_primary>  (44) 
energy

>  <rmsd>  (44) 
3.439754945827351

>  <m_score__min__rmsd>  (44) 
3.439754945827351

>  <meeko>  (44) 
{"free_energy": -8.03, "intermolecular_energy": -10.12, "internal_energy": -1.44, "cluster_size": 4, "cluster_id": 4, "rank_in_cluster": 1}

>  <energy>  (44) 
-7.24

>  <cluster_rmsd>  (44) 
0.0

>  <cluster>  (44) 
7

$$$$

     RDKit          3D

 50 53  0  0  0  0  0  0  0  0999 V2000
  139.6250   74.5440  222.3330 O   0  0  0  0  0  0  0  0  0  0  0  0
  139.8770   75.5370  221.5640 C   0  0  0  0  0  0  0  0  0  0  0  0
  139.9660   75.3540  220.1570 N   0  0  0  0  0  0  0  0  0  0  0  0
  139.7860   74.0820  219.4990 C   0  0  0  0  0  0  0  0  0  0  0  0
  141.0960   73.3940  219.2810 C   0  0  0  0  0  0  0  0  0  0  0  0
  141.0670   72.3930  218.5240 O   0  0  0  0  0  0  0  0  0  0  0  0
  142.2650   73.8860  219.9180 N   0  0  0  0  0  0  0  0  0  0  0  0
  143.0890   73.0800  220.8410 C   0  0  0  0  0  0  0  0  0  0  0  0
  144.4530   73.3510  220.1760 C   0  0  2  0  0  0  0  0  0  0  0  0
  145.4320   72.9490  221.0590 O   0  0  0  0  0  0  0  0  0  0  0  0
  144.3530   74.8600  220.0210 C   0  0  0  0  0  0  0  0  0  0  0  0
  142.8980   75.1950  219.8280 C   0  0  1  0  0  0  0  0  0  0  0  0
  142.6020   75.8920  218.5480 C   0  0  0  0  0  0  0  0  0  0  0  0
  142.2660   77.3120  218.6300 C   0  0  0  0  0  0  0  0  0  0  0  0
  142.9510   78.3520  218.0610 C   0  0  0  0  0  0  0  0  0  0  0  0
  142.5830   79.6490  218.1830 N   0  0  0  0  0  0  0  0  0  0  0  0
  141.4750   79.9360  218.9050 C   0  0  0  0  0  0  0  0  0  0  0  0
  140.7660   78.9180  219.4860 C   0  0  0  0  0  0  0  0  0  0  0  0
  141.1530   77.6450  219.3500 N   0  0  0  0  0  0  0  0  0  0  0  0
  140.0780   76.8820  222.1520 C   0  0  0  0  0  0  0  0  0  0  0  0
  138.9880   77.5530  222.6650 C   0  0  0  0  0  0  0  0  0  0  0  0
  139.1890   78.8030  223.2130 C   0  0  0  0  0  0  0  0  0  0  0  0
  140.4610   79.3570  223.2350 C   0  0  0  0  0  0  0  0  0  0  0  0
  140.6840   80.6050  223.7760 C   0  0  0  0  0  0  0  0  0  0  0  0
  141.9630   81.1230  223.7810 C   0  0  0  0  0  0  0  0  0  0  0  0
  142.2340   82.3460  224.3020 F   0  0  0  0  0  0  0  0  0  0  0  0
  143.0480   80.4300  223.2570 C   0  0  0  0  0  0  0  0  0  0  0  0
  142.8120   79.1840  222.7200 C   0  0  0  0  0  0  0  0  0  0  0  0
  141.5220   78.6530  222.7110 C   0  0  0  0  0  0  0  0  0  0  0  0
  141.3270   77.4250  222.1730 N   0  0  0  0  0  0  0  0  0  0  0  0
  140.1790   76.2370  219.6030 H   0  0  0  0  0  0  0  0  0  0  0  0
  139.1449   73.4427  220.1237 H   0  0  0  0  0  0  0  0  0  0  0  0
  139.3197   74.2605  218.5188 H   0  0  0  0  0  0  0  0  0  0  0  0
  143.0455   73.4518  221.8753 H   0  0  0  0  0  0  0  0  0  0  0  0
  142.8027   72.0242  220.9567 H   0  0  0  0  0  0  0  0  0  0  0  0
  144.6872   72.8393  219.2308 H   0  0  0  0  0  0  0  0  0  0  0  0
  145.2600   71.9940  221.2530 H   0  0  0  0  0  0  0  0  0  0  0  0
  144.7372   75.3574  220.9238 H   0  0  0  0  0  0  0  0  0  0  0  0
  144.9488   75.2035  219.1625 H   0  0  0  0  0  0  0  0  0  0  0  0
  142.5292   75.9176  220.5709 H   0  0  0  0  0  0  0  0  0  0  0  0
  143.4896   75.7972  217.9052 H   0  0  0  0  0  0  0  0  0  0  0  0
  141.6953   75.4050  218.1596 H   0  0  0  0  0  0  0  0  0  0  0  0
  143.8506   78.1207  217.4718 H   0  0  0  0  0  0  0  0  0  0  0  0
  141.1462   80.9789  219.0244 H   0  0  0  0  0  0  0  0  0  0  0  0
  139.8653   79.1509  220.0729 H   0  0  0  0  0  0  0  0  0  0  0  0
  137.9845   77.1033  222.6380 H   0  0  0  0  0  0  0  0  0  0  0  0
  138.3395   79.3614  223.6332 H   0  0  0  0  0  0  0  0  0  0  0  0
  139.8497   81.1830  224.2001 H   0  0  0  0  0  0  0  0  0  0  0  0
  144.0597   80.8617  223.2708 H   0  0  0  0  0  0  0  0  0  0  0  0
  143.6451   78.6043  222.2959 H   0  0  0  0  0  0  0  0  0  0  0  0
  1  2  2  0
  2  3  1  0
  3  4  1  0
  4  5  1  0
  5  6  2  0
  5  7  1  0
  7  8  1  0
  8  9  1  0
  9 10  1  0
  9 11  1  0
 11 12  1  0
 12 13  1  0
 13 14  1  0
 14 15  2  0
 15 16  1  0
 16 17  2  0
 17 18  1  0
 18 19  2  0
  2 20  1  0
 20 21  2  0
 21 22  1  0
 22 23  2  0
 23 24  1  0
 24 25  2  0
 25 26  1  0
 25 27  1  0
 27 28  2  0
 28 29  1  0
 29 30  2  0
 12  7  1  0
 19 14  1  0
 30 20  1  0
 29 23  1  0
  3 31  1  0
  4 32  1  0
  4 33  1  0
  8 34  1  0
  8 35  1  0
  9 36  1  6
 10 37  1  0
 11 38  1  0
 11 39  1  0
 12 40  1  1
 13 41  1  0
 13 42  1  0
 15 43  1  0
 17 44  1  0
 18 45  1  0
 21 46  1  0
 22 47  1  0
 24 48  1  0
 27 49  1  0
 28 50  1  0
M  END
>  <smiles>  (45) 
O=C(NCC(=O)N1C[C@H](O)C[C@H]1Cc1cnccn1)c1ccc2cc(F)ccc2n1

>  <score_type>  (45) 
oracle

>  <origin>  (45) 
autodockgpu

>  <m_score__min__energy>  (45) 
-8.5199999999999996

>  <m_primary>  (45) 
energy

>  <rmsd>  (45) 
7.6419585118646385

>  <m_score__min__rmsd>  (45) 
7.6419585118646385

>  <meeko>  (45) 
{"free_energy": -6.27, "intermolecular_energy": -8.36, "internal_energy": -2.98, "cluster_size": 4, "cluster_id": 9, "rank_in_cluster": 2}

>  <energy>  (45) 
-6.92

>  <cluster_rmsd>  (45) 
0.94

>  <cluster>  (45) 
7

$$$$

     RDKit          3D

 50 53  0  0  0  0  0  0  0  0999 V2000
  139.3030   70.7260  221.0720 O   0  0  0  0  0  0  0  0  0  0  0  0
  139.4300   71.3460  222.1850 C   0  0  0  0  0  0  0  0  0  0  0  0
  139.4780   72.7660  222.2160 N   0  0  0  0  0  0  0  0  0  0  0  0
  139.3910   73.5990  221.0400 C   0  0  0  0  0  0  0  0  0  0  0  0
  140.2170   74.8380  221.1900 C   0  0  0  0  0  0  0  0  0  0  0  0
  140.2550   75.3320  222.3430 O   0  0  0  0  0  0  0  0  0  0  0  0
  140.8920   75.3750  220.0640 N   0  0  0  0  0  0  0  0  0  0  0  0
  140.9240   76.8160  219.7450 C   0  0  0  0  0  0  0  0  0  0  0  0
  142.4490   76.9440  219.5620 C   0  0  2  0  0  0  0  0  0  0  0  0
  142.6930   78.1520  218.9440 O   0  0  0  0  0  0  0  0  0  0  0  0
  142.6880   75.7410  218.6640 C   0  0  0  0  0  0  0  0  0  0  0  0
  141.6620   74.7010  219.0260 C   0  0  1  0  0  0  0  0  0  0  0  0
  142.2430   73.4110  219.4850 C   0  0  0  0  0  0  0  0  0  0  0  0
  143.6930   73.3640  219.6620 C   0  0  0  0  0  0  0  0  0  0  0  0
  144.6200   72.9550  218.7410 C   0  0  0  0  0  0  0  0  0  0  0  0
  145.9530   72.9320  218.9770 N   0  0  0  0  0  0  0  0  0  0  0  0
  146.3970   73.3380  220.1890 C   0  0  0  0  0  0  0  0  0  0  0  0
  145.4940   73.7550  221.1330 C   0  0  0  0  0  0  0  0  0  0  0  0
  144.1830   73.7660  220.8730 N   0  0  0  0  0  0  0  0  0  0  0  0
  139.5280   70.5730  223.4450 C   0  0  0  0  0  0  0  0  0  0  0  0
  139.0720   69.2720  223.4640 C   0  0  0  0  0  0  0  0  0  0  0  0
  139.1710   68.5610  224.6420 C   0  0  0  0  0  0  0  0  0  0  0  0
  139.7170   69.1580  225.7700 C   0  0  0  0  0  0  0  0  0  0  0  0
  139.8260   68.4670  226.9580 C   0  0  0  0  0  0  0  0  0  0  0  0
  140.3750   69.0920  228.0590 C   0  0  0  0  0  0  0  0  0  0  0  0
  140.5040   68.4560  229.2490 F   0  0  0  0  0  0  0  0  0  0  0  0
  140.8280   70.4060  228.0180 C   0  0  0  0  0  0  0  0  0  0  0  0
  140.7140   71.0850  226.8250 C   0  0  0  0  0  0  0  0  0  0  0  0
  140.1610   70.4600  225.7070 C   0  0  0  0  0  0  0  0  0  0  0  0
  140.0640   71.1590  224.5510 N   0  0  0  0  0  0  0  0  0  0  0  0
  139.5860   73.1910  223.1860 H   0  0  0  0  0  0  0  0  0  0  0  0
  139.7523   73.0304  220.1704 H   0  0  0  0  0  0  0  0  0  0  0  0
  138.3410   73.8960  220.9013 H   0  0  0  0  0  0  0  0  0  0  0  0
  140.3698   77.0542  218.8251 H   0  0  0  0  0  0  0  0  0  0  0  0
  140.4617   77.4900  220.4812 H   0  0  0  0  0  0  0  0  0  0  0  0
  143.0870   76.9423  220.4581 H   0  0  0  0  0  0  0  0  0  0  0  0
  143.2810   78.6650  219.5530 H   0  0  0  0  0  0  0  0  0  0  0  0
  142.5744   76.0305  217.6089 H   0  0  0  0  0  0  0  0  0  0  0  0
  143.7061   75.3481  218.8023 H   0  0  0  0  0  0  0  0  0  0  0  0
  141.0595   74.3841  218.1619 H   0  0  0  0  0  0  0  0  0  0  0  0
  141.7820   73.1648  220.4529 H   0  0  0  0  0  0  0  0  0  0  0  0
  142.0298   72.6968  218.6760 H   0  0  0  0  0  0  0  0  0  0  0  0
  144.2617   72.6268  217.7542 H   0  0  0  0  0  0  0  0  0  0  0  0
  147.4735   73.3336  220.4152 H   0  0  0  0  0  0  0  0  0  0  0  0
  145.8539   74.0853  222.1186 H   0  0  0  0  0  0  0  0  0  0  0  0
  138.6402   68.8126  222.5626 H   0  0  0  0  0  0  0  0  0  0  0  0
  138.8171   67.5205  224.6875 H   0  0  0  0  0  0  0  0  0  0  0  0
  139.4781   67.4258  227.0277 H   0  0  0  0  0  0  0  0  0  0  0  0
  141.2622   70.8864  228.9072 H   0  0  0  0  0  0  0  0  0  0  0  0
  141.0611   72.1263  226.7533 H   0  0  0  0  0  0  0  0  0  0  0  0
  1  2  2  0
  2  3  1  0
  3  4  1  0
  4  5  1  0
  5  6  2  0
  5  7  1  0
  7  8  1  0
  8  9  1  0
  9 10  1  0
  9 11  1  0
 11 12  1  0
 12 13  1  0
 13 14  1  0
 14 15  2  0
 15 16  1  0
 16 17  2  0
 17 18  1  0
 18 19  2  0
  2 20  1  0
 20 21  2  0
 21 22  1  0
 22 23  2  0
 23 24  1  0
 24 25  2  0
 25 26  1  0
 25 27  1  0
 27 28  2  0
 28 29  1  0
 29 30  2  0
 12  7  1  0
 19 14  1  0
 30 20  1  0
 29 23  1  0
  3 31  1  0
  4 32  1  0
  4 33  1  0
  8 34  1  0
  8 35  1  0
  9 36  1  1
 10 37  1  0
 11 38  1  0
 11 39  1  0
 12 40  1  6
 13 41  1  0
 13 42  1  0
 15 43  1  0
 17 44  1  0
 18 45  1  0
 21 46  1  0
 22 47  1  0
 24 48  1  0
 27 49  1  0
 28 50  1  0
M  END
>  <smiles>  (46) 
O=C(NCC(=O)N1C[C@H](O)C[C@H]1Cc1cnccn1)c1ccc2cc(F)ccc2n1

>  <score_type>  (46) 
oracle

>  <origin>  (46) 
autodockgpu

>  <m_score__min__energy>  (46) 
-8.5199999999999996

>  <m_primary>  (46) 
energy

>  <rmsd>  (46) 
1.918370653276663

>  <m_score__min__rmsd>  (46) 
1.918370653276663

>  <meeko>  (46) 
{"free_energy": -8.02, "intermolecular_energy": -10.11, "internal_energy": -1.91, "cluster_size": 11, "cluster_id": 3, "rank_in_cluster": 6}

>  <energy>  (46) 
-7.18

>  <cluster_rmsd>  (46) 
0.0

>  <cluster>  (46) 
8

$$$$

     RDKit          3D

 50 53  0  0  0  0  0  0  0  0999 V2000
  140.5430   71.5070  221.0290 O   0  0  0  0  0  0  0  0  0  0  0  0
  140.1560   72.0570  222.1180 C   0  0  0  0  0  0  0  0  0  0  0  0
  139.8680   73.4490  222.1580 N   0  0  0  0  0  0  0  0  0  0  0  0
  139.9830   74.3270  221.0180 C   0  0  0  0  0  0  0  0  0  0  0  0
  140.8290   75.5200  221.3350 C   0  0  0  0  0  0  0  0  0  0  0  0
  140.4940   76.1700  222.3550 O   0  0  0  0  0  0  0  0  0  0  0  0
  141.9260   75.8470  220.4970 N   0  0  0  0  0  0  0  0  0  0  0  0
  142.7380   74.8380  219.7880 C   0  0  0  0  0  0  0  0  0  0  0  0
  142.6650   75.4750  218.3860 C   0  0  2  0  0  0  0  0  0  0  0  0
  143.6250   74.8680  217.6060 O   0  0  0  0  0  0  0  0  0  0  0  0
  142.9990   76.9120  218.7550 C   0  0  0  0  0  0  0  0  0  0  0  0
  142.4810   77.1490  220.1480 C   0  0  1  0  0  0  0  0  0  0  0  0
  141.4820   78.2460  220.2450 C   0  0  0  0  0  0  0  0  0  0  0  0
  141.6590   79.2090  221.3300 C   0  0  0  0  0  0  0  0  0  0  0  0
  141.6640   80.5740  221.2230 C   0  0  0  0  0  0  0  0  0  0  0  0
  141.8390   81.4080  222.2740 N   0  0  0  0  0  0  0  0  0  0  0  0
  142.0180   80.8660  223.5010 C   0  0  0  0  0  0  0  0  0  0  0  0
  142.0180   79.5030  223.6420 C   0  0  0  0  0  0  0  0  0  0  0  0
  141.8430   78.7020  222.5860 N   0  0  0  0  0  0  0  0  0  0  0  0
  140.0100   71.2340  223.3400 C   0  0  0  0  0  0  0  0  0  0  0  0
  139.4570   69.9750  223.2330 C   0  0  0  0  0  0  0  0  0  0  0  0
  139.3290   69.2170  224.3780 C   0  0  0  0  0  0  0  0  0  0  0  0
  139.7500   69.7250  225.5990 C   0  0  0  0  0  0  0  0  0  0  0  0
  139.6310   68.9850  226.7570 C   0  0  0  0  0  0  0  0  0  0  0  0
  140.0620   69.5230  227.9520 C   0  0  0  0  0  0  0  0  0  0  0  0
  139.9660   68.8350  229.1170 F   0  0  0  0  0  0  0  0  0  0  0  0
  140.6150   70.7950  228.0390 C   0  0  0  0  0  0  0  0  0  0  0  0
  140.7290   71.5240  226.8750 C   0  0  0  0  0  0  0  0  0  0  0  0
  140.2970   70.9880  225.6620 C   0  0  0  0  0  0  0  0  0  0  0  0
  140.4230   71.7340  224.5390 N   0  0  0  0  0  0  0  0  0  0  0  0
  139.5540   73.8150  223.1070 H   0  0  0  0  0  0  0  0  0  0  0  0
  140.4408   73.7742  220.1844 H   0  0  0  0  0  0  0  0  0  0  0  0
  138.9763   74.6771  220.7459 H   0  0  0  0  0  0  0  0  0  0  0  0
  143.7678   74.7841  220.1709 H   0  0  0  0  0  0  0  0  0  0  0  0
  142.4004   73.7942  219.8688 H   0  0  0  0  0  0  0  0  0  0  0  0
  141.7281   75.3864  217.8164 H   0  0  0  0  0  0  0  0  0  0  0  0
  144.4850   75.3060  217.8260 H   0  0  0  0  0  0  0  0  0  0  0  0
  144.0881   77.0642  218.7275 H   0  0  0  0  0  0  0  0  0  0  0  0
  142.5383   77.6135  218.0439 H   0  0  0  0  0  0  0  0  0  0  0  0
  143.2660   77.4957  220.8361 H   0  0  0  0  0  0  0  0  0  0  0  0
  141.5090   78.8044  219.2977 H   0  0  0  0  0  0  0  0  0  0  0  0
  140.5267   77.7449  220.4601 H   0  0  0  0  0  0  0  0  0  0  0  0
  141.5176   81.0174  220.2270 H   0  0  0  0  0  0  0  0  0  0  0  0
  142.1623   81.5142  224.3779 H   0  0  0  0  0  0  0  0  0  0  0  0
  142.1642   79.0614  224.6388 H   0  0  0  0  0  0  0  0  0  0  0  0
  139.1264   69.5853  222.2589 H   0  0  0  0  0  0  0  0  0  0  0  0
  138.8927   68.2087  224.3235 H   0  0  0  0  0  0  0  0  0  0  0  0
  139.1963   67.9749  226.7279 H   0  0  0  0  0  0  0  0  0  0  0  0
  140.9499   71.2055  229.0030 H   0  0  0  0  0  0  0  0  0  0  0  0
  141.1632   72.5343  226.9028 H   0  0  0  0  0  0  0  0  0  0  0  0
  1  2  2  0
  2  3  1  0
  3  4  1  0
  4  5  1  0
  5  6  2  0
  5  7  1  0
  7  8  1  0
  8  9  1  0
  9 10  1  0
  9 11  1  0
 11 12  1  0
 12 13  1  0
 13 14  1  0
 14 15  2  0
 15 16  1  0
 16 17  2  0
 17 18  1  0
 18 19  2  0
  2 20  1  0
 20 21  2  0
 21 22  1  0
 22 23  2  0
 23 24  1  0
 24 25  2  0
 25 26  1  0
 25 27  1  0
 27 28  2  0
 28 29  1  0
 29 30  2  0
 12  7  1  0
 19 14  1  0
 30 20  1  0
 29 23  1  0
  3 31  1  0
  4 32  1  0
  4 33  1  0
  8 34  1  0
  8 35  1  0
  9 36  1  6
 10 37  1  0
 11 38  1  0
 11 39  1  0
 12 40  1  1
 13 41  1  0
 13 42  1  0
 15 43  1  0
 17 44  1  0
 18 45  1  0
 21 46  1  0
 22 47  1  0
 24 48  1  0
 27 49  1  0
 28 50  1  0
M  END
>  <smiles>  (47) 
O=C(NCC(=O)N1C[C@H](O)C[C@H]1Cc1cnccn1)c1ccc2cc(F)ccc2n1

>  <score_type>  (47) 
oracle

>  <origin>  (47) 
autodockgpu

>  <m_score__min__energy>  (47) 
-8.5199999999999996

>  <m_primary>  (47) 
energy

>  <rmsd>  (47) 
1.9054473982584574

>  <m_score__min__rmsd>  (47) 
1.9054473982584574

>  <meeko>  (47) 
{"free_energy": -8.41, "intermolecular_energy": -10.5, "internal_energy": -1.44, "cluster_size": 21, "cluster_id": 1, "rank_in_cluster": 5}

>  <energy>  (47) 
-6.28

>  <cluster_rmsd>  (47) 
0.0

>  <cluster>  (47) 
9

$$$$

     RDKit          3D

 50 53  0  0  0  0  0  0  0  0999 V2000
  138.1700   70.7350  221.7490 O   0  0  0  0  0  0  0  0  0  0  0  0
  138.7970   71.2530  222.7370 C   0  0  0  0  0  0  0  0  0  0  0  0
  139.1610   72.6270  222.7180 N   0  0  0  0  0  0  0  0  0  0  0  0
  138.8660   73.5220  221.6240 C   0  0  0  0  0  0  0  0  0  0  0  0
  139.6150   74.8100  221.7580 C   0  0  0  0  0  0  0  0  0  0  0  0
  140.8290   74.7050  222.0580 O   0  0  0  0  0  0  0  0  0  0  0  0
  138.9420   76.0410  221.5490 N   0  0  0  0  0  0  0  0  0  0  0  0
  137.5400   76.2800  221.9480 C   0  0  0  0  0  0  0  0  0  0  0  0
  137.7750   77.5980  222.7140 C   0  0  2  0  0  0  0  0  0  0  0  0
  136.5440   78.1840  222.9160 O   0  0  0  0  0  0  0  0  0  0  0  0
  138.6360   78.3230  221.6910 C   0  0  0  0  0  0  0  0  0  0  0  0
  139.4200   77.2780  220.9440 C   0  0  1  0  0  0  0  0  0  0  0  0
  140.8940   77.4370  221.0470 C   0  0  0  0  0  0  0  0  0  0  0  0
  141.3850   78.4690  221.9590 C   0  0  0  0  0  0  0  0  0  0  0  0
  141.8790   79.6990  221.6170 C   0  0  0  0  0  0  0  0  0  0  0  0
  142.3240   80.6060  222.5180 N   0  0  0  0  0  0  0  0  0  0  0  0
  142.2770   80.2820  223.8310 C   0  0  0  0  0  0  0  0  0  0  0  0
  141.7870   79.0590  224.2070 C   0  0  0  0  0  0  0  0  0  0  0  0
  141.3550   78.1820  223.2950 N   0  0  0  0  0  0  0  0  0  0  0  0
  139.1440   70.4110  223.9050 C   0  0  0  0  0  0  0  0  0  0  0  0
  138.8390   69.0670  223.8690 C   0  0  0  0  0  0  0  0  0  0  0  0
  139.1700   68.2920  224.9620 C   0  0  0  0  0  0  0  0  0  0  0  0
  139.7920   68.8680  226.0600 C   0  0  0  0  0  0  0  0  0  0  0  0
  140.1310   68.1130  227.1630 C   0  0  0  0  0  0  0  0  0  0  0  0
  140.7490   68.7210  228.2370 C   0  0  0  0  0  0  0  0  0  0  0  0
  141.1020   68.0220  229.3440 F   0  0  0  0  0  0  0  0  0  0  0  0
  141.0470   70.0780  228.2520 C   0  0  0  0  0  0  0  0  0  0  0  0
  140.7030   70.8220  227.1440 C   0  0  0  0  0  0  0  0  0  0  0  0
  140.0790   70.2150  226.0550 C   0  0  0  0  0  0  0  0  0  0  0  0
  139.7540   70.9770  224.9830 N   0  0  0  0  0  0  0  0  0  0  0  0
  139.6790   72.9670  223.5830 H   0  0  0  0  0  0  0  0  0  0  0  0
  139.1516   73.0382  220.6783 H   0  0  0  0  0  0  0  0  0  0  0  0
  137.7887   73.7439  221.6379 H   0  0  0  0  0  0  0  0  0  0  0  0
  136.8741   76.4110  221.0823 H   0  0  0  0  0  0  0  0  0  0  0  0
  137.0458   75.4713  222.5063 H   0  0  0  0  0  0  0  0  0  0  0  0
  138.2415   77.5519  223.7091 H   0  0  0  0  0  0  0  0  0  0  0  0
  136.3020   78.6270  222.0650 H   0  0  0  0  0  0  0  0  0  0  0  0
  137.9982   78.8853  220.9931 H   0  0  0  0  0  0  0  0  0  0  0  0
  139.3114   79.0362  222.1862 H   0  0  0  0  0  0  0  0  0  0  0  0
  139.2615   77.3304  219.8567 H   0  0  0  0  0  0  0  0  0  0  0  0
  141.3098   76.4744  221.3793 H   0  0  0  0  0  0  0  0  0  0  0  0
  141.2186   77.7596  220.0467 H   0  0  0  0  0  0  0  0  0  0  0  0
  141.9164   79.9653  220.5504 H   0  0  0  0  0  0  0  0  0  0  0  0
  142.6295   80.9951  224.5907 H   0  0  0  0  0  0  0  0  0  0  0  0
  141.7485   78.7950  225.2741 H   0  0  0  0  0  0  0  0  0  0  0  0
  138.3447   68.6238  222.9919 H   0  0  0  0  0  0  0  0  0  0  0  0
  138.9403   67.2163  224.9625 H   0  0  0  0  0  0  0  0  0  0  0  0
  139.9108   67.0355  227.1867 H   0  0  0  0  0  0  0  0  0  0  0  0
  141.5405   70.5426  229.1184 H   0  0  0  0  0  0  0  0  0  0  0  0
  140.9218   71.8997  227.1188 H   0  0  0  0  0  0  0  0  0  0  0  0
  1  2  2  0
  2  3  1  0
  3  4  1  0
  4  5  1  0
  5  6  2  0
  5  7  1  0
  7  8  1  0
  8  9  1  0
  9 10  1  0
  9 11  1  0
 11 12  1  0
 12 13  1  0
 13 14  1  0
 14 15  2  0
 15 16  1  0
 16 17  2  0
 17 18  1  0
 18 19  2  0
  2 20  1  0
 20 21  2  0
 21 22  1  0
 22 23  2  0
 23 24  1  0
 24 25  2  0
 25 26  1  0
 25 27  1  0
 27 28  2  0
 28 29  1  0
 29 30  2  0
 12  7  1  0
 19 14  1  0
 30 20  1  0
 29 23  1  0
  3 31  1  0
  4 32  1  0
  4 33  1  0
  8 34  1  0
  8 35  1  0
  9 36  1  1
 10 37  1  0
 11 38  1  0
 11 39  1  0
 12 40  1  6
 13 41  1  0
 13 42  1  0
 15 43  1  0
 17 44  1  0
 18 45  1  0
 21 46  1  0
 22 47  1  0
 24 48  1  0
 27 49  1  0
 28 50  1  0
M  END
>  <smiles>  (48) 
O=C(NCC(=O)N1C[C@H](O)C[C@H]1Cc1cnccn1)c1ccc2cc(F)ccc2n1

>  <score_type>  (48) 
oracle

>  <origin>  (48) 
autodockgpu

>  <m_score__min__energy>  (48) 
-8.5199999999999996

>  <m_primary>  (48) 
energy

>  <rmsd>  (48) 
2.4914452444841464

>  <m_score__min__rmsd>  (48) 
2.4914452444841464

>  <meeko>  (48) 
{"free_energy": -7.79, "intermolecular_energy": -9.87, "internal_energy": -1.69, "cluster_size": 5, "cluster_id": 5, "rank_in_cluster": 2}

>  <energy>  (48) 
-6.27

>  <cluster_rmsd>  (48) 
0.38

>  <cluster>  (48) 
9

$$$$

     RDKit          3D

 50 53  0  0  0  0  0  0  0  0999 V2000
  139.9520   71.4470  221.0710 O   0  0  0  0  0  0  0  0  0  0  0  0
  139.7450   71.9710  222.2210 C   0  0  0  0  0  0  0  0  0  0  0  0
  139.4770   73.3620  222.3420 N   0  0  0  0  0  0  0  0  0  0  0  0
  139.4160   74.2690  221.2210 C   0  0  0  0  0  0  0  0  0  0  0  0
  140.6050   75.1760  221.1920 C   0  0  0  0  0  0  0  0  0  0  0  0
  141.0580   75.5180  222.3120 O   0  0  0  0  0  0  0  0  0  0  0  0
  141.1430   75.5920  219.9470 N   0  0  0  0  0  0  0  0  0  0  0  0
  141.2420   77.0060  219.5340 C   0  0  0  0  0  0  0  0  0  0  0  0
  142.7280   76.9900  219.1240 C   0  0  2  0  0  0  0  0  0  0  0  0
  142.9700   78.1380  218.4010 O   0  0  0  0  0  0  0  0  0  0  0  0
  142.7320   75.7250  218.2800 C   0  0  0  0  0  0  0  0  0  0  0  0
  141.6930   74.8000  218.8540 C   0  0  1  0  0  0  0  0  0  0  0  0
  142.2310   73.4900  219.3050 C   0  0  0  0  0  0  0  0  0  0  0  0
  143.6660   73.4220  219.5780 C   0  0  0  0  0  0  0  0  0  0  0  0
  144.6460   73.0020  218.7180 C   0  0  0  0  0  0  0  0  0  0  0  0
  145.9600   72.9610  219.0400 N   0  0  0  0  0  0  0  0  0  0  0  0
  146.3290   73.3580  220.2800 C   0  0  0  0  0  0  0  0  0  0  0  0
  145.3720   73.7840  221.1640 C   0  0  0  0  0  0  0  0  0  0  0  0
  144.0810   73.8140  220.8190 N   0  0  0  0  0  0  0  0  0  0  0  0
  139.7890   71.1160  223.4310 C   0  0  0  0  0  0  0  0  0  0  0  0
  139.2890   69.8330  223.3570 C   0  0  0  0  0  0  0  0  0  0  0  0
  139.3380   69.0460  224.4890 C   0  0  0  0  0  0  0  0  0  0  0  0
  139.8780   69.5500  225.6630 C   0  0  0  0  0  0  0  0  0  0  0  0
  139.9360   68.7820  226.8070 C   0  0  0  0  0  0  0  0  0  0  0  0
  140.4810   69.3170  227.9560 C   0  0  0  0  0  0  0  0  0  0  0  0
  140.5610   68.6020  229.1050 F   0  0  0  0  0  0  0  0  0  0  0  0
  140.9790   70.6130  228.0090 C   0  0  0  0  0  0  0  0  0  0  0  0
  140.9150   71.3710  226.8600 C   0  0  0  0  0  0  0  0  0  0  0  0
  140.3660   70.8380  225.6940 C   0  0  0  0  0  0  0  0  0  0  0  0
  140.3190   71.6120  224.5830 N   0  0  0  0  0  0  0  0  0  0  0  0
  139.3190   73.7030  223.3370 H   0  0  0  0  0  0  0  0  0  0  0  0
  139.3873   73.6856  220.2889 H   0  0  0  0  0  0  0  0  0  0  0  0
  138.5106   74.8856  221.3215 H   0  0  0  0  0  0  0  0  0  0  0  0
  140.5771   77.2438  218.6906 H   0  0  0  0  0  0  0  0  0  0  0  0
  140.9505   77.7555  220.2845 H   0  0  0  0  0  0  0  0  0  0  0  0
  143.4921   76.9788  219.9153 H   0  0  0  0  0  0  0  0  0  0  0  0
  143.7090   78.6090  218.8620 H   0  0  0  0  0  0  0  0  0  0  0  0
  142.4839   75.9682  217.2363 H   0  0  0  0  0  0  0  0  0  0  0  0
  143.7247   75.2514  218.2934 H   0  0  0  0  0  0  0  0  0  0  0  0
  140.9443   74.4932  218.1088 H   0  0  0  0  0  0  0  0  0  0  0  0
  141.7034   73.2150  220.2302 H   0  0  0  0  0  0  0  0  0  0  0  0
  142.0677   72.8066  218.4586 H   0  0  0  0  0  0  0  0  0  0  0  0
  144.3484   72.6800  217.7092 H   0  0  0  0  0  0  0  0  0  0  0  0
  147.3882   73.3390  220.5761 H   0  0  0  0  0  0  0  0  0  0  0  0
  145.6709   74.1060  222.1725 H   0  0  0  0  0  0  0  0  0  0  0  0
  138.8621   69.4470  222.4196 H   0  0  0  0  0  0  0  0  0  0  0  0
  138.9484   68.0177  224.4605 H   0  0  0  0  0  0  0  0  0  0  0  0
  139.5510   67.7516  226.8034 H   0  0  0  0  0  0  0  0  0  0  0  0
  141.4094   71.0198  228.9360 H   0  0  0  0  0  0  0  0  0  0  0  0
  141.2989   72.4018  226.8625 H   0  0  0  0  0  0  0  0  0  0  0  0
  1  2  2  0
  2  3  1  0
  3  4  1  0
  4  5  1  0
  5  6  2  0
  5  7  1  0
  7  8  1  0
  8  9  1  0
  9 10  1  0
  9 11  1  0
 11 12  1  0
 12 13  1  0
 13 14  1  0
 14 15  2  0
 15 16  1  0
 16 17  2  0
 17 18  1  0
 18 19  2  0
  2 20  1  0
 20 21  2  0
 21 22  1  0
 22 23  2  0
 23 24  1  0
 24 25  2  0
 25 26  1  0
 25 27  1  0
 27 28  2  0
 28 29  1  0
 29 30  2  0
 12  7  1  0
 19 14  1  0
 30 20  1  0
 29 23  1  0
  3 31  1  0
  4 32  1  0
  4 33  1  0
  8 34  1  0
  8 35  1  0
  9 36  1  1
 10 37  1  0
 11 38  1  0
 11 39  1  0
 12 40  1  6
 13 41  1  0
 13 42  1  0
 15 43  1  0
 17 44  1  0
 18 45  1  0
 21 46  1  0
 22 47  1  0
 24 48  1  0
 27 49  1  0
 28 50  1  0
M  END
>  <smiles>  (49) 
O=C(NCC(=O)N1C[C@H](O)C[C@H]1Cc1cnccn1)c1ccc2cc(F)ccc2n1

>  <score_type>  (49) 
oracle

>  <origin>  (49) 
autodockgpu

>  <m_score__min__energy>  (49) 
-8.5199999999999996

>  <m_primary>  (49) 
energy

>  <rmsd>  (49) 
2.0077805549165366

>  <m_score__min__rmsd>  (49) 
2.0077805549165366

>  <meeko>  (49) 
{"free_energy": -8.2, "intermolecular_energy": -10.29, "internal_energy": -1.76, "cluster_size": 11, "cluster_id": 3, "rank_in_cluster": 1}

>  <energy>  (49) 
-5.89

>  <cluster_rmsd>  (49) 
1.2

>  <cluster>  (49) 
9

$$$$

     RDKit          3D

 50 53  0  0  0  0  0  0  0  0999 V2000
  134.9550   68.5330  224.9710 O   0  0  0  0  0  0  0  0  0  0  0  0
  135.4500   69.7110  225.0410 C   0  0  0  0  0  0  0  0  0  0  0  0
  136.7630   69.9710  224.5630 N   0  0  0  0  0  0  0  0  0  0  0  0
  137.6180   68.9670  223.9780 C   0  0  0  0  0  0  0  0  0  0  0  0
  138.8010   68.6850  224.8500 C   0  0  0  0  0  0  0  0  0  0  0  0
  139.2200   67.5030  224.8350 O   0  0  0  0  0  0  0  0  0  0  0  0
  139.3680   69.7300  225.6250 N   0  0  0  0  0  0  0  0  0  0  0  0
  139.5950   69.6320  227.0800 C   0  0  0  0  0  0  0  0  0  0  0  0
  141.0710   70.0780  227.0800 C   0  0  2  0  0  0  0  0  0  0  0  0
  141.4160   70.3690  228.3830 O   0  0  0  0  0  0  0  0  0  0  0  0
  140.9530   71.3060  226.1920 C   0  0  0  0  0  0  0  0  0  0  0  0
  139.8350   71.0490  225.2170 C   0  0  1  0  0  0  0  0  0  0  0  0
  140.2520   71.0970  223.7910 C   0  0  0  0  0  0  0  0  0  0  0  0
  139.5780   72.0750  222.9380 C   0  0  0  0  0  0  0  0  0  0  0  0
  138.2510   72.0940  222.6000 C   0  0  0  0  0  0  0  0  0  0  0  0
  137.6950   73.0310  221.7980 N   0  0  0  0  0  0  0  0  0  0  0  0
  138.4920   74.0060  221.3010 C   0  0  0  0  0  0  0  0  0  0  0  0
  139.8240   74.0160  221.6210 C   0  0  0  0  0  0  0  0  0  0  0  0
  140.3480   73.0770  222.4160 N   0  0  0  0  0  0  0  0  0  0  0  0
  134.6440   70.8070  225.6280 C   0  0  0  0  0  0  0  0  0  0  0  0
  133.5960   70.4880  226.4650 C   0  0  0  0  0  0  0  0  0  0  0  0
  132.8550   71.5170  227.0080 C   0  0  0  0  0  0  0  0  0  0  0  0
  133.1700   72.8350  226.7060 C   0  0  0  0  0  0  0  0  0  0  0  0
  132.4430   73.8800  227.2360 C   0  0  0  0  0  0  0  0  0  0  0  0
  132.7870   75.1770  226.9150 C   0  0  0  0  0  0  0  0  0  0  0  0
  132.1030   76.2380  227.4110 F   0  0  0  0  0  0  0  0  0  0  0  0
  133.8470   75.4770  226.0680 C   0  0  0  0  0  0  0  0  0  0  0  0
  134.5660   74.4240  225.5450 C   0  0  0  0  0  0  0  0  0  0  0  0
  134.2260   73.1100  225.8650 C   0  0  0  0  0  0  0  0  0  0  0  0
  134.9540   72.1000  225.3320 N   0  0  0  0  0  0  0  0  0  0  0  0
  137.0860   70.9800  224.6640 H   0  0  0  0  0  0  0  0  0  0  0  0
  137.0420   68.0394  223.8445 H   0  0  0  0  0  0  0  0  0  0  0  0
  137.9818   69.3420  223.0100 H   0  0  0  0  0  0  0  0  0  0  0  0
  138.9504   70.3156  227.6520 H   0  0  0  0  0  0  0  0  0  0  0  0
  139.3784   68.6585  227.5442 H   0  0  0  0  0  0  0  0  0  0  0  0
  141.8344   69.3681  226.7291 H   0  0  0  0  0  0  0  0  0  0  0  0
  140.7930   71.0760  228.6860 H   0  0  0  0  0  0  0  0  0  0  0  0
  140.7233   72.1914  226.8029 H   0  0  0  0  0  0  0  0  0  0  0  0
  141.8974   71.4937  225.6602 H   0  0  0  0  0  0  0  0  0  0  0  0
  139.0572   71.8260  225.2521 H   0  0  0  0  0  0  0  0  0  0  0  0
  141.3287   71.3208  223.7668 H   0  0  0  0  0  0  0  0  0  0  0  0
  139.9748   70.1161  223.3776 H   0  0  0  0  0  0  0  0  0  0  0  0
  137.6010   71.3034  223.0031 H   0  0  0  0  0  0  0  0  0  0  0  0
  138.0734   74.7839  220.6455 H   0  0  0  0  0  0  0  0  0  0  0  0
  140.4721   74.8082  221.2180 H   0  0  0  0  0  0  0  0  0  0  0  0
  133.3567   69.4391  226.6941 H   0  0  0  0  0  0  0  0  0  0  0  0
  132.0140   71.2932  227.6807 H   0  0  0  0  0  0  0  0  0  0  0  0
  131.5959   73.6812  227.9090 H   0  0  0  0  0  0  0  0  0  0  0  0
  134.1032   76.5184  225.8235 H   0  0  0  0  0  0  0  0  0  0  0  0
  135.4129   74.6212  224.8713 H   0  0  0  0  0  0  0  0  0  0  0  0
  1  2  2  0
  2  3  1  0
  3  4  1  0
  4  5  1  0
  5  6  2  0
  5  7  1  0
  7  8  1  0
  8  9  1  0
  9 10  1  0
  9 11  1  0
 11 12  1  0
 12 13  1  0
 13 14  1  0
 14 15  2  0
 15 16  1  0
 16 17  2  0
 17 18  1  0
 18 19  2  0
  2 20  1  0
 20 21  2  0
 21 22  1  0
 22 23  2  0
 23 24  1  0
 24 25  2  0
 25 26  1  0
 25 27  1  0
 27 28  2  0
 28 29  1  0
 29 30  2  0
 12  7  1  0
 19 14  1  0
 30 20  1  0
 29 23  1  0
  3 31  1  0
  4 32  1  0
  4 33  1  0
  8 34  1  0
  8 35  1  0
  9 36  1  6
 10 37  1  0
 11 38  1  0
 11 39  1  0
 12 40  1  6
 13 41  1  0
 13 42  1  0
 15 43  1  0
 17 44  1  0
 18 45  1  0
 21 46  1  0
 22 47  1  0
 24 48  1  0
 27 49  1  0
 28 50  1  0
M  END
>  <smiles>  (50) 
O=C(NCC(=O)N1C[C@H](O)C[C@H]1Cc1cnccn1)c1ccc2cc(F)ccc2n1

>  <score_type>  (50) 
oracle

>  <origin>  (50) 
autodockgpu

>  <m_score__min__energy>  (50) 
-8.5199999999999996

>  <m_primary>  (50) 
energy

>  <rmsd>  (50) 
8.168501296996316

>  <m_score__min__rmsd>  (50) 
8.168501296996316

>  <meeko>  (50) 
{"free_energy": -7.18, "intermolecular_energy": -9.27, "internal_energy": -1.75, "cluster_size": 1, "cluster_id": 8, "rank_in_cluster": 1}

>  <energy>  (50) 
-5.37

>  <cluster_rmsd>  (50) 
1.0

>  <cluster>  (50) 
9

$$$$
