
     RDKit          3D

 51 54  0  0  0  0  0  0  0  0999 V2000
  139.7830   71.1570  221.0590 O   0  0  0  0  0  0  0  0  0  0  0  0
  140.2810   71.7010  222.0680 C   0  0  0  0  0  0  0  0  0  0  0  0
  141.0320   72.9010  221.9420 N   0  0  0  0  0  0  0  0  0  0  0  0
  141.2880   73.6090  220.7440 C   0  0  0  0  0  0  0  0  0  0  0  0
  141.5410   75.0460  220.7820 C   0  0  0  0  0  0  0  0  0  0  0  0
  141.3230   75.5830  221.9530 O   0  0  0  0  0  0  0  0  0  0  0  0
  141.9650   75.9330  219.7960 N   0  0  0  0  0  0  0  0  0  0  0  0
  141.1840   77.0460  219.2470 C   0  0  0  0  0  0  0  0  0  0  0  0
  142.1610   78.1250  218.7390 C   0  0  0  0  0  0  0  0  0  0  0  0
  142.9560   77.5930  217.5710 C   0  0  0  0  0  0  0  0  0  0  0  0
  143.1440   76.0780  217.7190 C   0  0  0  0  0  0  0  0  0  0  0  0
  143.3170   75.8380  219.2210 C   0  0  2  0  0  0  0  0  0  0  0  0
  144.0060   74.5660  219.4920 C   0  0  0  0  0  0  0  0  0  0  0  0
  144.9060   74.6040  220.5840 C   0  0  0  0  0  0  0  0  0  0  0  0
  145.6000   73.4350  220.8650 C   0  0  0  0  0  0  0  0  0  0  0  0
  145.4350   72.2910  220.1300 C   0  0  0  0  0  0  0  0  0  0  0  0
  144.5470   72.2300  219.0400 C   0  0  0  0  0  0  0  0  0  0  0  0
  143.8700   73.4090  218.7880 C   0  0  0  0  0  0  0  0  0  0  0  0
  140.0860   71.0940  223.3880 C   0  0  0  0  0  0  0  0  0  0  0  0
  139.2970   69.9820  223.5720 C   0  0  0  0  0  0  0  0  0  0  0  0
  139.1300   69.4280  224.8250 C   0  0  0  0  0  0  0  0  0  0  0  0
  139.7750   70.0140  225.9170 C   0  0  0  0  0  0  0  0  0  0  0  0
  139.6460   69.5020  227.1920 C   0  0  0  0  0  0  0  0  0  0  0  0
  140.3080   70.1190  228.2330 C   0  0  0  0  0  0  0  0  0  0  0  0
  141.0950   71.2300  228.0470 C   0  0  0  0  0  0  0  0  0  0  0  0
  141.7390   71.8240  229.1050 F   0  0  0  0  0  0  0  0  0  0  0  0
  141.2370   71.7610  226.7620 C   0  0  0  0  0  0  0  0  0  0  0  0
  140.5750   71.1430  225.7220 C   0  0  0  0  0  0  0  0  0  0  0  0
  140.6870   71.6210  224.4730 N   0  0  0  0  0  0  0  0  0  0  0  0
  141.4280   73.2840  222.8540 H   0  0  0  0  0  0  0  0  0  0  0  0
  142.1720   73.1436  220.2836 H   0  0  0  0  0  0  0  0  0  0  0  0
  140.3347   73.5359  220.2001 H   0  0  0  0  0  0  0  0  0  0  0  0
  140.5615   76.6872  218.4141 H   0  0  0  0  0  0  0  0  0  0  0  0
  140.5289   77.4664  220.0242 H   0  0  0  0  0  0  0  0  0  0  0  0
  141.5918   79.0103  218.4192 H   0  0  0  0  0  0  0  0  0  0  0  0
  142.8510   78.3984  219.5509 H   0  0  0  0  0  0  0  0  0  0  0  0
  142.4173   77.8047  216.6356 H   0  0  0  0  0  0  0  0  0  0  0  0
  143.9414   78.0814  217.5492 H   0  0  0  0  0  0  0  0  0  0  0  0
  142.2608   75.5414  217.3421 H   0  0  0  0  0  0  0  0  0  0  0  0
  144.0073   75.7134  217.1430 H   0  0  0  0  0  0  0  0  0  0  0  0
  143.9716   76.5853  219.6934 H   0  0  0  0  0  0  0  0  0  0  0  0
  145.0487   75.5165  221.1815 H   0  0  0  0  0  0  0  0  0  0  0  0
  146.3072   73.4271  221.7075 H   0  0  0  0  0  0  0  0  0  0  0  0
  146.0129   71.3946  220.3994 H   0  0  0  0  0  0  0  0  0  0  0  0
  144.4034   71.3202  218.4386 H   0  0  0  0  0  0  0  0  0  0  0  0
  143.1611   73.4122  217.9469 H   0  0  0  0  0  0  0  0  0  0  0  0
  138.7915   69.5275  222.7072 H   0  0  0  0  0  0  0  0  0  0  0  0
  138.4982   68.5380  224.9619 H   0  0  0  0  0  0  0  0  0  0  0  0
  139.0236   68.6138  227.3757 H   0  0  0  0  0  0  0  0  0  0  0  0
  140.2022   69.7073  229.2476 H   0  0  0  0  0  0  0  0  0  0  0  0
  141.8610   72.6494  226.5847 H   0  0  0  0  0  0  0  0  0  0  0  0
  1  2  2  0
  2  3  1  0
  3  4  1  0
  4  5  1  0
  5  6  2  0
  5  7  1  0
  7  8  1  0
  8  9  1  0
  9 10  1  0
 10 11  1  0
 11 12  1  0
 12 13  1  0
 13 14  2  0
 14 15  1  0
 15 16  2  0
 16 17  1  0
 17 18  2  0
  2 19  1  0
 19 20  2  0
 20 21  1  0
 21 22  2  0
 22 23  1  0
 23 24  2  0
 24 25  1  0
 25 26  1  0
 25 27  2  0
 27 28  1  0
 28 29  2  0
 12  7  1  0
 18 13  1  0
 29 19  1  0
 28 22  1  0
  3 30  1  0
  4 31  1  0
  4 32  1  0
  8 33  1  0
  8 34  1  0
  9 35  1  0
  9 36  1  0
 10 37  1  0
 10 38  1  0
 11 39  1  0
 11 40  1  0
 12 41  1  1
 14 42  1  0
 15 43  1  0
 16 44  1  0
 17 45  1  0
 18 46  1  0
 20 47  1  0
 21 48  1  0
 23 49  1  0
 24 50  1  0
 27 51  1  0
M  END
>  <smiles>  (1) 
O=C(NCC(=O)N1CCCCC1c1ccccc1)c1ccc2ccc(F)cc2n1

>  <score_type>  (1) 
oracle

>  <origin>  (1) 
autodockgpu

>  <m_score__min__energy>  (1) 
-8.3300000000000001

>  <m_primary>  (1) 
energy

>  <rmsd>  (1) 
2.3564224214743374

>  <m_score__min__rmsd>  (1) 
2.3564224214743374

>  <meeko>  (1) 
{"free_energy": -7.92, "intermolecular_energy": -9.41, "internal_energy": -1.99, "cluster_size": 34, "cluster_id": 1, "rank_in_cluster": 19}

>  <energy>  (1) 
-8.33

>  <cluster_rmsd>  (1) 
0.0

>  <cluster>  (1) 
1

$$$$

     RDKit          3D

 51 54  0  0  0  0  0  0  0  0999 V2000
  140.2680   71.5950  221.0020 O   0  0  0  0  0  0  0  0  0  0  0  0
  140.0740   72.1860  222.0860 C   0  0  0  0  0  0  0  0  0  0  0  0
  139.9560   73.6020  222.1230 N   0  0  0  0  0  0  0  0  0  0  0  0
  140.0210   74.4780  221.0140 C   0  0  0  0  0  0  0  0  0  0  0  0
  140.9380   75.6140  221.0310 C   0  0  0  0  0  0  0  0  0  0  0  0
  141.2530   76.0120  222.2350 O   0  0  0  0  0  0  0  0  0  0  0  0
  141.5240   76.3410  219.9980 N   0  0  0  0  0  0  0  0  0  0  0  0
  140.9560   77.5290  219.3530 C   0  0  0  0  0  0  0  0  0  0  0  0
  142.1120   78.3840  218.7980 C   0  0  0  0  0  0  0  0  0  0  0  0
  142.8200   77.6390  217.6910 C   0  0  0  0  0  0  0  0  0  0  0  0
  142.7410   76.1290  217.9490 C   0  0  0  0  0  0  0  0  0  0  0  0
  142.8470   75.9730  219.4680 C   0  0  2  0  0  0  0  0  0  0  0  0
  143.3010   74.6250  219.8450 C   0  0  0  0  0  0  0  0  0  0  0  0
  144.5510   74.5870  220.5070 C   0  0  0  0  0  0  0  0  0  0  0  0
  145.0350   73.3360  220.8610 C   0  0  0  0  0  0  0  0  0  0  0  0
  144.3490   72.1810  220.5880 C   0  0  0  0  0  0  0  0  0  0  0  0
  143.1060   72.1940  219.9300 C   0  0  0  0  0  0  0  0  0  0  0  0
  142.6510   73.4560  219.5930 C   0  0  0  0  0  0  0  0  0  0  0  0
  139.9650   71.4080  223.3240 C   0  0  0  0  0  0  0  0  0  0  0  0
  139.3080   70.2010  223.3740 C   0  0  0  0  0  0  0  0  0  0  0  0
  139.2190   69.4880  224.5520 C   0  0  0  0  0  0  0  0  0  0  0  0
  139.8100   70.0090  225.7060 C   0  0  0  0  0  0  0  0  0  0  0  0
  139.7550   69.3390  226.9110 C   0  0  0  0  0  0  0  0  0  0  0  0
  140.3580   69.8980  228.0190 C   0  0  0  0  0  0  0  0  0  0  0  0
  141.0140   71.1050  227.9660 C   0  0  0  0  0  0  0  0  0  0  0  0
  141.6020   71.6380  229.0870 F   0  0  0  0  0  0  0  0  0  0  0  0
  141.0790   71.7970  226.7530 C   0  0  0  0  0  0  0  0  0  0  0  0
  140.4760   71.2360  225.6470 C   0  0  0  0  0  0  0  0  0  0  0  0
  140.5170   71.8680  224.4640 N   0  0  0  0  0  0  0  0  0  0  0  0
  139.8040   74.0170  223.0920 H   0  0  0  0  0  0  0  0  0  0  0  0
  140.2914   73.8653  220.1414 H   0  0  0  0  0  0  0  0  0  0  0  0
  139.0297   74.9547  221.0113 H   0  0  0  0  0  0  0  0  0  0  0  0
  140.2926   77.2232  218.5306 H   0  0  0  0  0  0  0  0  0  0  0  0
  140.3729   78.1111  220.0818 H   0  0  0  0  0  0  0  0  0  0  0  0
  141.7095   79.3281  218.4023 H   0  0  0  0  0  0  0  0  0  0  0  0
  142.8271   78.5935  219.6072 H   0  0  0  0  0  0  0  0  0  0  0  0
  142.3395   77.8709  216.7291 H   0  0  0  0  0  0  0  0  0  0  0  0
  143.8753   77.9481  217.6617 H   0  0  0  0  0  0  0  0  0  0  0  0
  141.7842   75.7256  217.5860 H   0  0  0  0  0  0  0  0  0  0  0  0
  143.5371   75.5809  217.4238 H   0  0  0  0  0  0  0  0  0  0  0  0
  143.6140   76.6291  219.9054 H   0  0  0  0  0  0  0  0  0  0  0  0
  145.1125   75.5061  220.7304 H   0  0  0  0  0  0  0  0  0  0  0  0
  146.0031   73.2685  221.3789 H   0  0  0  0  0  0  0  0  0  0  0  0
  144.7828   71.2170  220.8921 H   0  0  0  0  0  0  0  0  0  0  0  0
  142.5427   71.2770  219.7023 H   0  0  0  0  0  0  0  0  0  0  0  0
  141.6814   73.5203  219.0775 H   0  0  0  0  0  0  0  0  0  0  0  0
  138.8462   69.7976  222.4607 H   0  0  0  0  0  0  0  0  0  0  0  0
  138.6906   68.5237  224.5822 H   0  0  0  0  0  0  0  0  0  0  0  0
  139.2371   68.3716  226.9873 H   0  0  0  0  0  0  0  0  0  0  0  0
  140.3123   69.3597  228.9772 H   0  0  0  0  0  0  0  0  0  0  0  0
  141.5979   72.7643  226.6826 H   0  0  0  0  0  0  0  0  0  0  0  0
  1  2  2  0
  2  3  1  0
  3  4  1  0
  4  5  1  0
  5  6  2  0
  5  7  1  0
  7  8  1  0
  8  9  1  0
  9 10  1  0
 10 11  1  0
 11 12  1  0
 12 13  1  0
 13 14  2  0
 14 15  1  0
 15 16  2  0
 16 17  1  0
 17 18  2  0
  2 19  1  0
 19 20  2  0
 20 21  1  0
 21 22  2  0
 22 23  1  0
 23 24  2  0
 24 25  1  0
 25 26  1  0
 25 27  2  0
 27 28  1  0
 28 29  2  0
 12  7  1  0
 18 13  1  0
 29 19  1  0
 28 22  1  0
  3 30  1  0
  4 31  1  0
  4 32  1  0
  8 33  1  0
  8 34  1  0
  9 35  1  0
  9 36  1  0
 10 37  1  0
 10 38  1  0
 11 39  1  0
 11 40  1  0
 12 41  1  1
 14 42  1  0
 15 43  1  0
 16 44  1  0
 17 45  1  0
 18 46  1  0
 20 47  1  0
 21 48  1  0
 23 49  1  0
 24 50  1  0
 27 51  1  0
M  END
>  <smiles>  (2) 
O=C(NCC(=O)N1CCCCC1c1ccccc1)c1ccc2ccc(F)cc2n1

>  <score_type>  (2) 
oracle

>  <origin>  (2) 
autodockgpu

>  <m_score__min__energy>  (2) 
-8.3300000000000001

>  <m_primary>  (2) 
energy

>  <rmsd>  (2) 
2.1073604129938657

>  <m_score__min__rmsd>  (2) 
2.1073604129938657

>  <meeko>  (2) 
{"free_energy": -8.14, "intermolecular_energy": -9.63, "internal_energy": -1.93, "cluster_size": 34, "cluster_id": 1, "rank_in_cluster": 11}

>  <energy>  (2) 
-8.32

>  <cluster_rmsd>  (2) 
0.17

>  <cluster>  (2) 
1

$$$$

     RDKit          3D

 51 54  0  0  0  0  0  0  0  0999 V2000
  140.2770   71.7080  221.0280 O   0  0  0  0  0  0  0  0  0  0  0  0
  140.0200   72.2530  222.1230 C   0  0  0  0  0  0  0  0  0  0  0  0
  139.8040   73.6550  222.1960 N   0  0  0  0  0  0  0  0  0  0  0  0
  139.8290   74.5660  221.1130 C   0  0  0  0  0  0  0  0  0  0  0  0
  140.8990   75.5540  221.0120 C   0  0  0  0  0  0  0  0  0  0  0  0
  141.4230   75.8760  222.1660 O   0  0  0  0  0  0  0  0  0  0  0  0
  141.4470   76.2100  219.9130 N   0  0  0  0  0  0  0  0  0  0  0  0
  140.8190   77.3020  219.1620 C   0  0  0  0  0  0  0  0  0  0  0  0
  141.9310   78.1580  218.5240 C   0  0  0  0  0  0  0  0  0  0  0  0
  142.6760   77.3500  217.4890 C   0  0  0  0  0  0  0  0  0  0  0  0
  142.6730   75.8680  217.8860 C   0  0  0  0  0  0  0  0  0  0  0  0
  142.7870   75.8610  219.4140 C   0  0  2  0  0  0  0  0  0  0  0  0
  143.3080   74.5780  219.9120 C   0  0  0  0  0  0  0  0  0  0  0  0
  144.5990   74.6510  220.4880 C   0  0  0  0  0  0  0  0  0  0  0  0
  145.1470   73.4620  220.9520 C   0  0  0  0  0  0  0  0  0  0  0  0
  144.4830   72.2670  220.8620 C   0  0  0  0  0  0  0  0  0  0  0  0
  143.2000   72.1700  220.2930 C   0  0  0  0  0  0  0  0  0  0  0  0
  142.6820   73.3720  219.8430 C   0  0  0  0  0  0  0  0  0  0  0  0
  139.9410   71.4350  223.3380 C   0  0  0  0  0  0  0  0  0  0  0  0
  139.3120   70.2120  223.3550 C   0  0  0  0  0  0  0  0  0  0  0  0
  139.2520   69.4610  224.5110 C   0  0  0  0  0  0  0  0  0  0  0  0
  139.8420   69.9580  225.6750 C   0  0  0  0  0  0  0  0  0  0  0  0
  139.8160   69.2490  226.8590 C   0  0  0  0  0  0  0  0  0  0  0  0
  140.4180   69.7870  227.9780 C   0  0  0  0  0  0  0  0  0  0  0  0
  141.0460   71.0090  227.9570 C   0  0  0  0  0  0  0  0  0  0  0  0
  141.6340   71.5200  229.0880 F   0  0  0  0  0  0  0  0  0  0  0  0
  141.0830   71.7400  226.7660 C   0  0  0  0  0  0  0  0  0  0  0  0
  140.4810   71.2010  225.6490 C   0  0  0  0  0  0  0  0  0  0  0  0
  140.4960   71.8700  224.4860 N   0  0  0  0  0  0  0  0  0  0  0  0
  139.6040   74.0320  223.1730 H   0  0  0  0  0  0  0  0  0  0  0  0
  139.8654   73.9640  220.1931 H   0  0  0  0  0  0  0  0  0  0  0  0
  138.9330   75.1816  221.2811 H   0  0  0  0  0  0  0  0  0  0  0  0
  140.1720   76.8873  218.3750 H   0  0  0  0  0  0  0  0  0  0  0  0
  140.2066   77.9197  219.8353 H   0  0  0  0  0  0  0  0  0  0  0  0
  141.4815   79.0395  218.0434 H   0  0  0  0  0  0  0  0  0  0  0  0
  142.6344   78.4775  219.3070 H   0  0  0  0  0  0  0  0  0  0  0  0
  142.1853   77.4672  216.5115 H   0  0  0  0  0  0  0  0  0  0  0  0
  143.7145   77.7075  217.4275 H   0  0  0  0  0  0  0  0  0  0  0  0
  141.7377   75.3851  217.5668 H   0  0  0  0  0  0  0  0  0  0  0  0
  143.4950   75.3133  217.4099 H   0  0  0  0  0  0  0  0  0  0  0  0
  143.5195   76.5928  219.7854 H   0  0  0  0  0  0  0  0  0  0  0  0
  145.1425   75.6043  220.5645 H   0  0  0  0  0  0  0  0  0  0  0  0
  146.1482   73.4805  221.4072 H   0  0  0  0  0  0  0  0  0  0  0  0
  144.9671   71.3569  221.2458 H   0  0  0  0  0  0  0  0  0  0  0  0
  142.6541   71.2184  220.2125 H   0  0  0  0  0  0  0  0  0  0  0  0
  141.6793   73.3504  219.3913 H   0  0  0  0  0  0  0  0  0  0  0  0
  138.8502   69.8270  222.4338 H   0  0  0  0  0  0  0  0  0  0  0  0
  138.7463   68.4841  224.5156 H   0  0  0  0  0  0  0  0  0  0  0  0
  139.3217   68.2676  226.9099 H   0  0  0  0  0  0  0  0  0  0  0  0
  140.3944   69.2181  228.9192 H   0  0  0  0  0  0  0  0  0  0  0  0
  141.5798   72.7204  226.7212 H   0  0  0  0  0  0  0  0  0  0  0  0
  1  2  2  0
  2  3  1  0
  3  4  1  0
  4  5  1  0
  5  6  2  0
  5  7  1  0
  7  8  1  0
  8  9  1  0
  9 10  1  0
 10 11  1  0
 11 12  1  0
 12 13  1  0
 13 14  2  0
 14 15  1  0
 15 16  2  0
 16 17  1  0
 17 18  2  0
  2 19  1  0
 19 20  2  0
 20 21  1  0
 21 22  2  0
 22 23  1  0
 23 24  2  0
 24 25  1  0
 25 26  1  0
 25 27  2  0
 27 28  1  0
 28 29  2  0
 12  7  1  0
 18 13  1  0
 29 19  1  0
 28 22  1  0
  3 30  1  0
  4 31  1  0
  4 32  1  0
  8 33  1  0
  8 34  1  0
  9 35  1  0
  9 36  1  0
 10 37  1  0
 10 38  1  0
 11 39  1  0
 11 40  1  0
 12 41  1  6
 14 42  1  0
 15 43  1  0
 16 44  1  0
 17 45  1  0
 18 46  1  0
 20 47  1  0
 21 48  1  0
 23 49  1  0
 24 50  1  0
 27 51  1  0
M  END
>  <smiles>  (3) 
O=C(NCC(=O)N1CCCCC1c1ccccc1)c1ccc2ccc(F)cc2n1

>  <score_type>  (3) 
oracle

>  <origin>  (3) 
autodockgpu

>  <m_score__min__energy>  (3) 
-8.3300000000000001

>  <m_primary>  (3) 
energy

>  <rmsd>  (3) 
1.9999913035964816

>  <m_score__min__rmsd>  (3) 
1.9999913035964816

>  <meeko>  (3) 
{"free_energy": -8.17, "intermolecular_energy": -9.66, "internal_energy": -1.86, "cluster_size": 34, "cluster_id": 1, "rank_in_cluster": 10}

>  <energy>  (3) 
-8.28

>  <cluster_rmsd>  (3) 
0.13

>  <cluster>  (3) 
1

$$$$

     RDKit          3D

 51 54  0  0  0  0  0  0  0  0999 V2000
  139.7470   70.9790  221.0010 O   0  0  0  0  0  0  0  0  0  0  0  0
  140.0290   71.6280  222.0310 C   0  0  0  0  0  0  0  0  0  0  0  0
  140.4450   72.9840  221.9360 N   0  0  0  0  0  0  0  0  0  0  0  0
  140.5740   73.7400  220.7480 C   0  0  0  0  0  0  0  0  0  0  0  0
  141.2320   75.0430  220.7770 C   0  0  0  0  0  0  0  0  0  0  0  0
  141.4360   75.4970  221.9850 O   0  0  0  0  0  0  0  0  0  0  0  0
  141.6700   75.8780  219.7520 N   0  0  0  0  0  0  0  0  0  0  0  0
  140.8730   76.9130  219.0870 C   0  0  0  0  0  0  0  0  0  0  0  0
  141.8290   77.9970  218.5510 C   0  0  0  0  0  0  0  0  0  0  0  0
  142.7060   77.4210  217.4650 C   0  0  0  0  0  0  0  0  0  0  0  0
  142.9490   75.9300  217.7310 C   0  0  0  0  0  0  0  0  0  0  0  0
  143.0530   75.8030  219.2530 C   0  0  2  0  0  0  0  0  0  0  0  0
  143.7780   74.5860  219.6480 C   0  0  0  0  0  0  0  0  0  0  0  0
  144.8840   74.8100  220.5030 C   0  0  0  0  0  0  0  0  0  0  0  0
  145.6180   73.6960  220.8850 C   0  0  0  0  0  0  0  0  0  0  0  0
  145.3010   72.4310  220.4620 C   0  0  0  0  0  0  0  0  0  0  0  0
  144.2080   72.1840  219.6120 C   0  0  0  0  0  0  0  0  0  0  0  0
  143.4970   73.3150  219.2520 C   0  0  0  0  0  0  0  0  0  0  0  0
  139.9250   70.9830  223.3440 C   0  0  0  0  0  0  0  0  0  0  0  0
  139.2480   69.8000  223.5250 C   0  0  0  0  0  0  0  0  0  0  0  0
  139.1650   69.2120  224.7710 C   0  0  0  0  0  0  0  0  0  0  0  0
  139.7820   69.8370  225.8580 C   0  0  0  0  0  0  0  0  0  0  0  0
  139.7340   69.2940  227.1260 C   0  0  0  0  0  0  0  0  0  0  0  0
  140.3630   69.9520  228.1630 C   0  0  0  0  0  0  0  0  0  0  0  0
  141.0380   71.1350  227.9780 C   0  0  0  0  0  0  0  0  0  0  0  0
  141.6520   71.7680  229.0310 F   0  0  0  0  0  0  0  0  0  0  0  0
  141.0970   71.6980  226.7010 C   0  0  0  0  0  0  0  0  0  0  0  0
  140.4680   71.0390  225.6660 C   0  0  0  0  0  0  0  0  0  0  0  0
  140.5020   71.5460  224.4240 N   0  0  0  0  0  0  0  0  0  0  0  0
  140.6750   73.4520  222.8660 H   0  0  0  0  0  0  0  0  0  0  0  0
  141.1348   73.1174  220.0353 H   0  0  0  0  0  0  0  0  0  0  0  0
  139.5332   73.9892  220.4940 H   0  0  0  0  0  0  0  0  0  0  0  0
  140.3101   76.4691  218.2527 H   0  0  0  0  0  0  0  0  0  0  0  0
  140.1614   77.3565  219.7990 H   0  0  0  0  0  0  0  0  0  0  0  0
  141.2407   78.8307  218.1402 H   0  0  0  0  0  0  0  0  0  0  0  0
  142.4634   78.3579  219.3740 H   0  0  0  0  0  0  0  0  0  0  0  0
  142.2089   77.5421  216.4913 H   0  0  0  0  0  0  0  0  0  0  0  0
  143.6700   77.9508  217.4569 H   0  0  0  0  0  0  0  0  0  0  0  0
  142.1099   75.3290  217.3506 H   0  0  0  0  0  0  0  0  0  0  0  0
  143.8559   75.5658  217.2261 H   0  0  0  0  0  0  0  0  0  0  0  0
  143.6510   76.6094  219.7026 H   0  0  0  0  0  0  0  0  0  0  0  0
  145.1492   75.8201  220.8484 H   0  0  0  0  0  0  0  0  0  0  0  0
  146.4837   73.8325  221.5498 H   0  0  0  0  0  0  0  0  0  0  0  0
  145.9192   71.5850  220.7970 H   0  0  0  0  0  0  0  0  0  0  0  0
  143.9407   71.1758  219.2626 H   0  0  0  0  0  0  0  0  0  0  0  0
  142.6305   73.1746  218.5890 H   0  0  0  0  0  0  0  0  0  0  0  0
  138.7653   69.3149  222.6638 H   0  0  0  0  0  0  0  0  0  0  0  0
  138.6212   68.2654  224.9064 H   0  0  0  0  0  0  0  0  0  0  0  0
  139.2012   68.3489  227.3076 H   0  0  0  0  0  0  0  0  0  0  0  0
  140.3229   69.5151  229.1717 H   0  0  0  0  0  0  0  0  0  0  0  0
  141.6317   72.6431  226.5255 H   0  0  0  0  0  0  0  0  0  0  0  0
  1  2  2  0
  2  3  1  0
  3  4  1  0
  4  5  1  0
  5  6  2  0
  5  7  1  0
  7  8  1  0
  8  9  1  0
  9 10  1  0
 10 11  1  0
 11 12  1  0
 12 13  1  0
 13 14  2  0
 14 15  1  0
 15 16  2  0
 16 17  1  0
 17 18  2  0
  2 19  1  0
 19 20  2  0
 20 21  1  0
 21 22  2  0
 22 23  1  0
 23 24  2  0
 24 25  1  0
 25 26  1  0
 25 27  2  0
 27 28  1  0
 28 29  2  0
 12  7  1  0
 18 13  1  0
 29 19  1  0
 28 22  1  0
  3 30  1  0
  4 31  1  0
  4 32  1  0
  8 33  1  0
  8 34  1  0
  9 35  1  0
  9 36  1  0
 10 37  1  0
 10 38  1  0
 11 39  1  0
 11 40  1  0
 12 41  1  1
 14 42  1  0
 15 43  1  0
 16 44  1  0
 17 45  1  0
 18 46  1  0
 20 47  1  0
 21 48  1  0
 23 49  1  0
 24 50  1  0
 27 51  1  0
M  END
>  <smiles>  (4) 
O=C(NCC(=O)N1CCCCC1c1ccccc1)c1ccc2ccc(F)cc2n1

>  <score_type>  (4) 
oracle

>  <origin>  (4) 
autodockgpu

>  <m_score__min__energy>  (4) 
-8.3300000000000001

>  <m_primary>  (4) 
energy

>  <rmsd>  (4) 
2.0572557100505056

>  <m_score__min__rmsd>  (4) 
2.0572557100505056

>  <meeko>  (4) 
{"free_energy": -7.8, "intermolecular_energy": -9.29, "internal_energy": -2.15, "cluster_size": 34, "cluster_id": 1, "rank_in_cluster": 30}

>  <energy>  (4) 
-8.28

>  <cluster_rmsd>  (4) 
0.15

>  <cluster>  (4) 
1

$$$$

     RDKit          3D

 51 54  0  0  0  0  0  0  0  0999 V2000
  138.4160   75.1840  221.7680 O   0  0  0  0  0  0  0  0  0  0  0  0
  139.5730   75.6100  221.9690 C   0  0  0  0  0  0  0  0  0  0  0  0
  140.6970   74.7630  221.7720 N   0  0  0  0  0  0  0  0  0  0  0  0
  140.6670   73.4180  221.3350 C   0  0  0  0  0  0  0  0  0  0  0  0
  141.6340   72.9460  220.3490 C   0  0  0  0  0  0  0  0  0  0  0  0
  141.0880   72.3150  219.3440 O   0  0  0  0  0  0  0  0  0  0  0  0
  143.0220   73.0470  220.2980 N   0  0  0  0  0  0  0  0  0  0  0  0
  143.9750   72.0970  220.8800 C   0  0  0  0  0  0  0  0  0  0  0  0
  145.2890   72.1700  220.0780 C   0  0  0  0  0  0  0  0  0  0  0  0
  145.9300   73.5260  220.2580 C   0  0  0  0  0  0  0  0  0  0  0  0
  144.8450   74.5870  220.4800 C   0  0  0  0  0  0  0  0  0  0  0  0
  143.6750   74.1590  219.5880 C   0  0  2  0  0  0  0  0  0  0  0  0
  142.7870   75.2900  219.2790 C   0  0  0  0  0  0  0  0  0  0  0  0
  143.0330   76.4580  220.0390 C   0  0  0  0  0  0  0  0  0  0  0  0
  142.2050   77.5470  219.8040 C   0  0  0  0  0  0  0  0  0  0  0  0
  141.1910   77.5080  218.8830 C   0  0  0  0  0  0  0  0  0  0  0  0
  140.9260   76.3590  218.1170 C   0  0  0  0  0  0  0  0  0  0  0  0
  141.7700   75.2940  218.3750 C   0  0  0  0  0  0  0  0  0  0  0  0
  139.7670   76.9950  222.4090 C   0  0  0  0  0  0  0  0  0  0  0  0
  138.7090   77.8340  222.6700 C   0  0  0  0  0  0  0  0  0  0  0  0
  138.9180   79.1340  223.0830 C   0  0  0  0  0  0  0  0  0  0  0  0
  140.2280   79.5950  223.2370 C   0  0  0  0  0  0  0  0  0  0  0  0
  140.4970   80.8840  223.6500 C   0  0  0  0  0  0  0  0  0  0  0  0
  141.8100   81.2850  223.7880 C   0  0  0  0  0  0  0  0  0  0  0  0
  142.8650   80.4440  223.5260 C   0  0  0  0  0  0  0  0  0  0  0  0
  144.1620   80.8740  223.6690 F   0  0  0  0  0  0  0  0  0  0  0  0
  142.6110   79.1350  223.1070 C   0  0  0  0  0  0  0  0  0  0  0  0
  141.2980   78.7360  222.9710 C   0  0  0  0  0  0  0  0  0  0  0  0
  141.0110   77.4870  222.5730 N   0  0  0  0  0  0  0  0  0  0  0  0
  141.6420   75.2100  221.9800 H   0  0  0  0  0  0  0  0  0  0  0  0
  140.7952   72.7912  222.2298 H   0  0  0  0  0  0  0  0  0  0  0  0
  139.7084   73.3490  220.7999 H   0  0  0  0  0  0  0  0  0  0  0  0
  144.1664   72.3600  221.9308 H   0  0  0  0  0  0  0  0  0  0  0  0
  143.5641   71.0775  220.8387 H   0  0  0  0  0  0  0  0  0  0  0  0
  145.9781   71.3910  220.4362 H   0  0  0  0  0  0  0  0  0  0  0  0
  145.0701   72.0130  219.0115 H   0  0  0  0  0  0  0  0  0  0  0  0
  146.6000   73.5006  221.1300 H   0  0  0  0  0  0  0  0  0  0  0  0
  146.5063   73.7785  219.3557 H   0  0  0  0  0  0  0  0  0  0  0  0
  144.5371   74.6086  221.5358 H   0  0  0  0  0  0  0  0  0  0  0  0
  145.2019   75.5976  220.2326 H   0  0  0  0  0  0  0  0  0  0  0  0
  144.0047   73.8186  218.5953 H   0  0  0  0  0  0  0  0  0  0  0  0
  143.8431   76.5010  220.7819 H   0  0  0  0  0  0  0  0  0  0  0  0
  142.3682   78.4722  220.3762 H   0  0  0  0  0  0  0  0  0  0  0  0
  140.5661   78.4017  218.7387 H   0  0  0  0  0  0  0  0  0  0  0  0
  140.1155   76.3111  217.3749 H   0  0  0  0  0  0  0  0  0  0  0  0
  141.6049   74.3709  217.8000 H   0  0  0  0  0  0  0  0  0  0  0  0
  137.6806   77.4632  222.5477 H   0  0  0  0  0  0  0  0  0  0  0  0
  138.0653   79.7980  223.2881 H   0  0  0  0  0  0  0  0  0  0  0  0
  139.6754   81.5827  223.8664 H   0  0  0  0  0  0  0  0  0  0  0  0
  142.0195   82.3129  224.1190 H   0  0  0  0  0  0  0  0  0  0  0  0
  143.4369   78.4412  222.8913 H   0  0  0  0  0  0  0  0  0  0  0  0
  1  2  2  0
  2  3  1  0
  3  4  1  0
  4  5  1  0
  5  6  2  0
  5  7  1  0
  7  8  1  0
  8  9  1  0
  9 10  1  0
 10 11  1  0
 11 12  1  0
 12 13  1  0
 13 14  2  0
 14 15  1  0
 15 16  2  0
 16 17  1  0
 17 18  2  0
  2 19  1  0
 19 20  2  0
 20 21  1  0
 21 22  2  0
 22 23  1  0
 23 24  2  0
 24 25  1  0
 25 26  1  0
 25 27  2  0
 27 28  1  0
 28 29  2  0
 12  7  1  0
 18 13  1  0
 29 19  1  0
 28 22  1  0
  3 30  1  0
  4 31  1  0
  4 32  1  0
  8 33  1  0
  8 34  1  0
  9 35  1  0
  9 36  1  0
 10 37  1  0
 10 38  1  0
 11 39  1  0
 11 40  1  0
 12 41  1  6
 14 42  1  0
 15 43  1  0
 16 44  1  0
 17 45  1  0
 18 46  1  0
 20 47  1  0
 21 48  1  0
 23 49  1  0
 24 50  1  0
 27 51  1  0
M  END
>  <smiles>  (5) 
O=C(NCC(=O)N1CCCCC1c1ccccc1)c1ccc2ccc(F)cc2n1

>  <score_type>  (5) 
oracle

>  <origin>  (5) 
autodockgpu

>  <m_score__min__energy>  (5) 
-8.3300000000000001

>  <m_primary>  (5) 
energy

>  <rmsd>  (5) 
7.4674606844180005

>  <m_score__min__rmsd>  (5) 
7.4674606844180005

>  <meeko>  (5) 
{"free_energy": -6.95, "intermolecular_energy": -8.44, "internal_energy": -2.65, "cluster_size": 8, "cluster_id": 6, "rank_in_cluster": 8}

>  <energy>  (5) 
-8.23

>  <cluster_rmsd>  (5) 
0.18

>  <cluster>  (5) 
1

$$$$

     RDKit          3D

 51 54  0  0  0  0  0  0  0  0999 V2000
  139.9870   74.0680  222.3450 O   0  0  0  0  0  0  0  0  0  0  0  0
  140.1400   75.0420  221.5760 C   0  0  0  0  0  0  0  0  0  0  0  0
  140.4530   74.8340  220.2050 N   0  0  0  0  0  0  0  0  0  0  0  0
  140.6070   73.5840  219.5600 C   0  0  0  0  0  0  0  0  0  0  0  0
  141.8670   73.2500  218.9020 C   0  0  0  0  0  0  0  0  0  0  0  0
  141.7270   72.9170  217.6460 O   0  0  0  0  0  0  0  0  0  0  0  0
  143.1750   73.2210  219.3770 N   0  0  0  0  0  0  0  0  0  0  0  0
  143.8230   72.0850  220.0420 C   0  0  0  0  0  0  0  0  0  0  0  0
  145.3430   72.1820  219.8020 C   0  0  0  0  0  0  0  0  0  0  0  0
  145.8970   73.4060  220.4910 C   0  0  0  0  0  0  0  0  0  0  0  0
  144.8300   74.5070  220.5320 C   0  0  0  0  0  0  0  0  0  0  0  0
  144.0690   74.3790  219.2090 C   0  0  2  0  0  0  0  0  0  0  0  0
  143.3820   75.6310  218.8550 C   0  0  0  0  0  0  0  0  0  0  0  0
  143.2990   75.8840  217.4650 C   0  0  0  0  0  0  0  0  0  0  0  0
  142.6820   77.0660  217.0780 C   0  0  0  0  0  0  0  0  0  0  0  0
  142.1750   77.9570  217.9870 C   0  0  0  0  0  0  0  0  0  0  0  0
  142.2470   77.7280  219.3730 C   0  0  0  0  0  0  0  0  0  0  0  0
  142.8640   76.5410  219.7240 C   0  0  0  0  0  0  0  0  0  0  0  0
  139.9930   76.4050  222.0960 C   0  0  0  0  0  0  0  0  0  0  0  0
  138.7610   76.9750  222.3130 C   0  0  0  0  0  0  0  0  0  0  0  0
  138.6480   78.2600  222.8040 C   0  0  0  0  0  0  0  0  0  0  0  0
  139.8100   78.9840  223.0820 C   0  0  0  0  0  0  0  0  0  0  0  0
  139.7590   80.2710  223.5760 C   0  0  0  0  0  0  0  0  0  0  0  0
  140.9390   80.9380  223.8350 C   0  0  0  0  0  0  0  0  0  0  0  0
  142.1690   80.3660  223.6160 C   0  0  0  0  0  0  0  0  0  0  0  0
  143.3260   81.0580  223.8810 F   0  0  0  0  0  0  0  0  0  0  0  0
  142.2390   79.0630  223.1160 C   0  0  0  0  0  0  0  0  0  0  0  0
  141.0600   78.3970  222.8590 C   0  0  0  0  0  0  0  0  0  0  0  0
  141.0830   77.1440  222.3790 N   0  0  0  0  0  0  0  0  0  0  0  0
  140.5760   75.7230  219.6300 H   0  0  0  0  0  0  0  0  0  0  0  0
  140.4324   72.8103  220.3221 H   0  0  0  0  0  0  0  0  0  0  0  0
  139.8942   73.6424  218.7242 H   0  0  0  0  0  0  0  0  0  0  0  0
  143.6146   72.1185  221.1216 H   0  0  0  0  0  0  0  0  0  0  0  0
  143.4362   71.1388  219.6357 H   0  0  0  0  0  0  0  0  0  0  0  0
  145.8336   71.2837  220.2049 H   0  0  0  0  0  0  0  0  0  0  0  0
  145.5340   72.2581  218.7214 H   0  0  0  0  0  0  0  0  0  0  0  0
  146.1919   73.1448  221.5181 H   0  0  0  0  0  0  0  0  0  0  0  0
  146.7734   73.7702  219.9349 H   0  0  0  0  0  0  0  0  0  0  0  0
  144.1509   74.3544  221.3838 H   0  0  0  0  0  0  0  0  0  0  0  0
  145.2745   75.5056  220.6554 H   0  0  0  0  0  0  0  0  0  0  0  0
  144.7387   74.2071  218.3535 H   0  0  0  0  0  0  0  0  0  0  0  0
  143.7043   75.1773  216.7259 H   0  0  0  0  0  0  0  0  0  0  0  0
  142.5974   77.2949  216.0054 H   0  0  0  0  0  0  0  0  0  0  0  0
  141.6977   78.8785  217.6222 H   0  0  0  0  0  0  0  0  0  0  0  0
  141.8462   78.4338  220.1154 H   0  0  0  0  0  0  0  0  0  0  0  0
  142.9427   76.3131  220.7973 H   0  0  0  0  0  0  0  0  0  0  0  0
  137.8510   76.3980  222.0919 H   0  0  0  0  0  0  0  0  0  0  0  0
  137.6576   78.7074  222.9739 H   0  0  0  0  0  0  0  0  0  0  0  0
  138.7907   80.7590  223.7610 H   0  0  0  0  0  0  0  0  0  0  0  0
  140.8933   81.9634  224.2306 H   0  0  0  0  0  0  0  0  0  0  0  0
  143.2105   78.5810  222.9322 H   0  0  0  0  0  0  0  0  0  0  0  0
  1  2  2  0
  2  3  1  0
  3  4  1  0
  4  5  1  0
  5  6  2  0
  5  7  1  0
  7  8  1  0
  8  9  1  0
  9 10  1  0
 10 11  1  0
 11 12  1  0
 12 13  1  0
 13 14  2  0
 14 15  1  0
 15 16  2  0
 16 17  1  0
 17 18  2  0
  2 19  1  0
 19 20  2  0
 20 21  1  0
 21 22  2  0
 22 23  1  0
 23 24  2  0
 24 25  1  0
 25 26  1  0
 25 27  2  0
 27 28  1  0
 28 29  2  0
 12  7  1  0
 18 13  1  0
 29 19  1  0
 28 22  1  0
  3 30  1  0
  4 31  1  0
  4 32  1  0
  8 33  1  0
  8 34  1  0
  9 35  1  0
  9 36  1  0
 10 37  1  0
 10 38  1  0
 11 39  1  0
 11 40  1  0
 12 41  1  6
 14 42  1  0
 15 43  1  0
 16 44  1  0
 17 45  1  0
 18 46  1  0
 20 47  1  0
 21 48  1  0
 23 49  1  0
 24 50  1  0
 27 51  1  0
M  END
>  <smiles>  (6) 
O=C(NCC(=O)N1CCCCC1c1ccccc1)c1ccc2ccc(F)cc2n1

>  <score_type>  (6) 
oracle

>  <origin>  (6) 
autodockgpu

>  <m_score__min__energy>  (6) 
-8.3300000000000001

>  <m_primary>  (6) 
energy

>  <rmsd>  (6) 
7.191457835970355

>  <m_score__min__rmsd>  (6) 
7.191457835970355

>  <meeko>  (6) 
{"free_energy": -7.45, "intermolecular_energy": -8.94, "internal_energy": -2.21, "cluster_size": 8, "cluster_id": 6, "rank_in_cluster": 1}

>  <energy>  (6) 
-8.21

>  <cluster_rmsd>  (6) 
0.18

>  <cluster>  (6) 
1

$$$$

     RDKit          3D

 51 54  0  0  0  0  0  0  0  0999 V2000
  140.1130   74.0360  222.3080 O   0  0  0  0  0  0  0  0  0  0  0  0
  140.1970   75.0140  221.5330 C   0  0  0  0  0  0  0  0  0  0  0  0
  140.4350   74.8140  220.1470 N   0  0  0  0  0  0  0  0  0  0  0  0
  140.5840   73.5700  219.4910 C   0  0  0  0  0  0  0  0  0  0  0  0
  141.8590   73.2140  218.8750 C   0  0  0  0  0  0  0  0  0  0  0  0
  141.7500   72.8480  217.6260 O   0  0  0  0  0  0  0  0  0  0  0  0
  143.1540   73.1920  219.3850 N   0  0  0  0  0  0  0  0  0  0  0  0
  143.7620   72.0940  220.1430 C   0  0  0  0  0  0  0  0  0  0  0  0
  145.2880   72.1440  219.9370 C   0  0  0  0  0  0  0  0  0  0  0  0
  145.8520   73.4020  220.5530 C   0  0  0  0  0  0  0  0  0  0  0  0
  144.8070   74.5240  220.4890 C   0  0  0  0  0  0  0  0  0  0  0  0
  144.0760   74.3180  219.1600 C   0  0  2  0  0  0  0  0  0  0  0  0
  143.4250   75.5550  218.7010 C   0  0  0  0  0  0  0  0  0  0  0  0
  142.9910   76.4120  219.7400 C   0  0  0  0  0  0  0  0  0  0  0  0
  142.3480   77.5830  219.3610 C   0  0  0  0  0  0  0  0  0  0  0  0
  142.1340   77.9060  218.0460 C   0  0  0  0  0  0  0  0  0  0  0  0
  142.5550   77.0700  216.9970 C   0  0  0  0  0  0  0  0  0  0  0  0
  143.1940   75.9140  217.4090 C   0  0  0  0  0  0  0  0  0  0  0  0
  140.0450   76.3720  222.0640 C   0  0  0  0  0  0  0  0  0  0  0  0
  138.8100   76.9340  222.2920 C   0  0  0  0  0  0  0  0  0  0  0  0
  138.6940   78.2150  222.7930 C   0  0  0  0  0  0  0  0  0  0  0  0
  139.8530   78.9440  223.0680 C   0  0  0  0  0  0  0  0  0  0  0  0
  139.7980   80.2270  223.5710 C   0  0  0  0  0  0  0  0  0  0  0  0
  140.9750   80.9000  223.8270 C   0  0  0  0  0  0  0  0  0  0  0  0
  142.2070   80.3360  223.5970 C   0  0  0  0  0  0  0  0  0  0  0  0
  143.3620   81.0330  223.8590 F   0  0  0  0  0  0  0  0  0  0  0  0
  142.2820   79.0370  223.0870 C   0  0  0  0  0  0  0  0  0  0  0  0
  141.1050   78.3660  222.8330 C   0  0  0  0  0  0  0  0  0  0  0  0
  141.1330   77.1160  222.3450 N   0  0  0  0  0  0  0  0  0  0  0  0
  140.5020   75.7070  219.5670 H   0  0  0  0  0  0  0  0  0  0  0  0
  140.3632   72.7908  220.2354 H   0  0  0  0  0  0  0  0  0  0  0  0
  139.9047   73.6569  218.6302 H   0  0  0  0  0  0  0  0  0  0  0  0
  143.5280   72.2068  221.2119 H   0  0  0  0  0  0  0  0  0  0  0  0
  143.3658   71.1295  219.7927 H   0  0  0  0  0  0  0  0  0  0  0  0
  145.7488   71.2666  220.4143 H   0  0  0  0  0  0  0  0  0  0  0  0
  145.5068   72.1407  218.8590 H   0  0  0  0  0  0  0  0  0  0  0  0
  146.1161   73.2081  221.6031 H   0  0  0  0  0  0  0  0  0  0  0  0
  146.7498   73.7088  219.9963 H   0  0  0  0  0  0  0  0  0  0  0  0
  144.1044   74.4450  221.3317 H   0  0  0  0  0  0  0  0  0  0  0  0
  145.2695   75.5200  220.5532 H   0  0  0  0  0  0  0  0  0  0  0  0
  144.7626   74.0732  218.3362 H   0  0  0  0  0  0  0  0  0  0  0  0
  143.1553   76.1622  220.7986 H   0  0  0  0  0  0  0  0  0  0  0  0
  141.9987   78.2745  220.1419 H   0  0  0  0  0  0  0  0  0  0  0  0
  141.6178   78.8468  217.8045 H   0  0  0  0  0  0  0  0  0  0  0  0
  142.3901   77.3145  215.9373 H   0  0  0  0  0  0  0  0  0  0  0  0
  143.5452   75.2266  216.6253 H   0  0  0  0  0  0  0  0  0  0  0  0
  137.9017   76.3539  222.0718 H   0  0  0  0  0  0  0  0  0  0  0  0
  137.7023   78.6555  222.9732 H   0  0  0  0  0  0  0  0  0  0  0  0
  138.8280   80.7077  223.7657 H   0  0  0  0  0  0  0  0  0  0  0  0
  140.9256   81.9228  224.2288 H   0  0  0  0  0  0  0  0  0  0  0  0
  143.2552   78.5623  222.8933 H   0  0  0  0  0  0  0  0  0  0  0  0
  1  2  2  0
  2  3  1  0
  3  4  1  0
  4  5  1  0
  5  6  2  0
  5  7  1  0
  7  8  1  0
  8  9  1  0
  9 10  1  0
 10 11  1  0
 11 12  1  0
 12 13  1  0
 13 14  2  0
 14 15  1  0
 15 16  2  0
 16 17  1  0
 17 18  2  0
  2 19  1  0
 19 20  2  0
 20 21  1  0
 21 22  2  0
 22 23  1  0
 23 24  2  0
 24 25  1  0
 25 26  1  0
 25 27  2  0
 27 28  1  0
 28 29  2  0
 12  7  1  0
 18 13  1  0
 29 19  1  0
 28 22  1  0
  3 30  1  0
  4 31  1  0
  4 32  1  0
  8 33  1  0
  8 34  1  0
  9 35  1  0
  9 36  1  0
 10 37  1  0
 10 38  1  0
 11 39  1  0
 11 40  1  0
 12 41  1  6
 14 42  1  0
 15 43  1  0
 16 44  1  0
 17 45  1  0
 18 46  1  0
 20 47  1  0
 21 48  1  0
 23 49  1  0
 24 50  1  0
 27 51  1  0
M  END
>  <smiles>  (7) 
O=C(NCC(=O)N1CCCCC1c1ccccc1)c1ccc2ccc(F)cc2n1

>  <score_type>  (7) 
oracle

>  <origin>  (7) 
autodockgpu

>  <m_score__min__energy>  (7) 
-8.3300000000000001

>  <m_primary>  (7) 
energy

>  <rmsd>  (7) 
7.177496513921542

>  <m_score__min__rmsd>  (7) 
7.177496513921542

>  <meeko>  (7) 
{"free_energy": -7.38, "intermolecular_energy": -8.87, "internal_energy": -2.26, "cluster_size": 8, "cluster_id": 6, "rank_in_cluster": 3}

>  <energy>  (7) 
-8.2

>  <cluster_rmsd>  (7) 
0.19

>  <cluster>  (7) 
1

$$$$

     RDKit          3D

 51 54  0  0  0  0  0  0  0  0999 V2000
  140.1840   71.3100  221.0750 O   0  0  0  0  0  0  0  0  0  0  0  0
  140.0640   71.9870  222.1180 C   0  0  0  0  0  0  0  0  0  0  0  0
  140.0410   73.4070  222.0560 N   0  0  0  0  0  0  0  0  0  0  0  0
  140.1280   74.1970  220.8860 C   0  0  0  0  0  0  0  0  0  0  0  0
  141.1700   73.9310  219.8980 C   0  0  0  0  0  0  0  0  0  0  0  0
  140.7520   74.0210  218.6630 O   0  0  0  0  0  0  0  0  0  0  0  0
  142.5130   73.5960  220.0430 N   0  0  0  0  0  0  0  0  0  0  0  0
  143.0330   72.3880  220.6930 C   0  0  0  0  0  0  0  0  0  0  0  0
  144.4100   72.0600  220.0830 C   0  0  0  0  0  0  0  0  0  0  0  0
  145.4000   73.1460  220.4280 C   0  0  0  0  0  0  0  0  0  0  0  0
  144.6720   74.4900  220.5600 C   0  0  0  0  0  0  0  0  0  0  0  0
  143.5730   74.4590  219.4940 C   0  0  2  0  0  0  0  0  0  0  0  0
  143.1280   75.8140  219.1340 C   0  0  0  0  0  0  0  0  0  0  0  0
  143.3270   76.1570  217.7750 C   0  0  0  0  0  0  0  0  0  0  0  0
  142.9470   77.4350  217.3890 C   0  0  0  0  0  0  0  0  0  0  0  0
  142.4060   78.3350  218.2700 C   0  0  0  0  0  0  0  0  0  0  0  0
  142.1990   78.0170  219.6240 C   0  0  0  0  0  0  0  0  0  0  0  0
  142.5860   76.7360  219.9750 C   0  0  0  0  0  0  0  0  0  0  0  0
  139.9440   71.3080  223.4120 C   0  0  0  0  0  0  0  0  0  0  0  0
  139.2220   70.1470  223.5640 C   0  0  0  0  0  0  0  0  0  0  0  0
  139.1240   69.5260  224.7920 C   0  0  0  0  0  0  0  0  0  0  0  0
  139.7730   70.0930  225.8920 C   0  0  0  0  0  0  0  0  0  0  0  0
  139.7130   69.5150  227.1440 C   0  0  0  0  0  0  0  0  0  0  0  0
  140.3750   70.1170  228.1940 C   0  0  0  0  0  0  0  0  0  0  0  0
  141.0950   71.2770  228.0390 C   0  0  0  0  0  0  0  0  0  0  0  0
  141.7410   71.8530  229.1060 F   0  0  0  0  0  0  0  0  0  0  0  0
  141.1670   71.8750  226.7790 C   0  0  0  0  0  0  0  0  0  0  0  0
  140.5060   71.2730  225.7300 C   0  0  0  0  0  0  0  0  0  0  0  0
  140.5510   71.8140  224.5030 N   0  0  0  0  0  0  0  0  0  0  0  0
  139.9470   73.8990  222.9970 H   0  0  0  0  0  0  0  0  0  0  0  0
  139.1644   74.0986  220.3647 H   0  0  0  0  0  0  0  0  0  0  0  0
  140.3963   75.1911  221.2731 H   0  0  0  0  0  0  0  0  0  0  0  0
  143.1381   72.5639  221.7737 H   0  0  0  0  0  0  0  0  0  0  0  0
  142.3409   71.5475  220.5363 H   0  0  0  0  0  0  0  0  0  0  0  0
  144.7672   71.1005  220.4851 H   0  0  0  0  0  0  0  0  0  0  0  0
  144.3136   71.9938  218.9892 H   0  0  0  0  0  0  0  0  0  0  0  0
  145.8922   72.9021  221.3810 H   0  0  0  0  0  0  0  0  0  0  0  0
  146.1532   73.2178  219.6296 H   0  0  0  0  0  0  0  0  0  0  0  0
  144.2331   74.5938  221.5633 H   0  0  0  0  0  0  0  0  0  0  0  0
  145.3541   75.3418  220.4220 H   0  0  0  0  0  0  0  0  0  0  0  0
  143.9264   74.0463  218.5375 H   0  0  0  0  0  0  0  0  0  0  0  0
  143.7622   75.4444  217.0588 H   0  0  0  0  0  0  0  0  0  0  0  0
  143.0848   77.7359  216.3400 H   0  0  0  0  0  0  0  0  0  0  0  0
  142.1257   79.3349  217.9073 H   0  0  0  0  0  0  0  0  0  0  0  0
  141.7657   78.7272  220.3437 H   0  0  0  0  0  0  0  0  0  0  0  0
  142.4433   76.4373  221.0240 H   0  0  0  0  0  0  0  0  0  0  0  0
  138.7149   69.7069  222.6927 H   0  0  0  0  0  0  0  0  0  0  0  0
  138.5436   68.5983  224.9036 H   0  0  0  0  0  0  0  0  0  0  0  0
  139.1448   68.5865  227.3024 H   0  0  0  0  0  0  0  0  0  0  0  0
  140.3247   69.6523  229.1898 H   0  0  0  0  0  0  0  0  0  0  0  0
  141.7371   72.8034  226.6275 H   0  0  0  0  0  0  0  0  0  0  0  0
  1  2  2  0
  2  3  1  0
  3  4  1  0
  4  5  1  0
  5  6  2  0
  5  7  1  0
  7  8  1  0
  8  9  1  0
  9 10  1  0
 10 11  1  0
 11 12  1  0
 12 13  1  0
 13 14  2  0
 14 15  1  0
 15 16  2  0
 16 17  1  0
 17 18  2  0
  2 19  1  0
 19 20  2  0
 20 21  1  0
 21 22  2  0
 22 23  1  0
 23 24  2  0
 24 25  1  0
 25 26  1  0
 25 27  2  0
 27 28  1  0
 28 29  2  0
 12  7  1  0
 18 13  1  0
 29 19  1  0
 28 22  1  0
  3 30  1  0
  4 31  1  0
  4 32  1  0
  8 33  1  0
  8 34  1  0
  9 35  1  0
  9 36  1  0
 10 37  1  0
 10 38  1  0
 11 39  1  0
 11 40  1  0
 12 41  1  6
 14 42  1  0
 15 43  1  0
 16 44  1  0
 17 45  1  0
 18 46  1  0
 20 47  1  0
 21 48  1  0
 23 49  1  0
 24 50  1  0
 27 51  1  0
M  END
>  <smiles>  (8) 
O=C(NCC(=O)N1CCCCC1c1ccccc1)c1ccc2ccc(F)cc2n1

>  <score_type>  (8) 
oracle

>  <origin>  (8) 
autodockgpu

>  <m_score__min__energy>  (8) 
-8.3300000000000001

>  <m_primary>  (8) 
energy

>  <rmsd>  (8) 
3.3595775750513446

>  <m_score__min__rmsd>  (8) 
3.3595775750513446

>  <meeko>  (8) 
{"free_energy": -7.9, "intermolecular_energy": -9.39, "internal_energy": -1.67, "cluster_size": 2, "cluster_id": 3, "rank_in_cluster": 1}

>  <energy>  (8) 
-8.19

>  <cluster_rmsd>  (8) 
0.16

>  <cluster>  (8) 
1

$$$$

     RDKit          3D

 51 54  0  0  0  0  0  0  0  0999 V2000
  138.5830   72.0580  221.5630 O   0  0  0  0  0  0  0  0  0  0  0  0
  139.6300   72.0600  222.2460 C   0  0  0  0  0  0  0  0  0  0  0  0
  140.7550   72.8250  221.8340 N   0  0  0  0  0  0  0  0  0  0  0  0
  140.8370   73.6460  220.6860 C   0  0  0  0  0  0  0  0  0  0  0  0
  141.3920   74.9930  220.7870 C   0  0  0  0  0  0  0  0  0  0  0  0
  141.4540   75.4410  222.0130 O   0  0  0  0  0  0  0  0  0  0  0  0
  141.8540   75.8750  219.8130 N   0  0  0  0  0  0  0  0  0  0  0  0
  141.0660   76.9240  219.1590 C   0  0  0  0  0  0  0  0  0  0  0  0
  142.0250   78.0420  218.7040 C   0  0  0  0  0  0  0  0  0  0  0  0
  142.9510   77.5230  217.6300 C   0  0  0  0  0  0  0  0  0  0  0  0
  143.2080   76.0270  217.8460 C   0  0  0  0  0  0  0  0  0  0  0  0
  143.2560   75.8410  219.3650 C   0  0  2  0  0  0  0  0  0  0  0  0
  143.9860   74.6190  219.7390 C   0  0  0  0  0  0  0  0  0  0  0  0
  143.6580   73.4780  218.9700 C   0  0  0  0  0  0  0  0  0  0  0  0
  144.3000   72.2920  219.3000 C   0  0  0  0  0  0  0  0  0  0  0  0
  145.2110   72.2140  220.3210 C   0  0  0  0  0  0  0  0  0  0  0  0
  145.5520   73.3340  221.1000 C   0  0  0  0  0  0  0  0  0  0  0  0
  144.8960   74.4990  220.7440 C   0  0  0  0  0  0  0  0  0  0  0  0
  139.6920   71.2690  223.4780 C   0  0  0  0  0  0  0  0  0  0  0  0
  139.1490   70.0080  223.5650 C   0  0  0  0  0  0  0  0  0  0  0  0
  139.2210   69.2830  224.7370 C   0  0  0  0  0  0  0  0  0  0  0  0
  139.8570   69.8460  225.8460 C   0  0  0  0  0  0  0  0  0  0  0  0
  139.9610   69.1660  227.0420 C   0  0  0  0  0  0  0  0  0  0  0  0
  140.6030   69.7700  228.1040 C   0  0  0  0  0  0  0  0  0  0  0  0
  141.1440   71.0300  228.0140 C   0  0  0  0  0  0  0  0  0  0  0  0
  141.7740   71.6060  229.0900 F   0  0  0  0  0  0  0  0  0  0  0  0
  141.0480   71.7330  226.8100 C   0  0  0  0  0  0  0  0  0  0  0  0
  140.4070   71.1280  225.7490 C   0  0  0  0  0  0  0  0  0  0  0  0
  140.2950   71.7680  224.5750 N   0  0  0  0  0  0  0  0  0  0  0  0
  141.6070   72.7550  222.4730 H   0  0  0  0  0  0  0  0  0  0  0  0
  141.4514   73.1041  219.9519 H   0  0  0  0  0  0  0  0  0  0  0  0
  139.7826   73.8267  220.4300 H   0  0  0  0  0  0  0  0  0  0  0  0
  140.5426   76.5058  218.2865 H   0  0  0  0  0  0  0  0  0  0  0  0
  140.3202   77.3281  219.8594 H   0  0  0  0  0  0  0  0  0  0  0  0
  141.4399   78.8837  218.3049 H   0  0  0  0  0  0  0  0  0  0  0  0
  142.6224   78.3776  219.5645 H   0  0  0  0  0  0  0  0  0  0  0  0
  142.4885   77.6756  216.6437 H   0  0  0  0  0  0  0  0  0  0  0  0
  143.9059   78.0669  217.6791 H   0  0  0  0  0  0  0  0  0  0  0  0
  142.3939   75.4293  217.4101 H   0  0  0  0  0  0  0  0  0  0  0  0
  144.1392   75.6967  217.3626 H   0  0  0  0  0  0  0  0  0  0  0  0
  143.8226   76.6378  219.8690 H   0  0  0  0  0  0  0  0  0  0  0  0
  142.9281   73.5280  218.1486 H   0  0  0  0  0  0  0  0  0  0  0  0
  144.0698   71.3845  218.7226 H   0  0  0  0  0  0  0  0  0  0  0  0
  145.6893   71.2473  220.5373 H   0  0  0  0  0  0  0  0  0  0  0  0
  146.2796   73.2877  221.9237 H   0  0  0  0  0  0  0  0  0  0  0  0
  145.1297   75.4051  221.3222 H   0  0  0  0  0  0  0  0  0  0  0  0
  138.6501   69.5712  222.6874 H   0  0  0  0  0  0  0  0  0  0  0  0
  138.7835   68.2755  224.7971 H   0  0  0  0  0  0  0  0  0  0  0  0
  139.5379   68.1561  227.1477 H   0  0  0  0  0  0  0  0  0  0  0  0
  140.6844   69.2239  229.0554 H   0  0  0  0  0  0  0  0  0  0  0  0
  141.4727   72.7429  226.7110 H   0  0  0  0  0  0  0  0  0  0  0  0
  1  2  2  0
  2  3  1  0
  3  4  1  0
  4  5  1  0
  5  6  2  0
  5  7  1  0
  7  8  1  0
  8  9  1  0
  9 10  1  0
 10 11  1  0
 11 12  1  0
 12 13  1  0
 13 14  2  0
 14 15  1  0
 15 16  2  0
 16 17  1  0
 17 18  2  0
  2 19  1  0
 19 20  2  0
 20 21  1  0
 21 22  2  0
 22 23  1  0
 23 24  2  0
 24 25  1  0
 25 26  1  0
 25 27  2  0
 27 28  1  0
 28 29  2  0
 12  7  1  0
 18 13  1  0
 29 19  1  0
 28 22  1  0
  3 30  1  0
  4 31  1  0
  4 32  1  0
  8 33  1  0
  8 34  1  0
  9 35  1  0
  9 36  1  0
 10 37  1  0
 10 38  1  0
 11 39  1  0
 11 40  1  0
 12 41  1  1
 14 42  1  0
 15 43  1  0
 16 44  1  0
 17 45  1  0
 18 46  1  0
 20 47  1  0
 21 48  1  0
 23 49  1  0
 24 50  1  0
 27 51  1  0
M  END
>  <smiles>  (9) 
O=C(NCC(=O)N1CCCCC1c1ccccc1)c1ccc2ccc(F)cc2n1

>  <score_type>  (9) 
oracle

>  <origin>  (9) 
autodockgpu

>  <m_score__min__energy>  (9) 
-8.3300000000000001

>  <m_primary>  (9) 
energy

>  <rmsd>  (9) 
2.2056765280795605

>  <m_score__min__rmsd>  (9) 
2.2056765280795605

>  <meeko>  (9) 
{"free_energy": -7.9, "intermolecular_energy": -9.39, "internal_energy": -1.68, "cluster_size": 34, "cluster_id": 1, "rank_in_cluster": 23}

>  <energy>  (9) 
-8.19

>  <cluster_rmsd>  (9) 
0.25

>  <cluster>  (9) 
1

$$$$

     RDKit          3D

 51 54  0  0  0  0  0  0  0  0999 V2000
  140.3770   71.5520  221.0810 O   0  0  0  0  0  0  0  0  0  0  0  0
  140.1340   72.1720  222.1380 C   0  0  0  0  0  0  0  0  0  0  0  0
  139.9960   73.5870  222.1280 N   0  0  0  0  0  0  0  0  0  0  0  0
  140.0900   74.4300  220.9960 C   0  0  0  0  0  0  0  0  0  0  0  0
  140.8680   75.6640  221.0650 C   0  0  0  0  0  0  0  0  0  0  0  0
  141.0920   76.0720  222.2860 O   0  0  0  0  0  0  0  0  0  0  0  0
  141.4010   76.4740  220.0660 N   0  0  0  0  0  0  0  0  0  0  0  0
  140.7620   77.6590  219.4860 C   0  0  0  0  0  0  0  0  0  0  0  0
  141.8630   78.6040  218.9670 C   0  0  0  0  0  0  0  0  0  0  0  0
  142.5990   77.9570  217.8180 C   0  0  0  0  0  0  0  0  0  0  0  0
  142.6060   76.4330  217.9980 C   0  0  0  0  0  0  0  0  0  0  0  0
  142.7370   76.2070  219.5070 C   0  0  2  0  0  0  0  0  0  0  0  0
  143.2680   74.8690  219.8110 C   0  0  0  0  0  0  0  0  0  0  0  0
  144.5280   74.8670  220.4550 C   0  0  0  0  0  0  0  0  0  0  0  0
  145.0850   73.6280  220.7410 C   0  0  0  0  0  0  0  0  0  0  0  0
  144.4580   72.4530  220.4190 C   0  0  0  0  0  0  0  0  0  0  0  0
  143.2060   72.4290  219.7780 C   0  0  0  0  0  0  0  0  0  0  0  0
  142.6790   73.6790  219.5090 C   0  0  0  0  0  0  0  0  0  0  0  0
  139.9910   71.4310  223.3950 C   0  0  0  0  0  0  0  0  0  0  0  0
  139.2260   70.2910  223.4880 C   0  0  0  0  0  0  0  0  0  0  0  0
  139.1070   69.6110  224.6820 C   0  0  0  0  0  0  0  0  0  0  0  0
  139.7770   70.0940  225.8090 C   0  0  0  0  0  0  0  0  0  0  0  0
  139.6960   69.4540  227.0280 C   0  0  0  0  0  0  0  0  0  0  0  0
  140.3820   69.9740  228.1070 C   0  0  0  0  0  0  0  0  0  0  0  0
  141.1450   71.1130  228.0110 C   0  0  0  0  0  0  0  0  0  0  0  0
  141.8130   71.6090  229.1040 F   0  0  0  0  0  0  0  0  0  0  0  0
  141.2370   71.7740  226.7830 C   0  0  0  0  0  0  0  0  0  0  0  0
  140.5530   71.2530  225.7060 C   0  0  0  0  0  0  0  0  0  0  0  0
  140.6170   71.8560  224.5100 N   0  0  0  0  0  0  0  0  0  0  0  0
  139.8020   74.0290  223.0780 H   0  0  0  0  0  0  0  0  0  0  0  0
  140.5246   73.8259  220.1859 H   0  0  0  0  0  0  0  0  0  0  0  0
  139.0589   74.7893  220.8631 H   0  0  0  0  0  0  0  0  0  0  0  0
  140.1086   77.3582  218.6538 H   0  0  0  0  0  0  0  0  0  0  0  0
  140.1548   78.1703  220.2475 H   0  0  0  0  0  0  0  0  0  0  0  0
  141.4049   79.5432  218.6235 H   0  0  0  0  0  0  0  0  0  0  0  0
  142.5739   78.8115  219.7803 H   0  0  0  0  0  0  0  0  0  0  0  0
  142.0964   78.2109  216.8730 H   0  0  0  0  0  0  0  0  0  0  0  0
  143.6353   78.3252  217.7969 H   0  0  0  0  0  0  0  0  0  0  0  0
  141.6690   75.9960  217.6225 H   0  0  0  0  0  0  0  0  0  0  0  0
  143.4248   75.9569  217.4386 H   0  0  0  0  0  0  0  0  0  0  0  0
  143.4714   76.8818  219.9709 H   0  0  0  0  0  0  0  0  0  0  0  0
  145.0422   75.8035  220.7168 H   0  0  0  0  0  0  0  0  0  0  0  0
  146.0629   73.5882  221.2431 H   0  0  0  0  0  0  0  0  0  0  0  0
  144.9480   71.5005  220.6691 H   0  0  0  0  0  0  0  0  0  0  0  0
  142.6896   71.4946  219.5130 H   0  0  0  0  0  0  0  0  0  0  0  0
  141.7003   73.7150  219.0082 H   0  0  0  0  0  0  0  0  0  0  0  0
  138.7015   69.9164  222.5966 H   0  0  0  0  0  0  0  0  0  0  0  0
  138.4929   68.7006  224.7462 H   0  0  0  0  0  0  0  0  0  0  0  0
  139.0925   68.5410  227.1389 H   0  0  0  0  0  0  0  0  0  0  0  0
  140.3157   69.4592  229.0768 H   0  0  0  0  0  0  0  0  0  0  0  0
  141.8406   72.6877  226.6787 H   0  0  0  0  0  0  0  0  0  0  0  0
  1  2  2  0
  2  3  1  0
  3  4  1  0
  4  5  1  0
  5  6  2  0
  5  7  1  0
  7  8  1  0
  8  9  1  0
  9 10  1  0
 10 11  1  0
 11 12  1  0
 12 13  1  0
 13 14  2  0
 14 15  1  0
 15 16  2  0
 16 17  1  0
 17 18  2  0
  2 19  1  0
 19 20  2  0
 20 21  1  0
 21 22  2  0
 22 23  1  0
 23 24  2  0
 24 25  1  0
 25 26  1  0
 25 27  2  0
 27 28  1  0
 28 29  2  0
 12  7  1  0
 18 13  1  0
 29 19  1  0
 28 22  1  0
  3 30  1  0
  4 31  1  0
  4 32  1  0
  8 33  1  0
  8 34  1  0
  9 35  1  0
  9 36  1  0
 10 37  1  0
 10 38  1  0
 11 39  1  0
 11 40  1  0
 12 41  1  1
 14 42  1  0
 15 43  1  0
 16 44  1  0
 17 45  1  0
 18 46  1  0
 20 47  1  0
 21 48  1  0
 23 49  1  0
 24 50  1  0
 27 51  1  0
M  END
>  <smiles>  (10) 
O=C(NCC(=O)N1CCCCC1c1ccccc1)c1ccc2ccc(F)cc2n1

>  <score_type>  (10) 
oracle

>  <origin>  (10) 
autodockgpu

>  <m_score__min__energy>  (10) 
-8.3300000000000001

>  <m_primary>  (10) 
energy

>  <rmsd>  (10) 
2.1236095630902265

>  <m_score__min__rmsd>  (10) 
2.1236095630902265

>  <meeko>  (10) 
{"free_energy": -8.23, "intermolecular_energy": -9.72, "internal_energy": -1.84, "cluster_size": 34, "cluster_id": 1, "rank_in_cluster": 5}

>  <energy>  (10) 
-8.17

>  <cluster_rmsd>  (10) 
0.22

>  <cluster>  (10) 
1

$$$$

     RDKit          3D

 51 54  0  0  0  0  0  0  0  0999 V2000
  137.9820   70.3340  221.4870 O   0  0  0  0  0  0  0  0  0  0  0  0
  138.2950   71.0530  222.4600 C   0  0  0  0  0  0  0  0  0  0  0  0
  138.1470   72.4640  222.3880 N   0  0  0  0  0  0  0  0  0  0  0  0
  137.6430   73.2000  221.2910 C   0  0  0  0  0  0  0  0  0  0  0  0
  138.4080   74.3180  220.7450 C   0  0  0  0  0  0  0  0  0  0  0  0
  138.6490   74.2090  219.4650 O   0  0  0  0  0  0  0  0  0  0  0  0
  138.9230   75.4630  221.3470 N   0  0  0  0  0  0  0  0  0  0  0  0
  138.2280   76.7460  221.4920 C   0  0  0  0  0  0  0  0  0  0  0  0
  138.8010   77.4760  222.7220 C   0  0  0  0  0  0  0  0  0  0  0  0
  140.2460   77.8400  222.4800 C   0  0  0  0  0  0  0  0  0  0  0  0
  140.8940   76.8040  221.5540 C   0  0  0  0  0  0  0  0  0  0  0  0
  140.2670   75.4630  221.9470 C   0  0  2  0  0  0  0  0  0  0  0  0
  141.1140   74.3300  221.5450 C   0  0  0  0  0  0  0  0  0  0  0  0
  142.1140   74.6480  220.5950 C   0  0  0  0  0  0  0  0  0  0  0  0
  142.9240   73.6070  220.1640 C   0  0  0  0  0  0  0  0  0  0  0  0
  142.7760   72.3250  220.6250 C   0  0  0  0  0  0  0  0  0  0  0  0
  141.7890   71.9840  221.5680 C   0  0  0  0  0  0  0  0  0  0  0  0
  141.0010   73.0440  221.9790 C   0  0  0  0  0  0  0  0  0  0  0  0
  138.8180   70.4310  223.6810 C   0  0  0  0  0  0  0  0  0  0  0  0
  138.7070   69.0810  223.9180 C   0  0  0  0  0  0  0  0  0  0  0  0
  139.2070   68.5190  225.0750 C   0  0  0  0  0  0  0  0  0  0  0  0
  139.8340   69.3430  226.0130 C   0  0  0  0  0  0  0  0  0  0  0  0
  140.3550   68.8370  227.1860 C   0  0  0  0  0  0  0  0  0  0  0  0
  140.9660   69.6970  228.0760 C   0  0  0  0  0  0  0  0  0  0  0  0
  141.0750   71.0450  227.8360 C   0  0  0  0  0  0  0  0  0  0  0  0
  141.6860   71.8760  228.7430 F   0  0  0  0  0  0  0  0  0  0  0  0
  140.5530   71.5750  226.6530 C   0  0  0  0  0  0  0  0  0  0  0  0
  139.9430   70.7150  225.7640 C   0  0  0  0  0  0  0  0  0  0  0  0
  139.4310   71.1830  224.6160 N   0  0  0  0  0  0  0  0  0  0  0  0
  138.4510   72.9950  223.2610 H   0  0  0  0  0  0  0  0  0  0  0  0
  137.4976   72.4839  220.4688 H   0  0  0  0  0  0  0  0  0  0  0  0
  136.7472   73.6863  221.7046 H   0  0  0  0  0  0  0  0  0  0  0  0
  138.3854   77.3572  220.5911 H   0  0  0  0  0  0  0  0  0  0  0  0
  137.1488   76.5775  221.6225 H   0  0  0  0  0  0  0  0  0  0  0  0
  138.2203   78.3922  222.9050 H   0  0  0  0  0  0  0  0  0  0  0  0
  138.7375   76.8128  223.5973 H   0  0  0  0  0  0  0  0  0  0  0  0
  140.2987   78.8333  222.0104 H   0  0  0  0  0  0  0  0  0  0  0  0
  140.7826   77.8552  223.4401 H   0  0  0  0  0  0  0  0  0  0  0  0
  140.6756   77.0378  220.5016 H   0  0  0  0  0  0  0  0  0  0  0  0
  141.9892   76.7905  221.6562 H   0  0  0  0  0  0  0  0  0  0  0  0
  140.1831   75.3408  223.0370 H   0  0  0  0  0  0  0  0  0  0  0  0
  142.2430   75.6726  220.2161 H   0  0  0  0  0  0  0  0  0  0  0  0
  143.7124   73.8182  219.4266 H   0  0  0  0  0  0  0  0  0  0  0  0
  143.4479   71.5403  220.2471 H   0  0  0  0  0  0  0  0  0  0  0  0
  141.6552   70.9600  221.9468 H   0  0  0  0  0  0  0  0  0  0  0  0
  140.2162   72.8300  222.7195 H   0  0  0  0  0  0  0  0  0  0  0  0
  138.2122   68.4393  223.1741 H   0  0  0  0  0  0  0  0  0  0  0  0
  139.1133   67.4381  225.2561 H   0  0  0  0  0  0  0  0  0  0  0  0
  140.2844   67.7622  227.4090 H   0  0  0  0  0  0  0  0  0  0  0  0
  141.3800   69.2887  229.0098 H   0  0  0  0  0  0  0  0  0  0  0  0
  140.6268   72.6509  226.4363 H   0  0  0  0  0  0  0  0  0  0  0  0
  1  2  2  0
  2  3  1  0
  3  4  1  0
  4  5  1  0
  5  6  2  0
  5  7  1  0
  7  8  1  0
  8  9  1  0
  9 10  1  0
 10 11  1  0
 11 12  1  0
 12 13  1  0
 13 14  2  0
 14 15  1  0
 15 16  2  0
 16 17  1  0
 17 18  2  0
  2 19  1  0
 19 20  2  0
 20 21  1  0
 21 22  2  0
 22 23  1  0
 23 24  2  0
 24 25  1  0
 25 26  1  0
 25 27  2  0
 27 28  1  0
 28 29  2  0
 12  7  1  0
 18 13  1  0
 29 19  1  0
 28 22  1  0
  3 30  1  0
  4 31  1  0
  4 32  1  0
  8 33  1  0
  8 34  1  0
  9 35  1  0
  9 36  1  0
 10 37  1  0
 10 38  1  0
 11 39  1  0
 11 40  1  0
 12 41  1  1
 14 42  1  0
 15 43  1  0
 16 44  1  0
 17 45  1  0
 18 46  1  0
 20 47  1  0
 21 48  1  0
 23 49  1  0
 24 50  1  0
 27 51  1  0
M  END
>  <smiles>  (11) 
O=C(NCC(=O)N1CCCCC1c1ccccc1)c1ccc2ccc(F)cc2n1

>  <score_type>  (11) 
oracle

>  <origin>  (11) 
autodockgpu

>  <m_score__min__energy>  (11) 
-8.3300000000000001

>  <m_primary>  (11) 
energy

>  <rmsd>  (11) 
2.6146642567347014

>  <m_score__min__rmsd>  (11) 
2.6146642567347014

>  <meeko>  (11) 
{"free_energy": -7.29, "intermolecular_energy": -8.78, "internal_energy": -2.13, "cluster_size": 34, "cluster_id": 1, "rank_in_cluster": 34}

>  <energy>  (11) 
-8.14

>  <cluster_rmsd>  (11) 
0.18

>  <cluster>  (11) 
1

$$$$

     RDKit          3D

 51 54  0  0  0  0  0  0  0  0999 V2000
  140.0820   74.0460  222.3200 O   0  0  0  0  0  0  0  0  0  0  0  0
  140.1680   75.0200  221.5420 C   0  0  0  0  0  0  0  0  0  0  0  0
  140.4120   74.8150  220.1570 N   0  0  0  0  0  0  0  0  0  0  0  0
  140.5650   73.5680  219.5080 C   0  0  0  0  0  0  0  0  0  0  0  0
  141.8360   73.2190  218.8800 C   0  0  0  0  0  0  0  0  0  0  0  0
  141.7200   72.8710  217.6260 O   0  0  0  0  0  0  0  0  0  0  0  0
  143.1340   73.1890  219.3830 N   0  0  0  0  0  0  0  0  0  0  0  0
  143.7370   72.0870  220.1400 C   0  0  0  0  0  0  0  0  0  0  0  0
  145.2630   72.1260  219.9250 C   0  0  0  0  0  0  0  0  0  0  0  0
  145.8400   73.3810  220.5360 C   0  0  0  0  0  0  0  0  0  0  0  0
  144.8030   74.5100  220.4760 C   0  0  0  0  0  0  0  0  0  0  0  0
  144.0630   74.3070  219.1510 C   0  0  2  0  0  0  0  0  0  0  0  0
  143.4190   75.5490  218.6930 C   0  0  0  0  0  0  0  0  0  0  0  0
  142.9820   76.4030  219.7330 C   0  0  0  0  0  0  0  0  0  0  0  0
  142.3460   77.5770  219.3550 C   0  0  0  0  0  0  0  0  0  0  0  0
  142.1400   77.9070  218.0400 C   0  0  0  0  0  0  0  0  0  0  0  0
  142.5640   77.0730  216.9900 C   0  0  0  0  0  0  0  0  0  0  0  0
  143.1960   75.9130  217.4010 C   0  0  0  0  0  0  0  0  0  0  0  0
  140.0120   76.3810  222.0660 C   0  0  0  0  0  0  0  0  0  0  0  0
  138.7770   76.9430  222.2830 C   0  0  0  0  0  0  0  0  0  0  0  0
  138.6570   78.2260  222.7780 C   0  0  0  0  0  0  0  0  0  0  0  0
  139.8150   78.9560  223.0590 C   0  0  0  0  0  0  0  0  0  0  0  0
  139.7560   80.2410  223.5570 C   0  0  0  0  0  0  0  0  0  0  0  0
  140.9310   80.9140  223.8190 C   0  0  0  0  0  0  0  0  0  0  0  0
  142.1650   80.3490  223.6000 C   0  0  0  0  0  0  0  0  0  0  0  0
  143.3180   81.0470  223.8680 F   0  0  0  0  0  0  0  0  0  0  0  0
  142.2430   79.0480  223.0960 C   0  0  0  0  0  0  0  0  0  0  0  0
  141.0670   78.3770  222.8360 C   0  0  0  0  0  0  0  0  0  0  0  0
  141.0980   77.1250  222.3530 N   0  0  0  0  0  0  0  0  0  0  0  0
  140.4810   75.7050  219.5740 H   0  0  0  0  0  0  0  0  0  0  0  0
  140.3597   72.7921  220.2602 H   0  0  0  0  0  0  0  0  0  0  0  0
  139.8753   73.6429  218.6543 H   0  0  0  0  0  0  0  0  0  0  0  0
  143.5096   72.2032  221.2099 H   0  0  0  0  0  0  0  0  0  0  0  0
  143.3313   71.1248  219.7942 H   0  0  0  0  0  0  0  0  0  0  0  0
  145.7203   71.2460  220.4008 H   0  0  0  0  0  0  0  0  0  0  0  0
  145.4754   72.1198  218.8457 H   0  0  0  0  0  0  0  0  0  0  0  0
  146.1086   73.1868  221.5849 H   0  0  0  0  0  0  0  0  0  0  0  0
  146.7370   73.6803  219.9740 H   0  0  0  0  0  0  0  0  0  0  0  0
  144.1046   74.4374  221.3227 H   0  0  0  0  0  0  0  0  0  0  0  0
  145.2729   75.5028  220.5360 H   0  0  0  0  0  0  0  0  0  0  0  0
  144.7431   74.0551  218.3239 H   0  0  0  0  0  0  0  0  0  0  0  0
  143.1390   76.1483  220.7915 H   0  0  0  0  0  0  0  0  0  0  0  0
  141.9951   78.2665  220.1369 H   0  0  0  0  0  0  0  0  0  0  0  0
  141.6286   78.8508  217.7996 H   0  0  0  0  0  0  0  0  0  0  0  0
  142.4063   77.3222  215.9303 H   0  0  0  0  0  0  0  0  0  0  0  0
  143.5481   75.2267  216.6168 H   0  0  0  0  0  0  0  0  0  0  0  0
  137.8704   76.3618  222.0589 H   0  0  0  0  0  0  0  0  0  0  0  0
  137.6640   78.6674  222.9488 H   0  0  0  0  0  0  0  0  0  0  0  0
  138.7846   80.7226  223.7427 H   0  0  0  0  0  0  0  0  0  0  0  0
  140.8790   81.9382  224.2169 H   0  0  0  0  0  0  0  0  0  0  0  0
  143.2172   78.5717  222.9115 H   0  0  0  0  0  0  0  0  0  0  0  0
  1  2  2  0
  2  3  1  0
  3  4  1  0
  4  5  1  0
  5  6  2  0
  5  7  1  0
  7  8  1  0
  8  9  1  0
  9 10  1  0
 10 11  1  0
 11 12  1  0
 12 13  1  0
 13 14  2  0
 14 15  1  0
 15 16  2  0
 16 17  1  0
 17 18  2  0
  2 19  1  0
 19 20  2  0
 20 21  1  0
 21 22  2  0
 22 23  1  0
 23 24  2  0
 24 25  1  0
 25 26  1  0
 25 27  2  0
 27 28  1  0
 28 29  2  0
 12  7  1  0
 18 13  1  0
 29 19  1  0
 28 22  1  0
  3 30  1  0
  4 31  1  0
  4 32  1  0
  8 33  1  0
  8 34  1  0
  9 35  1  0
  9 36  1  0
 10 37  1  0
 10 38  1  0
 11 39  1  0
 11 40  1  0
 12 41  1  6
 14 42  1  0
 15 43  1  0
 16 44  1  0
 17 45  1  0
 18 46  1  0
 20 47  1  0
 21 48  1  0
 23 49  1  0
 24 50  1  0
 27 51  1  0
M  END
>  <smiles>  (12) 
O=C(NCC(=O)N1CCCCC1c1ccccc1)c1ccc2ccc(F)cc2n1

>  <score_type>  (12) 
oracle

>  <origin>  (12) 
autodockgpu

>  <m_score__min__energy>  (12) 
-8.3300000000000001

>  <m_primary>  (12) 
energy

>  <rmsd>  (12) 
7.178408416261627

>  <m_score__min__rmsd>  (12) 
7.178408416261627

>  <meeko>  (12) 
{"free_energy": -7.4, "intermolecular_energy": -8.89, "internal_energy": -2.25, "cluster_size": 8, "cluster_id": 6, "rank_in_cluster": 2}

>  <energy>  (12) 
-8.09

>  <cluster_rmsd>  (12) 
0.19

>  <cluster>  (12) 
1

$$$$

     RDKit          3D

 51 54  0  0  0  0  0  0  0  0999 V2000
  139.5360   71.2320  221.0230 O   0  0  0  0  0  0  0  0  0  0  0  0
  139.9710   71.8100  222.0420 C   0  0  0  0  0  0  0  0  0  0  0  0
  140.5120   73.1210  221.9490 N   0  0  0  0  0  0  0  0  0  0  0  0
  140.6120   73.9060  220.7770 C   0  0  0  0  0  0  0  0  0  0  0  0
  141.2810   75.2040  220.8200 C   0  0  0  0  0  0  0  0  0  0  0  0
  141.4370   75.6700  222.0300 O   0  0  0  0  0  0  0  0  0  0  0  0
  141.7700   76.0220  219.8050 N   0  0  0  0  0  0  0  0  0  0  0  0
  141.0220   77.0790  219.1170 C   0  0  0  0  0  0  0  0  0  0  0  0
  142.0250   78.1310  218.6040 C   0  0  0  0  0  0  0  0  0  0  0  0
  142.9120   77.5260  217.5430 C   0  0  0  0  0  0  0  0  0  0  0  0
  143.1030   76.0290  217.8170 C   0  0  0  0  0  0  0  0  0  0  0  0
  143.1630   75.9040  219.3430 C   0  0  2  0  0  0  0  0  0  0  0  0
  143.8400   74.6660  219.7590 C   0  0  0  0  0  0  0  0  0  0  0  0
  143.3520   73.4910  219.1420 C   0  0  0  0  0  0  0  0  0  0  0  0
  143.9410   72.2920  219.5190 C   0  0  0  0  0  0  0  0  0  0  0  0
  144.9490   72.2330  220.4470 C   0  0  0  0  0  0  0  0  0  0  0  0
  145.4500   73.3870  221.0740 C   0  0  0  0  0  0  0  0  0  0  0  0
  144.8430   74.5640  220.6740 C   0  0  0  0  0  0  0  0  0  0  0  0
  139.9180   71.1280  223.3390 C   0  0  0  0  0  0  0  0  0  0  0  0
  139.3170   69.9010  223.4960 C   0  0  0  0  0  0  0  0  0  0  0  0
  139.2810   69.2790  224.7270 C   0  0  0  0  0  0  0  0  0  0  0  0
  139.8670   69.9140  225.8250 C   0  0  0  0  0  0  0  0  0  0  0  0
  139.8640   69.3390  227.0790 C   0  0  0  0  0  0  0  0  0  0  0  0
  140.4600   70.0100  228.1270 C   0  0  0  0  0  0  0  0  0  0  0  0
  141.0590   71.2360  227.9670 C   0  0  0  0  0  0  0  0  0  0  0  0
  141.6420   71.8800  229.0320 F   0  0  0  0  0  0  0  0  0  0  0  0
  141.0720   71.8330  226.7040 C   0  0  0  0  0  0  0  0  0  0  0  0
  140.4770   71.1610  225.6580 C   0  0  0  0  0  0  0  0  0  0  0  0
  140.4690   71.6990  224.4280 N   0  0  0  0  0  0  0  0  0  0  0  0
  140.8690   73.5280  222.8680 H   0  0  0  0  0  0  0  0  0  0  0  0
  141.1470   73.2979  220.0327 H   0  0  0  0  0  0  0  0  0  0  0  0
  139.5662   74.1686  220.5596 H   0  0  0  0  0  0  0  0  0  0  0  0
  140.4676   76.6501  218.2693 H   0  0  0  0  0  0  0  0  0  0  0  0
  140.3056   77.5461  219.8088 H   0  0  0  0  0  0  0  0  0  0  0  0
  141.4738   78.9814  218.1762 H   0  0  0  0  0  0  0  0  0  0  0  0
  142.6486   78.4739  219.4428 H   0  0  0  0  0  0  0  0  0  0  0  0
  142.4445   77.6599  216.5563 H   0  0  0  0  0  0  0  0  0  0  0  0
  143.8916   78.0262  217.5600 H   0  0  0  0  0  0  0  0  0  0  0  0
  142.2565   75.4524  217.4158 H   0  0  0  0  0  0  0  0  0  0  0  0
  144.0110   75.6358  217.3364 H   0  0  0  0  0  0  0  0  0  0  0  0
  143.7727   76.6935  219.8067 H   0  0  0  0  0  0  0  0  0  0  0  0
  142.5429   73.5255  218.3976 H   0  0  0  0  0  0  0  0  0  0  0  0
  143.5874   71.3579  219.0580 H   0  0  0  0  0  0  0  0  0  0  0  0
  145.3779   71.2543  220.7082 H   0  0  0  0  0  0  0  0  0  0  0  0
  146.2574   73.3567  221.8205 H   0  0  0  0  0  0  0  0  0  0  0  0
  145.2011   75.4967  221.1343 H   0  0  0  0  0  0  0  0  0  0  0  0
  138.8578   69.4078  222.6266 H   0  0  0  0  0  0  0  0  0  0  0  0
  138.7980   68.2975  224.8423 H   0  0  0  0  0  0  0  0  0  0  0  0
  139.3926   68.3584  227.2413 H   0  0  0  0  0  0  0  0  0  0  0  0
  140.4554   69.5474  229.1250 H   0  0  0  0  0  0  0  0  0  0  0  0
  141.5448   72.8139  226.5484 H   0  0  0  0  0  0  0  0  0  0  0  0
  1  2  2  0
  2  3  1  0
  3  4  1  0
  4  5  1  0
  5  6  2  0
  5  7  1  0
  7  8  1  0
  8  9  1  0
  9 10  1  0
 10 11  1  0
 11 12  1  0
 12 13  1  0
 13 14  2  0
 14 15  1  0
 15 16  2  0
 16 17  1  0
 17 18  2  0
  2 19  1  0
 19 20  2  0
 20 21  1  0
 21 22  2  0
 22 23  1  0
 23 24  2  0
 24 25  1  0
 25 26  1  0
 25 27  2  0
 27 28  1  0
 28 29  2  0
 12  7  1  0
 18 13  1  0
 29 19  1  0
 28 22  1  0
  3 30  1  0
  4 31  1  0
  4 32  1  0
  8 33  1  0
  8 34  1  0
  9 35  1  0
  9 36  1  0
 10 37  1  0
 10 38  1  0
 11 39  1  0
 11 40  1  0
 12 41  1  1
 14 42  1  0
 15 43  1  0
 16 44  1  0
 17 45  1  0
 18 46  1  0
 20 47  1  0
 21 48  1  0
 23 49  1  0
 24 50  1  0
 27 51  1  0
M  END
>  <smiles>  (13) 
O=C(NCC(=O)N1CCCCC1c1ccccc1)c1ccc2ccc(F)cc2n1

>  <score_type>  (13) 
oracle

>  <origin>  (13) 
autodockgpu

>  <m_score__min__energy>  (13) 
-8.3300000000000001

>  <m_primary>  (13) 
energy

>  <rmsd>  (13) 
2.1387637817593648

>  <m_score__min__rmsd>  (13) 
2.1387637817593648

>  <meeko>  (13) 
{"free_energy": -7.8, "intermolecular_energy": -9.29, "internal_energy": -2.17, "cluster_size": 34, "cluster_id": 1, "rank_in_cluster": 29}

>  <energy>  (13) 
-8.06

>  <cluster_rmsd>  (13) 
0.21

>  <cluster>  (13) 
1

$$$$

     RDKit          3D

 51 54  0  0  0  0  0  0  0  0999 V2000
  138.5530   75.1780  221.8620 O   0  0  0  0  0  0  0  0  0  0  0  0
  139.7060   75.6600  221.9030 C   0  0  0  0  0  0  0  0  0  0  0  0
  140.8240   74.8870  221.4900 N   0  0  0  0  0  0  0  0  0  0  0  0
  140.7920   73.5630  220.9930 C   0  0  0  0  0  0  0  0  0  0  0  0
  141.8330   73.0960  220.0830 C   0  0  0  0  0  0  0  0  0  0  0  0
  141.3650   72.5060  219.0150 O   0  0  0  0  0  0  0  0  0  0  0  0
  143.2210   73.1660  220.1570 N   0  0  0  0  0  0  0  0  0  0  0  0
  144.1000   72.1730  220.7830 C   0  0  0  0  0  0  0  0  0  0  0  0
  145.4810   72.2450  220.1010 C   0  0  0  0  0  0  0  0  0  0  0  0
  146.1310   73.5770  220.3900 C   0  0  0  0  0  0  0  0  0  0  0  0
  145.0520   74.6550  220.5570 C   0  0  0  0  0  0  0  0  0  0  0  0
  143.9570   74.2880  219.5510 C   0  0  2  0  0  0  0  0  0  0  0  0
  143.1220   75.4510  219.2100 C   0  0  0  0  0  0  0  0  0  0  0  0
  142.4450   75.3470  217.9710 C   0  0  0  0  0  0  0  0  0  0  0  0
  141.6630   76.4290  217.5910 C   0  0  0  0  0  0  0  0  0  0  0  0
  141.5430   77.5530  218.3660 C   0  0  0  0  0  0  0  0  0  0  0  0
  142.2070   77.6790  219.6000 C   0  0  0  0  0  0  0  0  0  0  0  0
  142.9750   76.5840  219.9500 C   0  0  0  0  0  0  0  0  0  0  0  0
  139.8990   77.0340  222.3790 C   0  0  0  0  0  0  0  0  0  0  0  0
  138.8410   77.8570  222.6840 C   0  0  0  0  0  0  0  0  0  0  0  0
  139.0490   79.1460  223.1310 C   0  0  0  0  0  0  0  0  0  0  0  0
  140.3580   79.6120  223.2730 C   0  0  0  0  0  0  0  0  0  0  0  0
  140.6270   80.8900  223.7180 C   0  0  0  0  0  0  0  0  0  0  0  0
  141.9390   81.2960  223.8430 C   0  0  0  0  0  0  0  0  0  0  0  0
  142.9950   80.4710  223.5370 C   0  0  0  0  0  0  0  0  0  0  0  0
  144.2910   80.9050  223.6690 F   0  0  0  0  0  0  0  0  0  0  0  0
  142.7410   79.1730  223.0850 C   0  0  0  0  0  0  0  0  0  0  0  0
  141.4290   78.7680  222.9620 C   0  0  0  0  0  0  0  0  0  0  0  0
  141.1430   77.5290  222.5330 N   0  0  0  0  0  0  0  0  0  0  0  0
  141.7670   75.3780  221.5710 H   0  0  0  0  0  0  0  0  0  0  0  0
  140.8130   72.8959  221.8673 H   0  0  0  0  0  0  0  0  0  0  0  0
  139.8876   73.5517  220.3669 H   0  0  0  0  0  0  0  0  0  0  0  0
  144.2038   72.3928  221.8558 H   0  0  0  0  0  0  0  0  0  0  0  0
  143.6740   71.1655  220.6673 H   0  0  0  0  0  0  0  0  0  0  0  0
  146.1200   71.4367  220.4861 H   0  0  0  0  0  0  0  0  0  0  0  0
  145.3531   72.1339  219.0141 H   0  0  0  0  0  0  0  0  0  0  0  0
  146.7200   73.5029  221.3161 H   0  0  0  0  0  0  0  0  0  0  0  0
  146.7906   73.8492  219.5528 H   0  0  0  0  0  0  0  0  0  0  0  0
  144.6528   74.6454  221.5820 H   0  0  0  0  0  0  0  0  0  0  0  0
  145.4500   75.6652  220.3806 H   0  0  0  0  0  0  0  0  0  0  0  0
  144.3664   73.9768  218.5786 H   0  0  0  0  0  0  0  0  0  0  0  0
  142.5345   74.4510  217.3392 H   0  0  0  0  0  0  0  0  0  0  0  0
  141.1209   76.3828  216.6350 H   0  0  0  0  0  0  0  0  0  0  0  0
  140.9095   78.3802  218.0132 H   0  0  0  0  0  0  0  0  0  0  0  0
  142.1221   78.5742  220.2336 H   0  0  0  0  0  0  0  0  0  0  0  0
  143.5132   76.6325  220.9081 H   0  0  0  0  0  0  0  0  0  0  0  0
  137.8130   77.4825  222.5701 H   0  0  0  0  0  0  0  0  0  0  0  0
  138.1959   79.7972  223.3720 H   0  0  0  0  0  0  0  0  0  0  0  0
  139.8052   81.5765  223.9699 H   0  0  0  0  0  0  0  0  0  0  0  0
  142.1477   82.3153  224.1999 H   0  0  0  0  0  0  0  0  0  0  0  0
  143.5673   78.4917  222.8337 H   0  0  0  0  0  0  0  0  0  0  0  0
  1  2  2  0
  2  3  1  0
  3  4  1  0
  4  5  1  0
  5  6  2  0
  5  7  1  0
  7  8  1  0
  8  9  1  0
  9 10  1  0
 10 11  1  0
 11 12  1  0
 12 13  1  0
 13 14  2  0
 14 15  1  0
 15 16  2  0
 16 17  1  0
 17 18  2  0
  2 19  1  0
 19 20  2  0
 20 21  1  0
 21 22  2  0
 22 23  1  0
 23 24  2  0
 24 25  1  0
 25 26  1  0
 25 27  2  0
 27 28  1  0
 28 29  2  0
 12  7  1  0
 18 13  1  0
 29 19  1  0
 28 22  1  0
  3 30  1  0
  4 31  1  0
  4 32  1  0
  8 33  1  0
  8 34  1  0
  9 35  1  0
  9 36  1  0
 10 37  1  0
 10 38  1  0
 11 39  1  0
 11 40  1  0
 12 41  1  6
 14 42  1  0
 15 43  1  0
 16 44  1  0
 17 45  1  0
 18 46  1  0
 20 47  1  0
 21 48  1  0
 23 49  1  0
 24 50  1  0
 27 51  1  0
M  END
>  <smiles>  (14) 
O=C(NCC(=O)N1CCCCC1c1ccccc1)c1ccc2ccc(F)cc2n1

>  <score_type>  (14) 
oracle

>  <origin>  (14) 
autodockgpu

>  <m_score__min__energy>  (14) 
-8.3300000000000001

>  <m_primary>  (14) 
energy

>  <rmsd>  (14) 
7.519181133160041

>  <m_score__min__rmsd>  (14) 
7.519181133160041

>  <meeko>  (14) 
{"free_energy": -7.04, "intermolecular_energy": -8.54, "internal_energy": -2.52, "cluster_size": 8, "cluster_id": 6, "rank_in_cluster": 5}

>  <energy>  (14) 
-8.06

>  <cluster_rmsd>  (14) 
0.26

>  <cluster>  (14) 
1

$$$$

     RDKit          3D

 51 54  0  0  0  0  0  0  0  0999 V2000
  141.2790   74.6870  221.0390 O   0  0  0  0  0  0  0  0  0  0  0  0
  140.3450   74.9200  221.8360 C   0  0  0  0  0  0  0  0  0  0  0  0
  139.5390   73.8580  222.3290 N   0  0  0  0  0  0  0  0  0  0  0  0
  139.6810   72.4850  222.0220 C   0  0  0  0  0  0  0  0  0  0  0  0
  138.8220   71.4970  222.6690 C   0  0  0  0  0  0  0  0  0  0  0  0
  137.8950   72.0260  223.4230 O   0  0  0  0  0  0  0  0  0  0  0  0
  138.8240   70.1050  222.6260 N   0  0  0  0  0  0  0  0  0  0  0  0
  138.1450   69.2750  221.6260 C   0  0  0  0  0  0  0  0  0  0  0  0
  138.8970   67.9340  221.5120 C   0  0  0  0  0  0  0  0  0  0  0  0
  138.7790   67.1640  222.8060 C   0  0  0  0  0  0  0  0  0  0  0  0
  138.6710   68.1410  223.9830 C   0  0  0  0  0  0  0  0  0  0  0  0
  139.5780   69.3180  223.6150 C   0  0  2  0  0  0  0  0  0  0  0  0
  139.9950   70.0750  224.8060 C   0  0  0  0  0  0  0  0  0  0  0  0
  139.4420   69.6100  226.0230 C   0  0  0  0  0  0  0  0  0  0  0  0
  139.7840   70.3060  227.1740 C   0  0  0  0  0  0  0  0  0  0  0  0
  140.6150   71.3950  227.1510 C   0  0  0  0  0  0  0  0  0  0  0  0
  141.1760   71.8760  225.9530 C   0  0  0  0  0  0  0  0  0  0  0  0
  140.8170   71.1590  224.8260 C   0  0  0  0  0  0  0  0  0  0  0  0
  140.0850   76.2980  222.2640 C   0  0  0  0  0  0  0  0  0  0  0  0
  138.8120   76.8130  222.3350 C   0  0  0  0  0  0  0  0  0  0  0  0
  138.5930   78.1140  222.7410 C   0  0  0  0  0  0  0  0  0  0  0  0
  139.6880   78.9110  223.0830 C   0  0  0  0  0  0  0  0  0  0  0  0
  139.5290   80.2170  223.4980 C   0  0  0  0  0  0  0  0  0  0  0  0
  140.6460   80.9580  223.8260 C   0  0  0  0  0  0  0  0  0  0  0  0
  141.9170   80.4400  223.7530 C   0  0  0  0  0  0  0  0  0  0  0  0
  143.0100   81.2050  224.0840 F   0  0  0  0  0  0  0  0  0  0  0  0
  142.0960   79.1190  223.3350 C   0  0  0  0  0  0  0  0  0  0  0  0
  140.9790   78.3800  223.0090 C   0  0  0  0  0  0  0  0  0  0  0  0
  141.1070   77.1070  222.6040 N   0  0  0  0  0  0  0  0  0  0  0  0
  138.7600   74.1540  222.9940 H   0  0  0  0  0  0  0  0  0  0  0  0
  139.5199   72.3841  220.9385 H   0  0  0  0  0  0  0  0  0  0  0  0
  140.6809   72.2423  222.4109 H   0  0  0  0  0  0  0  0  0  0  0  0
  137.1062   69.0926  221.9385 H   0  0  0  0  0  0  0  0  0  0  0  0
  138.1379   69.7873  220.6526 H   0  0  0  0  0  0  0  0  0  0  0  0
  138.4620   67.3408  220.6941 H   0  0  0  0  0  0  0  0  0  0  0  0
  139.9591   68.1320  221.3052 H   0  0  0  0  0  0  0  0  0  0  0  0
  137.8803   66.5305  222.7735 H   0  0  0  0  0  0  0  0  0  0  0  0
  139.6714   66.5344  222.9370 H   0  0  0  0  0  0  0  0  0  0  0  0
  137.6320   68.4797  224.1086 H   0  0  0  0  0  0  0  0  0  0  0  0
  138.9703   67.6738  224.9328 H   0  0  0  0  0  0  0  0  0  0  0  0
  140.5326   68.9923  223.1760 H   0  0  0  0  0  0  0  0  0  0  0  0
  138.7725   68.7378  226.0551 H   0  0  0  0  0  0  0  0  0  0  0  0
  139.3736   69.9717  228.1382 H   0  0  0  0  0  0  0  0  0  0  0  0
  140.8504   71.9078  228.0952 H   0  0  0  0  0  0  0  0  0  0  0  0
  141.8441   72.7491  225.9162 H   0  0  0  0  0  0  0  0  0  0  0  0
  141.2315   71.4938  223.8637 H   0  0  0  0  0  0  0  0  0  0  0  0
  137.9552   76.1786  222.0642 H   0  0  0  0  0  0  0  0  0  0  0  0
  137.5710   78.5173  222.7944 H   0  0  0  0  0  0  0  0  0  0  0  0
  138.5253   80.6618  223.5665 H   0  0  0  0  0  0  0  0  0  0  0  0
  140.5147   81.9987  224.1572 H   0  0  0  0  0  0  0  0  0  0  0  0
  143.1023   78.6800  223.2678 H   0  0  0  0  0  0  0  0  0  0  0  0
  1  2  2  0
  2  3  1  0
  3  4  1  0
  4  5  1  0
  5  6  2  0
  5  7  1  0
  7  8  1  0
  8  9  1  0
  9 10  1  0
 10 11  1  0
 11 12  1  0
 12 13  1  0
 13 14  2  0
 14 15  1  0
 15 16  2  0
 16 17  1  0
 17 18  2  0
  2 19  1  0
 19 20  2  0
 20 21  1  0
 21 22  2  0
 22 23  1  0
 23 24  2  0
 24 25  1  0
 25 26  1  0
 25 27  2  0
 27 28  1  0
 28 29  2  0
 12  7  1  0
 18 13  1  0
 29 19  1  0
 28 22  1  0
  3 30  1  0
  4 31  1  0
  4 32  1  0
  8 33  1  0
  8 34  1  0
  9 35  1  0
  9 36  1  0
 10 37  1  0
 10 38  1  0
 11 39  1  0
 11 40  1  0
 12 41  1  6
 14 42  1  0
 15 43  1  0
 16 44  1  0
 17 45  1  0
 18 46  1  0
 20 47  1  0
 21 48  1  0
 23 49  1  0
 24 50  1  0
 27 51  1  0
M  END
>  <smiles>  (15) 
O=C(NCC(=O)N1CCCCC1c1ccccc1)c1ccc2ccc(F)cc2n1

>  <score_type>  (15) 
oracle

>  <origin>  (15) 
autodockgpu

>  <m_score__min__energy>  (15) 
-8.3300000000000001

>  <m_primary>  (15) 
energy

>  <rmsd>  (15) 
8.210720767003597

>  <m_score__min__rmsd>  (15) 
8.210720767003597

>  <meeko>  (15) 
{"free_energy": -7.99, "intermolecular_energy": -9.49, "internal_energy": -1.62, "cluster_size": 2, "cluster_id": 2, "rank_in_cluster": 1}

>  <energy>  (15) 
-8.01

>  <cluster_rmsd>  (15) 
0.93

>  <cluster>  (15) 
1

$$$$

     RDKit          3D

 51 54  0  0  0  0  0  0  0  0999 V2000
  139.9770   71.2520  221.0640 O   0  0  0  0  0  0  0  0  0  0  0  0
  139.9670   71.8980  222.1340 C   0  0  0  0  0  0  0  0  0  0  0  0
  140.0550   73.3160  222.1190 N   0  0  0  0  0  0  0  0  0  0  0  0
  140.1420   74.1390  220.9720 C   0  0  0  0  0  0  0  0  0  0  0  0
  140.8770   75.4000  221.0290 C   0  0  0  0  0  0  0  0  0  0  0  0
  141.0740   75.8330  222.2460 O   0  0  0  0  0  0  0  0  0  0  0  0
  141.3920   76.2120  220.0230 N   0  0  0  0  0  0  0  0  0  0  0  0
  140.7180   77.3670  219.4200 C   0  0  0  0  0  0  0  0  0  0  0  0
  141.7930   78.3400  218.8960 C   0  0  0  0  0  0  0  0  0  0  0  0
  142.5600   77.7020  217.7640 C   0  0  0  0  0  0  0  0  0  0  0  0
  142.6160   76.1820  217.9670 C   0  0  0  0  0  0  0  0  0  0  0  0
  142.7410   75.9820  219.4800 C   0  0  2  0  0  0  0  0  0  0  0  0
  143.3140   74.6670  219.8080 C   0  0  0  0  0  0  0  0  0  0  0  0
  144.5620   74.7180  220.4730 C   0  0  0  0  0  0  0  0  0  0  0  0
  145.1570   73.5020  220.7830 C   0  0  0  0  0  0  0  0  0  0  0  0
  144.5780   72.3020  220.4650 C   0  0  0  0  0  0  0  0  0  0  0  0
  143.3380   72.2270  219.8040 C   0  0  0  0  0  0  0  0  0  0  0  0
  142.7720   73.4550  219.5120 C   0  0  0  0  0  0  0  0  0  0  0  0
  139.8630   71.1830  223.4100 C   0  0  0  0  0  0  0  0  0  0  0  0
  139.1480   70.0150  223.5370 C   0  0  0  0  0  0  0  0  0  0  0  0
  139.0650   69.3600  224.7490 C   0  0  0  0  0  0  0  0  0  0  0  0
  139.7210   69.9000  225.8580 C   0  0  0  0  0  0  0  0  0  0  0  0
  139.6750   69.2870  227.0930 C   0  0  0  0  0  0  0  0  0  0  0  0
  140.3440   69.8630  228.1540 C   0  0  0  0  0  0  0  0  0  0  0  0
  141.0580   71.0310  228.0240 C   0  0  0  0  0  0  0  0  0  0  0  0
  141.7110   71.5820  229.0990 F   0  0  0  0  0  0  0  0  0  0  0  0
  141.1150   71.6640  226.7790 C   0  0  0  0  0  0  0  0  0  0  0  0
  140.4460   71.0870  225.7210 C   0  0  0  0  0  0  0  0  0  0  0  0
  140.4780   71.6620  224.5090 N   0  0  0  0  0  0  0  0  0  0  0  0
  140.0520   73.7790  223.0800 H   0  0  0  0  0  0  0  0  0  0  0  0
  140.6115   73.5338  220.1825 H   0  0  0  0  0  0  0  0  0  0  0  0
  139.1021   74.4608  220.8137 H   0  0  0  0  0  0  0  0  0  0  0  0
  140.0821   77.0327  218.5871 H   0  0  0  0  0  0  0  0  0  0  0  0
  140.0870   77.8689  220.1682 H   0  0  0  0  0  0  0  0  0  0  0  0
  141.3076   79.2586  218.5347 H   0  0  0  0  0  0  0  0  0  0  0  0
  142.4894   78.5818  219.7124 H   0  0  0  0  0  0  0  0  0  0  0  0
  142.0579   77.9251  216.8111 H   0  0  0  0  0  0  0  0  0  0  0  0
  143.5836   78.1044  217.7462 H   0  0  0  0  0  0  0  0  0  0  0  0
  141.6973   75.7086  217.5902 H   0  0  0  0  0  0  0  0  0  0  0  0
  143.4553   75.7256  217.4218 H   0  0  0  0  0  0  0  0  0  0  0  0
  143.4483   76.6874  219.9407 H   0  0  0  0  0  0  0  0  0  0  0  0
  145.0382   75.6752  220.7321 H   0  0  0  0  0  0  0  0  0  0  0  0
  146.1269   73.5025  221.3019 H   0  0  0  0  0  0  0  0  0  0  0  0
  145.0972   71.3703  220.7340 H   0  0  0  0  0  0  0  0  0  0  0  0
  142.8590   71.2722  219.5416 H   0  0  0  0  0  0  0  0  0  0  0  0
  141.8004   73.4510  218.9962 H   0  0  0  0  0  0  0  0  0  0  0  0
  138.6343   69.5964  222.6590 H   0  0  0  0  0  0  0  0  0  0  0  0
  138.4907   68.4263  224.8405 H   0  0  0  0  0  0  0  0  0  0  0  0
  139.1127   68.3516  227.2303 H   0  0  0  0  0  0  0  0  0  0  0  0
  140.3047   69.3710  229.1370 H   0  0  0  0  0  0  0  0  0  0  0  0
  141.6794   72.5989  226.6470 H   0  0  0  0  0  0  0  0  0  0  0  0
  1  2  2  0
  2  3  1  0
  3  4  1  0
  4  5  1  0
  5  6  2  0
  5  7  1  0
  7  8  1  0
  8  9  1  0
  9 10  1  0
 10 11  1  0
 11 12  1  0
 12 13  1  0
 13 14  2  0
 14 15  1  0
 15 16  2  0
 16 17  1  0
 17 18  2  0
  2 19  1  0
 19 20  2  0
 20 21  1  0
 21 22  2  0
 22 23  1  0
 23 24  2  0
 24 25  1  0
 25 26  1  0
 25 27  2  0
 27 28  1  0
 28 29  2  0
 12  7  1  0
 18 13  1  0
 29 19  1  0
 28 22  1  0
  3 30  1  0
  4 31  1  0
  4 32  1  0
  8 33  1  0
  8 34  1  0
  9 35  1  0
  9 36  1  0
 10 37  1  0
 10 38  1  0
 11 39  1  0
 11 40  1  0
 12 41  1  1
 14 42  1  0
 15 43  1  0
 16 44  1  0
 17 45  1  0
 18 46  1  0
 20 47  1  0
 21 48  1  0
 23 49  1  0
 24 50  1  0
 27 51  1  0
M  END
>  <smiles>  (16) 
O=C(NCC(=O)N1CCCCC1c1ccccc1)c1ccc2ccc(F)cc2n1

>  <score_type>  (16) 
oracle

>  <origin>  (16) 
autodockgpu

>  <m_score__min__energy>  (16) 
-8.3300000000000001

>  <m_primary>  (16) 
energy

>  <rmsd>  (16) 
2.0107057345118524

>  <m_score__min__rmsd>  (16) 
2.0107057345118524

>  <meeko>  (16) 
{"free_energy": -8.06, "intermolecular_energy": -9.55, "internal_energy": -1.97, "cluster_size": 34, "cluster_id": 1, "rank_in_cluster": 14}

>  <energy>  (16) 
-7.99

>  <cluster_rmsd>  (16) 
0.26

>  <cluster>  (16) 
1

$$$$

     RDKit          3D

 51 54  0  0  0  0  0  0  0  0999 V2000
  139.9250   73.8460  222.3130 O   0  0  0  0  0  0  0  0  0  0  0  0
  140.1740   72.6250  222.2160 C   0  0  0  0  0  0  0  0  0  0  0  0
  140.5570   72.0670  220.9670 N   0  0  0  0  0  0  0  0  0  0  0  0
  140.7150   72.7670  219.7470 C   0  0  0  0  0  0  0  0  0  0  0  0
  141.9660   72.6640  219.0010 C   0  0  0  0  0  0  0  0  0  0  0  0
  141.7950   72.5490  217.7110 O   0  0  0  0  0  0  0  0  0  0  0  0
  143.2930   72.6630  219.4230 N   0  0  0  0  0  0  0  0  0  0  0  0
  144.1280   71.4750  219.6310 C   0  0  0  0  0  0  0  0  0  0  0  0
  145.6030   71.8740  219.4290 C   0  0  0  0  0  0  0  0  0  0  0  0
  146.0280   72.8440  220.5050 C   0  0  0  0  0  0  0  0  0  0  0  0
  144.8270   73.6890  220.9460 C   0  0  0  0  0  0  0  0  0  0  0  0
  144.0100   73.9240  219.6720 C   0  0  2  0  0  0  0  0  0  0  0  0
  143.1410   75.1050  219.7950 C   0  0  0  0  0  0  0  0  0  0  0  0
  143.3410   76.0900  218.7990 C   0  0  0  0  0  0  0  0  0  0  0  0
  142.5620   77.2360  218.8850 C   0  0  0  0  0  0  0  0  0  0  0  0
  141.6410   77.4210  219.8820 C   0  0  0  0  0  0  0  0  0  0  0  0
  141.4250   76.4570  220.8830 C   0  0  0  0  0  0  0  0  0  0  0  0
  142.2150   75.3270  220.7670 C   0  0  0  0  0  0  0  0  0  0  0  0
  140.0710   71.7690  223.4020 C   0  0  0  0  0  0  0  0  0  0  0  0
  139.3730   70.5850  223.3890 C   0  0  0  0  0  0  0  0  0  0  0  0
  139.2910   69.7960  224.5190 C   0  0  0  0  0  0  0  0  0  0  0  0
  139.9310   70.2160  225.6870 C   0  0  0  0  0  0  0  0  0  0  0  0
  139.8860   69.4670  226.8460 C   0  0  0  0  0  0  0  0  0  0  0  0
  140.5390   69.9290  227.9700 C   0  0  0  0  0  0  0  0  0  0  0  0
  141.2360   71.1130  227.9790 C   0  0  0  0  0  0  0  0  0  0  0  0
  141.8730   71.5480  229.1150 F   0  0  0  0  0  0  0  0  0  0  0  0
  141.2920   71.8840  226.8150 C   0  0  0  0  0  0  0  0  0  0  0  0
  140.6400   71.4210  225.6920 C   0  0  0  0  0  0  0  0  0  0  0  0
  140.6710   72.1300  224.5530 N   0  0  0  0  0  0  0  0  0  0  0  0
  140.7380   71.0160  220.9780 H   0  0  0  0  0  0  0  0  0  0  0  0
  139.9159   72.4190  219.0759 H   0  0  0  0  0  0  0  0  0  0  0  0
  140.6926   73.8221  220.0571 H   0  0  0  0  0  0  0  0  0  0  0  0
  143.9831   71.0936  220.6525 H   0  0  0  0  0  0  0  0  0  0  0  0
  143.8487   70.6874  218.9156 H   0  0  0  0  0  0  0  0  0  0  0  0
  146.2339   70.9743  219.4798 H   0  0  0  0  0  0  0  0  0  0  0  0
  145.7156   72.3538  218.4456 H   0  0  0  0  0  0  0  0  0  0  0  0
  146.4174   72.2843  221.3682 H   0  0  0  0  0  0  0  0  0  0  0  0
  146.8119   73.5060  220.1084 H   0  0  0  0  0  0  0  0  0  0  0  0
  144.2284   73.1476  221.6934 H   0  0  0  0  0  0  0  0  0  0  0  0
  145.1397   74.6344  221.4134 H   0  0  0  0  0  0  0  0  0  0  0  0
  144.6425   74.1652  218.8049 H   0  0  0  0  0  0  0  0  0  0  0  0
  144.0789   75.9542  217.9946 H   0  0  0  0  0  0  0  0  0  0  0  0
  142.6887   78.0225  218.1264 H   0  0  0  0  0  0  0  0  0  0  0  0
  141.0533   78.3506  219.9002 H   0  0  0  0  0  0  0  0  0  0  0  0
  140.6898   76.5902  221.6903 H   0  0  0  0  0  0  0  0  0  0  0  0
  142.0832   74.5411  221.5252 H   0  0  0  0  0  0  0  0  0  0  0  0
  138.8723   70.2613  222.4646 H   0  0  0  0  0  0  0  0  0  0  0  0
  138.7297   68.8502  224.4996 H   0  0  0  0  0  0  0  0  0  0  0  0
  139.3367   68.5144  226.8728 H   0  0  0  0  0  0  0  0  0  0  0  0
  140.5003   69.3287  228.8909 H   0  0  0  0  0  0  0  0  0  0  0  0
  141.8424   72.8362  226.7952 H   0  0  0  0  0  0  0  0  0  0  0  0
  1  2  2  0
  2  3  1  0
  3  4  1  0
  4  5  1  0
  5  6  2  0
  5  7  1  0
  7  8  1  0
  8  9  1  0
  9 10  1  0
 10 11  1  0
 11 12  1  0
 12 13  1  0
 13 14  2  0
 14 15  1  0
 15 16  2  0
 16 17  1  0
 17 18  2  0
  2 19  1  0
 19 20  2  0
 20 21  1  0
 21 22  2  0
 22 23  1  0
 23 24  2  0
 24 25  1  0
 25 26  1  0
 25 27  2  0
 27 28  1  0
 28 29  2  0
 12  7  1  0
 18 13  1  0
 29 19  1  0
 28 22  1  0
  3 30  1  0
  4 31  1  0
  4 32  1  0
  8 33  1  0
  8 34  1  0
  9 35  1  0
  9 36  1  0
 10 37  1  0
 10 38  1  0
 11 39  1  0
 11 40  1  0
 12 41  1  6
 14 42  1  0
 15 43  1  0
 16 44  1  0
 17 45  1  0
 18 46  1  0
 20 47  1  0
 21 48  1  0
 23 49  1  0
 24 50  1  0
 27 51  1  0
M  END
>  <smiles>  (17) 
O=C(NCC(=O)N1CCCCC1c1ccccc1)c1ccc2ccc(F)cc2n1

>  <score_type>  (17) 
oracle

>  <origin>  (17) 
autodockgpu

>  <m_score__min__energy>  (17) 
-8.3300000000000001

>  <m_primary>  (17) 
energy

>  <rmsd>  (17) 
4.005313145819217

>  <m_score__min__rmsd>  (17) 
4.005313145819217

>  <meeko>  (17) 
{"free_energy": -7.89, "intermolecular_energy": -9.38, "internal_energy": -1.57, "cluster_size": 2, "cluster_id": 3, "rank_in_cluster": 2}

>  <energy>  (17) 
-7.98

>  <cluster_rmsd>  (17) 
0.25

>  <cluster>  (17) 
1

$$$$

     RDKit          3D

 51 54  0  0  0  0  0  0  0  0999 V2000
  139.6980   71.1560  221.0640 O   0  0  0  0  0  0  0  0  0  0  0  0
  140.1470   71.7350  222.0770 C   0  0  0  0  0  0  0  0  0  0  0  0
  140.7710   73.0060  221.9620 N   0  0  0  0  0  0  0  0  0  0  0  0
  140.9450   73.7510  220.7710 C   0  0  0  0  0  0  0  0  0  0  0  0
  141.4410   75.1230  220.8310 C   0  0  0  0  0  0  0  0  0  0  0  0
  141.4470   75.6230  222.0390 O   0  0  0  0  0  0  0  0  0  0  0  0
  141.8960   75.9820  219.8350 N   0  0  0  0  0  0  0  0  0  0  0  0
  141.1130   77.0400  219.1870 C   0  0  0  0  0  0  0  0  0  0  0  0
  142.0830   78.1320  218.6940 C   0  0  0  0  0  0  0  0  0  0  0  0
  142.9710   77.5810  217.6050 C   0  0  0  0  0  0  0  0  0  0  0  0
  143.2040   76.0820  217.8330 C   0  0  0  0  0  0  0  0  0  0  0  0
  143.2860   75.9140  219.3530 C   0  0  2  0  0  0  0  0  0  0  0  0
  144.0000   74.6830  219.7250 C   0  0  0  0  0  0  0  0  0  0  0  0
  143.6510   73.5450  218.9600 C   0  0  0  0  0  0  0  0  0  0  0  0
  144.2780   72.3510  219.2880 C   0  0  0  0  0  0  0  0  0  0  0  0
  145.1940   72.2620  220.3040 C   0  0  0  0  0  0  0  0  0  0  0  0
  145.5560   73.3780  221.0790 C   0  0  0  0  0  0  0  0  0  0  0  0
  144.9140   74.5510  220.7250 C   0  0  0  0  0  0  0  0  0  0  0  0
  140.0240   71.0950  223.3900 C   0  0  0  0  0  0  0  0  0  0  0  0
  139.3420   69.9140  223.5670 C   0  0  0  0  0  0  0  0  0  0  0  0
  139.2410   69.3310  224.8130 C   0  0  0  0  0  0  0  0  0  0  0  0
  139.8450   69.9570  225.9060 C   0  0  0  0  0  0  0  0  0  0  0  0
  139.7790   69.4190  227.1750 C   0  0  0  0  0  0  0  0  0  0  0  0
  140.3960   70.0790  228.2180 C   0  0  0  0  0  0  0  0  0  0  0  0
  141.0770   71.2590  228.0380 C   0  0  0  0  0  0  0  0  0  0  0  0
  141.6800   71.8940  229.0970 F   0  0  0  0  0  0  0  0  0  0  0  0
  141.1540   71.8180  226.7600 C   0  0  0  0  0  0  0  0  0  0  0  0
  140.5380   71.1570  225.7190 C   0  0  0  0  0  0  0  0  0  0  0  0
  140.5890   71.6590  224.4760 N   0  0  0  0  0  0  0  0  0  0  0  0
  141.1340   73.4170  222.8760 H   0  0  0  0  0  0  0  0  0  0  0  0
  141.6504   73.1861  220.1439 H   0  0  0  0  0  0  0  0  0  0  0  0
  139.9175   73.8710  220.3969 H   0  0  0  0  0  0  0  0  0  0  0  0
  140.5593   76.6222  218.3333 H   0  0  0  0  0  0  0  0  0  0  0  0
  140.3936   77.4682  219.9006 H   0  0  0  0  0  0  0  0  0  0  0  0
  141.5055   78.9805  218.2985 H   0  0  0  0  0  0  0  0  0  0  0  0
  142.7083   78.4657  219.5352 H   0  0  0  0  0  0  0  0  0  0  0  0
  142.4872   77.7310  216.6285 H   0  0  0  0  0  0  0  0  0  0  0  0
  143.9375   78.1058  217.6243 H   0  0  0  0  0  0  0  0  0  0  0  0
  142.3678   75.4954  217.4248 H   0  0  0  0  0  0  0  0  0  0  0  0
  144.1160   75.7270  217.3307 H   0  0  0  0  0  0  0  0  0  0  0  0
  143.8809   76.7055  219.8322 H   0  0  0  0  0  0  0  0  0  0  0  0
  142.9167   73.6039  218.1431 H   0  0  0  0  0  0  0  0  0  0  0  0
  144.0317   71.4459  218.7135 H   0  0  0  0  0  0  0  0  0  0  0  0
  145.6595   71.2889  220.5193 H   0  0  0  0  0  0  0  0  0  0  0  0
  146.2882   73.3229  221.8980 H   0  0  0  0  0  0  0  0  0  0  0  0
  145.1634   75.4544  221.3009 H   0  0  0  0  0  0  0  0  0  0  0  0
  138.8696   69.4266  222.7014 H   0  0  0  0  0  0  0  0  0  0  0  0
  138.6926   68.3865  224.9441 H   0  0  0  0  0  0  0  0  0  0  0  0
  139.2414   68.4760  227.3529 H   0  0  0  0  0  0  0  0  0  0  0  0
  140.3409   69.6460  229.2277 H   0  0  0  0  0  0  0  0  0  0  0  0
  141.6926   72.7617  226.5888 H   0  0  0  0  0  0  0  0  0  0  0  0
  1  2  2  0
  2  3  1  0
  3  4  1  0
  4  5  1  0
  5  6  2  0
  5  7  1  0
  7  8  1  0
  8  9  1  0
  9 10  1  0
 10 11  1  0
 11 12  1  0
 12 13  1  0
 13 14  2  0
 14 15  1  0
 15 16  2  0
 16 17  1  0
 17 18  2  0
  2 19  1  0
 19 20  2  0
 20 21  1  0
 21 22  2  0
 22 23  1  0
 23 24  2  0
 24 25  1  0
 25 26  1  0
 25 27  2  0
 27 28  1  0
 28 29  2  0
 12  7  1  0
 18 13  1  0
 29 19  1  0
 28 22  1  0
  3 30  1  0
  4 31  1  0
  4 32  1  0
  8 33  1  0
  8 34  1  0
  9 35  1  0
  9 36  1  0
 10 37  1  0
 10 38  1  0
 11 39  1  0
 11 40  1  0
 12 41  1  1
 14 42  1  0
 15 43  1  0
 16 44  1  0
 17 45  1  0
 18 46  1  0
 20 47  1  0
 21 48  1  0
 23 49  1  0
 24 50  1  0
 27 51  1  0
M  END
>  <smiles>  (18) 
O=C(NCC(=O)N1CCCCC1c1ccccc1)c1ccc2ccc(F)cc2n1

>  <score_type>  (18) 
oracle

>  <origin>  (18) 
autodockgpu

>  <m_score__min__energy>  (18) 
-8.3300000000000001

>  <m_primary>  (18) 
energy

>  <rmsd>  (18) 
2.2469618700879956

>  <m_score__min__rmsd>  (18) 
2.2469618700879956

>  <meeko>  (18) 
{"free_energy": -7.91, "intermolecular_energy": -9.41, "internal_energy": -2.15, "cluster_size": 34, "cluster_id": 1, "rank_in_cluster": 21}

>  <energy>  (18) 
-7.95

>  <cluster_rmsd>  (18) 
0.82

>  <cluster>  (18) 
1

$$$$

     RDKit          3D

 51 54  0  0  0  0  0  0  0  0999 V2000
  140.1150   71.3660  221.0050 O   0  0  0  0  0  0  0  0  0  0  0  0
  140.0350   71.9800  222.0910 C   0  0  0  0  0  0  0  0  0  0  0  0
  140.0160   73.4010  222.1140 N   0  0  0  0  0  0  0  0  0  0  0  0
  140.0640   74.2590  220.9910 C   0  0  0  0  0  0  0  0  0  0  0  0
  140.8170   75.5080  221.0550 C   0  0  0  0  0  0  0  0  0  0  0  0
  140.9610   75.9690  222.2700 O   0  0  0  0  0  0  0  0  0  0  0  0
  141.3970   76.2870  220.0570 N   0  0  0  0  0  0  0  0  0  0  0  0
  140.8180   77.4970  219.4650 C   0  0  0  0  0  0  0  0  0  0  0  0
  141.9670   78.3870  218.9520 C   0  0  0  0  0  0  0  0  0  0  0  0
  142.6840   77.7010  217.8140 C   0  0  0  0  0  0  0  0  0  0  0  0
  142.6190   76.1800  218.0020 C   0  0  0  0  0  0  0  0  0  0  0  0
  142.7250   75.9560  219.5140 C   0  0  2  0  0  0  0  0  0  0  0  0
  143.1910   74.5970  219.8300 C   0  0  0  0  0  0  0  0  0  0  0  0
  144.3920   74.5440  220.5750 C   0  0  0  0  0  0  0  0  0  0  0  0
  144.8880   73.2830  220.8780 C   0  0  0  0  0  0  0  0  0  0  0  0
  144.2570   72.1340  220.4790 C   0  0  0  0  0  0  0  0  0  0  0  0
  143.0620   72.1610  219.7370 C   0  0  0  0  0  0  0  0  0  0  0  0
  142.5950   73.4320  219.4540 C   0  0  0  0  0  0  0  0  0  0  0  0
  139.9590   71.2250  223.3450 C   0  0  0  0  0  0  0  0  0  0  0  0
  139.3280   70.0050  223.4270 C   0  0  0  0  0  0  0  0  0  0  0  0
  139.2700   69.3130  224.6190 C   0  0  0  0  0  0  0  0  0  0  0  0
  139.8650   69.8680  225.7550 C   0  0  0  0  0  0  0  0  0  0  0  0
  139.8400   69.2210  226.9730 C   0  0  0  0  0  0  0  0  0  0  0  0
  140.4460   69.8140  228.0620 C   0  0  0  0  0  0  0  0  0  0  0  0
  141.0760   71.0330  227.9770 C   0  0  0  0  0  0  0  0  0  0  0  0
  141.6670   71.5990  229.0800 F   0  0  0  0  0  0  0  0  0  0  0  0
  141.1100   71.7020  226.7510 C   0  0  0  0  0  0  0  0  0  0  0  0
  140.5050   71.1080  225.6640 C   0  0  0  0  0  0  0  0  0  0  0  0
  140.5170   71.7170  224.4680 N   0  0  0  0  0  0  0  0  0  0  0  0
  139.9580   73.8360  223.0860 H   0  0  0  0  0  0  0  0  0  0  0  0
  140.4905   73.6738  220.1630 H   0  0  0  0  0  0  0  0  0  0  0  0
  139.0226   74.5981  220.8889 H   0  0  0  0  0  0  0  0  0  0  0  0
  140.1592   77.2222  218.6281 H   0  0  0  0  0  0  0  0  0  0  0  0
  140.2273   78.0399  220.2176 H   0  0  0  0  0  0  0  0  0  0  0  0
  141.5562   79.3445  218.5991 H   0  0  0  0  0  0  0  0  0  0  0  0
  142.6787   78.5653  219.7716 H   0  0  0  0  0  0  0  0  0  0  0  0
  142.2032   77.9724  216.8626 H   0  0  0  0  0  0  0  0  0  0  0  0
  143.7363   78.0212  217.8015 H   0  0  0  0  0  0  0  0  0  0  0  0
  141.6664   75.7846  217.6195 H   0  0  0  0  0  0  0  0  0  0  0  0
  143.4205   75.6638  217.4532 H   0  0  0  0  0  0  0  0  0  0  0  0
  143.4852   76.5983  219.9825 H   0  0  0  0  0  0  0  0  0  0  0  0
  144.9091   75.4591  220.8993 H   0  0  0  0  0  0  0  0  0  0  0  0
  145.8192   73.2037  221.4581 H   0  0  0  0  0  0  0  0  0  0  0  0
  144.6976   71.1623  220.7466 H   0  0  0  0  0  0  0  0  0  0  0  0
  142.5427   71.2483  219.4095 H   0  0  0  0  0  0  0  0  0  0  0  0
  141.6624   73.5080  218.8757 H   0  0  0  0  0  0  0  0  0  0  0  0
  138.8625   69.5747  222.5280 H   0  0  0  0  0  0  0  0  0  0  0  0
  138.7628   68.3385  224.6744 H   0  0  0  0  0  0  0  0  0  0  0  0
  139.3434   68.2448  227.0751 H   0  0  0  0  0  0  0  0  0  0  0  0
  140.4242   69.2936  229.0309 H   0  0  0  0  0  0  0  0  0  0  0  0
  141.6072   72.6786  226.6554 H   0  0  0  0  0  0  0  0  0  0  0  0
  1  2  2  0
  2  3  1  0
  3  4  1  0
  4  5  1  0
  5  6  2  0
  5  7  1  0
  7  8  1  0
  8  9  1  0
  9 10  1  0
 10 11  1  0
 11 12  1  0
 12 13  1  0
 13 14  2  0
 14 15  1  0
 15 16  2  0
 16 17  1  0
 17 18  2  0
  2 19  1  0
 19 20  2  0
 20 21  1  0
 21 22  2  0
 22 23  1  0
 23 24  2  0
 24 25  1  0
 25 26  1  0
 25 27  2  0
 27 28  1  0
 28 29  2  0
 12  7  1  0
 18 13  1  0
 29 19  1  0
 28 22  1  0
  3 30  1  0
  4 31  1  0
  4 32  1  0
  8 33  1  0
  8 34  1  0
  9 35  1  0
  9 36  1  0
 10 37  1  0
 10 38  1  0
 11 39  1  0
 11 40  1  0
 12 41  1  1
 14 42  1  0
 15 43  1  0
 16 44  1  0
 17 45  1  0
 18 46  1  0
 20 47  1  0
 21 48  1  0
 23 49  1  0
 24 50  1  0
 27 51  1  0
M  END
>  <smiles>  (19) 
O=C(NCC(=O)N1CCCCC1c1ccccc1)c1ccc2ccc(F)cc2n1

>  <score_type>  (19) 
oracle

>  <origin>  (19) 
autodockgpu

>  <m_score__min__energy>  (19) 
-8.3300000000000001

>  <m_primary>  (19) 
energy

>  <rmsd>  (19) 
2.0428959085932905

>  <m_score__min__rmsd>  (19) 
2.0428959085932905

>  <meeko>  (19) 
{"free_energy": -7.99, "intermolecular_energy": -9.49, "internal_energy": -2.02, "cluster_size": 34, "cluster_id": 1, "rank_in_cluster": 16}

>  <energy>  (19) 
-7.92

>  <cluster_rmsd>  (19) 
0.86

>  <cluster>  (19) 
1

$$$$

     RDKit          3D

 51 54  0  0  0  0  0  0  0  0999 V2000
  139.2860   71.3410  221.1230 O   0  0  0  0  0  0  0  0  0  0  0  0
  139.8840   71.8390  222.1020 C   0  0  0  0  0  0  0  0  0  0  0  0
  140.5940   73.0620  221.9650 N   0  0  0  0  0  0  0  0  0  0  0  0
  140.7020   73.8430  220.7910 C   0  0  0  0  0  0  0  0  0  0  0  0
  141.3260   75.1620  220.8430 C   0  0  0  0  0  0  0  0  0  0  0  0
  141.4400   75.6370  222.0550 O   0  0  0  0  0  0  0  0  0  0  0  0
  141.8110   75.9920  219.8360 N   0  0  0  0  0  0  0  0  0  0  0  0
  141.0870   77.1070  219.2170 C   0  0  0  0  0  0  0  0  0  0  0  0
  142.1160   78.1290  218.6980 C   0  0  0  0  0  0  0  0  0  0  0  0
  142.9280   77.5230  217.5780 C   0  0  0  0  0  0  0  0  0  0  0  0
  143.0580   76.0090  217.7940 C   0  0  0  0  0  0  0  0  0  0  0  0
  143.1760   75.8270  219.3100 C   0  0  2  0  0  0  0  0  0  0  0  0
  143.8110   74.5450  219.6540 C   0  0  0  0  0  0  0  0  0  0  0  0
  144.9450   74.6550  220.4920 C   0  0  0  0  0  0  0  0  0  0  0  0
  145.5960   73.4760  220.8270 C   0  0  0  0  0  0  0  0  0  0  0  0
  145.1740   72.2540  220.3720 C   0  0  0  0  0  0  0  0  0  0  0  0
  144.0500   72.1190  219.5370 C   0  0  0  0  0  0  0  0  0  0  0  0
  143.4240   73.3120  219.2260 C   0  0  0  0  0  0  0  0  0  0  0  0
  139.8480   71.1520  223.3970 C   0  0  0  0  0  0  0  0  0  0  0  0
  139.2330   69.9320  223.5600 C   0  0  0  0  0  0  0  0  0  0  0  0
  139.2130   69.3060  224.7900 C   0  0  0  0  0  0  0  0  0  0  0  0
  139.8290   69.9280  225.8780 C   0  0  0  0  0  0  0  0  0  0  0  0
  139.8420   69.3480  227.1300 C   0  0  0  0  0  0  0  0  0  0  0  0
  140.4680   70.0060  228.1690 C   0  0  0  0  0  0  0  0  0  0  0  0
  141.0810   71.2250  228.0020 C   0  0  0  0  0  0  0  0  0  0  0  0
  141.6930   71.8570  229.0570 F   0  0  0  0  0  0  0  0  0  0  0  0
  141.0770   71.8270  226.7410 C   0  0  0  0  0  0  0  0  0  0  0  0
  140.4520   71.1680  225.7040 C   0  0  0  0  0  0  0  0  0  0  0  0
  140.4280   71.7110  224.4770 N   0  0  0  0  0  0  0  0  0  0  0  0
  141.0820   73.4020  222.8500 H   0  0  0  0  0  0  0  0  0  0  0  0
  141.2778   73.2483  220.0666 H   0  0  0  0  0  0  0  0  0  0  0  0
  139.6547   74.0700  220.5428 H   0  0  0  0  0  0  0  0  0  0  0  0
  140.4784   76.7351  218.3796 H   0  0  0  0  0  0  0  0  0  0  0  0
  140.4232   77.5815  219.9547 H   0  0  0  0  0  0  0  0  0  0  0  0
  141.5886   79.0192  218.3248 H   0  0  0  0  0  0  0  0  0  0  0  0
  142.7901   78.4113  219.5202 H   0  0  0  0  0  0  0  0  0  0  0  0
  142.4261   77.7136  216.6179 H   0  0  0  0  0  0  0  0  0  0  0  0
  143.9299   77.9769  217.5675 H   0  0  0  0  0  0  0  0  0  0  0  0
  142.1685   75.4872  217.4112 H   0  0  0  0  0  0  0  0  0  0  0  0
  143.9252   75.5913  217.2616 H   0  0  0  0  0  0  0  0  0  0  0  0
  143.8411   76.5707  219.7732 H   0  0  0  0  0  0  0  0  0  0  0  0
  145.2949   75.6303  220.8613 H   0  0  0  0  0  0  0  0  0  0  0  0
  146.4802   73.5239  221.4795 H   0  0  0  0  0  0  0  0  0  0  0  0
  145.7304   71.3526  220.6684 H   0  0  0  0  0  0  0  0  0  0  0  0
  143.6986   71.1461  219.1629 H   0  0  0  0  0  0  0  0  0  0  0  0
  142.5373   73.2604  218.5771 H   0  0  0  0  0  0  0  0  0  0  0  0
  138.7504   69.4486  222.6978 H   0  0  0  0  0  0  0  0  0  0  0  0
  138.7188   68.3308  224.9115 H   0  0  0  0  0  0  0  0  0  0  0  0
  139.3596   68.3737  227.2977 H   0  0  0  0  0  0  0  0  0  0  0  0
  140.4768   69.5390  229.1649 H   0  0  0  0  0  0  0  0  0  0  0  0
  141.5603   72.8019  226.5799 H   0  0  0  0  0  0  0  0  0  0  0  0
  1  2  2  0
  2  3  1  0
  3  4  1  0
  4  5  1  0
  5  6  2  0
  5  7  1  0
  7  8  1  0
  8  9  1  0
  9 10  1  0
 10 11  1  0
 11 12  1  0
 12 13  1  0
 13 14  2  0
 14 15  1  0
 15 16  2  0
 16 17  1  0
 17 18  2  0
  2 19  1  0
 19 20  2  0
 20 21  1  0
 21 22  2  0
 22 23  1  0
 23 24  2  0
 24 25  1  0
 25 26  1  0
 25 27  2  0
 27 28  1  0
 28 29  2  0
 12  7  1  0
 18 13  1  0
 29 19  1  0
 28 22  1  0
  3 30  1  0
  4 31  1  0
  4 32  1  0
  8 33  1  0
  8 34  1  0
  9 35  1  0
  9 36  1  0
 10 37  1  0
 10 38  1  0
 11 39  1  0
 11 40  1  0
 12 41  1  1
 14 42  1  0
 15 43  1  0
 16 44  1  0
 17 45  1  0
 18 46  1  0
 20 47  1  0
 21 48  1  0
 23 49  1  0
 24 50  1  0
 27 51  1  0
M  END
>  <smiles>  (20) 
O=C(NCC(=O)N1CCCCC1c1ccccc1)c1ccc2ccc(F)cc2n1

>  <score_type>  (20) 
oracle

>  <origin>  (20) 
autodockgpu

>  <m_score__min__energy>  (20) 
-8.3300000000000001

>  <m_primary>  (20) 
energy

>  <rmsd>  (20) 
2.1848425620094787

>  <m_score__min__rmsd>  (20) 
2.1848425620094787

>  <meeko>  (20) 
{"free_energy": -7.92, "intermolecular_energy": -9.41, "internal_energy": -2.08, "cluster_size": 34, "cluster_id": 1, "rank_in_cluster": 20}

>  <energy>  (20) 
-7.92

>  <cluster_rmsd>  (20) 
0.66

>  <cluster>  (20) 
1

$$$$

     RDKit          3D

 51 54  0  0  0  0  0  0  0  0999 V2000
  140.3300   71.6330  221.0380 O   0  0  0  0  0  0  0  0  0  0  0  0
  140.0880   72.2280  222.1100 C   0  0  0  0  0  0  0  0  0  0  0  0
  139.9400   73.6410  222.1320 N   0  0  0  0  0  0  0  0  0  0  0  0
  140.0220   74.5110  221.0190 C   0  0  0  0  0  0  0  0  0  0  0  0
  140.9820   75.6110  221.0190 C   0  0  0  0  0  0  0  0  0  0  0  0
  141.3450   75.9860  222.2170 O   0  0  0  0  0  0  0  0  0  0  0  0
  141.5640   76.3250  219.9750 N   0  0  0  0  0  0  0  0  0  0  0  0
  140.9700   77.4720  219.2800 C   0  0  0  0  0  0  0  0  0  0  0  0
  142.1090   78.3480  218.7220 C   0  0  0  0  0  0  0  0  0  0  0  0
  142.8650   77.5940  217.6550 C   0  0  0  0  0  0  0  0  0  0  0  0
  142.8310   76.0910  217.9590 C   0  0  0  0  0  0  0  0  0  0  0  0
  142.9110   75.9860  219.4850 C   0  0  2  0  0  0  0  0  0  0  0  0
  143.4010   74.6670  219.9130 C   0  0  0  0  0  0  0  0  0  0  0  0
  144.6990   74.6750  220.4770 C   0  0  0  0  0  0  0  0  0  0  0  0
  145.2180   73.4510  220.8750 C   0  0  0  0  0  0  0  0  0  0  0  0
  144.5210   72.2800  220.7340 C   0  0  0  0  0  0  0  0  0  0  0  0
  143.2300   72.2470  220.1760 C   0  0  0  0  0  0  0  0  0  0  0  0
  142.7410   73.4820  219.7920 C   0  0  0  0  0  0  0  0  0  0  0  0
  139.9550   71.4570  223.3510 C   0  0  0  0  0  0  0  0  0  0  0  0
  139.2170   70.2990  223.4160 C   0  0  0  0  0  0  0  0  0  0  0  0
  139.1080   69.5910  224.5960 C   0  0  0  0  0  0  0  0  0  0  0  0
  139.7610   70.0670  225.7360 C   0  0  0  0  0  0  0  0  0  0  0  0
  139.6890   69.4000  226.9410 C   0  0  0  0  0  0  0  0  0  0  0  0
  140.3570   69.9140  228.0340 C   0  0  0  0  0  0  0  0  0  0  0  0
  141.0930   71.0730  227.9650 C   0  0  0  0  0  0  0  0  0  0  0  0
  141.7440   71.5610  229.0720 F   0  0  0  0  0  0  0  0  0  0  0  0
  141.1760   71.7610  226.7520 C   0  0  0  0  0  0  0  0  0  0  0  0
  140.5100   71.2450  225.6610 C   0  0  0  0  0  0  0  0  0  0  0  0
  140.5660   71.8750  224.4770 N   0  0  0  0  0  0  0  0  0  0  0  0
  139.7470   74.0610  223.0930 H   0  0  0  0  0  0  0  0  0  0  0  0
  140.2558   73.8860  220.1445 H   0  0  0  0  0  0  0  0  0  0  0  0
  139.0497   75.0253  221.0291 H   0  0  0  0  0  0  0  0  0  0  0  0
  140.3355   77.1178  218.4542 H   0  0  0  0  0  0  0  0  0  0  0  0
  140.3514   78.0564  219.9770 H   0  0  0  0  0  0  0  0  0  0  0  0
  141.6840   79.2651  218.2881 H   0  0  0  0  0  0  0  0  0  0  0  0
  142.7989   78.6066  219.5388 H   0  0  0  0  0  0  0  0  0  0  0  0
  142.3982   77.7794  216.6764 H   0  0  0  0  0  0  0  0  0  0  0  0
  143.9097   77.9379  217.6380 H   0  0  0  0  0  0  0  0  0  0  0  0
  141.8958   75.6443  217.5905 H   0  0  0  0  0  0  0  0  0  0  0  0
  143.6554   75.5541  217.4670 H   0  0  0  0  0  0  0  0  0  0  0  0
  143.6465   76.6803  219.9175 H   0  0  0  0  0  0  0  0  0  0  0  0
  145.2699   75.6079  220.5944 H   0  0  0  0  0  0  0  0  0  0  0  0
  146.2239   73.4199  221.3191 H   0  0  0  0  0  0  0  0  0  0  0  0
  144.9838   71.3391  221.0664 H   0  0  0  0  0  0  0  0  0  0  0  0
  142.6570   71.3158  220.0552 H   0  0  0  0  0  0  0  0  0  0  0  0
  141.7335   73.5097  219.3515 H   0  0  0  0  0  0  0  0  0  0  0  0
  138.7057   69.9311  222.5142 H   0  0  0  0  0  0  0  0  0  0  0  0
  138.5155   68.6652  224.6383 H   0  0  0  0  0  0  0  0  0  0  0  0
  139.1070   68.4708  227.0298 H   0  0  0  0  0  0  0  0  0  0  0  0
  140.2984   69.3780  228.9928 H   0  0  0  0  0  0  0  0  0  0  0  0
  141.7580   72.6908  226.6696 H   0  0  0  0  0  0  0  0  0  0  0  0
  1  2  2  0
  2  3  1  0
  3  4  1  0
  4  5  1  0
  5  6  2  0
  5  7  1  0
  7  8  1  0
  8  9  1  0
  9 10  1  0
 10 11  1  0
 11 12  1  0
 12 13  1  0
 13 14  2  0
 14 15  1  0
 15 16  2  0
 16 17  1  0
 17 18  2  0
  2 19  1  0
 19 20  2  0
 20 21  1  0
 21 22  2  0
 22 23  1  0
 23 24  2  0
 24 25  1  0
 25 26  1  0
 25 27  2  0
 27 28  1  0
 28 29  2  0
 12  7  1  0
 18 13  1  0
 29 19  1  0
 28 22  1  0
  3 30  1  0
  4 31  1  0
  4 32  1  0
  8 33  1  0
  8 34  1  0
  9 35  1  0
  9 36  1  0
 10 37  1  0
 10 38  1  0
 11 39  1  0
 11 40  1  0
 12 41  1  1
 14 42  1  0
 15 43  1  0
 16 44  1  0
 17 45  1  0
 18 46  1  0
 20 47  1  0
 21 48  1  0
 23 49  1  0
 24 50  1  0
 27 51  1  0
M  END
>  <smiles>  (21) 
O=C(NCC(=O)N1CCCCC1c1ccccc1)c1ccc2ccc(F)cc2n1

>  <score_type>  (21) 
oracle

>  <origin>  (21) 
autodockgpu

>  <m_score__min__energy>  (21) 
-8.3300000000000001

>  <m_primary>  (21) 
energy

>  <rmsd>  (21) 
2.1206764353173453

>  <m_score__min__rmsd>  (21) 
2.1206764353173453

>  <meeko>  (21) 
{"free_energy": -8.32, "intermolecular_energy": -9.82, "internal_energy": -1.8, "cluster_size": 34, "cluster_id": 1, "rank_in_cluster": 2}

>  <energy>  (21) 
-7.91

>  <cluster_rmsd>  (21) 
0.74

>  <cluster>  (21) 
1

$$$$

     RDKit          3D

 51 54  0  0  0  0  0  0  0  0999 V2000
  139.7630   71.1380  221.0700 O   0  0  0  0  0  0  0  0  0  0  0  0
  140.2330   71.7040  222.0800 C   0  0  0  0  0  0  0  0  0  0  0  0
  140.9320   72.9350  221.9550 N   0  0  0  0  0  0  0  0  0  0  0  0
  141.1630   73.6510  220.7570 C   0  0  0  0  0  0  0  0  0  0  0  0
  141.5170   75.0670  220.8060 C   0  0  0  0  0  0  0  0  0  0  0  0
  141.4070   75.5910  221.9980 O   0  0  0  0  0  0  0  0  0  0  0  0
  141.9410   75.9450  219.8130 N   0  0  0  0  0  0  0  0  0  0  0  0
  141.1320   76.9990  219.1930 C   0  0  0  0  0  0  0  0  0  0  0  0
  142.0760   78.1120  218.6970 C   0  0  0  0  0  0  0  0  0  0  0  0
  142.9520   77.5870  217.5840 C   0  0  0  0  0  0  0  0  0  0  0  0
  143.2090   76.0890  217.7890 C   0  0  0  0  0  0  0  0  0  0  0  0
  143.3230   75.9030  219.3050 C   0  0  2  0  0  0  0  0  0  0  0  0
  144.0610   74.6780  219.6470 C   0  0  0  0  0  0  0  0  0  0  0  0
  143.8000   73.5760  218.7990 C   0  0  0  0  0  0  0  0  0  0  0  0
  144.4530   72.3870  219.0940 C   0  0  0  0  0  0  0  0  0  0  0  0
  145.3120   72.2690  220.1560 C   0  0  0  0  0  0  0  0  0  0  0  0
  145.5860   73.3500  221.0140 C   0  0  0  0  0  0  0  0  0  0  0  0
  144.9210   74.5190  220.6900 C   0  0  0  0  0  0  0  0  0  0  0  0
  140.0580   71.0910  223.4010 C   0  0  0  0  0  0  0  0  0  0  0  0
  139.3000   69.9590  223.5860 C   0  0  0  0  0  0  0  0  0  0  0  0
  139.1510   69.4000  224.8390 C   0  0  0  0  0  0  0  0  0  0  0  0
  139.7840   70.0020  225.9300 C   0  0  0  0  0  0  0  0  0  0  0  0
  139.6720   69.4860  227.2050 C   0  0  0  0  0  0  0  0  0  0  0  0
  140.3210   70.1200  228.2440 C   0  0  0  0  0  0  0  0  0  0  0  0
  141.0780   71.2520  228.0560 C   0  0  0  0  0  0  0  0  0  0  0  0
  141.7100   71.8620  229.1120 F   0  0  0  0  0  0  0  0  0  0  0  0
  141.2020   71.7870  226.7710 C   0  0  0  0  0  0  0  0  0  0  0  0
  140.5530   71.1530  225.7330 C   0  0  0  0  0  0  0  0  0  0  0  0
  140.6480   71.6330  224.4840 N   0  0  0  0  0  0  0  0  0  0  0  0
  141.3070   73.3370  222.8690 H   0  0  0  0  0  0  0  0  0  0  0  0
  141.9829   73.1372  220.2338 H   0  0  0  0  0  0  0  0  0  0  0  0
  140.1756   73.6553  220.2723 H   0  0  0  0  0  0  0  0  0  0  0  0
  140.5694   76.5838  218.3438 H   0  0  0  0  0  0  0  0  0  0  0  0
  140.4197   77.4073  219.9251 H   0  0  0  0  0  0  0  0  0  0  0  0
  141.4788   78.9567  218.3232 H   0  0  0  0  0  0  0  0  0  0  0  0
  142.7115   78.4452  219.5307 H   0  0  0  0  0  0  0  0  0  0  0  0
  142.4484   77.7425  216.6185 H   0  0  0  0  0  0  0  0  0  0  0  0
  143.9115   78.1249  217.5920 H   0  0  0  0  0  0  0  0  0  0  0  0
  142.3727   75.4963  217.3898 H   0  0  0  0  0  0  0  0  0  0  0  0
  144.1158   75.7527  217.2649 H   0  0  0  0  0  0  0  0  0  0  0  0
  143.9160   76.6962  219.7838 H   0  0  0  0  0  0  0  0  0  0  0  0
  143.1113   73.6576  217.9452 H   0  0  0  0  0  0  0  0  0  0  0  0
  144.2753   71.5101  218.4542 H   0  0  0  0  0  0  0  0  0  0  0  0
  145.8010   71.3015  220.3427 H   0  0  0  0  0  0  0  0  0  0  0  0
  146.2716   73.2721  221.8707 H   0  0  0  0  0  0  0  0  0  0  0  0
  145.1028   75.3950  221.3300 H   0  0  0  0  0  0  0  0  0  0  0  0
  138.8047   69.4917  222.7221 H   0  0  0  0  0  0  0  0  0  0  0  0
  138.5429   68.4938  224.9770 H   0  0  0  0  0  0  0  0  0  0  0  0
  139.0736   68.5818  227.3901 H   0  0  0  0  0  0  0  0  0  0  0  0
  140.2296   69.7052  229.2587 H   0  0  0  0  0  0  0  0  0  0  0  0
  141.8023   72.6912  226.5922 H   0  0  0  0  0  0  0  0  0  0  0  0
  1  2  2  0
  2  3  1  0
  3  4  1  0
  4  5  1  0
  5  6  2  0
  5  7  1  0
  7  8  1  0
  8  9  1  0
  9 10  1  0
 10 11  1  0
 11 12  1  0
 12 13  1  0
 13 14  2  0
 14 15  1  0
 15 16  2  0
 16 17  1  0
 17 18  2  0
  2 19  1  0
 19 20  2  0
 20 21  1  0
 21 22  2  0
 22 23  1  0
 23 24  2  0
 24 25  1  0
 25 26  1  0
 25 27  2  0
 27 28  1  0
 28 29  2  0
 12  7  1  0
 18 13  1  0
 29 19  1  0
 28 22  1  0
  3 30  1  0
  4 31  1  0
  4 32  1  0
  8 33  1  0
  8 34  1  0
  9 35  1  0
  9 36  1  0
 10 37  1  0
 10 38  1  0
 11 39  1  0
 11 40  1  0
 12 41  1  1
 14 42  1  0
 15 43  1  0
 16 44  1  0
 17 45  1  0
 18 46  1  0
 20 47  1  0
 21 48  1  0
 23 49  1  0
 24 50  1  0
 27 51  1  0
M  END
>  <smiles>  (22) 
O=C(NCC(=O)N1CCCCC1c1ccccc1)c1ccc2ccc(F)cc2n1

>  <score_type>  (22) 
oracle

>  <origin>  (22) 
autodockgpu

>  <m_score__min__energy>  (22) 
-8.3300000000000001

>  <m_primary>  (22) 
energy

>  <rmsd>  (22) 
2.3050743879375775

>  <m_score__min__rmsd>  (22) 
2.3050743879375775

>  <meeko>  (22) 
{"free_energy": -7.95, "intermolecular_energy": -9.44, "internal_energy": -2.09, "cluster_size": 34, "cluster_id": 1, "rank_in_cluster": 18}

>  <energy>  (22) 
-7.91

>  <cluster_rmsd>  (22) 
0.81

>  <cluster>  (22) 
1

$$$$

     RDKit          3D

 51 54  0  0  0  0  0  0  0  0999 V2000
  139.3780   71.3400  221.1100 O   0  0  0  0  0  0  0  0  0  0  0  0
  139.9790   71.8290  222.0910 C   0  0  0  0  0  0  0  0  0  0  0  0
  140.6920   73.0510  221.9610 N   0  0  0  0  0  0  0  0  0  0  0  0
  140.8000   73.8390  220.7910 C   0  0  0  0  0  0  0  0  0  0  0  0
  141.3740   75.1800  220.8610 C   0  0  0  0  0  0  0  0  0  0  0  0
  141.4560   75.6490  222.0780 O   0  0  0  0  0  0  0  0  0  0  0  0
  141.8380   76.0370  219.8670 N   0  0  0  0  0  0  0  0  0  0  0  0
  141.0720   77.1180  219.2370 C   0  0  0  0  0  0  0  0  0  0  0  0
  142.0610   78.1910  218.7410 C   0  0  0  0  0  0  0  0  0  0  0  0
  142.9240   77.6290  217.6370 C   0  0  0  0  0  0  0  0  0  0  0  0
  143.1230   76.1230  217.8500 C   0  0  0  0  0  0  0  0  0  0  0  0
  143.2200   75.9410  219.3680 C   0  0  2  0  0  0  0  0  0  0  0  0
  143.9090   74.6900  219.7210 C   0  0  0  0  0  0  0  0  0  0  0  0
  143.4700   73.5520  219.0040 C   0  0  0  0  0  0  0  0  0  0  0  0
  144.0710   72.3410  219.3180 C   0  0  0  0  0  0  0  0  0  0  0  0
  145.0450   72.2350  220.2760 C   0  0  0  0  0  0  0  0  0  0  0  0
  145.4970   73.3520  221.0030 C   0  0  0  0  0  0  0  0  0  0  0  0
  144.8790   74.5420  220.6640 C   0  0  0  0  0  0  0  0  0  0  0  0
  139.9430   71.1350  223.3820 C   0  0  0  0  0  0  0  0  0  0  0  0
  139.3610   69.8980  223.5300 C   0  0  0  0  0  0  0  0  0  0  0  0
  139.3410   69.2640  224.7560 C   0  0  0  0  0  0  0  0  0  0  0  0
  139.9230   69.8970  225.8560 C   0  0  0  0  0  0  0  0  0  0  0  0
  139.9340   69.3100  227.1050 C   0  0  0  0  0  0  0  0  0  0  0  0
  140.5260   69.9800  228.1570 C   0  0  0  0  0  0  0  0  0  0  0  0
  141.1060   71.2170  228.0050 C   0  0  0  0  0  0  0  0  0  0  0  0
  141.6850   71.8600  229.0720 F   0  0  0  0  0  0  0  0  0  0  0  0
  141.1040   71.8250  226.7470 C   0  0  0  0  0  0  0  0  0  0  0  0
  140.5130   71.1550  225.6980 C   0  0  0  0  0  0  0  0  0  0  0  0
  140.4910   71.7030  224.4730 N   0  0  0  0  0  0  0  0  0  0  0  0
  141.1820   73.3850  222.8470 H   0  0  0  0  0  0  0  0  0  0  0  0
  141.4148   73.2678  220.0798 H   0  0  0  0  0  0  0  0  0  0  0  0
  139.7515   74.0282  220.5175 H   0  0  0  0  0  0  0  0  0  0  0  0
  140.4985   76.7201  218.3868 H   0  0  0  0  0  0  0  0  0  0  0  0
  140.3713   77.5568  219.9626 H   0  0  0  0  0  0  0  0  0  0  0  0
  141.4985   79.0557  218.3590 H   0  0  0  0  0  0  0  0  0  0  0  0
  142.7036   78.5031  219.5774 H   0  0  0  0  0  0  0  0  0  0  0  0
  142.4334   77.7992  216.6673 H   0  0  0  0  0  0  0  0  0  0  0  0
  143.9029   78.1305  217.6497 H   0  0  0  0  0  0  0  0  0  0  0  0
  142.2676   75.5603  217.4480 H   0  0  0  0  0  0  0  0  0  0  0  0
  144.0195   75.7498  217.3332 H   0  0  0  0  0  0  0  0  0  0  0  0
  143.8392   76.7143  219.8462 H   0  0  0  0  0  0  0  0  0  0  0  0
  142.6884   73.6237  218.2333 H   0  0  0  0  0  0  0  0  0  0  0  0
  143.7547   71.4355  218.7795 H   0  0  0  0  0  0  0  0  0  0  0  0
  145.4861   71.2488  220.4827 H   0  0  0  0  0  0  0  0  0  0  0  0
  146.2765   73.2843  221.7761 H   0  0  0  0  0  0  0  0  0  0  0  0
  145.1989   75.4461  221.2027 H   0  0  0  0  0  0  0  0  0  0  0  0
  138.9045   69.4063  222.6583 H   0  0  0  0  0  0  0  0  0  0  0  0
  138.8733   68.2743  224.8648 H   0  0  0  0  0  0  0  0  0  0  0  0
  139.4772   68.3215  227.2602 H   0  0  0  0  0  0  0  0  0  0  0  0
  140.5338   69.5080  229.1505 H   0  0  0  0  0  0  0  0  0  0  0  0
  141.5627   72.8136  226.5978 H   0  0  0  0  0  0  0  0  0  0  0  0
  1  2  2  0
  2  3  1  0
  3  4  1  0
  4  5  1  0
  5  6  2  0
  5  7  1  0
  7  8  1  0
  8  9  1  0
  9 10  1  0
 10 11  1  0
 11 12  1  0
 12 13  1  0
 13 14  2  0
 14 15  1  0
 15 16  2  0
 16 17  1  0
 17 18  2  0
  2 19  1  0
 19 20  2  0
 20 21  1  0
 21 22  2  0
 22 23  1  0
 23 24  2  0
 24 25  1  0
 25 26  1  0
 25 27  2  0
 27 28  1  0
 28 29  2  0
 12  7  1  0
 18 13  1  0
 29 19  1  0
 28 22  1  0
  3 30  1  0
  4 31  1  0
  4 32  1  0
  8 33  1  0
  8 34  1  0
  9 35  1  0
  9 36  1  0
 10 37  1  0
 10 38  1  0
 11 39  1  0
 11 40  1  0
 12 41  1  1
 14 42  1  0
 15 43  1  0
 16 44  1  0
 17 45  1  0
 18 46  1  0
 20 47  1  0
 21 48  1  0
 23 49  1  0
 24 50  1  0
 27 51  1  0
M  END
>  <smiles>  (23) 
O=C(NCC(=O)N1CCCCC1c1ccccc1)c1ccc2ccc(F)cc2n1

>  <score_type>  (23) 
oracle

>  <origin>  (23) 
autodockgpu

>  <m_score__min__energy>  (23) 
-8.3300000000000001

>  <m_primary>  (23) 
energy

>  <rmsd>  (23) 
2.2033512722530575

>  <m_score__min__rmsd>  (23) 
2.2033512722530575

>  <meeko>  (23) 
{"free_energy": -7.88, "intermolecular_energy": -9.37, "internal_energy": -2.11, "cluster_size": 34, "cluster_id": 1, "rank_in_cluster": 25}

>  <energy>  (23) 
-7.9

>  <cluster_rmsd>  (23) 
0.87

>  <cluster>  (23) 
1

$$$$

     RDKit          3D

 51 54  0  0  0  0  0  0  0  0999 V2000
  140.6960   76.7010  217.9310 O   0  0  0  0  0  0  0  0  0  0  0  0
  141.7960   76.7770  218.5200 C   0  0  0  0  0  0  0  0  0  0  0  0
  142.2440   78.0170  219.0500 N   0  0  0  0  0  0  0  0  0  0  0  0
  141.5500   79.2490  219.0030 C   0  0  0  0  0  0  0  0  0  0  0  0
  140.8320   79.7300  220.1800 C   0  0  0  0  0  0  0  0  0  0  0  0
  139.5460   79.8570  219.9900 O   0  0  0  0  0  0  0  0  0  0  0  0
  141.2770   80.0780  221.4520 N   0  0  0  0  0  0  0  0  0  0  0  0
  142.0870   81.2540  221.7890 C   0  0  0  0  0  0  0  0  0  0  0  0
  141.8020   81.6400  223.2530 C   0  0  0  0  0  0  0  0  0  0  0  0
  142.2900   80.5520  224.1790 C   0  0  0  0  0  0  0  0  0  0  0  0
  142.1920   79.1910  223.4780 C   0  0  0  0  0  0  0  0  0  0  0  0
  140.9200   79.2670  222.6280 C   0  0  2  0  0  0  0  0  0  0  0  0
  140.4000   77.9280  222.3090 C   0  0  0  0  0  0  0  0  0  0  0  0
  139.0030   77.7820  222.4810 C   0  0  0  0  0  0  0  0  0  0  0  0
  138.4660   76.5290  222.2170 C   0  0  0  0  0  0  0  0  0  0  0  0
  139.2390   75.4730  221.8100 C   0  0  0  0  0  0  0  0  0  0  0  0
  140.6300   75.5940  221.6330 C   0  0  0  0  0  0  0  0  0  0  0  0
  141.1320   76.8540  221.9020 C   0  0  0  0  0  0  0  0  0  0  0  0
  142.6240   75.5750  218.6650 C   0  0  0  0  0  0  0  0  0  0  0  0
  142.4780   74.4840  217.8410 C   0  0  0  0  0  0  0  0  0  0  0  0
  143.2700   73.3650  217.9970 C   0  0  0  0  0  0  0  0  0  0  0  0
  144.2320   73.3500  219.0100 C   0  0  0  0  0  0  0  0  0  0  0  0
  145.0540   72.2600  219.2110 C   0  0  0  0  0  0  0  0  0  0  0  0
  145.9880   72.3020  220.2250 C   0  0  0  0  0  0  0  0  0  0  0  0
  146.1310   73.3940  221.0470 C   0  0  0  0  0  0  0  0  0  0  0  0
  147.0690   73.4030  222.0510 F   0  0  0  0  0  0  0  0  0  0  0  0
  145.3070   74.5060  220.8570 C   0  0  0  0  0  0  0  0  0  0  0  0
  144.3750   74.4640  219.8430 C   0  0  0  0  0  0  0  0  0  0  0  0
  143.5650   75.5120  219.6260 N   0  0  0  0  0  0  0  0  0  0  0  0
  143.1980   77.9870  219.5240 H   0  0  0  0  0  0  0  0  0  0  0  0
  142.2907   80.0206  218.7460 H   0  0  0  0  0  0  0  0  0  0  0  0
  140.7453   79.0573  218.2779 H   0  0  0  0  0  0  0  0  0  0  0  0
  143.1543   81.0163  221.6689 H   0  0  0  0  0  0  0  0  0  0  0  0
  141.8326   82.0909  221.1220 H   0  0  0  0  0  0  0  0  0  0  0  0
  142.3221   82.5800  223.4896 H   0  0  0  0  0  0  0  0  0  0  0  0
  140.7179   81.7689  223.3876 H   0  0  0  0  0  0  0  0  0  0  0  0
  143.3374   80.7475  224.4523 H   0  0  0  0  0  0  0  0  0  0  0  0
  141.6668   80.5396  225.0854 H   0  0  0  0  0  0  0  0  0  0  0  0
  143.0722   79.0213  222.8405 H   0  0  0  0  0  0  0  0  0  0  0  0
  142.1562   78.3598  224.1976 H   0  0  0  0  0  0  0  0  0  0  0  0
  140.0843   79.7419  223.1629 H   0  0  0  0  0  0  0  0  0  0  0  0
  138.3722   78.6216  222.8084 H   0  0  0  0  0  0  0  0  0  0  0  0
  137.3831   76.3788  222.3387 H   0  0  0  0  0  0  0  0  0  0  0  0
  138.7583   74.5028  221.6161 H   0  0  0  0  0  0  0  0  0  0  0  0
  141.2646   74.7564  221.3079 H   0  0  0  0  0  0  0  0  0  0  0  0
  142.2148   77.0015  221.7766 H   0  0  0  0  0  0  0  0  0  0  0  0
  141.7185   74.5036  217.0456 H   0  0  0  0  0  0  0  0  0  0  0  0
  143.1457   72.4968  217.3330 H   0  0  0  0  0  0  0  0  0  0  0  0
  144.9656   71.3696  218.5712 H   0  0  0  0  0  0  0  0  0  0  0  0
  146.6413   71.4309  220.3812 H   0  0  0  0  0  0  0  0  0  0  0  0
  145.3999   75.3930  221.5008 H   0  0  0  0  0  0  0  0  0  0  0  0
  1  2  2  0
  2  3  1  0
  3  4  1  0
  4  5  1  0
  5  6  2  0
  5  7  1  0
  7  8  1  0
  8  9  1  0
  9 10  1  0
 10 11  1  0
 11 12  1  0
 12 13  1  0
 13 14  2  0
 14 15  1  0
 15 16  2  0
 16 17  1  0
 17 18  2  0
  2 19  1  0
 19 20  2  0
 20 21  1  0
 21 22  2  0
 22 23  1  0
 23 24  2  0
 24 25  1  0
 25 26  1  0
 25 27  2  0
 27 28  1  0
 28 29  2  0
 12  7  1  0
 18 13  1  0
 29 19  1  0
 28 22  1  0
  3 30  1  0
  4 31  1  0
  4 32  1  0
  8 33  1  0
  8 34  1  0
  9 35  1  0
  9 36  1  0
 10 37  1  0
 10 38  1  0
 11 39  1  0
 11 40  1  0
 12 41  1  1
 14 42  1  0
 15 43  1  0
 16 44  1  0
 17 45  1  0
 18 46  1  0
 20 47  1  0
 21 48  1  0
 23 49  1  0
 24 50  1  0
 27 51  1  0
M  END
>  <smiles>  (24) 
O=C(NCC(=O)N1CCCCC1c1ccccc1)c1ccc2ccc(F)cc2n1

>  <score_type>  (24) 
oracle

>  <origin>  (24) 
autodockgpu

>  <m_score__min__energy>  (24) 
-8.3300000000000001

>  <m_primary>  (24) 
energy

>  <rmsd>  (24) 
7.636497013081177

>  <m_score__min__rmsd>  (24) 
7.636497013081177

>  <meeko>  (24) 
{"free_energy": -7.06, "intermolecular_energy": -8.55, "internal_energy": -2.42, "cluster_size": 2, "cluster_id": 7, "rank_in_cluster": 1}

>  <energy>  (24) 
-7.88

>  <cluster_rmsd>  (24) 
0.67

>  <cluster>  (24) 
1

$$$$

     RDKit          3D

 51 54  0  0  0  0  0  0  0  0999 V2000
  140.3960   72.4910  220.6980 O   0  0  0  0  0  0  0  0  0  0  0  0
  140.0980   72.8860  221.8460 C   0  0  0  0  0  0  0  0  0  0  0  0
  139.8130   74.2580  222.0830 N   0  0  0  0  0  0  0  0  0  0  0  0
  139.8100   75.2930  221.1180 C   0  0  0  0  0  0  0  0  0  0  0  0
  139.5240   76.6680  221.5200 C   0  0  0  0  0  0  0  0  0  0  0  0
  138.2640   76.9930  221.4030 O   0  0  0  0  0  0  0  0  0  0  0  0
  140.3540   77.6810  221.9930 N   0  0  0  0  0  0  0  0  0  0  0  0
  140.0670   78.5690  223.1250 C   0  0  0  0  0  0  0  0  0  0  0  0
  141.4050   79.0380  223.7280 C   0  0  0  0  0  0  0  0  0  0  0  0
  142.1460   79.9000  222.7340 C   0  0  0  0  0  0  0  0  0  0  0  0
  141.8070   79.4530  221.3070 C   0  0  0  0  0  0  0  0  0  0  0  0
  141.6700   77.9300  221.3830 C   0  0  2  0  0  0  0  0  0  0  0  0
  141.8590   77.3010  220.0660 C   0  0  0  0  0  0  0  0  0  0  0  0
  142.7330   76.1880  220.0640 C   0  0  0  0  0  0  0  0  0  0  0  0
  142.9650   75.5740  218.8410 C   0  0  0  0  0  0  0  0  0  0  0  0
  142.3850   76.0140  217.6800 C   0  0  0  0  0  0  0  0  0  0  0  0
  141.5140   77.1190  217.6570 C   0  0  0  0  0  0  0  0  0  0  0  0
  141.3020   77.7050  218.8920 C   0  0  0  0  0  0  0  0  0  0  0  0
  140.0410   71.9240  222.9510 C   0  0  0  0  0  0  0  0  0  0  0  0
  139.5030   70.6680  222.7990 C   0  0  0  0  0  0  0  0  0  0  0  0
  139.4620   69.7800  223.8540 C   0  0  0  0  0  0  0  0  0  0  0  0
  139.9770   70.1730  225.0920 C   0  0  0  0  0  0  0  0  0  0  0  0
  139.9650   69.3260  226.1820 C   0  0  0  0  0  0  0  0  0  0  0  0
  140.4900   69.7660  227.3800 C   0  0  0  0  0  0  0  0  0  0  0  0
  141.0260   71.0220  227.5280 C   0  0  0  0  0  0  0  0  0  0  0  0
  141.5390   71.4320  228.7350 F   0  0  0  0  0  0  0  0  0  0  0  0
  141.0470   71.8920  226.4350 C   0  0  0  0  0  0  0  0  0  0  0  0
  140.5230   71.4510  225.2390 C   0  0  0  0  0  0  0  0  0  0  0  0
  140.5250   72.2550  224.1640 N   0  0  0  0  0  0  0  0  0  0  0  0
  139.5810   74.5040  223.0940 H   0  0  0  0  0  0  0  0  0  0  0  0
  140.8082   75.2988  220.6560 H   0  0  0  0  0  0  0  0  0  0  0  0
  138.9554   75.0355  220.4750 H   0  0  0  0  0  0  0  0  0  0  0  0
  139.4910   79.4393  222.7775 H   0  0  0  0  0  0  0  0  0  0  0  0
  139.4776   78.0342  223.8843 H   0  0  0  0  0  0  0  0  0  0  0  0
  141.2090   79.6205  224.6403 H   0  0  0  0  0  0  0  0  0  0  0  0
  142.0192   78.1585  223.9714 H   0  0  0  0  0  0  0  0  0  0  0  0
  141.8487   80.9505  222.8682 H   0  0  0  0  0  0  0  0  0  0  0  0
  143.2286   79.7979  222.8998 H   0  0  0  0  0  0  0  0  0  0  0  0
  140.8627   79.9088  220.9745 H   0  0  0  0  0  0  0  0  0  0  0  0
  142.5794   79.7600  220.5865 H   0  0  0  0  0  0  0  0  0  0  0  0
  142.4555   77.4675  221.9987 H   0  0  0  0  0  0  0  0  0  0  0  0
  143.2065   75.8263  220.9887 H   0  0  0  0  0  0  0  0  0  0  0  0
  143.6375   74.7044  218.8024 H   0  0  0  0  0  0  0  0  0  0  0  0
  142.6066   75.4885  216.7394 H   0  0  0  0  0  0  0  0  0  0  0  0
  141.0413   77.4861  216.7341 H   0  0  0  0  0  0  0  0  0  0  0  0
  140.6254   78.5715  218.9281 H   0  0  0  0  0  0  0  0  0  0  0  0
  139.0991   70.3665  221.8213 H   0  0  0  0  0  0  0  0  0  0  0  0
  139.0301   68.7769  223.7225 H   0  0  0  0  0  0  0  0  0  0  0  0
  139.5426   68.3139  226.0968 H   0  0  0  0  0  0  0  0  0  0  0  0
  140.4789   69.0877  228.2459 H   0  0  0  0  0  0  0  0  0  0  0  0
  141.4708   72.9029  226.5267 H   0  0  0  0  0  0  0  0  0  0  0  0
  1  2  2  0
  2  3  1  0
  3  4  1  0
  4  5  1  0
  5  6  2  0
  5  7  1  0
  7  8  1  0
  8  9  1  0
  9 10  1  0
 10 11  1  0
 11 12  1  0
 12 13  1  0
 13 14  2  0
 14 15  1  0
 15 16  2  0
 16 17  1  0
 17 18  2  0
  2 19  1  0
 19 20  2  0
 20 21  1  0
 21 22  2  0
 22 23  1  0
 23 24  2  0
 24 25  1  0
 25 26  1  0
 25 27  2  0
 27 28  1  0
 28 29  2  0
 12  7  1  0
 18 13  1  0
 29 19  1  0
 28 22  1  0
  3 30  1  0
  4 31  1  0
  4 32  1  0
  8 33  1  0
  8 34  1  0
  9 35  1  0
  9 36  1  0
 10 37  1  0
 10 38  1  0
 11 39  1  0
 11 40  1  0
 12 41  1  1
 14 42  1  0
 15 43  1  0
 16 44  1  0
 17 45  1  0
 18 46  1  0
 20 47  1  0
 21 48  1  0
 23 49  1  0
 24 50  1  0
 27 51  1  0
M  END
>  <smiles>  (25) 
O=C(NCC(=O)N1CCCCC1c1ccccc1)c1ccc2ccc(F)cc2n1

>  <score_type>  (25) 
oracle

>  <origin>  (25) 
autodockgpu

>  <m_score__min__energy>  (25) 
-8.3300000000000001

>  <m_primary>  (25) 
energy

>  <rmsd>  (25) 
3.478407381389009

>  <m_score__min__rmsd>  (25) 
3.478407381389009

>  <meeko>  (25) 
{"free_energy": -7.81, "intermolecular_energy": -9.3, "internal_energy": -1.5, "cluster_size": 1, "cluster_id": 4, "rank_in_cluster": 1}

>  <energy>  (25) 
-7.88

>  <cluster_rmsd>  (25) 
0.69

>  <cluster>  (25) 
1

$$$$

     RDKit          3D

 51 54  0  0  0  0  0  0  0  0999 V2000
  140.0450   71.4140  221.0450 O   0  0  0  0  0  0  0  0  0  0  0  0
  139.9680   72.0400  222.1240 C   0  0  0  0  0  0  0  0  0  0  0  0
  139.9710   73.4610  222.1340 N   0  0  0  0  0  0  0  0  0  0  0  0
  140.0400   74.3070  221.0020 C   0  0  0  0  0  0  0  0  0  0  0  0
  140.9190   75.4730  221.0120 C   0  0  0  0  0  0  0  0  0  0  0  0
  141.2720   75.8500  222.2120 O   0  0  0  0  0  0  0  0  0  0  0  0
  141.4360   76.2460  219.9750 N   0  0  0  0  0  0  0  0  0  0  0  0
  140.7420   77.3410  219.2910 C   0  0  0  0  0  0  0  0  0  0  0  0
  141.7980   78.3210  218.7420 C   0  0  0  0  0  0  0  0  0  0  0  0
  142.6190   77.6470  217.6680 C   0  0  0  0  0  0  0  0  0  0  0  0
  142.7190   76.1450  217.9580 C   0  0  0  0  0  0  0  0  0  0  0  0
  142.8070   76.0330  219.4830 C   0  0  2  0  0  0  0  0  0  0  0  0
  143.4130   74.7590  219.9000 C   0  0  0  0  0  0  0  0  0  0  0  0
  144.6970   74.8810  220.4830 C   0  0  0  0  0  0  0  0  0  0  0  0
  145.3240   73.7050  220.8720 C   0  0  0  0  0  0  0  0  0  0  0  0
  144.7410   72.4760  220.7030 C   0  0  0  0  0  0  0  0  0  0  0  0
  143.4670   72.3300  220.1250 C   0  0  0  0  0  0  0  0  0  0  0  0
  142.8700   73.5200  219.7520 C   0  0  0  0  0  0  0  0  0  0  0  0
  139.8710   71.2980  223.3850 C   0  0  0  0  0  0  0  0  0  0  0  0
  139.1760   70.1160  223.4870 C   0  0  0  0  0  0  0  0  0  0  0  0
  139.1000   69.4370  224.6850 C   0  0  0  0  0  0  0  0  0  0  0  0
  139.7430   69.9660  225.8070 C   0  0  0  0  0  0  0  0  0  0  0  0
  139.7040   69.3280  227.0300 C   0  0  0  0  0  0  0  0  0  0  0  0
  140.3600   69.8950  228.1040 C   0  0  0  0  0  0  0  0  0  0  0  0
  141.0530   71.0770  227.9990 C   0  0  0  0  0  0  0  0  0  0  0  0
  141.6940   71.6170  229.0880 F   0  0  0  0  0  0  0  0  0  0  0  0
  141.1040   71.7350  226.7680 C   0  0  0  0  0  0  0  0  0  0  0  0
  140.4490   71.1670  225.6960 C   0  0  0  0  0  0  0  0  0  0  0  0
  140.4740   71.7670  224.4960 N   0  0  0  0  0  0  0  0  0  0  0  0
  139.9130   73.9060  223.1000 H   0  0  0  0  0  0  0  0  0  0  0  0
  140.3556   73.6792  220.1557 H   0  0  0  0  0  0  0  0  0  0  0  0
  139.0342   74.7502  220.9571 H   0  0  0  0  0  0  0  0  0  0  0  0
  140.1417   76.9392  218.4615 H   0  0  0  0  0  0  0  0  0  0  0  0
  140.0737   77.8610  219.9931 H   0  0  0  0  0  0  0  0  0  0  0  0
  141.2925   79.2003  218.3162 H   0  0  0  0  0  0  0  0  0  0  0  0
  142.4619   78.6330  219.5617 H   0  0  0  0  0  0  0  0  0  0  0  0
  142.1376   77.7992  216.6907 H   0  0  0  0  0  0  0  0  0  0  0  0
  143.6289   78.0828  217.6551 H   0  0  0  0  0  0  0  0  0  0  0  0
  141.8276   75.6201  217.5839 H   0  0  0  0  0  0  0  0  0  0  0  0
  143.5884   75.6885  217.4623 H   0  0  0  0  0  0  0  0  0  0  0  0
  143.4774   76.7863  219.9223 H   0  0  0  0  0  0  0  0  0  0  0  0
  145.1757   75.8617  220.6214 H   0  0  0  0  0  0  0  0  0  0  0  0
  146.3220   73.7614  221.3312 H   0  0  0  0  0  0  0  0  0  0  0  0
  145.2855   71.5775  221.0290 H   0  0  0  0  0  0  0  0  0  0  0  0
  142.9860   71.3512  219.9818 H   0  0  0  0  0  0  0  0  0  0  0  0
  141.8705   73.4601  219.2966 H   0  0  0  0  0  0  0  0  0  0  0  0
  138.6727   69.7055  222.5992 H   0  0  0  0  0  0  0  0  0  0  0  0
  138.5411   68.4923  224.7562 H   0  0  0  0  0  0  0  0  0  0  0  0
  139.1576   68.3805  227.1474 H   0  0  0  0  0  0  0  0  0  0  0  0
  140.3269   69.3832  229.0771 H   0  0  0  0  0  0  0  0  0  0  0  0
  141.6526   72.6819  226.6567 H   0  0  0  0  0  0  0  0  0  0  0  0
  1  2  2  0
  2  3  1  0
  3  4  1  0
  4  5  1  0
  5  6  2  0
  5  7  1  0
  7  8  1  0
  8  9  1  0
  9 10  1  0
 10 11  1  0
 11 12  1  0
 12 13  1  0
 13 14  2  0
 14 15  1  0
 15 16  2  0
 16 17  1  0
 17 18  2  0
  2 19  1  0
 19 20  2  0
 20 21  1  0
 21 22  2  0
 22 23  1  0
 23 24  2  0
 24 25  1  0
 25 26  1  0
 25 27  2  0
 27 28  1  0
 28 29  2  0
 12  7  1  0
 18 13  1  0
 29 19  1  0
 28 22  1  0
  3 30  1  0
  4 31  1  0
  4 32  1  0
  8 33  1  0
  8 34  1  0
  9 35  1  0
  9 36  1  0
 10 37  1  0
 10 38  1  0
 11 39  1  0
 11 40  1  0
 12 41  1  1
 14 42  1  0
 15 43  1  0
 16 44  1  0
 17 45  1  0
 18 46  1  0
 20 47  1  0
 21 48  1  0
 23 49  1  0
 24 50  1  0
 27 51  1  0
M  END
>  <smiles>  (26) 
O=C(NCC(=O)N1CCCCC1c1ccccc1)c1ccc2ccc(F)cc2n1

>  <score_type>  (26) 
oracle

>  <origin>  (26) 
autodockgpu

>  <m_score__min__energy>  (26) 
-8.3300000000000001

>  <m_primary>  (26) 
energy

>  <rmsd>  (26) 
2.0072653632578397

>  <m_score__min__rmsd>  (26) 
2.0072653632578397

>  <meeko>  (26) 
{"free_energy": -8.2, "intermolecular_energy": -9.69, "internal_energy": -1.88, "cluster_size": 34, "cluster_id": 1, "rank_in_cluster": 7}

>  <energy>  (26) 
-7.87

>  <cluster_rmsd>  (26) 
0.68

>  <cluster>  (26) 
1

$$$$

     RDKit          3D

 51 54  0  0  0  0  0  0  0  0999 V2000
  133.6480   69.7320  226.8280 O   0  0  0  0  0  0  0  0  0  0  0  0
  133.9840   70.8300  226.3330 C   0  0  0  0  0  0  0  0  0  0  0  0
  135.0690   70.9050  225.4190 N   0  0  0  0  0  0  0  0  0  0  0  0
  135.8550   69.8220  224.9590 C   0  0  0  0  0  0  0  0  0  0  0  0
  136.7550   70.0000  223.8230 C   0  0  0  0  0  0  0  0  0  0  0  0
  136.9590   71.2520  223.5110 O   0  0  0  0  0  0  0  0  0  0  0  0
  137.4190   69.0760  223.0200 N   0  0  0  0  0  0  0  0  0  0  0  0
  136.8900   68.4600  221.8000 C   0  0  0  0  0  0  0  0  0  0  0  0
  138.0760   68.0730  220.8940 C   0  0  0  0  0  0  0  0  0  0  0  0
  138.8980   66.9920  221.5530 C   0  0  0  0  0  0  0  0  0  0  0  0
  138.8250   67.1410  223.0780 C   0  0  0  0  0  0  0  0  0  0  0  0
  138.7930   68.6510  223.3340 C   0  0  2  0  0  0  0  0  0  0  0  0
  139.2360   68.9790  224.6980 C   0  0  0  0  0  0  0  0  0  0  0  0
  139.8110   70.2640  224.8370 C   0  0  0  0  0  0  0  0  0  0  0  0
  140.2680   70.6140  226.1010 C   0  0  0  0  0  0  0  0  0  0  0  0
  140.1770   69.7640  227.1720 C   0  0  0  0  0  0  0  0  0  0  0  0
  139.6100   68.4820  227.0580 C   0  0  0  0  0  0  0  0  0  0  0  0
  139.1630   68.1670  225.7880 C   0  0  0  0  0  0  0  0  0  0  0  0
  133.2490   72.0440  226.7000 C   0  0  0  0  0  0  0  0  0  0  0  0
  132.0100   71.9970  227.2950 C   0  0  0  0  0  0  0  0  0  0  0  0
  131.3380   73.1550  227.6310 C   0  0  0  0  0  0  0  0  0  0  0  0
  131.9340   74.3880  227.3580 C   0  0  0  0  0  0  0  0  0  0  0  0
  131.3110   75.5780  227.6750 C   0  0  0  0  0  0  0  0  0  0  0  0
  131.9470   76.7680  227.3860 C   0  0  0  0  0  0  0  0  0  0  0  0
  133.1850   76.8110  226.7910 C   0  0  0  0  0  0  0  0  0  0  0  0
  133.7920   78.0120  226.5130 F   0  0  0  0  0  0  0  0  0  0  0  0
  133.8310   75.6160  226.4640 C   0  0  0  0  0  0  0  0  0  0  0  0
  133.1940   74.4280  226.7540 C   0  0  0  0  0  0  0  0  0  0  0  0
  133.7810   73.2580  226.4580 N   0  0  0  0  0  0  0  0  0  0  0  0
  135.2900   71.8830  225.0580 H   0  0  0  0  0  0  0  0  0  0  0  0
  136.4757   69.4981  225.8074 H   0  0  0  0  0  0  0  0  0  0  0  0
  135.1063   69.1121  224.5777 H   0  0  0  0  0  0  0  0  0  0  0  0
  136.3119   67.5607  222.0589 H   0  0  0  0  0  0  0  0  0  0  0  0
  136.2303   69.1673  221.2760 H   0  0  0  0  0  0  0  0  0  0  0  0
  137.6934   67.7037  219.9311 H   0  0  0  0  0  0  0  0  0  0  0  0
  138.7085   68.9578  220.7296 H   0  0  0  0  0  0  0  0  0  0  0  0
  138.5049   66.0064  221.2631 H   0  0  0  0  0  0  0  0  0  0  0  0
  139.9451   67.0833  221.2287 H   0  0  0  0  0  0  0  0  0  0  0  0
  137.9139   66.6643  223.4688 H   0  0  0  0  0  0  0  0  0  0  0  0
  139.6765   66.6574  223.5791 H   0  0  0  0  0  0  0  0  0  0  0  0
  139.5029   69.2015  222.6991 H   0  0  0  0  0  0  0  0  0  0  0  0
  139.8924   70.9537  223.9840 H   0  0  0  0  0  0  0  0  0  0  0  0
  140.7182   71.6070  226.2473 H   0  0  0  0  0  0  0  0  0  0  0  0
  140.5586   70.0940  228.1495 H   0  0  0  0  0  0  0  0  0  0  0  0
  139.5289   67.7882  227.9078 H   0  0  0  0  0  0  0  0  0  0  0  0
  138.7094   67.1749  225.6464 H   0  0  0  0  0  0  0  0  0  0  0  0
  131.5474   71.0217  227.5064 H   0  0  0  0  0  0  0  0  0  0  0  0
  130.3474   73.1072  228.1069 H   0  0  0  0  0  0  0  0  0  0  0  0
  130.3198   75.5779  228.1521 H   0  0  0  0  0  0  0  0  0  0  0  0
  131.4463   77.7138  227.6404 H   0  0  0  0  0  0  0  0  0  0  0  0
  134.8224   75.6228  225.9874 H   0  0  0  0  0  0  0  0  0  0  0  0
  1  2  2  0
  2  3  1  0
  3  4  1  0
  4  5  1  0
  5  6  2  0
  5  7  1  0
  7  8  1  0
  8  9  1  0
  9 10  1  0
 10 11  1  0
 11 12  1  0
 12 13  1  0
 13 14  2  0
 14 15  1  0
 15 16  2  0
 16 17  1  0
 17 18  2  0
  2 19  1  0
 19 20  2  0
 20 21  1  0
 21 22  2  0
 22 23  1  0
 23 24  2  0
 24 25  1  0
 25 26  1  0
 25 27  2  0
 27 28  1  0
 28 29  2  0
 12  7  1  0
 18 13  1  0
 29 19  1  0
 28 22  1  0
  3 30  1  0
  4 31  1  0
  4 32  1  0
  8 33  1  0
  8 34  1  0
  9 35  1  0
  9 36  1  0
 10 37  1  0
 10 38  1  0
 11 39  1  0
 11 40  1  0
 12 41  1  6
 14 42  1  0
 15 43  1  0
 16 44  1  0
 17 45  1  0
 18 46  1  0
 20 47  1  0
 21 48  1  0
 23 49  1  0
 24 50  1  0
 27 51  1  0
M  END
>  <smiles>  (27) 
O=C(NCC(=O)N1CCCCC1c1ccccc1)c1ccc2ccc(F)cc2n1

>  <score_type>  (27) 
oracle

>  <origin>  (27) 
autodockgpu

>  <m_score__min__energy>  (27) 
-8.3300000000000001

>  <m_primary>  (27) 
energy

>  <rmsd>  (27) 
8.706457390290735

>  <m_score__min__rmsd>  (27) 
8.706457390290735

>  <meeko>  (27) 
{"free_energy": -7.45, "intermolecular_energy": -8.94, "internal_energy": -2.04, "cluster_size": 1, "cluster_id": 5, "rank_in_cluster": 1}

>  <energy>  (27) 
-7.84

>  <cluster_rmsd>  (27) 
0.46

>  <cluster>  (27) 
1

$$$$

     RDKit          3D

 51 54  0  0  0  0  0  0  0  0999 V2000
  139.3210   71.3740  221.1280 O   0  0  0  0  0  0  0  0  0  0  0  0
  139.9380   71.8460  222.1070 C   0  0  0  0  0  0  0  0  0  0  0  0
  140.6710   73.0570  221.9790 N   0  0  0  0  0  0  0  0  0  0  0  0
  140.7840   73.8510  220.8140 C   0  0  0  0  0  0  0  0  0  0  0  0
  141.3510   75.1940  220.8950 C   0  0  0  0  0  0  0  0  0  0  0  0
  141.4120   75.6610  222.1140 O   0  0  0  0  0  0  0  0  0  0  0  0
  141.8250   76.0550  219.9090 N   0  0  0  0  0  0  0  0  0  0  0  0
  141.0730   77.1490  219.2870 C   0  0  0  0  0  0  0  0  0  0  0  0
  142.0740   78.2160  218.8030 C   0  0  0  0  0  0  0  0  0  0  0  0
  142.9330   77.6540  217.6950 C   0  0  0  0  0  0  0  0  0  0  0  0
  143.1150   76.1450  217.8960 C   0  0  0  0  0  0  0  0  0  0  0  0
  143.2070   75.9480  219.4110 C   0  0  2  0  0  0  0  0  0  0  0  0
  143.8820   74.6870  219.7550 C   0  0  0  0  0  0  0  0  0  0  0  0
  143.4350   73.5610  219.0230 C   0  0  0  0  0  0  0  0  0  0  0  0
  144.0230   72.3410  219.3270 C   0  0  0  0  0  0  0  0  0  0  0  0
  144.9910   72.2150  220.2900 C   0  0  0  0  0  0  0  0  0  0  0  0
  145.4500   73.3190  221.0300 C   0  0  0  0  0  0  0  0  0  0  0  0
  144.8460   74.5190  220.7010 C   0  0  0  0  0  0  0  0  0  0  0  0
  139.9000   71.1440  223.3930 C   0  0  0  0  0  0  0  0  0  0  0  0
  139.2960   69.9160  223.5380 C   0  0  0  0  0  0  0  0  0  0  0  0
  139.2740   69.2750  224.7590 C   0  0  0  0  0  0  0  0  0  0  0  0
  139.8770   69.8900  225.8600 C   0  0  0  0  0  0  0  0  0  0  0  0
  139.8870   69.2940  227.1040 C   0  0  0  0  0  0  0  0  0  0  0  0
  140.5000   69.9460  228.1550 C   0  0  0  0  0  0  0  0  0  0  0  0
  141.1010   71.1720  228.0070 C   0  0  0  0  0  0  0  0  0  0  0  0
  141.7000   71.7980  229.0740 F   0  0  0  0  0  0  0  0  0  0  0  0
  141.1000   71.7900  226.7540 C   0  0  0  0  0  0  0  0  0  0  0  0
  140.4890   71.1370  225.7040 C   0  0  0  0  0  0  0  0  0  0  0  0
  140.4670   71.6950  224.4840 N   0  0  0  0  0  0  0  0  0  0  0  0
  141.1740   73.3750  222.8640 H   0  0  0  0  0  0  0  0  0  0  0  0
  141.4068   73.2862  220.1046 H   0  0  0  0  0  0  0  0  0  0  0  0
  139.7367   74.0366  220.5334 H   0  0  0  0  0  0  0  0  0  0  0  0
  140.4976   76.7647  218.4318 H   0  0  0  0  0  0  0  0  0  0  0  0
  140.3754   77.5888  220.0149 H   0  0  0  0  0  0  0  0  0  0  0  0
  141.5216   79.0901  218.4278 H   0  0  0  0  0  0  0  0  0  0  0  0
  142.7182   78.5141  219.6433 H   0  0  0  0  0  0  0  0  0  0  0  0
  142.4458   77.8375  216.7260 H   0  0  0  0  0  0  0  0  0  0  0  0
  143.9172   78.1449  217.7129 H   0  0  0  0  0  0  0  0  0  0  0  0
  142.2543   75.5952  217.4875 H   0  0  0  0  0  0  0  0  0  0  0  0
  144.0088   75.7670  217.3781 H   0  0  0  0  0  0  0  0  0  0  0  0
  143.8341   76.7102  219.8967 H   0  0  0  0  0  0  0  0  0  0  0  0
  142.6579   73.6487  218.2494 H   0  0  0  0  0  0  0  0  0  0  0  0
  143.7015   71.4445  218.7766 H   0  0  0  0  0  0  0  0  0  0  0  0
  145.4206   71.2222  220.4892 H   0  0  0  0  0  0  0  0  0  0  0  0
  146.2250   73.2353  221.8061 H   0  0  0  0  0  0  0  0  0  0  0  0
  145.1726   75.4140  221.2509 H   0  0  0  0  0  0  0  0  0  0  0  0
  138.8236   69.4384  222.6669 H   0  0  0  0  0  0  0  0  0  0  0  0
  138.7887   68.2935  224.8650 H   0  0  0  0  0  0  0  0  0  0  0  0
  139.4132   68.3130  227.2563 H   0  0  0  0  0  0  0  0  0  0  0  0
  140.5074   69.4671  229.1452 H   0  0  0  0  0  0  0  0  0  0  0  0
  141.5742   72.7718  226.6087 H   0  0  0  0  0  0  0  0  0  0  0  0
  1  2  2  0
  2  3  1  0
  3  4  1  0
  4  5  1  0
  5  6  2  0
  5  7  1  0
  7  8  1  0
  8  9  1  0
  9 10  1  0
 10 11  1  0
 11 12  1  0
 12 13  1  0
 13 14  2  0
 14 15  1  0
 15 16  2  0
 16 17  1  0
 17 18  2  0
  2 19  1  0
 19 20  2  0
 20 21  1  0
 21 22  2  0
 22 23  1  0
 23 24  2  0
 24 25  1  0
 25 26  1  0
 25 27  2  0
 27 28  1  0
 28 29  2  0
 12  7  1  0
 18 13  1  0
 29 19  1  0
 28 22  1  0
  3 30  1  0
  4 31  1  0
  4 32  1  0
  8 33  1  0
  8 34  1  0
  9 35  1  0
  9 36  1  0
 10 37  1  0
 10 38  1  0
 11 39  1  0
 11 40  1  0
 12 41  1  1
 14 42  1  0
 15 43  1  0
 16 44  1  0
 17 45  1  0
 18 46  1  0
 20 47  1  0
 21 48  1  0
 23 49  1  0
 24 50  1  0
 27 51  1  0
M  END
>  <smiles>  (28) 
O=C(NCC(=O)N1CCCCC1c1ccccc1)c1ccc2ccc(F)cc2n1

>  <score_type>  (28) 
oracle

>  <origin>  (28) 
autodockgpu

>  <m_score__min__energy>  (28) 
-8.3300000000000001

>  <m_primary>  (28) 
energy

>  <rmsd>  (28) 
2.202756771012468

>  <m_score__min__rmsd>  (28) 
2.202756771012468

>  <meeko>  (28) 
{"free_energy": -7.88, "intermolecular_energy": -9.37, "internal_energy": -2.09, "cluster_size": 34, "cluster_id": 1, "rank_in_cluster": 24}

>  <energy>  (28) 
-7.83

>  <cluster_rmsd>  (28) 
0.66

>  <cluster>  (28) 
1

$$$$

     RDKit          3D

 51 54  0  0  0  0  0  0  0  0999 V2000
  141.1170   74.7040  220.8270 O   0  0  0  0  0  0  0  0  0  0  0  0
  140.2890   74.9120  221.7400 C   0  0  0  0  0  0  0  0  0  0  0  0
  139.5820   73.8310  222.3310 N   0  0  0  0  0  0  0  0  0  0  0  0
  139.7190   72.4610  222.0050 C   0  0  0  0  0  0  0  0  0  0  0  0
  138.8230   71.4730  222.5990 C   0  0  0  0  0  0  0  0  0  0  0  0
  137.8570   72.0020  223.3010 O   0  0  0  0  0  0  0  0  0  0  0  0
  138.8250   70.0820  222.5520 N   0  0  0  0  0  0  0  0  0  0  0  0
  138.1490   69.2540  221.5480 C   0  0  0  0  0  0  0  0  0  0  0  0
  138.9020   67.9140  221.4330 C   0  0  0  0  0  0  0  0  0  0  0  0
  138.7780   67.1400  222.7230 C   0  0  0  0  0  0  0  0  0  0  0  0
  138.6650   68.1130  223.9030 C   0  0  0  0  0  0  0  0  0  0  0  0
  139.5750   69.2910  223.5420 C   0  0  2  0  0  0  0  0  0  0  0  0
  139.9870   70.0440  224.7370 C   0  0  0  0  0  0  0  0  0  0  0  0
  139.4290   69.5760  225.9500 C   0  0  0  0  0  0  0  0  0  0  0  0
  139.7670   70.2680  227.1050 C   0  0  0  0  0  0  0  0  0  0  0  0
  140.5980   71.3570  227.0880 C   0  0  0  0  0  0  0  0  0  0  0  0
  141.1640   71.8420  225.8940 C   0  0  0  0  0  0  0  0  0  0  0  0
  140.8090   71.1290  224.7640 C   0  0  0  0  0  0  0  0  0  0  0  0
  140.0500   76.2840  222.2020 C   0  0  0  0  0  0  0  0  0  0  0  0
  138.7830   76.7990  222.3370 C   0  0  0  0  0  0  0  0  0  0  0  0
  138.5840   78.0930  222.7740 C   0  0  0  0  0  0  0  0  0  0  0  0
  139.6950   78.8830  223.0800 C   0  0  0  0  0  0  0  0  0  0  0  0
  139.5570   80.1830  223.5240 C   0  0  0  0  0  0  0  0  0  0  0  0
  140.6880   80.9170  223.8150 C   0  0  0  0  0  0  0  0  0  0  0  0
  141.9540   80.3990  223.6770 C   0  0  0  0  0  0  0  0  0  0  0  0
  143.0620   81.1560  223.9720 F   0  0  0  0  0  0  0  0  0  0  0  0
  142.1120   79.0850  223.2300 C   0  0  0  0  0  0  0  0  0  0  0  0
  140.9800   78.3520  222.9410 C   0  0  0  0  0  0  0  0  0  0  0  0
  141.0880   77.0860  222.5100 N   0  0  0  0  0  0  0  0  0  0  0  0
  138.8890   74.1060  223.0930 H   0  0  0  0  0  0  0  0  0  0  0  0
  139.6001   72.3814  220.9143 H   0  0  0  0  0  0  0  0  0  0  0  0
  140.6993   72.1985  222.4293 H   0  0  0  0  0  0  0  0  0  0  0  0
  137.1095   69.0703  221.8572 H   0  0  0  0  0  0  0  0  0  0  0  0
  138.1441   69.7686  220.5758 H   0  0  0  0  0  0  0  0  0  0  0  0
  138.4713   67.3235  220.6110 H   0  0  0  0  0  0  0  0  0  0  0  0
  139.9650   68.1131  221.2320 H   0  0  0  0  0  0  0  0  0  0  0  0
  137.8793   66.5069  222.6842 H   0  0  0  0  0  0  0  0  0  0  0  0
  139.6696   66.5096  222.8558 H   0  0  0  0  0  0  0  0  0  0  0  0
  137.6257   68.4520  224.0251 H   0  0  0  0  0  0  0  0  0  0  0  0
  138.9593   67.6427  224.8528 H   0  0  0  0  0  0  0  0  0  0  0  0
  140.5311   68.9660  223.1059 H   0  0  0  0  0  0  0  0  0  0  0  0
  138.7585   68.7044  225.9766 H   0  0  0  0  0  0  0  0  0  0  0  0
  139.3534   69.9304  228.0667 H   0  0  0  0  0  0  0  0  0  0  0  0
  140.8296   71.8671  228.0347 H   0  0  0  0  0  0  0  0  0  0  0  0
  141.8326   72.7149  225.8626 H   0  0  0  0  0  0  0  0  0  0  0  0
  141.2266   71.4674  223.8042 H   0  0  0  0  0  0  0  0  0  0  0  0
  137.9141   76.1702  222.0930 H   0  0  0  0  0  0  0  0  0  0  0  0
  137.5661   78.4962  222.8798 H   0  0  0  0  0  0  0  0  0  0  0  0
  138.5581   80.6276  223.6441 H   0  0  0  0  0  0  0  0  0  0  0  0
  140.5731   81.9519  224.1695 H   0  0  0  0  0  0  0  0  0  0  0  0
  143.1137   78.6461  223.1115 H   0  0  0  0  0  0  0  0  0  0  0  0
  1  2  2  0
  2  3  1  0
  3  4  1  0
  4  5  1  0
  5  6  2  0
  5  7  1  0
  7  8  1  0
  8  9  1  0
  9 10  1  0
 10 11  1  0
 11 12  1  0
 12 13  1  0
 13 14  2  0
 14 15  1  0
 15 16  2  0
 16 17  1  0
 17 18  2  0
  2 19  1  0
 19 20  2  0
 20 21  1  0
 21 22  2  0
 22 23  1  0
 23 24  2  0
 24 25  1  0
 25 26  1  0
 25 27  2  0
 27 28  1  0
 28 29  2  0
 12  7  1  0
 18 13  1  0
 29 19  1  0
 28 22  1  0
  3 30  1  0
  4 31  1  0
  4 32  1  0
  8 33  1  0
  8 34  1  0
  9 35  1  0
  9 36  1  0
 10 37  1  0
 10 38  1  0
 11 39  1  0
 11 40  1  0
 12 41  1  6
 14 42  1  0
 15 43  1  0
 16 44  1  0
 17 45  1  0
 18 46  1  0
 20 47  1  0
 21 48  1  0
 23 49  1  0
 24 50  1  0
 27 51  1  0
M  END
>  <smiles>  (29) 
O=C(NCC(=O)N1CCCCC1c1ccccc1)c1ccc2ccc(F)cc2n1

>  <score_type>  (29) 
oracle

>  <origin>  (29) 
autodockgpu

>  <m_score__min__energy>  (29) 
-8.3300000000000001

>  <m_primary>  (29) 
energy

>  <rmsd>  (29) 
8.19598758364345

>  <m_score__min__rmsd>  (29) 
8.19598758364345

>  <meeko>  (29) 
{"free_energy": -7.98, "intermolecular_energy": -9.47, "internal_energy": -1.59, "cluster_size": 2, "cluster_id": 2, "rank_in_cluster": 2}

>  <energy>  (29) 
-7.8

>  <cluster_rmsd>  (29) 
0.6

>  <cluster>  (29) 
1

$$$$

     RDKit          3D

 51 54  0  0  0  0  0  0  0  0999 V2000
  140.3200   71.6340  221.0410 O   0  0  0  0  0  0  0  0  0  0  0  0
  140.0720   72.2260  222.1140 C   0  0  0  0  0  0  0  0  0  0  0  0
  139.9100   73.6370  222.1360 N   0  0  0  0  0  0  0  0  0  0  0  0
  139.9840   74.5080  221.0240 C   0  0  0  0  0  0  0  0  0  0  0  0
  140.9460   75.6070  221.0170 C   0  0  0  0  0  0  0  0  0  0  0  0
  141.3180   75.9820  222.2120 O   0  0  0  0  0  0  0  0  0  0  0  0
  141.5230   76.3190  219.9690 N   0  0  0  0  0  0  0  0  0  0  0  0
  140.9280   77.4670  219.2780 C   0  0  0  0  0  0  0  0  0  0  0  0
  142.0650   78.3400  218.7120 C   0  0  0  0  0  0  0  0  0  0  0  0
  142.8120   77.5830  217.6390 C   0  0  0  0  0  0  0  0  0  0  0  0
  142.7760   76.0800  217.9440 C   0  0  0  0  0  0  0  0  0  0  0  0
  142.8650   75.9760  219.4700 C   0  0  2  0  0  0  0  0  0  0  0  0
  143.3550   74.6560  219.8950 C   0  0  0  0  0  0  0  0  0  0  0  0
  144.6380   74.6680  220.4930 C   0  0  0  0  0  0  0  0  0  0  0  0
  145.1560   73.4430  220.8900 C   0  0  0  0  0  0  0  0  0  0  0  0
  144.4720   72.2680  220.7170 C   0  0  0  0  0  0  0  0  0  0  0  0
  143.1970   72.2310  220.1240 C   0  0  0  0  0  0  0  0  0  0  0  0
  142.7090   73.4680  219.7430 C   0  0  0  0  0  0  0  0  0  0  0  0
  139.9470   71.4530  223.3540 C   0  0  0  0  0  0  0  0  0  0  0  0
  139.2370   70.2770  223.4130 C   0  0  0  0  0  0  0  0  0  0  0  0
  139.1350   69.5670  224.5920 C   0  0  0  0  0  0  0  0  0  0  0  0
  139.7650   70.0600  225.7380 C   0  0  0  0  0  0  0  0  0  0  0  0
  139.6990   69.3920  226.9430 C   0  0  0  0  0  0  0  0  0  0  0  0
  140.3430   69.9230  228.0420 C   0  0  0  0  0  0  0  0  0  0  0  0
  141.0510   71.0990  227.9790 C   0  0  0  0  0  0  0  0  0  0  0  0
  141.6800   71.6040  229.0910 F   0  0  0  0  0  0  0  0  0  0  0  0
  141.1290   71.7880  226.7660 C   0  0  0  0  0  0  0  0  0  0  0  0
  140.4860   71.2560  225.6690 C   0  0  0  0  0  0  0  0  0  0  0  0
  140.5370   71.8860  224.4850 N   0  0  0  0  0  0  0  0  0  0  0  0
  139.7130   74.0540  223.0980 H   0  0  0  0  0  0  0  0  0  0  0  0
  140.2094   73.8838  220.1468 H   0  0  0  0  0  0  0  0  0  0  0  0
  139.0127   75.0239  221.0433 H   0  0  0  0  0  0  0  0  0  0  0  0
  140.2870   77.1143  218.4566 H   0  0  0  0  0  0  0  0  0  0  0  0
  140.3160   78.0533  219.9792 H   0  0  0  0  0  0  0  0  0  0  0  0
  141.6393   79.2581  218.2809 H   0  0  0  0  0  0  0  0  0  0  0  0
  142.7613   78.5972  219.5238 H   0  0  0  0  0  0  0  0  0  0  0  0
  142.3387   77.7693  216.6637 H   0  0  0  0  0  0  0  0  0  0  0  0
  143.8575   77.9241  217.6143 H   0  0  0  0  0  0  0  0  0  0  0  0
  141.8374   75.6355  217.5814 H   0  0  0  0  0  0  0  0  0  0  0  0
  143.5959   75.5405  217.4472 H   0  0  0  0  0  0  0  0  0  0  0  0
  143.6044   76.6691  219.8976 H   0  0  0  0  0  0  0  0  0  0  0  0
  145.1980   75.6039  220.6363 H   0  0  0  0  0  0  0  0  0  0  0  0
  146.1502   73.4142  221.3599 H   0  0  0  0  0  0  0  0  0  0  0  0
  144.9332   71.3270  221.0514 H   0  0  0  0  0  0  0  0  0  0  0  0
  142.6353   71.2970  219.9757 H   0  0  0  0  0  0  0  0  0  0  0  0
  141.7129   73.4936  219.2770 H   0  0  0  0  0  0  0  0  0  0  0  0
  138.7429   69.8964  222.5069 H   0  0  0  0  0  0  0  0  0  0  0  0
  138.5659   68.6264  224.6292 H   0  0  0  0  0  0  0  0  0  0  0  0
  139.1403   68.4482  227.0269 H   0  0  0  0  0  0  0  0  0  0  0  0
  140.2877   69.3867  229.0008 H   0  0  0  0  0  0  0  0  0  0  0  0
  141.6895   72.7313  226.6884 H   0  0  0  0  0  0  0  0  0  0  0  0
  1  2  2  0
  2  3  1  0
  3  4  1  0
  4  5  1  0
  5  6  2  0
  5  7  1  0
  7  8  1  0
  8  9  1  0
  9 10  1  0
 10 11  1  0
 11 12  1  0
 12 13  1  0
 13 14  2  0
 14 15  1  0
 15 16  2  0
 16 17  1  0
 17 18  2  0
  2 19  1  0
 19 20  2  0
 20 21  1  0
 21 22  2  0
 22 23  1  0
 23 24  2  0
 24 25  1  0
 25 26  1  0
 25 27  2  0
 27 28  1  0
 28 29  2  0
 12  7  1  0
 18 13  1  0
 29 19  1  0
 28 22  1  0
  3 30  1  0
  4 31  1  0
  4 32  1  0
  8 33  1  0
  8 34  1  0
  9 35  1  0
  9 36  1  0
 10 37  1  0
 10 38  1  0
 11 39  1  0
 11 40  1  0
 12 41  1  1
 14 42  1  0
 15 43  1  0
 16 44  1  0
 17 45  1  0
 18 46  1  0
 20 47  1  0
 21 48  1  0
 23 49  1  0
 24 50  1  0
 27 51  1  0
M  END
>  <smiles>  (30) 
O=C(NCC(=O)N1CCCCC1c1ccccc1)c1ccc2ccc(F)cc2n1

>  <score_type>  (30) 
oracle

>  <origin>  (30) 
autodockgpu

>  <m_score__min__energy>  (30) 
-8.3300000000000001

>  <m_primary>  (30) 
energy

>  <rmsd>  (30) 
2.0973748221858397

>  <m_score__min__rmsd>  (30) 
2.0973748221858397

>  <meeko>  (30) 
{"free_energy": -8.28, "intermolecular_energy": -9.77, "internal_energy": -1.84, "cluster_size": 34, "cluster_id": 1, "rank_in_cluster": 4}

>  <energy>  (30) 
-7.8

>  <cluster_rmsd>  (30) 
0.64

>  <cluster>  (30) 
1

$$$$

     RDKit          3D

 51 54  0  0  0  0  0  0  0  0999 V2000
  139.6880   71.1060  221.0320 O   0  0  0  0  0  0  0  0  0  0  0  0
  140.0670   71.7170  222.0540 C   0  0  0  0  0  0  0  0  0  0  0  0
  140.5920   73.0330  221.9530 N   0  0  0  0  0  0  0  0  0  0  0  0
  140.7340   73.7910  220.7670 C   0  0  0  0  0  0  0  0  0  0  0  0
  141.3350   75.1210  220.8150 C   0  0  0  0  0  0  0  0  0  0  0  0
  141.4300   75.6070  222.0250 O   0  0  0  0  0  0  0  0  0  0  0  0
  141.8120   75.9540  219.8070 N   0  0  0  0  0  0  0  0  0  0  0  0
  141.0440   76.9910  219.1120 C   0  0  0  0  0  0  0  0  0  0  0  0
  142.0230   78.0710  218.6110 C   0  0  0  0  0  0  0  0  0  0  0  0
  142.9370   77.4920  217.5580 C   0  0  0  0  0  0  0  0  0  0  0  0
  143.1660   76.0000  217.8340 C   0  0  0  0  0  0  0  0  0  0  0  0
  143.2130   75.8750  219.3590 C   0  0  2  0  0  0  0  0  0  0  0  0
  143.9200   74.6550  219.7820 C   0  0  0  0  0  0  0  0  0  0  0  0
  143.5090   73.4760  219.1160 C   0  0  0  0  0  0  0  0  0  0  0  0
  144.1290   72.2930  219.4960 C   0  0  0  0  0  0  0  0  0  0  0  0
  145.0920   72.2520  220.4700 C   0  0  0  0  0  0  0  0  0  0  0  0
  145.5150   73.4110  221.1460 C   0  0  0  0  0  0  0  0  0  0  0  0
  144.8800   74.5710  220.7420 C   0  0  0  0  0  0  0  0  0  0  0  0
  139.9640   71.0670  223.3650 C   0  0  0  0  0  0  0  0  0  0  0  0
  139.3100   69.8700  223.5370 C   0  0  0  0  0  0  0  0  0  0  0  0
  139.2270   69.2770  224.7810 C   0  0  0  0  0  0  0  0  0  0  0  0
  139.8210   69.9120  225.8750 C   0  0  0  0  0  0  0  0  0  0  0  0
  139.7730   69.3650  227.1410 C   0  0  0  0  0  0  0  0  0  0  0  0
  140.3790   70.0330  228.1850 C   0  0  0  0  0  0  0  0  0  0  0  0
  141.0310   71.2300  228.0090 C   0  0  0  0  0  0  0  0  0  0  0  0
  141.6230   71.8730  229.0690 F   0  0  0  0  0  0  0  0  0  0  0  0
  141.0900   71.7980  226.7340 C   0  0  0  0  0  0  0  0  0  0  0  0
  140.4850   71.1280  225.6910 C   0  0  0  0  0  0  0  0  0  0  0  0
  140.5200   71.6380  224.4510 N   0  0  0  0  0  0  0  0  0  0  0  0
  140.9000   73.4690  222.8760 H   0  0  0  0  0  0  0  0  0  0  0  0
  141.3471   73.1908  220.0787 H   0  0  0  0  0  0  0  0  0  0  0  0
  139.6939   73.9954  220.4731 H   0  0  0  0  0  0  0  0  0  0  0  0
  140.5110   76.5482  218.2577 H   0  0  0  0  0  0  0  0  0  0  0  0
  140.3080   77.4377  219.7967 H   0  0  0  0  0  0  0  0  0  0  0  0
  141.4531   78.9068  218.1789 H   0  0  0  0  0  0  0  0  0  0  0  0
  142.6283   78.4294  219.4566 H   0  0  0  0  0  0  0  0  0  0  0  0
  142.4758   77.6137  216.5668 H   0  0  0  0  0  0  0  0  0  0  0  0
  143.9021   78.0192  217.5842 H   0  0  0  0  0  0  0  0  0  0  0  0
  142.3400   75.4008  217.4234 H   0  0  0  0  0  0  0  0  0  0  0  0
  144.0898   75.6325  217.3633 H   0  0  0  0  0  0  0  0  0  0  0  0
  143.7958   76.6807  219.8292 H   0  0  0  0  0  0  0  0  0  0  0  0
  142.7352   73.4957  218.3344 H   0  0  0  0  0  0  0  0  0  0  0  0
  143.8371   71.3566  218.9980 H   0  0  0  0  0  0  0  0  0  0  0  0
  145.5473   71.2852  220.7308 H   0  0  0  0  0  0  0  0  0  0  0  0
  146.2862   73.3957  221.9302 H   0  0  0  0  0  0  0  0  0  0  0  0
  145.1766   75.5061  221.2396 H   0  0  0  0  0  0  0  0  0  0  0  0
  138.8457   69.3772  222.6701 H   0  0  0  0  0  0  0  0  0  0  0  0
  138.7013   68.3193  224.9091 H   0  0  0  0  0  0  0  0  0  0  0  0
  139.2582   68.4087  227.3155 H   0  0  0  0  0  0  0  0  0  0  0  0
  140.3390   69.5927  229.1922 H   0  0  0  0  0  0  0  0  0  0  0  0
  141.6057   72.7550  226.5661 H   0  0  0  0  0  0  0  0  0  0  0  0
  1  2  2  0
  2  3  1  0
  3  4  1  0
  4  5  1  0
  5  6  2  0
  5  7  1  0
  7  8  1  0
  8  9  1  0
  9 10  1  0
 10 11  1  0
 11 12  1  0
 12 13  1  0
 13 14  2  0
 14 15  1  0
 15 16  2  0
 16 17  1  0
 17 18  2  0
  2 19  1  0
 19 20  2  0
 20 21  1  0
 21 22  2  0
 22 23  1  0
 23 24  2  0
 24 25  1  0
 25 26  1  0
 25 27  2  0
 27 28  1  0
 28 29  2  0
 12  7  1  0
 18 13  1  0
 29 19  1  0
 28 22  1  0
  3 30  1  0
  4 31  1  0
  4 32  1  0
  8 33  1  0
  8 34  1  0
  9 35  1  0
  9 36  1  0
 10 37  1  0
 10 38  1  0
 11 39  1  0
 11 40  1  0
 12 41  1  1
 14 42  1  0
 15 43  1  0
 16 44  1  0
 17 45  1  0
 18 46  1  0
 20 47  1  0
 21 48  1  0
 23 49  1  0
 24 50  1  0
 27 51  1  0
M  END
>  <smiles>  (31) 
O=C(NCC(=O)N1CCCCC1c1ccccc1)c1ccc2ccc(F)cc2n1

>  <score_type>  (31) 
oracle

>  <origin>  (31) 
autodockgpu

>  <m_score__min__energy>  (31) 
-8.3300000000000001

>  <m_primary>  (31) 
energy

>  <rmsd>  (31) 
2.162712595598667

>  <m_score__min__rmsd>  (31) 
2.162712595598667

>  <meeko>  (31) 
{"free_energy": -7.83, "intermolecular_energy": -9.33, "internal_energy": -2.18, "cluster_size": 34, "cluster_id": 1, "rank_in_cluster": 28}

>  <energy>  (31) 
-7.74

>  <cluster_rmsd>  (31) 
0.57

>  <cluster>  (31) 
1

$$$$

     RDKit          3D

 51 54  0  0  0  0  0  0  0  0999 V2000
  139.4320   71.2280  221.0840 O   0  0  0  0  0  0  0  0  0  0  0  0
  139.9590   71.7690  222.0810 C   0  0  0  0  0  0  0  0  0  0  0  0
  140.6290   73.0160  221.9520 N   0  0  0  0  0  0  0  0  0  0  0  0
  140.7700   73.7740  220.7670 C   0  0  0  0  0  0  0  0  0  0  0  0
  141.3490   75.1130  220.8180 C   0  0  0  0  0  0  0  0  0  0  0  0
  141.4400   75.5960  222.0290 O   0  0  0  0  0  0  0  0  0  0  0  0
  141.8110   75.9570  219.8120 N   0  0  0  0  0  0  0  0  0  0  0  0
  141.0300   76.9960  219.1340 C   0  0  0  0  0  0  0  0  0  0  0  0
  141.9980   78.0860  218.6320 C   0  0  0  0  0  0  0  0  0  0  0  0
  142.9040   77.5200  217.5640 C   0  0  0  0  0  0  0  0  0  0  0  0
  143.1420   76.0270  217.8240 C   0  0  0  0  0  0  0  0  0  0  0  0
  143.2070   75.8890  219.3480 C   0  0  2  0  0  0  0  0  0  0  0  0
  143.9240   74.6690  219.7520 C   0  0  0  0  0  0  0  0  0  0  0  0
  143.5370   73.5000  219.0550 C   0  0  0  0  0  0  0  0  0  0  0  0
  144.1670   72.3170  219.4170 C   0  0  0  0  0  0  0  0  0  0  0  0
  145.1190   72.2660  220.4010 C   0  0  0  0  0  0  0  0  0  0  0  0
  145.5190   73.4150  221.1080 C   0  0  0  0  0  0  0  0  0  0  0  0
  144.8750   74.5760  220.7220 C   0  0  0  0  0  0  0  0  0  0  0  0
  139.8790   71.1100  223.3880 C   0  0  0  0  0  0  0  0  0  0  0  0
  139.2150   69.9200  223.5670 C   0  0  0  0  0  0  0  0  0  0  0  0
  139.1550   69.3190  224.8080 C   0  0  0  0  0  0  0  0  0  0  0  0
  139.7820   69.9370  225.8930 C   0  0  0  0  0  0  0  0  0  0  0  0
  139.7570   69.3820  227.1550 C   0  0  0  0  0  0  0  0  0  0  0  0
  140.3970   70.0350  228.1890 C   0  0  0  0  0  0  0  0  0  0  0  0
  141.0600   71.2250  228.0070 C   0  0  0  0  0  0  0  0  0  0  0  0
  141.6840   71.8520  229.0570 F   0  0  0  0  0  0  0  0  0  0  0  0
  141.0950   71.8010  226.7340 C   0  0  0  0  0  0  0  0  0  0  0  0
  140.4560   71.1470  225.7020 C   0  0  0  0  0  0  0  0  0  0  0  0
  140.4680   71.6660  224.4650 N   0  0  0  0  0  0  0  0  0  0  0  0
  141.0560   73.3940  222.8530 H   0  0  0  0  0  0  0  0  0  0  0  0
  141.3990   73.1825  220.0855 H   0  0  0  0  0  0  0  0  0  0  0  0
  139.7295   73.9615  220.4633 H   0  0  0  0  0  0  0  0  0  0  0  0
  140.4904   76.5577  218.2815 H   0  0  0  0  0  0  0  0  0  0  0  0
  140.2989   77.4327  219.8303 H   0  0  0  0  0  0  0  0  0  0  0  0
  141.4192   78.9224  218.2131 H   0  0  0  0  0  0  0  0  0  0  0  0
  142.6103   78.4410  219.4741 H   0  0  0  0  0  0  0  0  0  0  0  0
  142.4322   77.6487  216.5787 H   0  0  0  0  0  0  0  0  0  0  0  0
  143.8671   78.0510  217.5852 H   0  0  0  0  0  0  0  0  0  0  0  0
  142.3137   75.4280  217.4176 H   0  0  0  0  0  0  0  0  0  0  0  0
  144.0617   75.6673  217.3395 H   0  0  0  0  0  0  0  0  0  0  0  0
  143.7913   76.6934  219.8188 H   0  0  0  0  0  0  0  0  0  0  0  0
  142.7732   73.5272  218.2638 H   0  0  0  0  0  0  0  0  0  0  0  0
  143.8923   71.3882  218.8956 H   0  0  0  0  0  0  0  0  0  0  0  0
  145.5838   71.2994  220.6453 H   0  0  0  0  0  0  0  0  0  0  0  0
  146.2804   73.3915  221.9015 H   0  0  0  0  0  0  0  0  0  0  0  0
  145.1548   75.5036  221.2429 H   0  0  0  0  0  0  0  0  0  0  0  0
  138.7239   69.4393  222.7081 H   0  0  0  0  0  0  0  0  0  0  0  0
  138.6209   68.3666  224.9411 H   0  0  0  0  0  0  0  0  0  0  0  0
  139.2339   68.4313  227.3354 H   0  0  0  0  0  0  0  0  0  0  0  0
  140.3756   69.5874  229.1936 H   0  0  0  0  0  0  0  0  0  0  0  0
  141.6192   72.7522  226.5598 H   0  0  0  0  0  0  0  0  0  0  0  0
  1  2  2  0
  2  3  1  0
  3  4  1  0
  4  5  1  0
  5  6  2  0
  5  7  1  0
  7  8  1  0
  8  9  1  0
  9 10  1  0
 10 11  1  0
 11 12  1  0
 12 13  1  0
 13 14  2  0
 14 15  1  0
 15 16  2  0
 16 17  1  0
 17 18  2  0
  2 19  1  0
 19 20  2  0
 20 21  1  0
 21 22  2  0
 22 23  1  0
 23 24  2  0
 24 25  1  0
 25 26  1  0
 25 27  2  0
 27 28  1  0
 28 29  2  0
 12  7  1  0
 18 13  1  0
 29 19  1  0
 28 22  1  0
  3 30  1  0
  4 31  1  0
  4 32  1  0
  8 33  1  0
  8 34  1  0
  9 35  1  0
  9 36  1  0
 10 37  1  0
 10 38  1  0
 11 39  1  0
 11 40  1  0
 12 41  1  1
 14 42  1  0
 15 43  1  0
 16 44  1  0
 17 45  1  0
 18 46  1  0
 20 47  1  0
 21 48  1  0
 23 49  1  0
 24 50  1  0
 27 51  1  0
M  END
>  <smiles>  (32) 
O=C(NCC(=O)N1CCCCC1c1ccccc1)c1ccc2ccc(F)cc2n1

>  <score_type>  (32) 
oracle

>  <origin>  (32) 
autodockgpu

>  <m_score__min__energy>  (32) 
-8.3300000000000001

>  <m_primary>  (32) 
energy

>  <rmsd>  (32) 
2.1699453790637304

>  <m_score__min__rmsd>  (32) 
2.1699453790637304

>  <meeko>  (32) 
{"free_energy": -7.87, "intermolecular_energy": -9.36, "internal_energy": -2.16, "cluster_size": 34, "cluster_id": 1, "rank_in_cluster": 26}

>  <energy>  (32) 
-7.67

>  <cluster_rmsd>  (32) 
0.48

>  <cluster>  (32) 
1

$$$$

     RDKit          3D

 51 54  0  0  0  0  0  0  0  0999 V2000
  140.1910   71.4280  221.0160 O   0  0  0  0  0  0  0  0  0  0  0  0
  140.0680   72.0380  222.1000 C   0  0  0  0  0  0  0  0  0  0  0  0
  140.0330   73.4580  222.1260 N   0  0  0  0  0  0  0  0  0  0  0  0
  140.1090   74.3200  221.0070 C   0  0  0  0  0  0  0  0  0  0  0  0
  140.9680   75.5000  221.0480 C   0  0  0  0  0  0  0  0  0  0  0  0
  141.2900   75.8690  222.2590 O   0  0  0  0  0  0  0  0  0  0  0  0
  141.4930   76.2930  220.0310 N   0  0  0  0  0  0  0  0  0  0  0  0
  140.8320   77.4460  219.4110 C   0  0  0  0  0  0  0  0  0  0  0  0
  141.9160   78.4010  218.8760 C   0  0  0  0  0  0  0  0  0  0  0  0
  142.6790   77.7400  217.7530 C   0  0  0  0  0  0  0  0  0  0  0  0
  142.7200   76.2230  217.9780 C   0  0  0  0  0  0  0  0  0  0  0  0
  142.8400   76.0430  219.4940 C   0  0  2  0  0  0  0  0  0  0  0  0
  143.3990   74.7270  219.8410 C   0  0  0  0  0  0  0  0  0  0  0  0
  142.6820   73.6250  219.3160 C   0  0  0  0  0  0  0  0  0  0  0  0
  143.1540   72.3590  219.6360 C   0  0  0  0  0  0  0  0  0  0  0  0
  144.2600   72.1680  220.4230 C   0  0  0  0  0  0  0  0  0  0  0  0
  144.9880   73.2470  220.9560 C   0  0  0  0  0  0  0  0  0  0  0  0
  144.4930   74.4940  220.6170 C   0  0  0  0  0  0  0  0  0  0  0  0
  139.9590   71.2780  223.3490 C   0  0  0  0  0  0  0  0  0  0  0  0
  139.2800   70.0850  223.4210 C   0  0  0  0  0  0  0  0  0  0  0  0
  139.1920   69.3880  224.6090 C   0  0  0  0  0  0  0  0  0  0  0  0
  139.8050   69.9120  225.7500 C   0  0  0  0  0  0  0  0  0  0  0  0
  139.7510   69.2580  226.9640 C   0  0  0  0  0  0  0  0  0  0  0  0
  140.3770   69.8200  228.0580 C   0  0  0  0  0  0  0  0  0  0  0  0
  141.0540   71.0140  227.9820 C   0  0  0  0  0  0  0  0  0  0  0  0
  141.6650   71.5500  229.0900 F   0  0  0  0  0  0  0  0  0  0  0  0
  141.1180   71.6890  226.7610 C   0  0  0  0  0  0  0  0  0  0  0  0
  140.4930   71.1260  225.6690 C   0  0  0  0  0  0  0  0  0  0  0  0
  140.5330   71.7410  224.4770 N   0  0  0  0  0  0  0  0  0  0  0  0
  139.9380   73.8900  223.0960 H   0  0  0  0  0  0  0  0  0  0  0  0
  140.4504   73.7087  220.1586 H   0  0  0  0  0  0  0  0  0  0  0  0
  139.0971   74.7475  220.9497 H   0  0  0  0  0  0  0  0  0  0  0  0
  140.1943   77.1064  218.5815 H   0  0  0  0  0  0  0  0  0  0  0  0
  140.2050   77.9643  220.1514 H   0  0  0  0  0  0  0  0  0  0  0  0
  141.4398   79.3192  218.5017 H   0  0  0  0  0  0  0  0  0  0  0  0
  142.6135   78.6473  219.6901 H   0  0  0  0  0  0  0  0  0  0  0  0
  142.1802   77.9543  216.7963 H   0  0  0  0  0  0  0  0  0  0  0  0
  143.7063   78.1326  217.7302 H   0  0  0  0  0  0  0  0  0  0  0  0
  141.7976   75.7531  217.6059 H   0  0  0  0  0  0  0  0  0  0  0  0
  143.5562   75.7510  217.4413 H   0  0  0  0  0  0  0  0  0  0  0  0
  143.5530   76.7481  219.9461 H   0  0  0  0  0  0  0  0  0  0  0  0
  141.7926   73.7651  218.6841 H   0  0  0  0  0  0  0  0  0  0  0  0
  142.6222   71.4792  219.2446 H   0  0  0  0  0  0  0  0  0  0  0  0
  144.5875   71.1414  220.6440 H   0  0  0  0  0  0  0  0  0  0  0  0
  145.8769   73.1109  221.5896 H   0  0  0  0  0  0  0  0  0  0  0  0
  145.0290   75.3715  221.0078 H   0  0  0  0  0  0  0  0  0  0  0  0
  138.7996   69.6797  222.5183 H   0  0  0  0  0  0  0  0  0  0  0  0
  138.6471   68.4337  224.6569 H   0  0  0  0  0  0  0  0  0  0  0  0
  139.2161   68.3015  227.0584 H   0  0  0  0  0  0  0  0  0  0  0  0
  140.3327   69.2948  229.0235 H   0  0  0  0  0  0  0  0  0  0  0  0
  141.6536   72.6457  226.6730 H   0  0  0  0  0  0  0  0  0  0  0  0
  1  2  2  0
  2  3  1  0
  3  4  1  0
  4  5  1  0
  5  6  2  0
  5  7  1  0
  7  8  1  0
  8  9  1  0
  9 10  1  0
 10 11  1  0
 11 12  1  0
 12 13  1  0
 13 14  2  0
 14 15  1  0
 15 16  2  0
 16 17  1  0
 17 18  2  0
  2 19  1  0
 19 20  2  0
 20 21  1  0
 21 22  2  0
 22 23  1  0
 23 24  2  0
 24 25  1  0
 25 26  1  0
 25 27  2  0
 27 28  1  0
 28 29  2  0
 12  7  1  0
 18 13  1  0
 29 19  1  0
 28 22  1  0
  3 30  1  0
  4 31  1  0
  4 32  1  0
  8 33  1  0
  8 34  1  0
  9 35  1  0
  9 36  1  0
 10 37  1  0
 10 38  1  0
 11 39  1  0
 11 40  1  0
 12 41  1  1
 14 42  1  0
 15 43  1  0
 16 44  1  0
 17 45  1  0
 18 46  1  0
 20 47  1  0
 21 48  1  0
 23 49  1  0
 24 50  1  0
 27 51  1  0
M  END
>  <smiles>  (33) 
O=C(NCC(=O)N1CCCCC1c1ccccc1)c1ccc2ccc(F)cc2n1

>  <score_type>  (33) 
oracle

>  <origin>  (33) 
autodockgpu

>  <m_score__min__energy>  (33) 
-8.3300000000000001

>  <m_primary>  (33) 
energy

>  <rmsd>  (33) 
2.0595337248705774

>  <m_score__min__rmsd>  (33) 
2.0595337248705774

>  <meeko>  (33) 
{"free_energy": -7.98, "intermolecular_energy": -9.47, "internal_energy": -1.96, "cluster_size": 34, "cluster_id": 1, "rank_in_cluster": 17}

>  <energy>  (33) 
-7.63

>  <cluster_rmsd>  (33) 
0.52

>  <cluster>  (33) 
1

$$$$

     RDKit          3D

 51 54  0  0  0  0  0  0  0  0999 V2000
  140.4170   71.6890  221.0040 O   0  0  0  0  0  0  0  0  0  0  0  0
  140.1170   72.2490  222.0800 C   0  0  0  0  0  0  0  0  0  0  0  0
  139.8760   73.6480  222.1200 N   0  0  0  0  0  0  0  0  0  0  0  0
  139.9210   74.5390  221.0220 C   0  0  0  0  0  0  0  0  0  0  0  0
  140.9360   75.5870  220.9700 C   0  0  0  0  0  0  0  0  0  0  0  0
  141.4450   75.8780  222.1380 O   0  0  0  0  0  0  0  0  0  0  0  0
  141.4440   76.3250  219.9040 N   0  0  0  0  0  0  0  0  0  0  0  0
  140.7750   77.4460  219.2370 C   0  0  0  0  0  0  0  0  0  0  0  0
  141.8520   78.3690  218.6340 C   0  0  0  0  0  0  0  0  0  0  0  0
  142.5940   77.6470  217.5340 C   0  0  0  0  0  0  0  0  0  0  0  0
  142.6350   76.1440  217.8370 C   0  0  0  0  0  0  0  0  0  0  0  0
  142.7820   76.0430  219.3580 C   0  0  2  0  0  0  0  0  0  0  0  0
  143.3440   74.7450  219.7640 C   0  0  0  0  0  0  0  0  0  0  0  0
  142.5950   73.6210  219.3430 C   0  0  0  0  0  0  0  0  0  0  0  0
  143.0700   72.3730  219.7220 C   0  0  0  0  0  0  0  0  0  0  0  0
  144.2080   72.2190  220.4700 C   0  0  0  0  0  0  0  0  0  0  0  0
  144.9690   73.3220  220.9000 C   0  0  0  0  0  0  0  0  0  0  0  0
  144.4700   74.5490  220.5040 C   0  0  0  0  0  0  0  0  0  0  0  0
  140.0130   71.4510  223.3060 C   0  0  0  0  0  0  0  0  0  0  0  0
  139.3660   70.2390  223.3370 C   0  0  0  0  0  0  0  0  0  0  0  0
  139.2820   69.5060  224.5040 C   0  0  0  0  0  0  0  0  0  0  0  0
  139.8680   70.0130  225.6660 C   0  0  0  0  0  0  0  0  0  0  0  0
  139.8180   69.3240  226.8600 C   0  0  0  0  0  0  0  0  0  0  0  0
  140.4160   69.8710  227.9770 C   0  0  0  0  0  0  0  0  0  0  0  0
  141.0620   71.0840  227.9430 C   0  0  0  0  0  0  0  0  0  0  0  0
  141.6460   71.6040  229.0730 F   0  0  0  0  0  0  0  0  0  0  0  0
  141.1230   71.7950  226.7420 C   0  0  0  0  0  0  0  0  0  0  0  0
  140.5250   71.2470  225.6270 C   0  0  0  0  0  0  0  0  0  0  0  0
  140.5620   71.8970  224.4540 N   0  0  0  0  0  0  0  0  0  0  0  0
  139.6390   74.0390  223.0840 H   0  0  0  0  0  0  0  0  0  0  0  0
  140.0541   73.9238  220.1199 H   0  0  0  0  0  0  0  0  0  0  0  0
  138.9816   75.1033  221.1174 H   0  0  0  0  0  0  0  0  0  0  0  0
  140.1220   77.0659  218.4375 H   0  0  0  0  0  0  0  0  0  0  0  0
  140.1623   78.0039  219.9604 H   0  0  0  0  0  0  0  0  0  0  0  0
  141.3714   79.2678  218.2202 H   0  0  0  0  0  0  0  0  0  0  0  0
  142.5640   78.6560  219.4219 H   0  0  0  0  0  0  0  0  0  0  0  0
  142.0793   77.8128  216.5761 H   0  0  0  0  0  0  0  0  0  0  0  0
  143.6218   78.0342  217.4734 H   0  0  0  0  0  0  0  0  0  0  0  0
  141.7048   75.6587  217.5066 H   0  0  0  0  0  0  0  0  0  0  0  0
  143.4600   75.6416  217.3107 H   0  0  0  0  0  0  0  0  0  0  0  0
  143.5049   76.7680  219.7602 H   0  0  0  0  0  0  0  0  0  0  0  0
  141.6793   73.7309  218.7435 H   0  0  0  0  0  0  0  0  0  0  0  0
  142.5137   71.4764  219.4111 H   0  0  0  0  0  0  0  0  0  0  0  0
  144.5358   71.2048  220.7419 H   0  0  0  0  0  0  0  0  0  0  0  0
  145.8843   73.2167  221.5009 H   0  0  0  0  0  0  0  0  0  0  0  0
  145.0306   75.4435  220.8132 H   0  0  0  0  0  0  0  0  0  0  0  0
  138.9077   69.8465  222.4173 H   0  0  0  0  0  0  0  0  0  0  0  0
  138.7613   68.5371  224.5184 H   0  0  0  0  0  0  0  0  0  0  0  0
  139.3081   68.3512  226.9210 H   0  0  0  0  0  0  0  0  0  0  0  0
  140.3743   69.3176  228.9268 H   0  0  0  0  0  0  0  0  0  0  0  0
  141.6350   72.7671  226.6873 H   0  0  0  0  0  0  0  0  0  0  0  0
  1  2  2  0
  2  3  1  0
  3  4  1  0
  4  5  1  0
  5  6  2  0
  5  7  1  0
  7  8  1  0
  8  9  1  0
  9 10  1  0
 10 11  1  0
 11 12  1  0
 12 13  1  0
 13 14  2  0
 14 15  1  0
 15 16  2  0
 16 17  1  0
 17 18  2  0
  2 19  1  0
 19 20  2  0
 20 21  1  0
 21 22  2  0
 22 23  1  0
 23 24  2  0
 24 25  1  0
 25 26  1  0
 25 27  2  0
 27 28  1  0
 28 29  2  0
 12  7  1  0
 18 13  1  0
 29 19  1  0
 28 22  1  0
  3 30  1  0
  4 31  1  0
  4 32  1  0
  8 33  1  0
  8 34  1  0
  9 35  1  0
  9 36  1  0
 10 37  1  0
 10 38  1  0
 11 39  1  0
 11 40  1  0
 12 41  1  1
 14 42  1  0
 15 43  1  0
 16 44  1  0
 17 45  1  0
 18 46  1  0
 20 47  1  0
 21 48  1  0
 23 49  1  0
 24 50  1  0
 27 51  1  0
M  END
>  <smiles>  (34) 
O=C(NCC(=O)N1CCCCC1c1ccccc1)c1ccc2ccc(F)cc2n1

>  <score_type>  (34) 
oracle

>  <origin>  (34) 
autodockgpu

>  <m_score__min__energy>  (34) 
-8.3300000000000001

>  <m_primary>  (34) 
energy

>  <rmsd>  (34) 
2.040142370327109

>  <m_score__min__rmsd>  (34) 
2.040142370327109

>  <meeko>  (34) 
{"free_energy": -8.06, "intermolecular_energy": -9.56, "internal_energy": -1.85, "cluster_size": 34, "cluster_id": 1, "rank_in_cluster": 13}

>  <energy>  (34) 
-7.29

>  <cluster_rmsd>  (34) 
1.8

>  <cluster>  (34) 
1

$$$$

     RDKit          3D

 51 54  0  0  0  0  0  0  0  0999 V2000
  140.8180   76.6910  217.6050 O   0  0  0  0  0  0  0  0  0  0  0  0
  141.7820   76.7210  218.4000 C   0  0  0  0  0  0  0  0  0  0  0  0
  142.1000   77.9140  219.1020 N   0  0  0  0  0  0  0  0  0  0  0  0
  141.4090   79.1460  219.0190 C   0  0  0  0  0  0  0  0  0  0  0  0
  140.7550   79.7000  220.2010 C   0  0  0  0  0  0  0  0  0  0  0  0
  139.4850   79.9520  220.0250 O   0  0  0  0  0  0  0  0  0  0  0  0
  141.2470   80.0090  221.4660 N   0  0  0  0  0  0  0  0  0  0  0  0
  142.0880   81.1620  221.8050 C   0  0  0  0  0  0  0  0  0  0  0  0
  141.8580   81.5160  223.2870 C   0  0  0  0  0  0  0  0  0  0  0  0
  142.3560   80.3970  224.1690 C   0  0  0  0  0  0  0  0  0  0  0  0
  142.2110   79.0560  223.4380 C   0  0  0  0  0  0  0  0  0  0  0  0
  140.9140   79.1740  222.6330 C   0  0  2  0  0  0  0  0  0  0  0  0
  140.3610   77.8530  222.2980 C   0  0  0  0  0  0  0  0  0  0  0  0
  138.9600   77.7420  222.4620 C   0  0  0  0  0  0  0  0  0  0  0  0
  138.3910   76.5070  222.1830 C   0  0  0  0  0  0  0  0  0  0  0  0
  139.1380   75.4350  221.7700 C   0  0  0  0  0  0  0  0  0  0  0  0
  140.5320   75.5210  221.6000 C   0  0  0  0  0  0  0  0  0  0  0  0
  141.0660   76.7640  221.8840 C   0  0  0  0  0  0  0  0  0  0  0  0
  142.5860   75.5120  218.6080 C   0  0  0  0  0  0  0  0  0  0  0  0
  142.4110   74.3790  217.8480 C   0  0  0  0  0  0  0  0  0  0  0  0
  143.1810   73.2530  218.0630 C   0  0  0  0  0  0  0  0  0  0  0  0
  144.1490   73.2760  219.0690 C   0  0  0  0  0  0  0  0  0  0  0  0
  144.9490   72.1810  219.3270 C   0  0  0  0  0  0  0  0  0  0  0  0
  145.8920   72.2600  220.3310 C   0  0  0  0  0  0  0  0  0  0  0  0
  146.0640   73.3940  221.0890 C   0  0  0  0  0  0  0  0  0  0  0  0
  147.0090   73.4400  222.0850 F   0  0  0  0  0  0  0  0  0  0  0  0
  145.2620   74.5110  220.8410 C   0  0  0  0  0  0  0  0  0  0  0  0
  144.3210   74.4310  219.8370 C   0  0  0  0  0  0  0  0  0  0  0  0
  143.5330   75.4830  219.5660 N   0  0  0  0  0  0  0  0  0  0  0  0
  142.9450   77.8470  219.7490 H   0  0  0  0  0  0  0  0  0  0  0  0
  142.1382   79.8962  218.6792 H   0  0  0  0  0  0  0  0  0  0  0  0
  140.5668   78.9176  218.3492 H   0  0  0  0  0  0  0  0  0  0  0  0
  143.1464   80.9095  221.6437 H   0  0  0  0  0  0  0  0  0  0  0  0
  141.8266   82.0196  221.1677 H   0  0  0  0  0  0  0  0  0  0  0  0
  142.4026   82.4405  223.5293 H   0  0  0  0  0  0  0  0  0  0  0  0
  140.7814   81.6604  223.4606 H   0  0  0  0  0  0  0  0  0  0  0  0
  143.4150   80.5676  224.4126 H   0  0  0  0  0  0  0  0  0  0  0  0
  141.7624   80.3723  225.0947 H   0  0  0  0  0  0  0  0  0  0  0  0
  143.0668   78.8879  222.7677 H   0  0  0  0  0  0  0  0  0  0  0  0
  142.1840   78.2078  224.1379 H   0  0  0  0  0  0  0  0  0  0  0  0
  140.1043   79.6483  223.2069 H   0  0  0  0  0  0  0  0  0  0  0  0
  138.3501   78.5947  222.7951 H   0  0  0  0  0  0  0  0  0  0  0  0
  137.3038   76.3847  222.2973 H   0  0  0  0  0  0  0  0  0  0  0  0
  138.6331   74.4794  221.5654 H   0  0  0  0  0  0  0  0  0  0  0  0
  141.1456   74.6703  221.2688 H   0  0  0  0  0  0  0  0  0  0  0  0
  142.1530   76.8836  221.7655 H   0  0  0  0  0  0  0  0  0  0  0  0
  141.6464   74.3697  217.0573 H   0  0  0  0  0  0  0  0  0  0  0  0
  143.0339   72.3511  217.4507 H   0  0  0  0  0  0  0  0  0  0  0  0
  144.8361   71.2577  218.7399 H   0  0  0  0  0  0  0  0  0  0  0  0
  146.5282   71.3854  220.5319 H   0  0  0  0  0  0  0  0  0  0  0  0
  145.3787   75.4312  221.4322 H   0  0  0  0  0  0  0  0  0  0  0  0
  1  2  2  0
  2  3  1  0
  3  4  1  0
  4  5  1  0
  5  6  2  0
  5  7  1  0
  7  8  1  0
  8  9  1  0
  9 10  1  0
 10 11  1  0
 11 12  1  0
 12 13  1  0
 13 14  2  0
 14 15  1  0
 15 16  2  0
 16 17  1  0
 17 18  2  0
  2 19  1  0
 19 20  2  0
 20 21  1  0
 21 22  2  0
 22 23  1  0
 23 24  2  0
 24 25  1  0
 25 26  1  0
 25 27  2  0
 27 28  1  0
 28 29  2  0
 12  7  1  0
 18 13  1  0
 29 19  1  0
 28 22  1  0
  3 30  1  0
  4 31  1  0
  4 32  1  0
  8 33  1  0
  8 34  1  0
  9 35  1  0
  9 36  1  0
 10 37  1  0
 10 38  1  0
 11 39  1  0
 11 40  1  0
 12 41  1  1
 14 42  1  0
 15 43  1  0
 16 44  1  0
 17 45  1  0
 18 46  1  0
 20 47  1  0
 21 48  1  0
 23 49  1  0
 24 50  1  0
 27 51  1  0
M  END
>  <smiles>  (35) 
O=C(NCC(=O)N1CCCCC1c1ccccc1)c1ccc2ccc(F)cc2n1

>  <score_type>  (35) 
oracle

>  <origin>  (35) 
autodockgpu

>  <m_score__min__energy>  (35) 
-8.3300000000000001

>  <m_primary>  (35) 
energy

>  <rmsd>  (35) 
7.5462824011101235

>  <m_score__min__rmsd>  (35) 
7.5462824011101235

>  <meeko>  (35) 
{"free_energy": -7.01, "intermolecular_energy": -8.5, "internal_energy": -2.46, "cluster_size": 2, "cluster_id": 7, "rank_in_cluster": 2}

>  <energy>  (35) 
-7.99

>  <cluster_rmsd>  (35) 
0.0

>  <cluster>  (35) 
2

$$$$

     RDKit          3D

 51 54  0  0  0  0  0  0  0  0999 V2000
  140.7020   71.5930  221.0360 O   0  0  0  0  0  0  0  0  0  0  0  0
  140.3230   72.2230  222.0460 C   0  0  0  0  0  0  0  0  0  0  0  0
  140.1330   73.6300  221.9880 N   0  0  0  0  0  0  0  0  0  0  0  0
  140.3160   74.4550  220.8540 C   0  0  0  0  0  0  0  0  0  0  0  0
  140.9340   75.7700  220.9960 C   0  0  0  0  0  0  0  0  0  0  0  0
  141.0160   76.1760  222.2350 O   0  0  0  0  0  0  0  0  0  0  0  0
  141.4390   76.6580  220.0500 N   0  0  0  0  0  0  0  0  0  0  0  0
  140.8150   77.9190  219.6350 C   0  0  0  0  0  0  0  0  0  0  0  0
  141.9210   78.8720  219.1420 C   0  0  0  0  0  0  0  0  0  0  0  0
  142.5580   78.3200  217.8890 C   0  0  0  0  0  0  0  0  0  0  0  0
  142.5120   76.7870  217.9160 C   0  0  0  0  0  0  0  0  0  0  0  0
  142.7260   76.4030  219.3830 C   0  0  2  0  0  0  0  0  0  0  0  0
  143.2180   75.0230  219.5160 C   0  0  0  0  0  0  0  0  0  0  0  0
  144.2390   74.8530  220.4810 C   0  0  0  0  0  0  0  0  0  0  0  0
  144.7560   73.5730  220.6280 C   0  0  0  0  0  0  0  0  0  0  0  0
  144.3110   72.5140  219.8800 C   0  0  0  0  0  0  0  0  0  0  0  0
  143.2970   72.6590  218.9150 C   0  0  0  0  0  0  0  0  0  0  0  0
  142.8030   73.9450  218.7960 C   0  0  0  0  0  0  0  0  0  0  0  0
  140.0730   71.5000  223.2980 C   0  0  0  0  0  0  0  0  0  0  0  0
  139.2330   70.4130  223.3580 C   0  0  0  0  0  0  0  0  0  0  0  0
  139.0140   69.7500  224.5480 C   0  0  0  0  0  0  0  0  0  0  0  0
  139.6610   70.1970  225.7030 C   0  0  0  0  0  0  0  0  0  0  0  0
  139.4820   69.5710  226.9200 C   0  0  0  0  0  0  0  0  0  0  0  0
  140.1480   70.0530  228.0280 C   0  0  0  0  0  0  0  0  0  0  0  0
  140.9870   71.1400  227.9640 C   0  0  0  0  0  0  0  0  0  0  0  0
  141.6340   71.5980  229.0850 F   0  0  0  0  0  0  0  0  0  0  0  0
  141.1800   71.7850  226.7400 C   0  0  0  0  0  0  0  0  0  0  0  0
  140.5140   71.3020  225.6330 C   0  0  0  0  0  0  0  0  0  0  0  0
  140.6730   71.8920  224.4390 N   0  0  0  0  0  0  0  0  0  0  0  0
  139.8210   74.0820  222.9010 H   0  0  0  0  0  0  0  0  0  0  0  0
  140.9380   73.8874  220.1463 H   0  0  0  0  0  0  0  0  0  0  0  0
  139.2866   74.6929  220.5477 H   0  0  0  0  0  0  0  0  0  0  0  0
  140.0992   77.7289  218.8217 H   0  0  0  0  0  0  0  0  0  0  0  0
  140.2778   78.3707  220.4820 H   0  0  0  0  0  0  0  0  0  0  0  0
  141.4826   79.8571  218.9241 H   0  0  0  0  0  0  0  0  0  0  0  0
  142.6883   78.9698  219.9241 H   0  0  0  0  0  0  0  0  0  0  0  0
  142.0099   78.6865  217.0085 H   0  0  0  0  0  0  0  0  0  0  0  0
  143.6056   78.6515  217.8373 H   0  0  0  0  0  0  0  0  0  0  0  0
  141.5360   76.4244  217.5611 H   0  0  0  0  0  0  0  0  0  0  0  0
  143.2743   76.3418  217.2598 H   0  0  0  0  0  0  0  0  0  0  0  0
  143.5150   76.9997  219.8639 H   0  0  0  0  0  0  0  0  0  0  0  0
  144.6057   75.6953  221.0861 H   0  0  0  0  0  0  0  0  0  0  0  0
  145.5499   73.4028  221.3701 H   0  0  0  0  0  0  0  0  0  0  0  0
  144.7595   71.5222  220.0386 H   0  0  0  0  0  0  0  0  0  0  0  0
  142.9284   71.8199  218.3066 H   0  0  0  0  0  0  0  0  0  0  0  0
  142.0063   74.1111  218.0560 H   0  0  0  0  0  0  0  0  0  0  0  0
  138.7283   70.0670  222.4439 H   0  0  0  0  0  0  0  0  0  0  0  0
  138.3396   68.8818  224.5869 H   0  0  0  0  0  0  0  0  0  0  0  0
  138.8169   68.6990  227.0054 H   0  0  0  0  0  0  0  0  0  0  0  0
  140.0026   69.5503  228.9956 H   0  0  0  0  0  0  0  0  0  0  0  0
  141.8466   72.6565  226.6610 H   0  0  0  0  0  0  0  0  0  0  0  0
  1  2  2  0
  2  3  1  0
  3  4  1  0
  4  5  1  0
  5  6  2  0
  5  7  1  0
  7  8  1  0
  8  9  1  0
  9 10  1  0
 10 11  1  0
 11 12  1  0
 12 13  1  0
 13 14  2  0
 14 15  1  0
 15 16  2  0
 16 17  1  0
 17 18  2  0
  2 19  1  0
 19 20  2  0
 20 21  1  0
 21 22  2  0
 22 23  1  0
 23 24  2  0
 24 25  1  0
 25 26  1  0
 25 27  2  0
 27 28  1  0
 28 29  2  0
 12  7  1  0
 18 13  1  0
 29 19  1  0
 28 22  1  0
  3 30  1  0
  4 31  1  0
  4 32  1  0
  8 33  1  0
  8 34  1  0
  9 35  1  0
  9 36  1  0
 10 37  1  0
 10 38  1  0
 11 39  1  0
 11 40  1  0
 12 41  1  1
 14 42  1  0
 15 43  1  0
 16 44  1  0
 17 45  1  0
 18 46  1  0
 20 47  1  0
 21 48  1  0
 23 49  1  0
 24 50  1  0
 27 51  1  0
M  END
>  <smiles>  (36) 
O=C(NCC(=O)N1CCCCC1c1ccccc1)c1ccc2ccc(F)cc2n1

>  <score_type>  (36) 
oracle

>  <origin>  (36) 
autodockgpu

>  <m_score__min__energy>  (36) 
-8.3300000000000001

>  <m_primary>  (36) 
energy

>  <rmsd>  (36) 
2.263670225922561

>  <m_score__min__rmsd>  (36) 
2.263670225922561

>  <meeko>  (36) 
{"free_energy": -7.84, "intermolecular_energy": -9.33, "internal_energy": -1.96, "cluster_size": 34, "cluster_id": 1, "rank_in_cluster": 27}

>  <energy>  (36) 
-7.98

>  <cluster_rmsd>  (36) 
0.1

>  <cluster>  (36) 
2

$$$$

     RDKit          3D

 51 54  0  0  0  0  0  0  0  0999 V2000
  139.3460   71.3140  221.0580 O   0  0  0  0  0  0  0  0  0  0  0  0
  139.8520   71.8590  222.0630 C   0  0  0  0  0  0  0  0  0  0  0  0
  140.4330   73.1510  221.9640 N   0  0  0  0  0  0  0  0  0  0  0  0
  140.5010   73.9540  220.8010 C   0  0  0  0  0  0  0  0  0  0  0  0
  141.2320   75.2180  220.8240 C   0  0  0  0  0  0  0  0  0  0  0  0
  141.4600   75.6650  222.0310 O   0  0  0  0  0  0  0  0  0  0  0  0
  141.7170   76.0210  219.7960 N   0  0  0  0  0  0  0  0  0  0  0  0
  140.9710   77.0770  219.1050 C   0  0  0  0  0  0  0  0  0  0  0  0
  141.9770   78.1160  218.5710 C   0  0  0  0  0  0  0  0  0  0  0  0
  142.8470   77.4930  217.5060 C   0  0  0  0  0  0  0  0  0  0  0  0
  143.0290   75.9970  217.7950 C   0  0  0  0  0  0  0  0  0  0  0  0
  143.1040   75.8870  219.3200 C   0  0  2  0  0  0  0  0  0  0  0  0
  143.7760   74.6480  219.7420 C   0  0  0  0  0  0  0  0  0  0  0  0
  143.2440   73.4670  219.1730 C   0  0  0  0  0  0  0  0  0  0  0  0
  143.8270   72.2670  219.5590 C   0  0  0  0  0  0  0  0  0  0  0  0
  144.8680   72.2130  220.4490 C   0  0  0  0  0  0  0  0  0  0  0  0
  145.4120   73.3730  221.0290 C   0  0  0  0  0  0  0  0  0  0  0  0
  144.8100   74.5500  220.6220 C   0  0  0  0  0  0  0  0  0  0  0  0
  139.8410   71.1560  223.3490 C   0  0  0  0  0  0  0  0  0  0  0  0
  139.2730   69.9120  223.4980 C   0  0  0  0  0  0  0  0  0  0  0  0
  139.2760   69.2710  224.7200 C   0  0  0  0  0  0  0  0  0  0  0  0
  139.8670   69.9030  225.8170 C   0  0  0  0  0  0  0  0  0  0  0  0
  139.9020   69.3090  227.0610 C   0  0  0  0  0  0  0  0  0  0  0  0
  140.5010   69.9780  228.1090 C   0  0  0  0  0  0  0  0  0  0  0  0
  141.0680   71.2210  227.9570 C   0  0  0  0  0  0  0  0  0  0  0  0
  141.6550   71.8630  229.0200 F   0  0  0  0  0  0  0  0  0  0  0  0
  141.0420   71.8370  226.7030 C   0  0  0  0  0  0  0  0  0  0  0  0
  140.4430   71.1670  225.6570 C   0  0  0  0  0  0  0  0  0  0  0  0
  140.3980   71.7230  224.4370 N   0  0  0  0  0  0  0  0  0  0  0  0
  140.8500   73.5300  222.8690 H   0  0  0  0  0  0  0  0  0  0  0  0
  140.9612   73.3361  220.0159 H   0  0  0  0  0  0  0  0  0  0  0  0
  139.4578   74.2698  220.6525 H   0  0  0  0  0  0  0  0  0  0  0  0
  140.4046   76.6441  218.2673 H   0  0  0  0  0  0  0  0  0  0  0  0
  140.2657   77.5570  219.7994 H   0  0  0  0  0  0  0  0  0  0  0  0
  141.4282   78.9669  218.1412 H   0  0  0  0  0  0  0  0  0  0  0  0
  142.6126   78.4619  219.3995 H   0  0  0  0  0  0  0  0  0  0  0  0
  142.3691   77.6199  216.5234 H   0  0  0  0  0  0  0  0  0  0  0  0
  143.8305   77.9857  217.5055 H   0  0  0  0  0  0  0  0  0  0  0  0
  142.1738   75.4230  217.4088 H   0  0  0  0  0  0  0  0  0  0  0  0
  143.9292   75.5919  217.3096 H   0  0  0  0  0  0  0  0  0  0  0  0
  143.7248   76.6764  219.7688 H   0  0  0  0  0  0  0  0  0  0  0  0
  142.4081   73.4977  218.4586 H   0  0  0  0  0  0  0  0  0  0  0  0
  143.4402   71.3281  219.1361 H   0  0  0  0  0  0  0  0  0  0  0  0
  145.2904   71.2335  220.7175 H   0  0  0  0  0  0  0  0  0  0  0  0
  146.2459   73.3465  221.7459 H   0  0  0  0  0  0  0  0  0  0  0  0
  145.2002   75.4871  221.0457 H   0  0  0  0  0  0  0  0  0  0  0  0
  138.8094   69.4208  222.6298 H   0  0  0  0  0  0  0  0  0  0  0  0
  138.8194   68.2762  224.8289 H   0  0  0  0  0  0  0  0  0  0  0  0
  139.4581   68.3146  227.2161 H   0  0  0  0  0  0  0  0  0  0  0  0
  140.5256   69.5003  229.0996 H   0  0  0  0  0  0  0  0  0  0  0  0
  141.4881   72.8314  226.5539 H   0  0  0  0  0  0  0  0  0  0  0  0
  1  2  2  0
  2  3  1  0
  3  4  1  0
  4  5  1  0
  5  6  2  0
  5  7  1  0
  7  8  1  0
  8  9  1  0
  9 10  1  0
 10 11  1  0
 11 12  1  0
 12 13  1  0
 13 14  2  0
 14 15  1  0
 15 16  2  0
 16 17  1  0
 17 18  2  0
  2 19  1  0
 19 20  2  0
 20 21  1  0
 21 22  2  0
 22 23  1  0
 23 24  2  0
 24 25  1  0
 25 26  1  0
 25 27  2  0
 27 28  1  0
 28 29  2  0
 12  7  1  0
 18 13  1  0
 29 19  1  0
 28 22  1  0
  3 30  1  0
  4 31  1  0
  4 32  1  0
  8 33  1  0
  8 34  1  0
  9 35  1  0
  9 36  1  0
 10 37  1  0
 10 38  1  0
 11 39  1  0
 11 40  1  0
 12 41  1  1
 14 42  1  0
 15 43  1  0
 16 44  1  0
 17 45  1  0
 18 46  1  0
 20 47  1  0
 21 48  1  0
 23 49  1  0
 24 50  1  0
 27 51  1  0
M  END
>  <smiles>  (37) 
O=C(NCC(=O)N1CCCCC1c1ccccc1)c1ccc2ccc(F)cc2n1

>  <score_type>  (37) 
oracle

>  <origin>  (37) 
autodockgpu

>  <m_score__min__energy>  (37) 
-8.3300000000000001

>  <m_primary>  (37) 
energy

>  <rmsd>  (37) 
2.0973277047834427

>  <m_score__min__rmsd>  (37) 
2.0973277047834427

>  <meeko>  (37) 
{"free_energy": -7.74, "intermolecular_energy": -9.24, "internal_energy": -2.18, "cluster_size": 34, "cluster_id": 1, "rank_in_cluster": 31}

>  <energy>  (37) 
-7.9

>  <cluster_rmsd>  (37) 
0.0

>  <cluster>  (37) 
3

$$$$

     RDKit          3D

 51 54  0  0  0  0  0  0  0  0999 V2000
  139.3050   71.4170  220.9740 O   0  0  0  0  0  0  0  0  0  0  0  0
  139.8020   71.9480  221.9900 C   0  0  0  0  0  0  0  0  0  0  0  0
  140.3340   73.2640  221.9270 N   0  0  0  0  0  0  0  0  0  0  0  0
  140.3580   74.1060  220.7900 C   0  0  0  0  0  0  0  0  0  0  0  0
  141.1660   75.3220  220.7960 C   0  0  0  0  0  0  0  0  0  0  0  0
  141.4460   75.7550  221.9960 O   0  0  0  0  0  0  0  0  0  0  0  0
  141.6780   76.0930  219.7560 N   0  0  0  0  0  0  0  0  0  0  0  0
  140.9650   77.1580  219.0430 C   0  0  0  0  0  0  0  0  0  0  0  0
  142.0020   78.1580  218.4960 C   0  0  0  0  0  0  0  0  0  0  0  0
  142.8590   77.4910  217.4460 C   0  0  0  0  0  0  0  0  0  0  0  0
  142.9960   75.9960  217.7610 C   0  0  0  0  0  0  0  0  0  0  0  0
  143.0620   75.9110  219.2890 C   0  0  2  0  0  0  0  0  0  0  0  0
  143.6960   74.6610  219.7350 C   0  0  0  0  0  0  0  0  0  0  0  0
  143.1020   73.4830  219.2230 C   0  0  0  0  0  0  0  0  0  0  0  0
  143.6480   72.2750  219.6340 C   0  0  0  0  0  0  0  0  0  0  0  0
  144.7110   72.2080  220.4960 C   0  0  0  0  0  0  0  0  0  0  0  0
  145.3170   73.3650  221.0200 C   0  0  0  0  0  0  0  0  0  0  0  0
  144.7510   74.5510  220.5880 C   0  0  0  0  0  0  0  0  0  0  0  0
  139.8330   71.2040  223.2530 C   0  0  0  0  0  0  0  0  0  0  0  0
  139.3300   69.9290  223.3630 C   0  0  0  0  0  0  0  0  0  0  0  0
  139.3710   69.2490  224.5640 C   0  0  0  0  0  0  0  0  0  0  0  0
  139.9350   69.8750  225.6780 C   0  0  0  0  0  0  0  0  0  0  0  0
  140.0050   69.2430  226.9030 C   0  0  0  0  0  0  0  0  0  0  0  0
  140.5750   69.9080  227.9690 C   0  0  0  0  0  0  0  0  0  0  0  0
  141.0770   71.1820  227.8560 C   0  0  0  0  0  0  0  0  0  0  0  0
  141.6360   71.8190  228.9380 F   0  0  0  0  0  0  0  0  0  0  0  0
  141.0140   71.8360  226.6230 C   0  0  0  0  0  0  0  0  0  0  0  0
  140.4450   71.1710  225.5580 C   0  0  0  0  0  0  0  0  0  0  0  0
  140.3660   71.7630  224.3570 N   0  0  0  0  0  0  0  0  0  0  0  0
  140.7470   73.6290  222.8400 H   0  0  0  0  0  0  0  0  0  0  0  0
  140.7141   73.4929  219.9490 H   0  0  0  0  0  0  0  0  0  0  0  0
  139.3280   74.4886  220.7384 H   0  0  0  0  0  0  0  0  0  0  0  0
  140.3900   76.7268  218.2103 H   0  0  0  0  0  0  0  0  0  0  0  0
  140.2708   77.6699  219.7257 H   0  0  0  0  0  0  0  0  0  0  0  0
  141.4795   79.0163  218.0484 H   0  0  0  0  0  0  0  0  0  0  0  0
  142.6434   78.5007  219.3213 H   0  0  0  0  0  0  0  0  0  0  0  0
  142.3898   77.6148  216.4588 H   0  0  0  0  0  0  0  0  0  0  0  0
  143.8565   77.9547  217.4427 H   0  0  0  0  0  0  0  0  0  0  0  0
  142.1258   75.4406  217.3812 H   0  0  0  0  0  0  0  0  0  0  0  0
  143.8854   75.5560  217.2863 H   0  0  0  0  0  0  0  0  0  0  0  0
  143.7034   76.6900  219.7269 H   0  0  0  0  0  0  0  0  0  0  0  0
  142.2474   73.5229  218.5316 H   0  0  0  0  0  0  0  0  0  0  0  0
  143.2123   71.3390  219.2546 H   0  0  0  0  0  0  0  0  0  0  0  0
  145.1018   71.2217  220.7867 H   0  0  0  0  0  0  0  0  0  0  0  0
  146.1691   73.3293  221.7147 H   0  0  0  0  0  0  0  0  0  0  0  0
  145.1913   75.4854  220.9663 H   0  0  0  0  0  0  0  0  0  0  0  0
  138.8881   69.4432  222.4805 H   0  0  0  0  0  0  0  0  0  0  0  0
  138.9655   68.2295  224.6423 H   0  0  0  0  0  0  0  0  0  0  0  0
  139.6118   68.2233  227.0277 H   0  0  0  0  0  0  0  0  0  0  0  0
  140.6295   69.4005  228.9434 H   0  0  0  0  0  0  0  0  0  0  0  0
  141.4086   72.8560  226.5050 H   0  0  0  0  0  0  0  0  0  0  0  0
  1  2  2  0
  2  3  1  0
  3  4  1  0
  4  5  1  0
  5  6  2  0
  5  7  1  0
  7  8  1  0
  8  9  1  0
  9 10  1  0
 10 11  1  0
 11 12  1  0
 12 13  1  0
 13 14  2  0
 14 15  1  0
 15 16  2  0
 16 17  1  0
 17 18  2  0
  2 19  1  0
 19 20  2  0
 20 21  1  0
 21 22  2  0
 22 23  1  0
 23 24  2  0
 24 25  1  0
 25 26  1  0
 25 27  2  0
 27 28  1  0
 28 29  2  0
 12  7  1  0
 18 13  1  0
 29 19  1  0
 28 22  1  0
  3 30  1  0
  4 31  1  0
  4 32  1  0
  8 33  1  0
  8 34  1  0
  9 35  1  0
  9 36  1  0
 10 37  1  0
 10 38  1  0
 11 39  1  0
 11 40  1  0
 12 41  1  1
 14 42  1  0
 15 43  1  0
 16 44  1  0
 17 45  1  0
 18 46  1  0
 20 47  1  0
 21 48  1  0
 23 49  1  0
 24 50  1  0
 27 51  1  0
M  END
>  <smiles>  (38) 
O=C(NCC(=O)N1CCCCC1c1ccccc1)c1ccc2ccc(F)cc2n1

>  <score_type>  (38) 
oracle

>  <origin>  (38) 
autodockgpu

>  <m_score__min__energy>  (38) 
-8.3300000000000001

>  <m_primary>  (38) 
energy

>  <rmsd>  (38) 
2.0733320678220277

>  <m_score__min__rmsd>  (38) 
2.0733320678220277

>  <meeko>  (38) 
{"free_energy": -7.63, "intermolecular_energy": -9.12, "internal_energy": -2.17, "cluster_size": 34, "cluster_id": 1, "rank_in_cluster": 33}

>  <energy>  (38) 
-7.89

>  <cluster_rmsd>  (38) 
1.28

>  <cluster>  (38) 
3

$$$$

     RDKit          3D

 51 54  0  0  0  0  0  0  0  0999 V2000
  139.9290   71.0770  221.0210 O   0  0  0  0  0  0  0  0  0  0  0  0
  140.3050   71.6930  222.0420 C   0  0  0  0  0  0  0  0  0  0  0  0
  140.9250   72.9660  221.9270 N   0  0  0  0  0  0  0  0  0  0  0  0
  141.1720   73.6740  220.7280 C   0  0  0  0  0  0  0  0  0  0  0  0
  141.5010   75.0960  220.7710 C   0  0  0  0  0  0  0  0  0  0  0  0
  141.3510   75.6300  221.9530 O   0  0  0  0  0  0  0  0  0  0  0  0
  141.9380   75.9700  219.7800 N   0  0  0  0  0  0  0  0  0  0  0  0
  141.1740   77.0920  219.2250 C   0  0  0  0  0  0  0  0  0  0  0  0
  142.1670   78.1530  218.7100 C   0  0  0  0  0  0  0  0  0  0  0  0
  142.9530   77.6020  217.5450 C   0  0  0  0  0  0  0  0  0  0  0  0
  143.1180   76.0850  217.7010 C   0  0  0  0  0  0  0  0  0  0  0  0
  143.2880   75.8510  219.2050 C   0  0  2  0  0  0  0  0  0  0  0  0
  143.9570   74.5700  219.4830 C   0  0  0  0  0  0  0  0  0  0  0  0
  144.8920   74.6120  220.5440 C   0  0  0  0  0  0  0  0  0  0  0  0
  145.5690   73.4340  220.8300 C   0  0  0  0  0  0  0  0  0  0  0  0
  145.3560   72.2780  220.1260 C   0  0  0  0  0  0  0  0  0  0  0  0
  144.4330   72.2130  219.0660 C   0  0  0  0  0  0  0  0  0  0  0  0
  143.7740   73.4020  218.8090 C   0  0  0  0  0  0  0  0  0  0  0  0
  140.1000   71.0930  223.3650 C   0  0  0  0  0  0  0  0  0  0  0  0
  139.3200   69.9760  223.5480 C   0  0  0  0  0  0  0  0  0  0  0  0
  139.1430   69.4300  224.8030 C   0  0  0  0  0  0  0  0  0  0  0  0
  139.7700   70.0290  225.8980 C   0  0  0  0  0  0  0  0  0  0  0  0
  139.6310   69.5260  227.1750 C   0  0  0  0  0  0  0  0  0  0  0  0
  140.2760   70.1560  228.2190 C   0  0  0  0  0  0  0  0  0  0  0  0
  141.0540   71.2730  228.0330 C   0  0  0  0  0  0  0  0  0  0  0  0
  141.6810   71.8810  229.0940 F   0  0  0  0  0  0  0  0  0  0  0  0
  141.2060   71.7960  226.7460 C   0  0  0  0  0  0  0  0  0  0  0  0
  140.5620   71.1650  225.7040 C   0  0  0  0  0  0  0  0  0  0  0  0
  140.6840   71.6340  224.4520 N   0  0  0  0  0  0  0  0  0  0  0  0
  141.2220   73.4090  222.8510 H   0  0  0  0  0  0  0  0  0  0  0  0
  142.0125   73.1692  220.2292 H   0  0  0  0  0  0  0  0  0  0  0  0
  140.1963   73.6569  220.2204 H   0  0  0  0  0  0  0  0  0  0  0  0
  140.5454   76.7381  218.3946 H   0  0  0  0  0  0  0  0  0  0  0  0
  140.5262   77.5270  220.0004 H   0  0  0  0  0  0  0  0  0  0  0  0
  141.6112   79.0449  218.3852 H   0  0  0  0  0  0  0  0  0  0  0  0
  142.8616   78.4208  219.5199 H   0  0  0  0  0  0  0  0  0  0  0  0
  142.4171   77.8167  216.6087 H   0  0  0  0  0  0  0  0  0  0  0  0
  143.9459   78.0748  217.5204 H   0  0  0  0  0  0  0  0  0  0  0  0
  142.2266   75.5598  217.3274 H   0  0  0  0  0  0  0  0  0  0  0  0
  143.9752   75.7039  217.1266 H   0  0  0  0  0  0  0  0  0  0  0  0
  143.9542   76.5909  219.6727 H   0  0  0  0  0  0  0  0  0  0  0  0
  145.0740   75.5342  221.1153 H   0  0  0  0  0  0  0  0  0  0  0  0
  146.3018   73.4286  221.6503 H   0  0  0  0  0  0  0  0  0  0  0  0
  145.9227   71.3751  220.3972 H   0  0  0  0  0  0  0  0  0  0  0  0
  144.2507   71.2938  218.4899 H   0  0  0  0  0  0  0  0  0  0  0  0
  143.0395   73.4034  217.9901 H   0  0  0  0  0  0  0  0  0  0  0  0
  138.8293   69.5102  222.6807 H   0  0  0  0  0  0  0  0  0  0  0  0
  138.5170   68.5358  224.9391 H   0  0  0  0  0  0  0  0  0  0  0  0
  139.0138   68.6341  227.3584 H   0  0  0  0  0  0  0  0  0  0  0  0
  140.1636   69.7502  229.2352 H   0  0  0  0  0  0  0  0  0  0  0  0
  141.8240   72.6887  226.5693 H   0  0  0  0  0  0  0  0  0  0  0  0
  1  2  2  0
  2  3  1  0
  3  4  1  0
  4  5  1  0
  5  6  2  0
  5  7  1  0
  7  8  1  0
  8  9  1  0
  9 10  1  0
 10 11  1  0
 11 12  1  0
 12 13  1  0
 13 14  2  0
 14 15  1  0
 15 16  2  0
 16 17  1  0
 17 18  2  0
  2 19  1  0
 19 20  2  0
 20 21  1  0
 21 22  2  0
 22 23  1  0
 23 24  2  0
 24 25  1  0
 25 26  1  0
 25 27  2  0
 27 28  1  0
 28 29  2  0
 12  7  1  0
 18 13  1  0
 29 19  1  0
 28 22  1  0
  3 30  1  0
  4 31  1  0
  4 32  1  0
  8 33  1  0
  8 34  1  0
  9 35  1  0
  9 36  1  0
 10 37  1  0
 10 38  1  0
 11 39  1  0
 11 40  1  0
 12 41  1  1
 14 42  1  0
 15 43  1  0
 16 44  1  0
 17 45  1  0
 18 46  1  0
 20 47  1  0
 21 48  1  0
 23 49  1  0
 24 50  1  0
 27 51  1  0
M  END
>  <smiles>  (39) 
O=C(NCC(=O)N1CCCCC1c1ccccc1)c1ccc2ccc(F)cc2n1

>  <score_type>  (39) 
oracle

>  <origin>  (39) 
autodockgpu

>  <m_score__min__energy>  (39) 
-8.3300000000000001

>  <m_primary>  (39) 
energy

>  <rmsd>  (39) 
2.3318418641123624

>  <m_score__min__rmsd>  (39) 
2.3318418641123624

>  <meeko>  (39) 
{"free_energy": -7.91, "intermolecular_energy": -9.4, "internal_energy": -2.07, "cluster_size": 34, "cluster_id": 1, "rank_in_cluster": 22}

>  <energy>  (39) 
-7.81

>  <cluster_rmsd>  (39) 
0.0

>  <cluster>  (39) 
4

$$$$

     RDKit          3D

 51 54  0  0  0  0  0  0  0  0999 V2000
  140.1150   71.3900  221.0430 O   0  0  0  0  0  0  0  0  0  0  0  0
  140.0210   72.0190  222.1180 C   0  0  0  0  0  0  0  0  0  0  0  0
  140.0220   73.4400  222.1230 N   0  0  0  0  0  0  0  0  0  0  0  0
  140.1050   74.2830  220.9890 C   0  0  0  0  0  0  0  0  0  0  0  0
  140.8780   75.5200  221.0510 C   0  0  0  0  0  0  0  0  0  0  0  0
  141.0940   75.9400  222.2690 O   0  0  0  0  0  0  0  0  0  0  0  0
  141.4140   76.3220  220.0470 N   0  0  0  0  0  0  0  0  0  0  0  0
  140.7630   77.4850  219.4360 C   0  0  0  0  0  0  0  0  0  0  0  0
  141.8570   78.4410  218.9200 C   0  0  0  0  0  0  0  0  0  0  0  0
  142.6250   77.7890  217.7960 C   0  0  0  0  0  0  0  0  0  0  0  0
  142.6570   76.2690  218.0030 C   0  0  0  0  0  0  0  0  0  0  0  0
  142.7650   76.0710  219.5180 C   0  0  2  0  0  0  0  0  0  0  0  0
  143.3150   74.7490  219.8540 C   0  0  0  0  0  0  0  0  0  0  0  0
  144.5880   74.7800  220.4720 C   0  0  0  0  0  0  0  0  0  0  0  0
  145.1620   73.5560  220.7870 C   0  0  0  0  0  0  0  0  0  0  0  0
  144.5410   72.3650  220.5170 C   0  0  0  0  0  0  0  0  0  0  0  0
  143.2770   72.3090  219.9030 C   0  0  0  0  0  0  0  0  0  0  0  0
  142.7320   73.5450  219.6040 C   0  0  0  0  0  0  0  0  0  0  0  0
  139.9090   71.2820  223.3810 C   0  0  0  0  0  0  0  0  0  0  0  0
  139.1830   70.1190  223.4850 C   0  0  0  0  0  0  0  0  0  0  0  0
  139.0930   69.4430  224.6850 C   0  0  0  0  0  0  0  0  0  0  0  0
  139.7520   69.9560  225.8040 C   0  0  0  0  0  0  0  0  0  0  0  0
  139.6990   69.3220  227.0290 C   0  0  0  0  0  0  0  0  0  0  0  0
  140.3710   69.8730  228.1000 C   0  0  0  0  0  0  0  0  0  0  0  0
  141.0950   71.0360  227.9920 C   0  0  0  0  0  0  0  0  0  0  0  0
  141.7520   71.5610  229.0790 F   0  0  0  0  0  0  0  0  0  0  0  0
  141.1600   71.6910  226.7600 C   0  0  0  0  0  0  0  0  0  0  0  0
  140.4880   71.1390  225.6900 C   0  0  0  0  0  0  0  0  0  0  0  0
  140.5260   71.7360  224.4890 N   0  0  0  0  0  0  0  0  0  0  0  0
  139.9490   73.8890  223.0870 H   0  0  0  0  0  0  0  0  0  0  0  0
  140.5365   73.6799  220.1765 H   0  0  0  0  0  0  0  0  0  0  0  0
  139.0715   74.6381  220.8632 H   0  0  0  0  0  0  0  0  0  0  0  0
  140.1298   77.1584  218.5979 H   0  0  0  0  0  0  0  0  0  0  0  0
  140.1327   77.9977  220.1775 H   0  0  0  0  0  0  0  0  0  0  0  0
  141.3886   79.3659  218.5524 H   0  0  0  0  0  0  0  0  0  0  0  0
  142.5494   78.6744  219.7423 H   0  0  0  0  0  0  0  0  0  0  0  0
  142.1347   78.0170  216.8381 H   0  0  0  0  0  0  0  0  0  0  0  0
  143.6545   78.1764  217.7864 H   0  0  0  0  0  0  0  0  0  0  0  0
  141.7351   75.8081  217.6187 H   0  0  0  0  0  0  0  0  0  0  0  0
  143.4946   75.7991  217.4667 H   0  0  0  0  0  0  0  0  0  0  0  0
  143.4782   76.7668  219.9841 H   0  0  0  0  0  0  0  0  0  0  0  0
  145.0984   75.7292  220.6923 H   0  0  0  0  0  0  0  0  0  0  0  0
  146.1500   73.5418  221.2703 H   0  0  0  0  0  0  0  0  0  0  0  0
  145.0454   71.4258  220.7882 H   0  0  0  0  0  0  0  0  0  0  0  0
  142.7645   71.3617  219.6792 H   0  0  0  0  0  0  0  0  0  0  0  0
  141.7428   73.5554  219.1230 H   0  0  0  0  0  0  0  0  0  0  0  0
  138.6664   69.7215  222.5989 H   0  0  0  0  0  0  0  0  0  0  0  0
  138.5102   68.5130  224.7588 H   0  0  0  0  0  0  0  0  0  0  0  0
  139.1282   68.3894  227.1495 H   0  0  0  0  0  0  0  0  0  0  0  0
  140.3259   69.3640  229.0741 H   0  0  0  0  0  0  0  0  0  0  0  0
  141.7326   72.6233  226.6463 H   0  0  0  0  0  0  0  0  0  0  0  0
  1  2  2  0
  2  3  1  0
  3  4  1  0
  4  5  1  0
  5  6  2  0
  5  7  1  0
  7  8  1  0
  8  9  1  0
  9 10  1  0
 10 11  1  0
 11 12  1  0
 12 13  1  0
 13 14  2  0
 14 15  1  0
 15 16  2  0
 16 17  1  0
 17 18  2  0
  2 19  1  0
 19 20  2  0
 20 21  1  0
 21 22  2  0
 22 23  1  0
 23 24  2  0
 24 25  1  0
 25 26  1  0
 25 27  2  0
 27 28  1  0
 28 29  2  0
 12  7  1  0
 18 13  1  0
 29 19  1  0
 28 22  1  0
  3 30  1  0
  4 31  1  0
  4 32  1  0
  8 33  1  0
  8 34  1  0
  9 35  1  0
  9 36  1  0
 10 37  1  0
 10 38  1  0
 11 39  1  0
 11 40  1  0
 12 41  1  1
 14 42  1  0
 15 43  1  0
 16 44  1  0
 17 45  1  0
 18 46  1  0
 20 47  1  0
 21 48  1  0
 23 49  1  0
 24 50  1  0
 27 51  1  0
M  END
>  <smiles>  (40) 
O=C(NCC(=O)N1CCCCC1c1ccccc1)c1ccc2ccc(F)cc2n1

>  <score_type>  (40) 
oracle

>  <origin>  (40) 
autodockgpu

>  <m_score__min__energy>  (40) 
-8.3300000000000001

>  <m_primary>  (40) 
energy

>  <rmsd>  (40) 
2.0531597172246223

>  <m_score__min__rmsd>  (40) 
2.0531597172246223

>  <meeko>  (40) 
{"free_energy": -8.21, "intermolecular_energy": -9.7, "internal_energy": -1.88, "cluster_size": 34, "cluster_id": 1, "rank_in_cluster": 6}

>  <energy>  (40) 
-7.45

>  <cluster_rmsd>  (40) 
0.0

>  <cluster>  (40) 
5

$$$$

     RDKit          3D

 51 54  0  0  0  0  0  0  0  0999 V2000
  140.3630   71.4900  220.9940 O   0  0  0  0  0  0  0  0  0  0  0  0
  140.1770   72.1020  222.0680 C   0  0  0  0  0  0  0  0  0  0  0  0
  140.1020   73.5210  222.0840 N   0  0  0  0  0  0  0  0  0  0  0  0
  140.2020   74.3790  220.9640 C   0  0  0  0  0  0  0  0  0  0  0  0
  140.7120   75.7370  221.1260 C   0  0  0  0  0  0  0  0  0  0  0  0
  140.6150   76.1890  222.3480 O   0  0  0  0  0  0  0  0  0  0  0  0
  141.2720   76.6260  220.2120 N   0  0  0  0  0  0  0  0  0  0  0  0
  140.6820   77.8960  219.7750 C   0  0  0  0  0  0  0  0  0  0  0  0
  141.8210   78.8400  219.3430 C   0  0  0  0  0  0  0  0  0  0  0  0
  142.5120   78.2900  218.1190 C   0  0  0  0  0  0  0  0  0  0  0  0
  142.4490   76.7570  218.1330 C   0  0  0  0  0  0  0  0  0  0  0  0
  142.5870   76.3610  219.6050 C   0  0  2  0  0  0  0  0  0  0  0  0
  143.0570   74.9750  219.7530 C   0  0  0  0  0  0  0  0  0  0  0  0
  142.4850   74.0580  218.8390 C   0  0  0  0  0  0  0  0  0  0  0  0
  142.8770   72.7320  218.9530 C   0  0  0  0  0  0  0  0  0  0  0  0
  143.7740   72.3130  219.9010 C   0  0  0  0  0  0  0  0  0  0  0  0
  144.3550   73.2050  220.8200 C   0  0  0  0  0  0  0  0  0  0  0  0
  143.9450   74.5180  220.6780 C   0  0  0  0  0  0  0  0  0  0  0  0
  140.0350   71.3450  223.3160 C   0  0  0  0  0  0  0  0  0  0  0  0
  139.3230   70.1700  223.3820 C   0  0  0  0  0  0  0  0  0  0  0  0
  139.2050   69.4770  224.5690 C   0  0  0  0  0  0  0  0  0  0  0  0
  139.8200   69.9840  225.7160 C   0  0  0  0  0  0  0  0  0  0  0  0
  139.7370   69.3320  226.9290 C   0  0  0  0  0  0  0  0  0  0  0  0
  140.3680   69.8770  228.0290 C   0  0  0  0  0  0  0  0  0  0  0  0
  141.0780   71.0510  227.9600 C   0  0  0  0  0  0  0  0  0  0  0  0
  141.6920   71.5710  229.0740 F   0  0  0  0  0  0  0  0  0  0  0  0
  141.1720   71.7250  226.7390 C   0  0  0  0  0  0  0  0  0  0  0  0
  140.5420   71.1780  225.6410 C   0  0  0  0  0  0  0  0  0  0  0  0
  140.6100   71.7930  224.4500 N   0  0  0  0  0  0  0  0  0  0  0  0
  139.9540   73.9540  223.0470 H   0  0  0  0  0  0  0  0  0  0  0  0
  140.8593   73.8778  220.2382 H   0  0  0  0  0  0  0  0  0  0  0  0
  139.1530   74.5368  220.6731 H   0  0  0  0  0  0  0  0  0  0  0  0
  140.0051   77.7183  218.9264 H   0  0  0  0  0  0  0  0  0  0  0  0
  140.1084   78.3484  220.5974 H   0  0  0  0  0  0  0  0  0  0  0  0
  141.4043   79.8313  219.1114 H   0  0  0  0  0  0  0  0  0  0  0  0
  142.5504   78.9237  220.1621 H   0  0  0  0  0  0  0  0  0  0  0  0
  142.0110   78.6681  217.2157 H   0  0  0  0  0  0  0  0  0  0  0  0
  143.5642   78.6108  218.1203 H   0  0  0  0  0  0  0  0  0  0  0  0
  141.4879   76.4071  217.7283 H   0  0  0  0  0  0  0  0  0  0  0  0
  143.2381   76.3083  217.5117 H   0  0  0  0  0  0  0  0  0  0  0  0
  143.3585   76.9463  220.1267 H   0  0  0  0  0  0  0  0  0  0  0  0
  141.7636   74.3815  218.0742 H   0  0  0  0  0  0  0  0  0  0  0  0
  142.4533   71.9914  218.2587 H   0  0  0  0  0  0  0  0  0  0  0  0
  144.0473   71.2484  219.9442 H   0  0  0  0  0  0  0  0  0  0  0  0
  145.0752   72.8851  221.5875 H   0  0  0  0  0  0  0  0  0  0  0  0
  144.3731   75.2564  221.3719 H   0  0  0  0  0  0  0  0  0  0  0  0
  138.8405   69.7771  222.4749 H   0  0  0  0  0  0  0  0  0  0  0  0
  138.6342   68.5377  224.6116 H   0  0  0  0  0  0  0  0  0  0  0  0
  139.1754   68.3904  227.0183 H   0  0  0  0  0  0  0  0  0  0  0  0
  140.3000   69.3533  228.9940 H   0  0  0  0  0  0  0  0  0  0  0  0
  141.7338   72.6671  226.6562 H   0  0  0  0  0  0  0  0  0  0  0  0
  1  2  2  0
  2  3  1  0
  3  4  1  0
  4  5  1  0
  5  6  2  0
  5  7  1  0
  7  8  1  0
  8  9  1  0
  9 10  1  0
 10 11  1  0
 11 12  1  0
 12 13  1  0
 13 14  2  0
 14 15  1  0
 15 16  2  0
 16 17  1  0
 17 18  2  0
  2 19  1  0
 19 20  2  0
 20 21  1  0
 21 22  2  0
 22 23  1  0
 23 24  2  0
 24 25  1  0
 25 26  1  0
 25 27  2  0
 27 28  1  0
 28 29  2  0
 12  7  1  0
 18 13  1  0
 29 19  1  0
 28 22  1  0
  3 30  1  0
  4 31  1  0
  4 32  1  0
  8 33  1  0
  8 34  1  0
  9 35  1  0
  9 36  1  0
 10 37  1  0
 10 38  1  0
 11 39  1  0
 11 40  1  0
 12 41  1  1
 14 42  1  0
 15 43  1  0
 16 44  1  0
 17 45  1  0
 18 46  1  0
 20 47  1  0
 21 48  1  0
 23 49  1  0
 24 50  1  0
 27 51  1  0
M  END
>  <smiles>  (41) 
O=C(NCC(=O)N1CCCCC1c1ccccc1)c1ccc2ccc(F)cc2n1

>  <score_type>  (41) 
oracle

>  <origin>  (41) 
autodockgpu

>  <m_score__min__energy>  (41) 
-8.3300000000000001

>  <m_primary>  (41) 
energy

>  <rmsd>  (41) 
2.170428275233222

>  <m_score__min__rmsd>  (41) 
2.170428275233222

>  <meeko>  (41) 
{"free_energy": -7.67, "intermolecular_energy": -9.16, "internal_energy": -2.11, "cluster_size": 34, "cluster_id": 1, "rank_in_cluster": 32}

>  <energy>  (41) 
-7.45

>  <cluster_rmsd>  (41) 
0.0

>  <cluster>  (41) 
6

$$$$

     RDKit          3D

 51 54  0  0  0  0  0  0  0  0999 V2000
  138.5000   75.1980  221.7000 O   0  0  0  0  0  0  0  0  0  0  0  0
  139.6450   75.6350  221.9470 C   0  0  0  0  0  0  0  0  0  0  0  0
  140.7800   74.7890  221.8230 N   0  0  0  0  0  0  0  0  0  0  0  0
  140.7760   73.4340  221.4140 C   0  0  0  0  0  0  0  0  0  0  0  0
  141.6930   72.9810  220.3720 C   0  0  0  0  0  0  0  0  0  0  0  0
  141.0900   72.4530  219.3400 O   0  0  0  0  0  0  0  0  0  0  0  0
  143.0830   73.0080  220.2930 N   0  0  0  0  0  0  0  0  0  0  0  0
  143.9950   71.9880  220.8200 C   0  0  0  0  0  0  0  0  0  0  0  0
  145.2930   72.0170  219.9900 C   0  0  0  0  0  0  0  0  0  0  0  0
  146.0110   73.3290  220.2000 C   0  0  0  0  0  0  0  0  0  0  0  0
  144.9910   74.4390  220.4810 C   0  0  0  0  0  0  0  0  0  0  0  0
  143.7810   74.1060  219.6040 C   0  0  2  0  0  0  0  0  0  0  0  0
  142.9490   75.2940  219.3530 C   0  0  0  0  0  0  0  0  0  0  0  0
  142.1110   75.1970  218.2180 C   0  0  0  0  0  0  0  0  0  0  0  0
  141.3230   76.3010  217.9230 C   0  0  0  0  0  0  0  0  0  0  0  0
  141.3470   77.4410  218.6840 C   0  0  0  0  0  0  0  0  0  0  0  0
  142.1730   77.5610  219.8160 C   0  0  0  0  0  0  0  0  0  0  0  0
  142.9420   76.4430  220.0830 C   0  0  0  0  0  0  0  0  0  0  0  0
  139.8130   77.0300  222.3660 C   0  0  0  0  0  0  0  0  0  0  0  0
  138.7430   77.8810  222.5180 C   0  0  0  0  0  0  0  0  0  0  0  0
  138.9270   79.1900  222.9140 C   0  0  0  0  0  0  0  0  0  0  0  0
  140.2240   79.6480  223.1610 C   0  0  0  0  0  0  0  0  0  0  0  0
  140.4670   80.9460  223.5610 C   0  0  0  0  0  0  0  0  0  0  0  0
  141.7680   81.3440  223.7940 C   0  0  0  0  0  0  0  0  0  0  0  0
  142.8350   80.4910  223.6410 C   0  0  0  0  0  0  0  0  0  0  0  0
  144.1190   80.9180  223.8770 F   0  0  0  0  0  0  0  0  0  0  0  0
  142.6060   79.1740  223.2360 C   0  0  0  0  0  0  0  0  0  0  0  0
  141.3060   78.7770  223.0050 C   0  0  0  0  0  0  0  0  0  0  0  0
  141.0430   77.5200  222.6170 N   0  0  0  0  0  0  0  0  0  0  0  0
  141.7130   75.2450  222.0660 H   0  0  0  0  0  0  0  0  0  0  0  0
  140.9909   72.8320  222.3092 H   0  0  0  0  0  0  0  0  0  0  0  0
  139.7867   73.3145  220.9481 H   0  0  0  0  0  0  0  0  0  0  0  0
  144.2237   72.2037  221.8741 H   0  0  0  0  0  0  0  0  0  0  0  0
  143.5277   70.9944  220.7543 H   0  0  0  0  0  0  0  0  0  0  0  0
  145.9458   71.1899  220.3057 H   0  0  0  0  0  0  0  0  0  0  0  0
  145.0427   71.9088  218.9243 H   0  0  0  0  0  0  0  0  0  0  0  0
  146.6964   73.2376  221.0555 H   0  0  0  0  0  0  0  0  0  0  0  0
  146.5816   73.5804  219.2938 H   0  0  0  0  0  0  0  0  0  0  0  0
  144.7076   74.4420  221.5439 H   0  0  0  0  0  0  0  0  0  0  0  0
  145.3977   75.4363  220.2577 H   0  0  0  0  0  0  0  0  0  0  0  0
  144.0702   73.7822  218.5933 H   0  0  0  0  0  0  0  0  0  0  0  0
  142.0848   74.2889  217.5978 H   0  0  0  0  0  0  0  0  0  0  0  0
  140.6566   76.2597  217.0488 H   0  0  0  0  0  0  0  0  0  0  0  0
  140.7019   78.2859  218.4013 H   0  0  0  0  0  0  0  0  0  0  0  0
  142.2047   78.4683  220.4371 H   0  0  0  0  0  0  0  0  0  0  0  0
  143.6045   76.4859  220.9601 H   0  0  0  0  0  0  0  0  0  0  0  0
  137.7255   77.5125  222.3209 H   0  0  0  0  0  0  0  0  0  0  0  0
  138.0653   79.8632  223.0335 H   0  0  0  0  0  0  0  0  0  0  0  0
  139.6354   81.6539  223.6924 H   0  0  0  0  0  0  0  0  0  0  0  0
  141.9575   82.3795  224.1131 H   0  0  0  0  0  0  0  0  0  0  0  0
  143.4419   78.4711  223.1046 H   0  0  0  0  0  0  0  0  0  0  0  0
  1  2  2  0
  2  3  1  0
  3  4  1  0
  4  5  1  0
  5  6  2  0
  5  7  1  0
  7  8  1  0
  8  9  1  0
  9 10  1  0
 10 11  1  0
 11 12  1  0
 12 13  1  0
 13 14  2  0
 14 15  1  0
 15 16  2  0
 16 17  1  0
 17 18  2  0
  2 19  1  0
 19 20  2  0
 20 21  1  0
 21 22  2  0
 22 23  1  0
 23 24  2  0
 24 25  1  0
 25 26  1  0
 25 27  2  0
 27 28  1  0
 28 29  2  0
 12  7  1  0
 18 13  1  0
 29 19  1  0
 28 22  1  0
  3 30  1  0
  4 31  1  0
  4 32  1  0
  8 33  1  0
  8 34  1  0
  9 35  1  0
  9 36  1  0
 10 37  1  0
 10 38  1  0
 11 39  1  0
 11 40  1  0
 12 41  1  6
 14 42  1  0
 15 43  1  0
 16 44  1  0
 17 45  1  0
 18 46  1  0
 20 47  1  0
 21 48  1  0
 23 49  1  0
 24 50  1  0
 27 51  1  0
M  END
>  <smiles>  (42) 
O=C(NCC(=O)N1CCCCC1c1ccccc1)c1ccc2ccc(F)cc2n1

>  <score_type>  (42) 
oracle

>  <origin>  (42) 
autodockgpu

>  <m_score__min__energy>  (42) 
-8.3300000000000001

>  <m_primary>  (42) 
energy

>  <rmsd>  (42) 
7.520991934741211

>  <m_score__min__rmsd>  (42) 
7.520991934741211

>  <meeko>  (42) 
{"free_energy": -7.0, "intermolecular_energy": -8.49, "internal_energy": -2.6, "cluster_size": 8, "cluster_id": 6, "rank_in_cluster": 7}

>  <energy>  (42) 
-7.4

>  <cluster_rmsd>  (42) 
0.09

>  <cluster>  (42) 
6

$$$$

     RDKit          3D

 51 54  0  0  0  0  0  0  0  0999 V2000
  138.7750   71.9670  221.4360 O   0  0  0  0  0  0  0  0  0  0  0  0
  139.7680   71.9850  222.1930 C   0  0  0  0  0  0  0  0  0  0  0  0
  140.9260   72.7320  221.8440 N   0  0  0  0  0  0  0  0  0  0  0  0
  141.0980   73.5180  220.6810 C   0  0  0  0  0  0  0  0  0  0  0  0
  141.4710   74.9250  220.7960 C   0  0  0  0  0  0  0  0  0  0  0  0
  141.3700   75.3940  222.0120 O   0  0  0  0  0  0  0  0  0  0  0  0
  141.9070   75.8440  219.8450 N   0  0  0  0  0  0  0  0  0  0  0  0
  141.0890   76.8890  219.2200 C   0  0  0  0  0  0  0  0  0  0  0  0
  142.0150   78.0440  218.7930 C   0  0  0  0  0  0  0  0  0  0  0  0
  142.9520   77.5780  217.7030 C   0  0  0  0  0  0  0  0  0  0  0  0
  143.2500   76.0840  217.8790 C   0  0  0  0  0  0  0  0  0  0  0  0
  143.3080   75.8600  219.3930 C   0  0  2  0  0  0  0  0  0  0  0  0
  144.0710   74.6490  219.7330 C   0  0  0  0  0  0  0  0  0  0  0  0
  143.8760   73.5620  218.8490 C   0  0  0  0  0  0  0  0  0  0  0  0
  144.5550   72.3860  219.1400 C   0  0  0  0  0  0  0  0  0  0  0  0
  145.3780   72.2680  220.2300 C   0  0  0  0  0  0  0  0  0  0  0  0
  145.5870   73.3350  221.1230 C   0  0  0  0  0  0  0  0  0  0  0  0
  144.8980   74.4900  220.8030 C   0  0  0  0  0  0  0  0  0  0  0  0
  139.7340   71.2310  223.4500 C   0  0  0  0  0  0  0  0  0  0  0  0
  139.0720   70.0310  223.5640 C   0  0  0  0  0  0  0  0  0  0  0  0
  139.0540   69.3400  224.7580 C   0  0  0  0  0  0  0  0  0  0  0  0
  139.7220   69.8750  225.8620 C   0  0  0  0  0  0  0  0  0  0  0  0
  139.7410   69.2270  227.0800 C   0  0  0  0  0  0  0  0  0  0  0  0
  140.4190   69.8000  228.1360 C   0  0  0  0  0  0  0  0  0  0  0  0
  141.0790   71.0000  228.0190 C   0  0  0  0  0  0  0  0  0  0  0  0
  141.7430   71.5470  229.0900 F   0  0  0  0  0  0  0  0  0  0  0  0
  141.0710   71.6690  226.7920 C   0  0  0  0  0  0  0  0  0  0  0  0
  140.3940   71.0950  225.7380 C   0  0  0  0  0  0  0  0  0  0  0  0
  140.3630   71.7050  224.5430 N   0  0  0  0  0  0  0  0  0  0  0  0
  141.7270   72.6780  222.5450 H   0  0  0  0  0  0  0  0  0  0  0  0
  141.8812   73.0304  220.0819 H   0  0  0  0  0  0  0  0  0  0  0  0
  140.0851   73.5604  220.2541 H   0  0  0  0  0  0  0  0  0  0  0  0
  140.5749   76.4799  218.3378 H   0  0  0  0  0  0  0  0  0  0  0  0
  140.3347   77.2541  219.9326 H   0  0  0  0  0  0  0  0  0  0  0  0
  141.4060   78.8796  218.4175 H   0  0  0  0  0  0  0  0  0  0  0  0
  142.6054   78.3736  219.6606 H   0  0  0  0  0  0  0  0  0  0  0  0
  142.4826   77.7438  216.7221 H   0  0  0  0  0  0  0  0  0  0  0  0
  143.8921   78.1459  217.7643 H   0  0  0  0  0  0  0  0  0  0  0  0
  142.4509   75.4760  217.4297 H   0  0  0  0  0  0  0  0  0  0  0  0
  144.1881   75.7915  217.3846 H   0  0  0  0  0  0  0  0  0  0  0  0
  143.8547   76.6585  219.9159 H   0  0  0  0  0  0  0  0  0  0  0  0
  143.2172   73.6444  217.9719 H   0  0  0  0  0  0  0  0  0  0  0  0
  144.4282   71.5201  218.4735 H   0  0  0  0  0  0  0  0  0  0  0  0
  145.8898   71.3114  220.4117 H   0  0  0  0  0  0  0  0  0  0  0  0
  146.2436   73.2567  222.0021 H   0  0  0  0  0  0  0  0  0  0  0  0
  145.0291   75.3548  221.4700 H   0  0  0  0  0  0  0  0  0  0  0  0
  138.5489   69.6158  222.6899 H   0  0  0  0  0  0  0  0  0  0  0  0
  138.5211   68.3812  224.8395 H   0  0  0  0  0  0  0  0  0  0  0  0
  139.2220   68.2655  227.2074 H   0  0  0  0  0  0  0  0  0  0  0  0
  140.4319   69.2788  229.1046 H   0  0  0  0  0  0  0  0  0  0  0  0
  141.5923   72.6300  226.6707 H   0  0  0  0  0  0  0  0  0  0  0  0
  1  2  2  0
  2  3  1  0
  3  4  1  0
  4  5  1  0
  5  6  2  0
  5  7  1  0
  7  8  1  0
  8  9  1  0
  9 10  1  0
 10 11  1  0
 11 12  1  0
 12 13  1  0
 13 14  2  0
 14 15  1  0
 15 16  2  0
 16 17  1  0
 17 18  2  0
  2 19  1  0
 19 20  2  0
 20 21  1  0
 21 22  2  0
 22 23  1  0
 23 24  2  0
 24 25  1  0
 25 26  1  0
 25 27  2  0
 27 28  1  0
 28 29  2  0
 12  7  1  0
 18 13  1  0
 29 19  1  0
 28 22  1  0
  3 30  1  0
  4 31  1  0
  4 32  1  0
  8 33  1  0
  8 34  1  0
  9 35  1  0
  9 36  1  0
 10 37  1  0
 10 38  1  0
 11 39  1  0
 11 40  1  0
 12 41  1  1
 14 42  1  0
 15 43  1  0
 16 44  1  0
 17 45  1  0
 18 46  1  0
 20 47  1  0
 21 48  1  0
 23 49  1  0
 24 50  1  0
 27 51  1  0
M  END
>  <smiles>  (43) 
O=C(NCC(=O)N1CCCCC1c1ccccc1)c1ccc2ccc(F)cc2n1

>  <score_type>  (43) 
oracle

>  <origin>  (43) 
autodockgpu

>  <m_score__min__energy>  (43) 
-8.3300000000000001

>  <m_primary>  (43) 
energy

>  <rmsd>  (43) 
2.266943126874022

>  <m_score__min__rmsd>  (43) 
2.266943126874022

>  <meeko>  (43) 
{"free_energy": -8.01, "intermolecular_energy": -9.51, "internal_energy": -1.69, "cluster_size": 34, "cluster_id": 1, "rank_in_cluster": 15}

>  <energy>  (43) 
-7.38

>  <cluster_rmsd>  (43) 
0.1

>  <cluster>  (43) 
6

$$$$

     RDKit          3D

 51 54  0  0  0  0  0  0  0  0999 V2000
  140.3640   71.6330  221.0600 O   0  0  0  0  0  0  0  0  0  0  0  0
  140.0890   72.2270  222.1250 C   0  0  0  0  0  0  0  0  0  0  0  0
  139.9040   73.6360  222.1360 N   0  0  0  0  0  0  0  0  0  0  0  0
  139.9820   74.5010  221.0190 C   0  0  0  0  0  0  0  0  0  0  0  0
  140.8370   75.6840  221.0680 C   0  0  0  0  0  0  0  0  0  0  0  0
  141.1160   76.0750  222.2830 O   0  0  0  0  0  0  0  0  0  0  0  0
  141.3930   76.4610  220.0560 N   0  0  0  0  0  0  0  0  0  0  0  0
  140.7860   77.6530  219.4540 C   0  0  0  0  0  0  0  0  0  0  0  0
  141.9130   78.5580  218.9200 C   0  0  0  0  0  0  0  0  0  0  0  0
  142.6330   77.8710  217.7840 C   0  0  0  0  0  0  0  0  0  0  0  0
  142.5990   76.3520  217.9920 C   0  0  0  0  0  0  0  0  0  0  0  0
  142.7220   76.1490  219.5050 C   0  0  2  0  0  0  0  0  0  0  0  0
  143.2160   74.8030  219.8330 C   0  0  0  0  0  0  0  0  0  0  0  0
  144.4790   74.7790  220.4720 C   0  0  0  0  0  0  0  0  0  0  0  0
  145.0020   73.5300  220.7810 C   0  0  0  0  0  0  0  0  0  0  0  0
  144.3410   72.3670  220.4860 C   0  0  0  0  0  0  0  0  0  0  0  0
  143.0850   72.3660  219.8510 C   0  0  0  0  0  0  0  0  0  0  0  0
  142.5920   73.6250  219.5590 C   0  0  0  0  0  0  0  0  0  0  0  0
  139.9550   71.4600  223.3670 C   0  0  0  0  0  0  0  0  0  0  0  0
  139.2150   70.3030  223.4360 C   0  0  0  0  0  0  0  0  0  0  0  0
  139.1050   69.5990  224.6180 C   0  0  0  0  0  0  0  0  0  0  0  0
  139.7590   70.0770  225.7560 C   0  0  0  0  0  0  0  0  0  0  0  0
  139.6870   69.4130  226.9630 C   0  0  0  0  0  0  0  0  0  0  0  0
  140.3560   69.9290  228.0540 C   0  0  0  0  0  0  0  0  0  0  0  0
  141.0950   71.0850  227.9820 C   0  0  0  0  0  0  0  0  0  0  0  0
  141.7470   71.5750  229.0870 F   0  0  0  0  0  0  0  0  0  0  0  0
  141.1790   71.7700  226.7670 C   0  0  0  0  0  0  0  0  0  0  0  0
  140.5110   71.2530  225.6780 C   0  0  0  0  0  0  0  0  0  0  0  0
  140.5670   71.8790  224.4920 N   0  0  0  0  0  0  0  0  0  0  0  0
  139.6840   74.0550  223.0910 H   0  0  0  0  0  0  0  0  0  0  0  0
  140.3298   73.8931  220.1707 H   0  0  0  0  0  0  0  0  0  0  0  0
  138.9687   74.9246  220.9569 H   0  0  0  0  0  0  0  0  0  0  0  0
  140.1254   77.3554  218.6264 H   0  0  0  0  0  0  0  0  0  0  0  0
  140.1918   78.1940  220.2052 H   0  0  0  0  0  0  0  0  0  0  0  0
  141.4810   79.5030  218.5589 H   0  0  0  0  0  0  0  0  0  0  0  0
  142.6282   78.7603  219.7309 H   0  0  0  0  0  0  0  0  0  0  0  0
  142.1385   78.1208  216.8337 H   0  0  0  0  0  0  0  0  0  0  0  0
  143.6788   78.2111  217.7576 H   0  0  0  0  0  0  0  0  0  0  0  0
  141.6510   75.9336  217.6228 H   0  0  0  0  0  0  0  0  0  0  0  0
  143.4059   75.8445  217.4430 H   0  0  0  0  0  0  0  0  0  0  0  0
  143.4736   76.8117  219.9587 H   0  0  0  0  0  0  0  0  0  0  0  0
  145.0206   75.7058  220.7124 H   0  0  0  0  0  0  0  0  0  0  0  0
  145.9807   73.4727  221.2798 H   0  0  0  0  0  0  0  0  0  0  0  0
  144.8053   71.4062  220.7531 H   0  0  0  0  0  0  0  0  0  0  0  0
  142.5410   71.4415  219.6073 H   0  0  0  0  0  0  0  0  0  0  0  0
  141.6117   73.6786  219.0629 H   0  0  0  0  0  0  0  0  0  0  0  0
  138.7030   69.9330  222.5355 H   0  0  0  0  0  0  0  0  0  0  0  0
  138.5107   68.6745  224.6633 H   0  0  0  0  0  0  0  0  0  0  0  0
  139.1041   68.4846  227.0545 H   0  0  0  0  0  0  0  0  0  0  0  0
  140.2956   69.3964  229.0146 H   0  0  0  0  0  0  0  0  0  0  0  0
  141.7633   72.6981  226.6819 H   0  0  0  0  0  0  0  0  0  0  0  0
  1  2  2  0
  2  3  1  0
  3  4  1  0
  4  5  1  0
  5  6  2  0
  5  7  1  0
  7  8  1  0
  8  9  1  0
  9 10  1  0
 10 11  1  0
 11 12  1  0
 12 13  1  0
 13 14  2  0
 14 15  1  0
 15 16  2  0
 16 17  1  0
 17 18  2  0
  2 19  1  0
 19 20  2  0
 20 21  1  0
 21 22  2  0
 22 23  1  0
 23 24  2  0
 24 25  1  0
 25 26  1  0
 25 27  2  0
 27 28  1  0
 28 29  2  0
 12  7  1  0
 18 13  1  0
 29 19  1  0
 28 22  1  0
  3 30  1  0
  4 31  1  0
  4 32  1  0
  8 33  1  0
  8 34  1  0
  9 35  1  0
  9 36  1  0
 10 37  1  0
 10 38  1  0
 11 39  1  0
 11 40  1  0
 12 41  1  1
 14 42  1  0
 15 43  1  0
 16 44  1  0
 17 45  1  0
 18 46  1  0
 20 47  1  0
 21 48  1  0
 23 49  1  0
 24 50  1  0
 27 51  1  0
M  END
>  <smiles>  (44) 
O=C(NCC(=O)N1CCCCC1c1ccccc1)c1ccc2ccc(F)cc2n1

>  <score_type>  (44) 
oracle

>  <origin>  (44) 
autodockgpu

>  <m_score__min__energy>  (44) 
-8.3300000000000001

>  <m_primary>  (44) 
energy

>  <rmsd>  (44) 
2.1044604038710544

>  <m_score__min__rmsd>  (44) 
2.1044604038710544

>  <meeko>  (44) 
{"free_energy": -8.28, "intermolecular_energy": -9.77, "internal_energy": -1.84, "cluster_size": 34, "cluster_id": 1, "rank_in_cluster": 3}

>  <energy>  (44) 
-7.36

>  <cluster_rmsd>  (44) 
0.2

>  <cluster>  (44) 
6

$$$$

     RDKit          3D

 51 54  0  0  0  0  0  0  0  0999 V2000
  140.2600   74.0060  222.3380 O   0  0  0  0  0  0  0  0  0  0  0  0
  140.2300   74.9680  221.5400 C   0  0  0  0  0  0  0  0  0  0  0  0
  140.3750   74.7500  220.1440 N   0  0  0  0  0  0  0  0  0  0  0  0
  140.5450   73.5000  219.5030 C   0  0  0  0  0  0  0  0  0  0  0  0
  141.8040   73.1850  218.8340 C   0  0  0  0  0  0  0  0  0  0  0  0
  141.6740   72.9710  217.5520 O   0  0  0  0  0  0  0  0  0  0  0  0
  143.1020   73.0680  219.3230 N   0  0  0  0  0  0  0  0  0  0  0  0
  143.6590   71.9020  220.0150 C   0  0  0  0  0  0  0  0  0  0  0  0
  145.1840   71.8810  219.7890 C   0  0  0  0  0  0  0  0  0  0  0  0
  145.8210   73.0740  220.4600 C   0  0  0  0  0  0  0  0  0  0  0  0
  144.8380   74.2520  220.4690 C   0  0  0  0  0  0  0  0  0  0  0  0
  144.0800   74.1540  219.1420 C   0  0  2  0  0  0  0  0  0  0  0  0
  143.4910   75.4460  218.7560 C   0  0  0  0  0  0  0  0  0  0  0  0
  143.0470   76.2380  219.8420 C   0  0  0  0  0  0  0  0  0  0  0  0
  142.4610   77.4570  219.5300 C   0  0  0  0  0  0  0  0  0  0  0  0
  142.3090   77.8870  218.2380 C   0  0  0  0  0  0  0  0  0  0  0  0
  142.7420   77.1160  217.1430 C   0  0  0  0  0  0  0  0  0  0  0  0
  143.3230   75.9100  217.4880 C   0  0  0  0  0  0  0  0  0  0  0  0
  140.0410   76.3280  222.0550 C   0  0  0  0  0  0  0  0  0  0  0  0
  138.7920   76.8700  222.2470 C   0  0  0  0  0  0  0  0  0  0  0  0
  138.6410   78.1530  222.7330 C   0  0  0  0  0  0  0  0  0  0  0  0
  139.7800   78.9040  223.0310 C   0  0  0  0  0  0  0  0  0  0  0  0
  139.6900   80.1900  223.5220 C   0  0  0  0  0  0  0  0  0  0  0  0
  140.8480   80.8850  223.8020 C   0  0  0  0  0  0  0  0  0  0  0  0
  142.0950   80.3410  223.6090 C   0  0  0  0  0  0  0  0  0  0  0  0
  143.2310   81.0590  223.8950 F   0  0  0  0  0  0  0  0  0  0  0  0
  142.2050   79.0390  223.1130 C   0  0  0  0  0  0  0  0  0  0  0  0
  141.0470   78.3460  222.8340 C   0  0  0  0  0  0  0  0  0  0  0  0
  141.1080   77.0930  222.3580 N   0  0  0  0  0  0  0  0  0  0  0  0
  140.3480   75.6310  219.5440 H   0  0  0  0  0  0  0  0  0  0  0  0
  140.3916   72.7268  220.2703 H   0  0  0  0  0  0  0  0  0  0  0  0
  139.8233   73.5422  218.6740 H   0  0  0  0  0  0  0  0  0  0  0  0
  143.4444   71.9720  221.0916 H   0  0  0  0  0  0  0  0  0  0  0  0
  143.2071   70.9793  219.6221 H   0  0  0  0  0  0  0  0  0  0  0  0
  145.6028   70.9570  220.2143 H   0  0  0  0  0  0  0  0  0  0  0  0
  145.3900   71.9209  218.7092 H   0  0  0  0  0  0  0  0  0  0  0  0
  146.0866   72.8122  221.4949 H   0  0  0  0  0  0  0  0  0  0  0  0
  146.7269   73.3613  219.9060 H   0  0  0  0  0  0  0  0  0  0  0  0
  144.1428   74.1676  221.3173 H   0  0  0  0  0  0  0  0  0  0  0  0
  145.3546   75.2172  220.5766 H   0  0  0  0  0  0  0  0  0  0  0  0
  144.7422   73.9161  218.2965 H   0  0  0  0  0  0  0  0  0  0  0  0
  143.1609   75.9033  220.8836 H   0  0  0  0  0  0  0  0  0  0  0  0
  142.1062   78.1003  220.3487 H   0  0  0  0  0  0  0  0  0  0  0  0
  141.8353   78.8621  218.0513 H   0  0  0  0  0  0  0  0  0  0  0  0
  142.6276   77.4455  216.0998 H   0  0  0  0  0  0  0  0  0  0  0  0
  143.6801   75.2707  216.6671 H   0  0  0  0  0  0  0  0  0  0  0  0
  137.8997   76.2721  222.0097 H   0  0  0  0  0  0  0  0  0  0  0  0
  137.6376   78.5779  222.8835 H   0  0  0  0  0  0  0  0  0  0  0  0
  138.7072   80.6553  223.6881 H   0  0  0  0  0  0  0  0  0  0  0  0
  140.7706   81.9101  224.1933 H   0  0  0  0  0  0  0  0  0  0  0  0
  143.1908   78.5791  222.9495 H   0  0  0  0  0  0  0  0  0  0  0  0
  1  2  2  0
  2  3  1  0
  3  4  1  0
  4  5  1  0
  5  6  2  0
  5  7  1  0
  7  8  1  0
  8  9  1  0
  9 10  1  0
 10 11  1  0
 11 12  1  0
 12 13  1  0
 13 14  2  0
 14 15  1  0
 15 16  2  0
 16 17  1  0
 17 18  2  0
  2 19  1  0
 19 20  2  0
 20 21  1  0
 21 22  2  0
 22 23  1  0
 23 24  2  0
 24 25  1  0
 25 26  1  0
 25 27  2  0
 27 28  1  0
 28 29  2  0
 12  7  1  0
 18 13  1  0
 29 19  1  0
 28 22  1  0
  3 30  1  0
  4 31  1  0
  4 32  1  0
  8 33  1  0
  8 34  1  0
  9 35  1  0
  9 36  1  0
 10 37  1  0
 10 38  1  0
 11 39  1  0
 11 40  1  0
 12 41  1  6
 14 42  1  0
 15 43  1  0
 16 44  1  0
 17 45  1  0
 18 46  1  0
 20 47  1  0
 21 48  1  0
 23 49  1  0
 24 50  1  0
 27 51  1  0
M  END
>  <smiles>  (45) 
O=C(NCC(=O)N1CCCCC1c1ccccc1)c1ccc2ccc(F)cc2n1

>  <score_type>  (45) 
oracle

>  <origin>  (45) 
autodockgpu

>  <m_score__min__energy>  (45) 
-8.3300000000000001

>  <m_primary>  (45) 
energy

>  <rmsd>  (45) 
7.171137388358536

>  <m_score__min__rmsd>  (45) 
7.171137388358536

>  <meeko>  (45) 
{"free_energy": -7.36, "intermolecular_energy": -8.85, "internal_energy": -2.26, "cluster_size": 8, "cluster_id": 6, "rank_in_cluster": 4}

>  <energy>  (45) 
-7.04

>  <cluster_rmsd>  (45) 
0.97

>  <cluster>  (45) 
6

$$$$

     RDKit          3D

 51 54  0  0  0  0  0  0  0  0999 V2000
  138.5580   75.5130  221.6970 O   0  0  0  0  0  0  0  0  0  0  0  0
  139.7360   75.8910  221.8700 C   0  0  0  0  0  0  0  0  0  0  0  0
  140.8210   75.0130  221.6000 N   0  0  0  0  0  0  0  0  0  0  0  0
  140.7260   73.6870  221.1160 C   0  0  0  0  0  0  0  0  0  0  0  0
  141.7210   73.1780  220.1760 C   0  0  0  0  0  0  0  0  0  0  0  0
  141.2000   72.5520  219.1550 O   0  0  0  0  0  0  0  0  0  0  0  0
  143.1120   73.2390  220.1840 N   0  0  0  0  0  0  0  0  0  0  0  0
  144.0140   72.2480  220.7800 C   0  0  0  0  0  0  0  0  0  0  0  0
  145.3610   72.3020  220.0330 C   0  0  0  0  0  0  0  0  0  0  0  0
  146.0320   73.6330  220.2720 C   0  0  0  0  0  0  0  0  0  0  0  0
  144.9690   74.7200  220.4760 C   0  0  0  0  0  0  0  0  0  0  0  0
  143.8250   74.3480  219.5280 C   0  0  2  0  0  0  0  0  0  0  0  0
  142.9820   75.5120  219.2110 C   0  0  0  0  0  0  0  0  0  0  0  0
  142.2040   75.3730  218.0380 C   0  0  0  0  0  0  0  0  0  0  0  0
  141.4090   76.4540  217.6810 C   0  0  0  0  0  0  0  0  0  0  0  0
  141.3700   77.6090  218.4190 C   0  0  0  0  0  0  0  0  0  0  0  0
  142.1360   77.7700  219.5880 C   0  0  0  0  0  0  0  0  0  0  0  0
  142.9140   76.6740  219.9160 C   0  0  0  0  0  0  0  0  0  0  0  0
  139.9960   77.2510  222.3530 C   0  0  0  0  0  0  0  0  0  0  0  0
  138.9790   78.1280  222.6470 C   0  0  0  0  0  0  0  0  0  0  0  0
  139.2500   79.4030  223.1000 C   0  0  0  0  0  0  0  0  0  0  0  0
  140.5800   79.7990  223.2590 C   0  0  0  0  0  0  0  0  0  0  0  0
  140.9100   81.0600  223.7120 C   0  0  0  0  0  0  0  0  0  0  0  0
  142.2410   81.3960  223.8530 C   0  0  0  0  0  0  0  0  0  0  0  0
  143.2550   80.5170  223.5570 C   0  0  0  0  0  0  0  0  0  0  0  0
  144.5710   80.8820  223.7050 F   0  0  0  0  0  0  0  0  0  0  0  0
  142.9390   79.2350  223.0980 C   0  0  0  0  0  0  0  0  0  0  0  0
  141.6080   78.9010  222.9590 C   0  0  0  0  0  0  0  0  0  0  0  0
  141.2620   77.6800  222.5230 N   0  0  0  0  0  0  0  0  0  0  0  0
  141.7880   75.4190  221.7890 H   0  0  0  0  0  0  0  0  0  0  0  0
  140.7525   73.0259  221.9948 H   0  0  0  0  0  0  0  0  0  0  0  0
  139.8012   73.7017  220.5206 H   0  0  0  0  0  0  0  0  0  0  0  0
  144.1700   72.4804  221.8438 H   0  0  0  0  0  0  0  0  0  0  0  0
  143.5768   71.2420  220.6971 H   0  0  0  0  0  0  0  0  0  0  0  0
  146.0127   71.4948  220.3987 H   0  0  0  0  0  0  0  0  0  0  0  0
  145.1809   72.1773  218.9550 H   0  0  0  0  0  0  0  0  0  0  0  0
  146.6645   73.5674  221.1696 H   0  0  0  0  0  0  0  0  0  0  0  0
  146.6520   73.8895  219.4004 H   0  0  0  0  0  0  0  0  0  0  0  0
  144.6190   74.7260  221.5188 H   0  0  0  0  0  0  0  0  0  0  0  0
  145.3644   75.7251  220.2677 H   0  0  0  0  0  0  0  0  0  0  0  0
  144.1853   74.0218  218.5412 H   0  0  0  0  0  0  0  0  0  0  0  0
  142.2276   74.4520  217.4369 H   0  0  0  0  0  0  0  0  0  0  0  0
  140.7893   76.3813  216.7751 H   0  0  0  0  0  0  0  0  0  0  0  0
  140.7213   78.4332  218.0876 H   0  0  0  0  0  0  0  0  0  0  0  0
  142.1179   78.6900  220.1906 H   0  0  0  0  0  0  0  0  0  0  0  0
  143.5302   76.7482  220.8242 H   0  0  0  0  0  0  0  0  0  0  0  0
  137.9341   77.8088  222.5193 H   0  0  0  0  0  0  0  0  0  0  0  0
  138.4298   80.0980  223.3327 H   0  0  0  0  0  0  0  0  0  0  0  0
  140.1225   81.7877  223.9575 H   0  0  0  0  0  0  0  0  0  0  0  0
  142.4992   82.4022  224.2148 H   0  0  0  0  0  0  0  0  0  0  0  0
  143.7310   78.5116  222.8541 H   0  0  0  0  0  0  0  0  0  0  0  0
  1  2  2  0
  2  3  1  0
  3  4  1  0
  4  5  1  0
  5  6  2  0
  5  7  1  0
  7  8  1  0
  8  9  1  0
  9 10  1  0
 10 11  1  0
 11 12  1  0
 12 13  1  0
 13 14  2  0
 14 15  1  0
 15 16  2  0
 16 17  1  0
 17 18  2  0
  2 19  1  0
 19 20  2  0
 20 21  1  0
 21 22  2  0
 22 23  1  0
 23 24  2  0
 24 25  1  0
 25 26  1  0
 25 27  2  0
 27 28  1  0
 28 29  2  0
 12  7  1  0
 18 13  1  0
 29 19  1  0
 28 22  1  0
  3 30  1  0
  4 31  1  0
  4 32  1  0
  8 33  1  0
  8 34  1  0
  9 35  1  0
  9 36  1  0
 10 37  1  0
 10 38  1  0
 11 39  1  0
 11 40  1  0
 12 41  1  6
 14 42  1  0
 15 43  1  0
 16 44  1  0
 17 45  1  0
 18 46  1  0
 20 47  1  0
 21 48  1  0
 23 49  1  0
 24 50  1  0
 27 51  1  0
M  END
>  <smiles>  (46) 
O=C(NCC(=O)N1CCCCC1c1ccccc1)c1ccc2ccc(F)cc2n1

>  <score_type>  (46) 
oracle

>  <origin>  (46) 
autodockgpu

>  <m_score__min__energy>  (46) 
-8.3300000000000001

>  <m_primary>  (46) 
energy

>  <rmsd>  (46) 
7.590070221475739

>  <m_score__min__rmsd>  (46) 
7.590070221475739

>  <meeko>  (46) 
{"free_energy": -7.03, "intermolecular_energy": -8.52, "internal_energy": -2.57, "cluster_size": 8, "cluster_id": 6, "rank_in_cluster": 6}

>  <energy>  (46) 
-7.03

>  <cluster_rmsd>  (46) 
1.09

>  <cluster>  (46) 
6

$$$$

     RDKit          3D

 51 54  0  0  0  0  0  0  0  0999 V2000
  140.2510   71.6350  221.0350 O   0  0  0  0  0  0  0  0  0  0  0  0
  139.9910   72.2200  222.1080 C   0  0  0  0  0  0  0  0  0  0  0  0
  139.8080   73.6280  222.1340 N   0  0  0  0  0  0  0  0  0  0  0  0
  139.8730   74.5030  221.0240 C   0  0  0  0  0  0  0  0  0  0  0  0
  140.7950   75.6360  221.0370 C   0  0  0  0  0  0  0  0  0  0  0  0
  141.1540   76.0020  222.2380 O   0  0  0  0  0  0  0  0  0  0  0  0
  141.3450   76.3870  220.0020 N   0  0  0  0  0  0  0  0  0  0  0  0
  140.7050   77.5220  219.3280 C   0  0  0  0  0  0  0  0  0  0  0  0
  141.8080   78.4480  218.7790 C   0  0  0  0  0  0  0  0  0  0  0  0
  142.5870   77.7400  217.6960 C   0  0  0  0  0  0  0  0  0  0  0  0
  142.6100   76.2320  217.9770 C   0  0  0  0  0  0  0  0  0  0  0  0
  142.7010   76.1060  219.5000 C   0  0  2  0  0  0  0  0  0  0  0  0
  143.2420   74.8000  219.9060 C   0  0  0  0  0  0  0  0  0  0  0  0
  144.5380   74.8490  220.4710 C   0  0  0  0  0  0  0  0  0  0  0  0
  145.1050   73.6390  220.8480 C   0  0  0  0  0  0  0  0  0  0  0  0
  144.4530   72.4440  220.6850 C   0  0  0  0  0  0  0  0  0  0  0  0
  143.1650   72.3700  220.1250 C   0  0  0  0  0  0  0  0  0  0  0  0
  142.6290   73.5930  219.7630 C   0  0  0  0  0  0  0  0  0  0  0  0
  139.8730   71.4420  223.3460 C   0  0  0  0  0  0  0  0  0  0  0  0
  139.1650   70.2640  223.4040 C   0  0  0  0  0  0  0  0  0  0  0  0
  139.0700   69.5500  224.5810 C   0  0  0  0  0  0  0  0  0  0  0  0
  139.7050   70.0390  225.7250 C   0  0  0  0  0  0  0  0  0  0  0  0
  139.6460   69.3670  226.9280 C   0  0  0  0  0  0  0  0  0  0  0  0
  140.2950   69.8950  228.0250 C   0  0  0  0  0  0  0  0  0  0  0  0
  141.0020   71.0720  227.9640 C   0  0  0  0  0  0  0  0  0  0  0  0
  141.6350   71.5740  229.0750 F   0  0  0  0  0  0  0  0  0  0  0  0
  141.0720   71.7660  226.7530 C   0  0  0  0  0  0  0  0  0  0  0  0
  140.4240   71.2370  225.6570 C   0  0  0  0  0  0  0  0  0  0  0  0
  140.4680   71.8710  224.4760 N   0  0  0  0  0  0  0  0  0  0  0  0
  139.6020   74.0400  223.0960 H   0  0  0  0  0  0  0  0  0  0  0  0
  140.1382   73.8885  220.1510 H   0  0  0  0  0  0  0  0  0  0  0  0
  138.8836   74.9837  221.0242 H   0  0  0  0  0  0  0  0  0  0  0  0
  140.0798   77.1575  218.4996 H   0  0  0  0  0  0  0  0  0  0  0  0
  140.0685   78.0720  220.0368 H   0  0  0  0  0  0  0  0  0  0  0  0
  141.3471   79.3555  218.3619 H   0  0  0  0  0  0  0  0  0  0  0  0
  142.4920   78.7183  219.5970 H   0  0  0  0  0  0  0  0  0  0  0  0
  142.1089   77.9232  216.7224 H   0  0  0  0  0  0  0  0  0  0  0  0
  143.6180   78.1231  217.6793 H   0  0  0  0  0  0  0  0  0  0  0  0
  141.6902   75.7568  217.6054 H   0  0  0  0  0  0  0  0  0  0  0  0
  143.4516   75.7339  217.4734 H   0  0  0  0  0  0  0  0  0  0  0  0
  143.4125   76.8207  219.9393 H   0  0  0  0  0  0  0  0  0  0  0  0
  145.0717   75.8014  220.6054 H   0  0  0  0  0  0  0  0  0  0  0  0
  146.1112   73.6391  221.2925 H   0  0  0  0  0  0  0  0  0  0  0  0
  144.9518   71.5161  221.0014 H   0  0  0  0  0  0  0  0  0  0  0  0
  142.6288   71.4196  219.9865 H   0  0  0  0  0  0  0  0  0  0  0  0
  141.6213   73.5898  219.3219 H   0  0  0  0  0  0  0  0  0  0  0  0
  138.6673   69.8857  222.4989 H   0  0  0  0  0  0  0  0  0  0  0  0
  138.5020   68.6087  224.6178 H   0  0  0  0  0  0  0  0  0  0  0  0
  139.0887   68.4223  227.0117 H   0  0  0  0  0  0  0  0  0  0  0  0
  140.2448   69.3550  228.9820 H   0  0  0  0  0  0  0  0  0  0  0  0
  141.6302   72.7107  226.6761 H   0  0  0  0  0  0  0  0  0  0  0  0
  1  2  2  0
  2  3  1  0
  3  4  1  0
  4  5  1  0
  5  6  2  0
  5  7  1  0
  7  8  1  0
  8  9  1  0
  9 10  1  0
 10 11  1  0
 11 12  1  0
 12 13  1  0
 13 14  2  0
 14 15  1  0
 15 16  2  0
 16 17  1  0
 17 18  2  0
  2 19  1  0
 19 20  2  0
 20 21  1  0
 21 22  2  0
 22 23  1  0
 23 24  2  0
 24 25  1  0
 25 26  1  0
 25 27  2  0
 27 28  1  0
 28 29  2  0
 12  7  1  0
 18 13  1  0
 29 19  1  0
 28 22  1  0
  3 30  1  0
  4 31  1  0
  4 32  1  0
  8 33  1  0
  8 34  1  0
  9 35  1  0
  9 36  1  0
 10 37  1  0
 10 38  1  0
 11 39  1  0
 11 40  1  0
 12 41  1  1
 14 42  1  0
 15 43  1  0
 16 44  1  0
 17 45  1  0
 18 46  1  0
 20 47  1  0
 21 48  1  0
 23 49  1  0
 24 50  1  0
 27 51  1  0
M  END
>  <smiles>  (47) 
O=C(NCC(=O)N1CCCCC1c1ccccc1)c1ccc2ccc(F)cc2n1

>  <score_type>  (47) 
oracle

>  <origin>  (47) 
autodockgpu

>  <m_score__min__energy>  (47) 
-8.3300000000000001

>  <m_primary>  (47) 
energy

>  <rmsd>  (47) 
2.0260200732698923

>  <m_score__min__rmsd>  (47) 
2.0260200732698923

>  <meeko>  (47) 
{"free_energy": -8.33, "intermolecular_energy": -9.82, "internal_energy": -1.81, "cluster_size": 34, "cluster_id": 1, "rank_in_cluster": 1}

>  <energy>  (47) 
-7.0

>  <cluster_rmsd>  (47) 
1.13

>  <cluster>  (47) 
6

$$$$

     RDKit          3D

 51 54  0  0  0  0  0  0  0  0999 V2000
  140.4210   71.7310  221.0680 O   0  0  0  0  0  0  0  0  0  0  0  0
  140.0430   72.2700  222.1310 C   0  0  0  0  0  0  0  0  0  0  0  0
  139.7070   73.6500  222.1580 N   0  0  0  0  0  0  0  0  0  0  0  0
  139.7350   74.5420  221.0610 C   0  0  0  0  0  0  0  0  0  0  0  0
  140.8330   75.4940  220.9190 C   0  0  0  0  0  0  0  0  0  0  0  0
  141.4440   75.7570  222.0440 O   0  0  0  0  0  0  0  0  0  0  0  0
  141.3320   76.1650  219.8060 N   0  0  0  0  0  0  0  0  0  0  0  0
  140.6250   77.1890  219.0310 C   0  0  0  0  0  0  0  0  0  0  0  0
  141.6690   78.1140  218.3750 C   0  0  0  0  0  0  0  0  0  0  0  0
  142.4760   77.3430  217.3590 C   0  0  0  0  0  0  0  0  0  0  0  0
  142.5860   75.8750  217.7890 C   0  0  0  0  0  0  0  0  0  0  0  0
  142.6970   75.9100  219.3160 C   0  0  2  0  0  0  0  0  0  0  0  0
  143.3130   74.6820  219.8430 C   0  0  0  0  0  0  0  0  0  0  0  0
  144.5760   74.8720  220.4530 C   0  0  0  0  0  0  0  0  0  0  0  0
  145.2120   73.7410  220.9450 C   0  0  0  0  0  0  0  0  0  0  0  0
  144.6580   72.4910  220.8500 C   0  0  0  0  0  0  0  0  0  0  0  0
  143.4050   72.2770  220.2470 C   0  0  0  0  0  0  0  0  0  0  0  0
  142.7980   73.4250  219.7700 C   0  0  0  0  0  0  0  0  0  0  0  0
  139.9440   71.4660  223.3530 C   0  0  0  0  0  0  0  0  0  0  0  0
  139.2630   70.2720  223.3900 C   0  0  0  0  0  0  0  0  0  0  0  0
  139.1850   69.5340  224.5540 C   0  0  0  0  0  0  0  0  0  0  0  0
  139.8120   70.0150  225.7060 C   0  0  0  0  0  0  0  0  0  0  0  0
  139.7690   69.3190  226.8960 C   0  0  0  0  0  0  0  0  0  0  0  0
  140.4090   69.8400  228.0020 C   0  0  0  0  0  0  0  0  0  0  0  0
  141.0890   71.0330  227.9620 C   0  0  0  0  0  0  0  0  0  0  0  0
  141.7130   71.5280  229.0810 F   0  0  0  0  0  0  0  0  0  0  0  0
  141.1420   71.7510  226.7650 C   0  0  0  0  0  0  0  0  0  0  0  0
  140.5030   71.2290  225.6600 C   0  0  0  0  0  0  0  0  0  0  0  0
  140.5320   71.8870  224.4910 N   0  0  0  0  0  0  0  0  0  0  0  0
  139.4060   74.0230  223.1110 H   0  0  0  0  0  0  0  0  0  0  0  0
  139.7307   73.9249  220.1504 H   0  0  0  0  0  0  0  0  0  0  0  0
  138.8630   75.1883  221.2398 H   0  0  0  0  0  0  0  0  0  0  0  0
  140.0136   76.7089  218.2527 H   0  0  0  0  0  0  0  0  0  0  0  0
  139.9661   77.7727  219.6907 H   0  0  0  0  0  0  0  0  0  0  0  0
  141.1541   78.9474  217.8747 H   0  0  0  0  0  0  0  0  0  0  0  0
  142.3438   78.5044  219.1511 H   0  0  0  0  0  0  0  0  0  0  0  0
  141.9799   77.4003  216.3789 H   0  0  0  0  0  0  0  0  0  0  0  0
  143.4840   77.7779  217.2900 H   0  0  0  0  0  0  0  0  0  0  0  0
  141.6912   75.3147  217.4802 H   0  0  0  0  0  0  0  0  0  0  0  0
  143.4494   75.3750  217.3258 H   0  0  0  0  0  0  0  0  0  0  0  0
  143.3707   76.7037  219.6712 H   0  0  0  0  0  0  0  0  0  0  0  0
  145.0322   75.8697  220.5333 H   0  0  0  0  0  0  0  0  0  0  0  0
  146.1942   73.8515  221.4277 H   0  0  0  0  0  0  0  0  0  0  0  0
  145.2089   71.6302  221.2570 H   0  0  0  0  0  0  0  0  0  0  0  0
  142.9466   71.2807  220.1620 H   0  0  0  0  0  0  0  0  0  0  0  0
  141.8145   73.3117  219.2905 H   0  0  0  0  0  0  0  0  0  0  0  0
  138.7730   69.8993  222.4784 H   0  0  0  0  0  0  0  0  0  0  0  0
  138.6368   68.5805  224.5742 H   0  0  0  0  0  0  0  0  0  0  0  0
  139.2317   68.3614  226.9625 H   0  0  0  0  0  0  0  0  0  0  0  0
  140.3734   69.2806  228.9485 H   0  0  0  0  0  0  0  0  0  0  0  0
  141.6799   72.7087  226.7053 H   0  0  0  0  0  0  0  0  0  0  0  0
  1  2  2  0
  2  3  1  0
  3  4  1  0
  4  5  1  0
  5  6  2  0
  5  7  1  0
  7  8  1  0
  8  9  1  0
  9 10  1  0
 10 11  1  0
 11 12  1  0
 12 13  1  0
 13 14  2  0
 14 15  1  0
 15 16  2  0
 16 17  1  0
 17 18  2  0
  2 19  1  0
 19 20  2  0
 20 21  1  0
 21 22  2  0
 22 23  1  0
 23 24  2  0
 24 25  1  0
 25 26  1  0
 25 27  2  0
 27 28  1  0
 28 29  2  0
 12  7  1  0
 18 13  1  0
 29 19  1  0
 28 22  1  0
  3 30  1  0
  4 31  1  0
  4 32  1  0
  8 33  1  0
  8 34  1  0
  9 35  1  0
  9 36  1  0
 10 37  1  0
 10 38  1  0
 11 39  1  0
 11 40  1  0
 12 41  1  6
 14 42  1  0
 15 43  1  0
 16 44  1  0
 17 45  1  0
 18 46  1  0
 20 47  1  0
 21 48  1  0
 23 49  1  0
 24 50  1  0
 27 51  1  0
M  END
>  <smiles>  (48) 
O=C(NCC(=O)N1CCCCC1c1ccccc1)c1ccc2ccc(F)cc2n1

>  <score_type>  (48) 
oracle

>  <origin>  (48) 
autodockgpu

>  <m_score__min__energy>  (48) 
-8.3300000000000001

>  <m_primary>  (48) 
energy

>  <rmsd>  (48) 
1.9318966657238472

>  <m_score__min__rmsd>  (48) 
1.9318966657238472

>  <meeko>  (48) 
{"free_energy": -8.19, "intermolecular_energy": -9.68, "internal_energy": -1.78, "cluster_size": 34, "cluster_id": 1, "rank_in_cluster": 9}

>  <energy>  (48) 
-6.95

>  <cluster_rmsd>  (48) 
1.15

>  <cluster>  (48) 
6

$$$$

     RDKit          3D

 51 54  0  0  0  0  0  0  0  0999 V2000
  140.3580   71.6720  221.0060 O   0  0  0  0  0  0  0  0  0  0  0  0
  140.0760   72.2360  222.0860 C   0  0  0  0  0  0  0  0  0  0  0  0
  139.8590   73.6400  222.1290 N   0  0  0  0  0  0  0  0  0  0  0  0
  139.9100   74.5310  221.0320 C   0  0  0  0  0  0  0  0  0  0  0  0
  140.9270   75.5780  220.9850 C   0  0  0  0  0  0  0  0  0  0  0  0
  141.4360   75.8630  222.1540 O   0  0  0  0  0  0  0  0  0  0  0  0
  141.4370   76.3210  219.9230 N   0  0  0  0  0  0  0  0  0  0  0  0
  140.7680   77.4440  219.2600 C   0  0  0  0  0  0  0  0  0  0  0  0
  141.8450   78.3700  218.6620 C   0  0  0  0  0  0  0  0  0  0  0  0
  142.5900   77.6530  217.5610 C   0  0  0  0  0  0  0  0  0  0  0  0
  142.6310   76.1490  217.8570 C   0  0  0  0  0  0  0  0  0  0  0  0
  142.7750   76.0410  219.3780 C   0  0  2  0  0  0  0  0  0  0  0  0
  143.3380   74.7420  219.7790 C   0  0  0  0  0  0  0  0  0  0  0  0
  142.5750   73.6200  219.3760 C   0  0  0  0  0  0  0  0  0  0  0  0
  143.0500   72.3710  219.7510 C   0  0  0  0  0  0  0  0  0  0  0  0
  144.2000   72.2150  220.4800 C   0  0  0  0  0  0  0  0  0  0  0  0
  144.9740   73.3150  220.8930 C   0  0  0  0  0  0  0  0  0  0  0  0
  144.4740   74.5430  220.5010 C   0  0  0  0  0  0  0  0  0  0  0  0
  139.9690   71.4390  223.3120 C   0  0  0  0  0  0  0  0  0  0  0  0
  139.3010   70.2380  223.3460 C   0  0  0  0  0  0  0  0  0  0  0  0
  139.2140   69.5060  224.5130 C   0  0  0  0  0  0  0  0  0  0  0  0
  139.8170   70.0010  225.6710 C   0  0  0  0  0  0  0  0  0  0  0  0
  139.7650   69.3120  226.8650 C   0  0  0  0  0  0  0  0  0  0  0  0
  140.3810   69.8470  227.9770 C   0  0  0  0  0  0  0  0  0  0  0  0
  141.0480   71.0480  227.9400 C   0  0  0  0  0  0  0  0  0  0  0  0
  141.6490   71.5570  229.0660 F   0  0  0  0  0  0  0  0  0  0  0  0
  141.1110   71.7600  226.7390 C   0  0  0  0  0  0  0  0  0  0  0  0
  140.4950   71.2230  225.6280 C   0  0  0  0  0  0  0  0  0  0  0  0
  140.5340   71.8740  224.4550 N   0  0  0  0  0  0  0  0  0  0  0  0
  139.6360   74.0330  223.0940 H   0  0  0  0  0  0  0  0  0  0  0  0
  140.0463   73.9160  220.1302 H   0  0  0  0  0  0  0  0  0  0  0  0
  138.9709   75.0964  221.1233 H   0  0  0  0  0  0  0  0  0  0  0  0
  140.1161   77.0668  218.4583 H   0  0  0  0  0  0  0  0  0  0  0  0
  140.1541   77.9985  219.9850 H   0  0  0  0  0  0  0  0  0  0  0  0
  141.3641   79.2696  218.2504 H   0  0  0  0  0  0  0  0  0  0  0  0
  142.5553   78.6548  219.4522 H   0  0  0  0  0  0  0  0  0  0  0  0
  142.0777   77.8229  216.6025 H   0  0  0  0  0  0  0  0  0  0  0  0
  143.6179   78.0408  217.5052 H   0  0  0  0  0  0  0  0  0  0  0  0
  141.7016   75.6649  217.5225 H   0  0  0  0  0  0  0  0  0  0  0  0
  143.4572   75.6494  217.3300 H   0  0  0  0  0  0  0  0  0  0  0  0
  143.4967   76.7644  219.7853 H   0  0  0  0  0  0  0  0  0  0  0  0
  141.6490   73.7327  218.7930 H   0  0  0  0  0  0  0  0  0  0  0  0
  142.4843   71.4759  219.4530 H   0  0  0  0  0  0  0  0  0  0  0  0
  144.5275   71.2002  220.7501 H   0  0  0  0  0  0  0  0  0  0  0  0
  145.8990   73.2071  221.4785 H   0  0  0  0  0  0  0  0  0  0  0  0
  145.0435   75.4359  220.7984 H   0  0  0  0  0  0  0  0  0  0  0  0
  138.8287   69.8546  222.4295 H   0  0  0  0  0  0  0  0  0  0  0  0
  138.6771   68.5461  224.5305 H   0  0  0  0  0  0  0  0  0  0  0  0
  139.2389   68.3481  226.9294 H   0  0  0  0  0  0  0  0  0  0  0  0
  140.3369   69.2932  228.9264 H   0  0  0  0  0  0  0  0  0  0  0  0
  141.6382   72.7237  226.6813 H   0  0  0  0  0  0  0  0  0  0  0  0
  1  2  2  0
  2  3  1  0
  3  4  1  0
  4  5  1  0
  5  6  2  0
  5  7  1  0
  7  8  1  0
  8  9  1  0
  9 10  1  0
 10 11  1  0
 11 12  1  0
 12 13  1  0
 13 14  2  0
 14 15  1  0
 15 16  2  0
 16 17  1  0
 17 18  2  0
  2 19  1  0
 19 20  2  0
 20 21  1  0
 21 22  2  0
 22 23  1  0
 23 24  2  0
 24 25  1  0
 25 26  1  0
 25 27  2  0
 27 28  1  0
 28 29  2  0
 12  7  1  0
 18 13  1  0
 29 19  1  0
 28 22  1  0
  3 30  1  0
  4 31  1  0
  4 32  1  0
  8 33  1  0
  8 34  1  0
  9 35  1  0
  9 36  1  0
 10 37  1  0
 10 38  1  0
 11 39  1  0
 11 40  1  0
 12 41  1  1
 14 42  1  0
 15 43  1  0
 16 44  1  0
 17 45  1  0
 18 46  1  0
 20 47  1  0
 21 48  1  0
 23 49  1  0
 24 50  1  0
 27 51  1  0
M  END
>  <smiles>  (49) 
O=C(NCC(=O)N1CCCCC1c1ccccc1)c1ccc2ccc(F)cc2n1

>  <score_type>  (49) 
oracle

>  <origin>  (49) 
autodockgpu

>  <m_score__min__energy>  (49) 
-8.3300000000000001

>  <m_primary>  (49) 
energy

>  <rmsd>  (49) 
2.0322042471721375

>  <m_score__min__rmsd>  (49) 
2.0322042471721375

>  <meeko>  (49) 
{"free_energy": -8.09, "intermolecular_energy": -9.58, "internal_energy": -1.84, "cluster_size": 34, "cluster_id": 1, "rank_in_cluster": 12}

>  <energy>  (49) 
-7.06

>  <cluster_rmsd>  (49) 
0.0

>  <cluster>  (49) 
7

$$$$

     RDKit          3D

 51 54  0  0  0  0  0  0  0  0999 V2000
  140.2360   71.6030  221.0030 O   0  0  0  0  0  0  0  0  0  0  0  0
  140.0510   72.1910  222.0900 C   0  0  0  0  0  0  0  0  0  0  0  0
  139.9160   73.6050  222.1300 N   0  0  0  0  0  0  0  0  0  0  0  0
  139.9540   74.4830  221.0210 C   0  0  0  0  0  0  0  0  0  0  0  0
  140.8910   75.6020  221.0040 C   0  0  0  0  0  0  0  0  0  0  0  0
  141.2440   76.0050  222.1960 O   0  0  0  0  0  0  0  0  0  0  0  0
  141.4630   76.3090  219.9500 N   0  0  0  0  0  0  0  0  0  0  0  0
  140.8660   77.4560  219.2580 C   0  0  0  0  0  0  0  0  0  0  0  0
  142.0020   78.3230  218.6810 C   0  0  0  0  0  0  0  0  0  0  0  0
  142.7390   77.5610  217.6060 C   0  0  0  0  0  0  0  0  0  0  0  0
  142.7010   76.0600  217.9170 C   0  0  0  0  0  0  0  0  0  0  0  0
  142.8010   75.9610  219.4420 C   0  0  2  0  0  0  0  0  0  0  0  0
  143.2900   74.6410  219.8690 C   0  0  0  0  0  0  0  0  0  0  0  0
  144.5710   74.6530  220.4700 C   0  0  0  0  0  0  0  0  0  0  0  0
  145.0900   73.4290  220.8690 C   0  0  0  0  0  0  0  0  0  0  0  0
  144.4070   72.2540  220.6930 C   0  0  0  0  0  0  0  0  0  0  0  0
  143.1330   72.2160  220.0980 C   0  0  0  0  0  0  0  0  0  0  0  0
  142.6450   73.4520  219.7150 C   0  0  0  0  0  0  0  0  0  0  0  0
  139.9700   71.4120  223.3300 C   0  0  0  0  0  0  0  0  0  0  0  0
  139.3550   70.1830  223.3810 C   0  0  0  0  0  0  0  0  0  0  0  0
  139.2920   69.4680  224.5600 C   0  0  0  0  0  0  0  0  0  0  0  0
  139.8660   70.0100  225.7130 C   0  0  0  0  0  0  0  0  0  0  0  0
  139.8360   69.3400  226.9190 C   0  0  0  0  0  0  0  0  0  0  0  0
  140.4210   69.9210  228.0250 C   0  0  0  0  0  0  0  0  0  0  0  0
  141.0350   71.1490  227.9700 C   0  0  0  0  0  0  0  0  0  0  0  0
  141.6060   71.7030  229.0900 F   0  0  0  0  0  0  0  0  0  0  0  0
  141.0740   71.8420  226.7570 C   0  0  0  0  0  0  0  0  0  0  0  0
  140.4900   71.2600  225.6520 C   0  0  0  0  0  0  0  0  0  0  0  0
  140.5080   71.8910  224.4680 N   0  0  0  0  0  0  0  0  0  0  0  0
  139.7730   74.0180  223.1020 H   0  0  0  0  0  0  0  0  0  0  0  0
  140.1790   73.8678  220.1373 H   0  0  0  0  0  0  0  0  0  0  0  0
  138.9723   74.9778  221.0584 H   0  0  0  0  0  0  0  0  0  0  0  0
  140.2185   77.1016  218.4424 H   0  0  0  0  0  0  0  0  0  0  0  0
  140.2599   78.0469  219.9605 H   0  0  0  0  0  0  0  0  0  0  0  0
  141.5763   79.2411  218.2498 H   0  0  0  0  0  0  0  0  0  0  0  0
  142.7047   78.5801  219.4873 H   0  0  0  0  0  0  0  0  0  0  0  0
  142.2593   77.7450  216.6334 H   0  0  0  0  0  0  0  0  0  0  0  0
  143.7851   77.8993  217.5722 H   0  0  0  0  0  0  0  0  0  0  0  0
  141.7585   75.6168  217.5630 H   0  0  0  0  0  0  0  0  0  0  0  0
  143.5158   75.5165  217.4163 H   0  0  0  0  0  0  0  0  0  0  0  0
  143.5458   76.6537  219.8608 H   0  0  0  0  0  0  0  0  0  0  0  0
  145.1299   75.5894  220.6144 H   0  0  0  0  0  0  0  0  0  0  0  0
  146.0826   73.4012  221.3423 H   0  0  0  0  0  0  0  0  0  0  0  0
  144.8686   71.3130  221.0268 H   0  0  0  0  0  0  0  0  0  0  0  0
  142.5719   71.2815  219.9498 H   0  0  0  0  0  0  0  0  0  0  0  0
  141.6504   73.4765  219.2457 H   0  0  0  0  0  0  0  0  0  0  0  0
  138.9065   69.7634  222.4684 H   0  0  0  0  0  0  0  0  0  0  0  0
  138.7973   68.4860  224.5915 H   0  0  0  0  0  0  0  0  0  0  0  0
  139.3519   68.3554  226.9974 H   0  0  0  0  0  0  0  0  0  0  0  0
  140.3951   69.3827  228.9839 H   0  0  0  0  0  0  0  0  0  0  0  0
  141.5584   72.8270  226.6857 H   0  0  0  0  0  0  0  0  0  0  0  0
  1  2  2  0
  2  3  1  0
  3  4  1  0
  4  5  1  0
  5  6  2  0
  5  7  1  0
  7  8  1  0
  8  9  1  0
  9 10  1  0
 10 11  1  0
 11 12  1  0
 12 13  1  0
 13 14  2  0
 14 15  1  0
 15 16  2  0
 16 17  1  0
 17 18  2  0
  2 19  1  0
 19 20  2  0
 20 21  1  0
 21 22  2  0
 22 23  1  0
 23 24  2  0
 24 25  1  0
 25 26  1  0
 25 27  2  0
 27 28  1  0
 28 29  2  0
 12  7  1  0
 18 13  1  0
 29 19  1  0
 28 22  1  0
  3 30  1  0
  4 31  1  0
  4 32  1  0
  8 33  1  0
  8 34  1  0
  9 35  1  0
  9 36  1  0
 10 37  1  0
 10 38  1  0
 11 39  1  0
 11 40  1  0
 12 41  1  1
 14 42  1  0
 15 43  1  0
 16 44  1  0
 17 45  1  0
 18 46  1  0
 20 47  1  0
 21 48  1  0
 23 49  1  0
 24 50  1  0
 27 51  1  0
M  END
>  <smiles>  (50) 
O=C(NCC(=O)N1CCCCC1c1ccccc1)c1ccc2ccc(F)cc2n1

>  <score_type>  (50) 
oracle

>  <origin>  (50) 
autodockgpu

>  <m_score__min__energy>  (50) 
-8.3300000000000001

>  <m_primary>  (50) 
energy

>  <rmsd>  (50) 
2.056800416921308

>  <m_score__min__rmsd>  (50) 
2.056800416921308

>  <meeko>  (50) 
{"free_energy": -8.19, "intermolecular_energy": -9.68, "internal_energy": -1.91, "cluster_size": 34, "cluster_id": 1, "rank_in_cluster": 8}

>  <energy>  (50) 
-7.01

>  <cluster_rmsd>  (50) 
0.15

>  <cluster>  (50) 
7

$$$$

     RDKit          3D

 51 54  0  0  0  0  0  0  0  0999 V2000
  137.3310   75.7840  222.1500 O   0  0  0  0  0  0  0  0  0  0  0  0
  138.5810   75.9000  222.3320 C   0  0  0  0  0  0  0  0  0  0  0  0
  139.4490   74.7960  222.2570 N   0  0  0  0  0  0  0  0  0  0  0  0
  138.9060   73.4820  221.9610 C   0  0  0  0  0  0  0  0  0  0  0  0
  139.8270   72.4840  222.5660 C   0  0  0  0  0  0  0  0  0  0  0  0
  141.0600   72.6860  222.7220 O   0  0  0  0  0  0  0  0  0  0  0  0
  139.3020   71.2330  222.9940 N   0  0  0  0  0  0  0  0  0  0  0  0
  139.4490   70.0430  222.1780 C   0  0  0  0  0  0  0  0  0  0  0  0
  138.0550   69.7540  221.6250 C   0  0  0  0  0  0  0  0  0  0  0  0
  137.0000   70.3720  222.5120 C   0  0  0  0  0  0  0  0  0  0  0  0
  137.4440   70.1190  223.9570 C   0  0  0  0  0  0  0  0  0  0  0  0
  138.6000   71.0840  224.2550 C   0  0  1  0  0  0  0  0  0  0  0  0
  139.4200   70.3920  225.2910 C   0  0  0  0  0  0  0  0  0  0  0  0
  139.3520   69.0150  225.4640 C   0  0  0  0  0  0  0  0  0  0  0  0
  140.1200   68.3720  226.4340 C   0  0  0  0  0  0  0  0  0  0  0  0
  140.9720   69.0830  227.2520 C   0  0  0  0  0  0  0  0  0  0  0  0
  141.0480   70.4450  227.0900 C   0  0  0  0  0  0  0  0  0  0  0  0
  140.2840   71.0730  226.1300 C   0  0  0  0  0  0  0  0  0  0  0  0
  139.1110   77.2440  222.6310 C   0  0  0  0  0  0  0  0  0  0  0  0
  138.2890   78.3070  222.8340 C   0  0  0  0  0  0  0  0  0  0  0  0
  138.7180   79.5860  223.1160 C   0  0  0  0  0  0  0  0  0  0  0  0
  140.0810   79.7890  223.1960 C   0  0  0  0  0  0  0  0  0  0  0  0
  140.5260   81.0540  223.4760 C   0  0  0  0  0  0  0  0  0  0  0  0
  141.8760   81.2950  223.5640 C   0  0  0  0  0  0  0  0  0  0  0  0
  142.7530   80.2430  223.3640 C   0  0  0  0  0  0  0  0  0  0  0  0
  144.0730   80.5300  223.4610 F   0  0  0  0  0  0  0  0  0  0  0  0
  142.2800   78.9690  223.0820 C   0  0  0  0  0  0  0  0  0  0  0  0
  140.9290   78.7090  222.9900 C   0  0  0  0  0  0  0  0  0  0  0  0
  140.4490   77.4680  222.7140 N   0  0  0  0  0  0  0  0  0  0  0  0
  140.4860   74.9400  222.4160 H   0  0  0  0  0  0  0  0  0  0  0  0
  137.9011   73.3816  222.3971 H   0  0  0  0  0  0  0  0  0  0  0  0
  138.8199   73.3286  220.8752 H   0  0  0  0  0  0  0  0  0  0  0  0
  140.1583   70.2247  221.3571 H   0  0  0  0  0  0  0  0  0  0  0  0
  139.8419   69.1954  222.7587 H   0  0  0  0  0  0  0  0  0  0  0  0
  137.9713   70.1769  220.6130 H   0  0  0  0  0  0  0  0  0  0  0  0
  137.9018   68.6652  221.5925 H   0  0  0  0  0  0  0  0  0  0  0  0
  136.9278   71.4528  222.3203 H   0  0  0  0  0  0  0  0  0  0  0  0
  136.0100   69.9338  222.3174 H   0  0  0  0  0  0  0  0  0  0  0  0
  136.6081   70.3088  224.6463 H   0  0  0  0  0  0  0  0  0  0  0  0
  137.7644   69.0750  224.0888 H   0  0  0  0  0  0  0  0  0  0  0  0
  138.3177   72.0803  224.6260 H   0  0  0  0  0  0  0  0  0  0  0  0
  138.6810   68.4222  224.8250 H   0  0  0  0  0  0  0  0  0  0  0  0
  140.0449   67.2805  226.5483 H   0  0  0  0  0  0  0  0  0  0  0  0
  141.5764   68.5720  228.0160 H   0  0  0  0  0  0  0  0  0  0  0  0
  141.7208   71.0363  227.7285 H   0  0  0  0  0  0  0  0  0  0  0  0
  140.3648   72.1651  226.0262 H   0  0  0  0  0  0  0  0  0  0  0  0
  137.2046   78.1344  222.7686 H   0  0  0  0  0  0  0  0  0  0  0  0
  138.0051   80.4094  223.2706 H   0  0  0  0  0  0  0  0  0  0  0  0
  139.8069   81.8721  223.6295 H   0  0  0  0  0  0  0  0  0  0  0  0
  142.2522   82.3039  223.7889 H   0  0  0  0  0  0  0  0  0  0  0  0
  142.9978   78.1497  222.9287 H   0  0  0  0  0  0  0  0  0  0  0  0
  1  2  2  0
  2  3  1  0
  3  4  1  0
  4  5  1  0
  5  6  2  0
  5  7  1  0
  7  8  1  0
  8  9  1  0
  9 10  1  0
 10 11  1  0
 11 12  1  0
 12 13  1  0
 13 14  2  0
 14 15  1  0
 15 16  2  0
 16 17  1  0
 17 18  2  0
  2 19  1  0
 19 20  2  0
 20 21  1  0
 21 22  2  0
 22 23  1  0
 23 24  2  0
 24 25  1  0
 25 26  1  0
 25 27  2  0
 27 28  1  0
 28 29  2  0
 12  7  1  0
 18 13  1  0
 29 19  1  0
 28 22  1  0
  3 30  1  0
  4 31  1  0
  4 32  1  0
  8 33  1  0
  8 34  1  0
  9 35  1  0
  9 36  1  0
 10 37  1  0
 10 38  1  0
 11 39  1  0
 11 40  1  0
 12 41  1  1
 14 42  1  0
 15 43  1  0
 16 44  1  0
 17 45  1  0
 18 46  1  0
 20 47  1  0
 21 48  1  0
 23 49  1  0
 24 50  1  0
 27 51  1  0
M  END
>  <smiles>  (51) 
O=C(NCC(=O)N1CCCCC1c1ccccc1)c1ccc2ccc(F)cc2n1

>  <score_type>  (51) 
oracle

>  <origin>  (51) 
autodockgpu

>  <m_score__min__energy>  (51) 
-8.9299999999999997

>  <m_primary>  (51) 
energy

>  <rmsd>  (51) 
8.246778215507463

>  <m_score__min__rmsd>  (51) 
8.246778215507463

>  <meeko>  (51) 
{"free_energy": -8.11, "intermolecular_energy": -9.6, "internal_energy": -1.97, "cluster_size": 19, "cluster_id": 1, "rank_in_cluster": 13}

>  <energy>  (51) 
-8.93

>  <cluster_rmsd>  (51) 
0.0

>  <cluster>  (51) 
1

$$$$

     RDKit          3D

 51 54  0  0  0  0  0  0  0  0999 V2000
  139.3870   71.1490  221.2270 O   0  0  0  0  0  0  0  0  0  0  0  0
  139.4580   71.8790  222.2620 C   0  0  0  0  0  0  0  0  0  0  0  0
  139.3060   73.2750  222.1980 N   0  0  0  0  0  0  0  0  0  0  0  0
  139.0590   73.9080  220.9150 C   0  0  0  0  0  0  0  0  0  0  0  0
  139.2350   75.3720  221.1100 C   0  0  0  0  0  0  0  0  0  0  0  0
  138.2720   76.1730  221.2370 O   0  0  0  0  0  0  0  0  0  0  0  0
  140.5520   75.9070  221.1570 N   0  0  0  0  0  0  0  0  0  0  0  0
  141.0350   76.6010  222.3360 C   0  0  0  0  0  0  0  0  0  0  0  0
  141.1010   78.0750  221.9410 C   0  0  0  0  0  0  0  0  0  0  0  0
  141.2200   78.2120  220.4420 C   0  0  0  0  0  0  0  0  0  0  0  0
  142.2080   77.1330  219.9840 C   0  0  0  0  0  0  0  0  0  0  0  0
  141.4720   75.7870  220.0410 C   0  0  1  0  0  0  0  0  0  0  0  0
  142.5400   74.7760  220.2830 C   0  0  0  0  0  0  0  0  0  0  0  0
  142.2300   73.4660  220.6280 C   0  0  0  0  0  0  0  0  0  0  0  0
  143.2310   72.5240  220.8530 C   0  0  0  0  0  0  0  0  0  0  0  0
  144.5640   72.8610  220.7410 C   0  0  0  0  0  0  0  0  0  0  0  0
  144.8830   74.1520  220.4010 C   0  0  0  0  0  0  0  0  0  0  0  0
  143.8860   75.0790  220.1800 C   0  0  0  0  0  0  0  0  0  0  0  0
  139.7090   71.2150  223.5560 C   0  0  0  0  0  0  0  0  0  0  0  0
  139.3770   69.9150  223.7680 C   0  0  0  0  0  0  0  0  0  0  0  0
  139.5840   69.2370  224.9490 C   0  0  0  0  0  0  0  0  0  0  0  0
  140.1710   69.9380  225.9830 C   0  0  0  0  0  0  0  0  0  0  0  0
  140.3850   69.2800  227.1660 C   0  0  0  0  0  0  0  0  0  0  0  0
  140.9660   69.9450  228.2170 C   0  0  0  0  0  0  0  0  0  0  0  0
  141.3220   71.2720  228.0480 C   0  0  0  0  0  0  0  0  0  0  0  0
  141.8930   71.8850  229.1140 F   0  0  0  0  0  0  0  0  0  0  0  0
  141.0970   71.9200  226.8420 C   0  0  0  0  0  0  0  0  0  0  0  0
  140.5140   71.2670  225.7760 C   0  0  0  0  0  0  0  0  0  0  0  0
  140.2860   71.8860  224.5870 N   0  0  0  0  0  0  0  0  0  0  0  0
  139.3730   73.8450  223.0890 H   0  0  0  0  0  0  0  0  0  0  0  0
  139.7758   73.5379  220.1672 H   0  0  0  0  0  0  0  0  0  0  0  0
  138.0454   73.6796  220.5538 H   0  0  0  0  0  0  0  0  0  0  0  0
  140.3410   76.4588  223.1775 H   0  0  0  0  0  0  0  0  0  0  0  0
  142.0144   76.2207  222.6618 H   0  0  0  0  0  0  0  0  0  0  0  0
  140.1860   78.5827  222.2801 H   0  0  0  0  0  0  0  0  0  0  0  0
  141.9832   78.5323  222.4128 H   0  0  0  0  0  0  0  0  0  0  0  0
  140.2401   78.0564  219.9671 H   0  0  0  0  0  0  0  0  0  0  0  0
  141.5690   79.2165  220.1606 H   0  0  0  0  0  0  0  0  0  0  0  0
  142.5390   77.3379  218.9552 H   0  0  0  0  0  0  0  0  0  0  0  0
  143.0971   77.1187  220.6315 H   0  0  0  0  0  0  0  0  0  0  0  0
  140.9063   75.5041  219.1410 H   0  0  0  0  0  0  0  0  0  0  0  0
  141.1756   73.1678  220.7251 H   0  0  0  0  0  0  0  0  0  0  0  0
  142.9541   71.4946  221.1244 H   0  0  0  0  0  0  0  0  0  0  0  0
  145.3514   72.1140  220.9197 H   0  0  0  0  0  0  0  0  0  0  0  0
  145.9379   74.4484  220.3044 H   0  0  0  0  0  0  0  0  0  0  0  0
  144.1740   76.1056  219.9096 H   0  0  0  0  0  0  0  0  0  0  0  0
  138.9098   69.3648  222.9379 H   0  0  0  0  0  0  0  0  0  0  0  0
  139.2939   68.1821  225.0632 H   0  0  0  0  0  0  0  0  0  0  0  0
  140.0928   68.2249  227.2727 H   0  0  0  0  0  0  0  0  0  0  0  0
  141.1451   69.4336  229.1743 H   0  0  0  0  0  0  0  0  0  0  0  0
  141.3892   72.9750  226.7338 H   0  0  0  0  0  0  0  0  0  0  0  0
  1  2  2  0
  2  3  1  0
  3  4  1  0
  4  5  1  0
  5  6  2  0
  5  7  1  0
  7  8  1  0
  8  9  1  0
  9 10  1  0
 10 11  1  0
 11 12  1  0
 12 13  1  0
 13 14  2  0
 14 15  1  0
 15 16  2  0
 16 17  1  0
 17 18  2  0
  2 19  1  0
 19 20  2  0
 20 21  1  0
 21 22  2  0
 22 23  1  0
 23 24  2  0
 24 25  1  0
 25 26  1  0
 25 27  2  0
 27 28  1  0
 28 29  2  0
 12  7  1  0
 18 13  1  0
 29 19  1  0
 28 22  1  0
  3 30  1  0
  4 31  1  0
  4 32  1  0
  8 33  1  0
  8 34  1  0
  9 35  1  0
  9 36  1  0
 10 37  1  0
 10 38  1  0
 11 39  1  0
 11 40  1  0
 12 41  1  6
 14 42  1  0
 15 43  1  0
 16 44  1  0
 17 45  1  0
 18 46  1  0
 20 47  1  0
 21 48  1  0
 23 49  1  0
 24 50  1  0
 27 51  1  0
M  END
>  <smiles>  (52) 
O=C(NCC(=O)N1CCCCC1c1ccccc1)c1ccc2ccc(F)cc2n1

>  <score_type>  (52) 
oracle

>  <origin>  (52) 
autodockgpu

>  <m_score__min__energy>  (52) 
-8.9299999999999997

>  <m_primary>  (52) 
energy

>  <rmsd>  (52) 
2.5209285679667306

>  <m_score__min__rmsd>  (52) 
2.5209285679667306

>  <meeko>  (52) 
{"free_energy": -8.31, "intermolecular_energy": -9.81, "internal_energy": -1.9, "cluster_size": 5, "cluster_id": 3, "rank_in_cluster": 2}

>  <energy>  (52) 
-8.93

>  <cluster_rmsd>  (52) 
0.03

>  <cluster>  (52) 
1

$$$$

     RDKit          3D

 51 54  0  0  0  0  0  0  0  0999 V2000
  141.2630   72.4060  221.4870 O   0  0  0  0  0  0  0  0  0  0  0  0
  140.3640   72.6690  222.3430 C   0  0  0  0  0  0  0  0  0  0  0  0
  139.6750   73.8940  222.3450 N   0  0  0  0  0  0  0  0  0  0  0  0
  139.9940   74.8920  221.3400 C   0  0  0  0  0  0  0  0  0  0  0  0
  139.6050   76.2130  221.9010 C   0  0  0  0  0  0  0  0  0  0  0  0
  138.8750   76.3460  222.9180 O   0  0  0  0  0  0  0  0  0  0  0  0
  140.0760   77.3960  221.2660 N   0  0  0  0  0  0  0  0  0  0  0  0
  139.1880   78.2180  220.4650 C   0  0  0  0  0  0  0  0  0  0  0  0
  139.6190   77.9930  219.0180 C   0  0  0  0  0  0  0  0  0  0  0  0
  141.0560   77.5290  218.9640 C   0  0  0  0  0  0  0  0  0  0  0  0
  141.8220   78.3690  219.9920 C   0  0  0  0  0  0  0  0  0  0  0  0
  141.4530   77.8380  221.3830 C   0  0  1  0  0  0  0  0  0  0  0  0
  141.6040   79.0090  222.2940 C   0  0  0  0  0  0  0  0  0  0  0  0
  142.8560   79.4290  222.7270 C   0  0  0  0  0  0  0  0  0  0  0  0
  142.9940   80.5240  223.5790 C   0  0  0  0  0  0  0  0  0  0  0  0
  141.8910   81.2260  224.0180 C   0  0  0  0  0  0  0  0  0  0  0  0
  140.6490   80.8210  223.5960 C   0  0  0  0  0  0  0  0  0  0  0  0
  140.5220   79.7360  222.7550 C   0  0  0  0  0  0  0  0  0  0  0  0
  140.0560   71.6390  223.3550 C   0  0  0  0  0  0  0  0  0  0  0  0
  139.0980   70.6980  223.1470 C   0  0  0  0  0  0  0  0  0  0  0  0
  138.7620   69.7110  224.0480 C   0  0  0  0  0  0  0  0  0  0  0  0
  139.4540   69.6860  225.2420 C   0  0  0  0  0  0  0  0  0  0  0  0
  139.1330   68.7120  226.1500 C   0  0  0  0  0  0  0  0  0  0  0  0
  139.8000   68.6560  227.3500 C   0  0  0  0  0  0  0  0  0  0  0  0
  140.7850   69.5950  227.6060 C   0  0  0  0  0  0  0  0  0  0  0  0
  141.4140   69.4980  228.8020 F   0  0  0  0  0  0  0  0  0  0  0  0
  141.0940   70.5730  226.6720 C   0  0  0  0  0  0  0  0  0  0  0  0
  140.4350   70.6440  225.4630 C   0  0  0  0  0  0  0  0  0  0  0  0
  140.7240   71.5960  224.5360 N   0  0  0  0  0  0  0  0  0  0  0  0
  138.9310   74.0690  223.0790 H   0  0  0  0  0  0  0  0  0  0  0  0
  141.0720   74.8770  221.1214 H   0  0  0  0  0  0  0  0  0  0  0  0
  139.4567   74.6902  220.4016 H   0  0  0  0  0  0  0  0  0  0  0  0
  138.1427   77.9066  220.6077 H   0  0  0  0  0  0  0  0  0  0  0  0
  139.2476   79.2792  220.7484 H   0  0  0  0  0  0  0  0  0  0  0  0
  138.9734   77.2279  218.5621 H   0  0  0  0  0  0  0  0  0  0  0  0
  139.5284   78.9405  218.4666 H   0  0  0  0  0  0  0  0  0  0  0  0
  141.1208   76.4614  219.2211 H   0  0  0  0  0  0  0  0  0  0  0  0
  141.4769   77.6528  217.9553 H   0  0  0  0  0  0  0  0  0  0  0  0
  142.9050   78.2701  219.8267 H   0  0  0  0  0  0  0  0  0  0  0  0
  141.5580   79.4328  219.8992 H   0  0  0  0  0  0  0  0  0  0  0  0
  142.0643   77.0057  221.7621 H   0  0  0  0  0  0  0  0  0  0  0  0
  143.7534   78.8883  222.3918 H   0  0  0  0  0  0  0  0  0  0  0  0
  143.9979   80.8327  223.9060 H   0  0  0  0  0  0  0  0  0  0  0  0
  142.0037   82.0895  224.6900 H   0  0  0  0  0  0  0  0  0  0  0  0
  139.7524   81.3639  223.9299 H   0  0  0  0  0  0  0  0  0  0  0  0
  139.5133   79.4347  222.4360 H   0  0  0  0  0  0  0  0  0  0  0  0
  138.5524   70.7261  222.1923 H   0  0  0  0  0  0  0  0  0  0  0  0
  137.9759   68.9745  223.8252 H   0  0  0  0  0  0  0  0  0  0  0  0
  138.3458   67.9789  225.9199 H   0  0  0  0  0  0  0  0  0  0  0  0
  139.5565   67.8813  228.0920 H   0  0  0  0  0  0  0  0  0  0  0  0
  141.8809   71.3069  226.9006 H   0  0  0  0  0  0  0  0  0  0  0  0
  1  2  2  0
  2  3  1  0
  3  4  1  0
  4  5  1  0
  5  6  2  0
  5  7  1  0
  7  8  1  0
  8  9  1  0
  9 10  1  0
 10 11  1  0
 11 12  1  0
 12 13  1  0
 13 14  2  0
 14 15  1  0
 15 16  2  0
 16 17  1  0
 17 18  2  0
  2 19  1  0
 19 20  2  0
 20 21  1  0
 21 22  2  0
 22 23  1  0
 23 24  2  0
 24 25  1  0
 25 26  1  0
 25 27  2  0
 27 28  1  0
 28 29  2  0
 12  7  1  0
 18 13  1  0
 29 19  1  0
 28 22  1  0
  3 30  1  0
  4 31  1  0
  4 32  1  0
  8 33  1  0
  8 34  1  0
  9 35  1  0
  9 36  1  0
 10 37  1  0
 10 38  1  0
 11 39  1  0
 11 40  1  0
 12 41  1  1
 14 42  1  0
 15 43  1  0
 16 44  1  0
 17 45  1  0
 18 46  1  0
 20 47  1  0
 21 48  1  0
 23 49  1  0
 24 50  1  0
 27 51  1  0
M  END
>  <smiles>  (53) 
O=C(NCC(=O)N1CCCCC1c1ccccc1)c1ccc2ccc(F)cc2n1

>  <score_type>  (53) 
oracle

>  <origin>  (53) 
autodockgpu

>  <m_score__min__energy>  (53) 
-8.9299999999999997

>  <m_primary>  (53) 
energy

>  <rmsd>  (53) 
2.3000585658083974

>  <m_score__min__rmsd>  (53) 
2.3000585658083974

>  <meeko>  (53) 
{"free_energy": -8.64, "intermolecular_energy": -10.13, "internal_energy": -1.68, "cluster_size": 26, "cluster_id": 2, "rank_in_cluster": 1}

>  <energy>  (53) 
-8.93

>  <cluster_rmsd>  (53) 
0.07

>  <cluster>  (53) 
1

$$$$

     RDKit          3D

 51 54  0  0  0  0  0  0  0  0999 V2000
  141.6470   72.0290  221.5880 O   0  0  0  0  0  0  0  0  0  0  0  0
  140.6780   72.2680  222.3710 C   0  0  0  0  0  0  0  0  0  0  0  0
  139.9800   73.4880  222.3390 N   0  0  0  0  0  0  0  0  0  0  0  0
  140.3730   74.5090  221.3850 C   0  0  0  0  0  0  0  0  0  0  0  0
  139.7010   75.7700  221.7960 C   0  0  0  0  0  0  0  0  0  0  0  0
  138.8330   75.8270  222.7060 O   0  0  0  0  0  0  0  0  0  0  0  0
  140.0470   76.9820  221.1340 N   0  0  0  0  0  0  0  0  0  0  0  0
  139.0340   77.7980  220.4920 C   0  0  0  0  0  0  0  0  0  0  0  0
  139.2590   77.6210  218.9920 C   0  0  0  0  0  0  0  0  0  0  0  0
  140.6840   77.2000  218.7220 C   0  0  0  0  0  0  0  0  0  0  0  0
  141.5690   78.0350  219.6540 C   0  0  0  0  0  0  0  0  0  0  0  0
  141.4150   77.4590  221.0680 C   0  0  1  0  0  0  0  0  0  0  0  0
  141.6670   78.6110  221.9810 C   0  0  0  0  0  0  0  0  0  0  0  0
  141.6210   78.4610  223.3610 C   0  0  0  0  0  0  0  0  0  0  0  0
  141.8570   79.5390  224.2120 C   0  0  0  0  0  0  0  0  0  0  0  0
  142.1440   80.7910  223.7090 C   0  0  0  0  0  0  0  0  0  0  0  0
  142.1920   80.9520  222.3470 C   0  0  0  0  0  0  0  0  0  0  0  0
  141.9560   79.8800  221.5130 C   0  0  0  0  0  0  0  0  0  0  0  0
  140.2950   71.2150  223.3320 C   0  0  0  0  0  0  0  0  0  0  0  0
  139.3510   70.2840  223.0330 C   0  0  0  0  0  0  0  0  0  0  0  0
  138.9480   69.2770  223.8840 C   0  0  0  0  0  0  0  0  0  0  0  0
  139.5530   69.2200  225.1220 C   0  0  0  0  0  0  0  0  0  0  0  0
  139.1660   68.2260  225.9820 C   0  0  0  0  0  0  0  0  0  0  0  0
  139.7460   68.1370  227.2240 C   0  0  0  0  0  0  0  0  0  0  0  0
  140.7120   69.0640  227.5730 C   0  0  0  0  0  0  0  0  0  0  0  0
  141.2550   68.9350  228.8080 F   0  0  0  0  0  0  0  0  0  0  0  0
  141.0910   70.0630  226.6870 C   0  0  0  0  0  0  0  0  0  0  0  0
  140.5190   70.1670  225.4360 C   0  0  0  0  0  0  0  0  0  0  0  0
  140.8770   71.1400  224.5570 N   0  0  0  0  0  0  0  0  0  0  0  0
  139.1760   73.6420  223.0120 H   0  0  0  0  0  0  0  0  0  0  0  0
  141.4650   74.6404  221.4008 H   0  0  0  0  0  0  0  0  0  0  0  0
  140.0820   74.2242  220.3631 H   0  0  0  0  0  0  0  0  0  0  0  0
  138.0278   77.4538  220.7732 H   0  0  0  0  0  0  0  0  0  0  0  0
  139.1075   78.8531  220.7943 H   0  0  0  0  0  0  0  0  0  0  0  0
  138.5742   76.8492  218.6109 H   0  0  0  0  0  0  0  0  0  0  0  0
  139.0667   78.5785  218.4858 H   0  0  0  0  0  0  0  0  0  0  0  0
  140.8108   76.1286  218.9367 H   0  0  0  0  0  0  0  0  0  0  0  0
  140.9533   77.3615  217.6678 H   0  0  0  0  0  0  0  0  0  0  0  0
  142.6193   77.9701  219.3336 H   0  0  0  0  0  0  0  0  0  0  0  0
  141.2696   79.0932  219.6302 H   0  0  0  0  0  0  0  0  0  0  0  0
  142.0933   76.6347  221.3334 H   0  0  0  0  0  0  0  0  0  0  0  0
  141.3943   77.4737  223.7898 H   0  0  0  0  0  0  0  0  0  0  0  0
  141.8138   79.3893  225.3009 H   0  0  0  0  0  0  0  0  0  0  0  0
  142.3299   81.6399  224.3834 H   0  0  0  0  0  0  0  0  0  0  0  0
  142.4195   81.9396  221.9194 H   0  0  0  0  0  0  0  0  0  0  0  0
  141.9995   80.0412  220.4258 H   0  0  0  0  0  0  0  0  0  0  0  0
  138.8752   70.3377  222.0427 H   0  0  0  0  0  0  0  0  0  0  0  0
  138.1770   68.5502  223.5883 H   0  0  0  0  0  0  0  0  0  0  0  0
  138.3945   67.5027  225.6793 H   0  0  0  0  0  0  0  0  0  0  0  0
  139.4485   67.3448  227.9268 H   0  0  0  0  0  0  0  0  0  0  0  0
  141.8630   70.7863  226.9884 H   0  0  0  0  0  0  0  0  0  0  0  0
  1  2  2  0
  2  3  1  0
  3  4  1  0
  4  5  1  0
  5  6  2  0
  5  7  1  0
  7  8  1  0
  8  9  1  0
  9 10  1  0
 10 11  1  0
 11 12  1  0
 12 13  1  0
 13 14  2  0
 14 15  1  0
 15 16  2  0
 16 17  1  0
 17 18  2  0
  2 19  1  0
 19 20  2  0
 20 21  1  0
 21 22  2  0
 22 23  1  0
 23 24  2  0
 24 25  1  0
 25 26  1  0
 25 27  2  0
 27 28  1  0
 28 29  2  0
 12  7  1  0
 18 13  1  0
 29 19  1  0
 28 22  1  0
  3 30  1  0
  4 31  1  0
  4 32  1  0
  8 33  1  0
  8 34  1  0
  9 35  1  0
  9 36  1  0
 10 37  1  0
 10 38  1  0
 11 39  1  0
 11 40  1  0
 12 41  1  1
 14 42  1  0
 15 43  1  0
 16 44  1  0
 17 45  1  0
 18 46  1  0
 20 47  1  0
 21 48  1  0
 23 49  1  0
 24 50  1  0
 27 51  1  0
M  END
>  <smiles>  (54) 
O=C(NCC(=O)N1CCCCC1c1ccccc1)c1ccc2ccc(F)cc2n1

>  <score_type>  (54) 
oracle

>  <origin>  (54) 
autodockgpu

>  <m_score__min__energy>  (54) 
-8.9299999999999997

>  <m_primary>  (54) 
energy

>  <rmsd>  (54) 
2.1704489376526084

>  <m_score__min__rmsd>  (54) 
2.1704489376526084

>  <meeko>  (54) 
{"free_energy": -8.49, "intermolecular_energy": -9.98, "internal_energy": -1.85, "cluster_size": 26, "cluster_id": 2, "rank_in_cluster": 18}

>  <energy>  (54) 
-8.92

>  <cluster_rmsd>  (54) 
0.09

>  <cluster>  (54) 
1

$$$$

     RDKit          3D

 51 54  0  0  0  0  0  0  0  0999 V2000
  137.3260   75.9620  222.4680 O   0  0  0  0  0  0  0  0  0  0  0  0
  138.5890   76.0720  222.4330 C   0  0  0  0  0  0  0  0  0  0  0  0
  139.4240   74.9730  222.1680 N   0  0  0  0  0  0  0  0  0  0  0  0
  138.8300   73.6700  221.9260 C   0  0  0  0  0  0  0  0  0  0  0  0
  139.8330   72.6520  222.3370 C   0  0  0  0  0  0  0  0  0  0  0  0
  141.0720   72.8710  222.3600 O   0  0  0  0  0  0  0  0  0  0  0  0
  139.3820   71.3600  222.7270 N   0  0  0  0  0  0  0  0  0  0  0  0
  139.6490   70.1960  221.9020 C   0  0  0  0  0  0  0  0  0  0  0  0
  138.3040   69.8160  221.2870 C   0  0  0  0  0  0  0  0  0  0  0  0
  137.1710   70.3430  222.1350 C   0  0  0  0  0  0  0  0  0  0  0  0
  137.5710   70.1000  223.5940 C   0  0  0  0  0  0  0  0  0  0  0  0
  138.6400   71.1400  223.9540 C   0  0  1  0  0  0  0  0  0  0  0  0
  139.4640   70.4930  225.0150 C   0  0  0  0  0  0  0  0  0  0  0  0
  139.4110   69.1230  225.2350 C   0  0  0  0  0  0  0  0  0  0  0  0
  140.1820   68.5210  226.2280 C   0  0  0  0  0  0  0  0  0  0  0  0
  141.0230   69.2690  227.0250 C   0  0  0  0  0  0  0  0  0  0  0  0
  141.0840   70.6250  226.8180 C   0  0  0  0  0  0  0  0  0  0  0  0
  140.3170   71.2110  225.8340 C   0  0  0  0  0  0  0  0  0  0  0  0
  139.1710   77.4060  222.6820 C   0  0  0  0  0  0  0  0  0  0  0  0
  138.3900   78.5080  222.8340 C   0  0  0  0  0  0  0  0  0  0  0  0
  138.8690   79.7790  223.0680 C   0  0  0  0  0  0  0  0  0  0  0  0
  140.2370   79.9310  223.1520 C   0  0  0  0  0  0  0  0  0  0  0  0
  140.7310   81.1880  223.3840 C   0  0  0  0  0  0  0  0  0  0  0  0
  142.0890   81.3790  223.4730 C   0  0  0  0  0  0  0  0  0  0  0  0
  142.9240   80.2840  223.3240 C   0  0  0  0  0  0  0  0  0  0  0  0
  144.2540   80.5230  223.4210 F   0  0  0  0  0  0  0  0  0  0  0  0
  142.4030   79.0200  223.0900 C   0  0  0  0  0  0  0  0  0  0  0  0
  141.0430   78.8100  222.9970 C   0  0  0  0  0  0  0  0  0  0  0  0
  140.5150   77.5790  222.7680 N   0  0  0  0  0  0  0  0  0  0  0  0
  140.4730   75.1120  222.1480 H   0  0  0  0  0  0  0  0  0  0  0  0
  137.9116   73.5571  222.5208 H   0  0  0  0  0  0  0  0  0  0  0  0
  138.5621   73.5515  220.8657 H   0  0  0  0  0  0  0  0  0  0  0  0
  140.3765   70.4416  221.1143 H   0  0  0  0  0  0  0  0  0  0  0  0
  140.0783   69.3699  222.4878 H   0  0  0  0  0  0  0  0  0  0  0  0
  138.2322   70.2469  220.2774 H   0  0  0  0  0  0  0  0  0  0  0  0
  138.2317   68.7196  221.2355 H   0  0  0  0  0  0  0  0  0  0  0  0
  137.0291   71.4187  221.9538 H   0  0  0  0  0  0  0  0  0  0  0  0
  136.2242   69.8383  221.8925 H   0  0  0  0  0  0  0  0  0  0  0  0
  136.6952   70.2183  224.2490 H   0  0  0  0  0  0  0  0  0  0  0  0
  137.9606   69.0798  223.7260 H   0  0  0  0  0  0  0  0  0  0  0  0
  138.2700   72.1070  224.3255 H   0  0  0  0  0  0  0  0  0  0  0  0
  138.7486   68.5016  224.6145 H   0  0  0  0  0  0  0  0  0  0  0  0
  140.1187   67.4331  226.3782 H   0  0  0  0  0  0  0  0  0  0  0  0
  141.6303   68.7908  227.8077 H   0  0  0  0  0  0  0  0  0  0  0  0
  141.7468   71.2454  227.4391 H   0  0  0  0  0  0  0  0  0  0  0  0
  140.3863   72.2998  225.6935 H   0  0  0  0  0  0  0  0  0  0  0  0
  137.3001   78.3763  222.7655 H   0  0  0  0  0  0  0  0  0  0  0  0
  138.1889   80.6359  223.1829 H   0  0  0  0  0  0  0  0  0  0  0  0
  140.0442   82.0396  223.4984 H   0  0  0  0  0  0  0  0  0  0  0  0
  142.5042   82.3806  223.6587 H   0  0  0  0  0  0  0  0  0  0  0  0
  143.0887   78.1674  222.9762 H   0  0  0  0  0  0  0  0  0  0  0  0
  1  2  2  0
  2  3  1  0
  3  4  1  0
  4  5  1  0
  5  6  2  0
  5  7  1  0
  7  8  1  0
  8  9  1  0
  9 10  1  0
 10 11  1  0
 11 12  1  0
 12 13  1  0
 13 14  2  0
 14 15  1  0
 15 16  2  0
 16 17  1  0
 17 18  2  0
  2 19  1  0
 19 20  2  0
 20 21  1  0
 21 22  2  0
 22 23  1  0
 23 24  2  0
 24 25  1  0
 25 26  1  0
 25 27  2  0
 27 28  1  0
 28 29  2  0
 12  7  1  0
 18 13  1  0
 29 19  1  0
 28 22  1  0
  3 30  1  0
  4 31  1  0
  4 32  1  0
  8 33  1  0
  8 34  1  0
  9 35  1  0
  9 36  1  0
 10 37  1  0
 10 38  1  0
 11 39  1  0
 11 40  1  0
 12 41  1  1
 14 42  1  0
 15 43  1  0
 16 44  1  0
 17 45  1  0
 18 46  1  0
 20 47  1  0
 21 48  1  0
 23 49  1  0
 24 50  1  0
 27 51  1  0
M  END
>  <smiles>  (55) 
O=C(NCC(=O)N1CCCCC1c1ccccc1)c1ccc2ccc(F)cc2n1

>  <score_type>  (55) 
oracle

>  <origin>  (55) 
autodockgpu

>  <m_score__min__energy>  (55) 
-8.9299999999999997

>  <m_primary>  (55) 
energy

>  <rmsd>  (55) 
8.241158711100029

>  <m_score__min__rmsd>  (55) 
8.241158711100029

>  <meeko>  (55) 
{"free_energy": -8.11, "intermolecular_energy": -9.6, "internal_energy": -2.01, "cluster_size": 19, "cluster_id": 1, "rank_in_cluster": 15}

>  <energy>  (55) 
-8.9

>  <cluster_rmsd>  (55) 
0.16

>  <cluster>  (55) 
1

$$$$

     RDKit          3D

 51 54  0  0  0  0  0  0  0  0999 V2000
  141.5710   72.1080  221.5770 O   0  0  0  0  0  0  0  0  0  0  0  0
  140.6150   72.3620  222.3720 C   0  0  0  0  0  0  0  0  0  0  0  0
  139.9310   73.5900  222.3440 N   0  0  0  0  0  0  0  0  0  0  0  0
  140.3230   74.6020  221.3790 C   0  0  0  0  0  0  0  0  0  0  0  0
  139.7160   75.8850  221.8240 C   0  0  0  0  0  0  0  0  0  0  0  0
  138.8940   75.9690  222.7730 O   0  0  0  0  0  0  0  0  0  0  0  0
  140.0750   77.0850  221.1510 N   0  0  0  0  0  0  0  0  0  0  0  0
  139.0730   77.8980  220.4860 C   0  0  0  0  0  0  0  0  0  0  0  0
  139.3150   77.7010  218.9920 C   0  0  0  0  0  0  0  0  0  0  0  0
  140.7410   77.2690  218.7430 C   0  0  0  0  0  0  0  0  0  0  0  0
  141.6190   78.1130  219.6740 C   0  0  0  0  0  0  0  0  0  0  0  0
  141.4470   77.5560  221.0940 C   0  0  1  0  0  0  0  0  0  0  0  0
  141.6940   78.7180  221.9940 C   0  0  0  0  0  0  0  0  0  0  0  0
  141.8820   79.9970  221.4870 C   0  0  0  0  0  0  0  0  0  0  0  0
  142.1130   81.0820  222.3320 C   0  0  0  0  0  0  0  0  0  0  0  0
  142.1610   80.9180  223.7000 C   0  0  0  0  0  0  0  0  0  0  0  0
  141.9760   79.6590  224.2140 C   0  0  0  0  0  0  0  0  0  0  0  0
  141.7490   78.5920  223.3700 C   0  0  0  0  0  0  0  0  0  0  0  0
  140.2340   71.3190  223.3440 C   0  0  0  0  0  0  0  0  0  0  0  0
  139.2660   70.4070  223.0700 C   0  0  0  0  0  0  0  0  0  0  0  0
  138.8630   69.4090  223.9310 C   0  0  0  0  0  0  0  0  0  0  0  0
  139.4960   69.3420  225.1560 C   0  0  0  0  0  0  0  0  0  0  0  0
  139.1080   68.3570  226.0260 C   0  0  0  0  0  0  0  0  0  0  0  0
  139.7150   68.2580  227.2540 C   0  0  0  0  0  0  0  0  0  0  0  0
  140.7080   69.1670  227.5790 C   0  0  0  0  0  0  0  0  0  0  0  0
  141.2770   69.0290  228.8010 F   0  0  0  0  0  0  0  0  0  0  0  0
  141.0860   70.1570  226.6830 C   0  0  0  0  0  0  0  0  0  0  0  0
  140.4870   70.2700  225.4450 C   0  0  0  0  0  0  0  0  0  0  0  0
  140.8440   71.2340  224.5550 N   0  0  0  0  0  0  0  0  0  0  0  0
  139.1390   73.7570  223.0270 H   0  0  0  0  0  0  0  0  0  0  0  0
  141.4189   74.6924  221.3503 H   0  0  0  0  0  0  0  0  0  0  0  0
  139.9800   74.3349  220.3686 H   0  0  0  0  0  0  0  0  0  0  0  0
  138.0619   77.5620  220.7594 H   0  0  0  0  0  0  0  0  0  0  0  0
  139.1479   78.9565  220.7757 H   0  0  0  0  0  0  0  0  0  0  0  0
  138.6304   76.9281  218.6126 H   0  0  0  0  0  0  0  0  0  0  0  0
  139.1343   78.6534  218.4722 H   0  0  0  0  0  0  0  0  0  0  0  0
  140.8602   76.2001  218.9735 H   0  0  0  0  0  0  0  0  0  0  0  0
  141.0230   77.4141  217.6897 H   0  0  0  0  0  0  0  0  0  0  0  0
  142.6725   78.0400  219.3662 H   0  0  0  0  0  0  0  0  0  0  0  0
  141.3240   79.1719  219.6330 H   0  0  0  0  0  0  0  0  0  0  0  0
  142.1188   76.7325  221.3778 H   0  0  0  0  0  0  0  0  0  0  0  0
  141.8481   80.1572  220.3993 H   0  0  0  0  0  0  0  0  0  0  0  0
  142.2591   82.0833  221.9007 H   0  0  0  0  0  0  0  0  0  0  0  0
  142.3433   81.7760  224.3638 H   0  0  0  0  0  0  0  0  0  0  0  0
  142.0089   79.5004  225.3020 H   0  0  0  0  0  0  0  0  0  0  0  0
  141.6051   77.5949  223.8118 H   0  0  0  0  0  0  0  0  0  0  0  0
  138.7680   70.4691  222.0912 H   0  0  0  0  0  0  0  0  0  0  0  0
  138.0716   68.6970  223.6541 H   0  0  0  0  0  0  0  0  0  0  0  0
  138.3148   67.6496  225.7424 H   0  0  0  0  0  0  0  0  0  0  0  0
  139.4185   67.4727  227.9649 H   0  0  0  0  0  0  0  0  0  0  0  0
  141.8787   70.8656  226.9652 H   0  0  0  0  0  0  0  0  0  0  0  0
  1  2  2  0
  2  3  1  0
  3  4  1  0
  4  5  1  0
  5  6  2  0
  5  7  1  0
  7  8  1  0
  8  9  1  0
  9 10  1  0
 10 11  1  0
 11 12  1  0
 12 13  1  0
 13 14  2  0
 14 15  1  0
 15 16  2  0
 16 17  1  0
 17 18  2  0
  2 19  1  0
 19 20  2  0
 20 21  1  0
 21 22  2  0
 22 23  1  0
 23 24  2  0
 24 25  1  0
 25 26  1  0
 25 27  2  0
 27 28  1  0
 28 29  2  0
 12  7  1  0
 18 13  1  0
 29 19  1  0
 28 22  1  0
  3 30  1  0
  4 31  1  0
  4 32  1  0
  8 33  1  0
  8 34  1  0
  9 35  1  0
  9 36  1  0
 10 37  1  0
 10 38  1  0
 11 39  1  0
 11 40  1  0
 12 41  1  1
 14 42  1  0
 15 43  1  0
 16 44  1  0
 17 45  1  0
 18 46  1  0
 20 47  1  0
 21 48  1  0
 23 49  1  0
 24 50  1  0
 27 51  1  0
M  END
>  <smiles>  (56) 
O=C(NCC(=O)N1CCCCC1c1ccccc1)c1ccc2ccc(F)cc2n1

>  <score_type>  (56) 
oracle

>  <origin>  (56) 
autodockgpu

>  <m_score__min__energy>  (56) 
-8.9299999999999997

>  <m_primary>  (56) 
energy

>  <rmsd>  (56) 
2.1976629766542106

>  <m_score__min__rmsd>  (56) 
2.1976629766542106

>  <meeko>  (56) 
{"free_energy": -8.51, "intermolecular_energy": -10.0, "internal_energy": -1.83, "cluster_size": 26, "cluster_id": 2, "rank_in_cluster": 9}

>  <energy>  (56) 
-8.85

>  <cluster_rmsd>  (56) 
0.21

>  <cluster>  (56) 
1

$$$$

     RDKit          3D

 51 54  0  0  0  0  0  0  0  0999 V2000
  141.1050   72.1880  221.3760 O   0  0  0  0  0  0  0  0  0  0  0  0
  140.2790   72.5080  222.2840 C   0  0  0  0  0  0  0  0  0  0  0  0
  139.6460   73.7630  222.3050 N   0  0  0  0  0  0  0  0  0  0  0  0
  139.9410   74.7270  221.2600 C   0  0  0  0  0  0  0  0  0  0  0  0
  139.5840   76.0690  221.7920 C   0  0  0  0  0  0  0  0  0  0  0  0
  138.8790   76.2390  222.8210 O   0  0  0  0  0  0  0  0  0  0  0  0
  140.0570   77.2260  221.1140 N   0  0  0  0  0  0  0  0  0  0  0  0
  139.1510   78.0750  220.3630 C   0  0  0  0  0  0  0  0  0  0  0  0
  139.4790   77.8200  218.8940 C   0  0  0  0  0  0  0  0  0  0  0  0
  140.8900   77.3000  218.7530 C   0  0  0  0  0  0  0  0  0  0  0  0
  141.7530   78.1190  219.7190 C   0  0  0  0  0  0  0  0  0  0  0  0
  141.4550   77.6150  221.1370 C   0  0  1  0  0  0  0  0  0  0  0  0
  141.7110   78.7870  222.0220 C   0  0  0  0  0  0  0  0  0  0  0  0
  141.8060   78.6440  223.4010 C   0  0  0  0  0  0  0  0  0  0  0  0
  142.0440   79.7420  224.2250 C   0  0  0  0  0  0  0  0  0  0  0  0
  142.1940   81.0070  223.6980 C   0  0  0  0  0  0  0  0  0  0  0  0
  142.1020   81.1620  222.3370 C   0  0  0  0  0  0  0  0  0  0  0  0
  141.8650   80.0700  221.5290 C   0  0  0  0  0  0  0  0  0  0  0  0
  139.9940   71.5120  223.3360 C   0  0  0  0  0  0  0  0  0  0  0  0
  139.0420   70.5560  223.1750 C   0  0  0  0  0  0  0  0  0  0  0  0
  138.7270   69.5990  224.1160 C   0  0  0  0  0  0  0  0  0  0  0  0
  139.4360   69.6230  225.3000 C   0  0  0  0  0  0  0  0  0  0  0  0
  139.1370   68.6790  226.2470 C   0  0  0  0  0  0  0  0  0  0  0  0
  139.8210   68.6720  227.4380 C   0  0  0  0  0  0  0  0  0  0  0  0
  140.8000   69.6280  227.6470 C   0  0  0  0  0  0  0  0  0  0  0  0
  141.4470   69.5800  228.8370 F   0  0  0  0  0  0  0  0  0  0  0  0
  141.0880   70.5750  226.6740 C   0  0  0  0  0  0  0  0  0  0  0  0
  140.4110   70.5970  225.4730 C   0  0  0  0  0  0  0  0  0  0  0  0
  140.6790   71.5170  224.5090 N   0  0  0  0  0  0  0  0  0  0  0  0
  138.9620   73.9850  223.0830 H   0  0  0  0  0  0  0  0  0  0  0  0
  141.0109   74.6936  221.0065 H   0  0  0  0  0  0  0  0  0  0  0  0
  139.3703   74.5025  220.3468 H   0  0  0  0  0  0  0  0  0  0  0  0
  138.1060   77.8059  220.5762 H   0  0  0  0  0  0  0  0  0  0  0  0
  139.2689   79.1356  220.6300 H   0  0  0  0  0  0  0  0  0  0  0  0
  138.7765   77.0766  218.4894 H   0  0  0  0  0  0  0  0  0  0  0  0
  139.3896   78.7654  218.3388 H   0  0  0  0  0  0  0  0  0  0  0  0
  140.9303   76.2332  219.0183 H   0  0  0  0  0  0  0  0  0  0  0  0
  141.2488   77.3978  217.7178 H   0  0  0  0  0  0  0  0  0  0  0  0
  142.8184   77.9765  219.4851 H   0  0  0  0  0  0  0  0  0  0  0  0
  141.5248   79.1915  219.6311 H   0  0  0  0  0  0  0  0  0  0  0  0
  142.0564   76.7626  221.4858 H   0  0  0  0  0  0  0  0  0  0  0  0
  141.6913   77.6463  223.8499 H   0  0  0  0  0  0  0  0  0  0  0  0
  142.1133   79.5972  225.3132 H   0  0  0  0  0  0  0  0  0  0  0  0
  142.3828   81.8711  224.3520 H   0  0  0  0  0  0  0  0  0  0  0  0
  142.2177   82.1603  221.8897 H   0  0  0  0  0  0  0  0  0  0  0  0
  141.7952   80.2265  220.4424 H   0  0  0  0  0  0  0  0  0  0  0  0
  138.4835   70.5449  222.2274 H   0  0  0  0  0  0  0  0  0  0  0  0
  137.9443   68.8485  223.9312 H   0  0  0  0  0  0  0  0  0  0  0  0
  138.3537   67.9311  226.0545 H   0  0  0  0  0  0  0  0  0  0  0  0
  139.5954   67.9218  228.2102 H   0  0  0  0  0  0  0  0  0  0  0  0
  141.8719   71.3228  226.8648 H   0  0  0  0  0  0  0  0  0  0  0  0
  1  2  2  0
  2  3  1  0
  3  4  1  0
  4  5  1  0
  5  6  2  0
  5  7  1  0
  7  8  1  0
  8  9  1  0
  9 10  1  0
 10 11  1  0
 11 12  1  0
 12 13  1  0
 13 14  2  0
 14 15  1  0
 15 16  2  0
 16 17  1  0
 17 18  2  0
  2 19  1  0
 19 20  2  0
 20 21  1  0
 21 22  2  0
 22 23  1  0
 23 24  2  0
 24 25  1  0
 25 26  1  0
 25 27  2  0
 27 28  1  0
 28 29  2  0
 12  7  1  0
 18 13  1  0
 29 19  1  0
 28 22  1  0
  3 30  1  0
  4 31  1  0
  4 32  1  0
  8 33  1  0
  8 34  1  0
  9 35  1  0
  9 36  1  0
 10 37  1  0
 10 38  1  0
 11 39  1  0
 11 40  1  0
 12 41  1  1
 14 42  1  0
 15 43  1  0
 16 44  1  0
 17 45  1  0
 18 46  1  0
 20 47  1  0
 21 48  1  0
 23 49  1  0
 24 50  1  0
 27 51  1  0
M  END
>  <smiles>  (57) 
O=C(NCC(=O)N1CCCCC1c1ccccc1)c1ccc2ccc(F)cc2n1

>  <score_type>  (57) 
oracle

>  <origin>  (57) 
autodockgpu

>  <m_score__min__energy>  (57) 
-8.9299999999999997

>  <m_primary>  (57) 
energy

>  <rmsd>  (57) 
2.1454839930748824

>  <m_score__min__rmsd>  (57) 
2.1454839930748824

>  <meeko>  (57) 
{"free_energy": -8.51, "intermolecular_energy": -10.0, "internal_energy": -1.81, "cluster_size": 26, "cluster_id": 2, "rank_in_cluster": 8}

>  <energy>  (57) 
-8.41

>  <cluster_rmsd>  (57) 
0.99

>  <cluster>  (57) 
1

$$$$

     RDKit          3D

 51 54  0  0  0  0  0  0  0  0999 V2000
  137.3410   75.9930  222.3430 O   0  0  0  0  0  0  0  0  0  0  0  0
  138.6050   76.0850  222.3900 C   0  0  0  0  0  0  0  0  0  0  0  0
  139.4390   74.9720  222.1880 N   0  0  0  0  0  0  0  0  0  0  0  0
  138.8440   73.6760  221.9170 C   0  0  0  0  0  0  0  0  0  0  0  0
  139.8320   72.6470  222.3380 C   0  0  0  0  0  0  0  0  0  0  0  0
  141.0730   72.8550  222.3780 O   0  0  0  0  0  0  0  0  0  0  0  0
  139.3640   71.3570  222.7150 N   0  0  0  0  0  0  0  0  0  0  0  0
  139.6020   70.2000  221.8730 C   0  0  0  0  0  0  0  0  0  0  0  0
  138.2440   69.8510  221.2680 C   0  0  0  0  0  0  0  0  0  0  0  0
  137.1290   70.3850  222.1360 C   0  0  0  0  0  0  0  0  0  0  0  0
  137.5430   70.1160  223.5870 C   0  0  0  0  0  0  0  0  0  0  0  0
  138.6330   71.1340  223.9490 C   0  0  1  0  0  0  0  0  0  0  0  0
  139.4580   70.4590  224.9910 C   0  0  0  0  0  0  0  0  0  0  0  0
  139.3730   69.0890  225.2040 C   0  0  0  0  0  0  0  0  0  0  0  0
  140.1450   68.4620  226.1800 C   0  0  0  0  0  0  0  0  0  0  0  0
  141.0200   69.1830  226.9660 C   0  0  0  0  0  0  0  0  0  0  0  0
  141.1120   70.5380  226.7650 C   0  0  0  0  0  0  0  0  0  0  0  0
  140.3440   71.1500  225.7980 C   0  0  0  0  0  0  0  0  0  0  0  0
  139.1880   77.4130  222.6670 C   0  0  0  0  0  0  0  0  0  0  0  0
  138.4090   78.5090  222.8560 C   0  0  0  0  0  0  0  0  0  0  0  0
  138.8880   79.7750  223.1180 C   0  0  0  0  0  0  0  0  0  0  0  0
  140.2580   79.9260  223.1900 C   0  0  0  0  0  0  0  0  0  0  0  0
  140.7530   81.1770  223.4500 C   0  0  0  0  0  0  0  0  0  0  0  0
  142.1110   81.3660  223.5300 C   0  0  0  0  0  0  0  0  0  0  0  0
  142.9460   80.2770  223.3430 C   0  0  0  0  0  0  0  0  0  0  0  0
  144.2770   80.5140  223.4320 F   0  0  0  0  0  0  0  0  0  0  0  0
  142.4230   79.0190  223.0820 C   0  0  0  0  0  0  0  0  0  0  0  0
  141.0630   78.8100  222.9990 C   0  0  0  0  0  0  0  0  0  0  0  0
  140.5330   77.5850  222.7430 N   0  0  0  0  0  0  0  0  0  0  0  0
  140.4900   75.0970  222.2360 H   0  0  0  0  0  0  0  0  0  0  0  0
  137.9118   73.5612  222.4896 H   0  0  0  0  0  0  0  0  0  0  0  0
  138.5996   73.5719  220.8496 H   0  0  0  0  0  0  0  0  0  0  0  0
  140.3251   70.4432  221.0805 H   0  0  0  0  0  0  0  0  0  0  0  0
  140.0234   69.3592  222.4435 H   0  0  0  0  0  0  0  0  0  0  0  0
  138.1683   70.2970  220.2653 H   0  0  0  0  0  0  0  0  0  0  0  0
  138.1528   68.7568  221.2023 H   0  0  0  0  0  0  0  0  0  0  0  0
  137.0022   71.4651  221.9706 H   0  0  0  0  0  0  0  0  0  0  0  0
  136.1712   69.8992  221.8982 H   0  0  0  0  0  0  0  0  0  0  0  0
  136.6771   70.2390  224.2541 H   0  0  0  0  0  0  0  0  0  0  0  0
  137.9183   69.0882  223.6998 H   0  0  0  0  0  0  0  0  0  0  0  0
  138.2842   72.1019  224.3382 H   0  0  0  0  0  0  0  0  0  0  0  0
  138.6843   68.4886  224.5915 H   0  0  0  0  0  0  0  0  0  0  0  0
  140.0554   67.3754  226.3260 H   0  0  0  0  0  0  0  0  0  0  0  0
  141.6289   68.6846  227.7347 H   0  0  0  0  0  0  0  0  0  0  0  0
  141.8012   71.1374  227.3780 H   0  0  0  0  0  0  0  0  0  0  0  0
  140.4399   72.2373  225.6617 H   0  0  0  0  0  0  0  0  0  0  0  0
  137.3185   78.3775  222.7958 H   0  0  0  0  0  0  0  0  0  0  0  0
  138.2081   80.6274  223.2633 H   0  0  0  0  0  0  0  0  0  0  0  0
  140.0669   82.0247  223.5938 H   0  0  0  0  0  0  0  0  0  0  0  0
  142.5272   82.3626  223.7385 H   0  0  0  0  0  0  0  0  0  0  0  0
  143.1079   78.1704  222.9382 H   0  0  0  0  0  0  0  0  0  0  0  0
  1  2  2  0
  2  3  1  0
  3  4  1  0
  4  5  1  0
  5  6  2  0
  5  7  1  0
  7  8  1  0
  8  9  1  0
  9 10  1  0
 10 11  1  0
 11 12  1  0
 12 13  1  0
 13 14  2  0
 14 15  1  0
 15 16  2  0
 16 17  1  0
 17 18  2  0
  2 19  1  0
 19 20  2  0
 20 21  1  0
 21 22  2  0
 22 23  1  0
 23 24  2  0
 24 25  1  0
 25 26  1  0
 25 27  2  0
 27 28  1  0
 28 29  2  0
 12  7  1  0
 18 13  1  0
 29 19  1  0
 28 22  1  0
  3 30  1  0
  4 31  1  0
  4 32  1  0
  8 33  1  0
  8 34  1  0
  9 35  1  0
  9 36  1  0
 10 37  1  0
 10 38  1  0
 11 39  1  0
 11 40  1  0
 12 41  1  1
 14 42  1  0
 15 43  1  0
 16 44  1  0
 17 45  1  0
 18 46  1  0
 20 47  1  0
 21 48  1  0
 23 49  1  0
 24 50  1  0
 27 51  1  0
M  END
>  <smiles>  (58) 
O=C(NCC(=O)N1CCCCC1c1ccccc1)c1ccc2ccc(F)cc2n1

>  <score_type>  (58) 
oracle

>  <origin>  (58) 
autodockgpu

>  <m_score__min__energy>  (58) 
-8.9299999999999997

>  <m_primary>  (58) 
energy

>  <rmsd>  (58) 
8.233198952380079

>  <m_score__min__rmsd>  (58) 
8.233198952380079

>  <meeko>  (58) 
{"free_energy": -8.11, "intermolecular_energy": -9.6, "internal_energy": -2.02, "cluster_size": 19, "cluster_id": 1, "rank_in_cluster": 12}

>  <energy>  (58) 
-8.36

>  <cluster_rmsd>  (58) 
1.24

>  <cluster>  (58) 
1

$$$$

     RDKit          3D

 51 54  0  0  0  0  0  0  0  0999 V2000
  140.8820   74.3980  221.3320 O   0  0  0  0  0  0  0  0  0  0  0  0
  139.8580   74.8510  221.9290 C   0  0  0  0  0  0  0  0  0  0  0  0
  138.7370   74.0460  222.1970 N   0  0  0  0  0  0  0  0  0  0  0  0
  138.7440   72.6550  221.7830 C   0  0  0  0  0  0  0  0  0  0  0  0
  138.1030   71.8730  222.8730 C   0  0  0  0  0  0  0  0  0  0  0  0
  137.0130   72.2010  223.4110 O   0  0  0  0  0  0  0  0  0  0  0  0
  138.7440   70.6920  223.3420 N   0  0  0  0  0  0  0  0  0  0  0  0
  139.8530   70.1050  222.6140 C   0  0  0  0  0  0  0  0  0  0  0  0
  139.2980   68.8290  221.9860 C   0  0  0  0  0  0  0  0  0  0  0  0
  138.0930   68.3450  222.7590 C   0  0  0  0  0  0  0  0  0  0  0  0
  138.4300   68.5220  224.2430 C   0  0  0  0  0  0  0  0  0  0  0  0
  138.3280   70.0210  224.5590 C   0  0  1  0  0  0  0  0  0  0  0  0
  139.2750   70.2400  225.6890 C   0  0  0  0  0  0  0  0  0  0  0  0
  139.3230   69.3690  226.7710 C   0  0  0  0  0  0  0  0  0  0  0  0
  140.2090   69.5780  227.8260 C   0  0  0  0  0  0  0  0  0  0  0  0
  141.0680   70.6570  227.8290 C   0  0  0  0  0  0  0  0  0  0  0  0
  141.0300   71.5250  226.7670 C   0  0  0  0  0  0  0  0  0  0  0  0
  140.1490   71.3120  225.7280 C   0  0  0  0  0  0  0  0  0  0  0  0
  139.8730   76.2680  222.3410 C   0  0  0  0  0  0  0  0  0  0  0  0
  138.7280   76.9900  222.4570 C   0  0  0  0  0  0  0  0  0  0  0  0
  138.6730   78.3140  222.8370 C   0  0  0  0  0  0  0  0  0  0  0  0
  139.8710   78.9400  223.1160 C   0  0  0  0  0  0  0  0  0  0  0  0
  139.8350   80.2560  223.4950 C   0  0  0  0  0  0  0  0  0  0  0  0
  141.0080   80.9120  223.7800 C   0  0  0  0  0  0  0  0  0  0  0  0
  142.2000   80.2170  223.6750 C   0  0  0  0  0  0  0  0  0  0  0  0
  143.3290   80.9070  223.9670 F   0  0  0  0  0  0  0  0  0  0  0  0
  142.2140   78.8840  223.2900 C   0  0  0  0  0  0  0  0  0  0  0  0
  141.0460   78.2090  223.0000 C   0  0  0  0  0  0  0  0  0  0  0  0
  141.0400   76.9040  222.6200 N   0  0  0  0  0  0  0  0  0  0  0  0
  137.9050   74.4670  222.6990 H   0  0  0  0  0  0  0  0  0  0  0  0
  138.1759   72.5362  220.8486 H   0  0  0  0  0  0  0  0  0  0  0  0
  139.7709   72.3051  221.6009 H   0  0  0  0  0  0  0  0  0  0  0  0
  140.2088   70.7942  221.8340 H   0  0  0  0  0  0  0  0  0  0  0  0
  140.7093   69.8971  223.2724 H   0  0  0  0  0  0  0  0  0  0  0  0
  139.0035   69.0347  220.9463 H   0  0  0  0  0  0  0  0  0  0  0  0
  140.0751   68.0508  222.0107 H   0  0  0  0  0  0  0  0  0  0  0  0
  137.2076   68.9425  222.4963 H   0  0  0  0  0  0  0  0  0  0  0  0
  137.8651   67.2947  222.5248 H   0  0  0  0  0  0  0  0  0  0  0  0
  137.7161   67.9577  224.8610 H   0  0  0  0  0  0  0  0  0  0  0  0
  139.4407   68.1462  224.4602 H   0  0  0  0  0  0  0  0  0  0  0  0
  137.3328   70.3903  224.8476 H   0  0  0  0  0  0  0  0  0  0  0  0
  138.6498   68.4994  226.7949 H   0  0  0  0  0  0  0  0  0  0  0  0
  140.2235   68.8717  228.6692 H   0  0  0  0  0  0  0  0  0  0  0  0
  141.7670   70.8179  228.6630 H   0  0  0  0  0  0  0  0  0  0  0  0
  141.7046   72.3936  226.7445 H   0  0  0  0  0  0  0  0  0  0  0  0
  140.1406   72.0269  224.8920 H   0  0  0  0  0  0  0  0  0  0  0  0
  137.7783   76.4826  222.2319 H   0  0  0  0  0  0  0  0  0  0  0  0
  137.7149   78.8489  222.9146 H   0  0  0  0  0  0  0  0  0  0  0  0
  138.8730   80.7841  223.5706 H   0  0  0  0  0  0  0  0  0  0  0  0
  140.9998   81.9687  224.0856 H   0  0  0  0  0  0  0  0  0  0  0  0
  143.1754   78.3548  223.2144 H   0  0  0  0  0  0  0  0  0  0  0  0
  1  2  2  0
  2  3  1  0
  3  4  1  0
  4  5  1  0
  5  6  2  0
  5  7  1  0
  7  8  1  0
  8  9  1  0
  9 10  1  0
 10 11  1  0
 11 12  1  0
 12 13  1  0
 13 14  2  0
 14 15  1  0
 15 16  2  0
 16 17  1  0
 17 18  2  0
  2 19  1  0
 19 20  2  0
 20 21  1  0
 21 22  2  0
 22 23  1  0
 23 24  2  0
 24 25  1  0
 25 26  1  0
 25 27  2  0
 27 28  1  0
 28 29  2  0
 12  7  1  0
 18 13  1  0
 29 19  1  0
 28 22  1  0
  3 30  1  0
  4 31  1  0
  4 32  1  0
  8 33  1  0
  8 34  1  0
  9 35  1  0
  9 36  1  0
 10 37  1  0
 10 38  1  0
 11 39  1  0
 11 40  1  0
 12 41  1  1
 14 42  1  0
 15 43  1  0
 16 44  1  0
 17 45  1  0
 18 46  1  0
 20 47  1  0
 21 48  1  0
 23 49  1  0
 24 50  1  0
 27 51  1  0
M  END
>  <smiles>  (59) 
O=C(NCC(=O)N1CCCCC1c1ccccc1)c1ccc2ccc(F)cc2n1

>  <score_type>  (59) 
oracle

>  <origin>  (59) 
autodockgpu

>  <m_score__min__energy>  (59) 
-8.9299999999999997

>  <m_primary>  (59) 
energy

>  <rmsd>  (59) 
8.150043729052094

>  <m_score__min__rmsd>  (59) 
8.150043729052094

>  <meeko>  (59) 
{"free_energy": -8.41, "intermolecular_energy": -9.9, "internal_energy": -1.58, "cluster_size": 19, "cluster_id": 1, "rank_in_cluster": 7}

>  <energy>  (59) 
-8.34

>  <cluster_rmsd>  (59) 
1.1

>  <cluster>  (59) 
1

$$$$

     RDKit          3D

 51 54  0  0  0  0  0  0  0  0999 V2000
  141.5790   71.9250  221.5910 O   0  0  0  0  0  0  0  0  0  0  0  0
  140.6360   72.1930  222.3970 C   0  0  0  0  0  0  0  0  0  0  0  0
  139.9460   73.4170  222.3520 N   0  0  0  0  0  0  0  0  0  0  0  0
  140.3150   74.4070  221.3570 C   0  0  0  0  0  0  0  0  0  0  0  0
  139.6940   75.6930  221.7710 C   0  0  0  0  0  0  0  0  0  0  0  0
  138.8180   75.7800  222.6710 O   0  0  0  0  0  0  0  0  0  0  0  0
  140.1010   76.8940  221.1260 N   0  0  0  0  0  0  0  0  0  0  0  0
  139.1910   77.6250  220.2640 C   0  0  0  0  0  0  0  0  0  0  0  0
  139.7060   77.4000  218.8440 C   0  0  0  0  0  0  0  0  0  0  0  0
  141.1750   77.0480  218.8680 C   0  0  0  0  0  0  0  0  0  0  0  0
  141.8250   77.9700  219.9050 C   0  0  0  0  0  0  0  0  0  0  0  0
  141.4340   77.4440  221.2930 C   0  0  1  0  0  0  0  0  0  0  0  0
  141.4520   78.6450  222.1770 C   0  0  0  0  0  0  0  0  0  0  0  0
  142.5870   79.4380  222.2940 C   0  0  0  0  0  0  0  0  0  0  0  0
  142.6010   80.5590  223.1220 C   0  0  0  0  0  0  0  0  0  0  0  0
  141.4870   80.9170  223.8520 C   0  0  0  0  0  0  0  0  0  0  0  0
  140.3600   80.1410  223.7450 C   0  0  0  0  0  0  0  0  0  0  0  0
  140.3550   79.0330  222.9250 C   0  0  0  0  0  0  0  0  0  0  0  0
  140.2770   71.1720  223.4000 C   0  0  0  0  0  0  0  0  0  0  0  0
  139.3230   70.2360  223.1560 C   0  0  0  0  0  0  0  0  0  0  0  0
  138.9420   69.2560  224.0480 C   0  0  0  0  0  0  0  0  0  0  0  0
  139.5810   69.2350  225.2710 C   0  0  0  0  0  0  0  0  0  0  0  0
  139.2150   68.2680  226.1700 C   0  0  0  0  0  0  0  0  0  0  0  0
  139.8280   68.2150  227.3980 C   0  0  0  0  0  0  0  0  0  0  0  0
  140.8070   69.1500  227.6920 C   0  0  0  0  0  0  0  0  0  0  0  0
  141.3830   69.0560  228.9150 F   0  0  0  0  0  0  0  0  0  0  0  0
  141.1630   70.1200  226.7660 C   0  0  0  0  0  0  0  0  0  0  0  0
  140.5580   70.1880  225.5290 C   0  0  0  0  0  0  0  0  0  0  0  0
  140.8930   71.1320  224.6100 N   0  0  0  0  0  0  0  0  0  0  0  0
  139.1650   73.5970  223.0450 H   0  0  0  0  0  0  0  0  0  0  0  0
  141.4092   74.5119  221.3163 H   0  0  0  0  0  0  0  0  0  0  0  0
  139.9669   74.1072  220.3575 H   0  0  0  0  0  0  0  0  0  0  0  0
  138.1672   77.2363  220.3679 H   0  0  0  0  0  0  0  0  0  0  0  0
  139.1552   78.6940  220.5209 H   0  0  0  0  0  0  0  0  0  0  0  0
  139.1432   76.5765  218.3802 H   0  0  0  0  0  0  0  0  0  0  0  0
  139.5692   78.3242  218.2634 H   0  0  0  0  0  0  0  0  0  0  0  0
  141.3091   75.9954  219.1579 H   0  0  0  0  0  0  0  0  0  0  0  0
  141.6323   77.1791  217.8762 H   0  0  0  0  0  0  0  0  0  0  0  0
  142.9189   77.9530  219.7905 H   0  0  0  0  0  0  0  0  0  0  0  0
  141.4840   79.0073  219.7716 H   0  0  0  0  0  0  0  0  0  0  0  0
  142.0888   76.6710  221.7217 H   0  0  0  0  0  0  0  0  0  0  0  0
  143.4902   79.1765  221.7232 H   0  0  0  0  0  0  0  0  0  0  0  0
  143.5145   81.1675  223.1944 H   0  0  0  0  0  0  0  0  0  0  0  0
  141.5014   81.8028  224.5041 H   0  0  0  0  0  0  0  0  0  0  0  0
  139.4573   80.4043  224.3158 H   0  0  0  0  0  0  0  0  0  0  0  0
  139.4371   78.4300  222.8626 H   0  0  0  0  0  0  0  0  0  0  0  0
  138.8193   70.2618  222.1785 H   0  0  0  0  0  0  0  0  0  0  0  0
  138.1622   68.5224  223.7956 H   0  0  0  0  0  0  0  0  0  0  0  0
  138.4344   67.5380  225.9097 H   0  0  0  0  0  0  0  0  0  0  0  0
  139.5474   67.4460  228.1328 H   0  0  0  0  0  0  0  0  0  0  0  0
  141.9443   70.8500  227.0242 H   0  0  0  0  0  0  0  0  0  0  0  0
  1  2  2  0
  2  3  1  0
  3  4  1  0
  4  5  1  0
  5  6  2  0
  5  7  1  0
  7  8  1  0
  8  9  1  0
  9 10  1  0
 10 11  1  0
 11 12  1  0
 12 13  1  0
 13 14  2  0
 14 15  1  0
 15 16  2  0
 16 17  1  0
 17 18  2  0
  2 19  1  0
 19 20  2  0
 20 21  1  0
 21 22  2  0
 22 23  1  0
 23 24  2  0
 24 25  1  0
 25 26  1  0
 25 27  2  0
 27 28  1  0
 28 29  2  0
 12  7  1  0
 18 13  1  0
 29 19  1  0
 28 22  1  0
  3 30  1  0
  4 31  1  0
  4 32  1  0
  8 33  1  0
  8 34  1  0
  9 35  1  0
  9 36  1  0
 10 37  1  0
 10 38  1  0
 11 39  1  0
 11 40  1  0
 12 41  1  1
 14 42  1  0
 15 43  1  0
 16 44  1  0
 17 45  1  0
 18 46  1  0
 20 47  1  0
 21 48  1  0
 23 49  1  0
 24 50  1  0
 27 51  1  0
M  END
>  <smiles>  (60) 
O=C(NCC(=O)N1CCCCC1c1ccccc1)c1ccc2ccc(F)cc2n1

>  <score_type>  (60) 
oracle

>  <origin>  (60) 
autodockgpu

>  <m_score__min__energy>  (60) 
-8.9299999999999997

>  <m_primary>  (60) 
energy

>  <rmsd>  (60) 
2.0864647691240004

>  <m_score__min__rmsd>  (60) 
2.0864647691240004

>  <meeko>  (60) 
{"free_energy": -8.5, "intermolecular_energy": -9.99, "internal_energy": -1.79, "cluster_size": 26, "cluster_id": 2, "rank_in_cluster": 14}

>  <energy>  (60) 
-8.34

>  <cluster_rmsd>  (60) 
1.27

>  <cluster>  (60) 
1

$$$$

     RDKit          3D

 51 54  0  0  0  0  0  0  0  0999 V2000
  140.8730   72.1070  221.3900 O   0  0  0  0  0  0  0  0  0  0  0  0
  140.0160   72.3390  222.2970 C   0  0  0  0  0  0  0  0  0  0  0  0
  139.1950   73.4790  222.2700 N   0  0  0  0  0  0  0  0  0  0  0  0
  139.3240   74.4250  221.1750 C   0  0  0  0  0  0  0  0  0  0  0  0
  140.2540   75.4920  221.6300 C   0  0  0  0  0  0  0  0  0  0  0  0
  141.4450   75.2730  221.9720 O   0  0  0  0  0  0  0  0  0  0  0  0
  139.7850   76.8350  221.6860 N   0  0  0  0  0  0  0  0  0  0  0  0
  138.5770   77.1740  222.4150 C   0  0  0  0  0  0  0  0  0  0  0  0
  137.5340   77.4930  221.3470 C   0  0  0  0  0  0  0  0  0  0  0  0
  138.2080   77.9030  220.0590 C   0  0  0  0  0  0  0  0  0  0  0  0
  139.3750   78.8160  220.4520 C   0  0  0  0  0  0  0  0  0  0  0  0
  140.4820   77.9220  221.0260 C   0  0  1  0  0  0  0  0  0  0  0  0
  141.2230   78.7950  221.9810 C   0  0  0  0  0  0  0  0  0  0  0  0
  141.7630   80.0100  221.5800 C   0  0  0  0  0  0  0  0  0  0  0  0
  142.4550   80.8230  222.4760 C   0  0  0  0  0  0  0  0  0  0  0  0
  142.6250   80.4460  223.7920 C   0  0  0  0  0  0  0  0  0  0  0  0
  142.0960   79.2470  224.2010 C   0  0  0  0  0  0  0  0  0  0  0  0
  141.4140   78.4490  223.3070 C   0  0  0  0  0  0  0  0  0  0  0  0
  139.9020   71.3640  223.3990 C   0  0  0  0  0  0  0  0  0  0  0  0
  139.0870   70.2800  223.3130 C   0  0  0  0  0  0  0  0  0  0  0  0
  138.9350   69.3340  224.3040 C   0  0  0  0  0  0  0  0  0  0  0  0
  139.6670   69.5110  225.4600 C   0  0  0  0  0  0  0  0  0  0  0  0
  139.5280   68.5810  226.4570 C   0  0  0  0  0  0  0  0  0  0  0  0
  140.2400   68.7240  227.6230 C   0  0  0  0  0  0  0  0  0  0  0  0
  141.0830   69.8140  227.7570 C   0  0  0  0  0  0  0  0  0  0  0  0
  141.7640   69.9110  228.9240 F   0  0  0  0  0  0  0  0  0  0  0  0
  141.2090   70.7440  226.7350 C   0  0  0  0  0  0  0  0  0  0  0  0
  140.5020   70.6170  225.5580 C   0  0  0  0  0  0  0  0  0  0  0  0
  140.6130   71.5180  224.5470 N   0  0  0  0  0  0  0  0  0  0  0  0
  138.4930   73.6310  223.0490 H   0  0  0  0  0  0  0  0  0  0  0  0
  139.7327   73.9212  220.2866 H   0  0  0  0  0  0  0  0  0  0  0  0
  138.3452   74.8469  220.9032 H   0  0  0  0  0  0  0  0  0  0  0  0
  138.2487   76.3244  223.0318 H   0  0  0  0  0  0  0  0  0  0  0  0
  138.7358   78.0220  223.0974 H   0  0  0  0  0  0  0  0  0  0  0  0
  136.9168   76.6008  221.1651 H   0  0  0  0  0  0  0  0  0  0  0  0
  136.9040   78.3227  221.7000 H   0  0  0  0  0  0  0  0  0  0  0  0
  138.5817   77.0161  219.5262 H   0  0  0  0  0  0  0  0  0  0  0  0
  137.5056   78.4202  219.3888 H   0  0  0  0  0  0  0  0  0  0  0  0
  139.7465   79.3536  219.5672 H   0  0  0  0  0  0  0  0  0  0  0  0
  139.0529   79.5613  221.1942 H   0  0  0  0  0  0  0  0  0  0  0  0
  141.1921   77.5004  220.2994 H   0  0  0  0  0  0  0  0  0  0  0  0
  141.6424   80.3366  220.5365 H   0  0  0  0  0  0  0  0  0  0  0  0
  142.8719   81.7798  222.1285 H   0  0  0  0  0  0  0  0  0  0  0  0
  143.1712   81.0904  224.4966 H   0  0  0  0  0  0  0  0  0  0  0  0
  142.2166   78.9220  225.2450 H   0  0  0  0  0  0  0  0  0  0  0  0
  141.0029   77.4934  223.6644 H   0  0  0  0  0  0  0  0  0  0  0  0
  138.5077   70.1481  222.3872 H   0  0  0  0  0  0  0  0  0  0  0  0
  138.2593   68.4751  224.1786 H   0  0  0  0  0  0  0  0  0  0  0  0
  138.8501   67.7249  226.3243 H   0  0  0  0  0  0  0  0  0  0  0  0
  140.1423   67.9872  228.4340 H   0  0  0  0  0  0  0  0  0  0  0  0
  141.8869   71.6003  226.8665 H   0  0  0  0  0  0  0  0  0  0  0  0
  1  2  2  0
  2  3  1  0
  3  4  1  0
  4  5  1  0
  5  6  2  0
  5  7  1  0
  7  8  1  0
  8  9  1  0
  9 10  1  0
 10 11  1  0
 11 12  1  0
 12 13  1  0
 13 14  2  0
 14 15  1  0
 15 16  2  0
 16 17  1  0
 17 18  2  0
  2 19  1  0
 19 20  2  0
 20 21  1  0
 21 22  2  0
 22 23  1  0
 23 24  2  0
 24 25  1  0
 25 26  1  0
 25 27  2  0
 27 28  1  0
 28 29  2  0
 12  7  1  0
 18 13  1  0
 29 19  1  0
 28 22  1  0
  3 30  1  0
  4 31  1  0
  4 32  1  0
  8 33  1  0
  8 34  1  0
  9 35  1  0
  9 36  1  0
 10 37  1  0
 10 38  1  0
 11 39  1  0
 11 40  1  0
 12 41  1  6
 14 42  1  0
 15 43  1  0
 16 44  1  0
 17 45  1  0
 18 46  1  0
 20 47  1  0
 21 48  1  0
 23 49  1  0
 24 50  1  0
 27 51  1  0
M  END
>  <smiles>  (61) 
O=C(NCC(=O)N1CCCCC1c1ccccc1)c1ccc2ccc(F)cc2n1

>  <score_type>  (61) 
oracle

>  <origin>  (61) 
autodockgpu

>  <m_score__min__energy>  (61) 
-8.9299999999999997

>  <m_primary>  (61) 
energy

>  <rmsd>  (61) 
2.5586085317430047

>  <m_score__min__rmsd>  (61) 
2.5586085317430047

>  <meeko>  (61) 
{"free_energy": -8.62, "intermolecular_energy": -10.11, "internal_energy": -1.3, "cluster_size": 26, "cluster_id": 2, "rank_in_cluster": 2}

>  <energy>  (61) 
-8.12

>  <cluster_rmsd>  (61) 
1.21

>  <cluster>  (61) 
1

$$$$

     RDKit          3D

 51 54  0  0  0  0  0  0  0  0999 V2000
  137.3530   76.0340  222.3400 O   0  0  0  0  0  0  0  0  0  0  0  0
  138.6180   76.1140  222.4010 C   0  0  0  0  0  0  0  0  0  0  0  0
  139.4440   74.9910  222.2180 N   0  0  0  0  0  0  0  0  0  0  0  0
  138.8390   73.6990  221.9500 C   0  0  0  0  0  0  0  0  0  0  0  0
  139.8360   72.6640  222.3350 C   0  0  0  0  0  0  0  0  0  0  0  0
  141.0780   72.8700  222.3450 O   0  0  0  0  0  0  0  0  0  0  0  0
  139.3750   71.3720  222.7140 N   0  0  0  0  0  0  0  0  0  0  0  0
  139.6410   70.2120  221.8840 C   0  0  0  0  0  0  0  0  0  0  0  0
  138.2980   69.8440  221.2570 C   0  0  0  0  0  0  0  0  0  0  0  0
  137.1620   70.3720  222.1010 C   0  0  0  0  0  0  0  0  0  0  0  0
  137.5510   70.1170  223.5620 C   0  0  0  0  0  0  0  0  0  0  0  0
  138.6240   71.1500  223.9350 C   0  0  1  0  0  0  0  0  0  0  0  0
  139.4370   70.4920  224.9980 C   0  0  0  0  0  0  0  0  0  0  0  0
  139.3250   69.1310  225.2530 C   0  0  0  0  0  0  0  0  0  0  0  0
  140.0870   68.5190  226.2470 C   0  0  0  0  0  0  0  0  0  0  0  0
  140.9760   69.2460  227.0100 C   0  0  0  0  0  0  0  0  0  0  0  0
  141.0950   70.5920  226.7670 C   0  0  0  0  0  0  0  0  0  0  0  0
  140.3370   71.1890  225.7820 C   0  0  0  0  0  0  0  0  0  0  0  0
  139.2110   77.4380  222.6740 C   0  0  0  0  0  0  0  0  0  0  0  0
  138.4390   78.5370  222.8810 C   0  0  0  0  0  0  0  0  0  0  0  0
  138.9280   79.7990  223.1410 C   0  0  0  0  0  0  0  0  0  0  0  0
  140.2990   79.9450  223.1920 C   0  0  0  0  0  0  0  0  0  0  0  0
  140.8030   81.1930  223.4480 C   0  0  0  0  0  0  0  0  0  0  0  0
  142.1630   81.3770  223.5070 C   0  0  0  0  0  0  0  0  0  0  0  0
  142.9900   80.2850  223.3010 C   0  0  0  0  0  0  0  0  0  0  0  0
  144.3240   80.5170  223.3690 F   0  0  0  0  0  0  0  0  0  0  0  0
  142.4590   79.0300  223.0430 C   0  0  0  0  0  0  0  0  0  0  0  0
  141.0960   78.8270  222.9810 C   0  0  0  0  0  0  0  0  0  0  0  0
  140.5580   77.6050  222.7290 N   0  0  0  0  0  0  0  0  0  0  0  0
  140.4950   75.1060  222.2770 H   0  0  0  0  0  0  0  0  0  0  0  0
  137.9219   73.5803  222.5457 H   0  0  0  0  0  0  0  0  0  0  0  0
  138.5661   73.6058  220.8885 H   0  0  0  0  0  0  0  0  0  0  0  0
  140.3756   70.4581  221.1031 H   0  0  0  0  0  0  0  0  0  0  0  0
  140.0613   69.3797  222.4676 H   0  0  0  0  0  0  0  0  0  0  0  0
  138.2357   70.2821  220.2499 H   0  0  0  0  0  0  0  0  0  0  0  0
  138.2197   68.7484  221.1974 H   0  0  0  0  0  0  0  0  0  0  0  0
  137.0274   71.4496  221.9260 H   0  0  0  0  0  0  0  0  0  0  0  0
  136.2140   69.8743  221.8488 H   0  0  0  0  0  0  0  0  0  0  0  0
  136.6716   70.2360  224.2121 H   0  0  0  0  0  0  0  0  0  0  0  0
  137.9337   69.0938  223.6905 H   0  0  0  0  0  0  0  0  0  0  0  0
  138.2575   72.1173  224.3093 H   0  0  0  0  0  0  0  0  0  0  0  0
  138.6230   68.5259  224.6604 H   0  0  0  0  0  0  0  0  0  0  0  0
  139.9773   67.4391  226.4254 H   0  0  0  0  0  0  0  0  0  0  0  0
  141.5750   68.7597  227.7940 H   0  0  0  0  0  0  0  0  0  0  0  0
  141.7974   71.1961  227.3601 H   0  0  0  0  0  0  0  0  0  0  0  0
  140.4539   72.2695  225.6123 H   0  0  0  0  0  0  0  0  0  0  0  0
  137.3471   78.4105  222.8380 H   0  0  0  0  0  0  0  0  0  0  0  0
  138.2540   80.6534  223.3011 H   0  0  0  0  0  0  0  0  0  0  0  0
  140.1225   82.0428  223.6054 H   0  0  0  0  0  0  0  0  0  0  0  0
  142.5866   82.3709  223.7136 H   0  0  0  0  0  0  0  0  0  0  0  0
  143.1384   78.1795  222.8846 H   0  0  0  0  0  0  0  0  0  0  0  0
  1  2  2  0
  2  3  1  0
  3  4  1  0
  4  5  1  0
  5  6  2  0
  5  7  1  0
  7  8  1  0
  8  9  1  0
  9 10  1  0
 10 11  1  0
 11 12  1  0
 12 13  1  0
 13 14  2  0
 14 15  1  0
 15 16  2  0
 16 17  1  0
 17 18  2  0
  2 19  1  0
 19 20  2  0
 20 21  1  0
 21 22  2  0
 22 23  1  0
 23 24  2  0
 24 25  1  0
 25 26  1  0
 25 27  2  0
 27 28  1  0
 28 29  2  0
 12  7  1  0
 18 13  1  0
 29 19  1  0
 28 22  1  0
  3 30  1  0
  4 31  1  0
  4 32  1  0
  8 33  1  0
  8 34  1  0
  9 35  1  0
  9 36  1  0
 10 37  1  0
 10 38  1  0
 11 39  1  0
 11 40  1  0
 12 41  1  1
 14 42  1  0
 15 43  1  0
 16 44  1  0
 17 45  1  0
 18 46  1  0
 20 47  1  0
 21 48  1  0
 23 49  1  0
 24 50  1  0
 27 51  1  0
M  END
>  <smiles>  (62) 
O=C(NCC(=O)N1CCCCC1c1ccccc1)c1ccc2ccc(F)cc2n1

>  <score_type>  (62) 
oracle

>  <origin>  (62) 
autodockgpu

>  <m_score__min__energy>  (62) 
-8.9299999999999997

>  <m_primary>  (62) 
energy

>  <rmsd>  (62) 
8.242018349946418

>  <m_score__min__rmsd>  (62) 
8.242018349946418

>  <meeko>  (62) 
{"free_energy": -8.11, "intermolecular_energy": -9.6, "internal_energy": -2.03, "cluster_size": 19, "cluster_id": 1, "rank_in_cluster": 14}

>  <energy>  (62) 
-8.11

>  <cluster_rmsd>  (62) 
1.33

>  <cluster>  (62) 
1

$$$$

     RDKit          3D

 51 54  0  0  0  0  0  0  0  0999 V2000
  141.4420   72.3810  221.6880 O   0  0  0  0  0  0  0  0  0  0  0  0
  140.4260   72.5390  222.4300 C   0  0  0  0  0  0  0  0  0  0  0  0
  139.6190   73.6880  222.3510 N   0  0  0  0  0  0  0  0  0  0  0  0
  139.9510   74.7270  221.3930 C   0  0  0  0  0  0  0  0  0  0  0  0
  139.2530   75.9640  221.8340 C   0  0  0  0  0  0  0  0  0  0  0  0
  138.3540   75.9750  222.7150 O   0  0  0  0  0  0  0  0  0  0  0  0
  139.6120   77.2060  221.2390 N   0  0  0  0  0  0  0  0  0  0  0  0
  138.5970   78.1670  220.8480 C   0  0  0  0  0  0  0  0  0  0  0  0
  138.5710   78.1320  219.3210 C   0  0  0  0  0  0  0  0  0  0  0  0
  139.8880   77.6240  218.7850 C   0  0  0  0  0  0  0  0  0  0  0  0
  140.9840   78.2800  219.6320 C   0  0  0  0  0  0  0  0  0  0  0  0
  140.9940   77.5720  220.9940 C   0  0  1  0  0  0  0  0  0  0  0  0
  141.4960   78.5960  221.9550 C   0  0  0  0  0  0  0  0  0  0  0  0
  142.0630   79.7850  221.5130 C   0  0  0  0  0  0  0  0  0  0  0  0
  142.5310   80.7390  222.4140 C   0  0  0  0  0  0  0  0  0  0  0  0
  142.4460   80.5330  223.7750 C   0  0  0  0  0  0  0  0  0  0  0  0
  141.8880   79.3620  224.2240 C   0  0  0  0  0  0  0  0  0  0  0  0
  141.4290   78.4230  223.3260 C   0  0  0  0  0  0  0  0  0  0  0  0
  140.1060   71.4700  223.3960 C   0  0  0  0  0  0  0  0  0  0  0  0
  139.1660   70.5260  223.1310 C   0  0  0  0  0  0  0  0  0  0  0  0
  138.8210   69.5020  223.9870 C   0  0  0  0  0  0  0  0  0  0  0  0
  139.4840   69.4430  225.1960 C   0  0  0  0  0  0  0  0  0  0  0  0
  139.1540   68.4320  226.0610 C   0  0  0  0  0  0  0  0  0  0  0  0
  139.7930   68.3410  227.2730 C   0  0  0  0  0  0  0  0  0  0  0  0
  140.7590   69.2820  227.5880 C   0  0  0  0  0  0  0  0  0  0  0  0
  141.3600   69.1490  228.7950 F   0  0  0  0  0  0  0  0  0  0  0  0
  141.0780   70.2970  226.6970 C   0  0  0  0  0  0  0  0  0  0  0  0
  140.4470   70.4040  225.4760 C   0  0  0  0  0  0  0  0  0  0  0  0
  140.7460   71.3920  224.5910 N   0  0  0  0  0  0  0  0  0  0  0  0
  138.7790   73.7760  222.9910 H   0  0  0  0  0  0  0  0  0  0  0  0
  141.0384   74.8922  221.3766 H   0  0  0  0  0  0  0  0  0  0  0  0
  139.6379   74.4400  220.3783 H   0  0  0  0  0  0  0  0  0  0  0  0
  137.6170   77.8790  221.2562 H   0  0  0  0  0  0  0  0  0  0  0  0
  138.8190   79.1743  221.2301 H   0  0  0  0  0  0  0  0  0  0  0  0
  137.7622   77.4654  218.9872 H   0  0  0  0  0  0  0  0  0  0  0  0
  138.4004   79.1508  218.9430 H   0  0  0  0  0  0  0  0  0  0  0  0
  139.9395   76.5292  218.8785 H   0  0  0  0  0  0  0  0  0  0  0  0
  140.0064   77.8717  217.7198 H   0  0  0  0  0  0  0  0  0  0  0  0
  141.9607   78.1630  219.1398 H   0  0  0  0  0  0  0  0  0  0  0  0
  140.7902   79.3559  219.7539 H   0  0  0  0  0  0  0  0  0  0  0  0
  141.6205   76.6709  221.0684 H   0  0  0  0  0  0  0  0  0  0  0  0
  142.1438   79.9764  220.4328 H   0  0  0  0  0  0  0  0  0  0  0  0
  142.9751   81.6709  222.0340 H   0  0  0  0  0  0  0  0  0  0  0  0
  142.8163   81.2886  224.4834 H   0  0  0  0  0  0  0  0  0  0  0  0
  141.8070   79.1725  225.3045 H   0  0  0  0  0  0  0  0  0  0  0  0
  140.9893   77.4936  223.7170 H   0  0  0  0  0  0  0  0  0  0  0  0
  138.6430   70.5826  222.1649 H   0  0  0  0  0  0  0  0  0  0  0  0
  138.0508   68.7641  223.7181 H   0  0  0  0  0  0  0  0  0  0  0  0
  138.3821   67.6982  225.7859 H   0  0  0  0  0  0  0  0  0  0  0  0
  139.5425   67.5363  227.9799 H   0  0  0  0  0  0  0  0  0  0  0  0
  141.8501   71.0311  226.9706 H   0  0  0  0  0  0  0  0  0  0  0  0
  1  2  2  0
  2  3  1  0
  3  4  1  0
  4  5  1  0
  5  6  2  0
  5  7  1  0
  7  8  1  0
  8  9  1  0
  9 10  1  0
 10 11  1  0
 11 12  1  0
 12 13  1  0
 13 14  2  0
 14 15  1  0
 15 16  2  0
 16 17  1  0
 17 18  2  0
  2 19  1  0
 19 20  2  0
 20 21  1  0
 21 22  2  0
 22 23  1  0
 23 24  2  0
 24 25  1  0
 25 26  1  0
 25 27  2  0
 27 28  1  0
 28 29  2  0
 12  7  1  0
 18 13  1  0
 29 19  1  0
 28 22  1  0
  3 30  1  0
  4 31  1  0
  4 32  1  0
  8 33  1  0
  8 34  1  0
  9 35  1  0
  9 36  1  0
 10 37  1  0
 10 38  1  0
 11 39  1  0
 11 40  1  0
 12 41  1  6
 14 42  1  0
 15 43  1  0
 16 44  1  0
 17 45  1  0
 18 46  1  0
 20 47  1  0
 21 48  1  0
 23 49  1  0
 24 50  1  0
 27 51  1  0
M  END
>  <smiles>  (63) 
O=C(NCC(=O)N1CCCCC1c1ccccc1)c1ccc2ccc(F)cc2n1

>  <score_type>  (63) 
oracle

>  <origin>  (63) 
autodockgpu

>  <m_score__min__energy>  (63) 
-8.9299999999999997

>  <m_primary>  (63) 
energy

>  <rmsd>  (63) 
2.3220014117840178

>  <m_score__min__rmsd>  (63) 
2.3220014117840178

>  <meeko>  (63) 
{"free_energy": -8.44, "intermolecular_energy": -9.93, "internal_energy": -1.82, "cluster_size": 26, "cluster_id": 2, "rank_in_cluster": 21}

>  <energy>  (63) 
-8.11

>  <cluster_rmsd>  (63) 
1.21

>  <cluster>  (63) 
1

$$$$

     RDKit          3D

 51 54  0  0  0  0  0  0  0  0999 V2000
  141.2750   72.1030  221.4590 O   0  0  0  0  0  0  0  0  0  0  0  0
  140.3930   72.3780  222.3290 C   0  0  0  0  0  0  0  0  0  0  0  0
  139.7150   73.6090  222.3370 N   0  0  0  0  0  0  0  0  0  0  0  0
  140.0270   74.6010  221.3230 C   0  0  0  0  0  0  0  0  0  0  0  0
  139.6680   75.9290  221.8880 C   0  0  0  0  0  0  0  0  0  0  0  0
  139.0320   76.0740  222.9650 O   0  0  0  0  0  0  0  0  0  0  0  0
  140.0570   77.1030  221.1850 N   0  0  0  0  0  0  0  0  0  0  0  0
  139.0790   77.9120  220.4830 C   0  0  0  0  0  0  0  0  0  0  0  0
  139.3390   77.6680  218.9980 C   0  0  0  0  0  0  0  0  0  0  0  0
  140.7600   77.2050  218.7830 C   0  0  0  0  0  0  0  0  0  0  0  0
  141.6390   78.0610  219.7020 C   0  0  0  0  0  0  0  0  0  0  0  0
  141.4370   77.5490  221.1350 C   0  0  1  0  0  0  0  0  0  0  0  0
  141.6910   78.7320  222.0050 C   0  0  0  0  0  0  0  0  0  0  0  0
  141.7740   78.6080  223.3860 C   0  0  0  0  0  0  0  0  0  0  0  0
  142.0120   79.7170  224.1970 C   0  0  0  0  0  0  0  0  0  0  0  0
  142.1720   80.9740  223.6520 C   0  0  0  0  0  0  0  0  0  0  0  0
  142.0920   81.1090  222.2880 C   0  0  0  0  0  0  0  0  0  0  0  0
  141.8560   80.0070  221.4940 C   0  0  0  0  0  0  0  0  0  0  0  0
  140.0920   71.3550  223.3500 C   0  0  0  0  0  0  0  0  0  0  0  0
  139.1630   70.3870  223.1390 C   0  0  0  0  0  0  0  0  0  0  0  0
  138.8350   69.4050  224.0490 C   0  0  0  0  0  0  0  0  0  0  0  0
  139.5050   69.4160  225.2550 C   0  0  0  0  0  0  0  0  0  0  0  0
  139.1930   68.4470  226.1720 C   0  0  0  0  0  0  0  0  0  0  0  0
  139.8380   68.4250  227.3840 C   0  0  0  0  0  0  0  0  0  0  0  0
  140.7940   69.3930  227.6450 C   0  0  0  0  0  0  0  0  0  0  0  0
  141.4040   69.3300  228.8530 F   0  0  0  0  0  0  0  0  0  0  0  0
  141.0960   70.3650  226.7020 C   0  0  0  0  0  0  0  0  0  0  0  0
  140.4570   70.4010  225.4800 C   0  0  0  0  0  0  0  0  0  0  0  0
  140.7400   71.3470  224.5440 N   0  0  0  0  0  0  0  0  0  0  0  0
  138.9860   73.7940  223.0830 H   0  0  0  0  0  0  0  0  0  0  0  0
  141.0999   74.5705  221.0823 H   0  0  0  0  0  0  0  0  0  0  0  0
  139.4673   74.4045  220.3967 H   0  0  0  0  0  0  0  0  0  0  0  0
  138.0586   77.6005  220.7510 H   0  0  0  0  0  0  0  0  0  0  0  0
  139.1674   78.9771  220.7435 H   0  0  0  0  0  0  0  0  0  0  0  0
  138.6466   76.8963  218.6305 H   0  0  0  0  0  0  0  0  0  0  0  0
  139.1824   78.6080  218.4486 H   0  0  0  0  0  0  0  0  0  0  0  0
  140.8573   76.1414  219.0463 H   0  0  0  0  0  0  0  0  0  0  0  0
  141.0596   77.3143  217.7302 H   0  0  0  0  0  0  0  0  0  0  0  0
  142.6954   77.9612  219.4122 H   0  0  0  0  0  0  0  0  0  0  0  0
  141.3630   79.1231  219.6258 H   0  0  0  0  0  0  0  0  0  0  0  0
  142.0906   76.7232  221.4525 H   0  0  0  0  0  0  0  0  0  0  0  0
  141.6498   77.6175  223.8480 H   0  0  0  0  0  0  0  0  0  0  0  0
  142.0731   79.5876  225.2877 H   0  0  0  0  0  0  0  0  0  0  0  0
  142.3591   81.8470  224.2945 H   0  0  0  0  0  0  0  0  0  0  0  0
  142.2166   82.1000  221.8271 H   0  0  0  0  0  0  0  0  0  0  0  0
  141.7962   80.1479  220.4047 H   0  0  0  0  0  0  0  0  0  0  0  0
  138.6351   70.3866  222.1739 H   0  0  0  0  0  0  0  0  0  0  0  0
  138.0721   68.6454  223.8234 H   0  0  0  0  0  0  0  0  0  0  0  0
  138.4295   67.6903  225.9384 H   0  0  0  0  0  0  0  0  0  0  0  0
  139.6005   67.6546  228.1323 H   0  0  0  0  0  0  0  0  0  0  0  0
  141.8600   71.1218  226.9334 H   0  0  0  0  0  0  0  0  0  0  0  0
  1  2  2  0
  2  3  1  0
  3  4  1  0
  4  5  1  0
  5  6  2  0
  5  7  1  0
  7  8  1  0
  8  9  1  0
  9 10  1  0
 10 11  1  0
 11 12  1  0
 12 13  1  0
 13 14  2  0
 14 15  1  0
 15 16  2  0
 16 17  1  0
 17 18  2  0
  2 19  1  0
 19 20  2  0
 20 21  1  0
 21 22  2  0
 22 23  1  0
 23 24  2  0
 24 25  1  0
 25 26  1  0
 25 27  2  0
 27 28  1  0
 28 29  2  0
 12  7  1  0
 18 13  1  0
 29 19  1  0
 28 22  1  0
  3 30  1  0
  4 31  1  0
  4 32  1  0
  8 33  1  0
  8 34  1  0
  9 35  1  0
  9 36  1  0
 10 37  1  0
 10 38  1  0
 11 39  1  0
 11 40  1  0
 12 41  1  1
 14 42  1  0
 15 43  1  0
 16 44  1  0
 17 45  1  0
 18 46  1  0
 20 47  1  0
 21 48  1  0
 23 49  1  0
 24 50  1  0
 27 51  1  0
M  END
>  <smiles>  (64) 
O=C(NCC(=O)N1CCCCC1c1ccccc1)c1ccc2ccc(F)cc2n1

>  <score_type>  (64) 
oracle

>  <origin>  (64) 
autodockgpu

>  <m_score__min__energy>  (64) 
-8.9299999999999997

>  <m_primary>  (64) 
energy

>  <rmsd>  (64) 
2.114736358007533

>  <m_score__min__rmsd>  (64) 
2.114736358007533

>  <meeko>  (64) 
{"free_energy": -8.51, "intermolecular_energy": -10.01, "internal_energy": -1.8, "cluster_size": 26, "cluster_id": 2, "rank_in_cluster": 6}

>  <energy>  (64) 
-8.11

>  <cluster_rmsd>  (64) 
1.34

>  <cluster>  (64) 
1

$$$$

     RDKit          3D

 51 54  0  0  0  0  0  0  0  0999 V2000
  137.3350   76.0260  222.3530 O   0  0  0  0  0  0  0  0  0  0  0  0
  138.6000   76.1120  222.4120 C   0  0  0  0  0  0  0  0  0  0  0  0
  139.4310   74.9930  222.2290 N   0  0  0  0  0  0  0  0  0  0  0  0
  138.8320   73.6970  221.9630 C   0  0  0  0  0  0  0  0  0  0  0  0
  139.8320   72.6680  222.3530 C   0  0  0  0  0  0  0  0  0  0  0  0
  141.0730   72.8810  222.3730 O   0  0  0  0  0  0  0  0  0  0  0  0
  139.3770   71.3710  222.7230 N   0  0  0  0  0  0  0  0  0  0  0  0
  139.6510   70.2170  221.8880 C   0  0  0  0  0  0  0  0  0  0  0  0
  138.3120   69.8450  221.2550 C   0  0  0  0  0  0  0  0  0  0  0  0
  137.1710   70.3630  222.0990 C   0  0  0  0  0  0  0  0  0  0  0  0
  137.5580   70.1030  223.5590 C   0  0  0  0  0  0  0  0  0  0  0  0
  138.6240   71.1380  223.9410 C   0  0  1  0  0  0  0  0  0  0  0  0
  139.4370   70.4790  225.0020 C   0  0  0  0  0  0  0  0  0  0  0  0
  139.3280   69.1170  225.2530 C   0  0  0  0  0  0  0  0  0  0  0  0
  140.0900   68.5030  226.2470 C   0  0  0  0  0  0  0  0  0  0  0  0
  140.9770   69.2300  227.0120 C   0  0  0  0  0  0  0  0  0  0  0  0
  141.0940   70.5770  226.7730 C   0  0  0  0  0  0  0  0  0  0  0  0
  140.3360   71.1760  225.7890 C   0  0  0  0  0  0  0  0  0  0  0  0
  139.1860   77.4390  222.6830 C   0  0  0  0  0  0  0  0  0  0  0  0
  138.4100   78.5370  222.8760 C   0  0  0  0  0  0  0  0  0  0  0  0
  138.8930   79.8020  223.1340 C   0  0  0  0  0  0  0  0  0  0  0  0
  140.2630   79.9520  223.1970 C   0  0  0  0  0  0  0  0  0  0  0  0
  140.7620   81.2020  223.4510 C   0  0  0  0  0  0  0  0  0  0  0  0
  142.1210   81.3900  223.5210 C   0  0  0  0  0  0  0  0  0  0  0  0
  142.9530   80.3000  223.3310 C   0  0  0  0  0  0  0  0  0  0  0  0
  144.2850   80.5350  223.4100 F   0  0  0  0  0  0  0  0  0  0  0  0
  142.4270   79.0410  223.0750 C   0  0  0  0  0  0  0  0  0  0  0  0
  141.0650   78.8350  223.0010 C   0  0  0  0  0  0  0  0  0  0  0  0
  140.5320   77.6090  222.7500 N   0  0  0  0  0  0  0  0  0  0  0  0
  140.4810   75.1130  222.2870 H   0  0  0  0  0  0  0  0  0  0  0  0
  137.9140   73.5760  222.5569 H   0  0  0  0  0  0  0  0  0  0  0  0
  138.5621   73.5997  220.9011 H   0  0  0  0  0  0  0  0  0  0  0  0
  140.3866   70.4709  221.1105 H   0  0  0  0  0  0  0  0  0  0  0  0
  140.0736   69.3839  222.4688 H   0  0  0  0  0  0  0  0  0  0  0  0
  138.2502   70.2880  220.2500 H   0  0  0  0  0  0  0  0  0  0  0  0
  138.2395   68.7494  221.1890 H   0  0  0  0  0  0  0  0  0  0  0  0
  137.0311   71.4407  221.9289 H   0  0  0  0  0  0  0  0  0  0  0  0
  136.2262   69.8616  221.8422 H   0  0  0  0  0  0  0  0  0  0  0  0
  136.6764   70.2141  224.2074 H   0  0  0  0  0  0  0  0  0  0  0  0
  137.9462   69.0812  223.6824 H   0  0  0  0  0  0  0  0  0  0  0  0
  138.2517   72.1011  224.3203 H   0  0  0  0  0  0  0  0  0  0  0  0
  138.6285   68.5121  224.6574 H   0  0  0  0  0  0  0  0  0  0  0  0
  139.9815   67.4226  226.4231 H   0  0  0  0  0  0  0  0  0  0  0  0
  141.5766   68.7427  227.7950 H   0  0  0  0  0  0  0  0  0  0  0  0
  141.7948   71.1805  227.3685 H   0  0  0  0  0  0  0  0  0  0  0  0
  140.4515   72.2572  225.6224 H   0  0  0  0  0  0  0  0  0  0  0  0
  137.3190   78.4076  222.8227 H   0  0  0  0  0  0  0  0  0  0  0  0
  138.2151   80.6554  223.2833 H   0  0  0  0  0  0  0  0  0  0  0  0
  140.0781   82.0509  223.5982 H   0  0  0  0  0  0  0  0  0  0  0  0
  142.5397   82.3867  223.7240 H   0  0  0  0  0  0  0  0  0  0  0  0
  143.1097   78.1910  222.9283 H   0  0  0  0  0  0  0  0  0  0  0  0
  1  2  2  0
  2  3  1  0
  3  4  1  0
  4  5  1  0
  5  6  2  0
  5  7  1  0
  7  8  1  0
  8  9  1  0
  9 10  1  0
 10 11  1  0
 11 12  1  0
 12 13  1  0
 13 14  2  0
 14 15  1  0
 15 16  2  0
 16 17  1  0
 17 18  2  0
  2 19  1  0
 19 20  2  0
 20 21  1  0
 21 22  2  0
 22 23  1  0
 23 24  2  0
 24 25  1  0
 25 26  1  0
 25 27  2  0
 27 28  1  0
 28 29  2  0
 12  7  1  0
 18 13  1  0
 29 19  1  0
 28 22  1  0
  3 30  1  0
  4 31  1  0
  4 32  1  0
  8 33  1  0
  8 34  1  0
  9 35  1  0
  9 36  1  0
 10 37  1  0
 10 38  1  0
 11 39  1  0
 11 40  1  0
 12 41  1  1
 14 42  1  0
 15 43  1  0
 16 44  1  0
 17 45  1  0
 18 46  1  0
 20 47  1  0
 21 48  1  0
 23 49  1  0
 24 50  1  0
 27 51  1  0
M  END
>  <smiles>  (65) 
O=C(NCC(=O)N1CCCCC1c1ccccc1)c1ccc2ccc(F)cc2n1

>  <score_type>  (65) 
oracle

>  <origin>  (65) 
autodockgpu

>  <m_score__min__energy>  (65) 
-8.9299999999999997

>  <m_primary>  (65) 
energy

>  <rmsd>  (65) 
8.24377632392132

>  <m_score__min__rmsd>  (65) 
8.24377632392132

>  <meeko>  (65) 
{"free_energy": -8.11, "intermolecular_energy": -9.6, "internal_energy": -2.03, "cluster_size": 19, "cluster_id": 1, "rank_in_cluster": 16}

>  <energy>  (65) 
-8.11

>  <cluster_rmsd>  (65) 
1.33

>  <cluster>  (65) 
1

$$$$

     RDKit          3D

 51 54  0  0  0  0  0  0  0  0999 V2000
  141.6200   72.0060  221.5840 O   0  0  0  0  0  0  0  0  0  0  0  0
  140.6580   72.2530  222.3720 C   0  0  0  0  0  0  0  0  0  0  0  0
  139.9600   73.4730  222.3350 N   0  0  0  0  0  0  0  0  0  0  0  0
  140.3450   74.4850  221.3680 C   0  0  0  0  0  0  0  0  0  0  0  0
  139.7280   75.7640  221.8070 C   0  0  0  0  0  0  0  0  0  0  0  0
  138.8970   75.8430  222.7490 O   0  0  0  0  0  0  0  0  0  0  0  0
  140.0850   76.9670  221.1350 N   0  0  0  0  0  0  0  0  0  0  0  0
  139.0810   77.7780  220.4720 C   0  0  0  0  0  0  0  0  0  0  0  0
  139.3240   77.5840  218.9770 C   0  0  0  0  0  0  0  0  0  0  0  0
  140.7510   77.1550  218.7280 C   0  0  0  0  0  0  0  0  0  0  0  0
  141.6270   77.9990  219.6610 C   0  0  0  0  0  0  0  0  0  0  0  0
  141.4550   77.4400  221.0790 C   0  0  1  0  0  0  0  0  0  0  0  0
  141.6990   78.6010  221.9820 C   0  0  0  0  0  0  0  0  0  0  0  0
  141.9950   79.8600  221.4750 C   0  0  0  0  0  0  0  0  0  0  0  0
  142.2230   80.9430  222.3220 C   0  0  0  0  0  0  0  0  0  0  0  0
  142.1620   80.7990  223.6920 C   0  0  0  0  0  0  0  0  0  0  0  0
  141.8700   79.5600  224.2050 C   0  0  0  0  0  0  0  0  0  0  0  0
  141.6470   78.4940  223.3600 C   0  0  0  0  0  0  0  0  0  0  0  0
  140.2830   71.2100  223.3470 C   0  0  0  0  0  0  0  0  0  0  0  0
  139.3340   70.2780  223.0660 C   0  0  0  0  0  0  0  0  0  0  0  0
  138.9380   69.2790  223.9290 C   0  0  0  0  0  0  0  0  0  0  0  0
  139.5560   69.2320  225.1630 C   0  0  0  0  0  0  0  0  0  0  0  0
  139.1750   68.2460  226.0350 C   0  0  0  0  0  0  0  0  0  0  0  0
  139.7670   68.1680  227.2720 C   0  0  0  0  0  0  0  0  0  0  0  0
  140.7390   69.0970  227.6030 C   0  0  0  0  0  0  0  0  0  0  0  0
  141.2930   68.9780  228.8330 F   0  0  0  0  0  0  0  0  0  0  0  0
  141.1100   70.0870  226.7050 C   0  0  0  0  0  0  0  0  0  0  0  0
  140.5260   70.1810  225.4590 C   0  0  0  0  0  0  0  0  0  0  0  0
  140.8770   71.1440  224.5660 N   0  0  0  0  0  0  0  0  0  0  0  0
  139.1620   73.6340  223.0120 H   0  0  0  0  0  0  0  0  0  0  0  0
  141.4402   74.5839  221.3407 H   0  0  0  0  0  0  0  0  0  0  0  0
  140.0050   74.2119  220.3581 H   0  0  0  0  0  0  0  0  0  0  0  0
  138.0708   77.4386  220.7447 H   0  0  0  0  0  0  0  0  0  0  0  0
  139.1525   78.8362  220.7637 H   0  0  0  0  0  0  0  0  0  0  0  0
  138.6410   76.8105  218.5959 H   0  0  0  0  0  0  0  0  0  0  0  0
  139.1417   78.5370  218.4587 H   0  0  0  0  0  0  0  0  0  0  0  0
  140.8721   76.0859  218.9567 H   0  0  0  0  0  0  0  0  0  0  0  0
  141.0333   77.3024  217.6751 H   0  0  0  0  0  0  0  0  0  0  0  0
  142.6809   77.9282  219.3539 H   0  0  0  0  0  0  0  0  0  0  0  0
  141.3303   79.0575  219.6214 H   0  0  0  0  0  0  0  0  0  0  0  0
  142.1284   76.6173  221.3611 H   0  0  0  0  0  0  0  0  0  0  0  0
  142.0504   80.0047  220.3860 H   0  0  0  0  0  0  0  0  0  0  0  0
  142.4553   81.9280  221.8909 H   0  0  0  0  0  0  0  0  0  0  0  0
  142.3429   81.6561  224.3573 H   0  0  0  0  0  0  0  0  0  0  0  0
  141.8137   79.4171  225.2942 H   0  0  0  0  0  0  0  0  0  0  0  0
  141.4172   77.5132  223.8019 H   0  0  0  0  0  0  0  0  0  0  0  0
  138.8479   70.3245  222.0803 H   0  0  0  0  0  0  0  0  0  0  0  0
  138.1633   68.5508  223.6470 H   0  0  0  0  0  0  0  0  0  0  0  0
  138.3996   67.5212  225.7461 H   0  0  0  0  0  0  0  0  0  0  0  0
  139.4748   67.3833  227.9854 H   0  0  0  0  0  0  0  0  0  0  0  0
  141.8858   70.8119  226.9925 H   0  0  0  0  0  0  0  0  0  0  0  0
  1  2  2  0
  2  3  1  0
  3  4  1  0
  4  5  1  0
  5  6  2  0
  5  7  1  0
  7  8  1  0
  8  9  1  0
  9 10  1  0
 10 11  1  0
 11 12  1  0
 12 13  1  0
 13 14  2  0
 14 15  1  0
 15 16  2  0
 16 17  1  0
 17 18  2  0
  2 19  1  0
 19 20  2  0
 20 21  1  0
 21 22  2  0
 22 23  1  0
 23 24  2  0
 24 25  1  0
 25 26  1  0
 25 27  2  0
 27 28  1  0
 28 29  2  0
 12  7  1  0
 18 13  1  0
 29 19  1  0
 28 22  1  0
  3 30  1  0
  4 31  1  0
  4 32  1  0
  8 33  1  0
  8 34  1  0
  9 35  1  0
  9 36  1  0
 10 37  1  0
 10 38  1  0
 11 39  1  0
 11 40  1  0
 12 41  1  1
 14 42  1  0
 15 43  1  0
 16 44  1  0
 17 45  1  0
 18 46  1  0
 20 47  1  0
 21 48  1  0
 23 49  1  0
 24 50  1  0
 27 51  1  0
M  END
>  <smiles>  (66) 
O=C(NCC(=O)N1CCCCC1c1ccccc1)c1ccc2ccc(F)cc2n1

>  <score_type>  (66) 
oracle

>  <origin>  (66) 
autodockgpu

>  <m_score__min__energy>  (66) 
-8.9299999999999997

>  <m_primary>  (66) 
energy

>  <rmsd>  (66) 
2.1471908853359736

>  <m_score__min__rmsd>  (66) 
2.1471908853359736

>  <meeko>  (66) 
{"free_energy": -8.5, "intermolecular_energy": -9.99, "internal_energy": -1.84, "cluster_size": 26, "cluster_id": 2, "rank_in_cluster": 13}

>  <energy>  (66) 
-8.11

>  <cluster_rmsd>  (66) 
1.34

>  <cluster>  (66) 
1

$$$$

     RDKit          3D

 51 54  0  0  0  0  0  0  0  0999 V2000
  139.4410   71.2270  221.1080 O   0  0  0  0  0  0  0  0  0  0  0  0
  139.3230   71.8990  222.1770 C   0  0  0  0  0  0  0  0  0  0  0  0
  138.9440   73.2530  222.1660 N   0  0  0  0  0  0  0  0  0  0  0  0
  138.6780   73.9080  220.8980 C   0  0  0  0  0  0  0  0  0  0  0  0
  139.9530   73.9110  220.1330 C   0  0  0  0  0  0  0  0  0  0  0  0
  140.1430   73.2160  219.1010 O   0  0  0  0  0  0  0  0  0  0  0  0
  141.0220   74.7360  220.5810 N   0  0  0  0  0  0  0  0  0  0  0  0
  140.9920   75.3500  221.8950 C   0  0  0  0  0  0  0  0  0  0  0  0
  140.7500   76.8370  221.6450 C   0  0  0  0  0  0  0  0  0  0  0  0
  141.1940   77.2130  220.2510 C   0  0  0  0  0  0  0  0  0  0  0  0
  142.5180   76.4820  220.0040 C   0  0  0  0  0  0  0  0  0  0  0  0
  142.1860   75.0050  219.7560 C   0  0  1  0  0  0  0  0  0  0  0  0
  143.3940   74.2580  220.2070 C   0  0  0  0  0  0  0  0  0  0  0  0
  144.6060   74.9050  220.4180 C   0  0  0  0  0  0  0  0  0  0  0  0
  145.7340   74.2040  220.8400 C   0  0  0  0  0  0  0  0  0  0  0  0
  145.6830   72.8430  221.0620 C   0  0  0  0  0  0  0  0  0  0  0  0
  144.4920   72.1930  220.8570 C   0  0  0  0  0  0  0  0  0  0  0  0
  143.3810   72.8950  220.4390 C   0  0  0  0  0  0  0  0  0  0  0  0
  139.5980   71.2130  223.4550 C   0  0  0  0  0  0  0  0  0  0  0  0
  139.2890   69.9030  223.6430 C   0  0  0  0  0  0  0  0  0  0  0  0
  139.5190   69.2040  224.8080 C   0  0  0  0  0  0  0  0  0  0  0  0
  140.1060   69.8940  225.8500 C   0  0  0  0  0  0  0  0  0  0  0  0
  140.3420   69.2150  227.0170 C   0  0  0  0  0  0  0  0  0  0  0  0
  140.9240   69.8680  228.0760 C   0  0  0  0  0  0  0  0  0  0  0  0
  141.2560   71.2050  227.9310 C   0  0  0  0  0  0  0  0  0  0  0  0
  141.8280   71.8050  229.0030 F   0  0  0  0  0  0  0  0  0  0  0  0
  141.0080   71.8730  226.7400 C   0  0  0  0  0  0  0  0  0  0  0  0
  140.4250   71.2330  225.6670 C   0  0  0  0  0  0  0  0  0  0  0  0
  140.1740   71.8720  224.4930 N   0  0  0  0  0  0  0  0  0  0  0  0
  138.8580   73.7740  223.0840 H   0  0  0  0  0  0  0  0  0  0  0  0
  137.9057   73.3558  220.3425 H   0  0  0  0  0  0  0  0  0  0  0  0
  138.3129   74.9336  221.0555 H   0  0  0  0  0  0  0  0  0  0  0  0
  140.1777   74.9243  222.4998 H   0  0  0  0  0  0  0  0  0  0  0  0
  141.9267   75.1760  222.4482 H   0  0  0  0  0  0  0  0  0  0  0  0
  139.6772   77.0536  221.7550 H   0  0  0  0  0  0  0  0  0  0  0  0
  141.3291   77.4216  222.3750 H   0  0  0  0  0  0  0  0  0  0  0  0
  140.4415   76.8958  219.5140 H   0  0  0  0  0  0  0  0  0  0  0  0
  141.3164   78.3017  220.1526 H   0  0  0  0  0  0  0  0  0  0  0  0
  143.0238   76.9067  219.1243 H   0  0  0  0  0  0  0  0  0  0  0  0
  143.1889   76.5898  220.8690 H   0  0  0  0  0  0  0  0  0  0  0  0
  141.9591   74.7268  218.7162 H   0  0  0  0  0  0  0  0  0  0  0  0
  144.6760   75.9897  220.2489 H   0  0  0  0  0  0  0  0  0  0  0  0
  146.6793   74.7437  220.9985 H   0  0  0  0  0  0  0  0  0  0  0  0
  146.5752   72.2926  221.3951 H   0  0  0  0  0  0  0  0  0  0  0  0
  144.4232   71.1083  221.0266 H   0  0  0  0  0  0  0  0  0  0  0  0
  142.4411   72.3452  220.2830 H   0  0  0  0  0  0  0  0  0  0  0  0
  138.8224   69.3626  222.8062 H   0  0  0  0  0  0  0  0  0  0  0  0
  139.2468   68.1425  224.9037 H   0  0  0  0  0  0  0  0  0  0  0  0
  140.0670   68.1536  227.1049 H   0  0  0  0  0  0  0  0  0  0  0  0
  141.1225   69.3398  229.0203 H   0  0  0  0  0  0  0  0  0  0  0  0
  141.2821   72.9345  226.6503 H   0  0  0  0  0  0  0  0  0  0  0  0
  1  2  2  0
  2  3  1  0
  3  4  1  0
  4  5  1  0
  5  6  2  0
  5  7  1  0
  7  8  1  0
  8  9  1  0
  9 10  1  0
 10 11  1  0
 11 12  1  0
 12 13  1  0
 13 14  2  0
 14 15  1  0
 15 16  2  0
 16 17  1  0
 17 18  2  0
  2 19  1  0
 19 20  2  0
 20 21  1  0
 21 22  2  0
 22 23  1  0
 23 24  2  0
 24 25  1  0
 25 26  1  0
 25 27  2  0
 27 28  1  0
 28 29  2  0
 12  7  1  0
 18 13  1  0
 29 19  1  0
 28 22  1  0
  3 30  1  0
  4 31  1  0
  4 32  1  0
  8 33  1  0
  8 34  1  0
  9 35  1  0
  9 36  1  0
 10 37  1  0
 10 38  1  0
 11 39  1  0
 11 40  1  0
 12 41  1  6
 14 42  1  0
 15 43  1  0
 16 44  1  0
 17 45  1  0
 18 46  1  0
 20 47  1  0
 21 48  1  0
 23 49  1  0
 24 50  1  0
 27 51  1  0
M  END
>  <smiles>  (67) 
O=C(NCC(=O)N1CCCCC1c1ccccc1)c1ccc2ccc(F)cc2n1

>  <score_type>  (67) 
oracle

>  <origin>  (67) 
autodockgpu

>  <m_score__min__energy>  (67) 
-8.9299999999999997

>  <m_primary>  (67) 
energy

>  <rmsd>  (67) 
2.3747351074724015

>  <m_score__min__rmsd>  (67) 
2.3747351074724015

>  <meeko>  (67) 
{"free_energy": -8.21, "intermolecular_energy": -9.7, "internal_energy": -1.76, "cluster_size": 5, "cluster_id": 3, "rank_in_cluster": 4}

>  <energy>  (67) 
-8.1

>  <cluster_rmsd>  (67) 
1.32

>  <cluster>  (67) 
1

$$$$

     RDKit          3D

 51 54  0  0  0  0  0  0  0  0999 V2000
  140.9510   74.3360  221.3610 O   0  0  0  0  0  0  0  0  0  0  0  0
  139.9270   74.7790  221.9650 C   0  0  0  0  0  0  0  0  0  0  0  0
  138.8300   73.9560  222.2720 N   0  0  0  0  0  0  0  0  0  0  0  0
  138.8630   72.5550  221.8910 C   0  0  0  0  0  0  0  0  0  0  0  0
  139.6310   71.8360  222.9420 C   0  0  0  0  0  0  0  0  0  0  0  0
  140.6750   72.2970  223.4740 O   0  0  0  0  0  0  0  0  0  0  0  0
  139.1750   70.5600  223.3770 N   0  0  0  0  0  0  0  0  0  0  0  0
  139.3650   69.3790  222.5560 C   0  0  0  0  0  0  0  0  0  0  0  0
  137.9770   69.0230  222.0270 C   0  0  0  0  0  0  0  0  0  0  0  0
  136.9090   69.5890  222.9330 C   0  0  0  0  0  0  0  0  0  0  0  0
  137.3910   69.3560  224.3690 C   0  0  0  0  0  0  0  0  0  0  0  0
  138.5030   70.3750  224.6490 C   0  0  1  0  0  0  0  0  0  0  0  0
  139.3730   69.7240  225.6690 C   0  0  0  0  0  0  0  0  0  0  0  0
  139.3370   68.3510  225.8780 C   0  0  0  0  0  0  0  0  0  0  0  0
  140.1520   67.7450  226.8330 C   0  0  0  0  0  0  0  0  0  0  0  0
  141.0220   68.4900  227.6000 C   0  0  0  0  0  0  0  0  0  0  0  0
  141.0670   69.8480  227.4030 C   0  0  0  0  0  0  0  0  0  0  0  0
  140.2560   70.4390  226.4580 C   0  0  0  0  0  0  0  0  0  0  0  0
  139.9160   76.2060  222.3430 C   0  0  0  0  0  0  0  0  0  0  0  0
  138.7610   76.9190  222.4050 C   0  0  0  0  0  0  0  0  0  0  0  0
  138.6810   78.2510  222.7510 C   0  0  0  0  0  0  0  0  0  0  0  0
  139.8630   78.8950  223.0520 C   0  0  0  0  0  0  0  0  0  0  0  0
  139.8030   80.2200  223.3970 C   0  0  0  0  0  0  0  0  0  0  0  0
  140.9600   80.8950  223.7030 C   0  0  0  0  0  0  0  0  0  0  0  0
  142.1620   80.2090  223.6520 C   0  0  0  0  0  0  0  0  0  0  0  0
  143.2740   80.9180  223.9630 F   0  0  0  0  0  0  0  0  0  0  0  0
  142.2000   78.8680  223.3010 C   0  0  0  0  0  0  0  0  0  0  0  0
  141.0490   78.1750  222.9900 C   0  0  0  0  0  0  0  0  0  0  0  0
  141.0680   76.8600  222.6430 N   0  0  0  0  0  0  0  0  0  0  0  0
  137.9970   74.3700  222.7770 H   0  0  0  0  0  0  0  0  0  0  0  0
  137.8398   72.1557  221.8312 H   0  0  0  0  0  0  0  0  0  0  0  0
  139.3335   72.4276  220.9049 H   0  0  0  0  0  0  0  0  0  0  0  0
  140.0500   69.5958  221.7231 H   0  0  0  0  0  0  0  0  0  0  0  0
  139.8087   68.5509  223.1282 H   0  0  0  0  0  0  0  0  0  0  0  0
  137.8553   69.4417  221.0171 H   0  0  0  0  0  0  0  0  0  0  0  0
  137.8762   67.9281  221.9959 H   0  0  0  0  0  0  0  0  0  0  0  0
  136.7815   70.6652  222.7445 H   0  0  0  0  0  0  0  0  0  0  0  0
  135.9376   69.1045  222.7551 H   0  0  0  0  0  0  0  0  0  0  0  0
  136.5593   69.5035  225.0737 H   0  0  0  0  0  0  0  0  0  0  0  0
  137.7647   68.3288  224.4921 H   0  0  0  0  0  0  0  0  0  0  0  0
  138.1784   71.3557  225.0269 H   0  0  0  0  0  0  0  0  0  0  0  0
  138.6534   67.7311  225.2794 H   0  0  0  0  0  0  0  0  0  0  0  0
  140.1000   66.6557  226.9767 H   0  0  0  0  0  0  0  0  0  0  0  0
  141.6646   68.0082  228.3516 H   0  0  0  0  0  0  0  0  0  0  0  0
  141.7524   70.4664  228.0012 H   0  0  0  0  0  0  0  0  0  0  0  0
  140.3136   71.5294  226.3252 H   0  0  0  0  0  0  0  0  0  0  0  0
  137.8239   76.3966  222.1620 H   0  0  0  0  0  0  0  0  0  0  0  0
  137.7159   78.7777  222.7856 H   0  0  0  0  0  0  0  0  0  0  0  0
  138.8342   80.7401  223.4288 H   0  0  0  0  0  0  0  0  0  0  0  0
  140.9321   81.9585  223.9828 H   0  0  0  0  0  0  0  0  0  0  0  0
  143.1680   78.3464  223.2700 H   0  0  0  0  0  0  0  0  0  0  0  0
  1  2  2  0
  2  3  1  0
  3  4  1  0
  4  5  1  0
  5  6  2  0
  5  7  1  0
  7  8  1  0
  8  9  1  0
  9 10  1  0
 10 11  1  0
 11 12  1  0
 12 13  1  0
 13 14  2  0
 14 15  1  0
 15 16  2  0
 16 17  1  0
 17 18  2  0
  2 19  1  0
 19 20  2  0
 20 21  1  0
 21 22  2  0
 22 23  1  0
 23 24  2  0
 24 25  1  0
 25 26  1  0
 25 27  2  0
 27 28  1  0
 28 29  2  0
 12  7  1  0
 18 13  1  0
 29 19  1  0
 28 22  1  0
  3 30  1  0
  4 31  1  0
  4 32  1  0
  8 33  1  0
  8 34  1  0
  9 35  1  0
  9 36  1  0
 10 37  1  0
 10 38  1  0
 11 39  1  0
 11 40  1  0
 12 41  1  1
 14 42  1  0
 15 43  1  0
 16 44  1  0
 17 45  1  0
 18 46  1  0
 20 47  1  0
 21 48  1  0
 23 49  1  0
 24 50  1  0
 27 51  1  0
M  END
>  <smiles>  (68) 
O=C(NCC(=O)N1CCCCC1c1ccccc1)c1ccc2ccc(F)cc2n1

>  <score_type>  (68) 
oracle

>  <origin>  (68) 
autodockgpu

>  <m_score__min__energy>  (68) 
-8.9299999999999997

>  <m_primary>  (68) 
energy

>  <rmsd>  (68) 
8.105484307240502

>  <m_score__min__rmsd>  (68) 
8.105484307240502

>  <meeko>  (68) 
{"free_energy": -8.9, "intermolecular_energy": -10.4, "internal_energy": -1.31, "cluster_size": 19, "cluster_id": 1, "rank_in_cluster": 5}

>  <energy>  (68) 
-8.1

>  <cluster_rmsd>  (68) 
1.34

>  <cluster>  (68) 
1

$$$$

     RDKit          3D

 51 54  0  0  0  0  0  0  0  0999 V2000
  141.0150   74.3440  221.3530 O   0  0  0  0  0  0  0  0  0  0  0  0
  139.9800   74.7770  221.9450 C   0  0  0  0  0  0  0  0  0  0  0  0
  138.8870   73.9420  222.2360 N   0  0  0  0  0  0  0  0  0  0  0  0
  138.9360   72.5430  221.8520 C   0  0  0  0  0  0  0  0  0  0  0  0
  139.6550   71.8190  222.9340 C   0  0  0  0  0  0  0  0  0  0  0  0
  140.6950   72.2610  223.4890 O   0  0  0  0  0  0  0  0  0  0  0  0
  139.1530   70.5630  223.3730 N   0  0  0  0  0  0  0  0  0  0  0  0
  139.2550   69.3830  222.5350 C   0  0  0  0  0  0  0  0  0  0  0  0
  137.8330   69.1010  222.0540 C   0  0  0  0  0  0  0  0  0  0  0  0
  136.8280   69.7070  223.0040 C   0  0  0  0  0  0  0  0  0  0  0  0
  137.3490   69.4350  224.4190 C   0  0  0  0  0  0  0  0  0  0  0  0
  138.5200   70.3960  224.6680 C   0  0  1  0  0  0  0  0  0  0  0  0
  139.3940   69.6910  225.6490 C   0  0  0  0  0  0  0  0  0  0  0  0
  140.2420   70.3940  226.4950 C   0  0  0  0  0  0  0  0  0  0  0  0
  141.0580   69.7310  227.4100 C   0  0  0  0  0  0  0  0  0  0  0  0
  141.0490   68.3560  227.5050 C   0  0  0  0  0  0  0  0  0  0  0  0
  140.2140   67.6500  226.6740 C   0  0  0  0  0  0  0  0  0  0  0  0
  139.4110   68.3130  225.7710 C   0  0  0  0  0  0  0  0  0  0  0  0
  139.9510   76.2020  222.3270 C   0  0  0  0  0  0  0  0  0  0  0  0
  138.7890   76.9030  222.3820 C   0  0  0  0  0  0  0  0  0  0  0  0
  138.6930   78.2330  222.7310 C   0  0  0  0  0  0  0  0  0  0  0  0
  139.8670   78.8880  223.0430 C   0  0  0  0  0  0  0  0  0  0  0  0
  139.7910   80.2110  223.3910 C   0  0  0  0  0  0  0  0  0  0  0  0
  140.9380   80.8970  223.7080 C   0  0  0  0  0  0  0  0  0  0  0  0
  142.1470   80.2240  223.6650 C   0  0  0  0  0  0  0  0  0  0  0  0
  143.2500   80.9420  223.9860 F   0  0  0  0  0  0  0  0  0  0  0  0
  142.2020   78.8830  223.3100 C   0  0  0  0  0  0  0  0  0  0  0  0
  141.0600   78.1800  222.9880 C   0  0  0  0  0  0  0  0  0  0  0  0
  141.0940   76.8670  222.6380 N   0  0  0  0  0  0  0  0  0  0  0  0
  138.0440   74.3470  222.7330 H   0  0  0  0  0  0  0  0  0  0  0  0
  137.9162   72.1450  221.7444 H   0  0  0  0  0  0  0  0  0  0  0  0
  139.4508   72.4188  220.8879 H   0  0  0  0  0  0  0  0  0  0  0  0
  139.9194   69.5751  221.6796 H   0  0  0  0  0  0  0  0  0  0  0  0
  139.6779   68.5281  223.0831 H   0  0  0  0  0  0  0  0  0  0  0  0
  137.6953   69.5371  221.0536 H   0  0  0  0  0  0  0  0  0  0  0  0
  137.6777   68.0127  222.0157 H   0  0  0  0  0  0  0  0  0  0  0  0
  136.7462   70.7902  222.8307 H   0  0  0  0  0  0  0  0  0  0  0  0
  135.8286   69.2715  222.8572 H   0  0  0  0  0  0  0  0  0  0  0  0
  136.5514   69.6152  225.1547 H   0  0  0  0  0  0  0  0  0  0  0  0
  137.6758   68.3894  224.5189 H   0  0  0  0  0  0  0  0  0  0  0  0
  138.2585   71.3869  225.0676 H   0  0  0  0  0  0  0  0  0  0  0  0
  140.2701   71.4924  226.4420 H   0  0  0  0  0  0  0  0  0  0  0  0
  141.7198   70.3145  228.0669 H   0  0  0  0  0  0  0  0  0  0  0  0
  141.6947   67.8369  228.2286 H   0  0  0  0  0  0  0  0  0  0  0  0
  140.1860   66.5517  226.7293 H   0  0  0  0  0  0  0  0  0  0  0  0
  138.7541   67.7198  225.1179 H   0  0  0  0  0  0  0  0  0  0  0  0
  137.8591   76.3720  222.1303 H   0  0  0  0  0  0  0  0  0  0  0  0
  137.7225   78.7500  222.7596 H   0  0  0  0  0  0  0  0  0  0  0  0
  138.8167   80.7210  223.4164 H   0  0  0  0  0  0  0  0  0  0  0  0
  140.8967   81.9594  223.9902 H   0  0  0  0  0  0  0  0  0  0  0  0
  143.1754   78.3712  223.2850 H   0  0  0  0  0  0  0  0  0  0  0  0
  1  2  2  0
  2  3  1  0
  3  4  1  0
  4  5  1  0
  5  6  2  0
  5  7  1  0
  7  8  1  0
  8  9  1  0
  9 10  1  0
 10 11  1  0
 11 12  1  0
 12 13  1  0
 13 14  2  0
 14 15  1  0
 15 16  2  0
 16 17  1  0
 17 18  2  0
  2 19  1  0
 19 20  2  0
 20 21  1  0
 21 22  2  0
 22 23  1  0
 23 24  2  0
 24 25  1  0
 25 26  1  0
 25 27  2  0
 27 28  1  0
 28 29  2  0
 12  7  1  0
 18 13  1  0
 29 19  1  0
 28 22  1  0
  3 30  1  0
  4 31  1  0
  4 32  1  0
  8 33  1  0
  8 34  1  0
  9 35  1  0
  9 36  1  0
 10 37  1  0
 10 38  1  0
 11 39  1  0
 11 40  1  0
 12 41  1  1
 14 42  1  0
 15 43  1  0
 16 44  1  0
 17 45  1  0
 18 46  1  0
 20 47  1  0
 21 48  1  0
 23 49  1  0
 24 50  1  0
 27 51  1  0
M  END
>  <smiles>  (69) 
O=C(NCC(=O)N1CCCCC1c1ccccc1)c1ccc2ccc(F)cc2n1

>  <score_type>  (69) 
oracle

>  <origin>  (69) 
autodockgpu

>  <m_score__min__energy>  (69) 
-8.9299999999999997

>  <m_primary>  (69) 
energy

>  <rmsd>  (69) 
8.100422876003464

>  <m_score__min__rmsd>  (69) 
8.100422876003464

>  <meeko>  (69) 
{"free_energy": -8.92, "intermolecular_energy": -10.41, "internal_energy": -1.31, "cluster_size": 19, "cluster_id": 1, "rank_in_cluster": 4}

>  <energy>  (69) 
-8.08

>  <cluster_rmsd>  (69) 
1.33

>  <cluster>  (69) 
1

$$$$

     RDKit          3D

 51 54  0  0  0  0  0  0  0  0999 V2000
  137.3530   75.6250  222.3420 O   0  0  0  0  0  0  0  0  0  0  0  0
  138.6110   75.7920  222.3420 C   0  0  0  0  0  0  0  0  0  0  0  0
  139.5010   74.7360  222.0800 N   0  0  0  0  0  0  0  0  0  0  0  0
  138.9740   73.4130  221.8000 C   0  0  0  0  0  0  0  0  0  0  0  0
  139.8530   72.4370  222.4980 C   0  0  0  0  0  0  0  0  0  0  0  0
  141.0720   72.6490  222.7330 O   0  0  0  0  0  0  0  0  0  0  0  0
  139.3020   71.1980  222.9280 N   0  0  0  0  0  0  0  0  0  0  0  0
  139.3980   70.0110  222.1000 C   0  0  0  0  0  0  0  0  0  0  0  0
  137.9860   69.7650  221.5740 C   0  0  0  0  0  0  0  0  0  0  0  0
  136.9670   70.4050  222.4870 C   0  0  0  0  0  0  0  0  0  0  0  0
  137.4340   70.1280  223.9200 C   0  0  0  0  0  0  0  0  0  0  0  0
  138.6220   71.0580  224.2020 C   0  0  1  0  0  0  0  0  0  0  0  0
  139.4430   70.3350  225.2150 C   0  0  0  0  0  0  0  0  0  0  0  0
  140.3170   71.0150  226.0540 C   0  0  0  0  0  0  0  0  0  0  0  0
  141.0840   70.3360  226.9990 C   0  0  0  0  0  0  0  0  0  0  0  0
  140.9980   68.9660  227.1330 C   0  0  0  0  0  0  0  0  0  0  0  0
  140.1370   68.2830  226.3090 C   0  0  0  0  0  0  0  0  0  0  0  0
  139.3840   68.9630  225.3760 C   0  0  0  0  0  0  0  0  0  0  0  0
  139.1250   77.1460  222.6280 C   0  0  0  0  0  0  0  0  0  0  0  0
  138.2900   78.2020  222.8110 C   0  0  0  0  0  0  0  0  0  0  0  0
  138.7040   79.4890  223.0810 C   0  0  0  0  0  0  0  0  0  0  0  0
  140.0630   79.7070  223.1700 C   0  0  0  0  0  0  0  0  0  0  0  0
  140.4930   80.9810  223.4370 C   0  0  0  0  0  0  0  0  0  0  0  0
  141.8400   81.2370  223.5330 C   0  0  0  0  0  0  0  0  0  0  0  0
  142.7290   80.1900  223.3540 C   0  0  0  0  0  0  0  0  0  0  0  0
  144.0450   80.4920  223.4580 F   0  0  0  0  0  0  0  0  0  0  0  0
  142.2720   78.9080  223.0840 C   0  0  0  0  0  0  0  0  0  0  0  0
  140.9240   78.6330  222.9840 C   0  0  0  0  0  0  0  0  0  0  0  0
  140.4590   77.3840  222.7200 N   0  0  0  0  0  0  0  0  0  0  0  0
  140.5430   74.9230  222.0900 H   0  0  0  0  0  0  0  0  0  0  0  0
  137.9437   73.3296  222.1762 H   0  0  0  0  0  0  0  0  0  0  0  0
  138.9552   73.2194  220.7173 H   0  0  0  0  0  0  0  0  0  0  0  0
  140.0950   70.1795  221.2659 H   0  0  0  0  0  0  0  0  0  0  0  0
  139.7785   69.1482  222.6664 H   0  0  0  0  0  0  0  0  0  0  0  0
  137.8934   70.1979  220.5670 H   0  0  0  0  0  0  0  0  0  0  0  0
  137.8020   68.6811  221.5369 H   0  0  0  0  0  0  0  0  0  0  0  0
  136.9209   71.4888  222.3049 H   0  0  0  0  0  0  0  0  0  0  0  0
  135.9612   69.9964  222.3098 H   0  0  0  0  0  0  0  0  0  0  0  0
  136.6181   70.3347  224.6282 H   0  0  0  0  0  0  0  0  0  0  0  0
  137.7286   69.0746  224.0363 H   0  0  0  0  0  0  0  0  0  0  0  0
  138.3752   72.0585  224.5867 H   0  0  0  0  0  0  0  0  0  0  0  0
  140.4052   72.1083  225.9710 H   0  0  0  0  0  0  0  0  0  0  0  0
  141.7687   70.9016  227.6481 H   0  0  0  0  0  0  0  0  0  0  0  0
  141.6038   68.4336  227.8810 H   0  0  0  0  0  0  0  0  0  0  0  0
  140.0481   67.1899  226.3940 H   0  0  0  0  0  0  0  0  0  0  0  0
  138.7048   68.3876  224.7297 H   0  0  0  0  0  0  0  0  0  0  0  0
  137.2080   78.0172  222.7387 H   0  0  0  0  0  0  0  0  0  0  0  0
  137.9815   80.3068  223.2195 H   0  0  0  0  0  0  0  0  0  0  0  0
  139.7643   81.7936  223.5736 H   0  0  0  0  0  0  0  0  0  0  0  0
  142.2045   82.2524  223.7476 H   0  0  0  0  0  0  0  0  0  0  0  0
  142.9995   78.0944  222.9469 H   0  0  0  0  0  0  0  0  0  0  0  0
  1  2  2  0
  2  3  1  0
  3  4  1  0
  4  5  1  0
  5  6  2  0
  5  7  1  0
  7  8  1  0
  8  9  1  0
  9 10  1  0
 10 11  1  0
 11 12  1  0
 12 13  1  0
 13 14  2  0
 14 15  1  0
 15 16  2  0
 16 17  1  0
 17 18  2  0
  2 19  1  0
 19 20  2  0
 20 21  1  0
 21 22  2  0
 22 23  1  0
 23 24  2  0
 24 25  1  0
 25 26  1  0
 25 27  2  0
 27 28  1  0
 28 29  2  0
 12  7  1  0
 18 13  1  0
 29 19  1  0
 28 22  1  0
  3 30  1  0
  4 31  1  0
  4 32  1  0
  8 33  1  0
  8 34  1  0
  9 35  1  0
  9 36  1  0
 10 37  1  0
 10 38  1  0
 11 39  1  0
 11 40  1  0
 12 41  1  1
 14 42  1  0
 15 43  1  0
 16 44  1  0
 17 45  1  0
 18 46  1  0
 20 47  1  0
 21 48  1  0
 23 49  1  0
 24 50  1  0
 27 51  1  0
M  END
>  <smiles>  (70) 
O=C(NCC(=O)N1CCCCC1c1ccccc1)c1ccc2ccc(F)cc2n1

>  <score_type>  (70) 
oracle

>  <origin>  (70) 
autodockgpu

>  <m_score__min__energy>  (70) 
-8.9299999999999997

>  <m_primary>  (70) 
energy

>  <rmsd>  (70) 
8.20079274643975

>  <m_score__min__rmsd>  (70) 
8.20079274643975

>  <meeko>  (70) 
{"free_energy": -8.12, "intermolecular_energy": -9.61, "internal_energy": -1.92, "cluster_size": 19, "cluster_id": 1, "rank_in_cluster": 11}

>  <energy>  (70) 
-8.64

>  <cluster_rmsd>  (70) 
0.0

>  <cluster>  (70) 
2

$$$$

     RDKit          3D

 51 54  0  0  0  0  0  0  0  0999 V2000
  141.3970   73.4450  220.5720 O   0  0  0  0  0  0  0  0  0  0  0  0
  140.6860   74.1810  221.3230 C   0  0  0  0  0  0  0  0  0  0  0  0
  139.6470   73.6560  222.1100 N   0  0  0  0  0  0  0  0  0  0  0  0
  139.3720   72.2310  222.0690 C   0  0  0  0  0  0  0  0  0  0  0  0
  139.7790   71.6710  223.3850 C   0  0  0  0  0  0  0  0  0  0  0  0
  140.5700   72.2550  224.1710 O   0  0  0  0  0  0  0  0  0  0  0  0
  139.2550   70.4110  223.7880 N   0  0  0  0  0  0  0  0  0  0  0  0
  139.3560   69.2490  222.9250 C   0  0  0  0  0  0  0  0  0  0  0  0
  137.9390   68.9950  222.4160 C   0  0  0  0  0  0  0  0  0  0  0  0
  136.9260   69.5920  223.3650 C   0  0  0  0  0  0  0  0  0  0  0  0
  137.4230   69.2820  224.7810 C   0  0  0  0  0  0  0  0  0  0  0  0
  138.6000   70.2230  225.0690 C   0  0  1  0  0  0  0  0  0  0  0  0
  139.4510   69.4860  226.0470 C   0  0  0  0  0  0  0  0  0  0  0  0
  139.7420   68.1380  225.8780 C   0  0  0  0  0  0  0  0  0  0  0  0
  140.5370   67.4520  226.7940 C   0  0  0  0  0  0  0  0  0  0  0  0
  141.0620   68.0910  227.8980 C   0  0  0  0  0  0  0  0  0  0  0  0
  140.7820   69.4230  228.0760 C   0  0  0  0  0  0  0  0  0  0  0  0
  139.9930   70.0930  227.1650 C   0  0  0  0  0  0  0  0  0  0  0  0
  140.9840   75.6270  221.3490 C   0  0  0  0  0  0  0  0  0  0  0  0
  141.8280   76.1980  220.4520 C   0  0  0  0  0  0  0  0  0  0  0  0
  142.1470   77.5390  220.4210 C   0  0  0  0  0  0  0  0  0  0  0  0
  141.5620   78.3470  221.3740 C   0  0  0  0  0  0  0  0  0  0  0  0
  141.8670   79.6830  221.3600 C   0  0  0  0  0  0  0  0  0  0  0  0
  141.3040   80.5180  222.2930 C   0  0  0  0  0  0  0  0  0  0  0  0
  140.4370   79.9800  223.2280 C   0  0  0  0  0  0  0  0  0  0  0  0
  139.9060   80.8440  224.1270 F   0  0  0  0  0  0  0  0  0  0  0  0
  140.1400   78.6250  223.2250 C   0  0  0  0  0  0  0  0  0  0  0  0
  140.6970   77.7710  222.2960 C   0  0  0  0  0  0  0  0  0  0  0  0
  140.4180   76.4410  222.2780 N   0  0  0  0  0  0  0  0  0  0  0  0
  139.0800   74.3080  222.7220 H   0  0  0  0  0  0  0  0  0  0  0  0
  138.2988   72.0582  221.9007 H   0  0  0  0  0  0  0  0  0  0  0  0
  139.9245   71.7483  221.2494 H   0  0  0  0  0  0  0  0  0  0  0  0
  140.0358   69.4522  222.0845 H   0  0  0  0  0  0  0  0  0  0  0  0
  139.7600   68.3770  223.4601 H   0  0  0  0  0  0  0  0  0  0  0  0
  137.8219   69.4552  221.4238 H   0  0  0  0  0  0  0  0  0  0  0  0
  137.7716   67.9098  222.3502 H   0  0  0  0  0  0  0  0  0  0  0  0
  136.8593   70.6797  223.2150 H   0  0  0  0  0  0  0  0  0  0  0  0
  135.9238   69.1721  223.1937 H   0  0  0  0  0  0  0  0  0  0  0  0
  136.6166   69.4545  225.5090 H   0  0  0  0  0  0  0  0  0  0  0  0
  137.7368   68.2308  224.8616 H   0  0  0  0  0  0  0  0  0  0  0  0
  138.3433   71.2077  225.4866 H   0  0  0  0  0  0  0  0  0  0  0  0
  139.3378   67.6030  225.0060 H   0  0  0  0  0  0  0  0  0  0  0  0
  140.7492   66.3845  226.6343 H   0  0  0  0  0  0  0  0  0  0  0  0
  141.6899   67.5463  228.6184 H   0  0  0  0  0  0  0  0  0  0  0  0
  141.1881   69.9572  228.9476 H   0  0  0  0  0  0  0  0  0  0  0  0
  139.7851   71.1596  227.3355 H   0  0  0  0  0  0  0  0  0  0  0  0
  142.2898   75.5449  219.6969 H   0  0  0  0  0  0  0  0  0  0  0  0
  142.8382   77.9470  219.6688 H   0  0  0  0  0  0  0  0  0  0  0  0
  142.5593   80.0842  220.6052 H   0  0  0  0  0  0  0  0  0  0  0  0
  141.5373   81.5930  222.2973 H   0  0  0  0  0  0  0  0  0  0  0  0
  139.4464   78.2235  223.9785 H   0  0  0  0  0  0  0  0  0  0  0  0
  1  2  2  0
  2  3  1  0
  3  4  1  0
  4  5  1  0
  5  6  2  0
  5  7  1  0
  7  8  1  0
  8  9  1  0
  9 10  1  0
 10 11  1  0
 11 12  1  0
 12 13  1  0
 13 14  2  0
 14 15  1  0
 15 16  2  0
 16 17  1  0
 17 18  2  0
  2 19  1  0
 19 20  2  0
 20 21  1  0
 21 22  2  0
 22 23  1  0
 23 24  2  0
 24 25  1  0
 25 26  1  0
 25 27  2  0
 27 28  1  0
 28 29  2  0
 12  7  1  0
 18 13  1  0
 29 19  1  0
 28 22  1  0
  3 30  1  0
  4 31  1  0
  4 32  1  0
  8 33  1  0
  8 34  1  0
  9 35  1  0
  9 36  1  0
 10 37  1  0
 10 38  1  0
 11 39  1  0
 11 40  1  0
 12 41  1  1
 14 42  1  0
 15 43  1  0
 16 44  1  0
 17 45  1  0
 18 46  1  0
 20 47  1  0
 21 48  1  0
 23 49  1  0
 24 50  1  0
 27 51  1  0
M  END
>  <smiles>  (71) 
O=C(NCC(=O)N1CCCCC1c1ccccc1)c1ccc2ccc(F)cc2n1

>  <score_type>  (71) 
oracle

>  <origin>  (71) 
autodockgpu

>  <m_score__min__energy>  (71) 
-8.9299999999999997

>  <m_primary>  (71) 
energy

>  <rmsd>  (71) 
8.318206245622342

>  <m_score__min__rmsd>  (71) 
8.318206245622342

>  <meeko>  (71) 
{"free_energy": -8.34, "intermolecular_energy": -9.83, "internal_energy": -1.55, "cluster_size": 19, "cluster_id": 1, "rank_in_cluster": 10}

>  <energy>  (71) 
-8.62

>  <cluster_rmsd>  (71) 
1.0

>  <cluster>  (71) 
2

$$$$

     RDKit          3D

 51 54  0  0  0  0  0  0  0  0999 V2000
  139.8140   71.8550  221.0250 O   0  0  0  0  0  0  0  0  0  0  0  0
  139.7490   72.4620  222.1370 C   0  0  0  0  0  0  0  0  0  0  0  0
  139.6080   73.8580  222.2150 N   0  0  0  0  0  0  0  0  0  0  0  0
  139.5330   74.6360  220.9910 C   0  0  0  0  0  0  0  0  0  0  0  0
  140.7770   75.4460  220.9120 C   0  0  0  0  0  0  0  0  0  0  0  0
  141.9210   74.9820  221.1610 O   0  0  0  0  0  0  0  0  0  0  0  0
  140.6840   76.8150  220.5370 N   0  0  0  0  0  0  0  0  0  0  0  0
  139.4180   77.3950  220.1320 C   0  0  0  0  0  0  0  0  0  0  0  0
  139.5350   77.6170  218.6260 C   0  0  0  0  0  0  0  0  0  0  0  0
  140.9870   77.7220  218.2220 C   0  0  0  0  0  0  0  0  0  0  0  0
  141.6740   78.5740  219.2950 C   0  0  0  0  0  0  0  0  0  0  0  0
  141.8390   77.6950  220.5410 C   0  0  1  0  0  0  0  0  0  0  0  0
  141.8300   78.6480  221.6880 C   0  0  0  0  0  0  0  0  0  0  0  0
  142.1940   79.9790  221.5220 C   0  0  0  0  0  0  0  0  0  0  0  0
  142.1850   80.8670  222.5960 C   0  0  0  0  0  0  0  0  0  0  0  0
  141.8140   80.4530  223.8580 C   0  0  0  0  0  0  0  0  0  0  0  0
  141.4530   79.1400  224.0340 C   0  0  0  0  0  0  0  0  0  0  0  0
  141.4660   78.2680  222.9670 C   0  0  0  0  0  0  0  0  0  0  0  0
  139.8280   71.6520  223.3680 C   0  0  0  0  0  0  0  0  0  0  0  0
  139.3400   70.3850  223.4220 C   0  0  0  0  0  0  0  0  0  0  0  0
  139.3820   69.5760  224.5370 C   0  0  0  0  0  0  0  0  0  0  0  0
  139.9630   70.1010  225.6730 C   0  0  0  0  0  0  0  0  0  0  0  0
  140.0140   69.3120  226.7920 C   0  0  0  0  0  0  0  0  0  0  0  0
  140.5850   69.8000  227.9420 C   0  0  0  0  0  0  0  0  0  0  0  0
  141.0960   71.0870  227.9350 C   0  0  0  0  0  0  0  0  0  0  0  0
  141.6490   71.5230  229.0930 F   0  0  0  0  0  0  0  0  0  0  0  0
  141.0350   71.8690  226.7910 C   0  0  0  0  0  0  0  0  0  0  0  0
  140.4650   71.3950  225.6280 C   0  0  0  0  0  0  0  0  0  0  0  0
  140.3960   72.1480  224.4980 N   0  0  0  0  0  0  0  0  0  0  0  0
  139.5580   74.3220  223.1660 H   0  0  0  0  0  0  0  0  0  0  0  0
  139.4630   73.9659  220.1215 H   0  0  0  0  0  0  0  0  0  0  0  0
  138.6435   75.2831  220.9918 H   0  0  0  0  0  0  0  0  0  0  0  0
  138.5902   76.7061  220.3560 H   0  0  0  0  0  0  0  0  0  0  0  0
  139.2083   78.3325  220.6679 H   0  0  0  0  0  0  0  0  0  0  0  0
  139.0717   76.7708  218.0975 H   0  0  0  0  0  0  0  0  0  0  0  0
  139.0218   78.5533  218.3617 H   0  0  0  0  0  0  0  0  0  0  0  0
  141.4436   76.7221  218.1802 H   0  0  0  0  0  0  0  0  0  0  0  0
  141.0919   78.1752  217.2252 H   0  0  0  0  0  0  0  0  0  0  0  0
  142.6591   78.9075  218.9368 H   0  0  0  0  0  0  0  0  0  0  0  0
  141.0741   79.4667  219.5256 H   0  0  0  0  0  0  0  0  0  0  0  0
  142.7534   77.0853  220.5873 H   0  0  0  0  0  0  0  0  0  0  0  0
  142.4942   80.3375  220.5263 H   0  0  0  0  0  0  0  0  0  0  0  0
  142.4785   81.9148  222.4345 H   0  0  0  0  0  0  0  0  0  0  0  0
  141.8074   81.1574  224.7029 H   0  0  0  0  0  0  0  0  0  0  0  0
  141.1524   78.7830  225.0301 H   0  0  0  0  0  0  0  0  0  0  0  0
  141.1735   77.2219  223.1405 H   0  0  0  0  0  0  0  0  0  0  0  0
  138.8786   69.9759  222.5111 H   0  0  0  0  0  0  0  0  0  0  0  0
  138.9702   68.5561  224.5219 H   0  0  0  0  0  0  0  0  0  0  0  0
  139.5999   68.2932  226.7695 H   0  0  0  0  0  0  0  0  0  0  0  0
  140.6353   69.1811  228.8500 H   0  0  0  0  0  0  0  0  0  0  0  0
  141.4496   72.8877  226.8118 H   0  0  0  0  0  0  0  0  0  0  0  0
  1  2  2  0
  2  3  1  0
  3  4  1  0
  4  5  1  0
  5  6  2  0
  5  7  1  0
  7  8  1  0
  8  9  1  0
  9 10  1  0
 10 11  1  0
 11 12  1  0
 12 13  1  0
 13 14  2  0
 14 15  1  0
 15 16  2  0
 16 17  1  0
 17 18  2  0
  2 19  1  0
 19 20  2  0
 20 21  1  0
 21 22  2  0
 22 23  1  0
 23 24  2  0
 24 25  1  0
 25 26  1  0
 25 27  2  0
 27 28  1  0
 28 29  2  0
 12  7  1  0
 18 13  1  0
 29 19  1  0
 28 22  1  0
  3 30  1  0
  4 31  1  0
  4 32  1  0
  8 33  1  0
  8 34  1  0
  9 35  1  0
  9 36  1  0
 10 37  1  0
 10 38  1  0
 11 39  1  0
 11 40  1  0
 12 41  1  6
 14 42  1  0
 15 43  1  0
 16 44  1  0
 17 45  1  0
 18 46  1  0
 20 47  1  0
 21 48  1  0
 23 49  1  0
 24 50  1  0
 27 51  1  0
M  END
>  <smiles>  (72) 
O=C(NCC(=O)N1CCCCC1c1ccccc1)c1ccc2ccc(F)cc2n1

>  <score_type>  (72) 
oracle

>  <origin>  (72) 
autodockgpu

>  <m_score__min__energy>  (72) 
-8.9299999999999997

>  <m_primary>  (72) 
energy

>  <rmsd>  (72) 
1.8092287917739165

>  <m_score__min__rmsd>  (72) 
1.8092287917739165

>  <meeko>  (72) 
{"free_energy": -8.41, "intermolecular_energy": -9.9, "internal_energy": -1.51, "cluster_size": 26, "cluster_id": 2, "rank_in_cluster": 22}

>  <energy>  (72) 
-8.57

>  <cluster_rmsd>  (72) 
0.4

>  <cluster>  (72) 
2

$$$$

     RDKit          3D

 51 54  0  0  0  0  0  0  0  0999 V2000
  141.0440   74.3820  221.3720 O   0  0  0  0  0  0  0  0  0  0  0  0
  140.0010   74.7950  221.9650 C   0  0  0  0  0  0  0  0  0  0  0  0
  138.9270   73.9390  222.2630 N   0  0  0  0  0  0  0  0  0  0  0  0
  139.0050   72.5400  221.8840 C   0  0  0  0  0  0  0  0  0  0  0  0
  139.6700   71.8220  223.0040 C   0  0  0  0  0  0  0  0  0  0  0  0
  140.6790   72.2680  223.6090 O   0  0  0  0  0  0  0  0  0  0  0  0
  139.1490   70.5650  223.4220 N   0  0  0  0  0  0  0  0  0  0  0  0
  139.2050   69.4070  222.5500 C   0  0  0  0  0  0  0  0  0  0  0  0
  137.7670   69.1690  222.0960 C   0  0  0  0  0  0  0  0  0  0  0  0
  136.7970   69.7720  223.0850 C   0  0  0  0  0  0  0  0  0  0  0  0
  137.3440   69.4510  224.4800 C   0  0  0  0  0  0  0  0  0  0  0  0
  138.5420   70.3790  224.7260 C   0  0  1  0  0  0  0  0  0  0  0  0
  139.4220   69.6290  225.6670 C   0  0  0  0  0  0  0  0  0  0  0  0
  140.2400   70.2910  226.5740 C   0  0  0  0  0  0  0  0  0  0  0  0
  141.0610   69.5870  227.4530 C   0  0  0  0  0  0  0  0  0  0  0  0
  141.0870   68.2080  227.4500 C   0  0  0  0  0  0  0  0  0  0  0  0
  140.2840   67.5420  226.5580 C   0  0  0  0  0  0  0  0  0  0  0  0
  139.4750   68.2470  225.6920 C   0  0  0  0  0  0  0  0  0  0  0  0
  139.9440   76.2210  222.3420 C   0  0  0  0  0  0  0  0  0  0  0  0
  138.7660   76.8960  222.4050 C   0  0  0  0  0  0  0  0  0  0  0  0
  138.6430   78.2250  222.7490 C   0  0  0  0  0  0  0  0  0  0  0  0
  139.8050   78.9080  223.0480 C   0  0  0  0  0  0  0  0  0  0  0  0
  139.7020   80.2300  223.3920 C   0  0  0  0  0  0  0  0  0  0  0  0
  140.8360   80.9430  223.6960 C   0  0  0  0  0  0  0  0  0  0  0  0
  142.0600   80.2970  223.6440 C   0  0  0  0  0  0  0  0  0  0  0  0
  143.1490   81.0410  223.9530 F   0  0  0  0  0  0  0  0  0  0  0  0
  142.1410   78.9570  223.2940 C   0  0  0  0  0  0  0  0  0  0  0  0
  141.0130   78.2260  222.9860 C   0  0  0  0  0  0  0  0  0  0  0  0
  141.0740   76.9130  222.6400 N   0  0  0  0  0  0  0  0  0  0  0  0
  138.0770   74.3280  222.7610 H   0  0  0  0  0  0  0  0  0  0  0  0
  137.9949   72.1355  221.7229 H   0  0  0  0  0  0  0  0  0  0  0  0
  139.5709   72.4179  220.9487 H   0  0  0  0  0  0  0  0  0  0  0  0
  139.8532   69.6085  221.6844 H   0  0  0  0  0  0  0  0  0  0  0  0
  139.6215   68.5284  223.0643 H   0  0  0  0  0  0  0  0  0  0  0  0
  137.6162   69.6340  221.1106 H   0  0  0  0  0  0  0  0  0  0  0  0
  137.5866   68.0857  222.0338 H   0  0  0  0  0  0  0  0  0  0  0  0
  136.7358   70.8609  222.9419 H   0  0  0  0  0  0  0  0  0  0  0  0
  135.7849   69.3629  222.9502 H   0  0  0  0  0  0  0  0  0  0  0  0
  136.5678   69.6293  225.2388 H   0  0  0  0  0  0  0  0  0  0  0  0
  137.6490   68.3961  224.5452 H   0  0  0  0  0  0  0  0  0  0  0  0
  138.3121   71.3646  225.1569 H   0  0  0  0  0  0  0  0  0  0  0  0
  140.2397   71.3907  226.5988 H   0  0  0  0  0  0  0  0  0  0  0  0
  141.6978   70.1394  228.1597 H   0  0  0  0  0  0  0  0  0  0  0  0
  141.7356   67.6553  228.1456 H   0  0  0  0  0  0  0  0  0  0  0  0
  140.2858   66.4423  226.5339 H   0  0  0  0  0  0  0  0  0  0  0  0
  138.8429   67.6847  224.9889 H   0  0  0  0  0  0  0  0  0  0  0  0
  137.8462   76.3428  222.1646 H   0  0  0  0  0  0  0  0  0  0  0  0
  137.6614   78.7201  222.7838 H   0  0  0  0  0  0  0  0  0  0  0  0
  138.7166   80.7178  223.4246 H   0  0  0  0  0  0  0  0  0  0  0  0
  140.7733   82.0052  223.9750 H   0  0  0  0  0  0  0  0  0  0  0  0
  143.1255   78.4674  223.2615 H   0  0  0  0  0  0  0  0  0  0  0  0
  1  2  2  0
  2  3  1  0
  3  4  1  0
  4  5  1  0
  5  6  2  0
  5  7  1  0
  7  8  1  0
  8  9  1  0
  9 10  1  0
 10 11  1  0
 11 12  1  0
 12 13  1  0
 13 14  2  0
 14 15  1  0
 15 16  2  0
 16 17  1  0
 17 18  2  0
  2 19  1  0
 19 20  2  0
 20 21  1  0
 21 22  2  0
 22 23  1  0
 23 24  2  0
 24 25  1  0
 25 26  1  0
 25 27  2  0
 27 28  1  0
 28 29  2  0
 12  7  1  0
 18 13  1  0
 29 19  1  0
 28 22  1  0
  3 30  1  0
  4 31  1  0
  4 32  1  0
  8 33  1  0
  8 34  1  0
  9 35  1  0
  9 36  1  0
 10 37  1  0
 10 38  1  0
 11 39  1  0
 11 40  1  0
 12 41  1  1
 14 42  1  0
 15 43  1  0
 16 44  1  0
 17 45  1  0
 18 46  1  0
 20 47  1  0
 21 48  1  0
 23 49  1  0
 24 50  1  0
 27 51  1  0
M  END
>  <smiles>  (73) 
O=C(NCC(=O)N1CCCCC1c1ccccc1)c1ccc2ccc(F)cc2n1

>  <score_type>  (73) 
oracle

>  <origin>  (73) 
autodockgpu

>  <m_score__min__energy>  (73) 
-8.9299999999999997

>  <m_primary>  (73) 
energy

>  <rmsd>  (73) 
8.118763765784871

>  <m_score__min__rmsd>  (73) 
8.118763765784871

>  <meeko>  (73) 
{"free_energy": -8.93, "intermolecular_energy": -10.43, "internal_energy": -1.3, "cluster_size": 19, "cluster_id": 1, "rank_in_cluster": 1}

>  <energy>  (73) 
-8.52

>  <cluster_rmsd>  (73) 
0.56

>  <cluster>  (73) 
2

$$$$

     RDKit          3D

 51 54  0  0  0  0  0  0  0  0999 V2000
  141.3670   72.2220  221.5770 O   0  0  0  0  0  0  0  0  0  0  0  0
  140.4150   72.4530  222.3830 C   0  0  0  0  0  0  0  0  0  0  0  0
  139.6680   73.6420  222.3290 N   0  0  0  0  0  0  0  0  0  0  0  0
  139.9880   74.6400  221.3250 C   0  0  0  0  0  0  0  0  0  0  0  0
  139.4650   75.9410  221.8210 C   0  0  0  0  0  0  0  0  0  0  0  0
  138.6730   76.0420  222.7930 O   0  0  0  0  0  0  0  0  0  0  0  0
  139.8740   77.1390  221.1720 N   0  0  0  0  0  0  0  0  0  0  0  0
  138.8990   78.0470  220.5970 C   0  0  0  0  0  0  0  0  0  0  0  0
  139.0430   77.8940  219.0850 C   0  0  0  0  0  0  0  0  0  0  0  0
  140.4170   77.3720  218.7380 C   0  0  0  0  0  0  0  0  0  0  0  0
  141.4040   78.1130  219.6470 C   0  0  0  0  0  0  0  0  0  0  0  0
  141.2710   77.5130  221.0530 C   0  0  1  0  0  0  0  0  0  0  0  0
  141.6510   78.6170  221.9790 C   0  0  0  0  0  0  0  0  0  0  0  0
  141.4990   78.4900  223.3540 C   0  0  0  0  0  0  0  0  0  0  0  0
  141.8550   79.5250  224.2180 C   0  0  0  0  0  0  0  0  0  0  0  0
  142.3720   80.7080  223.7330 C   0  0  0  0  0  0  0  0  0  0  0  0
  142.5280   80.8450  222.3760 C   0  0  0  0  0  0  0  0  0  0  0  0
  142.1710   79.8170  221.5300 C   0  0  0  0  0  0  0  0  0  0  0  0
  140.1060   71.4240  223.3950 C   0  0  0  0  0  0  0  0  0  0  0  0
  139.1680   70.4660  223.1770 C   0  0  0  0  0  0  0  0  0  0  0  0
  138.8320   69.4790  224.0790 C   0  0  0  0  0  0  0  0  0  0  0  0
  139.5040   69.4730  225.2840 C   0  0  0  0  0  0  0  0  0  0  0  0
  139.1840   68.4990  226.1930 C   0  0  0  0  0  0  0  0  0  0  0  0
  139.8310   68.4620  227.4040 C   0  0  0  0  0  0  0  0  0  0  0  0
  140.7950   69.4190  227.6720 C   0  0  0  0  0  0  0  0  0  0  0  0
  141.4060   69.3400  228.8790 F   0  0  0  0  0  0  0  0  0  0  0  0
  141.1050   70.3960  226.7370 C   0  0  0  0  0  0  0  0  0  0  0  0
  140.4650   70.4490  225.5160 C   0  0  0  0  0  0  0  0  0  0  0  0
  140.7550   71.3990  224.5890 N   0  0  0  0  0  0  0  0  0  0  0  0
  138.8810   73.7910  223.0220 H   0  0  0  0  0  0  0  0  0  0  0  0
  141.0775   74.6995  221.1857 H   0  0  0  0  0  0  0  0  0  0  0  0
  139.5369   74.3799  220.3560 H   0  0  0  0  0  0  0  0  0  0  0  0
  137.8827   77.7727  220.9163 H   0  0  0  0  0  0  0  0  0  0  0  0
  139.0668   79.0849  220.9204 H   0  0  0  0  0  0  0  0  0  0  0  0
  138.2835   77.1879  218.7180 H   0  0  0  0  0  0  0  0  0  0  0  0
  138.9044   78.8773  218.6117 H   0  0  0  0  0  0  0  0  0  0  0  0
  140.4701   76.2888  218.9220 H   0  0  0  0  0  0  0  0  0  0  0  0
  140.6505   77.5390  217.6761 H   0  0  0  0  0  0  0  0  0  0  0  0
  142.4308   77.9783  219.2762 H   0  0  0  0  0  0  0  0  0  0  0  0
  141.1847   79.1908  219.6620 H   0  0  0  0  0  0  0  0  0  0  0  0
  141.8959   76.6334  221.2672 H   0  0  0  0  0  0  0  0  0  0  0  0
  141.0906   77.5565  223.7685 H   0  0  0  0  0  0  0  0  0  0  0  0
  141.7215   79.3960  225.3022 H   0  0  0  0  0  0  0  0  0  0  0  0
  142.6526   81.5223  224.4172 H   0  0  0  0  0  0  0  0  0  0  0  0
  142.9391   81.7778  221.9626 H   0  0  0  0  0  0  0  0  0  0  0  0
  142.3060   79.9578  220.4474 H   0  0  0  0  0  0  0  0  0  0  0  0
  138.6391   70.4786  222.2126 H   0  0  0  0  0  0  0  0  0  0  0  0
  138.0615   68.7287  223.8480 H   0  0  0  0  0  0  0  0  0  0  0  0
  138.4135   67.7511  225.9543 H   0  0  0  0  0  0  0  0  0  0  0  0
  139.5881   67.6874  228.1463 H   0  0  0  0  0  0  0  0  0  0  0  0
  141.8766   71.1434  226.9740 H   0  0  0  0  0  0  0  0  0  0  0  0
  1  2  2  0
  2  3  1  0
  3  4  1  0
  4  5  1  0
  5  6  2  0
  5  7  1  0
  7  8  1  0
  8  9  1  0
  9 10  1  0
 10 11  1  0
 11 12  1  0
 12 13  1  0
 13 14  2  0
 14 15  1  0
 15 16  2  0
 16 17  1  0
 17 18  2  0
  2 19  1  0
 19 20  2  0
 20 21  1  0
 21 22  2  0
 22 23  1  0
 23 24  2  0
 24 25  1  0
 25 26  1  0
 25 27  2  0
 27 28  1  0
 28 29  2  0
 12  7  1  0
 18 13  1  0
 29 19  1  0
 28 22  1  0
  3 30  1  0
  4 31  1  0
  4 32  1  0
  8 33  1  0
  8 34  1  0
  9 35  1  0
  9 36  1  0
 10 37  1  0
 10 38  1  0
 11 39  1  0
 11 40  1  0
 12 41  1  6
 14 42  1  0
 15 43  1  0
 16 44  1  0
 17 45  1  0
 18 46  1  0
 20 47  1  0
 21 48  1  0
 23 49  1  0
 24 50  1  0
 27 51  1  0
M  END
>  <smiles>  (74) 
O=C(NCC(=O)N1CCCCC1c1ccccc1)c1ccc2ccc(F)cc2n1

>  <score_type>  (74) 
oracle

>  <origin>  (74) 
autodockgpu

>  <m_score__min__energy>  (74) 
-8.9299999999999997

>  <m_primary>  (74) 
energy

>  <rmsd>  (74) 
2.184032632698684

>  <m_score__min__rmsd>  (74) 
2.184032632698684

>  <meeko>  (74) 
{"free_energy": -8.49, "intermolecular_energy": -9.98, "internal_energy": -1.81, "cluster_size": 26, "cluster_id": 2, "rank_in_cluster": 17}

>  <energy>  (74) 
-8.52

>  <cluster_rmsd>  (74) 
0.57

>  <cluster>  (74) 
2

$$$$

     RDKit          3D

 51 54  0  0  0  0  0  0  0  0999 V2000
  141.6120   71.9870  221.5650 O   0  0  0  0  0  0  0  0  0  0  0  0
  140.6600   72.2390  222.3640 C   0  0  0  0  0  0  0  0  0  0  0  0
  139.9770   73.4680  222.3440 N   0  0  0  0  0  0  0  0  0  0  0  0
  140.3660   74.4830  221.3820 C   0  0  0  0  0  0  0  0  0  0  0  0
  139.7150   75.7530  221.8020 C   0  0  0  0  0  0  0  0  0  0  0  0
  138.8590   75.8190  222.7220 O   0  0  0  0  0  0  0  0  0  0  0  0
  140.0690   76.9600  221.1380 N   0  0  0  0  0  0  0  0  0  0  0  0
  139.0640   77.7720  220.4770 C   0  0  0  0  0  0  0  0  0  0  0  0
  139.3100   77.5860  218.9820 C   0  0  0  0  0  0  0  0  0  0  0  0
  140.7390   77.1640  218.7330 C   0  0  0  0  0  0  0  0  0  0  0  0
  141.6100   78.0060  219.6710 C   0  0  0  0  0  0  0  0  0  0  0  0
  141.4380   77.4380  221.0870 C   0  0  1  0  0  0  0  0  0  0  0  0
  141.6770   78.5950  221.9960 C   0  0  0  0  0  0  0  0  0  0  0  0
  141.6200   78.4520  223.3770 C   0  0  0  0  0  0  0  0  0  0  0  0
  141.8440   79.5360  224.2240 C   0  0  0  0  0  0  0  0  0  0  0  0
  142.1290   80.7870  223.7170 C   0  0  0  0  0  0  0  0  0  0  0  0
  142.1880   80.9410  222.3540 C   0  0  0  0  0  0  0  0  0  0  0  0
  141.9650   79.8630  221.5240 C   0  0  0  0  0  0  0  0  0  0  0  0
  140.2810   71.1920  223.3330 C   0  0  0  0  0  0  0  0  0  0  0  0
  139.3380   70.2580  223.0430 C   0  0  0  0  0  0  0  0  0  0  0  0
  138.9380   69.2560  223.9010 C   0  0  0  0  0  0  0  0  0  0  0  0
  139.5460   69.2080  225.1380 C   0  0  0  0  0  0  0  0  0  0  0  0
  139.1620   68.2180  226.0050 C   0  0  0  0  0  0  0  0  0  0  0  0
  139.7450   68.1380  227.2460 C   0  0  0  0  0  0  0  0  0  0  0  0
  140.7110   69.0690  227.5870 C   0  0  0  0  0  0  0  0  0  0  0  0
  141.2570   68.9490  228.8210 F   0  0  0  0  0  0  0  0  0  0  0  0
  141.0860   70.0630  226.6940 C   0  0  0  0  0  0  0  0  0  0  0  0
  140.5120   70.1580  225.4440 C   0  0  0  0  0  0  0  0  0  0  0  0
  140.8660   71.1260  224.5570 N   0  0  0  0  0  0  0  0  0  0  0  0
  139.1880   73.6330  223.0300 H   0  0  0  0  0  0  0  0  0  0  0  0
  141.4596   74.6019  221.3797 H   0  0  0  0  0  0  0  0  0  0  0  0
  140.0550   74.2000  220.3655 H   0  0  0  0  0  0  0  0  0  0  0  0
  138.0542   77.4289  220.7463 H   0  0  0  0  0  0  0  0  0  0  0  0
  139.1325   78.8289  220.7740 H   0  0  0  0  0  0  0  0  0  0  0  0
  138.6307   76.8115  218.5963 H   0  0  0  0  0  0  0  0  0  0  0  0
  139.1247   78.5407  218.4679 H   0  0  0  0  0  0  0  0  0  0  0  0
  140.8639   76.0942  218.9564 H   0  0  0  0  0  0  0  0  0  0  0  0
  141.0222   77.3182  217.6813 H   0  0  0  0  0  0  0  0  0  0  0  0
  142.6646   77.9409  219.3649 H   0  0  0  0  0  0  0  0  0  0  0  0
  141.3094   79.0636  219.6366 H   0  0  0  0  0  0  0  0  0  0  0  0
  142.1136   76.6160  221.3661 H   0  0  0  0  0  0  0  0  0  0  0  0
  141.3941   77.4661  223.8093 H   0  0  0  0  0  0  0  0  0  0  0  0
  141.7928   79.3919  225.3133 H   0  0  0  0  0  0  0  0  0  0  0  0
  142.3047   81.6404  224.3885 H   0  0  0  0  0  0  0  0  0  0  0  0
  142.4139   81.9275  221.9229 H   0  0  0  0  0  0  0  0  0  0  0  0
  142.0185   80.0184  220.4363 H   0  0  0  0  0  0  0  0  0  0  0  0
  138.8598   70.3047  222.0535 H   0  0  0  0  0  0  0  0  0  0  0  0
  138.1673   68.5264  223.6116 H   0  0  0  0  0  0  0  0  0  0  0  0
  138.3911   67.4916  225.7084 H   0  0  0  0  0  0  0  0  0  0  0  0
  139.4502   67.3500  227.9547 H   0  0  0  0  0  0  0  0  0  0  0  0
  141.8569   70.7899  226.9895 H   0  0  0  0  0  0  0  0  0  0  0  0
  1  2  2  0
  2  3  1  0
  3  4  1  0
  4  5  1  0
  5  6  2  0
  5  7  1  0
  7  8  1  0
  8  9  1  0
  9 10  1  0
 10 11  1  0
 11 12  1  0
 12 13  1  0
 13 14  2  0
 14 15  1  0
 15 16  2  0
 16 17  1  0
 17 18  2  0
  2 19  1  0
 19 20  2  0
 20 21  1  0
 21 22  2  0
 22 23  1  0
 23 24  2  0
 24 25  1  0
 25 26  1  0
 25 27  2  0
 27 28  1  0
 28 29  2  0
 12  7  1  0
 18 13  1  0
 29 19  1  0
 28 22  1  0
  3 30  1  0
  4 31  1  0
  4 32  1  0
  8 33  1  0
  8 34  1  0
  9 35  1  0
  9 36  1  0
 10 37  1  0
 10 38  1  0
 11 39  1  0
 11 40  1  0
 12 41  1  1
 14 42  1  0
 15 43  1  0
 16 44  1  0
 17 45  1  0
 18 46  1  0
 20 47  1  0
 21 48  1  0
 23 49  1  0
 24 50  1  0
 27 51  1  0
M  END
>  <smiles>  (75) 
O=C(NCC(=O)N1CCCCC1c1ccccc1)c1ccc2ccc(F)cc2n1

>  <score_type>  (75) 
oracle

>  <origin>  (75) 
autodockgpu

>  <m_score__min__energy>  (75) 
-8.9299999999999997

>  <m_primary>  (75) 
energy

>  <rmsd>  (75) 
2.153041233700925

>  <m_score__min__rmsd>  (75) 
2.153041233700925

>  <meeko>  (75) 
{"free_energy": -8.5, "intermolecular_energy": -9.99, "internal_energy": -1.85, "cluster_size": 26, "cluster_id": 2, "rank_in_cluster": 15}

>  <energy>  (75) 
-8.51

>  <cluster_rmsd>  (75) 
0.6

>  <cluster>  (75) 
2

$$$$

     RDKit          3D

 51 54  0  0  0  0  0  0  0  0999 V2000
  141.0230   74.2930  221.3950 O   0  0  0  0  0  0  0  0  0  0  0  0
  139.9810   74.7330  221.9690 C   0  0  0  0  0  0  0  0  0  0  0  0
  138.8850   73.9020  222.2580 N   0  0  0  0  0  0  0  0  0  0  0  0
  138.9400   72.4970  221.8940 C   0  0  0  0  0  0  0  0  0  0  0  0
  139.6350   71.7880  223.0000 C   0  0  0  0  0  0  0  0  0  0  0  0
  140.6590   72.2390  223.5760 O   0  0  0  0  0  0  0  0  0  0  0  0
  139.1270   70.5330  223.4400 N   0  0  0  0  0  0  0  0  0  0  0  0
  139.1950   69.3600  222.5880 C   0  0  0  0  0  0  0  0  0  0  0  0
  137.7590   69.1010  222.1380 C   0  0  0  0  0  0  0  0  0  0  0  0
  136.7830   69.7100  223.1170 C   0  0  0  0  0  0  0  0  0  0  0  0
  137.3340   69.4180  224.5170 C   0  0  0  0  0  0  0  0  0  0  0  0
  138.5220   70.3630  224.7470 C   0  0  1  0  0  0  0  0  0  0  0  0
  139.4090   69.6380  225.7010 C   0  0  0  0  0  0  0  0  0  0  0  0
  139.4490   68.2490  225.7370 C   0  0  0  0  0  0  0  0  0  0  0  0
  140.2800   67.5750  226.6300 C   0  0  0  0  0  0  0  0  0  0  0  0
  141.0900   68.2660  227.5070 C   0  0  0  0  0  0  0  0  0  0  0  0
  141.0590   69.6380  227.4810 C   0  0  0  0  0  0  0  0  0  0  0  0
  140.2330   70.2970  226.5950 C   0  0  0  0  0  0  0  0  0  0  0  0
  139.9470   76.1640  222.3300 C   0  0  0  0  0  0  0  0  0  0  0  0
  138.7820   76.8620  222.3710 C   0  0  0  0  0  0  0  0  0  0  0  0
  138.6810   78.1970  222.7000 C   0  0  0  0  0  0  0  0  0  0  0  0
  139.8520   78.8590  223.0080 C   0  0  0  0  0  0  0  0  0  0  0  0
  139.7710   80.1870  223.3370 C   0  0  0  0  0  0  0  0  0  0  0  0
  140.9150   80.8800  223.6500 C   0  0  0  0  0  0  0  0  0  0  0  0
  142.1260   80.2090  223.6210 C   0  0  0  0  0  0  0  0  0  0  0  0
  143.2260   80.9350  223.9380 F   0  0  0  0  0  0  0  0  0  0  0  0
  142.1850   78.8640  223.2860 C   0  0  0  0  0  0  0  0  0  0  0  0
  141.0470   78.1530  222.9690 C   0  0  0  0  0  0  0  0  0  0  0  0
  141.0870   76.8360  222.6370 N   0  0  0  0  0  0  0  0  0  0  0  0
  138.0360   74.3130  222.7390 H   0  0  0  0  0  0  0  0  0  0  0  0
  137.9221   72.0987  221.7707 H   0  0  0  0  0  0  0  0  0  0  0  0
  139.4743   72.3588  220.9424 H   0  0  0  0  0  0  0  0  0  0  0  0
  139.8416   69.5525  221.7192 H   0  0  0  0  0  0  0  0  0  0  0  0
  139.6200   68.4944  223.1173 H   0  0  0  0  0  0  0  0  0  0  0  0
  137.6038   69.5488  221.1453 H   0  0  0  0  0  0  0  0  0  0  0  0
  137.5892   68.0151  222.0933 H   0  0  0  0  0  0  0  0  0  0  0  0
  136.7102   70.7957  222.9558 H   0  0  0  0  0  0  0  0  0  0  0  0
  135.7752   69.2881  222.9895 H   0  0  0  0  0  0  0  0  0  0  0  0
  136.5562   69.6004  225.2731 H   0  0  0  0  0  0  0  0  0  0  0  0
  137.6505   68.3677  224.5994 H   0  0  0  0  0  0  0  0  0  0  0  0
  138.2822   71.3536  225.1606 H   0  0  0  0  0  0  0  0  0  0  0  0
  138.8139   67.6719  225.0488 H   0  0  0  0  0  0  0  0  0  0  0  0
  140.2901   66.4751  226.6356 H   0  0  0  0  0  0  0  0  0  0  0  0
  141.7449   67.7305  228.2101 H   0  0  0  0  0  0  0  0  0  0  0  0
  141.6952   70.2138  228.1693 H   0  0  0  0  0  0  0  0  0  0  0  0
  140.2294   71.3970  226.5995 H   0  0  0  0  0  0  0  0  0  0  0  0
  137.8546   76.3243  222.1245 H   0  0  0  0  0  0  0  0  0  0  0  0
  137.7092   78.7121  222.7163 H   0  0  0  0  0  0  0  0  0  0  0  0
  138.7954   80.6950  223.3504 H   0  0  0  0  0  0  0  0  0  0  0  0
  140.8700   81.9459  223.9181 H   0  0  0  0  0  0  0  0  0  0  0  0
  143.1597   78.3543  223.2730 H   0  0  0  0  0  0  0  0  0  0  0  0
  1  2  2  0
  2  3  1  0
  3  4  1  0
  4  5  1  0
  5  6  2  0
  5  7  1  0
  7  8  1  0
  8  9  1  0
  9 10  1  0
 10 11  1  0
 11 12  1  0
 12 13  1  0
 13 14  2  0
 14 15  1  0
 15 16  2  0
 16 17  1  0
 17 18  2  0
  2 19  1  0
 19 20  2  0
 20 21  1  0
 21 22  2  0
 22 23  1  0
 23 24  2  0
 24 25  1  0
 25 26  1  0
 25 27  2  0
 27 28  1  0
 28 29  2  0
 12  7  1  0
 18 13  1  0
 29 19  1  0
 28 22  1  0
  3 30  1  0
  4 31  1  0
  4 32  1  0
  8 33  1  0
  8 34  1  0
  9 35  1  0
  9 36  1  0
 10 37  1  0
 10 38  1  0
 11 39  1  0
 11 40  1  0
 12 41  1  1
 14 42  1  0
 15 43  1  0
 16 44  1  0
 17 45  1  0
 18 46  1  0
 20 47  1  0
 21 48  1  0
 23 49  1  0
 24 50  1  0
 27 51  1  0
M  END
>  <smiles>  (76) 
O=C(NCC(=O)N1CCCCC1c1ccccc1)c1ccc2ccc(F)cc2n1

>  <score_type>  (76) 
oracle

>  <origin>  (76) 
autodockgpu

>  <m_score__min__energy>  (76) 
-8.9299999999999997

>  <m_primary>  (76) 
energy

>  <rmsd>  (76) 
8.11896769818459

>  <m_score__min__rmsd>  (76) 
8.11896769818459

>  <meeko>  (76) 
{"free_energy": -8.93, "intermolecular_energy": -10.42, "internal_energy": -1.3, "cluster_size": 19, "cluster_id": 1, "rank_in_cluster": 3}

>  <energy>  (76) 
-8.51

>  <cluster_rmsd>  (76) 
0.61

>  <cluster>  (76) 
2

$$$$

     RDKit          3D

 51 54  0  0  0  0  0  0  0  0999 V2000
  137.3340   76.0390  222.3460 O   0  0  0  0  0  0  0  0  0  0  0  0
  138.5990   76.1190  222.4110 C   0  0  0  0  0  0  0  0  0  0  0  0
  139.4250   74.9960  222.2310 N   0  0  0  0  0  0  0  0  0  0  0  0
  138.8210   73.7040  221.9620 C   0  0  0  0  0  0  0  0  0  0  0  0
  139.8240   72.6700  222.3310 C   0  0  0  0  0  0  0  0  0  0  0  0
  141.0650   72.8830  222.3430 O   0  0  0  0  0  0  0  0  0  0  0  0
  139.3720   71.3690  222.6890 N   0  0  0  0  0  0  0  0  0  0  0  0
  139.6740   70.2180  221.8590 C   0  0  0  0  0  0  0  0  0  0  0  0
  138.3520   69.8360  221.1970 C   0  0  0  0  0  0  0  0  0  0  0  0
  137.1890   70.3430  222.0160 C   0  0  0  0  0  0  0  0  0  0  0  0
  137.5460   70.0840  223.4840 C   0  0  0  0  0  0  0  0  0  0  0  0
  138.5940   71.1280  223.8900 C   0  0  1  0  0  0  0  0  0  0  0  0
  139.3900   70.4730  224.9680 C   0  0  0  0  0  0  0  0  0  0  0  0
  140.3360   71.1820  225.6980 C   0  0  0  0  0  0  0  0  0  0  0  0
  141.0780   70.5670  226.7050 C   0  0  0  0  0  0  0  0  0  0  0  0
  140.8960   69.2340  227.0090 C   0  0  0  0  0  0  0  0  0  0  0  0
  139.9640   68.5230  226.2940 C   0  0  0  0  0  0  0  0  0  0  0  0
  139.2350   69.1390  225.2990 C   0  0  0  0  0  0  0  0  0  0  0  0
  139.1910   77.4430  222.6850 C   0  0  0  0  0  0  0  0  0  0  0  0
  138.4190   78.5440  222.8780 C   0  0  0  0  0  0  0  0  0  0  0  0
  138.9070   79.8070  223.1380 C   0  0  0  0  0  0  0  0  0  0  0  0
  140.2780   79.9500  223.2040 C   0  0  0  0  0  0  0  0  0  0  0  0
  140.7820   81.1980  223.4610 C   0  0  0  0  0  0  0  0  0  0  0  0
  142.1410   81.3800  223.5350 C   0  0  0  0  0  0  0  0  0  0  0  0
  142.9680   80.2860  223.3440 C   0  0  0  0  0  0  0  0  0  0  0  0
  144.3010   80.5160  223.4260 F   0  0  0  0  0  0  0  0  0  0  0  0
  142.4370   79.0310  223.0850 C   0  0  0  0  0  0  0  0  0  0  0  0
  141.0750   78.8300  223.0080 C   0  0  0  0  0  0  0  0  0  0  0  0
  140.5370   77.6080  222.7550 N   0  0  0  0  0  0  0  0  0  0  0  0
  140.4760   75.1110  222.2930 H   0  0  0  0  0  0  0  0  0  0  0  0
  137.9103   73.5796  222.5663 H   0  0  0  0  0  0  0  0  0  0  0  0
  138.5378   73.6159  220.9027 H   0  0  0  0  0  0  0  0  0  0  0  0
  140.4241   70.4788  221.0979 H   0  0  0  0  0  0  0  0  0  0  0  0
  140.0911   69.3877  222.4478 H   0  0  0  0  0  0  0  0  0  0  0  0
  138.3083   70.2798  220.1915 H   0  0  0  0  0  0  0  0  0  0  0  0
  138.2901   68.7399  221.1286 H   0  0  0  0  0  0  0  0  0  0  0  0
  137.0439   71.4198  221.8443 H   0  0  0  0  0  0  0  0  0  0  0  0
  136.2543   69.8342  221.7378 H   0  0  0  0  0  0  0  0  0  0  0  0
  136.6495   70.1863  224.1131 H   0  0  0  0  0  0  0  0  0  0  0  0
  137.9402   69.0654  223.6149 H   0  0  0  0  0  0  0  0  0  0  0  0
  138.2050   72.0874  224.2618 H   0  0  0  0  0  0  0  0  0  0  0  0
  140.5022   72.2468  225.4775 H   0  0  0  0  0  0  0  0  0  0  0  0
  141.8202   71.1539  227.2660 H   0  0  0  0  0  0  0  0  0  0  0  0
  141.4831   68.7523  227.8048 H   0  0  0  0  0  0  0  0  0  0  0  0
  139.7984   67.4584  226.5158 H   0  0  0  0  0  0  0  0  0  0  0  0
  138.4966   68.5425  224.7432 H   0  0  0  0  0  0  0  0  0  0  0  0
  137.3275   78.4190  222.8230 H   0  0  0  0  0  0  0  0  0  0  0  0
  138.2328   80.6634  223.2864 H   0  0  0  0  0  0  0  0  0  0  0  0
  140.1014   82.0497  223.6073 H   0  0  0  0  0  0  0  0  0  0  0  0
  142.5639   82.3742  223.7417 H   0  0  0  0  0  0  0  0  0  0  0  0
  143.1164   78.1785  222.9380 H   0  0  0  0  0  0  0  0  0  0  0  0
  1  2  2  0
  2  3  1  0
  3  4  1  0
  4  5  1  0
  5  6  2  0
  5  7  1  0
  7  8  1  0
  8  9  1  0
  9 10  1  0
 10 11  1  0
 11 12  1  0
 12 13  1  0
 13 14  2  0
 14 15  1  0
 15 16  2  0
 16 17  1  0
 17 18  2  0
  2 19  1  0
 19 20  2  0
 20 21  1  0
 21 22  2  0
 22 23  1  0
 23 24  2  0
 24 25  1  0
 25 26  1  0
 25 27  2  0
 27 28  1  0
 28 29  2  0
 12  7  1  0
 18 13  1  0
 29 19  1  0
 28 22  1  0
  3 30  1  0
  4 31  1  0
  4 32  1  0
  8 33  1  0
  8 34  1  0
  9 35  1  0
  9 36  1  0
 10 37  1  0
 10 38  1  0
 11 39  1  0
 11 40  1  0
 12 41  1  1
 14 42  1  0
 15 43  1  0
 16 44  1  0
 17 45  1  0
 18 46  1  0
 20 47  1  0
 21 48  1  0
 23 49  1  0
 24 50  1  0
 27 51  1  0
M  END
>  <smiles>  (77) 
O=C(NCC(=O)N1CCCCC1c1ccccc1)c1ccc2ccc(F)cc2n1

>  <score_type>  (77) 
oracle

>  <origin>  (77) 
autodockgpu

>  <m_score__min__energy>  (77) 
-8.9299999999999997

>  <m_primary>  (77) 
energy

>  <rmsd>  (77) 
8.235825563165523

>  <m_score__min__rmsd>  (77) 
8.235825563165523

>  <meeko>  (77) 
{"free_energy": -8.1, "intermolecular_energy": -9.59, "internal_energy": -2.03, "cluster_size": 19, "cluster_id": 1, "rank_in_cluster": 18}

>  <energy>  (77) 
-8.51

>  <cluster_rmsd>  (77) 
0.55

>  <cluster>  (77) 
2

$$$$

     RDKit          3D

 51 54  0  0  0  0  0  0  0  0999 V2000
  137.3850   76.0720  222.1800 O   0  0  0  0  0  0  0  0  0  0  0  0
  138.6400   76.1290  222.3580 C   0  0  0  0  0  0  0  0  0  0  0  0
  139.4550   74.9870  222.2720 N   0  0  0  0  0  0  0  0  0  0  0  0
  138.8510   73.7020  221.9690 C   0  0  0  0  0  0  0  0  0  0  0  0
  139.8390   72.6560  222.3470 C   0  0  0  0  0  0  0  0  0  0  0  0
  141.0820   72.8520  222.3610 O   0  0  0  0  0  0  0  0  0  0  0  0
  139.3680   71.3650  222.7140 N   0  0  0  0  0  0  0  0  0  0  0  0
  139.6260   70.2100  221.8750 C   0  0  0  0  0  0  0  0  0  0  0  0
  138.2820   69.8570  221.2420 C   0  0  0  0  0  0  0  0  0  0  0  0
  137.1480   70.3860  222.0890 C   0  0  0  0  0  0  0  0  0  0  0  0
  137.5330   70.1160  223.5470 C   0  0  0  0  0  0  0  0  0  0  0  0
  138.6130   71.1370  223.9320 C   0  0  1  0  0  0  0  0  0  0  0  0
  139.4190   70.4640  224.9900 C   0  0  0  0  0  0  0  0  0  0  0  0
  140.3780   71.1570  225.7180 C   0  0  0  0  0  0  0  0  0  0  0  0
  141.1300   70.5240  226.7060 C   0  0  0  0  0  0  0  0  0  0  0  0
  140.9450   69.1880  226.9930 C   0  0  0  0  0  0  0  0  0  0  0  0
  140.0000   68.4920  226.2810 C   0  0  0  0  0  0  0  0  0  0  0  0
  139.2620   69.1260  225.3040 C   0  0  0  0  0  0  0  0  0  0  0  0
  139.2320   77.4450  222.6650 C   0  0  0  0  0  0  0  0  0  0  0  0
  138.4600   78.5380  222.9030 C   0  0  0  0  0  0  0  0  0  0  0  0
  138.9490   79.7930  223.1940 C   0  0  0  0  0  0  0  0  0  0  0  0
  140.3200   79.9380  223.2450 C   0  0  0  0  0  0  0  0  0  0  0  0
  140.8250   81.1790  223.5330 C   0  0  0  0  0  0  0  0  0  0  0  0
  142.1850   81.3630  223.5930 C   0  0  0  0  0  0  0  0  0  0  0  0
  143.0120   80.2780  223.3570 C   0  0  0  0  0  0  0  0  0  0  0  0
  144.3450   80.5080  223.4270 F   0  0  0  0  0  0  0  0  0  0  0  0
  142.4800   79.0290  223.0670 C   0  0  0  0  0  0  0  0  0  0  0  0
  141.1180   78.8270  223.0030 C   0  0  0  0  0  0  0  0  0  0  0  0
  140.5790   77.6110  222.7200 N   0  0  0  0  0  0  0  0  0  0  0  0
  140.4980   75.0820  222.4270 H   0  0  0  0  0  0  0  0  0  0  0  0
  137.9250   73.5739  222.5488 H   0  0  0  0  0  0  0  0  0  0  0  0
  138.5940   73.6314  220.9018 H   0  0  0  0  0  0  0  0  0  0  0  0
  140.3641   70.4568  221.0976 H   0  0  0  0  0  0  0  0  0  0  0  0
  140.0381   69.3697  222.4530 H   0  0  0  0  0  0  0  0  0  0  0  0
  138.2248   70.3044  220.2387 H   0  0  0  0  0  0  0  0  0  0  0  0
  138.1959   68.7626  221.1722 H   0  0  0  0  0  0  0  0  0  0  0  0
  137.0212   71.4660  221.9230 H   0  0  0  0  0  0  0  0  0  0  0  0
  136.1968   69.8973  221.8312 H   0  0  0  0  0  0  0  0  0  0  0  0
  136.6535   70.2357  224.1967 H   0  0  0  0  0  0  0  0  0  0  0  0
  137.9086   69.0890  223.6662 H   0  0  0  0  0  0  0  0  0  0  0  0
  138.2529   72.1032  224.3151 H   0  0  0  0  0  0  0  0  0  0  0  0
  140.5468   72.2241  225.5110 H   0  0  0  0  0  0  0  0  0  0  0  0
  141.8827   71.0989  227.2654 H   0  0  0  0  0  0  0  0  0  0  0  0
  141.5404   68.6919  227.7737 H   0  0  0  0  0  0  0  0  0  0  0  0
  139.8310   67.4254  226.4905 H   0  0  0  0  0  0  0  0  0  0  0  0
  138.5140   68.5410  224.7488 H   0  0  0  0  0  0  0  0  0  0  0  0
  137.3681   78.4119  222.8603 H   0  0  0  0  0  0  0  0  0  0  0  0
  138.2751   80.6428  223.3778 H   0  0  0  0  0  0  0  0  0  0  0  0
  140.1445   82.0238  223.7153 H   0  0  0  0  0  0  0  0  0  0  0  0
  142.6082   82.3518  223.8237 H   0  0  0  0  0  0  0  0  0  0  0  0
  143.1592   78.1832  222.8846 H   0  0  0  0  0  0  0  0  0  0  0  0
  1  2  2  0
  2  3  1  0
  3  4  1  0
  4  5  1  0
  5  6  2  0
  5  7  1  0
  7  8  1  0
  8  9  1  0
  9 10  1  0
 10 11  1  0
 11 12  1  0
 12 13  1  0
 13 14  2  0
 14 15  1  0
 15 16  2  0
 16 17  1  0
 17 18  2  0
  2 19  1  0
 19 20  2  0
 20 21  1  0
 21 22  2  0
 22 23  1  0
 23 24  2  0
 24 25  1  0
 25 26  1  0
 25 27  2  0
 27 28  1  0
 28 29  2  0
 12  7  1  0
 18 13  1  0
 29 19  1  0
 28 22  1  0
  3 30  1  0
  4 31  1  0
  4 32  1  0
  8 33  1  0
  8 34  1  0
  9 35  1  0
  9 36  1  0
 10 37  1  0
 10 38  1  0
 11 39  1  0
 11 40  1  0
 12 41  1  1
 14 42  1  0
 15 43  1  0
 16 44  1  0
 17 45  1  0
 18 46  1  0
 20 47  1  0
 21 48  1  0
 23 49  1  0
 24 50  1  0
 27 51  1  0
M  END
>  <smiles>  (78) 
O=C(NCC(=O)N1CCCCC1c1ccccc1)c1ccc2ccc(F)cc2n1

>  <score_type>  (78) 
oracle

>  <origin>  (78) 
autodockgpu

>  <m_score__min__energy>  (78) 
-8.9299999999999997

>  <m_primary>  (78) 
energy

>  <rmsd>  (78) 
8.233980178902987

>  <m_score__min__rmsd>  (78) 
8.233980178902987

>  <meeko>  (78) 
{"free_energy": -8.08, "intermolecular_energy": -9.57, "internal_energy": -2.02, "cluster_size": 19, "cluster_id": 1, "rank_in_cluster": 19}

>  <energy>  (78) 
-8.51

>  <cluster_rmsd>  (78) 
0.64

>  <cluster>  (78) 
2

$$$$

     RDKit          3D

 51 54  0  0  0  0  0  0  0  0999 V2000
  141.5700   72.1930  221.5750 O   0  0  0  0  0  0  0  0  0  0  0  0
  140.6130   72.4420  222.3690 C   0  0  0  0  0  0  0  0  0  0  0  0
  139.9150   73.6620  222.3320 N   0  0  0  0  0  0  0  0  0  0  0  0
  140.2950   74.6710  221.3590 C   0  0  0  0  0  0  0  0  0  0  0  0
  139.6960   75.9560  221.8080 C   0  0  0  0  0  0  0  0  0  0  0  0
  138.8670   76.0400  222.7520 O   0  0  0  0  0  0  0  0  0  0  0  0
  140.0690   77.1580  221.1450 N   0  0  0  0  0  0  0  0  0  0  0  0
  139.0760   77.9920  220.4940 C   0  0  0  0  0  0  0  0  0  0  0  0
  139.3070   77.8070  218.9960 C   0  0  0  0  0  0  0  0  0  0  0  0
  140.7250   77.3560  218.7360 C   0  0  0  0  0  0  0  0  0  0  0  0
  141.6200   78.1770  219.6700 C   0  0  0  0  0  0  0  0  0  0  0  0
  141.4470   77.6090  221.0850 C   0  0  1  0  0  0  0  0  0  0  0  0
  141.7160   78.7580  221.9960 C   0  0  0  0  0  0  0  0  0  0  0  0
  141.8990   80.0430  221.5020 C   0  0  0  0  0  0  0  0  0  0  0  0
  142.1500   81.1150  222.3570 C   0  0  0  0  0  0  0  0  0  0  0  0
  142.2250   80.9330  223.7220 C   0  0  0  0  0  0  0  0  0  0  0  0
  142.0450   79.6670  224.2220 C   0  0  0  0  0  0  0  0  0  0  0  0
  141.7980   78.6120  223.3690 C   0  0  0  0  0  0  0  0  0  0  0  0
  140.2430   71.4020  223.3490 C   0  0  0  0  0  0  0  0  0  0  0  0
  139.2810   70.4810  223.0840 C   0  0  0  0  0  0  0  0  0  0  0  0
  138.8890   69.4850  223.9530 C   0  0  0  0  0  0  0  0  0  0  0  0
  139.5260   69.4310  225.1760 C   0  0  0  0  0  0  0  0  0  0  0  0
  139.1500   68.4490  226.0530 C   0  0  0  0  0  0  0  0  0  0  0  0
  139.7620   68.3630  227.2800 C   0  0  0  0  0  0  0  0  0  0  0  0
  140.7480   69.2820  227.5950 C   0  0  0  0  0  0  0  0  0  0  0  0
  141.3220   69.1560  228.8160 F   0  0  0  0  0  0  0  0  0  0  0  0
  141.1150   70.2690  226.6920 C   0  0  0  0  0  0  0  0  0  0  0  0
  140.5110   70.3690  225.4560 C   0  0  0  0  0  0  0  0  0  0  0  0
  140.8570   71.3300  224.5580 N   0  0  0  0  0  0  0  0  0  0  0  0
  139.1210   73.8260  223.0140 H   0  0  0  0  0  0  0  0  0  0  0  0
  141.3905   74.7599  221.3152 H   0  0  0  0  0  0  0  0  0  0  0  0
  139.9376   74.4014  220.3542 H   0  0  0  0  0  0  0  0  0  0  0  0
  138.0615   77.6681  220.7695 H   0  0  0  0  0  0  0  0  0  0  0  0
  139.1682   79.0462  220.7941 H   0  0  0  0  0  0  0  0  0  0  0  0
  138.6088   77.0486  218.6121 H   0  0  0  0  0  0  0  0  0  0  0  0
  139.1378   78.7671  218.4866 H   0  0  0  0  0  0  0  0  0  0  0  0
  140.8290   76.2832  218.9557 H   0  0  0  0  0  0  0  0  0  0  0  0
  141.0040   77.5071  217.6828 H   0  0  0  0  0  0  0  0  0  0  0  0
  142.6707   78.0911  219.3559 H   0  0  0  0  0  0  0  0  0  0  0  0
  141.3408   79.2406  219.6409 H   0  0  0  0  0  0  0  0  0  0  0  0
  142.1082   76.7729  221.3566 H   0  0  0  0  0  0  0  0  0  0  0  0
  141.8450   80.2179  220.4173 H   0  0  0  0  0  0  0  0  0  0  0  0
  142.2904   82.1217  221.9364 H   0  0  0  0  0  0  0  0  0  0  0  0
  142.4241   81.7811  224.3936 H   0  0  0  0  0  0  0  0  0  0  0  0
  142.0980   79.4937  225.3070 H   0  0  0  0  0  0  0  0  0  0  0  0
  141.6600   77.6093  223.7998 H   0  0  0  0  0  0  0  0  0  0  0  0
  138.7789   70.5333  222.1067 H   0  0  0  0  0  0  0  0  0  0  0  0
  138.1027   68.7647  223.6832 H   0  0  0  0  0  0  0  0  0  0  0  0
  138.3622   67.7328  225.7766 H   0  0  0  0  0  0  0  0  0  0  0  0
  139.4744   67.5801  227.9972 H   0  0  0  0  0  0  0  0  0  0  0  0
  141.9029   70.9857  226.9669 H   0  0  0  0  0  0  0  0  0  0  0  0
  1  2  2  0
  2  3  1  0
  3  4  1  0
  4  5  1  0
  5  6  2  0
  5  7  1  0
  7  8  1  0
  8  9  1  0
  9 10  1  0
 10 11  1  0
 11 12  1  0
 12 13  1  0
 13 14  2  0
 14 15  1  0
 15 16  2  0
 16 17  1  0
 17 18  2  0
  2 19  1  0
 19 20  2  0
 20 21  1  0
 21 22  2  0
 22 23  1  0
 23 24  2  0
 24 25  1  0
 25 26  1  0
 25 27  2  0
 27 28  1  0
 28 29  2  0
 12  7  1  0
 18 13  1  0
 29 19  1  0
 28 22  1  0
  3 30  1  0
  4 31  1  0
  4 32  1  0
  8 33  1  0
  8 34  1  0
  9 35  1  0
  9 36  1  0
 10 37  1  0
 10 38  1  0
 11 39  1  0
 11 40  1  0
 12 41  1  1
 14 42  1  0
 15 43  1  0
 16 44  1  0
 17 45  1  0
 18 46  1  0
 20 47  1  0
 21 48  1  0
 23 49  1  0
 24 50  1  0
 27 51  1  0
M  END
>  <smiles>  (79) 
O=C(NCC(=O)N1CCCCC1c1ccccc1)c1ccc2ccc(F)cc2n1

>  <score_type>  (79) 
oracle

>  <origin>  (79) 
autodockgpu

>  <m_score__min__energy>  (79) 
-8.9299999999999997

>  <m_primary>  (79) 
energy

>  <rmsd>  (79) 
2.224537781086358

>  <m_score__min__rmsd>  (79) 
2.224537781086358

>  <meeko>  (79) 
{"free_energy": -8.5, "intermolecular_energy": -10.0, "internal_energy": -1.84, "cluster_size": 26, "cluster_id": 2, "rank_in_cluster": 10}

>  <energy>  (79) 
-8.5

>  <cluster_rmsd>  (79) 
0.6

>  <cluster>  (79) 
2

$$$$

     RDKit          3D

 51 54  0  0  0  0  0  0  0  0999 V2000
  141.1730   72.0710  221.5180 O   0  0  0  0  0  0  0  0  0  0  0  0
  140.2790   72.3380  222.3780 C   0  0  0  0  0  0  0  0  0  0  0  0
  139.5450   73.5360  222.3410 N   0  0  0  0  0  0  0  0  0  0  0  0
  139.8120   74.5030  221.2910 C   0  0  0  0  0  0  0  0  0  0  0  0
  139.5190   75.8480  221.8530 C   0  0  0  0  0  0  0  0  0  0  0  0
  138.8340   76.0290  222.8930 O   0  0  0  0  0  0  0  0  0  0  0  0
  140.0340   76.9970  221.1900 N   0  0  0  0  0  0  0  0  0  0  0  0
  139.2170   77.7500  220.2570 C   0  0  0  0  0  0  0  0  0  0  0  0
  139.7890   77.4430  218.8750 C   0  0  0  0  0  0  0  0  0  0  0  0
  141.2300   77.0040  218.9900 C   0  0  0  0  0  0  0  0  0  0  0  0
  141.8820   77.9220  220.0300 C   0  0  0  0  0  0  0  0  0  0  0  0
  141.3870   77.4720  221.4110 C   0  0  1  0  0  0  0  0  0  0  0  0
  141.4340   78.7010  222.2540 C   0  0  0  0  0  0  0  0  0  0  0  0
  140.3190   79.1360  222.9590 C   0  0  0  0  0  0  0  0  0  0  0  0
  140.3670   80.2850  223.7460 C   0  0  0  0  0  0  0  0  0  0  0  0
  141.5250   81.0270  223.8510 C   0  0  0  0  0  0  0  0  0  0  0  0
  142.6340   80.6070  223.1600 C   0  0  0  0  0  0  0  0  0  0  0  0
  142.5770   79.4700  222.3820 C   0  0  0  0  0  0  0  0  0  0  0  0
  140.0240   71.3410  223.4360 C   0  0  0  0  0  0  0  0  0  0  0  0
  139.1080   70.3500  223.2780 C   0  0  0  0  0  0  0  0  0  0  0  0
  138.8220   69.3890  224.2240 C   0  0  0  0  0  0  0  0  0  0  0  0
  139.5230   69.4480  225.4120 C   0  0  0  0  0  0  0  0  0  0  0  0
  139.2520   68.5020  226.3650 C   0  0  0  0  0  0  0  0  0  0  0  0
  139.9290   68.5280  227.5600 C   0  0  0  0  0  0  0  0  0  0  0  0
  140.8720   69.5210  227.7670 C   0  0  0  0  0  0  0  0  0  0  0  0
  141.5130   69.5050  228.9600 F   0  0  0  0  0  0  0  0  0  0  0  0
  141.1310   70.4690  226.7880 C   0  0  0  0  0  0  0  0  0  0  0  0
  140.4610   70.4580  225.5820 C   0  0  0  0  0  0  0  0  0  0  0  0
  140.7010   71.3800  224.6130 N   0  0  0  0  0  0  0  0  0  0  0  0
  138.8080   73.7150  223.0800 H   0  0  0  0  0  0  0  0  0  0  0  0
  140.8662   74.4441  220.9825 H   0  0  0  0  0  0  0  0  0  0  0  0
  139.1895   74.3034  220.4064 H   0  0  0  0  0  0  0  0  0  0  0  0
  138.1670   77.4281  220.3188 H   0  0  0  0  0  0  0  0  0  0  0  0
  139.2349   78.8278  220.4762 H   0  0  0  0  0  0  0  0  0  0  0  0
  139.2007   76.6387  218.4092 H   0  0  0  0  0  0  0  0  0  0  0  0
  139.7399   78.3519  218.2573 H   0  0  0  0  0  0  0  0  0  0  0  0
  141.2830   75.9564  219.3212 H   0  0  0  0  0  0  0  0  0  0  0  0
  141.7454   77.0715  218.0205 H   0  0  0  0  0  0  0  0  0  0  0  0
  142.9771   77.8340  219.9757 H   0  0  0  0  0  0  0  0  0  0  0  0
  141.6144   78.9726  219.8440 H   0  0  0  0  0  0  0  0  0  0  0  0
  141.9688   76.6773  221.9008 H   0  0  0  0  0  0  0  0  0  0  0  0
  139.3819   78.5636  222.8949 H   0  0  0  0  0  0  0  0  0  0  0  0
  139.4674   80.6052  224.2920 H   0  0  0  0  0  0  0  0  0  0  0  0
  141.5588   81.9333  224.4734 H   0  0  0  0  0  0  0  0  0  0  0  0
  143.5711   81.1791  223.2271 H   0  0  0  0  0  0  0  0  0  0  0  0
  143.4816   79.1602  221.8383 H   0  0  0  0  0  0  0  0  0  0  0  0
  138.5554   70.3118  222.3277 H   0  0  0  0  0  0  0  0  0  0  0  0
  138.0682   68.6092  224.0404 H   0  0  0  0  0  0  0  0  0  0  0  0
  138.4963   67.7257  226.1744 H   0  0  0  0  0  0  0  0  0  0  0  0
  139.7263   67.7757  228.3365 H   0  0  0  0  0  0  0  0  0  0  0  0
  141.8865   71.2459  226.9772 H   0  0  0  0  0  0  0  0  0  0  0  0
  1  2  2  0
  2  3  1  0
  3  4  1  0
  4  5  1  0
  5  6  2  0
  5  7  1  0
  7  8  1  0
  8  9  1  0
  9 10  1  0
 10 11  1  0
 11 12  1  0
 12 13  1  0
 13 14  2  0
 14 15  1  0
 15 16  2  0
 16 17  1  0
 17 18  2  0
  2 19  1  0
 19 20  2  0
 20 21  1  0
 21 22  2  0
 22 23  1  0
 23 24  2  0
 24 25  1  0
 25 26  1  0
 25 27  2  0
 27 28  1  0
 28 29  2  0
 12  7  1  0
 18 13  1  0
 29 19  1  0
 28 22  1  0
  3 30  1  0
  4 31  1  0
  4 32  1  0
  8 33  1  0
  8 34  1  0
  9 35  1  0
  9 36  1  0
 10 37  1  0
 10 38  1  0
 11 39  1  0
 11 40  1  0
 12 41  1  1
 14 42  1  0
 15 43  1  0
 16 44  1  0
 17 45  1  0
 18 46  1  0
 20 47  1  0
 21 48  1  0
 23 49  1  0
 24 50  1  0
 27 51  1  0
M  END
>  <smiles>  (80) 
O=C(NCC(=O)N1CCCCC1c1ccccc1)c1ccc2ccc(F)cc2n1

>  <score_type>  (80) 
oracle

>  <origin>  (80) 
autodockgpu

>  <m_score__min__energy>  (80) 
-8.9299999999999997

>  <m_primary>  (80) 
energy

>  <rmsd>  (80) 
2.0253971468480008

>  <m_score__min__rmsd>  (80) 
2.0253971468480008

>  <meeko>  (80) 
{"free_energy": -8.57, "intermolecular_energy": -10.06, "internal_energy": -1.71, "cluster_size": 26, "cluster_id": 2, "rank_in_cluster": 3}

>  <energy>  (80) 
-8.5

>  <cluster_rmsd>  (80) 
0.63

>  <cluster>  (80) 
2

$$$$

     RDKit          3D

 51 54  0  0  0  0  0  0  0  0999 V2000
  141.4160   72.1100  221.5070 O   0  0  0  0  0  0  0  0  0  0  0  0
  140.4960   72.3680  222.3420 C   0  0  0  0  0  0  0  0  0  0  0  0
  139.8120   73.5960  222.3390 N   0  0  0  0  0  0  0  0  0  0  0  0
  140.1620   74.6040  221.3540 C   0  0  0  0  0  0  0  0  0  0  0  0
  139.7130   75.9150  221.8940 C   0  0  0  0  0  0  0  0  0  0  0  0
  139.0280   76.0320  222.9440 O   0  0  0  0  0  0  0  0  0  0  0  0
  140.0690   77.1040  221.1990 N   0  0  0  0  0  0  0  0  0  0  0  0
  139.0630   77.9050  220.5260 C   0  0  0  0  0  0  0  0  0  0  0  0
  139.2980   77.6820  219.0340 C   0  0  0  0  0  0  0  0  0  0  0  0
  140.7220   77.2460  218.7850 C   0  0  0  0  0  0  0  0  0  0  0  0
  141.6050   78.1060  219.6970 C   0  0  0  0  0  0  0  0  0  0  0  0
  141.4400   77.5730  221.1270 C   0  0  1  0  0  0  0  0  0  0  0  0
  141.6910   78.7500  222.0070 C   0  0  0  0  0  0  0  0  0  0  0  0
  141.7690   78.6160  223.3870 C   0  0  0  0  0  0  0  0  0  0  0  0
  142.0030   79.7190  224.2060 C   0  0  0  0  0  0  0  0  0  0  0  0
  142.1660   80.9800  223.6720 C   0  0  0  0  0  0  0  0  0  0  0  0
  142.0920   81.1250  222.3080 C   0  0  0  0  0  0  0  0  0  0  0  0
  141.8580   80.0290  221.5060 C   0  0  0  0  0  0  0  0  0  0  0  0
  140.1560   71.3290  223.3340 C   0  0  0  0  0  0  0  0  0  0  0  0
  139.2190   70.3790  223.0800 C   0  0  0  0  0  0  0  0  0  0  0  0
  138.8550   69.3820  223.9610 C   0  0  0  0  0  0  0  0  0  0  0  0
  139.4960   69.3580  225.1830 C   0  0  0  0  0  0  0  0  0  0  0  0
  139.1480   68.3750  226.0710 C   0  0  0  0  0  0  0  0  0  0  0  0
  139.7640   68.3190  227.2980 C   0  0  0  0  0  0  0  0  0  0  0  0
  140.7260   69.2670  227.6010 C   0  0  0  0  0  0  0  0  0  0  0  0
  141.3050   69.1700  228.8220 F   0  0  0  0  0  0  0  0  0  0  0  0
  141.0640   70.2540  226.6870 C   0  0  0  0  0  0  0  0  0  0  0  0
  140.4560   70.3250  225.4510 C   0  0  0  0  0  0  0  0  0  0  0  0
  140.7740   71.2860  224.5430 N   0  0  0  0  0  0  0  0  0  0  0  0
  139.0500   73.7670  223.0550 H   0  0  0  0  0  0  0  0  0  0  0  0
  141.2503   74.6141  221.1943 H   0  0  0  0  0  0  0  0  0  0  0  0
  139.6807   74.3921  220.3878 H   0  0  0  0  0  0  0  0  0  0  0  0
  138.0535   77.5732  220.8103 H   0  0  0  0  0  0  0  0  0  0  0  0
  139.1382   78.9684  220.7973 H   0  0  0  0  0  0  0  0  0  0  0  0
  138.6116   76.9026  218.6715 H   0  0  0  0  0  0  0  0  0  0  0  0
  139.1149   78.6255  218.4989 H   0  0  0  0  0  0  0  0  0  0  0  0
  140.8425   76.1812  219.0331 H   0  0  0  0  0  0  0  0  0  0  0  0
  140.9984   77.3730  217.7279 H   0  0  0  0  0  0  0  0  0  0  0  0
  142.6570   78.0277  219.3852 H   0  0  0  0  0  0  0  0  0  0  0  0
  141.3100   79.1642  219.6394 H   0  0  0  0  0  0  0  0  0  0  0  0
  142.1135   76.7543  221.4206 H   0  0  0  0  0  0  0  0  0  0  0  0
  141.6439   77.6221  223.8415 H   0  0  0  0  0  0  0  0  0  0  0  0
  142.0586   79.5816  225.2960 H   0  0  0  0  0  0  0  0  0  0  0  0
  142.3506   81.8480  224.3220 H   0  0  0  0  0  0  0  0  0  0  0  0
  142.2199   82.1190  221.8545 H   0  0  0  0  0  0  0  0  0  0  0  0
  141.8014   80.1777  220.4176 H   0  0  0  0  0  0  0  0  0  0  0  0
  138.7148   70.4067  222.1027 H   0  0  0  0  0  0  0  0  0  0  0  0
  138.0872   68.6384  223.7009 H   0  0  0  0  0  0  0  0  0  0  0  0
  138.3798   67.6346  225.8035 H   0  0  0  0  0  0  0  0  0  0  0  0
  139.4981   67.5370  228.0245 H   0  0  0  0  0  0  0  0  0  0  0  0
  141.8323   70.9949  226.9532 H   0  0  0  0  0  0  0  0  0  0  0  0
  1  2  2  0
  2  3  1  0
  3  4  1  0
  4  5  1  0
  5  6  2  0
  5  7  1  0
  7  8  1  0
  8  9  1  0
  9 10  1  0
 10 11  1  0
 11 12  1  0
 12 13  1  0
 13 14  2  0
 14 15  1  0
 15 16  2  0
 16 17  1  0
 17 18  2  0
  2 19  1  0
 19 20  2  0
 20 21  1  0
 21 22  2  0
 22 23  1  0
 23 24  2  0
 24 25  1  0
 25 26  1  0
 25 27  2  0
 27 28  1  0
 28 29  2  0
 12  7  1  0
 18 13  1  0
 29 19  1  0
 28 22  1  0
  3 30  1  0
  4 31  1  0
  4 32  1  0
  8 33  1  0
  8 34  1  0
  9 35  1  0
  9 36  1  0
 10 37  1  0
 10 38  1  0
 11 39  1  0
 11 40  1  0
 12 41  1  1
 14 42  1  0
 15 43  1  0
 16 44  1  0
 17 45  1  0
 18 46  1  0
 20 47  1  0
 21 48  1  0
 23 49  1  0
 24 50  1  0
 27 51  1  0
M  END
>  <smiles>  (81) 
O=C(NCC(=O)N1CCCCC1c1ccccc1)c1ccc2ccc(F)cc2n1

>  <score_type>  (81) 
oracle

>  <origin>  (81) 
autodockgpu

>  <m_score__min__energy>  (81) 
-8.9299999999999997

>  <m_primary>  (81) 
energy

>  <rmsd>  (81) 
2.1598244765588865

>  <m_score__min__rmsd>  (81) 
2.1598244765588865

>  <meeko>  (81) 
{"free_energy": -8.51, "intermolecular_energy": -10.0, "internal_energy": -1.8, "cluster_size": 26, "cluster_id": 2, "rank_in_cluster": 7}

>  <energy>  (81) 
-8.5

>  <cluster_rmsd>  (81) 
0.61

>  <cluster>  (81) 
2

$$$$

     RDKit          3D

 51 54  0  0  0  0  0  0  0  0999 V2000
  141.3460   73.5220  220.4880 O   0  0  0  0  0  0  0  0  0  0  0  0
  140.6660   74.2430  221.2810 C   0  0  0  0  0  0  0  0  0  0  0  0
  139.6490   73.7050  222.0880 N   0  0  0  0  0  0  0  0  0  0  0  0
  139.3610   72.2840  222.0200 C   0  0  0  0  0  0  0  0  0  0  0  0
  139.8250   71.6840  223.2990 C   0  0  0  0  0  0  0  0  0  0  0  0
  140.6670   72.2350  224.0560 O   0  0  0  0  0  0  0  0  0  0  0  0
  139.3000   70.4240  223.6990 N   0  0  0  0  0  0  0  0  0  0  0  0
  139.4150   69.2600  222.8400 C   0  0  0  0  0  0  0  0  0  0  0  0
  138.0050   69.0010  222.3140 C   0  0  0  0  0  0  0  0  0  0  0  0
  136.9780   69.5980  223.2480 C   0  0  0  0  0  0  0  0  0  0  0  0
  137.4580   69.2930  224.6720 C   0  0  0  0  0  0  0  0  0  0  0  0
  138.6290   70.2380  224.9720 C   0  0  1  0  0  0  0  0  0  0  0  0
  139.4690   69.5060  225.9620 C   0  0  0  0  0  0  0  0  0  0  0  0
  139.6490   68.1300  225.8800 C   0  0  0  0  0  0  0  0  0  0  0  0
  140.4340   67.4490  226.8070 C   0  0  0  0  0  0  0  0  0  0  0  0
  141.0600   68.1190  227.8380 C   0  0  0  0  0  0  0  0  0  0  0  0
  140.8900   69.4780  227.9300 C   0  0  0  0  0  0  0  0  0  0  0  0
  140.1100   70.1440  227.0080 C   0  0  0  0  0  0  0  0  0  0  0  0
  140.9760   75.6850  221.3340 C   0  0  0  0  0  0  0  0  0  0  0  0
  141.8410   76.2630  220.4600 C   0  0  0  0  0  0  0  0  0  0  0  0
  142.1720   77.6000  220.4540 C   0  0  0  0  0  0  0  0  0  0  0  0
  141.5770   78.4000  221.4090 C   0  0  0  0  0  0  0  0  0  0  0  0
  141.8950   79.7320  221.4200 C   0  0  0  0  0  0  0  0  0  0  0  0
  141.3230   80.5590  222.3550 C   0  0  0  0  0  0  0  0  0  0  0  0
  140.4350   80.0150  223.2680 C   0  0  0  0  0  0  0  0  0  0  0  0
  139.8960   80.8710  224.1700 F   0  0  0  0  0  0  0  0  0  0  0  0
  140.1260   78.6630  223.2390 C   0  0  0  0  0  0  0  0  0  0  0  0
  140.6910   77.8180  222.3070 C   0  0  0  0  0  0  0  0  0  0  0  0
  140.4020   76.4910  222.2650 N   0  0  0  0  0  0  0  0  0  0  0  0
  139.1080   74.3460  222.7350 H   0  0  0  0  0  0  0  0  0  0  0  0
  138.2797   72.1233  221.8978 H   0  0  0  0  0  0  0  0  0  0  0  0
  139.8704   71.8211  221.1620 H   0  0  0  0  0  0  0  0  0  0  0  0
  140.1047   69.4631  222.0075 H   0  0  0  0  0  0  0  0  0  0  0  0
  139.8147   68.3903  223.3821 H   0  0  0  0  0  0  0  0  0  0  0  0
  137.8994   69.4580  221.3190 H   0  0  0  0  0  0  0  0  0  0  0  0
  137.8413   67.9151  222.2497 H   0  0  0  0  0  0  0  0  0  0  0  0
  136.9103   70.6851  223.0941 H   0  0  0  0  0  0  0  0  0  0  0  0
  135.9792   69.1751  223.0649 H   0  0  0  0  0  0  0  0  0  0  0  0
  136.6420   69.4656  225.3892 H   0  0  0  0  0  0  0  0  0  0  0  0
  137.7732   68.2428  224.7597 H   0  0  0  0  0  0  0  0  0  0  0  0
  138.3644   71.2233  225.3833 H   0  0  0  0  0  0  0  0  0  0  0  0
  139.1627   67.5691  225.0683 H   0  0  0  0  0  0  0  0  0  0  0  0
  140.5569   66.3597  226.7158 H   0  0  0  0  0  0  0  0  0  0  0  0
  141.6798   67.5777  228.5680 H   0  0  0  0  0  0  0  0  0  0  0  0
  141.3775   70.0377  228.7418 H   0  0  0  0  0  0  0  0  0  0  0  0
  139.9924   71.2330  227.1094 H   0  0  0  0  0  0  0  0  0  0  0  0
  142.3104   75.6172  219.7033 H   0  0  0  0  0  0  0  0  0  0  0  0
  142.8798   78.0125  219.7200 H   0  0  0  0  0  0  0  0  0  0  0  0
  142.6048   80.1372  220.6838 H   0  0  0  0  0  0  0  0  0  0  0  0
  141.5651   81.6318  222.3784 H   0  0  0  0  0  0  0  0  0  0  0  0
  139.4159   78.2566  223.9743 H   0  0  0  0  0  0  0  0  0  0  0  0
  1  2  2  0
  2  3  1  0
  3  4  1  0
  4  5  1  0
  5  6  2  0
  5  7  1  0
  7  8  1  0
  8  9  1  0
  9 10  1  0
 10 11  1  0
 11 12  1  0
 12 13  1  0
 13 14  2  0
 14 15  1  0
 15 16  2  0
 16 17  1  0
 17 18  2  0
  2 19  1  0
 19 20  2  0
 20 21  1  0
 21 22  2  0
 22 23  1  0
 23 24  2  0
 24 25  1  0
 25 26  1  0
 25 27  2  0
 27 28  1  0
 28 29  2  0
 12  7  1  0
 18 13  1  0
 29 19  1  0
 28 22  1  0
  3 30  1  0
  4 31  1  0
  4 32  1  0
  8 33  1  0
  8 34  1  0
  9 35  1  0
  9 36  1  0
 10 37  1  0
 10 38  1  0
 11 39  1  0
 11 40  1  0
 12 41  1  1
 14 42  1  0
 15 43  1  0
 16 44  1  0
 17 45  1  0
 18 46  1  0
 20 47  1  0
 21 48  1  0
 23 49  1  0
 24 50  1  0
 27 51  1  0
M  END
>  <smiles>  (82) 
O=C(NCC(=O)N1CCCCC1c1ccccc1)c1ccc2ccc(F)cc2n1

>  <score_type>  (82) 
oracle

>  <origin>  (82) 
autodockgpu

>  <m_score__min__energy>  (82) 
-8.9299999999999997

>  <m_primary>  (82) 
energy

>  <rmsd>  (82) 
8.303407307419471

>  <m_score__min__rmsd>  (82) 
8.303407307419471

>  <meeko>  (82) 
{"free_energy": -8.36, "intermolecular_energy": -9.85, "internal_energy": -1.58, "cluster_size": 19, "cluster_id": 1, "rank_in_cluster": 8}

>  <energy>  (82) 
-8.5

>  <cluster_rmsd>  (82) 
0.7

>  <cluster>  (82) 
2

$$$$

     RDKit          3D

 51 54  0  0  0  0  0  0  0  0999 V2000
  141.0340   74.3550  221.3620 O   0  0  0  0  0  0  0  0  0  0  0  0
  139.9940   74.7710  221.9580 C   0  0  0  0  0  0  0  0  0  0  0  0
  138.9190   73.9190  222.2610 N   0  0  0  0  0  0  0  0  0  0  0  0
  138.9920   72.5180  221.8840 C   0  0  0  0  0  0  0  0  0  0  0  0
  139.6570   71.8010  223.0040 C   0  0  0  0  0  0  0  0  0  0  0  0
  140.6600   72.2520  223.6160 O   0  0  0  0  0  0  0  0  0  0  0  0
  139.1450   70.5380  223.4130 N   0  0  0  0  0  0  0  0  0  0  0  0
  139.2130   69.3840  222.5360 C   0  0  0  0  0  0  0  0  0  0  0  0
  137.7790   69.1380  222.0740 C   0  0  0  0  0  0  0  0  0  0  0  0
  136.8010   69.7280  223.0620 C   0  0  0  0  0  0  0  0  0  0  0  0
  137.3440   69.4040  224.4580 C   0  0  0  0  0  0  0  0  0  0  0  0
  138.5330   70.3400  224.7140 C   0  0  1  0  0  0  0  0  0  0  0  0
  139.4150   69.5920  225.6550 C   0  0  0  0  0  0  0  0  0  0  0  0
  140.2220   70.2560  226.5710 C   0  0  0  0  0  0  0  0  0  0  0  0
  141.0450   69.5540  227.4490 C   0  0  0  0  0  0  0  0  0  0  0  0
  141.0850   68.1750  227.4370 C   0  0  0  0  0  0  0  0  0  0  0  0
  140.2920   67.5070  226.5370 C   0  0  0  0  0  0  0  0  0  0  0  0
  139.4820   68.2100  225.6710 C   0  0  0  0  0  0  0  0  0  0  0  0
  139.9420   76.1980  222.3320 C   0  0  0  0  0  0  0  0  0  0  0  0
  138.7660   76.8770  222.3950 C   0  0  0  0  0  0  0  0  0  0  0  0
  138.6480   78.2070  222.7370 C   0  0  0  0  0  0  0  0  0  0  0  0
  139.8120   78.8870  223.0340 C   0  0  0  0  0  0  0  0  0  0  0  0
  139.7140   80.2100  223.3750 C   0  0  0  0  0  0  0  0  0  0  0  0
  140.8500   80.9190  223.6770 C   0  0  0  0  0  0  0  0  0  0  0  0
  142.0720   80.2700  223.6250 C   0  0  0  0  0  0  0  0  0  0  0  0
  143.1640   81.0110  223.9320 F   0  0  0  0  0  0  0  0  0  0  0  0
  142.1490   78.9290  223.2780 C   0  0  0  0  0  0  0  0  0  0  0  0
  141.0180   78.2010  222.9720 C   0  0  0  0  0  0  0  0  0  0  0  0
  141.0740   76.8870  222.6280 N   0  0  0  0  0  0  0  0  0  0  0  0
  138.0710   74.3110  222.7610 H   0  0  0  0  0  0  0  0  0  0  0  0
  137.9804   72.1161  221.7258 H   0  0  0  0  0  0  0  0  0  0  0  0
  139.5553   72.3921  220.9476 H   0  0  0  0  0  0  0  0  0  0  0  0
  139.8639   69.5937  221.6744 H   0  0  0  0  0  0  0  0  0  0  0  0
  139.6330   68.5060  223.0486 H   0  0  0  0  0  0  0  0  0  0  0  0
  137.6291   69.6076  221.0906 H   0  0  0  0  0  0  0  0  0  0  0  0
  137.6068   68.0538  222.0044 H   0  0  0  0  0  0  0  0  0  0  0  0
  136.7322   70.8172  222.9244 H   0  0  0  0  0  0  0  0  0  0  0  0
  135.7928   69.3115  222.9208 H   0  0  0  0  0  0  0  0  0  0  0  0
  136.5629   69.5723  225.2141 H   0  0  0  0  0  0  0  0  0  0  0  0
  137.6570   68.3512  224.5193 H   0  0  0  0  0  0  0  0  0  0  0  0
  138.2930   71.3214  225.1489 H   0  0  0  0  0  0  0  0  0  0  0  0
  140.2108   71.3555  226.6034 H   0  0  0  0  0  0  0  0  0  0  0  0
  141.6726   70.1078  228.1628 H   0  0  0  0  0  0  0  0  0  0  0  0
  141.7363   67.6242  228.1315 H   0  0  0  0  0  0  0  0  0  0  0  0
  140.3031   66.4075  226.5069 H   0  0  0  0  0  0  0  0  0  0  0  0
  138.8602   67.6463  224.9599 H   0  0  0  0  0  0  0  0  0  0  0  0
  137.8441   76.3265  222.1563 H   0  0  0  0  0  0  0  0  0  0  0  0
  137.6680   78.7053  222.7718 H   0  0  0  0  0  0  0  0  0  0  0  0
  138.7305   80.7016  223.4067 H   0  0  0  0  0  0  0  0  0  0  0  0
  140.7907   81.9817  223.9548 H   0  0  0  0  0  0  0  0  0  0  0  0
  143.1319   78.4362  223.2462 H   0  0  0  0  0  0  0  0  0  0  0  0
  1  2  2  0
  2  3  1  0
  3  4  1  0
  4  5  1  0
  5  6  2  0
  5  7  1  0
  7  8  1  0
  8  9  1  0
  9 10  1  0
 10 11  1  0
 11 12  1  0
 12 13  1  0
 13 14  2  0
 14 15  1  0
 15 16  2  0
 16 17  1  0
 17 18  2  0
  2 19  1  0
 19 20  2  0
 20 21  1  0
 21 22  2  0
 22 23  1  0
 23 24  2  0
 24 25  1  0
 25 26  1  0
 25 27  2  0
 27 28  1  0
 28 29  2  0
 12  7  1  0
 18 13  1  0
 29 19  1  0
 28 22  1  0
  3 30  1  0
  4 31  1  0
  4 32  1  0
  8 33  1  0
  8 34  1  0
  9 35  1  0
  9 36  1  0
 10 37  1  0
 10 38  1  0
 11 39  1  0
 11 40  1  0
 12 41  1  1
 14 42  1  0
 15 43  1  0
 16 44  1  0
 17 45  1  0
 18 46  1  0
 20 47  1  0
 21 48  1  0
 23 49  1  0
 24 50  1  0
 27 51  1  0
M  END
>  <smiles>  (83) 
O=C(NCC(=O)N1CCCCC1c1ccccc1)c1ccc2ccc(F)cc2n1

>  <score_type>  (83) 
oracle

>  <origin>  (83) 
autodockgpu

>  <m_score__min__energy>  (83) 
-8.9299999999999997

>  <m_primary>  (83) 
energy

>  <rmsd>  (83) 
8.117748407608167

>  <m_score__min__rmsd>  (83) 
8.117748407608167

>  <meeko>  (83) 
{"free_energy": -8.93, "intermolecular_energy": -10.42, "internal_energy": -1.3, "cluster_size": 19, "cluster_id": 1, "rank_in_cluster": 2}

>  <energy>  (83) 
-8.5

>  <cluster_rmsd>  (83) 
0.53

>  <cluster>  (83) 
2

$$$$

     RDKit          3D

 51 54  0  0  0  0  0  0  0  0999 V2000
  141.6340   72.0310  221.5890 O   0  0  0  0  0  0  0  0  0  0  0  0
  140.6710   72.2730  222.3790 C   0  0  0  0  0  0  0  0  0  0  0  0
  139.9760   73.4940  222.3520 N   0  0  0  0  0  0  0  0  0  0  0  0
  140.3650   74.5140  221.3940 C   0  0  0  0  0  0  0  0  0  0  0  0
  139.7180   75.7830  221.8230 C   0  0  0  0  0  0  0  0  0  0  0  0
  138.8640   75.8460  222.7460 O   0  0  0  0  0  0  0  0  0  0  0  0
  140.0720   76.9930  221.1640 N   0  0  0  0  0  0  0  0  0  0  0  0
  139.0630   77.8280  220.5410 C   0  0  0  0  0  0  0  0  0  0  0  0
  139.2660   77.6580  219.0370 C   0  0  0  0  0  0  0  0  0  0  0  0
  140.6810   77.2170  218.7450 C   0  0  0  0  0  0  0  0  0  0  0  0
  141.5900   78.0340  219.6700 C   0  0  0  0  0  0  0  0  0  0  0  0
  141.4470   77.4510  221.0820 C   0  0  1  0  0  0  0  0  0  0  0  0
  141.7280   78.5930  221.9990 C   0  0  0  0  0  0  0  0  0  0  0  0
  141.5250   78.4850  223.3690 C   0  0  0  0  0  0  0  0  0  0  0  0
  141.7880   79.5550  224.2230 C   0  0  0  0  0  0  0  0  0  0  0  0
  142.2590   80.7550  223.7340 C   0  0  0  0  0  0  0  0  0  0  0  0
  142.4640   80.8740  222.3820 C   0  0  0  0  0  0  0  0  0  0  0  0
  142.1990   79.8110  221.5440 C   0  0  0  0  0  0  0  0  0  0  0  0
  140.2930   71.2220  223.3440 C   0  0  0  0  0  0  0  0  0  0  0  0
  139.3650   70.2760  223.0430 C   0  0  0  0  0  0  0  0  0  0  0  0
  138.9680   69.2700  223.8970 C   0  0  0  0  0  0  0  0  0  0  0  0
  139.5620   69.2290  225.1410 C   0  0  0  0  0  0  0  0  0  0  0  0
  139.1790   68.2360  226.0040 C   0  0  0  0  0  0  0  0  0  0  0  0
  139.7480   68.1630  227.2520 C   0  0  0  0  0  0  0  0  0  0  0  0
  140.6990   69.1060  227.6030 C   0  0  0  0  0  0  0  0  0  0  0  0
  141.2320   68.9930  228.8440 F   0  0  0  0  0  0  0  0  0  0  0  0
  141.0730   70.1040  226.7150 C   0  0  0  0  0  0  0  0  0  0  0  0
  140.5120   70.1920  225.4580 C   0  0  0  0  0  0  0  0  0  0  0  0
  140.8650   71.1630  224.5750 N   0  0  0  0  0  0  0  0  0  0  0  0
  139.1780   73.6520  223.0310 H   0  0  0  0  0  0  0  0  0  0  0  0
  141.4588   74.6304  221.3894 H   0  0  0  0  0  0  0  0  0  0  0  0
  140.0507   74.2374  220.3768 H   0  0  0  0  0  0  0  0  0  0  0  0
  138.0556   77.4966  220.8330 H   0  0  0  0  0  0  0  0  0  0  0  0
  139.1558   78.8798  220.8494 H   0  0  0  0  0  0  0  0  0  0  0  0
  138.5644   76.8994  218.6597 H   0  0  0  0  0  0  0  0  0  0  0  0
  139.0821   78.6220  218.5401 H   0  0  0  0  0  0  0  0  0  0  0  0
  140.7948   76.1427  218.9521 H   0  0  0  0  0  0  0  0  0  0  0  0
  140.9387   77.3798  217.6881 H   0  0  0  0  0  0  0  0  0  0  0  0
  142.6349   77.9568  219.3350 H   0  0  0  0  0  0  0  0  0  0  0  0
  141.3051   79.0964  219.6568 H   0  0  0  0  0  0  0  0  0  0  0  0
  142.1170   76.6153  221.3325 H   0  0  0  0  0  0  0  0  0  0  0  0
  141.1503   77.5390  223.7871 H   0  0  0  0  0  0  0  0  0  0  0  0
  141.6171   79.4402  225.3036 H   0  0  0  0  0  0  0  0  0  0  0  0
  142.4656   81.5969  224.4111 H   0  0  0  0  0  0  0  0  0  0  0  0
  142.8407   81.8199  221.9656 H   0  0  0  0  0  0  0  0  0  0  0  0
  142.3701   79.9378  220.4648 H   0  0  0  0  0  0  0  0  0  0  0  0
  138.8980   70.3161  222.0479 H   0  0  0  0  0  0  0  0  0  0  0  0
  138.2096   68.5311  223.5991 H   0  0  0  0  0  0  0  0  0  0  0  0
  138.4196   67.5010  225.6989 H   0  0  0  0  0  0  0  0  0  0  0  0
  139.4543   67.3720  227.9577 H   0  0  0  0  0  0  0  0  0  0  0  0
  141.8320   70.8397  227.0193 H   0  0  0  0  0  0  0  0  0  0  0  0
  1  2  2  0
  2  3  1  0
  3  4  1  0
  4  5  1  0
  5  6  2  0
  5  7  1  0
  7  8  1  0
  8  9  1  0
  9 10  1  0
 10 11  1  0
 11 12  1  0
 12 13  1  0
 13 14  2  0
 14 15  1  0
 15 16  2  0
 16 17  1  0
 17 18  2  0
  2 19  1  0
 19 20  2  0
 20 21  1  0
 21 22  2  0
 22 23  1  0
 23 24  2  0
 24 25  1  0
 25 26  1  0
 25 27  2  0
 27 28  1  0
 28 29  2  0
 12  7  1  0
 18 13  1  0
 29 19  1  0
 28 22  1  0
  3 30  1  0
  4 31  1  0
  4 32  1  0
  8 33  1  0
  8 34  1  0
  9 35  1  0
  9 36  1  0
 10 37  1  0
 10 38  1  0
 11 39  1  0
 11 40  1  0
 12 41  1  6
 14 42  1  0
 15 43  1  0
 16 44  1  0
 17 45  1  0
 18 46  1  0
 20 47  1  0
 21 48  1  0
 23 49  1  0
 24 50  1  0
 27 51  1  0
M  END
>  <smiles>  (84) 
O=C(NCC(=O)N1CCCCC1c1ccccc1)c1ccc2ccc(F)cc2n1

>  <score_type>  (84) 
oracle

>  <origin>  (84) 
autodockgpu

>  <m_score__min__energy>  (84) 
-8.9299999999999997

>  <m_primary>  (84) 
energy

>  <rmsd>  (84) 
2.179579220866762

>  <m_score__min__rmsd>  (84) 
2.179579220866762

>  <meeko>  (84) 
{"free_energy": -8.49, "intermolecular_energy": -9.99, "internal_energy": -1.84, "cluster_size": 26, "cluster_id": 2, "rank_in_cluster": 16}

>  <energy>  (84) 
-8.5

>  <cluster_rmsd>  (84) 
0.71

>  <cluster>  (84) 
2

$$$$

     RDKit          3D

 51 54  0  0  0  0  0  0  0  0999 V2000
  141.3110   72.1890  221.4320 O   0  0  0  0  0  0  0  0  0  0  0  0
  140.4180   72.4650  222.2910 C   0  0  0  0  0  0  0  0  0  0  0  0
  139.7310   73.6910  222.2810 N   0  0  0  0  0  0  0  0  0  0  0  0
  140.0460   74.6760  221.2610 C   0  0  0  0  0  0  0  0  0  0  0  0
  139.6350   76.0010  221.7960 C   0  0  0  0  0  0  0  0  0  0  0  0
  138.9240   76.1420  222.8240 O   0  0  0  0  0  0  0  0  0  0  0  0
  140.0620   77.1780  221.1180 N   0  0  0  0  0  0  0  0  0  0  0  0
  139.1120   78.0230  220.4190 C   0  0  0  0  0  0  0  0  0  0  0  0
  139.3840   77.7980  218.9330 C   0  0  0  0  0  0  0  0  0  0  0  0
  140.7970   77.3040  218.7270 C   0  0  0  0  0  0  0  0  0  0  0  0
  141.6850   78.1220  219.6720 C   0  0  0  0  0  0  0  0  0  0  0  0
  141.4530   77.5910  221.0920 C   0  0  1  0  0  0  0  0  0  0  0  0
  141.7240   78.7520  221.9860 C   0  0  0  0  0  0  0  0  0  0  0  0
  141.8940   80.0330  221.4750 C   0  0  0  0  0  0  0  0  0  0  0  0
  142.1480   81.1170  222.3130 C   0  0  0  0  0  0  0  0  0  0  0  0
  142.2380   80.9520  223.6800 C   0  0  0  0  0  0  0  0  0  0  0  0
  142.0720   79.6910  224.1970 C   0  0  0  0  0  0  0  0  0  0  0  0
  141.8220   78.6250  223.3600 C   0  0  0  0  0  0  0  0  0  0  0  0
  140.1150   71.4490  223.3180 C   0  0  0  0  0  0  0  0  0  0  0  0
  139.1720   70.4910  223.1180 C   0  0  0  0  0  0  0  0  0  0  0  0
  138.8410   69.5150  224.0330 C   0  0  0  0  0  0  0  0  0  0  0  0
  139.5210   69.5220  225.2330 C   0  0  0  0  0  0  0  0  0  0  0  0
  139.2050   68.5590  226.1560 C   0  0  0  0  0  0  0  0  0  0  0  0
  139.8620   68.5340  227.3630 C   0  0  0  0  0  0  0  0  0  0  0  0
  140.8310   69.4910  227.6120 C   0  0  0  0  0  0  0  0  0  0  0  0
  141.4500   69.4240  228.8150 F   0  0  0  0  0  0  0  0  0  0  0  0
  141.1360   70.4560  226.6630 C   0  0  0  0  0  0  0  0  0  0  0  0
  140.4870   70.4970  225.4470 C   0  0  0  0  0  0  0  0  0  0  0  0
  140.7720   71.4360  224.5060 N   0  0  0  0  0  0  0  0  0  0  0  0
  138.9930   73.8770  223.0170 H   0  0  0  0  0  0  0  0  0  0  0  0
  141.1259   74.6713  221.0518 H   0  0  0  0  0  0  0  0  0  0  0  0
  139.5197   74.4511  220.3216 H   0  0  0  0  0  0  0  0  0  0  0  0
  138.0812   77.7320  220.6697 H   0  0  0  0  0  0  0  0  0  0  0  0
  139.2229   79.0810  220.6991 H   0  0  0  0  0  0  0  0  0  0  0  0
  138.6777   77.0497  218.5441 H   0  0  0  0  0  0  0  0  0  0  0  0
  139.2566   78.7506  218.3979 H   0  0  0  0  0  0  0  0  0  0  0  0
  140.8652   76.2339  218.9723 H   0  0  0  0  0  0  0  0  0  0  0  0
  141.1124   77.4246  217.6801 H   0  0  0  0  0  0  0  0  0  0  0  0
  142.7422   78.0013  219.3933 H   0  0  0  0  0  0  0  0  0  0  0  0
  141.4356   79.1916  219.6113 H   0  0  0  0  0  0  0  0  0  0  0  0
  142.0829   76.7442  221.4022 H   0  0  0  0  0  0  0  0  0  0  0  0
  141.8268   80.1943  220.3890 H   0  0  0  0  0  0  0  0  0  0  0  0
  142.2787   82.1190  221.8784 H   0  0  0  0  0  0  0  0  0  0  0  0
  142.4378   81.8096  224.3392 H   0  0  0  0  0  0  0  0  0  0  0  0
  142.1388   79.5309  225.2832 H   0  0  0  0  0  0  0  0  0  0  0  0
  141.6945   77.6272  223.8051 H   0  0  0  0  0  0  0  0  0  0  0  0
  138.6350   70.4949  222.1580 H   0  0  0  0  0  0  0  0  0  0  0  0
  138.0681   68.7631  223.8157 H   0  0  0  0  0  0  0  0  0  0  0  0
  138.4304   67.8108  225.9320 H   0  0  0  0  0  0  0  0  0  0  0  0
  139.6227   67.7688  228.1162 H   0  0  0  0  0  0  0  0  0  0  0  0
  141.9115   71.2038  226.8852 H   0  0  0  0  0  0  0  0  0  0  0  0
  1  2  2  0
  2  3  1  0
  3  4  1  0
  4  5  1  0
  5  6  2  0
  5  7  1  0
  7  8  1  0
  8  9  1  0
  9 10  1  0
 10 11  1  0
 11 12  1  0
 12 13  1  0
 13 14  2  0
 14 15  1  0
 15 16  2  0
 16 17  1  0
 17 18  2  0
  2 19  1  0
 19 20  2  0
 20 21  1  0
 21 22  2  0
 22 23  1  0
 23 24  2  0
 24 25  1  0
 25 26  1  0
 25 27  2  0
 27 28  1  0
 28 29  2  0
 12  7  1  0
 18 13  1  0
 29 19  1  0
 28 22  1  0
  3 30  1  0
  4 31  1  0
  4 32  1  0
  8 33  1  0
  8 34  1  0
  9 35  1  0
  9 36  1  0
 10 37  1  0
 10 38  1  0
 11 39  1  0
 11 40  1  0
 12 41  1  1
 14 42  1  0
 15 43  1  0
 16 44  1  0
 17 45  1  0
 18 46  1  0
 20 47  1  0
 21 48  1  0
 23 49  1  0
 24 50  1  0
 27 51  1  0
M  END
>  <smiles>  (85) 
O=C(NCC(=O)N1CCCCC1c1ccccc1)c1ccc2ccc(F)cc2n1

>  <score_type>  (85) 
oracle

>  <origin>  (85) 
autodockgpu

>  <m_score__min__energy>  (85) 
-8.9299999999999997

>  <m_primary>  (85) 
energy

>  <rmsd>  (85) 
2.1505949622716405

>  <m_score__min__rmsd>  (85) 
2.1505949622716405

>  <meeko>  (85) 
{"free_energy": -8.52, "intermolecular_energy": -10.01, "internal_energy": -1.81, "cluster_size": 26, "cluster_id": 2, "rank_in_cluster": 5}

>  <energy>  (85) 
-8.49

>  <cluster_rmsd>  (85) 
0.69

>  <cluster>  (85) 
2

$$$$

     RDKit          3D

 51 54  0  0  0  0  0  0  0  0999 V2000
  139.7970   71.7300  220.8660 O   0  0  0  0  0  0  0  0  0  0  0  0
  139.7160   72.1730  222.0520 C   0  0  0  0  0  0  0  0  0  0  0  0
  139.6020   73.5470  222.3260 N   0  0  0  0  0  0  0  0  0  0  0  0
  139.5750   74.4930  221.2260 C   0  0  0  0  0  0  0  0  0  0  0  0
  139.5860   75.8550  221.8220 C   0  0  0  0  0  0  0  0  0  0  0  0
  139.1930   76.1010  222.9930 O   0  0  0  0  0  0  0  0  0  0  0  0
  140.0620   76.9450  221.0410 N   0  0  0  0  0  0  0  0  0  0  0  0
  139.1690   77.6850  220.1690 C   0  0  0  0  0  0  0  0  0  0  0  0
  139.5610   77.2820  218.7490 C   0  0  0  0  0  0  0  0  0  0  0  0
  140.9870   76.7860  218.7190 C   0  0  0  0  0  0  0  0  0  0  0  0
  141.7930   77.7260  219.6220 C   0  0  0  0  0  0  0  0  0  0  0  0
  141.4490   77.3700  221.0750 C   0  0  1  0  0  0  0  0  0  0  0  0
  141.6440   78.6360  221.8370 C   0  0  0  0  0  0  0  0  0  0  0  0
  141.6540   79.8690  221.1970 C   0  0  0  0  0  0  0  0  0  0  0  0
  141.8370   81.0510  221.9130 C   0  0  0  0  0  0  0  0  0  0  0  0
  142.0130   81.0340  223.2800 C   0  0  0  0  0  0  0  0  0  0  0  0
  142.0050   79.8210  223.9240 C   0  0  0  0  0  0  0  0  0  0  0  0
  141.8250   78.6570  223.2080 C   0  0  0  0  0  0  0  0  0  0  0  0
  139.7450   71.1930  223.1560 C   0  0  0  0  0  0  0  0  0  0  0  0
  139.1490   69.9770  223.0460 C   0  0  0  0  0  0  0  0  0  0  0  0
  139.1400   69.0180  224.0360 C   0  0  0  0  0  0  0  0  0  0  0  0
  139.7840   69.3260  225.2170 C   0  0  0  0  0  0  0  0  0  0  0  0
  139.7840   68.3850  226.2130 C   0  0  0  0  0  0  0  0  0  0  0  0
  140.4150   68.6560  227.4030 C   0  0  0  0  0  0  0  0  0  0  0  0
  141.0360   69.8840  227.5610 C   0  0  0  0  0  0  0  0  0  0  0  0
  141.6440   70.1040  228.7510 F   0  0  0  0  0  0  0  0  0  0  0  0
  141.0240   70.8220  226.5390 C   0  0  0  0  0  0  0  0  0  0  0  0
  140.3950   70.5670  225.3380 C   0  0  0  0  0  0  0  0  0  0  0  0
  140.3730   71.4750  224.3270 N   0  0  0  0  0  0  0  0  0  0  0  0
  139.5370   73.8710  223.3330 H   0  0  0  0  0  0  0  0  0  0  0  0
  140.4590   74.3536  220.5864 H   0  0  0  0  0  0  0  0  0  0  0  0
  138.6804   74.3448  220.6033 H   0  0  0  0  0  0  0  0  0  0  0  0
  138.1222   77.4138  220.3707 H   0  0  0  0  0  0  0  0  0  0  0  0
  139.2536   78.7708  220.3237 H   0  0  0  0  0  0  0  0  0  0  0  0
  138.8912   76.4818  218.4011 H   0  0  0  0  0  0  0  0  0  0  0  0
  139.4738   78.1595  218.0914 H   0  0  0  0  0  0  0  0  0  0  0  0
  141.0391   75.7555  219.1001 H   0  0  0  0  0  0  0  0  0  0  0  0
  141.3851   76.7807  217.6936 H   0  0  0  0  0  0  0  0  0  0  0  0
  142.8697   77.5864  219.4451 H   0  0  0  0  0  0  0  0  0  0  0  0
  141.5458   78.7766  219.4096 H   0  0  0  0  0  0  0  0  0  0  0  0
  142.0542   76.5760  221.5370 H   0  0  0  0  0  0  0  0  0  0  0  0
  141.5152   79.9133  220.1067 H   0  0  0  0  0  0  0  0  0  0  0  0
  141.8410   82.0125  221.3786 H   0  0  0  0  0  0  0  0  0  0  0  0
  142.1563   81.9691  223.8413 H   0  0  0  0  0  0  0  0  0  0  0  0
  142.1427   79.7782  225.0145 H   0  0  0  0  0  0  0  0  0  0  0  0
  141.8253   77.7009  223.7520 H   0  0  0  0  0  0  0  0  0  0  0  0
  138.6380   69.7414  222.1009 H   0  0  0  0  0  0  0  0  0  0  0  0
  138.6408   68.0486  223.8909 H   0  0  0  0  0  0  0  0  0  0  0  0
  139.2817   67.4183  226.0607 H   0  0  0  0  0  0  0  0  0  0  0  0
  140.4268   67.9128  228.2139 H   0  0  0  0  0  0  0  0  0  0  0  0
  141.5264   71.7890  226.6894 H   0  0  0  0  0  0  0  0  0  0  0  0
  1  2  2  0
  2  3  1  0
  3  4  1  0
  4  5  1  0
  5  6  2  0
  5  7  1  0
  7  8  1  0
  8  9  1  0
  9 10  1  0
 10 11  1  0
 11 12  1  0
 12 13  1  0
 13 14  2  0
 14 15  1  0
 15 16  2  0
 16 17  1  0
 17 18  2  0
  2 19  1  0
 19 20  2  0
 20 21  1  0
 21 22  2  0
 22 23  1  0
 23 24  2  0
 24 25  1  0
 25 26  1  0
 25 27  2  0
 27 28  1  0
 28 29  2  0
 12  7  1  0
 18 13  1  0
 29 19  1  0
 28 22  1  0
  3 30  1  0
  4 31  1  0
  4 32  1  0
  8 33  1  0
  8 34  1  0
  9 35  1  0
  9 36  1  0
 10 37  1  0
 10 38  1  0
 11 39  1  0
 11 40  1  0
 12 41  1  1
 14 42  1  0
 15 43  1  0
 16 44  1  0
 17 45  1  0
 18 46  1  0
 20 47  1  0
 21 48  1  0
 23 49  1  0
 24 50  1  0
 27 51  1  0
M  END
>  <smiles>  (86) 
O=C(NCC(=O)N1CCCCC1c1ccccc1)c1ccc2ccc(F)cc2n1

>  <score_type>  (86) 
oracle

>  <origin>  (86) 
autodockgpu

>  <m_score__min__energy>  (86) 
-8.9299999999999997

>  <m_primary>  (86) 
energy

>  <rmsd>  (86) 
1.7845144941073965

>  <m_score__min__rmsd>  (86) 
1.7845144941073965

>  <meeko>  (86) 
{"free_energy": -8.17, "intermolecular_energy": -9.66, "internal_energy": -1.92, "cluster_size": 26, "cluster_id": 2, "rank_in_cluster": 26}

>  <energy>  (86) 
-8.49

>  <cluster_rmsd>  (86) 
0.6

>  <cluster>  (86) 
2

$$$$

     RDKit          3D

 51 54  0  0  0  0  0  0  0  0999 V2000
  141.1770   72.2420  221.4950 O   0  0  0  0  0  0  0  0  0  0  0  0
  140.3140   72.5620  222.3680 C   0  0  0  0  0  0  0  0  0  0  0  0
  139.6390   73.7940  222.3300 N   0  0  0  0  0  0  0  0  0  0  0  0
  139.9310   74.7340  221.2620 C   0  0  0  0  0  0  0  0  0  0  0  0
  139.5440   76.0830  221.7520 C   0  0  0  0  0  0  0  0  0  0  0  0
  138.7820   76.2700  222.7370 O   0  0  0  0  0  0  0  0  0  0  0  0
  140.0530   77.2310  221.0820 N   0  0  0  0  0  0  0  0  0  0  0  0
  139.1750   78.1080  220.3310 C   0  0  0  0  0  0  0  0  0  0  0  0
  139.5030   77.8520  218.8620 C   0  0  0  0  0  0  0  0  0  0  0  0
  140.9000   77.2920  218.7250 C   0  0  0  0  0  0  0  0  0  0  0  0
  141.7800   78.0820  219.7000 C   0  0  0  0  0  0  0  0  0  0  0  0
  141.4610   77.5800  221.1140 C   0  0  1  0  0  0  0  0  0  0  0  0
  141.7450   78.7400  222.0070 C   0  0  0  0  0  0  0  0  0  0  0  0
  141.9250   80.0180  221.4940 C   0  0  0  0  0  0  0  0  0  0  0  0
  142.1910   81.1000  222.3310 C   0  0  0  0  0  0  0  0  0  0  0  0
  142.2830   80.9360  223.6980 C   0  0  0  0  0  0  0  0  0  0  0  0
  142.1060   79.6770  224.2170 C   0  0  0  0  0  0  0  0  0  0  0  0
  141.8450   78.6120  223.3810 C   0  0  0  0  0  0  0  0  0  0  0  0
  140.0320   71.5910  223.4450 C   0  0  0  0  0  0  0  0  0  0  0  0
  139.0320   70.6780  223.3390 C   0  0  0  0  0  0  0  0  0  0  0  0
  138.7180   69.7460  224.3050 C   0  0  0  0  0  0  0  0  0  0  0  0
  139.4790   69.7510  225.4550 C   0  0  0  0  0  0  0  0  0  0  0  0
  139.1810   68.8320  226.4270 C   0  0  0  0  0  0  0  0  0  0  0  0
  139.9170   68.8060  227.5860 C   0  0  0  0  0  0  0  0  0  0  0  0
  140.9470   69.7180  227.7390 C   0  0  0  0  0  0  0  0  0  0  0  0
  141.6450   69.6530  228.8990 F   0  0  0  0  0  0  0  0  0  0  0  0
  141.2330   70.6410  226.7420 C   0  0  0  0  0  0  0  0  0  0  0  0
  140.5040   70.6810  225.5720 C   0  0  0  0  0  0  0  0  0  0  0  0
  140.7690   71.5780  224.5850 N   0  0  0  0  0  0  0  0  0  0  0  0
  138.9250   74.0180  223.0800 H   0  0  0  0  0  0  0  0  0  0  0  0
  141.0045   74.7126  221.0230 H   0  0  0  0  0  0  0  0  0  0  0  0
  139.3764   74.4744  220.3482 H   0  0  0  0  0  0  0  0  0  0  0  0
  138.1219   77.8666  220.5376 H   0  0  0  0  0  0  0  0  0  0  0  0
  139.3211   79.1635  220.6041 H   0  0  0  0  0  0  0  0  0  0  0  0
  138.7814   77.1314  218.4496 H   0  0  0  0  0  0  0  0  0  0  0  0
  139.4437   78.8026  218.3118 H   0  0  0  0  0  0  0  0  0  0  0  0
  140.9087   76.2232  218.9850 H   0  0  0  0  0  0  0  0  0  0  0  0
  141.2671   77.3838  217.6921 H   0  0  0  0  0  0  0  0  0  0  0  0
  142.8422   77.9113  219.4709 H   0  0  0  0  0  0  0  0  0  0  0  0
  141.5816   79.1607  219.6163 H   0  0  0  0  0  0  0  0  0  0  0  0
  142.0369   76.7095  221.4613 H   0  0  0  0  0  0  0  0  0  0  0  0
  141.8564   80.1790  220.4080 H   0  0  0  0  0  0  0  0  0  0  0  0
  142.3298   82.1004  221.8951 H   0  0  0  0  0  0  0  0  0  0  0  0
  142.4929   81.7924  224.3556 H   0  0  0  0  0  0  0  0  0  0  0  0
  142.1727   79.5176  225.3033 H   0  0  0  0  0  0  0  0  0  0  0  0
  141.7102   77.6154  223.8267 H   0  0  0  0  0  0  0  0  0  0  0  0
  138.4306   70.6826  222.4180 H   0  0  0  0  0  0  0  0  0  0  0  0
  137.8957   69.0291  224.1645 H   0  0  0  0  0  0  0  0  0  0  0  0
  138.3565   68.1189  226.2795 H   0  0  0  0  0  0  0  0  0  0  0  0
  139.6926   68.0752  228.3769 H   0  0  0  0  0  0  0  0  0  0  0  0
  142.0574   71.3545  226.8882 H   0  0  0  0  0  0  0  0  0  0  0  0
  1  2  2  0
  2  3  1  0
  3  4  1  0
  4  5  1  0
  5  6  2  0
  5  7  1  0
  7  8  1  0
  8  9  1  0
  9 10  1  0
 10 11  1  0
 11 12  1  0
 12 13  1  0
 13 14  2  0
 14 15  1  0
 15 16  2  0
 16 17  1  0
 17 18  2  0
  2 19  1  0
 19 20  2  0
 20 21  1  0
 21 22  2  0
 22 23  1  0
 23 24  2  0
 24 25  1  0
 25 26  1  0
 25 27  2  0
 27 28  1  0
 28 29  2  0
 12  7  1  0
 18 13  1  0
 29 19  1  0
 28 22  1  0
  3 30  1  0
  4 31  1  0
  4 32  1  0
  8 33  1  0
  8 34  1  0
  9 35  1  0
  9 36  1  0
 10 37  1  0
 10 38  1  0
 11 39  1  0
 11 40  1  0
 12 41  1  1
 14 42  1  0
 15 43  1  0
 16 44  1  0
 17 45  1  0
 18 46  1  0
 20 47  1  0
 21 48  1  0
 23 49  1  0
 24 50  1  0
 27 51  1  0
M  END
>  <smiles>  (87) 
O=C(NCC(=O)N1CCCCC1c1ccccc1)c1ccc2ccc(F)cc2n1

>  <score_type>  (87) 
oracle

>  <origin>  (87) 
autodockgpu

>  <m_score__min__energy>  (87) 
-8.9299999999999997

>  <m_primary>  (87) 
energy

>  <rmsd>  (87) 
2.1655448687173076

>  <m_score__min__rmsd>  (87) 
2.1655448687173076

>  <meeko>  (87) 
{"free_energy": -8.52, "intermolecular_energy": -10.01, "internal_energy": -1.79, "cluster_size": 26, "cluster_id": 2, "rank_in_cluster": 4}

>  <energy>  (87) 
-8.49

>  <cluster_rmsd>  (87) 
0.7

>  <cluster>  (87) 
2

$$$$

     RDKit          3D

 51 54  0  0  0  0  0  0  0  0999 V2000
  141.2240   74.4050  221.4040 O   0  0  0  0  0  0  0  0  0  0  0  0
  140.1530   74.7770  221.9720 C   0  0  0  0  0  0  0  0  0  0  0  0
  139.1260   73.8700  222.2890 N   0  0  0  0  0  0  0  0  0  0  0  0
  139.2900   72.4650  221.9610 C   0  0  0  0  0  0  0  0  0  0  0  0
  139.7840   71.7860  223.1880 C   0  0  0  0  0  0  0  0  0  0  0  0
  140.6950   72.2550  223.9190 O   0  0  0  0  0  0  0  0  0  0  0  0
  139.2070   70.5420  223.5660 N   0  0  0  0  0  0  0  0  0  0  0  0
  139.2020   69.4130  222.6550 C   0  0  0  0  0  0  0  0  0  0  0  0
  137.7520   69.2600  222.2030 C   0  0  0  0  0  0  0  0  0  0  0  0
  136.8180   69.8730  223.2200 C   0  0  0  0  0  0  0  0  0  0  0  0
  137.3570   69.4780  224.5990 C   0  0  0  0  0  0  0  0  0  0  0  0
  138.5980   70.3390  224.8680 C   0  0  1  0  0  0  0  0  0  0  0  0
  139.4470   69.5160  225.7760 C   0  0  0  0  0  0  0  0  0  0  0  0
  139.5280   68.1360  225.6350 C   0  0  0  0  0  0  0  0  0  0  0  0
  140.3220   67.3700  226.4860 C   0  0  0  0  0  0  0  0  0  0  0  0
  141.0540   67.9580  227.4970 C   0  0  0  0  0  0  0  0  0  0  0  0
  140.9820   69.3210  227.6470 C   0  0  0  0  0  0  0  0  0  0  0  0
  140.1930   70.0710  226.8010 C   0  0  0  0  0  0  0  0  0  0  0  0
  140.0080   76.2090  222.2970 C   0  0  0  0  0  0  0  0  0  0  0  0
  138.7960   76.8240  222.2900 C   0  0  0  0  0  0  0  0  0  0  0  0
  138.5920   78.1550  222.5830 C   0  0  0  0  0  0  0  0  0  0  0  0
  139.7040   78.9060  222.9050 C   0  0  0  0  0  0  0  0  0  0  0  0
  139.5210   80.2320  223.1990 C   0  0  0  0  0  0  0  0  0  0  0  0
  140.6040   81.0110  223.5250 C   0  0  0  0  0  0  0  0  0  0  0  0
  141.8600   80.4280  223.5450 C   0  0  0  0  0  0  0  0  0  0  0  0
  142.8970   81.2370  223.8720 F   0  0  0  0  0  0  0  0  0  0  0  0
  142.0230   79.0830  223.2440 C   0  0  0  0  0  0  0  0  0  0  0  0
  140.9470   78.2860  222.9150 C   0  0  0  0  0  0  0  0  0  0  0  0
  141.0880   76.9670  222.6170 N   0  0  0  0  0  0  0  0  0  0  0  0
  138.2490   74.2260  222.7650 H   0  0  0  0  0  0  0  0  0  0  0  0
  138.3259   72.0341  221.6532 H   0  0  0  0  0  0  0  0  0  0  0  0
  139.9985   72.3365  221.1294 H   0  0  0  0  0  0  0  0  0  0  0  0
  139.8546   69.6123  221.7922 H   0  0  0  0  0  0  0  0  0  0  0  0
  139.5779   68.4983  223.1367 H   0  0  0  0  0  0  0  0  0  0  0  0
  137.6181   69.7665  221.2358 H   0  0  0  0  0  0  0  0  0  0  0  0
  137.5195   68.1895  222.1034 H   0  0  0  0  0  0  0  0  0  0  0  0
  136.8078   70.9680  223.1153 H   0  0  0  0  0  0  0  0  0  0  0  0
  135.7869   69.5168  223.0788 H   0  0  0  0  0  0  0  0  0  0  0  0
  136.5944   69.6660  225.3691 H   0  0  0  0  0  0  0  0  0  0  0  0
  137.6122   68.4083  224.6254 H   0  0  0  0  0  0  0  0  0  0  0  0
  138.4167   71.3187  225.3342 H   0  0  0  0  0  0  0  0  0  0  0  0
  138.9553   67.6397  224.8377 H   0  0  0  0  0  0  0  0  0  0  0  0
  140.3660   66.2794  226.3497 H   0  0  0  0  0  0  0  0  0  0  0  0
  141.6800   67.3498  228.1665 H   0  0  0  0  0  0  0  0  0  0  0  0
  141.5555   69.8160  228.4445 H   0  0  0  0  0  0  0  0  0  0  0  0
  140.1547   71.1605  226.9474 H   0  0  0  0  0  0  0  0  0  0  0  0
  137.9159   76.2165  222.0323 H   0  0  0  0  0  0  0  0  0  0  0  0
  137.5861   78.5996  222.5611 H   0  0  0  0  0  0  0  0  0  0  0  0
  138.5122   80.6699  223.1740 H   0  0  0  0  0  0  0  0  0  0  0  0
  140.4764   82.0768  223.7654 H   0  0  0  0  0  0  0  0  0  0  0  0
  143.0312   78.6438  223.2684 H   0  0  0  0  0  0  0  0  0  0  0  0
  1  2  2  0
  2  3  1  0
  3  4  1  0
  4  5  1  0
  5  6  2  0
  5  7  1  0
  7  8  1  0
  8  9  1  0
  9 10  1  0
 10 11  1  0
 11 12  1  0
 12 13  1  0
 13 14  2  0
 14 15  1  0
 15 16  2  0
 16 17  1  0
 17 18  2  0
  2 19  1  0
 19 20  2  0
 20 21  1  0
 21 22  2  0
 22 23  1  0
 23 24  2  0
 24 25  1  0
 25 26  1  0
 25 27  2  0
 27 28  1  0
 28 29  2  0
 12  7  1  0
 18 13  1  0
 29 19  1  0
 28 22  1  0
  3 30  1  0
  4 31  1  0
  4 32  1  0
  8 33  1  0
  8 34  1  0
  9 35  1  0
  9 36  1  0
 10 37  1  0
 10 38  1  0
 11 39  1  0
 11 40  1  0
 12 41  1  1
 14 42  1  0
 15 43  1  0
 16 44  1  0
 17 45  1  0
 18 46  1  0
 20 47  1  0
 21 48  1  0
 23 49  1  0
 24 50  1  0
 27 51  1  0
M  END
>  <smiles>  (88) 
O=C(NCC(=O)N1CCCCC1c1ccccc1)c1ccc2ccc(F)cc2n1

>  <score_type>  (88) 
oracle

>  <origin>  (88) 
autodockgpu

>  <m_score__min__energy>  (88) 
-8.9299999999999997

>  <m_primary>  (88) 
energy

>  <rmsd>  (88) 
8.165480297575916

>  <m_score__min__rmsd>  (88) 
8.165480297575916

>  <meeko>  (88) 
{"free_energy": -8.85, "intermolecular_energy": -10.34, "internal_energy": -1.29, "cluster_size": 19, "cluster_id": 1, "rank_in_cluster": 6}

>  <energy>  (88) 
-8.47

>  <cluster_rmsd>  (88) 
0.57

>  <cluster>  (88) 
2

$$$$

     RDKit          3D

 51 54  0  0  0  0  0  0  0  0999 V2000
  140.2740   71.6060  220.9830 O   0  0  0  0  0  0  0  0  0  0  0  0
  139.9450   72.2330  222.0360 C   0  0  0  0  0  0  0  0  0  0  0  0
  139.5700   73.5880  222.0080 N   0  0  0  0  0  0  0  0  0  0  0  0
  139.5560   74.2970  220.7410 C   0  0  0  0  0  0  0  0  0  0  0  0
  140.2320   75.6020  220.9660 C   0  0  0  0  0  0  0  0  0  0  0  0
  139.7760   76.4960  221.7270 O   0  0  0  0  0  0  0  0  0  0  0  0
  141.4570   75.8680  220.2920 N   0  0  0  0  0  0  0  0  0  0  0  0
  142.1450   77.1340  220.4640 C   0  0  0  0  0  0  0  0  0  0  0  0
  141.9570   77.8800  219.1450 C   0  0  0  0  0  0  0  0  0  0  0  0
  141.6840   76.9060  218.0240 C   0  0  0  0  0  0  0  0  0  0  0  0
  142.6310   75.7200  218.2390 C   0  0  0  0  0  0  0  0  0  0  0  0
  142.0760   74.8970  219.4090 C   0  0  1  0  0  0  0  0  0  0  0  0
  143.2700   74.2440  220.0190 C   0  0  0  0  0  0  0  0  0  0  0  0
  144.4540   74.9440  220.2170 C   0  0  0  0  0  0  0  0  0  0  0  0
  145.5670   74.3310  220.7870 C   0  0  0  0  0  0  0  0  0  0  0  0
  145.5290   73.0080  221.1740 C   0  0  0  0  0  0  0  0  0  0  0  0
  144.3650   72.3050  220.9840 C   0  0  0  0  0  0  0  0  0  0  0  0
  143.2680   72.9200  220.4180 C   0  0  0  0  0  0  0  0  0  0  0  0
  139.9660   71.4920  223.3130 C   0  0  0  0  0  0  0  0  0  0  0  0
  139.4270   70.2510  223.4260 C   0  0  0  0  0  0  0  0  0  0  0  0
  139.4130   69.5060  224.5860 C   0  0  0  0  0  0  0  0  0  0  0  0
  139.9920   70.0720  225.7040 C   0  0  0  0  0  0  0  0  0  0  0  0
  139.9880   69.3470  226.8660 C   0  0  0  0  0  0  0  0  0  0  0  0
  140.5540   69.8770  228.0000 C   0  0  0  0  0  0  0  0  0  0  0  0
  141.1170   71.1410  227.9320 C   0  0  0  0  0  0  0  0  0  0  0  0
  141.6630   71.6210  229.0750 F   0  0  0  0  0  0  0  0  0  0  0  0
  141.1100   71.8580  226.7440 C   0  0  0  0  0  0  0  0  0  0  0  0
  140.5460   71.3410  225.5970 C   0  0  0  0  0  0  0  0  0  0  0  0
  140.5300   72.0300  224.4250 N   0  0  0  0  0  0  0  0  0  0  0  0
  139.3030   74.0700  222.9120 H   0  0  0  0  0  0  0  0  0  0  0  0
  140.0968   73.7179  219.9780 H   0  0  0  0  0  0  0  0  0  0  0  0
  138.5257   74.4447  220.3850 H   0  0  0  0  0  0  0  0  0  0  0  0
  141.7020   77.7031  221.2946 H   0  0  0  0  0  0  0  0  0  0  0  0
  143.2087   76.9921  220.7057 H   0  0  0  0  0  0  0  0  0  0  0  0
  141.1076   78.5727  219.2382 H   0  0  0  0  0  0  0  0  0  0  0  0
  142.8768   78.4385  218.9166 H   0  0  0  0  0  0  0  0  0  0  0  0
  140.6377   76.5684  218.0600 H   0  0  0  0  0  0  0  0  0  0  0  0
  141.8477   77.3733  217.0418 H   0  0  0  0  0  0  0  0  0  0  0  0
  142.6718   75.1017  217.3301 H   0  0  0  0  0  0  0  0  0  0  0  0
  143.6499   76.0711  218.4595 H   0  0  0  0  0  0  0  0  0  0  0  0
  141.3359   74.1247  219.1525 H   0  0  0  0  0  0  0  0  0  0  0  0
  144.5131   76.0010  219.9182 H   0  0  0  0  0  0  0  0  0  0  0  0
  146.4905   74.9110  220.9307 H   0  0  0  0  0  0  0  0  0  0  0  0
  146.4101   72.5274  221.6241 H   0  0  0  0  0  0  0  0  0  0  0  0
  144.3073   71.2483  221.2841 H   0  0  0  0  0  0  0  0  0  0  0  0
  142.3499   72.3306  220.2776 H   0  0  0  0  0  0  0  0  0  0  0  0
  138.9692   69.8088  222.5288 H   0  0  0  0  0  0  0  0  0  0  0  0
  138.9601   68.5041  224.6192 H   0  0  0  0  0  0  0  0  0  0  0  0
  139.5339   68.3454  226.8911 H   0  0  0  0  0  0  0  0  0  0  0  0
  140.5601   69.3096  228.9423 H   0  0  0  0  0  0  0  0  0  0  0  0
  141.5638   72.8596  226.7168 H   0  0  0  0  0  0  0  0  0  0  0  0
  1  2  2  0
  2  3  1  0
  3  4  1  0
  4  5  1  0
  5  6  2  0
  5  7  1  0
  7  8  1  0
  8  9  1  0
  9 10  1  0
 10 11  1  0
 11 12  1  0
 12 13  1  0
 13 14  2  0
 14 15  1  0
 15 16  2  0
 16 17  1  0
 17 18  2  0
  2 19  1  0
 19 20  2  0
 20 21  1  0
 21 22  2  0
 22 23  1  0
 23 24  2  0
 24 25  1  0
 25 26  1  0
 25 27  2  0
 27 28  1  0
 28 29  2  0
 12  7  1  0
 18 13  1  0
 29 19  1  0
 28 22  1  0
  3 30  1  0
  4 31  1  0
  4 32  1  0
  8 33  1  0
  8 34  1  0
  9 35  1  0
  9 36  1  0
 10 37  1  0
 10 38  1  0
 11 39  1  0
 11 40  1  0
 12 41  1  6
 14 42  1  0
 15 43  1  0
 16 44  1  0
 17 45  1  0
 18 46  1  0
 20 47  1  0
 21 48  1  0
 23 49  1  0
 24 50  1  0
 27 51  1  0
M  END
>  <smiles>  (89) 
O=C(NCC(=O)N1CCCCC1c1ccccc1)c1ccc2ccc(F)cc2n1

>  <score_type>  (89) 
oracle

>  <origin>  (89) 
autodockgpu

>  <m_score__min__energy>  (89) 
-8.9299999999999997

>  <m_primary>  (89) 
energy

>  <rmsd>  (89) 
2.313853077657097

>  <m_score__min__rmsd>  (89) 
2.313853077657097

>  <meeko>  (89) 
{"free_energy": -8.16, "intermolecular_energy": -9.65, "internal_energy": -1.87, "cluster_size": 5, "cluster_id": 3, "rank_in_cluster": 5}

>  <energy>  (89) 
-8.47

>  <cluster_rmsd>  (89) 
0.58

>  <cluster>  (89) 
2

$$$$

     RDKit          3D

 51 54  0  0  0  0  0  0  0  0999 V2000
  141.0580   72.1440  221.2000 O   0  0  0  0  0  0  0  0  0  0  0  0
  140.3080   72.4770  222.1680 C   0  0  0  0  0  0  0  0  0  0  0  0
  139.7430   73.7600  222.2630 N   0  0  0  0  0  0  0  0  0  0  0  0
  140.0190   74.7390  221.2270 C   0  0  0  0  0  0  0  0  0  0  0  0
  139.6520   76.0710  221.7780 C   0  0  0  0  0  0  0  0  0  0  0  0
  138.9680   76.2220  222.8240 O   0  0  0  0  0  0  0  0  0  0  0  0
  140.0890   77.2410  221.0970 N   0  0  0  0  0  0  0  0  0  0  0  0
  139.1530   78.0690  220.3590 C   0  0  0  0  0  0  0  0  0  0  0  0
  139.4690   77.8260  218.8850 C   0  0  0  0  0  0  0  0  0  0  0  0
  140.8900   77.3400  218.7260 C   0  0  0  0  0  0  0  0  0  0  0  0
  141.7450   78.1780  219.6830 C   0  0  0  0  0  0  0  0  0  0  0  0
  141.4770   77.6640  221.1040 C   0  0  1  0  0  0  0  0  0  0  0  0
  141.7150   78.8400  221.9890 C   0  0  0  0  0  0  0  0  0  0  0  0
  141.8030   78.6990  223.3680 C   0  0  0  0  0  0  0  0  0  0  0  0
  142.0250   79.8010  224.1930 C   0  0  0  0  0  0  0  0  0  0  0  0
  142.1650   81.0670  223.6640 C   0  0  0  0  0  0  0  0  0  0  0  0
  142.0800   81.2190  222.3030 C   0  0  0  0  0  0  0  0  0  0  0  0
  141.8590   80.1240  221.4950 C   0  0  0  0  0  0  0  0  0  0  0  0
  140.0410   71.4660  223.2100 C   0  0  0  0  0  0  0  0  0  0  0  0
  139.1520   70.4570  223.0140 C   0  0  0  0  0  0  0  0  0  0  0  0
  138.8570   69.4830  223.9430 C   0  0  0  0  0  0  0  0  0  0  0  0
  139.5180   69.5460  225.1530 C   0  0  0  0  0  0  0  0  0  0  0  0
  139.2370   68.5860  226.0900 C   0  0  0  0  0  0  0  0  0  0  0  0
  139.8750   68.6170  227.3060 C   0  0  0  0  0  0  0  0  0  0  0  0
  140.7900   69.6270  227.5510 C   0  0  0  0  0  0  0  0  0  0  0  0
  141.3930   69.6150  228.7640 F   0  0  0  0  0  0  0  0  0  0  0  0
  141.0590   70.5900  226.5880 C   0  0  0  0  0  0  0  0  0  0  0  0
  140.4280   70.5740  225.3620 C   0  0  0  0  0  0  0  0  0  0  0  0
  140.6800   71.5090  224.4080 N   0  0  0  0  0  0  0  0  0  0  0  0
  139.1230   73.9930  223.0900 H   0  0  0  0  0  0  0  0  0  0  0  0
  141.0870   74.7201  220.9644 H   0  0  0  0  0  0  0  0  0  0  0  0
  139.4433   74.5191  220.3159 H   0  0  0  0  0  0  0  0  0  0  0  0
  138.1177   77.7734  220.5842 H   0  0  0  0  0  0  0  0  0  0  0  0
  139.2481   79.1315  220.6273 H   0  0  0  0  0  0  0  0  0  0  0  0
  138.7794   77.0673  218.4865 H   0  0  0  0  0  0  0  0  0  0  0  0
  139.3503   78.7704  218.3335 H   0  0  0  0  0  0  0  0  0  0  0  0
  140.9589   76.2741  218.9889 H   0  0  0  0  0  0  0  0  0  0  0  0
  141.2338   77.4478  217.6867 H   0  0  0  0  0  0  0  0  0  0  0  0
  142.8105   78.0619  219.4355 H   0  0  0  0  0  0  0  0  0  0  0  0
  141.4898   79.2448  219.6003 H   0  0  0  0  0  0  0  0  0  0  0  0
  142.1036   76.8261  221.4435 H   0  0  0  0  0  0  0  0  0  0  0  0
  141.6957   77.7006  223.8171 H   0  0  0  0  0  0  0  0  0  0  0  0
  142.0894   79.6585  225.2818 H   0  0  0  0  0  0  0  0  0  0  0  0
  142.3406   81.9342  224.3176 H   0  0  0  0  0  0  0  0  0  0  0  0
  142.1886   82.2178  221.8551 H   0  0  0  0  0  0  0  0  0  0  0  0
  141.7942   80.2784  220.4078 H   0  0  0  0  0  0  0  0  0  0  0  0
  138.6314   70.4149  222.0459 H   0  0  0  0  0  0  0  0  0  0  0  0
  138.1260   68.6893  223.7294 H   0  0  0  0  0  0  0  0  0  0  0  0
  138.5048   67.7953  225.8695 H   0  0  0  0  0  0  0  0  0  0  0  0
  139.6632   67.8545  228.0701 H   0  0  0  0  0  0  0  0  0  0  0  0
  141.7903   71.3819  226.8074 H   0  0  0  0  0  0  0  0  0  0  0  0
  1  2  2  0
  2  3  1  0
  3  4  1  0
  4  5  1  0
  5  6  2  0
  5  7  1  0
  7  8  1  0
  8  9  1  0
  9 10  1  0
 10 11  1  0
 11 12  1  0
 12 13  1  0
 13 14  2  0
 14 15  1  0
 15 16  2  0
 16 17  1  0
 17 18  2  0
  2 19  1  0
 19 20  2  0
 20 21  1  0
 21 22  2  0
 22 23  1  0
 23 24  2  0
 24 25  1  0
 25 26  1  0
 25 27  2  0
 27 28  1  0
 28 29  2  0
 12  7  1  0
 18 13  1  0
 29 19  1  0
 28 22  1  0
  3 30  1  0
  4 31  1  0
  4 32  1  0
  8 33  1  0
  8 34  1  0
  9 35  1  0
  9 36  1  0
 10 37  1  0
 10 38  1  0
 11 39  1  0
 11 40  1  0
 12 41  1  1
 14 42  1  0
 15 43  1  0
 16 44  1  0
 17 45  1  0
 18 46  1  0
 20 47  1  0
 21 48  1  0
 23 49  1  0
 24 50  1  0
 27 51  1  0
M  END
>  <smiles>  (90) 
O=C(NCC(=O)N1CCCCC1c1ccccc1)c1ccc2ccc(F)cc2n1

>  <score_type>  (90) 
oracle

>  <origin>  (90) 
autodockgpu

>  <m_score__min__energy>  (90) 
-8.9299999999999997

>  <m_primary>  (90) 
energy

>  <rmsd>  (90) 
2.136788528014422

>  <m_score__min__rmsd>  (90) 
2.136788528014422

>  <meeko>  (90) 
{"free_energy": -8.47, "intermolecular_energy": -9.96, "internal_energy": -1.84, "cluster_size": 26, "cluster_id": 2, "rank_in_cluster": 19}

>  <energy>  (90) 
-8.44

>  <cluster_rmsd>  (90) 
0.67

>  <cluster>  (90) 
2

$$$$

     RDKit          3D

 51 54  0  0  0  0  0  0  0  0999 V2000
  139.3390   71.1790  221.2190 O   0  0  0  0  0  0  0  0  0  0  0  0
  139.4390   71.8990  222.2590 C   0  0  0  0  0  0  0  0  0  0  0  0
  139.3060   73.2980  222.2100 N   0  0  0  0  0  0  0  0  0  0  0  0
  139.0460   73.9450  220.9360 C   0  0  0  0  0  0  0  0  0  0  0  0
  139.2490   75.4040  221.1400 C   0  0  0  0  0  0  0  0  0  0  0  0
  138.3010   76.2230  221.2670 O   0  0  0  0  0  0  0  0  0  0  0  0
  140.5760   75.9140  221.1960 N   0  0  0  0  0  0  0  0  0  0  0  0
  141.0710   76.5810  222.3860 C   0  0  0  0  0  0  0  0  0  0  0  0
  141.1640   78.0590  222.0140 C   0  0  0  0  0  0  0  0  0  0  0  0
  141.2880   78.2170  220.5170 C   0  0  0  0  0  0  0  0  0  0  0  0
  142.2550   77.1270  220.0430 C   0  0  0  0  0  0  0  0  0  0  0  0
  141.4940   75.7950  220.0790 C   0  0  1  0  0  0  0  0  0  0  0  0
  142.5430   74.7600  220.3050 C   0  0  0  0  0  0  0  0  0  0  0  0
  142.2100   73.4610  220.6700 C   0  0  0  0  0  0  0  0  0  0  0  0
  143.1930   72.4970  220.8820 C   0  0  0  0  0  0  0  0  0  0  0  0
  144.5300   72.8000  220.7340 C   0  0  0  0  0  0  0  0  0  0  0  0
  144.8720   74.0800  220.3730 C   0  0  0  0  0  0  0  0  0  0  0  0
  143.8930   75.0290  220.1680 C   0  0  0  0  0  0  0  0  0  0  0  0
  139.7030   71.2210  223.5430 C   0  0  0  0  0  0  0  0  0  0  0  0
  139.3970   69.9110  223.7330 C   0  0  0  0  0  0  0  0  0  0  0  0
  139.6170   69.2180  224.9050 C   0  0  0  0  0  0  0  0  0  0  0  0
  140.1890   69.9150  225.9500 C   0  0  0  0  0  0  0  0  0  0  0  0
  140.4150   69.2430  227.1220 C   0  0  0  0  0  0  0  0  0  0  0  0
  140.9820   69.9030  228.1850 C   0  0  0  0  0  0  0  0  0  0  0  0
  141.3100   71.2400  228.0370 C   0  0  0  0  0  0  0  0  0  0  0  0
  141.8680   71.8480  229.1120 F   0  0  0  0  0  0  0  0  0  0  0  0
  141.0730   71.9020  226.8410 C   0  0  0  0  0  0  0  0  0  0  0  0
  140.5050   71.2540  225.7640 C   0  0  0  0  0  0  0  0  0  0  0  0
  140.2640   71.8870  224.5840 N   0  0  0  0  0  0  0  0  0  0  0  0
  139.3970   73.8580  223.1040 H   0  0  0  0  0  0  0  0  0  0  0  0
  139.7432   73.5697  220.1725 H   0  0  0  0  0  0  0  0  0  0  0  0
  138.0228   73.7355  220.5909 H   0  0  0  0  0  0  0  0  0  0  0  0
  140.3740   76.4385  223.2250 H   0  0  0  0  0  0  0  0  0  0  0  0
  142.0432   76.1780  222.7061 H   0  0  0  0  0  0  0  0  0  0  0  0
  140.2576   78.5777  222.3596 H   0  0  0  0  0  0  0  0  0  0  0  0
  142.0534   78.4931  222.4941 H   0  0  0  0  0  0  0  0  0  0  0  0
  140.3059   78.0879  220.0386 H   0  0  0  0  0  0  0  0  0  0  0  0
  141.6570   79.2188  220.2520 H   0  0  0  0  0  0  0  0  0  0  0  0
  142.5905   77.3413  219.0176 H   0  0  0  0  0  0  0  0  0  0  0  0
  143.1432   77.0858  220.6906 H   0  0  0  0  0  0  0  0  0  0  0  0
  140.9233   75.5374  219.1746 H   0  0  0  0  0  0  0  0  0  0  0  0
  141.1513   73.1892  220.7937 H   0  0  0  0  0  0  0  0  0  0  0  0
  142.8979   71.4778  221.1721 H   0  0  0  0  0  0  0  0  0  0  0  0
  145.3032   72.0356  220.9009 H   0  0  0  0  0  0  0  0  0  0  0  0
  145.9310   74.3493  220.2469 H   0  0  0  0  0  0  0  0  0  0  0  0
  144.1994   76.0462  219.8826 H   0  0  0  0  0  0  0  0  0  0  0  0
  138.9420   69.3649  222.8935 H   0  0  0  0  0  0  0  0  0  0  0  0
  139.3482   68.1558  225.0027 H   0  0  0  0  0  0  0  0  0  0  0  0
  140.1439   68.1807  227.2115 H   0  0  0  0  0  0  0  0  0  0  0  0
  141.1715   69.3802  229.1341 H   0  0  0  0  0  0  0  0  0  0  0  0
  141.3433   72.9644  226.7499 H   0  0  0  0  0  0  0  0  0  0  0  0
  1  2  2  0
  2  3  1  0
  3  4  1  0
  4  5  1  0
  5  6  2  0
  5  7  1  0
  7  8  1  0
  8  9  1  0
  9 10  1  0
 10 11  1  0
 11 12  1  0
 12 13  1  0
 13 14  2  0
 14 15  1  0
 15 16  2  0
 16 17  1  0
 17 18  2  0
  2 19  1  0
 19 20  2  0
 20 21  1  0
 21 22  2  0
 22 23  1  0
 23 24  2  0
 24 25  1  0
 25 26  1  0
 25 27  2  0
 27 28  1  0
 28 29  2  0
 12  7  1  0
 18 13  1  0
 29 19  1  0
 28 22  1  0
  3 30  1  0
  4 31  1  0
  4 32  1  0
  8 33  1  0
  8 34  1  0
  9 35  1  0
  9 36  1  0
 10 37  1  0
 10 38  1  0
 11 39  1  0
 11 40  1  0
 12 41  1  6
 14 42  1  0
 15 43  1  0
 16 44  1  0
 17 45  1  0
 18 46  1  0
 20 47  1  0
 21 48  1  0
 23 49  1  0
 24 50  1  0
 27 51  1  0
M  END
>  <smiles>  (91) 
O=C(NCC(=O)N1CCCCC1c1ccccc1)c1ccc2ccc(F)cc2n1

>  <score_type>  (91) 
oracle

>  <origin>  (91) 
autodockgpu

>  <m_score__min__energy>  (91) 
-8.9299999999999997

>  <m_primary>  (91) 
energy

>  <rmsd>  (91) 
2.54247338394404

>  <m_score__min__rmsd>  (91) 
2.54247338394404

>  <meeko>  (91) 
{"free_energy": -8.26, "intermolecular_energy": -9.76, "internal_energy": -1.92, "cluster_size": 5, "cluster_id": 3, "rank_in_cluster": 3}

>  <energy>  (91) 
-8.41

>  <cluster_rmsd>  (91) 
1.1

>  <cluster>  (91) 
2

$$$$

     RDKit          3D

 51 54  0  0  0  0  0  0  0  0999 V2000
  141.5140   72.5110  221.7250 O   0  0  0  0  0  0  0  0  0  0  0  0
  140.4760   72.6270  222.4450 C   0  0  0  0  0  0  0  0  0  0  0  0
  139.6480   73.7610  222.3770 N   0  0  0  0  0  0  0  0  0  0  0  0
  139.9820   74.8340  221.4590 C   0  0  0  0  0  0  0  0  0  0  0  0
  139.0480   75.9560  221.7400 C   0  0  0  0  0  0  0  0  0  0  0  0
  137.9820   75.8200  222.3960 O   0  0  0  0  0  0  0  0  0  0  0  0
  139.3630   77.2540  221.2500 N   0  0  0  0  0  0  0  0  0  0  0  0
  138.3290   78.2550  221.0680 C   0  0  0  0  0  0  0  0  0  0  0  0
  138.1510   78.3870  219.5570 C   0  0  0  0  0  0  0  0  0  0  0  0
  139.4020   77.9360  218.8400 C   0  0  0  0  0  0  0  0  0  0  0  0
  140.5850   78.4920  219.6400 C   0  0  0  0  0  0  0  0  0  0  0  0
  140.7200   77.6400  220.9090 C   0  0  1  0  0  0  0  0  0  0  0  0
  141.3290   78.5510  221.9200 C   0  0  0  0  0  0  0  0  0  0  0  0
  141.2460   78.2780  223.2800 C   0  0  0  0  0  0  0  0  0  0  0  0
  141.8160   79.1320  224.2230 C   0  0  0  0  0  0  0  0  0  0  0  0
  142.4820   80.2760  223.8350 C   0  0  0  0  0  0  0  0  0  0  0  0
  142.5710   80.5560  222.4940 C   0  0  0  0  0  0  0  0  0  0  0  0
  142.0020   79.7060  221.5680 C   0  0  0  0  0  0  0  0  0  0  0  0
  140.1540   71.5240  223.3720 C   0  0  0  0  0  0  0  0  0  0  0  0
  139.2570   70.5570  223.0470 C   0  0  0  0  0  0  0  0  0  0  0  0
  138.9120   69.5020  223.8650 C   0  0  0  0  0  0  0  0  0  0  0  0
  139.5290   69.4340  225.0970 C   0  0  0  0  0  0  0  0  0  0  0  0
  139.1990   68.3920  225.9240 C   0  0  0  0  0  0  0  0  0  0  0  0
  139.7920   68.2900  227.1580 C   0  0  0  0  0  0  0  0  0  0  0  0
  140.7140   69.2540  227.5330 C   0  0  0  0  0  0  0  0  0  0  0  0
  141.2720   69.1100  228.7600 F   0  0  0  0  0  0  0  0  0  0  0  0
  141.0340   70.3000  226.6810 C   0  0  0  0  0  0  0  0  0  0  0  0
  140.4480   70.4180  225.4380 C   0  0  0  0  0  0  0  0  0  0  0  0
  140.7490   71.4370  224.5900 N   0  0  0  0  0  0  0  0  0  0  0  0
  138.7910   73.8140  222.9970 H   0  0  0  0  0  0  0  0  0  0  0  0
  141.0207   75.1584  221.6196 H   0  0  0  0  0  0  0  0  0  0  0  0
  139.8894   74.4994  220.4152 H   0  0  0  0  0  0  0  0  0  0  0  0
  137.3901   77.9279  221.5386 H   0  0  0  0  0  0  0  0  0  0  0  0
  138.6028   79.2139  221.5322 H   0  0  0  0  0  0  0  0  0  0  0  0
  137.3038   77.7633  219.2356 H   0  0  0  0  0  0  0  0  0  0  0  0
  137.9578   79.4414  219.3104 H   0  0  0  0  0  0  0  0  0  0  0  0
  139.4471   76.8374  218.8085 H   0  0  0  0  0  0  0  0  0  0  0  0
  139.4182   78.2980  217.8014 H   0  0  0  0  0  0  0  0  0  0  0  0
  141.5067   78.4266  219.0432 H   0  0  0  0  0  0  0  0  0  0  0  0
  140.4186   79.5486  219.8968 H   0  0  0  0  0  0  0  0  0  0  0  0
  141.3381   76.7342  220.8225 H   0  0  0  0  0  0  0  0  0  0  0  0
  140.7214   77.3723  223.6184 H   0  0  0  0  0  0  0  0  0  0  0  0
  141.7334   78.8899  225.2928 H   0  0  0  0  0  0  0  0  0  0  0  0
  142.9308   80.9475  224.5818 H   0  0  0  0  0  0  0  0  0  0  0  0
  143.0976   81.4609  222.1567 H   0  0  0  0  0  0  0  0  0  0  0  0
  142.0878   79.9590  220.5009 H   0  0  0  0  0  0  0  0  0  0  0  0
  138.7717   70.6201  222.0619 H   0  0  0  0  0  0  0  0  0  0  0  0
  138.1767   68.7474  223.5490 H   0  0  0  0  0  0  0  0  0  0  0  0
  138.4628   67.6413  225.6007 H   0  0  0  0  0  0  0  0  0  0  0  0
  139.5404   67.4603  227.8349 H   0  0  0  0  0  0  0  0  0  0  0  0
  141.7703   71.0511  227.0030 H   0  0  0  0  0  0  0  0  0  0  0  0
  1  2  2  0
  2  3  1  0
  3  4  1  0
  4  5  1  0
  5  6  2  0
  5  7  1  0
  7  8  1  0
  8  9  1  0
  9 10  1  0
 10 11  1  0
 11 12  1  0
 12 13  1  0
 13 14  2  0
 14 15  1  0
 15 16  2  0
 16 17  1  0
 17 18  2  0
  2 19  1  0
 19 20  2  0
 20 21  1  0
 21 22  2  0
 22 23  1  0
 23 24  2  0
 24 25  1  0
 25 26  1  0
 25 27  2  0
 27 28  1  0
 28 29  2  0
 12  7  1  0
 18 13  1  0
 29 19  1  0
 28 22  1  0
  3 30  1  0
  4 31  1  0
  4 32  1  0
  8 33  1  0
  8 34  1  0
  9 35  1  0
  9 36  1  0
 10 37  1  0
 10 38  1  0
 11 39  1  0
 11 40  1  0
 12 41  1  6
 14 42  1  0
 15 43  1  0
 16 44  1  0
 17 45  1  0
 18 46  1  0
 20 47  1  0
 21 48  1  0
 23 49  1  0
 24 50  1  0
 27 51  1  0
M  END
>  <smiles>  (92) 
O=C(NCC(=O)N1CCCCC1c1ccccc1)c1ccc2ccc(F)cc2n1

>  <score_type>  (92) 
oracle

>  <origin>  (92) 
autodockgpu

>  <m_score__min__energy>  (92) 
-8.9299999999999997

>  <m_primary>  (92) 
energy

>  <rmsd>  (92) 
2.4732484821469654

>  <m_score__min__rmsd>  (92) 
2.4732484821469654

>  <meeko>  (92) 
{"free_energy": -8.25, "intermolecular_energy": -9.74, "internal_energy": -1.85, "cluster_size": 26, "cluster_id": 2, "rank_in_cluster": 24}

>  <energy>  (92) 
-8.38

>  <cluster_rmsd>  (92) 
0.63

>  <cluster>  (92) 
2

$$$$

     RDKit          3D

 51 54  0  0  0  0  0  0  0  0999 V2000
  141.5800   72.1230  221.5880 O   0  0  0  0  0  0  0  0  0  0  0  0
  140.6180   72.3750  222.3760 C   0  0  0  0  0  0  0  0  0  0  0  0
  139.9320   73.6010  222.3430 N   0  0  0  0  0  0  0  0  0  0  0  0
  140.3290   74.6140  221.3820 C   0  0  0  0  0  0  0  0  0  0  0  0
  139.7170   75.8960  221.8230 C   0  0  0  0  0  0  0  0  0  0  0  0
  138.8890   75.9780  222.7670 O   0  0  0  0  0  0  0  0  0  0  0  0
  140.0780   77.0970  221.1510 N   0  0  0  0  0  0  0  0  0  0  0  0
  139.0770   77.9130  220.4900 C   0  0  0  0  0  0  0  0  0  0  0  0
  139.3160   77.7190  218.9950 C   0  0  0  0  0  0  0  0  0  0  0  0
  140.7410   77.2850  218.7430 C   0  0  0  0  0  0  0  0  0  0  0  0
  141.6220   78.1250  219.6750 C   0  0  0  0  0  0  0  0  0  0  0  0
  141.4500   77.5650  221.0930 C   0  0  1  0  0  0  0  0  0  0  0  0
  141.7010   78.7250  221.9960 C   0  0  0  0  0  0  0  0  0  0  0  0
  141.8860   80.0060  221.4920 C   0  0  0  0  0  0  0  0  0  0  0  0
  142.1200   81.0870  222.3390 C   0  0  0  0  0  0  0  0  0  0  0  0
  142.1750   80.9200  223.7070 C   0  0  0  0  0  0  0  0  0  0  0  0
  141.9940   79.6580  224.2180 C   0  0  0  0  0  0  0  0  0  0  0  0
  141.7640   78.5940  223.3720 C   0  0  0  0  0  0  0  0  0  0  0  0
  140.2320   71.3300  223.3440 C   0  0  0  0  0  0  0  0  0  0  0  0
  139.2680   70.4160  223.0610 C   0  0  0  0  0  0  0  0  0  0  0  0
  138.8600   69.4170  223.9190 C   0  0  0  0  0  0  0  0  0  0  0  0
  139.4830   69.3510  225.1490 C   0  0  0  0  0  0  0  0  0  0  0  0
  139.0910   68.3650  226.0160 C   0  0  0  0  0  0  0  0  0  0  0  0
  139.6870   68.2680  227.2490 C   0  0  0  0  0  0  0  0  0  0  0  0
  140.6750   69.1790  227.5820 C   0  0  0  0  0  0  0  0  0  0  0  0
  141.2340   69.0420  228.8090 F   0  0  0  0  0  0  0  0  0  0  0  0
  141.0580   70.1700  226.6900 C   0  0  0  0  0  0  0  0  0  0  0  0
  140.4690   70.2820  225.4470 C   0  0  0  0  0  0  0  0  0  0  0  0
  140.8310   71.2470  224.5600 N   0  0  0  0  0  0  0  0  0  0  0  0
  139.1340   73.7660  223.0200 H   0  0  0  0  0  0  0  0  0  0  0  0
  141.4249   74.7061  221.3613 H   0  0  0  0  0  0  0  0  0  0  0  0
  139.9933   74.3469  220.3691 H   0  0  0  0  0  0  0  0  0  0  0  0
  138.0657   77.5784  220.7644 H   0  0  0  0  0  0  0  0  0  0  0  0
  139.1545   78.9707  220.7821 H   0  0  0  0  0  0  0  0  0  0  0  0
  138.6294   76.9482  218.6149 H   0  0  0  0  0  0  0  0  0  0  0  0
  139.1360   78.6728  218.4775 H   0  0  0  0  0  0  0  0  0  0  0  0
  140.8585   76.2153  218.9706 H   0  0  0  0  0  0  0  0  0  0  0  0
  141.0218   77.4324  217.6897 H   0  0  0  0  0  0  0  0  0  0  0  0
  142.6751   78.0504  219.3660 H   0  0  0  0  0  0  0  0  0  0  0  0
  141.3296   79.1847  219.6368 H   0  0  0  0  0  0  0  0  0  0  0  0
  142.1200   76.7390  221.3737 H   0  0  0  0  0  0  0  0  0  0  0  0
  141.8471   80.1698  220.4050 H   0  0  0  0  0  0  0  0  0  0  0  0
  142.2632   82.0897  221.9100 H   0  0  0  0  0  0  0  0  0  0  0  0
  142.3593   81.7764  224.3724 H   0  0  0  0  0  0  0  0  0  0  0  0
  142.0327   79.4958  225.3053 H   0  0  0  0  0  0  0  0  0  0  0  0
  141.6242   77.5951  223.8110 H   0  0  0  0  0  0  0  0  0  0  0  0
  138.7783   70.4772  222.0779 H   0  0  0  0  0  0  0  0  0  0  0  0
  138.0722   68.7035  223.6357 H   0  0  0  0  0  0  0  0  0  0  0  0
  138.3028   67.6548  225.7256 H   0  0  0  0  0  0  0  0  0  0  0  0
  139.3857   67.4826  227.9578 H   0  0  0  0  0  0  0  0  0  0  0  0
  141.8465   70.8804  226.9791 H   0  0  0  0  0  0  0  0  0  0  0  0
  1  2  2  0
  2  3  1  0
  3  4  1  0
  4  5  1  0
  5  6  2  0
  5  7  1  0
  7  8  1  0
  8  9  1  0
  9 10  1  0
 10 11  1  0
 11 12  1  0
 12 13  1  0
 13 14  2  0
 14 15  1  0
 15 16  2  0
 16 17  1  0
 17 18  2  0
  2 19  1  0
 19 20  2  0
 20 21  1  0
 21 22  2  0
 22 23  1  0
 23 24  2  0
 24 25  1  0
 25 26  1  0
 25 27  2  0
 27 28  1  0
 28 29  2  0
 12  7  1  0
 18 13  1  0
 29 19  1  0
 28 22  1  0
  3 30  1  0
  4 31  1  0
  4 32  1  0
  8 33  1  0
  8 34  1  0
  9 35  1  0
  9 36  1  0
 10 37  1  0
 10 38  1  0
 11 39  1  0
 11 40  1  0
 12 41  1  1
 14 42  1  0
 15 43  1  0
 16 44  1  0
 17 45  1  0
 18 46  1  0
 20 47  1  0
 21 48  1  0
 23 49  1  0
 24 50  1  0
 27 51  1  0
M  END
>  <smiles>  (93) 
O=C(NCC(=O)N1CCCCC1c1ccccc1)c1ccc2ccc(F)cc2n1

>  <score_type>  (93) 
oracle

>  <origin>  (93) 
autodockgpu

>  <m_score__min__energy>  (93) 
-8.9299999999999997

>  <m_primary>  (93) 
energy

>  <rmsd>  (93) 
2.20596453127911

>  <m_score__min__rmsd>  (93) 
2.20596453127911

>  <meeko>  (93) 
{"free_energy": -8.5, "intermolecular_energy": -10.0, "internal_energy": -1.83, "cluster_size": 26, "cluster_id": 2, "rank_in_cluster": 11}

>  <energy>  (93) 
-8.25

>  <cluster_rmsd>  (93) 
0.76

>  <cluster>  (93) 
2

$$$$

     RDKit          3D

 51 54  0  0  0  0  0  0  0  0999 V2000
  140.7170   72.3010  220.9140 O   0  0  0  0  0  0  0  0  0  0  0  0
  140.1740   72.6730  221.9990 C   0  0  0  0  0  0  0  0  0  0  0  0
  139.7200   73.9890  222.1890 N   0  0  0  0  0  0  0  0  0  0  0  0
  139.8710   74.9570  221.1170 C   0  0  0  0  0  0  0  0  0  0  0  0
  139.5580   76.2930  221.6890 C   0  0  0  0  0  0  0  0  0  0  0  0
  138.8710   76.4550  222.7320 O   0  0  0  0  0  0  0  0  0  0  0  0
  140.0530   77.4560  221.0350 N   0  0  0  0  0  0  0  0  0  0  0  0
  139.1720   78.3100  220.2610 C   0  0  0  0  0  0  0  0  0  0  0  0
  139.5470   78.0650  218.8010 C   0  0  0  0  0  0  0  0  0  0  0  0
  140.9610   77.5450  218.7020 C   0  0  0  0  0  0  0  0  0  0  0  0
  141.7930   78.3570  219.7020 C   0  0  0  0  0  0  0  0  0  0  0  0
  141.4490   77.8440  221.1060 C   0  0  1  0  0  0  0  0  0  0  0  0
  141.6760   79.0100  222.0070 C   0  0  0  0  0  0  0  0  0  0  0  0
  142.0140   78.8340  223.3430 C   0  0  0  0  0  0  0  0  0  0  0  0
  142.2250   79.9260  224.1830 C   0  0  0  0  0  0  0  0  0  0  0  0
  142.1050   81.2180  223.7130 C   0  0  0  0  0  0  0  0  0  0  0  0
  141.7710   81.4040  222.3950 C   0  0  0  0  0  0  0  0  0  0  0  0
  141.5630   80.3180  221.5720 C   0  0  0  0  0  0  0  0  0  0  0  0
  140.0310   71.6730  223.0750 C   0  0  0  0  0  0  0  0  0  0  0  0
  139.3060   70.5370  222.9010 C   0  0  0  0  0  0  0  0  0  0  0  0
  139.1330   69.5640  223.8620 C   0  0  0  0  0  0  0  0  0  0  0  0
  139.7430   69.7700  225.0830 C   0  0  0  0  0  0  0  0  0  0  0  0
  139.5810   68.8140  226.0510 C   0  0  0  0  0  0  0  0  0  0  0  0
  140.1730   68.9840  227.2790 C   0  0  0  0  0  0  0  0  0  0  0  0
  140.9220   70.1270  227.5020 C   0  0  0  0  0  0  0  0  0  0  0  0
  141.4860   70.2500  228.7280 F   0  0  0  0  0  0  0  0  0  0  0  0
  141.0730   71.0830  226.5080 C   0  0  0  0  0  0  0  0  0  0  0  0
  140.4850   70.9290  225.2690 C   0  0  0  0  0  0  0  0  0  0  0  0
  140.6220   71.8540  224.2830 N   0  0  0  0  0  0  0  0  0  0  0  0
  139.2720   74.2550  223.1110 H   0  0  0  0  0  0  0  0  0  0  0  0
  140.9031   74.9414  220.7368 H   0  0  0  0  0  0  0  0  0  0  0  0
  139.1985   74.7220  220.2789 H   0  0  0  0  0  0  0  0  0  0  0  0
  138.1206   78.0397  220.4386 H   0  0  0  0  0  0  0  0  0  0  0  0
  139.2816   79.3687  220.5388 H   0  0  0  0  0  0  0  0  0  0  0  0
  138.8574   77.3250  218.3687 H   0  0  0  0  0  0  0  0  0  0  0  0
  139.4760   79.0143  218.2498 H   0  0  0  0  0  0  0  0  0  0  0  0
  140.9921   76.4763  218.9607 H   0  0  0  0  0  0  0  0  0  0  0  0
  141.3533   77.6497  217.6797 H   0  0  0  0  0  0  0  0  0  0  0  0
  142.8653   78.2152  219.5019 H   0  0  0  0  0  0  0  0  0  0  0  0
  141.5682   79.4302  219.6141 H   0  0  0  0  0  0  0  0  0  0  0  0
  142.0388   76.9892  221.4684 H   0  0  0  0  0  0  0  0  0  0  0  0
  142.1169   77.8152  223.7448 H   0  0  0  0  0  0  0  0  0  0  0  0
  142.4912   79.7554  225.2366 H   0  0  0  0  0  0  0  0  0  0  0  0
  142.2729   82.0776  224.3785 H   0  0  0  0  0  0  0  0  0  0  0  0
  141.6689   82.4232  221.9940 H   0  0  0  0  0  0  0  0  0  0  0  0
  141.2948   80.5000  220.5208 H   0  0  0  0  0  0  0  0  0  0  0  0
  138.8232   70.3830  221.9247 H   0  0  0  0  0  0  0  0  0  0  0  0
  138.5347   68.6624  223.6644 H   0  0  0  0  0  0  0  0  0  0  0  0
  138.9804   67.9155  225.8461 H   0  0  0  0  0  0  0  0  0  0  0  0
  140.0544   68.2276  228.0688 H   0  0  0  0  0  0  0  0  0  0  0  0
  141.6735   71.9819  226.7115 H   0  0  0  0  0  0  0  0  0  0  0  0
  1  2  2  0
  2  3  1  0
  3  4  1  0
  4  5  1  0
  5  6  2  0
  5  7  1  0
  7  8  1  0
  8  9  1  0
  9 10  1  0
 10 11  1  0
 11 12  1  0
 12 13  1  0
 13 14  2  0
 14 15  1  0
 15 16  2  0
 16 17  1  0
 17 18  2  0
  2 19  1  0
 19 20  2  0
 20 21  1  0
 21 22  2  0
 22 23  1  0
 23 24  2  0
 24 25  1  0
 25 26  1  0
 25 27  2  0
 27 28  1  0
 28 29  2  0
 12  7  1  0
 18 13  1  0
 29 19  1  0
 28 22  1  0
  3 30  1  0
  4 31  1  0
  4 32  1  0
  8 33  1  0
  8 34  1  0
  9 35  1  0
  9 36  1  0
 10 37  1  0
 10 38  1  0
 11 39  1  0
 11 40  1  0
 12 41  1  1
 14 42  1  0
 15 43  1  0
 16 44  1  0
 17 45  1  0
 18 46  1  0
 20 47  1  0
 21 48  1  0
 23 49  1  0
 24 50  1  0
 27 51  1  0
M  END
>  <smiles>  (94) 
O=C(NCC(=O)N1CCCCC1c1ccccc1)c1ccc2ccc(F)cc2n1

>  <score_type>  (94) 
oracle

>  <origin>  (94) 
autodockgpu

>  <m_score__min__energy>  (94) 
-8.9299999999999997

>  <m_primary>  (94) 
energy

>  <rmsd>  (94) 
2.186926230957933

>  <m_score__min__rmsd>  (94) 
2.186926230957933

>  <meeko>  (94) 
{"free_energy": -8.38, "intermolecular_energy": -9.87, "internal_energy": -1.84, "cluster_size": 26, "cluster_id": 2, "rank_in_cluster": 23}

>  <energy>  (94) 
-8.23

>  <cluster_rmsd>  (94) 
0.68

>  <cluster>  (94) 
2

$$$$

     RDKit          3D

 51 54  0  0  0  0  0  0  0  0999 V2000
  137.3510   76.0020  222.3170 O   0  0  0  0  0  0  0  0  0  0  0  0
  138.6140   76.0920  222.3920 C   0  0  0  0  0  0  0  0  0  0  0  0
  139.4510   74.9770  222.2160 N   0  0  0  0  0  0  0  0  0  0  0  0
  138.8600   73.6800  221.9380 C   0  0  0  0  0  0  0  0  0  0  0  0
  139.8380   72.6520  222.3840 C   0  0  0  0  0  0  0  0  0  0  0  0
  141.0780   72.8560  222.4400 O   0  0  0  0  0  0  0  0  0  0  0  0
  139.3590   71.3680  222.7680 N   0  0  0  0  0  0  0  0  0  0  0  0
  139.5710   70.2080  221.9230 C   0  0  0  0  0  0  0  0  0  0  0  0
  138.2010   69.8750  221.3370 C   0  0  0  0  0  0  0  0  0  0  0  0
  137.1050   70.4230  222.2200 C   0  0  0  0  0  0  0  0  0  0  0  0
  137.5350   70.1490  223.6650 C   0  0  0  0  0  0  0  0  0  0  0  0
  138.6420   71.1530  224.0110 C   0  0  1  0  0  0  0  0  0  0  0  0
  139.4730   70.4690  225.0430 C   0  0  0  0  0  0  0  0  0  0  0  0
  139.3970   69.0950  225.2360 C   0  0  0  0  0  0  0  0  0  0  0  0
  140.1760   68.4590  226.2010 C   0  0  0  0  0  0  0  0  0  0  0  0
  141.0470   69.1740  226.9960 C   0  0  0  0  0  0  0  0  0  0  0  0
  141.1310   70.5320  226.8150 C   0  0  0  0  0  0  0  0  0  0  0  0
  140.3570   71.1530  225.8580 C   0  0  0  0  0  0  0  0  0  0  0  0
  139.1930   77.4200  222.6750 C   0  0  0  0  0  0  0  0  0  0  0  0
  138.4100   78.5110  222.8820 C   0  0  0  0  0  0  0  0  0  0  0  0
  138.8860   79.7770  223.1500 C   0  0  0  0  0  0  0  0  0  0  0  0
  140.2560   79.9350  223.2090 C   0  0  0  0  0  0  0  0  0  0  0  0
  140.7470   81.1860  223.4740 C   0  0  0  0  0  0  0  0  0  0  0  0
  142.1050   81.3820  223.5420 C   0  0  0  0  0  0  0  0  0  0  0  0
  142.9430   80.2990  223.3370 C   0  0  0  0  0  0  0  0  0  0  0  0
  144.2740   80.5420  223.4130 F   0  0  0  0  0  0  0  0  0  0  0  0
  142.4250   79.0400  223.0700 C   0  0  0  0  0  0  0  0  0  0  0  0
  141.0640   78.8250  222.9990 C   0  0  0  0  0  0  0  0  0  0  0  0
  140.5380   77.5990  222.7380 N   0  0  0  0  0  0  0  0  0  0  0  0
  140.5000   75.1000  222.2870 H   0  0  0  0  0  0  0  0  0  0  0  0
  137.9159   73.5686  222.4915 H   0  0  0  0  0  0  0  0  0  0  0  0
  138.6377   73.5715  220.8662 H   0  0  0  0  0  0  0  0  0  0  0  0
  140.2858   70.4424  221.1205 H   0  0  0  0  0  0  0  0  0  0  0  0
  139.9899   69.3623  222.4881 H   0  0  0  0  0  0  0  0  0  0  0  0
  138.1168   70.3213  220.3351 H   0  0  0  0  0  0  0  0  0  0  0  0
  138.0956   68.7819  221.2732 H   0  0  0  0  0  0  0  0  0  0  0  0
  136.9897   71.5046  222.0561 H   0  0  0  0  0  0  0  0  0  0  0  0
  136.1380   69.9492  221.9954 H   0  0  0  0  0  0  0  0  0  0  0  0
  136.6799   70.2831  224.3438 H   0  0  0  0  0  0  0  0  0  0  0  0
  137.8986   69.1165  223.7734 H   0  0  0  0  0  0  0  0  0  0  0  0
  138.3097   72.1252  224.4040 H   0  0  0  0  0  0  0  0  0  0  0  0
  138.7104   68.4992  224.6167 H   0  0  0  0  0  0  0  0  0  0  0  0
  140.0948   67.3697  226.3305 H   0  0  0  0  0  0  0  0  0  0  0  0
  141.6596   68.6682  227.7568 H   0  0  0  0  0  0  0  0  0  0  0  0
  141.8179   71.1265  227.4353 H   0  0  0  0  0  0  0  0  0  0  0  0
  140.4465   72.2426  225.7369 H   0  0  0  0  0  0  0  0  0  0  0  0
  137.3196   78.3746  222.8323 H   0  0  0  0  0  0  0  0  0  0  0  0
  138.2034   80.6246  223.3099 H   0  0  0  0  0  0  0  0  0  0  0  0
  140.0579   82.0288  223.6314 H   0  0  0  0  0  0  0  0  0  0  0  0
  142.5182   82.3790  223.7550 H   0  0  0  0  0  0  0  0  0  0  0  0
  143.1130   78.1964  222.9118 H   0  0  0  0  0  0  0  0  0  0  0  0
  1  2  2  0
  2  3  1  0
  3  4  1  0
  4  5  1  0
  5  6  2  0
  5  7  1  0
  7  8  1  0
  8  9  1  0
  9 10  1  0
 10 11  1  0
 11 12  1  0
 12 13  1  0
 13 14  2  0
 14 15  1  0
 15 16  2  0
 16 17  1  0
 17 18  2  0
  2 19  1  0
 19 20  2  0
 20 21  1  0
 21 22  2  0
 22 23  1  0
 23 24  2  0
 24 25  1  0
 25 26  1  0
 25 27  2  0
 27 28  1  0
 28 29  2  0
 12  7  1  0
 18 13  1  0
 29 19  1  0
 28 22  1  0
  3 30  1  0
  4 31  1  0
  4 32  1  0
  8 33  1  0
  8 34  1  0
  9 35  1  0
  9 36  1  0
 10 37  1  0
 10 38  1  0
 11 39  1  0
 11 40  1  0
 12 41  1  1
 14 42  1  0
 15 43  1  0
 16 44  1  0
 17 45  1  0
 18 46  1  0
 20 47  1  0
 21 48  1  0
 23 49  1  0
 24 50  1  0
 27 51  1  0
M  END
>  <smiles>  (95) 
O=C(NCC(=O)N1CCCCC1c1ccccc1)c1ccc2ccc(F)cc2n1

>  <score_type>  (95) 
oracle

>  <origin>  (95) 
autodockgpu

>  <m_score__min__energy>  (95) 
-8.9299999999999997

>  <m_primary>  (95) 
energy

>  <rmsd>  (95) 
8.244556406219962

>  <m_score__min__rmsd>  (95) 
8.244556406219962

>  <meeko>  (95) 
{"free_energy": -8.1, "intermolecular_energy": -9.59, "internal_energy": -2.01, "cluster_size": 19, "cluster_id": 1, "rank_in_cluster": 17}

>  <energy>  (95) 
-8.17

>  <cluster_rmsd>  (95) 
0.83

>  <cluster>  (95) 
2

$$$$

     RDKit          3D

 51 54  0  0  0  0  0  0  0  0999 V2000
  140.6100   74.2060  221.4930 O   0  0  0  0  0  0  0  0  0  0  0  0
  139.5740   74.7610  221.9710 C   0  0  0  0  0  0  0  0  0  0  0  0
  138.3680   74.0600  222.1440 N   0  0  0  0  0  0  0  0  0  0  0  0
  138.2980   72.6590  221.7670 C   0  0  0  0  0  0  0  0  0  0  0  0
  137.9340   71.8970  222.9900 C   0  0  0  0  0  0  0  0  0  0  0  0
  136.9210   72.1560  223.6910 O   0  0  0  0  0  0  0  0  0  0  0  0
  138.7650   70.8170  223.4010 N   0  0  0  0  0  0  0  0  0  0  0  0
  139.9350   70.4400  222.6300 C   0  0  0  0  0  0  0  0  0  0  0  0
  139.5730   69.1140  221.9650 C   0  0  0  0  0  0  0  0  0  0  0  0
  138.4800   68.4180  222.7400 C   0  0  0  0  0  0  0  0  0  0  0  0
  138.8200   68.5950  224.2240 C   0  0  0  0  0  0  0  0  0  0  0  0
  138.4900   70.0460  224.5990 C   0  0  1  0  0  0  0  0  0  0  0  0
  139.4170   70.3740  225.7190 C   0  0  0  0  0  0  0  0  0  0  0  0
  140.2410   71.4910  225.6710 C   0  0  0  0  0  0  0  0  0  0  0  0
  141.1070   71.7950  226.7200 C   0  0  0  0  0  0  0  0  0  0  0  0
  141.1740   70.9940  227.8410 C   0  0  0  0  0  0  0  0  0  0  0  0
  140.3650   69.8860  227.9000 C   0  0  0  0  0  0  0  0  0  0  0  0
  139.5120   69.5930  226.8570 C   0  0  0  0  0  0  0  0  0  0  0  0
  139.6690   76.1850  222.3480 C   0  0  0  0  0  0  0  0  0  0  0  0
  138.5610   76.9540  222.5130 C   0  0  0  0  0  0  0  0  0  0  0  0
  138.5800   78.2870  222.8630 C   0  0  0  0  0  0  0  0  0  0  0  0
  139.8150   78.8700  223.0580 C   0  0  0  0  0  0  0  0  0  0  0  0
  139.8530   80.1940  223.4070 C   0  0  0  0  0  0  0  0  0  0  0  0
  141.0650   80.8090  223.6090 C   0  0  0  0  0  0  0  0  0  0  0  0
  142.2210   80.0640  223.4520 C   0  0  0  0  0  0  0  0  0  0  0  0
  143.3920   80.7140  223.6630 F   0  0  0  0  0  0  0  0  0  0  0  0
  142.1610   78.7240  223.0990 C   0  0  0  0  0  0  0  0  0  0  0  0
  140.9530   78.0910  222.8920 C   0  0  0  0  0  0  0  0  0  0  0  0
  140.8740   76.7790  222.5450 N   0  0  0  0  0  0  0  0  0  0  0  0
  137.5290   74.5640  222.5480 H   0  0  0  0  0  0  0  0  0  0  0  0
  137.5325   72.5147  220.9903 H   0  0  0  0  0  0  0  0  0  0  0  0
  139.2602   72.3134  221.3613 H   0  0  0  0  0  0  0  0  0  0  0  0
  140.1574   71.2035  221.8700 H   0  0  0  0  0  0  0  0  0  0  0  0
  140.8299   70.3490  223.2631 H   0  0  0  0  0  0  0  0  0  0  0  0
  139.2244   69.3060  220.9395 H   0  0  0  0  0  0  0  0  0  0  0  0
  140.4638   68.4690  221.9466 H   0  0  0  0  0  0  0  0  0  0  0  0
  137.5049   68.8753  222.5162 H   0  0  0  0  0  0  0  0  0  0  0  0
  138.4164   67.3535  222.4702 H   0  0  0  0  0  0  0  0  0  0  0  0
  138.2193   67.9032  224.8327 H   0  0  0  0  0  0  0  0  0  0  0  0
  139.8825   68.3776  224.4083 H   0  0  0  0  0  0  0  0  0  0  0  0
  137.4561   70.2415  224.9198 H   0  0  0  0  0  0  0  0  0  0  0  0
  140.2096   72.1477  224.7891 H   0  0  0  0  0  0  0  0  0  0  0  0
  141.7468   72.6873  226.6529 H   0  0  0  0  0  0  0  0  0  0  0  0
  141.8585   71.2368  228.6672 H   0  0  0  0  0  0  0  0  0  0  0  0
  140.3976   69.2299  228.7823 H   0  0  0  0  0  0  0  0  0  0  0  0
  138.8780   68.6973  226.9333 H   0  0  0  0  0  0  0  0  0  0  0  0
  137.5809   76.4798  222.3564 H   0  0  0  0  0  0  0  0  0  0  0  0
  137.6496   78.8617  222.9818 H   0  0  0  0  0  0  0  0  0  0  0  0
  138.9183   80.7618  223.5249 H   0  0  0  0  0  0  0  0  0  0  0  0
  141.1156   81.8714  223.8897 H   0  0  0  0  0  0  0  0  0  0  0  0
  143.0950   78.1549  222.9818 H   0  0  0  0  0  0  0  0  0  0  0  0
  1  2  2  0
  2  3  1  0
  3  4  1  0
  4  5  1  0
  5  6  2  0
  5  7  1  0
  7  8  1  0
  8  9  1  0
  9 10  1  0
 10 11  1  0
 11 12  1  0
 12 13  1  0
 13 14  2  0
 14 15  1  0
 15 16  2  0
 16 17  1  0
 17 18  2  0
  2 19  1  0
 19 20  2  0
 20 21  1  0
 21 22  2  0
 22 23  1  0
 23 24  2  0
 24 25  1  0
 25 26  1  0
 25 27  2  0
 27 28  1  0
 28 29  2  0
 12  7  1  0
 18 13  1  0
 29 19  1  0
 28 22  1  0
  3 30  1  0
  4 31  1  0
  4 32  1  0
  8 33  1  0
  8 34  1  0
  9 35  1  0
  9 36  1  0
 10 37  1  0
 10 38  1  0
 11 39  1  0
 11 40  1  0
 12 41  1  1
 14 42  1  0
 15 43  1  0
 16 44  1  0
 17 45  1  0
 18 46  1  0
 20 47  1  0
 21 48  1  0
 23 49  1  0
 24 50  1  0
 27 51  1  0
M  END
>  <smiles>  (96) 
O=C(NCC(=O)N1CCCCC1c1ccccc1)c1ccc2ccc(F)cc2n1

>  <score_type>  (96) 
oracle

>  <origin>  (96) 
autodockgpu

>  <m_score__min__energy>  (96) 
-8.9299999999999997

>  <m_primary>  (96) 
energy

>  <rmsd>  (96) 
8.068889089485346

>  <m_score__min__rmsd>  (96) 
8.068889089485346

>  <meeko>  (96) 
{"free_energy": -8.34, "intermolecular_energy": -9.84, "internal_energy": -1.52, "cluster_size": 19, "cluster_id": 1, "rank_in_cluster": 9}

>  <energy>  (96) 
-8.38

>  <cluster_rmsd>  (96) 
0.0

>  <cluster>  (96) 
3

$$$$

     RDKit          3D

 51 54  0  0  0  0  0  0  0  0999 V2000
  141.2680   72.2380  221.2630 O   0  0  0  0  0  0  0  0  0  0  0  0
  140.4740   72.5120  222.2140 C   0  0  0  0  0  0  0  0  0  0  0  0
  139.8700   73.7750  222.3370 N   0  0  0  0  0  0  0  0  0  0  0  0
  140.1560   74.8010  221.3510 C   0  0  0  0  0  0  0  0  0  0  0  0
  139.3020   75.9730  221.6820 C   0  0  0  0  0  0  0  0  0  0  0  0
  138.2850   75.9010  222.4200 O   0  0  0  0  0  0  0  0  0  0  0  0
  139.6420   77.2460  221.1440 N   0  0  0  0  0  0  0  0  0  0  0  0
  138.6140   78.2090  220.7980 C   0  0  0  0  0  0  0  0  0  0  0  0
  138.5860   78.2450  219.2720 C   0  0  0  0  0  0  0  0  0  0  0  0
  139.9100   77.7810  218.7120 C   0  0  0  0  0  0  0  0  0  0  0  0
  140.9970   78.4130  219.5890 C   0  0  0  0  0  0  0  0  0  0  0  0
  141.0190   77.6430  220.9160 C   0  0  1  0  0  0  0  0  0  0  0  0
  141.5070   78.6280  221.9230 C   0  0  0  0  0  0  0  0  0  0  0  0
  141.3890   78.3860  223.2860 C   0  0  0  0  0  0  0  0  0  0  0  0
  141.8460   79.3090  224.2250 C   0  0  0  0  0  0  0  0  0  0  0  0
  142.4320   80.4930  223.8300 C   0  0  0  0  0  0  0  0  0  0  0  0
  142.5540   80.7440  222.4860 C   0  0  0  0  0  0  0  0  0  0  0  0
  142.0980   79.8260  221.5640 C   0  0  0  0  0  0  0  0  0  0  0  0
  140.1970   71.4530  223.2050 C   0  0  0  0  0  0  0  0  0  0  0  0
  139.3900   70.3990  222.9170 C   0  0  0  0  0  0  0  0  0  0  0  0
  139.0910   69.3790  223.7940 C   0  0  0  0  0  0  0  0  0  0  0  0
  139.6580   69.4440  225.0510 C   0  0  0  0  0  0  0  0  0  0  0  0
  139.3720   68.4390  225.9370 C   0  0  0  0  0  0  0  0  0  0  0  0
  139.9180   68.4690  227.1970 C   0  0  0  0  0  0  0  0  0  0  0  0
  140.7470   69.5250  227.5360 C   0  0  0  0  0  0  0  0  0  0  0  0
  141.2610   69.5100  228.7900 F   0  0  0  0  0  0  0  0  0  0  0  0
  141.0240   70.5320  226.6230 C   0  0  0  0  0  0  0  0  0  0  0  0
  140.4850   70.5180  225.3540 C   0  0  0  0  0  0  0  0  0  0  0  0
  140.7440   71.4970  224.4470 N   0  0  0  0  0  0  0  0  0  0  0  0
  139.2130   73.9580  223.1480 H   0  0  0  0  0  0  0  0  0  0  0  0
  141.2183   75.0829  221.3965 H   0  0  0  0  0  0  0  0  0  0  0  0
  139.9463   74.4374  220.3342 H   0  0  0  0  0  0  0  0  0  0  0  0
  137.6386   77.8887  221.1930 H   0  0  0  0  0  0  0  0  0  0  0  0
  138.8230   79.2006  221.2259 H   0  0  0  0  0  0  0  0  0  0  0  0
  137.7862   77.5833  218.9081 H   0  0  0  0  0  0  0  0  0  0  0  0
  138.4002   79.2777  218.9419 H   0  0  0  0  0  0  0  0  0  0  0  0
  139.9773   76.6839  218.7544 H   0  0  0  0  0  0  0  0  0  0  0  0
  140.0239   78.0792  217.6593 H   0  0  0  0  0  0  0  0  0  0  0  0
  141.9750   78.3337  219.0917 H   0  0  0  0  0  0  0  0  0  0  0  0
  140.7869   79.4789  219.7612 H   0  0  0  0  0  0  0  0  0  0  0  0
  141.6587   76.7487  220.9484 H   0  0  0  0  0  0  0  0  0  0  0  0
  140.9266   77.4491  223.6302 H   0  0  0  0  0  0  0  0  0  0  0  0
  141.7375   79.0896  225.2974 H   0  0  0  0  0  0  0  0  0  0  0  0
  142.7929   81.2187  224.5737 H   0  0  0  0  0  0  0  0  0  0  0  0
  143.0173   81.6810  222.1434 H   0  0  0  0  0  0  0  0  0  0  0  0
  142.2092   80.0567  220.4942 H   0  0  0  0  0  0  0  0  0  0  0  0
  138.9435   70.3567  221.9126 H   0  0  0  0  0  0  0  0  0  0  0  0
  138.4293   68.5491  223.5051 H   0  0  0  0  0  0  0  0  0  0  0  0
  138.7089   67.6128  225.6410 H   0  0  0  0  0  0  0  0  0  0  0  0
  139.7012   67.6705  227.9219 H   0  0  0  0  0  0  0  0  0  0  0  0
  141.6873   71.3586  226.9175 H   0  0  0  0  0  0  0  0  0  0  0  0
  1  2  2  0
  2  3  1  0
  3  4  1  0
  4  5  1  0
  5  6  2  0
  5  7  1  0
  7  8  1  0
  8  9  1  0
  9 10  1  0
 10 11  1  0
 11 12  1  0
 12 13  1  0
 13 14  2  0
 14 15  1  0
 15 16  2  0
 16 17  1  0
 17 18  2  0
  2 19  1  0
 19 20  2  0
 20 21  1  0
 21 22  2  0
 22 23  1  0
 23 24  2  0
 24 25  1  0
 25 26  1  0
 25 27  2  0
 27 28  1  0
 28 29  2  0
 12  7  1  0
 18 13  1  0
 29 19  1  0
 28 22  1  0
  3 30  1  0
  4 31  1  0
  4 32  1  0
  8 33  1  0
  8 34  1  0
  9 35  1  0
  9 36  1  0
 10 37  1  0
 10 38  1  0
 11 39  1  0
 11 40  1  0
 12 41  1  6
 14 42  1  0
 15 43  1  0
 16 44  1  0
 17 45  1  0
 18 46  1  0
 20 47  1  0
 21 48  1  0
 23 49  1  0
 24 50  1  0
 27 51  1  0
M  END
>  <smiles>  (97) 
O=C(NCC(=O)N1CCCCC1c1ccccc1)c1ccc2ccc(F)cc2n1

>  <score_type>  (97) 
oracle

>  <origin>  (97) 
autodockgpu

>  <m_score__min__energy>  (97) 
-8.9299999999999997

>  <m_primary>  (97) 
energy

>  <rmsd>  (97) 
2.3248889016322343

>  <m_score__min__rmsd>  (97) 
2.3248889016322343

>  <meeko>  (97) 
{"free_energy": -8.23, "intermolecular_energy": -9.72, "internal_energy": -1.83, "cluster_size": 26, "cluster_id": 2, "rank_in_cluster": 25}

>  <energy>  (97) 
-8.31

>  <cluster_rmsd>  (97) 
0.16

>  <cluster>  (97) 
3

$$$$

     RDKit          3D

 51 54  0  0  0  0  0  0  0  0999 V2000
  139.8400   71.2230  221.1290 O   0  0  0  0  0  0  0  0  0  0  0  0
  139.6020   71.9120  222.1670 C   0  0  0  0  0  0  0  0  0  0  0  0
  139.2020   73.2580  222.0910 N   0  0  0  0  0  0  0  0  0  0  0  0
  139.0550   73.8840  220.7890 C   0  0  0  0  0  0  0  0  0  0  0  0
  139.2370   75.3470  220.9880 C   0  0  0  0  0  0  0  0  0  0  0  0
  138.2790   76.1610  221.0470 O   0  0  0  0  0  0  0  0  0  0  0  0
  140.5550   75.8650  221.1180 N   0  0  0  0  0  0  0  0  0  0  0  0
  140.9910   76.4970  222.3500 C   0  0  0  0  0  0  0  0  0  0  0  0
  141.0870   77.9870  222.0310 C   0  0  0  0  0  0  0  0  0  0  0  0
  141.2750   78.1950  220.5460 C   0  0  0  0  0  0  0  0  0  0  0  0
  142.2720   77.1280  220.0810 C   0  0  0  0  0  0  0  0  0  0  0  0
  141.5230   75.7890  220.0400 C   0  0  1  0  0  0  0  0  0  0  0  0
  142.5710   74.7560  220.2790 C   0  0  0  0  0  0  0  0  0  0  0  0
  142.2340   73.4530  220.6240 C   0  0  0  0  0  0  0  0  0  0  0  0
  143.2160   72.4890  220.8480 C   0  0  0  0  0  0  0  0  0  0  0  0
  144.5550   72.7990  220.7320 C   0  0  0  0  0  0  0  0  0  0  0  0
  144.9000   74.0840  220.3920 C   0  0  0  0  0  0  0  0  0  0  0  0
  143.9220   75.0310  220.1740 C   0  0  0  0  0  0  0  0  0  0  0  0
  139.7580   71.2540  223.4790 C   0  0  0  0  0  0  0  0  0  0  0  0
  139.3190   69.9880  223.7000 C   0  0  0  0  0  0  0  0  0  0  0  0
  139.4340   69.3170  224.8990 C   0  0  0  0  0  0  0  0  0  0  0  0
  140.0390   69.9900  225.9400 C   0  0  0  0  0  0  0  0  0  0  0  0
  140.1620   69.3390  227.1400 C   0  0  0  0  0  0  0  0  0  0  0  0
  140.7590   69.9760  228.2000 C   0  0  0  0  0  0  0  0  0  0  0  0
  141.2220   71.2690  228.0220 C   0  0  0  0  0  0  0  0  0  0  0  0
  141.8040   71.8550  229.0970 F   0  0  0  0  0  0  0  0  0  0  0  0
  141.0880   71.9090  226.7990 C   0  0  0  0  0  0  0  0  0  0  0  0
  140.4910   71.2850  225.7240 C   0  0  0  0  0  0  0  0  0  0  0  0
  140.3510   71.8970  224.5180 N   0  0  0  0  0  0  0  0  0  0  0  0
  139.0140   73.7930  222.9850 H   0  0  0  0  0  0  0  0  0  0  0  0
  139.8178   73.4990  220.0962 H   0  0  0  0  0  0  0  0  0  0  0  0
  138.0670   73.6660  220.3574 H   0  0  0  0  0  0  0  0  0  0  0  0
  140.2590   76.3218  223.1522 H   0  0  0  0  0  0  0  0  0  0  0  0
  141.9519   76.0913  222.6995 H   0  0  0  0  0  0  0  0  0  0  0  0
  140.1618   78.4873  222.3531 H   0  0  0  0  0  0  0  0  0  0  0  0
  141.9506   78.4118  222.5637 H   0  0  0  0  0  0  0  0  0  0  0  0
  140.3161   78.0740  220.0208 H   0  0  0  0  0  0  0  0  0  0  0  0
  141.6458   79.2078  220.3296 H   0  0  0  0  0  0  0  0  0  0  0  0
  142.6507   77.3781  219.0790 H   0  0  0  0  0  0  0  0  0  0  0  0
  143.1305   77.0727  220.7665 H   0  0  0  0  0  0  0  0  0  0  0  0
  140.9955   75.5555  219.1034 H   0  0  0  0  0  0  0  0  0  0  0  0
  141.1737   73.1771  220.7221 H   0  0  0  0  0  0  0  0  0  0  0  0
  142.9185   71.4659  221.1214 H   0  0  0  0  0  0  0  0  0  0  0  0
  145.3274   72.0358  220.9075 H   0  0  0  0  0  0  0  0  0  0  0  0
  145.9605   74.3587  220.2932 H   0  0  0  0  0  0  0  0  0  0  0  0
  144.2305   76.0518  219.9042 H   0  0  0  0  0  0  0  0  0  0  0  0
  138.8376   69.4606  222.8633 H   0  0  0  0  0  0  0  0  0  0  0  0
  139.0596   68.2898  225.0201 H   0  0  0  0  0  0  0  0  0  0  0  0
  139.7846   68.3120  227.2533 H   0  0  0  0  0  0  0  0  0  0  0  0
  140.8672   69.4696  229.1705 H   0  0  0  0  0  0  0  0  0  0  0  0
  141.4658   72.9357  226.6841 H   0  0  0  0  0  0  0  0  0  0  0  0
  1  2  2  0
  2  3  1  0
  3  4  1  0
  4  5  1  0
  5  6  2  0
  5  7  1  0
  7  8  1  0
  8  9  1  0
  9 10  1  0
 10 11  1  0
 11 12  1  0
 12 13  1  0
 13 14  2  0
 14 15  1  0
 15 16  2  0
 16 17  1  0
 17 18  2  0
  2 19  1  0
 19 20  2  0
 20 21  1  0
 21 22  2  0
 22 23  1  0
 23 24  2  0
 24 25  1  0
 25 26  1  0
 25 27  2  0
 27 28  1  0
 28 29  2  0
 12  7  1  0
 18 13  1  0
 29 19  1  0
 28 22  1  0
  3 30  1  0
  4 31  1  0
  4 32  1  0
  8 33  1  0
  8 34  1  0
  9 35  1  0
  9 36  1  0
 10 37  1  0
 10 38  1  0
 11 39  1  0
 11 40  1  0
 12 41  1  6
 14 42  1  0
 15 43  1  0
 16 44  1  0
 17 45  1  0
 18 46  1  0
 20 47  1  0
 21 48  1  0
 23 49  1  0
 24 50  1  0
 27 51  1  0
M  END
>  <smiles>  (98) 
O=C(NCC(=O)N1CCCCC1c1ccccc1)c1ccc2ccc(F)cc2n1

>  <score_type>  (98) 
oracle

>  <origin>  (98) 
autodockgpu

>  <m_score__min__energy>  (98) 
-8.9299999999999997

>  <m_primary>  (98) 
energy

>  <rmsd>  (98) 
2.5309088872756873

>  <m_score__min__rmsd>  (98) 
2.5309088872756873

>  <meeko>  (98) 
{"free_energy": -8.38, "intermolecular_energy": -9.87, "internal_energy": -1.87, "cluster_size": 5, "cluster_id": 3, "rank_in_cluster": 1}

>  <energy>  (98) 
-8.26

>  <cluster_rmsd>  (98) 
0.17

>  <cluster>  (98) 
3

$$$$

     RDKit          3D

 51 54  0  0  0  0  0  0  0  0999 V2000
  140.8840   72.2080  221.1530 O   0  0  0  0  0  0  0  0  0  0  0  0
  140.1410   72.5240  222.1310 C   0  0  0  0  0  0  0  0  0  0  0  0
  139.5130   73.7790  222.2130 N   0  0  0  0  0  0  0  0  0  0  0  0
  139.7150   74.7470  221.1500 C   0  0  0  0  0  0  0  0  0  0  0  0
  139.5380   76.0960  221.7500 C   0  0  0  0  0  0  0  0  0  0  0  0
  138.9400   76.2960  222.8390 O   0  0  0  0  0  0  0  0  0  0  0  0
  140.0670   77.2280  221.0680 N   0  0  0  0  0  0  0  0  0  0  0  0
  139.2120   78.0850  220.2680 C   0  0  0  0  0  0  0  0  0  0  0  0
  139.5860   77.7930  218.8170 C   0  0  0  0  0  0  0  0  0  0  0  0
  140.9870   77.2330  218.7380 C   0  0  0  0  0  0  0  0  0  0  0  0
  141.8360   78.0480  219.7200 C   0  0  0  0  0  0  0  0  0  0  0  0
  141.4730   77.5800  221.1360 C   0  0  1  0  0  0  0  0  0  0  0  0
  141.7280   78.7620  222.0080 C   0  0  0  0  0  0  0  0  0  0  0  0
  141.8910   80.0330  221.4710 C   0  0  0  0  0  0  0  0  0  0  0  0
  142.1290   81.1360  222.2900 C   0  0  0  0  0  0  0  0  0  0  0  0
  142.2100   81.0000  223.6600 C   0  0  0  0  0  0  0  0  0  0  0  0
  142.0500   79.7490  224.2020 C   0  0  0  0  0  0  0  0  0  0  0  0
  141.8150   78.6640  223.3850 C   0  0  0  0  0  0  0  0  0  0  0  0
  139.9490   71.5250  223.2000 C   0  0  0  0  0  0  0  0  0  0  0  0
  139.1030   70.4730  223.0510 C   0  0  0  0  0  0  0  0  0  0  0  0
  138.8790   69.5060  224.0070 C   0  0  0  0  0  0  0  0  0  0  0  0
  139.5680   69.6260  225.1970 C   0  0  0  0  0  0  0  0  0  0  0  0
  139.3580   68.6740  226.1600 C   0  0  0  0  0  0  0  0  0  0  0  0
  140.0260   68.7600  227.3560 C   0  0  0  0  0  0  0  0  0  0  0  0
  140.9000   69.8160  227.5550 C   0  0  0  0  0  0  0  0  0  0  0  0
  141.5360   69.8580  228.7510 F   0  0  0  0  0  0  0  0  0  0  0  0
  141.0980   70.7690  226.5660 C   0  0  0  0  0  0  0  0  0  0  0  0
  140.4360   70.6980  225.3580 C   0  0  0  0  0  0  0  0  0  0  0  0
  140.6170   71.6230  224.3790 N   0  0  0  0  0  0  0  0  0  0  0  0
  138.9000   73.9990  223.0480 H   0  0  0  0  0  0  0  0  0  0  0  0
  140.7295   74.6477  220.7366 H   0  0  0  0  0  0  0  0  0  0  0  0
  138.9990   74.5851  220.3308 H   0  0  0  0  0  0  0  0  0  0  0  0
  138.1531   77.8473  220.4475 H   0  0  0  0  0  0  0  0  0  0  0  0
  139.3487   79.1472  220.5191 H   0  0  0  0  0  0  0  0  0  0  0  0
  138.8787   77.0607  218.4005 H   0  0  0  0  0  0  0  0  0  0  0  0
  139.5424   78.7293  218.2414 H   0  0  0  0  0  0  0  0  0  0  0  0
  140.9887   76.1710  219.0245 H   0  0  0  0  0  0  0  0  0  0  0  0
  141.3860   77.3007  217.7151 H   0  0  0  0  0  0  0  0  0  0  0  0
  142.9049   77.8730  219.5283 H   0  0  0  0  0  0  0  0  0  0  0  0
  141.6400   79.1241  219.6037 H   0  0  0  0  0  0  0  0  0  0  0  0
  142.0381   76.7193  221.5230 H   0  0  0  0  0  0  0  0  0  0  0  0
  141.8313   80.1714  220.3814 H   0  0  0  0  0  0  0  0  0  0  0  0
  142.2541   82.1302  221.8363 H   0  0  0  0  0  0  0  0  0  0  0  0
  142.3982   81.8726  224.3027 H   0  0  0  0  0  0  0  0  0  0  0  0
  142.1095   79.6120  225.2918 H   0  0  0  0  0  0  0  0  0  0  0  0
  141.6909   77.6746  223.8494 H   0  0  0  0  0  0  0  0  0  0  0  0
  138.5578   70.3867  222.0995 H   0  0  0  0  0  0  0  0  0  0  0  0
  138.1812   68.6744  223.8294 H   0  0  0  0  0  0  0  0  0  0  0  0
  138.6581   67.8456  225.9756 H   0  0  0  0  0  0  0  0  0  0  0  0
  139.8703   68.0052  228.1409 H   0  0  0  0  0  0  0  0  0  0  0  0
  141.7973   71.5981  226.7491 H   0  0  0  0  0  0  0  0  0  0  0  0
  1  2  2  0
  2  3  1  0
  3  4  1  0
  4  5  1  0
  5  6  2  0
  5  7  1  0
  7  8  1  0
  8  9  1  0
  9 10  1  0
 10 11  1  0
 11 12  1  0
 12 13  1  0
 13 14  2  0
 14 15  1  0
 15 16  2  0
 16 17  1  0
 17 18  2  0
  2 19  1  0
 19 20  2  0
 20 21  1  0
 21 22  2  0
 22 23  1  0
 23 24  2  0
 24 25  1  0
 25 26  1  0
 25 27  2  0
 27 28  1  0
 28 29  2  0
 12  7  1  0
 18 13  1  0
 29 19  1  0
 28 22  1  0
  3 30  1  0
  4 31  1  0
  4 32  1  0
  8 33  1  0
  8 34  1  0
  9 35  1  0
  9 36  1  0
 10 37  1  0
 10 38  1  0
 11 39  1  0
 11 40  1  0
 12 41  1  1
 14 42  1  0
 15 43  1  0
 16 44  1  0
 17 45  1  0
 18 46  1  0
 20 47  1  0
 21 48  1  0
 23 49  1  0
 24 50  1  0
 27 51  1  0
M  END
>  <smiles>  (99) 
O=C(NCC(=O)N1CCCCC1c1ccccc1)c1ccc2ccc(F)cc2n1

>  <score_type>  (99) 
oracle

>  <origin>  (99) 
autodockgpu

>  <m_score__min__energy>  (99) 
-8.9299999999999997

>  <m_primary>  (99) 
energy

>  <rmsd>  (99) 
2.0690007065789877

>  <m_score__min__rmsd>  (99) 
2.0690007065789877

>  <meeko>  (99) 
{"free_energy": -8.47, "intermolecular_energy": -9.96, "internal_energy": -1.77, "cluster_size": 26, "cluster_id": 2, "rank_in_cluster": 20}

>  <energy>  (99) 
-8.21

>  <cluster_rmsd>  (99) 
0.84

>  <cluster>  (99) 
3

$$$$

     RDKit          3D

 51 54  0  0  0  0  0  0  0  0999 V2000
  141.3850   72.1280  221.5480 O   0  0  0  0  0  0  0  0  0  0  0  0
  140.4550   72.3770  222.3740 C   0  0  0  0  0  0  0  0  0  0  0  0
  139.7340   73.5830  222.3410 N   0  0  0  0  0  0  0  0  0  0  0  0
  140.0560   74.5780  221.3340 C   0  0  0  0  0  0  0  0  0  0  0  0
  139.5600   75.8850  221.8410 C   0  0  0  0  0  0  0  0  0  0  0  0
  138.7970   75.9980  222.8350 O   0  0  0  0  0  0  0  0  0  0  0  0
  139.9610   77.0780  221.1750 N   0  0  0  0  0  0  0  0  0  0  0  0
  138.9830   77.9520  220.5550 C   0  0  0  0  0  0  0  0  0  0  0  0
  139.1700   77.7680  219.0510 C   0  0  0  0  0  0  0  0  0  0  0  0
  140.5630   77.2680  218.7520 C   0  0  0  0  0  0  0  0  0  0  0  0
  141.5110   78.0500  219.6680 C   0  0  0  0  0  0  0  0  0  0  0  0
  141.3530   77.4780  221.0830 C   0  0  1  0  0  0  0  0  0  0  0  0
  141.6860   78.6100  221.9940 C   0  0  0  0  0  0  0  0  0  0  0  0
  141.5260   78.5010  223.3700 C   0  0  0  0  0  0  0  0  0  0  0  0
  141.8380   79.5620  224.2190 C   0  0  0  0  0  0  0  0  0  0  0  0
  142.3180   80.7540  223.7190 C   0  0  0  0  0  0  0  0  0  0  0  0
  142.4810   80.8740  222.3610 C   0  0  0  0  0  0  0  0  0  0  0  0
  142.1680   79.8200  221.5290 C   0  0  0  0  0  0  0  0  0  0  0  0
  140.1440   71.3500  223.3890 C   0  0  0  0  0  0  0  0  0  0  0  0
  139.2040   70.3940  223.1710 C   0  0  0  0  0  0  0  0  0  0  0  0
  138.8660   69.4090  224.0740 C   0  0  0  0  0  0  0  0  0  0  0  0
  139.5360   69.4040  225.2800 C   0  0  0  0  0  0  0  0  0  0  0  0
  139.2140   68.4320  226.1910 C   0  0  0  0  0  0  0  0  0  0  0  0
  139.8600   68.3960  227.4020 C   0  0  0  0  0  0  0  0  0  0  0  0
  140.8260   69.3510  227.6690 C   0  0  0  0  0  0  0  0  0  0  0  0
  141.4350   69.2730  228.8770 F   0  0  0  0  0  0  0  0  0  0  0  0
  141.1380   70.3260  226.7330 C   0  0  0  0  0  0  0  0  0  0  0  0
  140.4990   70.3780  225.5110 C   0  0  0  0  0  0  0  0  0  0  0  0
  140.7910   71.3260  224.5820 N   0  0  0  0  0  0  0  0  0  0  0  0
  138.9640   73.7460  223.0500 H   0  0  0  0  0  0  0  0  0  0  0  0
  141.1443   74.6209  221.1796 H   0  0  0  0  0  0  0  0  0  0  0  0
  139.5883   74.3274  220.3704 H   0  0  0  0  0  0  0  0  0  0  0  0
  137.9646   77.6634  220.8543 H   0  0  0  0  0  0  0  0  0  0  0  0
  139.1205   79.0002  220.8589 H   0  0  0  0  0  0  0  0  0  0  0  0
  138.4354   77.0377  218.6809 H   0  0  0  0  0  0  0  0  0  0  0  0
  139.0235   78.7371  218.5516 H   0  0  0  0  0  0  0  0  0  0  0  0
  140.6336   76.1906  218.9626 H   0  0  0  0  0  0  0  0  0  0  0  0
  140.8204   77.4161  217.6929 H   0  0  0  0  0  0  0  0  0  0  0  0
  142.5496   77.9286  219.3267 H   0  0  0  0  0  0  0  0  0  0  0  0
  141.2704   79.1232  219.6526 H   0  0  0  0  0  0  0  0  0  0  0  0
  141.9897   76.6163  221.3322 H   0  0  0  0  0  0  0  0  0  0  0  0
  141.1465   77.5610  223.7970 H   0  0  0  0  0  0  0  0  0  0  0  0
  141.6991   79.4464  225.3041 H   0  0  0  0  0  0  0  0  0  0  0  0
  142.5644   81.5886  224.3918 H   0  0  0  0  0  0  0  0  0  0  0  0
  142.8625   81.8139  221.9355 H   0  0  0  0  0  0  0  0  0  0  0  0
  142.3081   79.9474  220.4454 H   0  0  0  0  0  0  0  0  0  0  0  0
  138.6755   70.4068  222.2063 H   0  0  0  0  0  0  0  0  0  0  0  0
  138.0951   68.6591  223.8430 H   0  0  0  0  0  0  0  0  0  0  0  0
  138.4424   67.6849  225.9533 H   0  0  0  0  0  0  0  0  0  0  0  0
  139.6148   67.6234  228.1456 H   0  0  0  0  0  0  0  0  0  0  0  0
  141.9103   71.0727  226.9696 H   0  0  0  0  0  0  0  0  0  0  0  0
  1  2  2  0
  2  3  1  0
  3  4  1  0
  4  5  1  0
  5  6  2  0
  5  7  1  0
  7  8  1  0
  8  9  1  0
  9 10  1  0
 10 11  1  0
 11 12  1  0
 12 13  1  0
 13 14  2  0
 14 15  1  0
 15 16  2  0
 16 17  1  0
 17 18  2  0
  2 19  1  0
 19 20  2  0
 20 21  1  0
 21 22  2  0
 22 23  1  0
 23 24  2  0
 24 25  1  0
 25 26  1  0
 25 27  2  0
 27 28  1  0
 28 29  2  0
 12  7  1  0
 18 13  1  0
 29 19  1  0
 28 22  1  0
  3 30  1  0
  4 31  1  0
  4 32  1  0
  8 33  1  0
  8 34  1  0
  9 35  1  0
  9 36  1  0
 10 37  1  0
 10 38  1  0
 11 39  1  0
 11 40  1  0
 12 41  1  6
 14 42  1  0
 15 43  1  0
 16 44  1  0
 17 45  1  0
 18 46  1  0
 20 47  1  0
 21 48  1  0
 23 49  1  0
 24 50  1  0
 27 51  1  0
M  END
>  <smiles>  (100) 
O=C(NCC(=O)N1CCCCC1c1ccccc1)c1ccc2ccc(F)cc2n1

>  <score_type>  (100) 
oracle

>  <origin>  (100) 
autodockgpu

>  <m_score__min__energy>  (100) 
-8.9299999999999997

>  <m_primary>  (100) 
energy

>  <rmsd>  (100) 
2.1474646983017784

>  <m_score__min__rmsd>  (100) 
2.1474646983017784

>  <meeko>  (100) 
{"free_energy": -8.5, "intermolecular_energy": -9.99, "internal_energy": -1.81, "cluster_size": 26, "cluster_id": 2, "rank_in_cluster": 12}

>  <energy>  (100) 
-8.16

>  <cluster_rmsd>  (100) 
0.89

>  <cluster>  (100) 
3

$$$$
